VQS.pdb
     RDKit          3D

 23 22  0  0  1  0  0  0  0  0999 V2000
   16.8764  -15.5864  -16.6659 C   0  0  0  0  0  0  0  0  0  0  0  0
   16.6098  -14.1231  -16.5922 C   0  0  2  0  0  0  0  0  0  0  0  0
   16.8583  -13.4661  -17.9467 C   0  0  0  0  0  0  0  0  0  0  0  0
   17.5004  -13.4149  -15.5989 C   0  0  2  0  0  0  0  0  0  0  0  0
   17.7097  -14.1172  -14.3838 N   0  0  0  0  0  0  0  0  0  0  0  0
   16.8823  -12.0972  -15.3013 C   0  0  0  0  0  0  0  0  0  0  0  0
   16.5398  -11.3915  -16.2889 O   0  0  0  0  0  0  0  0  0  0  0  0
   13.4728  -10.6130  -10.2847 N   0  0  0  0  0  0  0  0  0  0  0  0
   13.4211   -9.4026  -11.0282 C   0  0  0  0  0  0  0  0  0  0  0  0
   12.6200   -8.5043  -10.6796 O   0  0  0  0  0  0  0  0  0  0  0  0
   14.3162   -9.1959  -12.2221 C   0  0  0  0  0  0  0  0  0  0  0  0
   15.1554  -10.4171  -12.4705 C   0  0  0  0  0  0  0  0  0  0  0  0
   15.9838  -10.3459  -13.7046 C   0  0  2  0  0  0  0  0  0  0  0  0
   16.6585  -11.5942  -14.0052 N   0  0  0  0  0  0  0  0  0  0  0  0
   16.9639   -9.2461  -13.7272 C   0  0  0  0  0  0  0  0  0  0  0  0
   18.0511   -9.2703  -13.1129 O   0  0  0  0  0  0  0  0  0  0  0  0
   18.5007   -7.6894  -16.5838 O   0  0  0  0  0  0  0  0  0  0  0  0
   17.8468   -6.5910  -16.0095 C   0  0  0  0  0  0  0  0  0  0  0  0
   17.6196   -6.9414  -14.5559 C   0  0  2  0  0  0  0  0  0  0  0  0
   16.6984   -8.0641  -14.4809 N   0  0  0  0  0  0  0  0  0  0  0  0
   17.1988   -5.8093  -13.7408 C   0  0  0  0  0  0  0  0  0  0  0  0
   16.1179   -5.8540  -13.1115 O   0  0  0  0  0  0  0  0  0  0  0  0
   17.9633   -4.6590  -13.6311 O   0  0  0  0  0  0  0  0  0  0  0  0
  2  1  1  6
  2  4  1  0
  2  3  1  0
  4  6  1  0
  4  5  1  1
  6  7  2  0
  9 11  1  0
  9  8  1  0
 10  9  2  0
 13 12  1  1
 12 11  1  0
 13 15  1  0
 14  6  1  0
 14 13  1  0
 15 16  2  0
 18 17  1  0
 19 18  1  6
 19 21  1  0
 20 19  1  0
 20 15  1  0
 21 22  2  0
 21 23  1  0
M  END
$$$$
