VQS.pdb
     RDKit          3D

 23 22  0  0  1  0  0  0  0  0999 V2000
   24.4164  -11.5314  -17.0987 C   0  0  0  0  0  0  0  0  0  0  0  0
   23.7843  -12.0378  -15.8489 C   0  0  2  0  0  0  0  0  0  0  0  0
   24.4333  -13.3490  -15.4155 C   0  0  0  0  0  0  0  0  0  0  0  0
   22.3092  -12.3191  -16.0111 C   0  0  2  0  0  0  0  0  0  0  0  0
   21.9919  -13.2521  -17.0321 N   0  0  0  0  0  0  0  0  0  0  0  0
   21.6353  -11.0277  -16.3029 C   0  0  0  0  0  0  0  0  0  0  0  0
   21.4628  -10.7357  -17.5176 O   0  0  0  0  0  0  0  0  0  0  0  0
   17.0329  -10.2226  -14.1093 N   0  0  0  0  0  0  0  0  0  0  0  0
   17.1314  -10.2041  -15.5272 C   0  0  0  0  0  0  0  0  0  0  0  0
   16.3213  -10.8779  -16.2055 O   0  0  0  0  0  0  0  0  0  0  0  0
   18.1946   -9.3862  -16.2126 C   0  0  0  0  0  0  0  0  0  0  0  0
   19.1334   -8.7885  -15.2032 C   0  0  0  0  0  0  0  0  0  0  0  0
   20.5667   -8.8396  -15.5996 C   0  0  2  0  0  0  0  0  0  0  0  0
   21.1842  -10.1226  -15.3229 N   0  0  0  0  0  0  0  0  0  0  0  0
   21.4021   -7.7661  -15.0336 C   0  0  0  0  0  0  0  0  0  0  0  0
   21.9553   -7.8311  -13.9158 O   0  0  0  0  0  0  0  0  0  0  0  0
   23.3917   -3.4157  -15.8149 O   0  0  0  0  0  0  0  0  0  0  0  0
   22.6041   -4.4396  -16.3583 C   0  0  0  0  0  0  0  0  0  0  0  0
   22.3505   -5.4237  -15.2382 C   0  0  2  0  0  0  0  0  0  0  0  0
   21.6197   -6.5631  -15.7693 N   0  0  0  0  0  0  0  0  0  0  0  0
   21.7050   -4.8306  -14.0744 C   0  0  0  0  0  0  0  0  0  0  0  0
   20.4569   -4.7599  -14.0146 O   0  0  0  0  0  0  0  0  0  0  0  0
   22.4324   -4.3302  -13.0065 O   0  0  0  0  0  0  0  0  0  0  0  0
  2  1  1  6
  2  4  1  0
  2  3  1  0
  4  6  1  0
  4  5  1  6
  6  7  2  0
  9 11  1  0
  9  8  1  0
 10  9  2  0
 13 12  1  1
 12 11  1  0
 13 15  1  0
 14  6  1  0
 14 13  1  0
 15 16  2  0
 18 17  1  0
 19 18  1  6
 19 21  1  0
 20 19  1  0
 20 15  1  0
 21 22  2  0
 21 23  1  0
M  END
$$$$
