VQS.pdb
     RDKit          3D

 23 22  0  0  1  0  0  0  0  0999 V2000
   18.7044  -14.5493  -18.2223 C   0  0  0  0  0  0  0  0  0  0  0  0
   18.7932  -14.3576  -16.7481 C   0  0  2  0  0  0  0  0  0  0  0  0
   18.8115  -15.7061  -16.0343 C   0  0  0  0  0  0  0  0  0  0  0  0
   17.6217  -13.5875  -16.1861 C   0  0  2  0  0  0  0  0  0  0  0  0
   16.3482  -14.0751  -16.5781 N   0  0  0  0  0  0  0  0  0  0  0  0
   17.7605  -12.1752  -16.6255 C   0  0  0  0  0  0  0  0  0  0  0  0
   17.8886  -11.9728  -17.8638 O   0  0  0  0  0  0  0  0  0  0  0  0
   16.6726   -8.6087  -19.1992 N   0  0  0  0  0  0  0  0  0  0  0  0
   16.7075   -7.4571  -18.3667 C   0  0  0  0  0  0  0  0  0  0  0  0
   16.7605   -6.3219  -18.8948 O   0  0  0  0  0  0  0  0  0  0  0  0
   16.6815   -7.5928  -16.8667 C   0  0  0  0  0  0  0  0  0  0  0  0
   16.5804   -9.0382  -16.4690 C   0  0  0  0  0  0  0  0  0  0  0  0
   17.8898   -9.6833  -16.1805 C   0  0  2  0  0  0  0  0  0  0  0  0
   17.7584  -11.0650  -15.7592 N   0  0  0  0  0  0  0  0  0  0  0  0
   18.7351   -8.9591  -15.2152 C   0  0  0  0  0  0  0  0  0  0  0  0
   18.4843   -8.8782  -13.9944 O   0  0  0  0  0  0  0  0  0  0  0  0
   22.3811   -9.2726  -14.7523 O   0  0  0  0  0  0  0  0  0  0  0  0
   22.2326   -7.9181  -15.0796 C   0  0  0  0  0  0  0  0  0  0  0  0
   20.7985   -7.5569  -14.7631 C   0  0  2  0  0  0  0  0  0  0  0  0
   19.9193   -8.2958  -15.6550 N   0  0  0  0  0  0  0  0  0  0  0  0
   20.5407   -6.1229  -14.7752 C   0  0  0  0  0  0  0  0  0  0  0  0
   21.1483   -5.3674  -13.9837 O   0  0  0  0  0  0  0  0  0  0  0  0
   19.6299   -5.5478  -15.6467 O   0  0  0  0  0  0  0  0  0  0  0  0
  2  1  1  6
  2  4  1  0
  2  3  1  0
  4  6  1  0
  4  5  1  6
  6  7  2  0
  9 11  1  0
  9  8  1  0
 10  9  2  0
 13 12  1  1
 12 11  1  0
 13 15  1  0
 14  6  1  0
 14 13  1  0
 15 16  2  0
 18 17  1  0
 19 18  1  6
 19 21  1  0
 20 19  1  0
 20 15  1  0
 21 22  2  0
 21 23  1  0
M  END
$$$$
