VQS.pdb
     RDKit          3D

 23 22  0  0  1  0  0  0  0  0999 V2000
   22.0601  -20.6429  -15.9667 C   0  0  0  0  0  0  0  0  0  0  0  0
   22.1686  -21.9664  -15.2927 C   0  0  2  0  0  0  0  0  0  0  0  0
   21.0482  -22.8940  -15.7537 C   0  0  0  0  0  0  0  0  0  0  0  0
   22.0576  -21.8691  -13.7896 C   0  0  2  0  0  0  0  0  0  0  0  0
   20.8585  -21.2726  -13.3207 N   0  0  0  0  0  0  0  0  0  0  0  0
   23.2184  -21.0795  -13.3038 C   0  0  0  0  0  0  0  0  0  0  0  0
   23.0271  -19.8496  -13.1007 O   0  0  0  0  0  0  0  0  0  0  0  0
   24.2994  -20.3925   -9.1843 N   0  0  0  0  0  0  0  0  0  0  0  0
   25.6190  -20.6646   -9.6371 C   0  0  0  0  0  0  0  0  0  0  0  0
   26.5417  -19.8678   -9.3472 O   0  0  0  0  0  0  0  0  0  0  0  0
   25.9115  -21.8946  -10.4562 C   0  0  0  0  0  0  0  0  0  0  0  0
   26.5700  -21.5204  -11.7538 C   0  0  0  0  0  0  0  0  0  0  0  0
   25.6707  -20.8266  -12.7151 C   0  0  2  0  0  0  0  0  0  0  0  0
   24.4998  -21.6102  -13.0601 N   0  0  0  0  0  0  0  0  0  0  0  0
   26.3271  -20.3640  -13.9504 C   0  0  0  0  0  0  0  0  0  0  0  0
   26.5172  -21.0879  -14.9503 O   0  0  0  0  0  0  0  0  0  0  0  0
   29.2162  -18.4708  -16.6722 O   0  0  0  0  0  0  0  0  0  0  0  0
   28.6531  -19.1512  -15.5841 C   0  0  0  0  0  0  0  0  0  0  0  0
   27.3439  -18.4586  -15.2784 C   0  0  2  0  0  0  0  0  0  0  0  0
   26.7896  -19.0184  -14.0562 N   0  0  0  0  0  0  0  0  0  0  0  0
   26.3998  -18.4775  -16.3880 C   0  0  0  0  0  0  0  0  0  0  0  0
   26.4851  -17.6264  -17.3017 O   0  0  0  0  0  0  0  0  0  0  0  0
   25.3881  -19.4202  -16.4756 O   0  0  0  0  0  0  0  0  0  0  0  0
  2  1  1  6
  2  4  1  0
  2  3  1  0
  4  6  1  0
  4  5  1  6
  6  7  2  0
  9 11  1  0
  9  8  1  0
 10  9  2  0
 13 12  1  6
 12 11  1  0
 13 15  1  0
 14  6  1  0
 14 13  1  0
 15 16  2  0
 18 17  1  0
 19 18  1  6
 19 21  1  0
 20 19  1  0
 20 15  1  0
 21 22  2  0
 21 23  1  0
M  END
$$$$
