VQS.pdb
     RDKit          3D

 23 22  0  0  1  0  0  0  0  0999 V2000
   14.8907  -12.0479  -15.7814 C   0  0  0  0  0  0  0  0  0  0  0  0
   15.5539  -11.1913  -14.7595 C   0  0  2  0  0  0  0  0  0  0  0  0
   15.0862   -9.7448  -14.8901 C   0  0  0  0  0  0  0  0  0  0  0  0
   17.0579  -11.1730  -14.8974 C   0  0  2  0  0  0  0  0  0  0  0  0
   17.6749  -12.4492  -14.8343 N   0  0  0  0  0  0  0  0  0  0  0  0
   17.5980  -10.3151  -13.8116 C   0  0  0  0  0  0  0  0  0  0  0  0
   17.7096  -10.8411  -12.6707 O   0  0  0  0  0  0  0  0  0  0  0  0
   22.1549   -6.2104  -14.1813 N   0  0  0  0  0  0  0  0  0  0  0  0
   21.6971   -5.9333  -12.8644 C   0  0  0  0  0  0  0  0  0  0  0  0
   22.3407   -5.1302  -12.1494 O   0  0  0  0  0  0  0  0  0  0  0  0
   20.4538   -6.5938  -12.3286 C   0  0  0  0  0  0  0  0  0  0  0  0
   19.8211   -7.4602  -13.3806 C   0  0  0  0  0  0  0  0  0  0  0  0
   18.5785   -8.1478  -12.9365 C   0  0  2  0  0  0  0  0  0  0  0  0
   17.9869   -8.9714  -13.9736 N   0  0  0  0  0  0  0  0  0  0  0  0
   17.5473   -7.2574  -12.3756 C   0  0  0  0  0  0  0  0  0  0  0  0
   16.8054   -6.5293  -13.0680 O   0  0  0  0  0  0  0  0  0  0  0  0
   15.5489   -5.5647   -8.2858 O   0  0  0  0  0  0  0  0  0  0  0  0
   16.4709   -6.4654   -8.8359 C   0  0  0  0  0  0  0  0  0  0  0  0
   16.3633   -6.3230  -10.3377 C   0  0  2  0  0  0  0  0  0  0  0  0
   17.3488   -7.1894  -10.9644 N   0  0  0  0  0  0  0  0  0  0  0  0
   16.4462   -4.9442  -10.8014 C   0  0  0  0  0  0  0  0  0  0  0  0
   15.4026   -4.2785  -10.9864 O   0  0  0  0  0  0  0  0  0  0  0  0
   17.6603   -4.3254  -11.0519 O   0  0  0  0  0  0  0  0  0  0  0  0
  2  1  1  6
  2  4  1  0
  2  3  1  0
  4  6  1  0
  4  5  1  1
  6  7  2  0
  9 11  1  0
  9  8  1  0
 10  9  2  0
 13 12  1  6
 12 11  1  0
 13 15  1  0
 14  6  1  0
 14 13  1  0
 15 16  2  0
 18 17  1  0
 19 18  1  1
 19 21  1  0
 20 19  1  0
 20 15  1  0
 21 22  2  0
 21 23  1  0
M  END
$$$$
