IDS.pdb
     RDKit          3D

 23 22  0  0  1  0  0  0  0  0999 V2000
    7.7161  -12.8072   21.5219 C   0  0  0  0  0  0  0  0  0  0  0  0
    7.9835  -13.9337   20.5728 C   0  0  0  0  0  0  0  0  0  0  0  0
    8.7992  -13.5710   19.3629 C   0  0  2  0  0  0  0  0  0  0  0  0
    8.1507  -12.4299   18.5985 C   0  0  0  0  0  0  0  0  0  0  0  0
    9.0954  -14.7380   18.5074 C   0  0  2  0  0  0  0  0  0  0  0  0
    7.8599  -15.2106   17.8774 N   0  0  0  0  0  0  0  0  0  0  0  0
    9.7338  -15.8976   19.2388 C   0  0  0  0  0  0  0  0  0  0  0  0
    9.0190  -16.8560   19.5497 O   0  0  0  0  0  0  0  0  0  0  0  0
   11.0960  -15.9081   19.5652 N   0  0  0  0  0  0  0  0  0  0  0  0
   11.8805  -16.8201   20.3420 C   0  0  1  0  0  0  0  0  0  0  0  0
   13.2286  -17.1835   19.8750 C   0  0  0  0  0  0  0  0  0  0  0  0
   13.8265  -18.4218   20.3912 C   0  0  0  0  0  0  0  0  0  0  0  0
   14.4947  -19.1618   19.6019 O   0  0  0  0  0  0  0  0  0  0  0  0
   11.6789  -16.7004   21.7735 C   0  0  0  0  0  0  0  0  0  0  0  0
   12.1188  -15.6624   22.3648 O   0  0  0  0  0  0  0  0  0  0  0  0
   13.7100  -18.8403   21.6899 O   0  0  0  0  0  0  0  0  0  0  0  0
    8.5198  -17.6427   23.8712 O   0  0  0  0  0  0  0  0  0  0  0  0
    9.6141  -18.1719   24.5469 C   0  0  0  0  0  0  0  0  0  0  0  0
   10.8675  -17.5295   24.0126 C   0  0  2  0  0  0  0  0  0  0  0  0
   11.0237  -17.6588   22.5858 N   0  0  0  0  0  0  0  0  0  0  0  0
   12.0307  -18.0823   24.7096 C   0  0  0  0  0  0  0  0  0  0  0  0
   12.0914  -18.0393   26.0909 O   0  0  0  0  0  0  0  0  0  0  0  0
   13.0033  -18.6071   24.1114 O   0  0  0  0  0  0  0  0  0  0  0  0
  2  1  1  0
  3  2  1  0
  3  4  1  6
  5  7  1  0
  5  6  1  1
  5  3  1  0
  7  8  2  0
  9  7  1  0
  9 10  1  0
 10 14  1  0
 10 11  1  1
 12 13  2  0
 12 11  1  0
 14 15  2  0
 14 20  1  0
 16 12  1  0
 17 18  1  0
 19 18  1  1
 19 21  1  0
 20 19  1  0
 21 23  2  0
 21 22  1  0
M  END
$$$$
