IDS.pdb
     RDKit          3D

 23 22  0  0  1  0  0  0  0  0999 V2000
    7.3857  -11.8758   19.1253 C   0  0  0  0  0  0  0  0  0  0  0  0
    7.7375  -13.2843   18.7597 C   0  0  0  0  0  0  0  0  0  0  0  0
    8.5157  -14.0403   19.8007 C   0  0  2  0  0  0  0  0  0  0  0  0
    9.7649  -13.2745   20.2009 C   0  0  0  0  0  0  0  0  0  0  0  0
    8.8019  -15.4316   19.3962 C   0  0  2  0  0  0  0  0  0  0  0  0
    7.5512  -16.1057   19.0387 N   0  0  0  0  0  0  0  0  0  0  0  0
    9.5035  -16.2537   20.4541 C   0  0  0  0  0  0  0  0  0  0  0  0
    8.8186  -16.7603   21.3487 O   0  0  0  0  0  0  0  0  0  0  0  0
   10.8903  -16.4502   20.4408 N   0  0  0  0  0  0  0  0  0  0  0  0
   11.7521  -17.2030   21.3018 C   0  0  1  0  0  0  0  0  0  0  0  0
   13.0023  -17.7580   20.7570 C   0  0  0  0  0  0  0  0  0  0  0  0
   13.8670  -18.5269   21.6618 C   0  0  0  0  0  0  0  0  0  0  0  0
   13.6130  -19.7564   21.8637 O   0  0  0  0  0  0  0  0  0  0  0  0
   11.7717  -16.7333   22.6741 C   0  0  0  0  0  0  0  0  0  0  0  0
   12.4332  -15.6805   22.9470 O   0  0  0  0  0  0  0  0  0  0  0  0
   14.9486  -17.9980   22.3144 O   0  0  0  0  0  0  0  0  0  0  0  0
    8.8023  -17.1914   25.3724 O   0  0  0  0  0  0  0  0  0  0  0  0
    9.8075  -16.2446   25.5371 C   0  0  0  0  0  0  0  0  0  0  0  0
   11.1171  -16.8517   25.1065 C   0  0  2  0  0  0  0  0  0  0  0  0
   11.1066  -17.3589   23.7575 N   0  0  0  0  0  0  0  0  0  0  0  0
   11.4961  -17.9060   26.0495 C   0  0  0  0  0  0  0  0  0  0  0  0
   11.6849  -17.6009   27.3854 O   0  0  0  0  0  0  0  0  0  0  0  0
   11.6651  -19.1036   25.7080 O   0  0  0  0  0  0  0  0  0  0  0  0
  2  1  1  0
  3  2  1  0
  3  4  1  6
  5  7  1  0
  5  6  1  1
  5  3  1  0
  7  8  2  0
  9  7  1  0
  9 10  1  0
 10 14  1  0
 10 11  1  6
 12 13  2  0
 12 11  1  0
 14 15  2  0
 14 20  1  0
 16 12  1  0
 17 18  1  0
 19 18  1  1
 19 21  1  0
 20 19  1  0
 21 23  2  0
 21 22  1  0
M  END
$$$$
