IDS.pdb
     RDKit          3D

 23 22  0  0  1  0  0  0  0  0999 V2000
    6.0151  -11.7658   26.7800 C   0  0  0  0  0  0  0  0  0  0  0  0
    5.8773  -13.0063   25.9532 C   0  0  0  0  0  0  0  0  0  0  0  0
    7.0885  -13.8968   25.9288 C   0  0  2  0  0  0  0  0  0  0  0  0
    8.3346  -13.1016   25.5796 C   0  0  0  0  0  0  0  0  0  0  0  0
    6.9048  -15.0814   25.0660 C   0  0  2  0  0  0  0  0  0  0  0  0
    5.6910  -15.7970   25.4675 N   0  0  0  0  0  0  0  0  0  0  0  0
    8.0636  -16.0528   25.0907 C   0  0  0  0  0  0  0  0  0  0  0  0
    8.1360  -16.8510   26.0308 O   0  0  0  0  0  0  0  0  0  0  0  0
    9.0399  -16.0671   24.0863 N   0  0  0  0  0  0  0  0  0  0  0  0
   10.1980  -16.8880   23.8978 C   0  0  1  0  0  0  0  0  0  0  0  0
   10.9381  -16.8024   22.6279 C   0  0  0  0  0  0  0  0  0  0  0  0
   10.1635  -16.7027   21.3839 C   0  0  0  0  0  0  0  0  0  0  0  0
    9.2962  -17.5950   21.1222 O   0  0  0  0  0  0  0  0  0  0  0  0
   10.9688  -17.1074   25.1069 C   0  0  0  0  0  0  0  0  0  0  0  0
   11.7608  -16.1907   25.4978 O   0  0  0  0  0  0  0  0  0  0  0  0
   10.3161  -15.6940   20.4703 O   0  0  0  0  0  0  0  0  0  0  0  0
    9.8943  -19.5228   28.1242 O   0  0  0  0  0  0  0  0  0  0  0  0
   10.9391  -18.6326   28.3474 C   0  0  0  0  0  0  0  0  0  0  0  0
   11.7309  -18.4892   27.0739 C   0  0  2  0  0  0  0  0  0  0  0  0
   10.9161  -18.2776   25.9041 N   0  0  0  0  0  0  0  0  0  0  0  0
   12.5857  -19.6653   26.8995 C   0  0  0  0  0  0  0  0  0  0  0  0
   13.5577  -19.9566   27.8395 O   0  0  0  0  0  0  0  0  0  0  0  0
   12.4864  -20.4464   25.9200 O   0  0  0  0  0  0  0  0  0  0  0  0
  2  1  1  0
  3  2  1  0
  3  4  1  6
  5  7  1  0
  5  6  1  1
  5  3  1  0
  7  8  2  0
  9  7  1  0
  9 10  1  0
 10 14  1  0
 10 11  1  6
 12 13  2  0
 12 11  1  0
 14 15  2  0
 14 20  1  0
 16 12  1  0
 17 18  1  0
 19 18  1  1
 19 21  1  0
 20 19  1  0
 21 23  2  0
 21 22  1  0
M  END
$$$$
