IDS.pdb
     RDKit          3D

 23 22  0  0  1  0  0  0  0  0999 V2000
    7.1861  -12.0245   19.5623 C   0  0  0  0  0  0  0  0  0  0  0  0
    7.8288  -13.2321   18.9541 C   0  0  0  0  0  0  0  0  0  0  0  0
    8.5962  -14.0998   19.9128 C   0  0  2  0  0  0  0  0  0  0  0  0
    9.6027  -13.2761   20.6973 C   0  0  0  0  0  0  0  0  0  0  0  0
    9.2057  -15.2726   19.2536 C   0  0  2  0  0  0  0  0  0  0  0  0
    8.1835  -15.9918   18.4890 N   0  0  0  0  0  0  0  0  0  0  0  0
    9.8653  -16.2459   20.2047 C   0  0  0  0  0  0  0  0  0  0  0  0
    9.1498  -17.0649   20.7907 O   0  0  0  0  0  0  0  0  0  0  0  0
   11.2477  -16.2391   20.4311 N   0  0  0  0  0  0  0  0  0  0  0  0
   12.0679  -16.9956   21.3286 C   0  0  1  0  0  0  0  0  0  0  0  0
   13.4063  -17.4231   20.8885 C   0  0  0  0  0  0  0  0  0  0  0  0
   13.5693  -17.8503   19.4927 C   0  0  0  0  0  0  0  0  0  0  0  0
   13.0345  -18.9397   19.1128 O   0  0  0  0  0  0  0  0  0  0  0  0
   11.9079  -16.6310   22.7234 C   0  0  0  0  0  0  0  0  0  0  0  0
   12.4190  -15.5378   23.1286 O   0  0  0  0  0  0  0  0  0  0  0  0
   14.2718  -17.1403   18.5558 O   0  0  0  0  0  0  0  0  0  0  0  0
    8.8902  -17.8193   25.0174 O   0  0  0  0  0  0  0  0  0  0  0  0
    9.6915  -16.8090   25.5381 C   0  0  0  0  0  0  0  0  0  0  0  0
   11.1092  -17.0342   25.0812 C   0  0  2  0  0  0  0  0  0  0  0  0
   11.2202  -17.4030   23.6923 N   0  0  0  0  0  0  0  0  0  0  0  0
   11.7386  -18.0449   25.9336 C   0  0  0  0  0  0  0  0  0  0  0  0
   11.7968  -17.8531   27.3023 O   0  0  0  0  0  0  0  0  0  0  0  0
   12.2431  -19.1042   25.4835 O   0  0  0  0  0  0  0  0  0  0  0  0
  2  1  1  0
  3  2  1  0
  3  4  1  6
  5  7  1  0
  5  6  1  1
  5  3  1  0
  7  8  2  0
  9  7  1  0
  9 10  1  0
 10 14  1  0
 10 11  1  6
 12 13  2  0
 12 11  1  0
 14 15  2  0
 14 20  1  0
 16 12  1  0
 17 18  1  0
 19 18  1  1
 19 21  1  0
 20 19  1  0
 21 23  2  0
 21 22  1  0
M  END
$$$$
