IDS.pdb
     RDKit          3D

 23 22  0  0  1  0  0  0  0  0999 V2000
    8.8576  -11.7086   20.4473 C   0  0  0  0  0  0  0  0  0  0  0  0
    8.8177  -13.1903   20.6572 C   0  0  0  0  0  0  0  0  0  0  0  0
    8.3911  -13.9948   19.4608 C   0  0  2  0  0  0  0  0  0  0  0  0
    6.9930  -13.6005   19.0172 C   0  0  0  0  0  0  0  0  0  0  0  0
    8.5355  -15.4492   19.6739 C   0  0  2  0  0  0  0  0  0  0  0  0
    7.6131  -15.8848   20.7255 N   0  0  0  0  0  0  0  0  0  0  0  0
    9.9333  -15.8852   20.0522 C   0  0  0  0  0  0  0  0  0  0  0  0
   10.7908  -15.9306   19.1642 O   0  0  0  0  0  0  0  0  0  0  0  0
   10.2709  -16.2322   21.3667 N   0  0  0  0  0  0  0  0  0  0  0  0
   11.5249  -16.5746   21.9674 C   0  0  1  0  0  0  0  0  0  0  0  0
   12.7465  -15.8869   21.5176 C   0  0  0  0  0  0  0  0  0  0  0  0
   14.0425  -16.4663   21.8949 C   0  0  0  0  0  0  0  0  0  0  0  0
   14.5945  -16.0939   22.9783 O   0  0  0  0  0  0  0  0  0  0  0  0
   11.4311  -16.9188   23.3734 C   0  0  0  0  0  0  0  0  0  0  0  0
   11.3291  -15.9775   24.2243 O   0  0  0  0  0  0  0  0  0  0  0  0
   14.7081  -17.3979   21.1437 O   0  0  0  0  0  0  0  0  0  0  0  0
   11.3867  -20.8177   24.6458 O   0  0  0  0  0  0  0  0  0  0  0  0
   10.7587  -19.9496   25.5323 C   0  0  0  0  0  0  0  0  0  0  0  0
   11.2715  -18.5547   25.2860 C   0  0  2  0  0  0  0  0  0  0  0  0
   11.4456  -18.2378   23.8908 N   0  0  0  0  0  0  0  0  0  0  0  0
   12.5255  -18.3629   26.0174 C   0  0  0  0  0  0  0  0  0  0  0  0
   12.5354  -18.4327   27.3988 O   0  0  0  0  0  0  0  0  0  0  0  0
   13.6225  -18.1319   25.4495 O   0  0  0  0  0  0  0  0  0  0  0  0
  2  1  1  0
  3  2  1  0
  3  4  1  1
  5  7  1  0
  5  6  1  1
  5  3  1  0
  7  8  2  0
  9  7  1  0
  9 10  1  0
 10 14  1  0
 10 11  1  1
 12 13  2  0
 12 11  1  0
 14 15  2  0
 14 20  1  0
 16 12  1  0
 17 18  1  0
 19 18  1  6
 19 21  1  0
 20 19  1  0
 21 23  2  0
 21 22  1  0
M  END
$$$$
