IDS.pdb
     RDKit          3D

 23 22  0  0  1  0  0  0  0  0999 V2000
    7.3348  -11.7845   19.3602 C   0  0  0  0  0  0  0  0  0  0  0  0
    7.6641  -13.2208   19.0959 C   0  0  0  0  0  0  0  0  0  0  0  0
    8.0553  -14.0209   20.3073 C   0  0  2  0  0  0  0  0  0  0  0  0
    9.2090  -13.3588   21.0405 C   0  0  0  0  0  0  0  0  0  0  0  0
    8.3170  -15.4396   19.9903 C   0  0  2  0  0  0  0  0  0  0  0  0
    7.1553  -16.0114   19.3048 N   0  0  0  0  0  0  0  0  0  0  0  0
    8.6317  -16.2969   21.1957 C   0  0  0  0  0  0  0  0  0  0  0  0
    7.6965  -16.6467   21.9231 O   0  0  0  0  0  0  0  0  0  0  0  0
    9.9394  -16.6970   21.4993 N   0  0  0  0  0  0  0  0  0  0  0  0
   10.4628  -17.5181   22.5493 C   0  0  1  0  0  0  0  0  0  0  0  0
   11.7693  -18.1713   22.3647 C   0  0  0  0  0  0  0  0  0  0  0  0
   12.0612  -18.7713   21.0562 C   0  0  0  0  0  0  0  0  0  0  0  0
   13.0842  -18.3794   20.4105 O   0  0  0  0  0  0  0  0  0  0  0  0
   10.1304  -17.0537   23.8827 C   0  0  0  0  0  0  0  0  0  0  0  0
   10.7750  -16.0654   24.3606 O   0  0  0  0  0  0  0  0  0  0  0  0
   11.2907  -19.7426   20.4745 O   0  0  0  0  0  0  0  0  0  0  0  0
    6.6372  -17.8559   25.5328 O   0  0  0  0  0  0  0  0  0  0  0  0
    7.3486  -16.9172   26.2723 C   0  0  0  0  0  0  0  0  0  0  0  0
    8.8207  -17.1325   26.0363 C   0  0  2  0  0  0  0  0  0  0  0  0
    9.1324  -17.6177   24.7155 N   0  0  0  0  0  0  0  0  0  0  0  0
    9.3472  -18.0422   27.0559 C   0  0  0  0  0  0  0  0  0  0  0  0
    9.1873  -17.7418   28.3967 O   0  0  0  0  0  0  0  0  0  0  0  0
    9.9524  -19.1079   26.7779 O   0  0  0  0  0  0  0  0  0  0  0  0
  2  1  1  0
  3  2  1  0
  3  4  1  6
  5  7  1  0
  5  6  1  1
  5  3  1  0
  7  8  2  0
  9  7  1  0
  9 10  1  0
 10 14  1  0
 10 11  1  1
 12 13  2  0
 12 11  1  0
 14 15  2  0
 14 20  1  0
 16 12  1  0
 17 18  1  0
 19 18  1  6
 19 21  1  0
 20 19  1  0
 21 23  2  0
 21 22  1  0
M  END
$$$$
