IDS.pdb
     RDKit          3D

 23 22  0  0  1  0  0  0  0  0999 V2000
    8.1984  -11.9037   27.3806 C   0  0  0  0  0  0  0  0  0  0  0  0
    7.4257  -13.1001   26.9194 C   0  0  0  0  0  0  0  0  0  0  0  0
    6.7128  -12.9342   25.6060 C   0  0  2  0  0  0  0  0  0  0  0  0
    5.7523  -11.7588   25.6593 C   0  0  0  0  0  0  0  0  0  0  0  0
    6.0668  -14.1814   25.1493 C   0  0  2  0  0  0  0  0  0  0  0  0
    5.1008  -14.6303   26.1551 N   0  0  0  0  0  0  0  0  0  0  0  0
    7.0302  -15.3136   24.8717 C   0  0  0  0  0  0  0  0  0  0  0  0
    6.9714  -16.3185   25.5878 O   0  0  0  0  0  0  0  0  0  0  0  0
    7.9716  -15.2484   23.8365 N   0  0  0  0  0  0  0  0  0  0  0  0
    8.9824  -16.1694   23.4113 C   0  0  1  0  0  0  0  0  0  0  0  0
    9.4532  -16.1233   22.0170 C   0  0  0  0  0  0  0  0  0  0  0  0
   10.4455  -17.1191   21.5912 C   0  0  0  0  0  0  0  0  0  0  0  0
   10.5396  -18.2124   22.2338 O   0  0  0  0  0  0  0  0  0  0  0  0
    9.9584  -16.4886   24.4359 C   0  0  0  0  0  0  0  0  0  0  0  0
   10.9976  -15.7600   24.5337 O   0  0  0  0  0  0  0  0  0  0  0  0
   11.2917  -16.9451   20.5287 O   0  0  0  0  0  0  0  0  0  0  0  0
    9.2054  -19.2737   27.3322 O   0  0  0  0  0  0  0  0  0  0  0  0
   10.1880  -18.3493   27.6697 C   0  0  0  0  0  0  0  0  0  0  0  0
   10.8070  -17.8192   26.4028 C   0  0  2  0  0  0  0  0  0  0  0  0
    9.8530  -17.5634   25.3532 N   0  0  0  0  0  0  0  0  0  0  0  0
   11.8411  -18.7484   25.9427 C   0  0  0  0  0  0  0  0  0  0  0  0
   12.8555  -19.1313   26.8016 O   0  0  0  0  0  0  0  0  0  0  0  0
   11.8626  -19.2312   24.7826 O   0  0  0  0  0  0  0  0  0  0  0  0
  2  1  1  0
  3  2  1  0
  3  4  1  1
  5  7  1  0
  5  6  1  1
  5  3  1  0
  7  8  2  0
  9  7  1  0
  9 10  1  0
 10 14  1  0
 10 11  1  6
 12 13  2  0
 12 11  1  0
 14 15  2  0
 14 20  1  0
 16 12  1  0
 17 18  1  0
 19 18  1  1
 19 21  1  0
 20 19  1  0
 21 23  2  0
 21 22  1  0
M  END
$$$$
