IDS.pdb
     RDKit          3D

 23 22  0  0  1  0  0  0  0  0999 V2000
    8.5419  -11.3267   19.7883 C   0  0  0  0  0  0  0  0  0  0  0  0
    8.8941  -12.7396   20.1360 C   0  0  0  0  0  0  0  0  0  0  0  0
    7.9579  -13.7842   19.5946 C   0  0  2  0  0  0  0  0  0  0  0  0
    6.5618  -13.6038   20.1651 C   0  0  0  0  0  0  0  0  0  0  0  0
    8.4756  -15.1563   19.7705 C   0  0  2  0  0  0  0  0  0  0  0  0
    8.4243  -15.5219   21.1883 N   0  0  0  0  0  0  0  0  0  0  0  0
    9.8910  -15.3536   19.2760 C   0  0  0  0  0  0  0  0  0  0  0  0
   10.0995  -15.2838   18.0604 O   0  0  0  0  0  0  0  0  0  0  0  0
   10.9533  -15.6090   20.1527 N   0  0  0  0  0  0  0  0  0  0  0  0
   12.3647  -15.7092   19.9324 C   0  0  1  0  0  0  0  0  0  0  0  0
   12.9824  -14.9044   18.8653 C   0  0  0  0  0  0  0  0  0  0  0  0
   14.4253  -15.0551   18.6358 C   0  0  0  0  0  0  0  0  0  0  0  0
   14.8852  -16.1977   18.3194 O   0  0  0  0  0  0  0  0  0  0  0  0
   13.1370  -15.9208   21.1418 C   0  0  0  0  0  0  0  0  0  0  0  0
   13.7634  -14.9328   21.6439 O   0  0  0  0  0  0  0  0  0  0  0  0
   15.3249  -14.0281   18.7417 O   0  0  0  0  0  0  0  0  0  0  0  0
   12.2976  -18.8075   23.7151 O   0  0  0  0  0  0  0  0  0  0  0  0
   13.6708  -18.5989   23.7853 C   0  0  0  0  0  0  0  0  0  0  0  0
   14.0042  -17.3301   23.0448 C   0  0  2  0  0  0  0  0  0  0  0  0
   13.2579  -17.1567   21.8241 N   0  0  0  0  0  0  0  0  0  0  0  0
   15.4435  -17.2883   22.7781 C   0  0  0  0  0  0  0  0  0  0  0  0
   16.3415  -17.3606   23.8277 O   0  0  0  0  0  0  0  0  0  0  0  0
   15.9241  -17.1875   21.6213 O   0  0  0  0  0  0  0  0  0  0  0  0
  2  1  1  0
  3  2  1  0
  3  4  1  1
  5  7  1  0
  5  6  1  1
  5  3  1  0
  7  8  2  0
  9  7  1  0
  9 10  1  0
 10 14  1  0
 10 11  1  1
 12 13  2  0
 12 11  1  0
 14 15  2  0
 14 20  1  0
 16 12  1  0
 17 18  1  0
 19 18  1  6
 19 21  1  0
 20 19  1  0
 21 23  2  0
 21 22  1  0
M  END
$$$$
