IDS.pdb
     RDKit          3D

 23 22  0  0  1  0  0  0  0  0999 V2000
    7.0572  -11.9855   19.8083 C   0  0  0  0  0  0  0  0  0  0  0  0
    7.6151  -13.3367   19.4852 C   0  0  0  0  0  0  0  0  0  0  0  0
    7.9489  -14.1924   20.6755 C   0  0  2  0  0  0  0  0  0  0  0  0
    8.8419  -13.4397   21.6465 C   0  0  0  0  0  0  0  0  0  0  0  0
    8.5006  -15.5078   20.2921 C   0  0  2  0  0  0  0  0  0  0  0  0
    7.5445  -16.2086   19.4311 N   0  0  0  0  0  0  0  0  0  0  0  0
    8.8377  -16.4044   21.4624 C   0  0  0  0  0  0  0  0  0  0  0  0
    7.9143  -17.0024   22.0242 O   0  0  0  0  0  0  0  0  0  0  0  0
   10.1532  -16.5690   21.9147 N   0  0  0  0  0  0  0  0  0  0  0  0
   10.6954  -17.3145   23.0106 C   0  0  1  0  0  0  0  0  0  0  0  0
   12.1018  -17.7469   22.9570 C   0  0  0  0  0  0  0  0  0  0  0  0
   12.7160  -17.9328   21.6358 C   0  0  0  0  0  0  0  0  0  0  0  0
   12.4133  -18.9614   20.9522 O   0  0  0  0  0  0  0  0  0  0  0  0
   10.1624  -16.9331   24.3046 C   0  0  0  0  0  0  0  0  0  0  0  0
   10.4341  -15.7745   24.7566 O   0  0  0  0  0  0  0  0  0  0  0  0
   13.6095  -17.0558   21.0809 O   0  0  0  0  0  0  0  0  0  0  0  0
    6.8154  -18.3741   25.9325 O   0  0  0  0  0  0  0  0  0  0  0  0
    7.3887  -17.2616   26.5388 C   0  0  0  0  0  0  0  0  0  0  0  0
    8.8873  -17.3745   26.4350 C   0  0  2  0  0  0  0  0  0  0  0  0
    9.3517  -17.7560   25.1251 N   0  0  0  0  0  0  0  0  0  0  0  0
    9.3740  -18.3141   27.4472 C   0  0  0  0  0  0  0  0  0  0  0  0
    9.1140  -18.0814   28.7857 O   0  0  0  0  0  0  0  0  0  0  0  0
   10.0320  -19.3468   27.1646 O   0  0  0  0  0  0  0  0  0  0  0  0
  2  1  1  0
  3  2  1  0
  3  4  1  1
  5  7  1  0
  5  6  1  6
  5  3  1  0
  7  8  2  0
  9  7  1  0
  9 10  1  0
 10 14  1  0
 10 11  1  1
 12 13  2  0
 12 11  1  0
 14 15  2  0
 14 20  1  0
 16 12  1  0
 17 18  1  0
 19 18  1  6
 19 21  1  0
 20 19  1  0
 21 23  2  0
 21 22  1  0
M  END
$$$$
