IDS.pdb
     RDKit          3D

 23 22  0  0  1  0  0  0  0  0999 V2000
    7.2902  -11.8001   19.5742 C   0  0  0  0  0  0  0  0  0  0  0  0
    7.4849  -13.2464   19.2399 C   0  0  0  0  0  0  0  0  0  0  0  0
    8.3235  -14.0219   20.2177 C   0  0  2  0  0  0  0  0  0  0  0  0
    9.6682  -13.3475   20.4275 C   0  0  0  0  0  0  0  0  0  0  0  0
    8.4486  -15.4475   19.8525 C   0  0  2  0  0  0  0  0  0  0  0  0
    7.1173  -16.0129   19.6198 N   0  0  0  0  0  0  0  0  0  0  0  0
    9.1539  -16.2939   20.8885 C   0  0  0  0  0  0  0  0  0  0  0  0
    8.5036  -16.6855   21.8631 O   0  0  0  0  0  0  0  0  0  0  0  0
   10.5063  -16.6383   20.7680 N   0  0  0  0  0  0  0  0  0  0  0  0
   11.3733  -17.3980   21.6177 C   0  0  1  0  0  0  0  0  0  0  0  0
   12.5788  -18.0170   21.0421 C   0  0  0  0  0  0  0  0  0  0  0  0
   12.4778  -18.6055   19.7001 C   0  0  0  0  0  0  0  0  0  0  0  0
   11.4888  -19.3568   19.4271 O   0  0  0  0  0  0  0  0  0  0  0  0
   11.4657  -16.8890   22.9728 C   0  0  0  0  0  0  0  0  0  0  0  0
   12.1725  -15.8518   23.1859 O   0  0  0  0  0  0  0  0  0  0  0  0
   13.3947  -18.3951   18.7049 O   0  0  0  0  0  0  0  0  0  0  0  0
    8.6261  -17.1147   25.7657 O   0  0  0  0  0  0  0  0  0  0  0  0
    9.7083  -16.2606   25.9481 C   0  0  0  0  0  0  0  0  0  0  0  0
   10.9520  -16.9430   25.4412 C   0  0  2  0  0  0  0  0  0  0  0  0
   10.8262  -17.4591   24.1014 N   0  0  0  0  0  0  0  0  0  0  0  0
   11.3326  -18.0095   26.3696 C   0  0  0  0  0  0  0  0  0  0  0  0
   11.6326  -17.7040   27.6849 O   0  0  0  0  0  0  0  0  0  0  0  0
   11.4053  -19.2182   26.0334 O   0  0  0  0  0  0  0  0  0  0  0  0
  2  1  1  0
  3  2  1  0
  3  4  1  6
  5  7  1  0
  5  6  1  1
  5  3  1  0
  7  8  2  0
  9  7  1  0
  9 10  1  0
 10 14  1  0
 10 11  1  6
 12 13  2  0
 12 11  1  0
 14 15  2  0
 14 20  1  0
 16 12  1  0
 17 18  1  0
 19 18  1  1
 19 21  1  0
 20 19  1  0
 21 23  2  0
 21 22  1  0
M  END
$$$$
