IDS.pdb
     RDKit          3D

 23 22  0  0  1  0  0  0  0  0999 V2000
    7.9202  -11.7634   21.1982 C   0  0  0  0  0  0  0  0  0  0  0  0
    7.6395  -13.1828   21.5828 C   0  0  0  0  0  0  0  0  0  0  0  0
    8.1972  -14.2209   20.6490 C   0  0  2  0  0  0  0  0  0  0  0  0
    7.7819  -13.9352   19.2162 C   0  0  0  0  0  0  0  0  0  0  0  0
    7.8759  -15.5983   21.0746 C   0  0  2  0  0  0  0  0  0  0  0  0
    6.4320  -15.8213   20.9652 N   0  0  0  0  0  0  0  0  0  0  0  0
    8.3057  -15.9278   22.4866 C   0  0  0  0  0  0  0  0  0  0  0  0
    7.5026  -15.7254   23.4031 O   0  0  0  0  0  0  0  0  0  0  0  0
    9.5738  -16.4497   22.7723 N   0  0  0  0  0  0  0  0  0  0  0  0
   10.2200  -16.7514   24.0141 C   0  0  1  0  0  0  0  0  0  0  0  0
   11.3171  -17.7330   24.0312 C   0  0  0  0  0  0  0  0  0  0  0  0
   11.7360  -18.3210   22.7520 C   0  0  0  0  0  0  0  0  0  0  0  0
   10.9924  -19.1915   22.1985 O   0  0  0  0  0  0  0  0  0  0  0  0
   10.3215  -15.6201   24.9164 C   0  0  0  0  0  0  0  0  0  0  0  0
   11.0668  -14.6428   24.5847 O   0  0  0  0  0  0  0  0  0  0  0  0
   12.8955  -17.9880   22.1039 O   0  0  0  0  0  0  0  0  0  0  0  0
    7.4662  -14.2340   27.0558 O   0  0  0  0  0  0  0  0  0  0  0  0
    8.6280  -13.4714   27.1086 C   0  0  0  0  0  0  0  0  0  0  0  0
    9.8152  -14.3975   27.0631 C   0  0  2  0  0  0  0  0  0  0  0  0
    9.6511  -15.5083   26.1596 N   0  0  0  0  0  0  0  0  0  0  0  0
   10.1106  -14.8740   28.4159 C   0  0  0  0  0  0  0  0  0  0  0  0
   10.3059  -13.9648   29.4398 O   0  0  0  0  0  0  0  0  0  0  0  0
   10.2001  -16.0926   28.7097 O   0  0  0  0  0  0  0  0  0  0  0  0
  2  1  1  0
  3  2  1  0
  3  4  1  6
  5  7  1  0
  5  6  1  1
  5  3  1  0
  7  8  2  0
  9  7  1  0
  9 10  1  0
 10 14  1  0
 10 11  1  6
 12 13  2  0
 12 11  1  0
 14 15  2  0
 14 20  1  0
 16 12  1  0
 17 18  1  0
 19 18  1  1
 19 21  1  0
 20 19  1  0
 21 23  2  0
 21 22  1  0
M  END
$$$$
