IDS.pdb
     RDKit          3D

 23 22  0  0  1  0  0  0  0  0999 V2000
    6.0471  -10.9962   26.8911 C   0  0  0  0  0  0  0  0  0  0  0  0
    5.7530  -12.2499   26.1275 C   0  0  0  0  0  0  0  0  0  0  0  0
    6.8857  -13.2362   26.0560 C   0  0  2  0  0  0  0  0  0  0  0  0
    8.1526  -12.5658   25.5533 C   0  0  0  0  0  0  0  0  0  0  0  0
    6.5355  -14.4480   25.2878 C   0  0  2  0  0  0  0  0  0  0  0  0
    5.3399  -15.0668   25.8658 N   0  0  0  0  0  0  0  0  0  0  0  0
    7.6332  -15.4868   25.2329 C   0  0  0  0  0  0  0  0  0  0  0  0
    7.7118  -16.3021   26.1575 O   0  0  0  0  0  0  0  0  0  0  0  0
    8.5472  -15.5435   24.1728 N   0  0  0  0  0  0  0  0  0  0  0  0
    9.6411  -16.4286   23.9070 C   0  0  1  0  0  0  0  0  0  0  0  0
   10.3686  -16.3063   22.6329 C   0  0  0  0  0  0  0  0  0  0  0  0
   11.5141  -17.1969   22.4049 C   0  0  0  0  0  0  0  0  0  0  0  0
   11.4555  -18.3981   22.8181 O   0  0  0  0  0  0  0  0  0  0  0  0
   10.4101  -16.7860   25.0839 C   0  0  0  0  0  0  0  0  0  0  0  0
   11.3903  -16.0455   25.4177 O   0  0  0  0  0  0  0  0  0  0  0  0
   12.6624  -16.8126   21.7652 O   0  0  0  0  0  0  0  0  0  0  0  0
    9.0915  -19.5266   27.8617 O   0  0  0  0  0  0  0  0  0  0  0  0
   10.0043  -18.5660   28.2837 C   0  0  0  0  0  0  0  0  0  0  0  0
   10.8864  -18.1951   27.1203 C   0  0  2  0  0  0  0  0  0  0  0  0
   10.1603  -17.9111   25.9082 N   0  0  0  0  0  0  0  0  0  0  0  0
   11.8659  -19.2603   26.8955 C   0  0  0  0  0  0  0  0  0  0  0  0
   11.9423  -19.8770   25.6597 O   0  0  0  0  0  0  0  0  0  0  0  0
   12.6621  -19.6584   27.7826 O   0  0  0  0  0  0  0  0  0  0  0  0
  2  1  1  0
  3  2  1  0
  3  4  1  6
  5  7  1  0
  5  6  1  1
  5  3  1  0
  7  8  2  0
  9  7  1  0
  9 10  1  0
 10 14  1  0
 10 11  1  6
 12 13  2  0
 12 11  1  0
 14 15  2  0
 14 20  1  0
 16 12  1  0
 17 18  1  0
 19 18  1  1
 19 21  1  0
 20 19  1  0
 21 23  2  0
 21 22  1  0
M  END
$$$$
