IDS.pdb
     RDKit          3D

 23 22  0  0  1  0  0  0  0  0999 V2000
    7.2708  -11.8639   19.6602 C   0  0  0  0  0  0  0  0  0  0  0  0
    7.8968  -13.0001   18.9129 C   0  0  0  0  0  0  0  0  0  0  0  0
    8.6532  -13.9844   19.7614 C   0  0  2  0  0  0  0  0  0  0  0  0
    9.7095  -13.2781   20.5936 C   0  0  0  0  0  0  0  0  0  0  0  0
    9.2008  -15.1084   18.9751 C   0  0  2  0  0  0  0  0  0  0  0  0
    8.1245  -15.7410   18.2085 N   0  0  0  0  0  0  0  0  0  0  0  0
    9.8858  -16.1709   19.8052 C   0  0  0  0  0  0  0  0  0  0  0  0
    9.1794  -16.9598   20.4412 O   0  0  0  0  0  0  0  0  0  0  0  0
   11.2811  -16.2779   19.8665 N   0  0  0  0  0  0  0  0  0  0  0  0
   12.1357  -17.1511   20.6135 C   0  0  1  0  0  0  0  0  0  0  0  0
   13.4701  -17.4750   20.0822 C   0  0  0  0  0  0  0  0  0  0  0  0
   13.5769  -17.8419   18.6639 C   0  0  0  0  0  0  0  0  0  0  0  0
   12.8578  -18.7895   18.2144 O   0  0  0  0  0  0  0  0  0  0  0  0
   12.0036  -17.0175   22.0518 C   0  0  0  0  0  0  0  0  0  0  0  0
   12.2388  -15.8840   22.5813 O   0  0  0  0  0  0  0  0  0  0  0  0
   14.4149  -17.2200   17.7772 O   0  0  0  0  0  0  0  0  0  0  0  0
   10.1306  -18.3836   26.2517 O   0  0  0  0  0  0  0  0  0  0  0  0
   10.1734  -18.5385   24.8704 C   0  0  0  0  0  0  0  0  0  0  0  0
   11.4240  -17.8796   24.3497 C   0  0  2  0  0  0  0  0  0  0  0  0
   11.6300  -18.0607   22.9349 N   0  0  0  0  0  0  0  0  0  0  0  0
   12.5798  -18.3681   25.1046 C   0  0  0  0  0  0  0  0  0  0  0  0
   12.7412  -18.0054   26.4296 O   0  0  0  0  0  0  0  0  0  0  0  0
   13.4575  -19.1170   24.6066 O   0  0  0  0  0  0  0  0  0  0  0  0
  2  1  1  0
  3  2  1  0
  3  4  1  6
  5  7  1  0
  5  6  1  1
  5  3  1  0
  7  8  2  0
  9  7  1  0
  9 10  1  0
 10 14  1  0
 10 11  1  1
 12 13  2  0
 12 11  1  0
 14 15  2  0
 14 20  1  0
 16 12  1  0
 17 18  1  0
 19 18  1  1
 19 21  1  0
 20 19  1  0
 21 23  2  0
 21 22  1  0
M  END
$$$$
