QCF.pdb
     RDKit          3D

 27 27  0  0  1  0  0  0  0  0999 V2000
    5.6332  -20.2406   23.4227 N   0  0  0  0  0  0  0  0  0  0  0  0
    6.9733  -19.8554   23.6977 C   0  0  0  0  0  0  0  0  0  0  0  0
    7.6548  -20.5737   24.4694 O   0  0  0  0  0  0  0  0  0  0  0  0
    7.4822  -18.6203   23.0497 C   0  0  0  0  0  0  0  0  0  0  0  0
    6.3744  -17.9676   22.2193 C   0  0  0  0  0  0  0  0  0  0  0  0
    6.9400  -16.7703   21.4734 C   0  0  2  0  0  0  0  0  0  0  0  0
    7.9346  -17.1772   20.5140 N   0  0  0  0  0  0  0  0  0  0  0  0
    7.5294  -15.7920   22.4618 C   0  0  0  0  0  0  0  0  0  0  0  0
    8.7697  -15.7509   22.6567 O   0  0  0  0  0  0  0  0  0  0  0  0
    6.7016  -14.9053   23.1858 N   0  0  0  0  0  0  0  0  0  0  0  0
    7.2131  -13.9013   24.1224 C   0  0  1  0  0  0  0  0  0  0  0  0
    6.1196  -12.8871   24.2562 C   0  0  0  0  0  0  0  0  0  0  0  0
    5.4926  -12.7739   25.9339 S   0  0  0  0  0  0  0  0  0  0  0  0
    7.6632  -14.5239   25.3709 C   0  0  0  0  0  0  0  0  0  0  0  0
    7.3761  -15.7483   25.6433 O   0  0  0  0  0  0  0  0  0  0  0  0
    8.4221  -13.8413   26.3283 N   0  0  0  0  0  0  0  0  0  0  0  0
    9.0468  -14.5073   27.4766 C   0  0  1  0  0  0  0  0  0  0  0  0
   10.1253  -15.4405   27.0303 C   0  0  0  0  0  0  0  0  0  0  0  0
   10.8091  -16.0903   28.1384 C   0  0  0  0  0  0  0  0  0  0  0  0
   11.9019  -15.5376   28.8035 C   0  0  0  0  0  0  0  0  0  0  0  0
   12.4834  -16.2044   29.8597 C   0  0  0  0  0  0  0  0  0  0  0  0
   12.0264  -17.4259   30.3053 C   0  0  0  0  0  0  0  0  0  0  0  0
   10.9455  -17.9768   29.6508 C   0  0  0  0  0  0  0  0  0  0  0  0
   10.3688  -17.3122   28.6011 C   0  0  0  0  0  0  0  0  0  0  0  0
    9.5910  -13.4567   28.3409 C   0  0  0  0  0  0  0  0  0  0  0  0
    9.4424  -13.5303   29.5782 O   0  0  0  0  0  0  0  0  0  0  0  0
   10.2741  -12.3740   27.8281 O   0  0  0  0  0  0  0  0  0  0  0  0
  1  2  1  0
  2  3  2  0
  4  5  1  0
  4  2  1  0
  6  7  1  6
  6  5  1  0
  8 10  1  0
  8  6  1  0
  9  8  2  0
 11 10  1  0
 11 12  1  1
 13 12  1  0
 14 15  2  0
 14 11  1  0
 16 14  1  0
 17 25  1  0
 17 16  1  0
 17 18  1  6
 19 18  1  0
 20 19  2  0
 21 20  1  0
 22 21  2  0
 22 23  1  0
 23 24  2  0
 24 19  1  0
 25 27  1  0
 26 25  2  0
M  END
$$$$
