QCF.pdb
     RDKit          3D

 27 27  0  0  1  0  0  0  0  0999 V2000
    7.8911  -15.4493   16.7714 N   0  0  0  0  0  0  0  0  0  0  0  0
    8.1491  -14.0998   16.4082 C   0  0  0  0  0  0  0  0  0  0  0  0
    8.6361  -13.8692   15.2743 O   0  0  0  0  0  0  0  0  0  0  0  0
    7.8233  -13.0445   17.4005 C   0  0  0  0  0  0  0  0  0  0  0  0
    7.1381  -13.6641   18.6209 C   0  0  0  0  0  0  0  0  0  0  0  0
    8.0759  -13.5989   19.8150 C   0  0  2  0  0  0  0  0  0  0  0  0
    9.4417  -13.8264   19.4172 N   0  0  0  0  0  0  0  0  0  0  0  0
    7.6505  -14.6161   20.8473 C   0  0  0  0  0  0  0  0  0  0  0  0
    6.4425  -14.7275   21.1733 O   0  0  0  0  0  0  0  0  0  0  0  0
    8.5985  -15.4611   21.4662 N   0  0  0  0  0  0  0  0  0  0  0  0
    8.2430  -16.5218   22.4125 C   0  0  1  0  0  0  0  0  0  0  0  0
    8.6955  -17.7967   21.7708 C   0  0  0  0  0  0  0  0  0  0  0  0
    8.6357  -19.1901   22.9001 S   0  0  0  0  0  0  0  0  0  0  0  0
    8.7907  -16.2473   23.7443 C   0  0  0  0  0  0  0  0  0  0  0  0
    9.9927  -15.8120   23.8910 O   0  0  0  0  0  0  0  0  0  0  0  0
    8.0555  -16.4349   24.9203 N   0  0  0  0  0  0  0  0  0  0  0  0
    8.6137  -16.2046   26.2573 C   0  0  1  0  0  0  0  0  0  0  0  0
    7.5927  -15.5989   27.1649 C   0  0  0  0  0  0  0  0  0  0  0  0
    7.2780  -14.2192   26.8259 C   0  0  0  0  0  0  0  0  0  0  0  0
    6.0152  -13.7912   26.4205 C   0  0  0  0  0  0  0  0  0  0  0  0
    5.7890  -12.4620   26.1371 C   0  0  0  0  0  0  0  0  0  0  0  0
    6.7766  -11.5057   26.2370 C   0  0  0  0  0  0  0  0  0  0  0  0
    8.0274  -11.9240   26.6377 C   0  0  0  0  0  0  0  0  0  0  0  0
    8.2502  -13.2458   26.9191 C   0  0  0  0  0  0  0  0  0  0  0  0
    9.0600  -17.5036   26.7678 C   0  0  0  0  0  0  0  0  0  0  0  0
    8.7291  -18.5515   26.1756 O   0  0  0  0  0  0  0  0  0  0  0  0
    9.8468  -17.6108   27.8953 O   0  0  0  0  0  0  0  0  0  0  0  0
  1  2  1  0
  2  3  2  0
  4  5  1  0
  4  2  1  0
  6  7  1  6
  6  5  1  0
  8 10  1  0
  8  6  1  0
  9  8  2  0
 11 10  1  0
 11 12  1  6
 13 12  1  0
 14 15  2  0
 14 11  1  0
 16 14  1  0
 17 25  1  0
 17 16  1  0
 17 18  1  1
 19 18  1  0
 20 19  2  0
 21 20  1  0
 22 21  2  0
 22 23  1  0
 23 24  2  0
 24 19  1  0
 25 27  1  0
 26 25  2  0
M  END
$$$$
