QCF.pdb
     RDKit          3D

 27 27  0  0  1  0  0  0  0  0999 V2000
    8.2821  -21.5046   18.9704 N   0  0  0  0  0  0  0  0  0  0  0  0
    9.6287  -21.2130   19.3188 C   0  0  0  0  0  0  0  0  0  0  0  0
   10.5224  -22.0280   18.9828 O   0  0  0  0  0  0  0  0  0  0  0  0
    9.8913  -19.9549   20.0623 C   0  0  0  0  0  0  0  0  0  0  0  0
    8.5830  -19.1917   20.2827 C   0  0  0  0  0  0  0  0  0  0  0  0
    8.8098  -17.7123   20.0188 C   0  0  2  0  0  0  0  0  0  0  0  0
   10.0575  -17.4911   19.3337 N   0  0  0  0  0  0  0  0  0  0  0  0
    8.7845  -16.9565   21.3263 C   0  0  0  0  0  0  0  0  0  0  0  0
    9.5098  -15.9443   21.4923 O   0  0  0  0  0  0  0  0  0  0  0  0
    7.9479  -17.3700   22.3869 N   0  0  0  0  0  0  0  0  0  0  0  0
    7.8175  -16.6375   23.6491 C   0  0  1  0  0  0  0  0  0  0  0  0
    6.4838  -17.0326   24.2034 C   0  0  0  0  0  0  0  0  0  0  0  0
    6.1842  -16.3343   25.8292 S   0  0  0  0  0  0  0  0  0  0  0  0
    8.9696  -16.8800   24.5225 C   0  0  0  0  0  0  0  0  0  0  0  0
    9.5062  -18.0467   24.6049 O   0  0  0  0  0  0  0  0  0  0  0  0
    9.5514  -15.8773   25.3066 N   0  0  0  0  0  0  0  0  0  0  0  0
   10.6743  -16.1255   26.2176 C   0  0  1  0  0  0  0  0  0  0  0  0
   11.3362  -14.8446   26.6102 C   0  0  0  0  0  0  0  0  0  0  0  0
   10.3964  -13.8435   27.0918 C   0  0  0  0  0  0  0  0  0  0  0  0
   10.2943  -13.4577   28.4271 C   0  0  0  0  0  0  0  0  0  0  0  0
    9.3935  -12.4855   28.8034 C   0  0  0  0  0  0  0  0  0  0  0  0
    8.5637  -11.8563   27.9004 C   0  0  0  0  0  0  0  0  0  0  0  0
    8.6610  -12.2343   26.5784 C   0  0  0  0  0  0  0  0  0  0  0  0
    9.5572  -13.2009   26.2064 C   0  0  0  0  0  0  0  0  0  0  0  0
   10.1325  -16.8140   27.3921 C   0  0  0  0  0  0  0  0  0  0  0  0
    8.8989  -16.9641   27.5110 O   0  0  0  0  0  0  0  0  0  0  0  0
   10.9499  -17.3117   28.3850 O   0  0  0  0  0  0  0  0  0  0  0  0
  1  2  1  0
  2  3  2  0
  4  5  1  0
  4  2  1  0
  6  7  1  1
  6  5  1  0
  8 10  1  0
  8  6  1  0
  9  8  2  0
 11 10  1  0
 11 12  1  1
 13 12  1  0
 14 15  2  0
 14 11  1  0
 16 14  1  0
 17 25  1  0
 17 16  1  0
 17 18  1  1
 19 18  1  0
 20 19  2  0
 21 20  1  0
 22 21  2  0
 22 23  1  0
 23 24  2  0
 24 19  1  0
 25 27  1  0
 26 25  2  0
M  END
$$$$
