QCF.pdb
     RDKit          3D

 27 27  0  0  1  0  0  0  0  0999 V2000
    7.5016  -13.4057   15.9159 N   0  0  0  0  0  0  0  0  0  0  0  0
    8.3396  -13.5083   17.0592 C   0  0  0  0  0  0  0  0  0  0  0  0
    9.4752  -14.0257   16.9227 O   0  0  0  0  0  0  0  0  0  0  0  0
    7.8129  -12.9932   18.3483 C   0  0  0  0  0  0  0  0  0  0  0  0
    7.2372  -14.1433   19.1780 C   0  0  0  0  0  0  0  0  0  0  0  0
    8.3290  -14.7268   20.0597 C   0  0  2  0  0  0  0  0  0  0  0  0
    8.9969  -15.8224   19.4048 N   0  0  0  0  0  0  0  0  0  0  0  0
    7.7308  -15.1810   21.3702 C   0  0  0  0  0  0  0  0  0  0  0  0
    6.9670  -14.4239   22.0194 O   0  0  0  0  0  0  0  0  0  0  0  0
    8.0164  -16.4623   21.8922 N   0  0  0  0  0  0  0  0  0  0  0  0
    7.4673  -16.9639   23.1547 C   0  0  1  0  0  0  0  0  0  0  0  0
    7.1678  -18.4108   22.9123 C   0  0  0  0  0  0  0  0  0  0  0  0
    6.7081  -19.2758   24.4159 S   0  0  0  0  0  0  0  0  0  0  0  0
    8.3689  -16.6769   24.2743 C   0  0  0  0  0  0  0  0  0  0  0  0
    9.6456  -16.7621   24.1372 O   0  0  0  0  0  0  0  0  0  0  0  0
    7.9091  -16.2965   25.5402 N   0  0  0  0  0  0  0  0  0  0  0  0
    8.8083  -15.9722   26.6531 C   0  0  1  0  0  0  0  0  0  0  0  0
    8.1270  -15.0928   27.6509 C   0  0  0  0  0  0  0  0  0  0  0  0
    7.6741  -13.8324   27.0820 C   0  0  0  0  0  0  0  0  0  0  0  0
    8.5297  -12.7872   26.7388 C   0  0  0  0  0  0  0  0  0  0  0  0
    8.0272  -11.6306   26.1836 C   0  0  0  0  0  0  0  0  0  0  0  0
    6.6822  -11.4490   25.9432 C   0  0  0  0  0  0  0  0  0  0  0  0
    5.8319  -12.4800   26.2808 C   0  0  0  0  0  0  0  0  0  0  0  0
    6.3334  -13.6289   26.8325 C   0  0  0  0  0  0  0  0  0  0  0  0
    9.2115  -17.2408   27.2655 C   0  0  0  0  0  0  0  0  0  0  0  0
    8.6808  -18.3075   26.8930 O   0  0  0  0  0  0  0  0  0  0  0  0
   10.1732  -17.2992   28.2522 O   0  0  0  0  0  0  0  0  0  0  0  0
  1  2  1  0
  2  3  2  0
  4  5  1  0
  4  2  1  0
  6  7  1  6
  6  5  1  0
  8 10  1  0
  8  6  1  0
  9  8  2  0
 11 10  1  0
 11 12  1  6
 13 12  1  0
 14 15  2  0
 14 11  1  0
 16 14  1  0
 17 25  1  0
 17 16  1  0
 17 18  1  1
 19 18  1  0
 20 19  2  0
 21 20  1  0
 22 21  2  0
 22 23  1  0
 23 24  2  0
 24 19  1  0
 25 27  1  0
 26 25  2  0
M  END
$$$$
