QCF.pdb
     RDKit          3D

 27 27  0  0  1  0  0  0  0  0999 V2000
   10.3238  -22.2066   18.4522 N   0  0  0  0  0  0  0  0  0  0  0  0
   11.0323  -21.4431   19.4191 C   0  0  0  0  0  0  0  0  0  0  0  0
   11.3078  -21.9808   20.5196 O   0  0  0  0  0  0  0  0  0  0  0  0
   11.4025  -20.0505   19.0613 C   0  0  0  0  0  0  0  0  0  0  0  0
   10.9729  -19.0902   20.1731 C   0  0  0  0  0  0  0  0  0  0  0  0
    9.5494  -18.6237   19.9165 C   0  0  2  0  0  0  0  0  0  0  0  0
    9.4477  -17.9309   18.6576 N   0  0  0  0  0  0  0  0  0  0  0  0
    9.0989  -17.7306   21.0483 C   0  0  0  0  0  0  0  0  0  0  0  0
    9.5767  -16.5762   21.1790 O   0  0  0  0  0  0  0  0  0  0  0  0
    8.1341  -18.1726   21.9807 N   0  0  0  0  0  0  0  0  0  0  0  0
    7.6077  -17.3345   23.0612 C   0  0  1  0  0  0  0  0  0  0  0  0
    6.3442  -18.0038   23.5055 C   0  0  0  0  0  0  0  0  0  0  0  0
    5.6849  -17.2891   25.0138 S   0  0  0  0  0  0  0  0  0  0  0  0
    8.6168  -17.1189   24.1024 C   0  0  0  0  0  0  0  0  0  0  0  0
    9.4001  -18.0696   24.4747 O   0  0  0  0  0  0  0  0  0  0  0  0
    8.7924  -15.8883   24.7453 N   0  0  0  0  0  0  0  0  0  0  0  0
    9.8514  -15.6454   25.7311 C   0  0  1  0  0  0  0  0  0  0  0  0
    9.9408  -14.1931   26.0715 C   0  0  0  0  0  0  0  0  0  0  0  0
    8.6382  -13.5714   26.2563 C   0  0  0  0  0  0  0  0  0  0  0  0
    7.7378  -13.3394   25.2181 C   0  0  0  0  0  0  0  0  0  0  0  0
    6.5122  -12.7650   25.4754 C   0  0  0  0  0  0  0  0  0  0  0  0
    6.1193  -12.3972   26.7443 C   0  0  0  0  0  0  0  0  0  0  0  0
    7.0063  -12.6248   27.7747 C   0  0  0  0  0  0  0  0  0  0  0  0
    8.2241  -13.1960   27.5167 C   0  0  0  0  0  0  0  0  0  0  0  0
    9.5260  -16.4402   26.9183 C   0  0  0  0  0  0  0  0  0  0  0  0
   10.3210  -16.4756   27.8801 O   0  0  0  0  0  0  0  0  0  0  0  0
    8.3533  -17.1596   27.0131 O   0  0  0  0  0  0  0  0  0  0  0  0
  1  2  1  0
  2  3  2  0
  4  5  1  0
  4  2  1  0
  6  7  1  6
  6  5  1  0
  8 10  1  0
  8  6  1  0
  9  8  2  0
 11 10  1  0
 11 12  1  1
 13 12  1  0
 14 15  2  0
 14 11  1  0
 16 14  1  0
 17 25  1  0
 17 16  1  0
 17 18  1  1
 19 18  1  0
 20 19  2  0
 21 20  1  0
 22 21  2  0
 22 23  1  0
 23 24  2  0
 24 19  1  0
 25 27  1  0
 26 25  2  0
M  END
$$$$
