QCF.pdb
     RDKit          3D

 27 27  0  0  1  0  0  0  0  0999 V2000
    8.6088  -11.6768   18.4279 N   0  0  0  0  0  0  0  0  0  0  0  0
    8.4797  -13.0849   18.2851 C   0  0  0  0  0  0  0  0  0  0  0  0
    9.4603  -13.7328   17.8440 O   0  0  0  0  0  0  0  0  0  0  0  0
    7.1846  -13.7007   18.6697 C   0  0  0  0  0  0  0  0  0  0  0  0
    7.3631  -14.5605   19.9233 C   0  0  0  0  0  0  0  0  0  0  0  0
    7.9976  -15.8874   19.5404 C   0  0  2  0  0  0  0  0  0  0  0  0
    7.0916  -16.6920   18.7613 N   0  0  0  0  0  0  0  0  0  0  0  0
    8.4177  -16.6254   20.7896 C   0  0  0  0  0  0  0  0  0  0  0  0
    7.5599  -17.1731   21.5260 O   0  0  0  0  0  0  0  0  0  0  0  0
    9.7792  -16.7152   21.1554 N   0  0  0  0  0  0  0  0  0  0  0  0
   10.2457  -17.3420   22.3949 C   0  0  1  0  0  0  0  0  0  0  0  0
   11.3819  -18.2292   21.9899 C   0  0  0  0  0  0  0  0  0  0  0  0
   10.8243  -19.7190   21.1592 S   0  0  0  0  0  0  0  0  0  0  0  0
   10.5540  -16.3338   23.4135 C   0  0  0  0  0  0  0  0  0  0  0  0
   11.0847  -15.2064   23.0924 O   0  0  0  0  0  0  0  0  0  0  0  0
   10.2941  -16.5271   24.7750 N   0  0  0  0  0  0  0  0  0  0  0  0
    9.7399  -15.4793   25.6396 C   0  0  1  0  0  0  0  0  0  0  0  0
    8.5277  -14.8625   25.0207 C   0  0  0  0  0  0  0  0  0  0  0  0
    7.9360  -13.8203   25.8459 C   0  0  0  0  0  0  0  0  0  0  0  0
    6.6430  -13.3324   25.6662 C   0  0  0  0  0  0  0  0  0  0  0  0
    6.1444  -12.3582   26.5033 C   0  0  0  0  0  0  0  0  0  0  0  0
    6.8805  -11.8258   27.5398 C   0  0  0  0  0  0  0  0  0  0  0  0
    8.1600  -12.3052   27.7219 C   0  0  0  0  0  0  0  0  0  0  0  0
    8.6537  -13.2737   26.8887 C   0  0  0  0  0  0  0  0  0  0  0  0
    9.4086  -16.1082   26.9209 C   0  0  0  0  0  0  0  0  0  0  0  0
    9.8770  -15.6441   27.9809 O   0  0  0  0  0  0  0  0  0  0  0  0
    8.5830  -17.2100   26.9986 O   0  0  0  0  0  0  0  0  0  0  0  0
  1  2  1  0
  2  3  2  0
  4  5  1  0
  4  2  1  0
  6  7  1  1
  6  5  1  0
  8 10  1  0
  8  6  1  0
  9  8  2  0
 11 10  1  0
 11 12  1  6
 13 12  1  0
 14 15  2  0
 14 11  1  0
 16 14  1  0
 17 25  1  0
 17 16  1  0
 17 18  1  6
 19 18  1  0
 20 19  2  0
 21 20  1  0
 22 21  2  0
 22 23  1  0
 23 24  2  0
 24 19  1  0
 25 27  1  0
 26 25  2  0
M  END
$$$$
