QCF.pdb
     RDKit          3D

 27 27  0  0  1  0  0  0  0  0999 V2000
    9.5954  -13.1108   19.6558 N   0  0  0  0  0  0  0  0  0  0  0  0
    8.7277  -13.0665   18.5310 C   0  0  0  0  0  0  0  0  0  0  0  0
    9.2162  -12.7785   17.4110 O   0  0  0  0  0  0  0  0  0  0  0  0
    7.2911  -13.3657   18.7566 C   0  0  0  0  0  0  0  0  0  0  0  0
    7.0605  -13.7672   20.2154 C   0  0  0  0  0  0  0  0  0  0  0  0
    7.6369  -15.1527   20.4560 C   0  0  2  0  0  0  0  0  0  0  0  0
    7.1816  -16.0863   19.4579 N   0  0  0  0  0  0  0  0  0  0  0  0
    7.2517  -15.6271   21.8372 C   0  0  0  0  0  0  0  0  0  0  0  0
    6.3053  -15.0822   22.4582 O   0  0  0  0  0  0  0  0  0  0  0  0
    7.9447  -16.6898   22.4584 N   0  0  0  0  0  0  0  0  0  0  0  0
    7.6594  -17.1592   23.8168 C   0  0  1  0  0  0  0  0  0  0  0  0
    7.7107  -18.6537   23.7413 C   0  0  0  0  0  0  0  0  0  0  0  0
    7.4748  -19.4284   25.3427 S   0  0  0  0  0  0  0  0  0  0  0  0
    8.5612  -16.5374   24.7911 C   0  0  0  0  0  0  0  0  0  0  0  0
    9.8067  -16.3575   24.5225 O   0  0  0  0  0  0  0  0  0  0  0  0
    8.1339  -16.1049   26.0517 N   0  0  0  0  0  0  0  0  0  0  0  0
    9.0584  -15.6528   27.0974 C   0  0  1  0  0  0  0  0  0  0  0  0
    8.4181  -14.6181   27.9649 C   0  0  0  0  0  0  0  0  0  0  0  0
    7.9451  -13.4630   27.2170 C   0  0  0  0  0  0  0  0  0  0  0  0
    6.6167  -13.2783   26.8380 C   0  0  0  0  0  0  0  0  0  0  0  0
    6.2410  -12.1458   26.1490 C   0  0  0  0  0  0  0  0  0  0  0  0
    7.1377  -11.1572   25.8053 C   0  0  0  0  0  0  0  0  0  0  0  0
    8.4528  -11.3352   26.1781 C   0  0  0  0  0  0  0  0  0  0  0  0
    8.8243  -12.4616   26.8631 C   0  0  0  0  0  0  0  0  0  0  0  0
    9.4321  -16.8326   27.8820 C   0  0  0  0  0  0  0  0  0  0  0  0
    8.8984  -17.9348   27.6402 O   0  0  0  0  0  0  0  0  0  0  0  0
   10.3687  -16.7677   28.8921 O   0  0  0  0  0  0  0  0  0  0  0  0
  1  2  1  0
  2  3  2  0
  4  5  1  0
  4  2  1  0
  6  7  1  6
  6  5  1  0
  8 10  1  0
  8  6  1  0
  9  8  2  0
 11 10  1  0
 11 12  1  6
 13 12  1  0
 14 15  2  0
 14 11  1  0
 16 14  1  0
 17 25  1  0
 17 16  1  0
 17 18  1  1
 19 18  1  0
 20 19  2  0
 21 20  1  0
 22 21  2  0
 22 23  1  0
 23 24  2  0
 24 19  1  0
 25 27  1  0
 26 25  2  0
M  END
$$$$
