QCF.pdb
     RDKit          3D

 27 27  0  0  1  0  0  0  0  0999 V2000
    8.0155  -12.2564   17.3126 N   0  0  0  0  0  0  0  0  0  0  0  0
    7.8497  -13.4469   16.5542 C   0  0  0  0  0  0  0  0  0  0  0  0
    7.8864  -13.3671   15.3019 O   0  0  0  0  0  0  0  0  0  0  0  0
    7.6426  -14.7149   17.2982 C   0  0  0  0  0  0  0  0  0  0  0  0
    7.7134  -14.4576   18.8053 C   0  0  0  0  0  0  0  0  0  0  0  0
    8.4828  -15.5841   19.4752 C   0  0  2  0  0  0  0  0  0  0  0  0
    7.9106  -16.8670   19.1559 N   0  0  0  0  0  0  0  0  0  0  0  0
    8.4940  -15.3687   20.9702 C   0  0  0  0  0  0  0  0  0  0  0  0
    8.9799  -14.3189   21.4600 O   0  0  0  0  0  0  0  0  0  0  0  0
    7.9602  -16.3395   21.8467 N   0  0  0  0  0  0  0  0  0  0  0  0
    7.9621  -16.2028   23.3056 C   0  0  1  0  0  0  0  0  0  0  0  0
    6.6354  -16.7300   23.7571 C   0  0  0  0  0  0  0  0  0  0  0  0
    6.5534  -16.9428   25.5371 S   0  0  0  0  0  0  0  0  0  0  0  0
    9.1397  -16.8466   23.8953 C   0  0  0  0  0  0  0  0  0  0  0  0
    9.5148  -18.0181   23.5175 O   0  0  0  0  0  0  0  0  0  0  0  0
    9.9192  -16.2398   24.8866 N   0  0  0  0  0  0  0  0  0  0  0  0
   11.0195  -16.9277   25.5710 C   0  0  1  0  0  0  0  0  0  0  0  0
   11.8840  -15.9539   26.3040 C   0  0  0  0  0  0  0  0  0  0  0  0
   11.1314  -15.0857   27.1969 C   0  0  0  0  0  0  0  0  0  0  0  0
   10.3762  -13.9979   26.7627 C   0  0  0  0  0  0  0  0  0  0  0  0
    9.6720  -13.2342   27.6678 C   0  0  0  0  0  0  0  0  0  0  0  0
    9.6763  -13.4987   29.0205 C   0  0  0  0  0  0  0  0  0  0  0  0
   10.4217  -14.5738   29.4550 C   0  0  0  0  0  0  0  0  0  0  0  0
   11.1209  -15.3317   28.5535 C   0  0  0  0  0  0  0  0  0  0  0  0
   10.4167  -17.8900   26.4972 C   0  0  0  0  0  0  0  0  0  0  0  0
    9.1835  -17.8783   26.6905 O   0  0  0  0  0  0  0  0  0  0  0  0
   11.1750  -18.8239   27.1714 O   0  0  0  0  0  0  0  0  0  0  0  0
  1  2  1  0
  2  3  2  0
  4  5  1  0
  4  2  1  0
  6  7  1  1
  6  5  1  0
  8 10  1  0
  8  6  1  0
  9  8  2  0
 11 10  1  0
 11 12  1  1
 13 12  1  0
 14 15  2  0
 14 11  1  0
 16 14  1  0
 17 25  1  0
 17 16  1  0
 17 18  1  1
 19 18  1  0
 20 19  2  0
 21 20  1  0
 22 21  2  0
 22 23  1  0
 23 24  2  0
 24 19  1  0
 25 27  1  0
 26 25  2  0
M  END
$$$$
