QCF.pdb
     RDKit          3D

 27 27  0  0  1  0  0  0  0  0999 V2000
   10.1072  -13.2616   19.2546 N   0  0  0  0  0  0  0  0  0  0  0  0
    9.0477  -12.8025   18.4258 C   0  0  0  0  0  0  0  0  0  0  0  0
    9.3111  -12.4876   17.2395 O   0  0  0  0  0  0  0  0  0  0  0  0
    7.6902  -12.7253   19.0220 C   0  0  0  0  0  0  0  0  0  0  0  0
    7.6647  -13.4545   20.3675 C   0  0  0  0  0  0  0  0  0  0  0  0
    7.5477  -14.9510   20.1296 C   0  0  2  0  0  0  0  0  0  0  0  0
    6.3711  -15.2653   19.3602 N   0  0  0  0  0  0  0  0  0  0  0  0
    7.5190  -15.6725   21.4562 C   0  0  0  0  0  0  0  0  0  0  0  0
    6.4843  -15.6575   22.1684 O   0  0  0  0  0  0  0  0  0  0  0  0
    8.6509  -16.3771   21.9231 N   0  0  0  0  0  0  0  0  0  0  0  0
    8.6671  -17.1520   23.1666 C   0  0  1  0  0  0  0  0  0  0  0  0
    9.3145  -18.4557   22.8155 C   0  0  0  0  0  0  0  0  0  0  0  0
    9.5590  -19.5066   24.2495 S   0  0  0  0  0  0  0  0  0  0  0  0
    9.2996  -16.3965   24.2520 C   0  0  0  0  0  0  0  0  0  0  0  0
   10.3724  -15.7154   24.0494 O   0  0  0  0  0  0  0  0  0  0  0  0
    8.7863  -16.3651   25.5536 N   0  0  0  0  0  0  0  0  0  0  0  0
    9.4523  -15.6672   26.6589 C   0  0  1  0  0  0  0  0  0  0  0  0
    8.4535  -14.9999   27.5478 C   0  0  0  0  0  0  0  0  0  0  0  0
    7.8500  -13.8228   26.9414 C   0  0  0  0  0  0  0  0  0  0  0  0
    8.5723  -12.6949   26.5562 C   0  0  0  0  0  0  0  0  0  0  0  0
    7.9321  -11.6264   25.9674 C   0  0  0  0  0  0  0  0  0  0  0  0
    6.5740  -11.6153   25.7329 C   0  0  0  0  0  0  0  0  0  0  0  0
    5.8550  -12.7287   26.1120 C   0  0  0  0  0  0  0  0  0  0  0  0
    6.4934  -13.7899   26.6971 C   0  0  0  0  0  0  0  0  0  0  0  0
   10.2225  -16.6695   27.4001 C   0  0  0  0  0  0  0  0  0  0  0  0
   10.9233  -16.3210   28.3725 O   0  0  0  0  0  0  0  0  0  0  0  0
   10.1982  -18.0051   27.0574 O   0  0  0  0  0  0  0  0  0  0  0  0
  1  2  1  0
  2  3  2  0
  4  5  1  0
  4  2  1  0
  6  7  1  1
  6  5  1  0
  8 10  1  0
  8  6  1  0
  9  8  2  0
 11 10  1  0
 11 12  1  6
 13 12  1  0
 14 15  2  0
 14 11  1  0
 16 14  1  0
 17 25  1  0
 17 16  1  0
 17 18  1  1
 19 18  1  0
 20 19  2  0
 21 20  1  0
 22 21  2  0
 22 23  1  0
 23 24  2  0
 24 19  1  0
 25 27  1  0
 26 25  2  0
M  END
$$$$
