QCF.pdb
     RDKit          3D

 27 27  0  0  1  0  0  0  0  0999 V2000
    8.7248  -11.9895   18.8183 N   0  0  0  0  0  0  0  0  0  0  0  0
    8.2648  -13.2834   18.4519 C   0  0  0  0  0  0  0  0  0  0  0  0
    9.0126  -14.0060   17.7487 O   0  0  0  0  0  0  0  0  0  0  0  0
    6.9210  -13.6976   18.9283 C   0  0  0  0  0  0  0  0  0  0  0  0
    6.9611  -13.9833   20.4314 C   0  0  0  0  0  0  0  0  0  0  0  0
    8.1452  -14.8833   20.7438 C   0  0  2  0  0  0  0  0  0  0  0  0
    8.2030  -16.0009   19.8367 N   0  0  0  0  0  0  0  0  0  0  0  0
    8.0492  -15.3669   22.1715 C   0  0  0  0  0  0  0  0  0  0  0  0
    7.4767  -14.6683   23.0446 O   0  0  0  0  0  0  0  0  0  0  0  0
    8.5989  -16.6106   22.5544 N   0  0  0  0  0  0  0  0  0  0  0  0
    8.4476  -17.1859   23.8934 C   0  0  1  0  0  0  0  0  0  0  0  0
    8.7413  -18.6456   23.7358 C   0  0  0  0  0  0  0  0  0  0  0  0
    8.8997  -19.4862   25.3134 S   0  0  0  0  0  0  0  0  0  0  0  0
    9.2716  -16.4704   24.8723 C   0  0  0  0  0  0  0  0  0  0  0  0
   10.4282  -16.0054   24.5530 O   0  0  0  0  0  0  0  0  0  0  0  0
    8.8610  -16.2485   26.1917 N   0  0  0  0  0  0  0  0  0  0  0  0
    9.6248  -15.4296   27.1395 C   0  0  1  0  0  0  0  0  0  0  0  0
    8.7117  -14.6173   27.9995 C   0  0  0  0  0  0  0  0  0  0  0  0
    7.9305  -13.6498   27.2438 C   0  0  0  0  0  0  0  0  0  0  0  0
    8.4610  -12.4790   26.7054 C   0  0  0  0  0  0  0  0  0  0  0  0
    7.6613  -11.6213   25.9819 C   0  0  0  0  0  0  0  0  0  0  0  0
    6.3243  -11.8692   25.7568 C   0  0  0  0  0  0  0  0  0  0  0  0
    5.7949  -13.0261   26.2872 C   0  0  0  0  0  0  0  0  0  0  0  0
    6.5915  -13.8775   27.0060 C   0  0  0  0  0  0  0  0  0  0  0  0
   10.4278  -16.3469   27.9524 C   0  0  0  0  0  0  0  0  0  0  0  0
   11.2551  -15.8922   28.7692 O   0  0  0  0  0  0  0  0  0  0  0  0
   10.2983  -17.7158   27.8470 O   0  0  0  0  0  0  0  0  0  0  0  0
  1  2  1  0
  2  3  2  0
  4  5  1  0
  4  2  1  0
  6  7  1  6
  6  5  1  0
  8 10  1  0
  8  6  1  0
  9  8  2  0
 11 10  1  0
 11 12  1  6
 13 12  1  0
 14 15  2  0
 14 11  1  0
 16 14  1  0
 17 25  1  0
 17 16  1  0
 17 18  1  1
 19 18  1  0
 20 19  2  0
 21 20  1  0
 22 21  2  0
 22 23  1  0
 23 24  2  0
 24 19  1  0
 25 27  1  0
 26 25  2  0
M  END
$$$$
