QCF.pdb
     RDKit          3D

 27 27  0  0  1  0  0  0  0  0999 V2000
    7.3490  -12.8253   17.8099 N   0  0  0  0  0  0  0  0  0  0  0  0
    8.1126  -13.6311   16.9224 C   0  0  0  0  0  0  0  0  0  0  0  0
    8.0064  -13.4259   15.6885 O   0  0  0  0  0  0  0  0  0  0  0  0
    8.9915  -14.6693   17.5174 C   0  0  0  0  0  0  0  0  0  0  0  0
    8.9255  -14.6015   19.0450 C   0  0  0  0  0  0  0  0  0  0  0  0
    9.3325  -15.9442   19.6290 C   0  0  2  0  0  0  0  0  0  0  0  0
    9.0182  -17.0215   18.7257 N   0  0  0  0  0  0  0  0  0  0  0  0
    8.6396  -16.1488   20.9555 C   0  0  0  0  0  0  0  0  0  0  0  0
    7.4311  -15.8376   21.0989 O   0  0  0  0  0  0  0  0  0  0  0  0
    9.3332  -16.6926   22.0596 N   0  0  0  0  0  0  0  0  0  0  0  0
    8.6832  -17.0797   23.3143 C   0  0  1  0  0  0  0  0  0  0  0  0
    8.6740  -18.5770   23.3132 C   0  0  0  0  0  0  0  0  0  0  0  0
   10.3275  -19.2716   23.3773 S   0  0  0  0  0  0  0  0  0  0  0  0
    9.3343  -16.4456   24.4645 C   0  0  0  0  0  0  0  0  0  0  0  0
   10.5499  -16.0295   24.3930 O   0  0  0  0  0  0  0  0  0  0  0  0
    8.6881  -16.2529   25.6908 N   0  0  0  0  0  0  0  0  0  0  0  0
    9.3678  -15.7225   26.8779 C   0  0  1  0  0  0  0  0  0  0  0  0
    8.4220  -14.9386   27.7288 C   0  0  0  0  0  0  0  0  0  0  0  0
    7.8189  -13.8175   27.0239 C   0  0  0  0  0  0  0  0  0  0  0  0
    6.5031  -13.8104   26.5648 C   0  0  0  0  0  0  0  0  0  0  0  0
    5.9959  -12.7011   25.9239 C   0  0  0  0  0  0  0  0  0  0  0  0
    6.7452  -11.5648   25.7072 C   0  0  0  0  0  0  0  0  0  0  0  0
    8.0473  -11.5668   26.1596 C   0  0  0  0  0  0  0  0  0  0  0  0
    8.5495  -12.6705   26.7966 C   0  0  0  0  0  0  0  0  0  0  0  0
    9.9051  -16.8689   27.6154 C   0  0  0  0  0  0  0  0  0  0  0  0
   10.6096  -16.6817   28.6288 O   0  0  0  0  0  0  0  0  0  0  0  0
    9.6542  -18.1675   27.2249 O   0  0  0  0  0  0  0  0  0  0  0  0
  1  2  1  0
  2  3  2  0
  4  5  1  0
  4  2  1  0
  6  7  1  6
  6  5  1  0
  8 10  1  0
  8  6  1  0
  9  8  2  0
 11 10  1  0
 11 12  1  1
 13 12  1  0
 14 15  2  0
 14 11  1  0
 16 14  1  0
 17 25  1  0
 17 16  1  0
 17 18  1  1
 19 18  1  0
 20 19  2  0
 21 20  1  0
 22 21  2  0
 22 23  1  0
 23 24  2  0
 24 19  1  0
 25 27  1  0
 26 25  2  0
M  END
$$$$
