QCF.pdb
     RDKit          3D

 27 27  0  0  1  0  0  0  0  0999 V2000
    9.0754  -17.4779   16.5944 N   0  0  0  0  0  0  0  0  0  0  0  0
    8.0968  -18.4082   17.0380 C   0  0  0  0  0  0  0  0  0  0  0  0
    7.1550  -18.7004   16.2610 O   0  0  0  0  0  0  0  0  0  0  0  0
    8.2539  -18.9769   18.4005 C   0  0  0  0  0  0  0  0  0  0  0  0
    9.5625  -18.4882   19.0262 C   0  0  0  0  0  0  0  0  0  0  0  0
    9.3723  -18.3125   20.5238 C   0  0  2  0  0  0  0  0  0  0  0  0
    8.0956  -18.8259   20.9501 N   0  0  0  0  0  0  0  0  0  0  0  0
    9.4990  -16.8503   20.8808 C   0  0  0  0  0  0  0  0  0  0  0  0
   10.5489  -16.2160   20.6098 O   0  0  0  0  0  0  0  0  0  0  0  0
    8.4434  -16.1671   21.5247 N   0  0  0  0  0  0  0  0  0  0  0  0
    8.5320  -14.7738   21.9697 C   0  0  1  0  0  0  0  0  0  0  0  0
    7.2004  -14.1680   21.6508 C   0  0  0  0  0  0  0  0  0  0  0  0
    6.6097  -14.6327   20.0212 S   0  0  0  0  0  0  0  0  0  0  0  0
    8.9516  -14.6926   23.3719 C   0  0  0  0  0  0  0  0  0  0  0  0
    8.9476  -13.5707   24.0021 O   0  0  0  0  0  0  0  0  0  0  0  0
    9.3734  -15.8087   24.1034 N   0  0  0  0  0  0  0  0  0  0  0  0
    9.4417  -15.8249   25.5688 C   0  0  1  0  0  0  0  0  0  0  0  0
    8.0883  -15.6204   26.1684 C   0  0  0  0  0  0  0  0  0  0  0  0
    7.8092  -14.2266   26.4796 C   0  0  0  0  0  0  0  0  0  0  0  0
    8.7943  -13.2924   26.7943 C   0  0  0  0  0  0  0  0  0  0  0  0
    8.4534  -11.9834   27.0565 C   0  0  0  0  0  0  0  0  0  0  0  0
    7.1497  -11.5375   27.0227 C   0  0  0  0  0  0  0  0  0  0  0  0
    6.1716  -12.4577   26.7118 C   0  0  0  0  0  0  0  0  0  0  0  0
    6.5126  -13.7584   26.4513 C   0  0  0  0  0  0  0  0  0  0  0  0
    9.9946  -17.1242   25.9603 C   0  0  0  0  0  0  0  0  0  0  0  0
   10.1357  -18.0231   25.1057 O   0  0  0  0  0  0  0  0  0  0  0  0
   10.3726  -17.3923   27.2592 O   0  0  0  0  0  0  0  0  0  0  0  0
  1  2  1  0
  2  3  2  0
  4  5  1  0
  4  2  1  0
  6  7  1  6
  6  5  1  0
  8 10  1  0
  8  6  1  0
  9  8  2  0
 11 10  1  0
 11 12  1  1
 13 12  1  0
 14 15  2  0
 14 11  1  0
 16 14  1  0
 17 25  1  0
 17 16  1  0
 17 18  1  1
 19 18  1  0
 20 19  2  0
 21 20  1  0
 22 21  2  0
 22 23  1  0
 23 24  2  0
 24 19  1  0
 25 27  1  0
 26 25  2  0
M  END
$$$$
