QCF.pdb
     RDKit          3D

 27 27  0  0  1  0  0  0  0  0999 V2000
    7.8294  -12.0747   17.9905 N   0  0  0  0  0  0  0  0  0  0  0  0
    7.7113  -13.4910   17.9898 C   0  0  0  0  0  0  0  0  0  0  0  0
    7.1927  -14.0465   16.9906 O   0  0  0  0  0  0  0  0  0  0  0  0
    8.2124  -14.2251   19.1791 C   0  0  0  0  0  0  0  0  0  0  0  0
    9.0490  -15.4291   18.7397 C   0  0  0  0  0  0  0  0  0  0  0  0
   10.0468  -15.7774   19.8319 C   0  0  2  0  0  0  0  0  0  0  0  0
   10.9674  -16.7938   19.3909 N   0  0  0  0  0  0  0  0  0  0  0  0
    9.3056  -16.2360   21.0655 C   0  0  0  0  0  0  0  0  0  0  0  0
    8.0712  -16.4644   21.0202 O   0  0  0  0  0  0  0  0  0  0  0  0
    9.9821  -16.4173   22.2924 N   0  0  0  0  0  0  0  0  0  0  0  0
    9.3662  -17.0235   23.4756 C   0  0  1  0  0  0  0  0  0  0  0  0
    9.7253  -18.4758   23.4122 C   0  0  0  0  0  0  0  0  0  0  0  0
   11.4994  -18.7442   23.4472 S   0  0  0  0  0  0  0  0  0  0  0  0
    9.7647  -16.3196   24.6982 C   0  0  0  0  0  0  0  0  0  0  0  0
   10.8644  -15.6536   24.7523 O   0  0  0  0  0  0  0  0  0  0  0  0
    8.9888  -16.3239   25.8629 N   0  0  0  0  0  0  0  0  0  0  0  0
    9.4259  -15.7000   27.1168 C   0  0  1  0  0  0  0  0  0  0  0  0
    8.2838  -15.0229   27.8024 C   0  0  0  0  0  0  0  0  0  0  0  0
    7.8752  -13.7912   27.1442 C   0  0  0  0  0  0  0  0  0  0  0  0
    8.6190  -12.6131   27.1774 C   0  0  0  0  0  0  0  0  0  0  0  0
    8.1764  -11.4919   26.5101 C   0  0  0  0  0  0  0  0  0  0  0  0
    7.0012  -11.4750   25.7902 C   0  0  0  0  0  0  0  0  0  0  0  0
    6.2619  -12.6379   25.7542 C   0  0  0  0  0  0  0  0  0  0  0  0
    6.7037  -13.7515   26.4181 C   0  0  0  0  0  0  0  0  0  0  0  0
    9.9818  -16.7640   27.9570 C   0  0  0  0  0  0  0  0  0  0  0  0
   10.4606  -16.4866   29.0759 O   0  0  0  0  0  0  0  0  0  0  0  0
    9.9928  -18.0816   27.5499 O   0  0  0  0  0  0  0  0  0  0  0  0
  1  2  1  0
  2  3  2  0
  4  5  1  0
  4  2  1  0
  6  7  1  6
  6  5  1  0
  8 10  1  0
  8  6  1  0
  9  8  2  0
 11 10  1  0
 11 12  1  1
 13 12  1  0
 14 15  2  0
 14 11  1  0
 16 14  1  0
 17 25  1  0
 17 16  1  0
 17 18  1  1
 19 18  1  0
 20 19  2  0
 21 20  1  0
 22 21  2  0
 22 23  1  0
 23 24  2  0
 24 19  1  0
 25 27  1  0
 26 25  2  0
M  END
$$$$
