QCF.pdb
     RDKit          3D

 27 27  0  0  1  0  0  0  0  0999 V2000
    9.0905  -12.5487   17.7392 N   0  0  0  0  0  0  0  0  0  0  0  0
    8.5777  -13.8174   17.3556 C   0  0  0  0  0  0  0  0  0  0  0  0
    9.2480  -14.5156   16.5561 O   0  0  0  0  0  0  0  0  0  0  0  0
    7.2740  -14.2362   17.9298 C   0  0  0  0  0  0  0  0  0  0  0  0
    7.2397  -13.9358   19.4302 C   0  0  0  0  0  0  0  0  0  0  0  0
    8.1760  -14.8864   20.1578 C   0  0  2  0  0  0  0  0  0  0  0  0
    8.4157  -16.0764   19.3821 N   0  0  0  0  0  0  0  0  0  0  0  0
    7.5885  -15.2428   21.5029 C   0  0  0  0  0  0  0  0  0  0  0  0
    7.0094  -14.3709   22.1975 O   0  0  0  0  0  0  0  0  0  0  0  0
    7.6772  -16.5595   22.0070 N   0  0  0  0  0  0  0  0  0  0  0  0
    7.2904  -16.9333   23.3700 C   0  0  1  0  0  0  0  0  0  0  0  0
    7.0672  -18.4133   23.3293 C   0  0  0  0  0  0  0  0  0  0  0  0
    6.6115  -19.0810   24.9316 S   0  0  0  0  0  0  0  0  0  0  0  0
    8.2765  -16.4624   24.3472 C   0  0  0  0  0  0  0  0  0  0  0  0
    9.5235  -16.3739   24.0421 O   0  0  0  0  0  0  0  0  0  0  0  0
    7.9323  -16.0834   25.6497 N   0  0  0  0  0  0  0  0  0  0  0  0
    8.9197  -15.6431   26.6414 C   0  0  1  0  0  0  0  0  0  0  0  0
    8.3106  -14.6833   27.6112 C   0  0  0  0  0  0  0  0  0  0  0  0
    7.7183  -13.5217   26.9654 C   0  0  0  0  0  0  0  0  0  0  0  0
    8.4615  -12.4673   26.4380 C   0  0  0  0  0  0  0  0  0  0  0  0
    7.8286  -11.4104   25.8208 C   0  0  0  0  0  0  0  0  0  0  0  0
    6.4579  -11.3404   25.6946 C   0  0  0  0  0  0  0  0  0  0  0  0
    5.7183  -12.3809   26.2145 C   0  0  0  0  0  0  0  0  0  0  0  0
    6.3494  -13.4307   26.8275 C   0  0  0  0  0  0  0  0  0  0  0  0
    9.4044  -16.8426   27.3293 C   0  0  0  0  0  0  0  0  0  0  0  0
    8.8767  -17.9495   27.0956 O   0  0  0  0  0  0  0  0  0  0  0  0
   10.4404  -16.7915   28.2382 O   0  0  0  0  0  0  0  0  0  0  0  0
  1  2  1  0
  2  3  2  0
  4  5  1  0
  4  2  1  0
  6  7  1  6
  6  5  1  0
  8 10  1  0
  8  6  1  0
  9  8  2  0
 11 10  1  0
 11 12  1  6
 13 12  1  0
 14 15  2  0
 14 11  1  0
 16 14  1  0
 17 25  1  0
 17 16  1  0
 17 18  1  1
 19 18  1  0
 20 19  2  0
 21 20  1  0
 22 21  2  0
 22 23  1  0
 23 24  2  0
 24 19  1  0
 25 27  1  0
 26 25  2  0
M  END
$$$$
