QCF.pdb
     RDKit          3D

 27 27  0  0  1  0  0  0  0  0999 V2000
    8.4195  -19.3877   26.8984 N   0  0  0  0  0  0  0  0  0  0  0  0
    7.5020  -20.0718   26.0558 C   0  0  0  0  0  0  0  0  0  0  0  0
    6.7939  -20.9795   26.5565 O   0  0  0  0  0  0  0  0  0  0  0  0
    7.4412  -19.6650   24.6292 C   0  0  0  0  0  0  0  0  0  0  0  0
    6.0164  -19.2425   24.2633 C   0  0  0  0  0  0  0  0  0  0  0  0
    5.9296  -18.9997   22.7655 C   0  0  2  0  0  0  0  0  0  0  0  0
    6.1133  -20.2237   22.0284 N   0  0  0  0  0  0  0  0  0  0  0  0
    6.9653  -17.9783   22.3587 C   0  0  0  0  0  0  0  0  0  0  0  0
    8.1846  -18.2799   22.3366 O   0  0  0  0  0  0  0  0  0  0  0  0
    6.5866  -16.6666   21.9958 N   0  0  0  0  0  0  0  0  0  0  0  0
    7.5209  -15.6714   21.4632 C   0  0  1  0  0  0  0  0  0  0  0  0
    6.7060  -14.4334   21.2503 C   0  0  0  0  0  0  0  0  0  0  0  0
    7.6152  -13.1577   20.3748 S   0  0  0  0  0  0  0  0  0  0  0  0
    8.6902  -15.5245   22.3349 C   0  0  0  0  0  0  0  0  0  0  0  0
    9.8774  -15.4436   21.8451 O   0  0  0  0  0  0  0  0  0  0  0  0
    8.5934  -15.4613   23.7297 N   0  0  0  0  0  0  0  0  0  0  0  0
    9.7524  -15.2435   24.6024 C   0  0  1  0  0  0  0  0  0  0  0  0
    9.8491  -13.8100   25.0133 C   0  0  0  0  0  0  0  0  0  0  0  0
    8.5927  -13.2776   25.5185 C   0  0  0  0  0  0  0  0  0  0  0  0
    7.5568  -12.8318   24.6997 C   0  0  0  0  0  0  0  0  0  0  0  0
    6.3863  -12.3604   25.2530 C   0  0  0  0  0  0  0  0  0  0  0  0
    6.1814  -12.3055   26.6149 C   0  0  0  0  0  0  0  0  0  0  0  0
    7.2029  -12.7454   27.4291 C   0  0  0  0  0  0  0  0  0  0  0  0
    8.3657  -13.2137   26.8770 C   0  0  0  0  0  0  0  0  0  0  0  0
    9.5813  -16.1106   25.7711 C   0  0  0  0  0  0  0  0  0  0  0  0
   10.4704  -16.1577   26.6460 O   0  0  0  0  0  0  0  0  0  0  0  0
    8.4542  -16.8866   25.9424 O   0  0  0  0  0  0  0  0  0  0  0  0
  1  2  1  0
  2  3  2  0
  4  5  1  0
  4  2  1  0
  6  7  1  6
  6  5  1  0
  8 10  1  0
  8  6  1  0
  9  8  2  0
 11 10  1  0
 11 12  1  1
 13 12  1  0
 14 15  2  0
 14 11  1  0
 16 14  1  0
 17 25  1  0
 17 16  1  0
 17 18  1  1
 19 18  1  0
 20 19  2  0
 21 20  1  0
 22 21  2  0
 22 23  1  0
 23 24  2  0
 24 19  1  0
 25 27  1  0
 26 25  2  0
M  END
$$$$
