LHG.pdb
     RDKit          3D

 23 23  0  0  1  0  0  0  0  0999 V2000
    5.7972  -12.2856   25.7313 C   0  0  0  0  0  0  0  0  0  0  0  0
    6.5919  -13.0872   26.7348 C   0  0  2  0  0  0  0  0  0  0  0  0
    7.4758  -12.1994   27.5927 C   0  0  0  0  0  0  0  0  0  0  0  0
    7.4935  -14.0208   25.9793 C   0  0  0  0  0  0  0  0  0  0  0  0
    6.7280  -14.8801   24.9954 C   0  0  2  0  0  0  0  0  0  0  0  0
    5.9257  -15.8199   25.7410 N   0  0  0  0  0  0  0  0  0  0  0  0
    7.7386  -15.6366   24.2102 C   0  0  0  0  0  0  0  0  0  0  0  0
    7.7884  -16.8878   24.2957 O   0  0  0  0  0  0  0  0  0  0  0  0
    8.6359  -14.9728   23.3764 N   0  0  0  0  0  0  0  0  0  0  0  0
    9.3912  -15.8256   22.3825 C   0  0  1  0  0  0  0  0  0  0  0  0
    9.6847  -14.8193   21.3050 C   0  0  0  0  0  0  0  0  0  0  0  0
    8.6086  -14.3478   20.4580 C   0  0  0  0  0  0  0  0  0  0  0  0
    7.3281  -14.7970   20.3640 C   0  0  0  0  0  0  0  0  0  0  0  0
    6.6906  -13.9635   19.4898 N   0  0  0  0  0  0  0  0  0  0  0  0
    7.5621  -13.0384   19.0708 C   0  0  0  0  0  0  0  0  0  0  0  0
    8.7310  -13.2496   19.6434 N   0  0  0  0  0  0  0  0  0  0  0  0
   10.6437  -16.1707   23.1498 C   0  0  0  0  0  0  0  0  0  0  0  0
   11.6027  -16.7213   22.4757 O   0  0  0  0  0  0  0  0  0  0  0  0
   10.8801  -15.9551   24.5119 N   0  0  0  0  0  0  0  0  0  0  0  0
   12.1169  -16.4755   25.1247 C   0  0  0  0  0  0  0  0  0  0  0  0
   11.8292  -17.7436   25.8315 C   0  0  0  0  0  0  0  0  0  0  0  0
   12.5489  -18.1075   26.9698 O   0  0  0  0  0  0  0  0  0  0  0  0
   10.9280  -18.4613   25.3705 O   0  0  0  0  0  0  0  0  0  0  0  0
  2  1  1  6
  2  3  1  0
  4  2  1  0
  4  5  1  0
  5  7  1  0
  5  6  1  1
  7  8  2  0
  9  7  1  0
  9 10  1  0
 11 12  1  0
 10 11  1  6
 12 16  1  0
 13 14  1  0
 13 12  2  0
 14 15  1  0
 15 16  2  0
 17 10  1  0
 17 19  1  0
 18 17  2  0
 20 19  1  0
 20 21  1  0
 21 22  1  0
 23 21  2  0
M  END
$$$$
