LHG.pdb
     RDKit          3D

 23 23  0  0  1  0  0  0  0  0999 V2000
    6.1214  -12.4073   25.7569 C   0  0  0  0  0  0  0  0  0  0  0  0
    6.7071  -13.2263   26.8827 C   0  0  2  0  0  0  0  0  0  0  0  0
    7.7032  -12.4260   27.7030 C   0  0  0  0  0  0  0  0  0  0  0  0
    7.4500  -14.3845   26.2813 C   0  0  0  0  0  0  0  0  0  0  0  0
    6.7227  -14.9709   25.0899 C   0  0  2  0  0  0  0  0  0  0  0  0
    5.8113  -15.9831   25.5670 N   0  0  0  0  0  0  0  0  0  0  0  0
    7.7519  -15.6224   24.2375 C   0  0  0  0  0  0  0  0  0  0  0  0
    7.9416  -16.8602   24.3218 O   0  0  0  0  0  0  0  0  0  0  0  0
    8.5128  -14.8745   23.3417 N   0  0  0  0  0  0  0  0  0  0  0  0
    9.4529  -15.6475   22.4449 C   0  0  1  0  0  0  0  0  0  0  0  0
    9.6504  -14.6672   21.3225 C   0  0  0  0  0  0  0  0  0  0  0  0
    8.5878  -14.4624   20.3600 C   0  0  0  0  0  0  0  0  0  0  0  0
    7.3562  -15.0373   20.3030 C   0  0  0  0  0  0  0  0  0  0  0  0
    6.7013  -14.4429   19.2622 N   0  0  0  0  0  0  0  0  0  0  0  0
    7.5149  -13.5353   18.7097 C   0  0  0  0  0  0  0  0  0  0  0  0
    8.6635  -13.5279   19.3572 N   0  0  0  0  0  0  0  0  0  0  0  0
   10.6942  -15.7445   23.2972 C   0  0  0  0  0  0  0  0  0  0  0  0
   10.9824  -14.7096   24.0205 O   0  0  0  0  0  0  0  0  0  0  0  0
   11.5646  -16.8359   23.3917 N   0  0  0  0  0  0  0  0  0  0  0  0
   12.7214  -16.7642   24.3041 C   0  0  0  0  0  0  0  0  0  0  0  0
   13.9321  -16.3757   23.5467 C   0  0  0  0  0  0  0  0  0  0  0  0
   15.1643  -16.9735   23.8116 O   0  0  0  0  0  0  0  0  0  0  0  0
   13.8028  -15.5028   22.6742 O   0  0  0  0  0  0  0  0  0  0  0  0
  2  1  1  6
  2  3  1  0
  4  2  1  0
  4  5  1  0
  5  7  1  0
  5  6  1  1
  7  8  2  0
  9  7  1  0
  9 10  1  0
 11 12  1  0
 10 11  1  6
 12 16  1  0
 13 14  1  0
 13 12  2  0
 14 15  1  0
 15 16  2  0
 17 10  1  0
 17 19  1  0
 18 17  2  0
 20 19  1  0
 20 21  1  0
 21 22  1  0
 23 21  2  0
M  END
$$$$
