LHG.pdb
     RDKit          3D

 23 23  0  0  1  0  0  0  0  0999 V2000
    6.9289  -11.9523   25.1036 C   0  0  0  0  0  0  0  0  0  0  0  0
    6.4123  -12.6865   26.3182 C   0  0  2  0  0  0  0  0  0  0  0  0
    6.7725  -11.9684   27.6066 C   0  0  0  0  0  0  0  0  0  0  0  0
    7.0655  -14.0381   26.3609 C   0  0  0  0  0  0  0  0  0  0  0  0
    6.7355  -14.8690   25.1390 C   0  0  2  0  0  0  0  0  0  0  0  0
    5.4167  -15.4288   25.3127 N   0  0  0  0  0  0  0  0  0  0  0  0
    7.7216  -15.9808   25.0977 C   0  0  0  0  0  0  0  0  0  0  0  0
    7.4582  -17.0716   25.6600 O   0  0  0  0  0  0  0  0  0  0  0  0
    8.9404  -15.8284   24.4402 N   0  0  0  0  0  0  0  0  0  0  0  0
    9.8388  -17.0434   24.3935 C   0  0  1  0  0  0  0  0  0  0  0  0
   10.7767  -16.6646   23.2814 C   0  0  0  0  0  0  0  0  0  0  0  0
   10.3674  -16.8609   21.9061 C   0  0  0  0  0  0  0  0  0  0  0  0
    9.2159  -17.3972   21.4195 C   0  0  0  0  0  0  0  0  0  0  0  0
    9.2774  -17.2738   20.0607 N   0  0  0  0  0  0  0  0  0  0  0  0
   10.4322  -16.6789   19.7388 C   0  0  0  0  0  0  0  0  0  0  0  0
   11.1100  -16.4185   20.8395 N   0  0  0  0  0  0  0  0  0  0  0  0
   10.5353  -16.9729   25.7301 C   0  0  0  0  0  0  0  0  0  0  0  0
   10.9444  -15.8040   26.1091 O   0  0  0  0  0  0  0  0  0  0  0  0
   10.7822  -18.0363   26.6052 N   0  0  0  0  0  0  0  0  0  0  0  0
   11.4487  -17.7744   27.8949 C   0  0  0  0  0  0  0  0  0  0  0  0
   11.5537  -19.0322   28.6677 C   0  0  0  0  0  0  0  0  0  0  0  0
   11.0701  -20.2334   28.1488 O   0  0  0  0  0  0  0  0  0  0  0  0
   12.0861  -18.9707   29.7870 O   0  0  0  0  0  0  0  0  0  0  0  0
  2  1  1  6
  2  3  1  0
  4  2  1  0
  4  5  1  0
  5  7  1  0
  5  6  1  1
  7  8  2  0
  9  7  1  0
  9 10  1  0
 11 12  1  0
 10 11  1  6
 12 16  1  0
 13 14  1  0
 13 12  2  0
 14 15  1  0
 15 16  2  0
 17 10  1  0
 17 19  1  0
 18 17  2  0
 20 19  1  0
 20 21  1  0
 21 22  1  0
 23 21  2  0
M  END
$$$$
