LHG.pdb
     RDKit          3D

 23 23  0  0  1  0  0  0  0  0999 V2000
    8.3462  -13.1066   26.1897 C   0  0  0  0  0  0  0  0  0  0  0  0
    6.8678  -13.0281   25.8904 C   0  0  2  0  0  0  0  0  0  0  0  0
    6.1514  -12.0776   26.8330 C   0  0  0  0  0  0  0  0  0  0  0  0
    6.2759  -14.3930   26.0952 C   0  0  0  0  0  0  0  0  0  0  0  0
    6.0485  -15.1176   24.7855 C   0  0  2  0  0  0  0  0  0  0  0  0
    5.3215  -16.3339   25.0592 N   0  0  0  0  0  0  0  0  0  0  0  0
    7.3904  -15.4756   24.2550 C   0  0  0  0  0  0  0  0  0  0  0  0
    7.9699  -16.5102   24.6664 O   0  0  0  0  0  0  0  0  0  0  0  0
    8.0171  -14.6748   23.3027 N   0  0  0  0  0  0  0  0  0  0  0  0
    9.0832  -15.3371   22.4598 C   0  0  1  0  0  0  0  0  0  0  0  0
    9.3207  -14.2820   21.4157 C   0  0  0  0  0  0  0  0  0  0  0  0
    8.4425  -14.2062   20.2666 C   0  0  0  0  0  0  0  0  0  0  0  0
    7.7345  -13.1453   19.7936 C   0  0  0  0  0  0  0  0  0  0  0  0
    7.1373  -13.5645   18.6390 N   0  0  0  0  0  0  0  0  0  0  0  0
    7.4773  -14.8406   18.4226 C   0  0  0  0  0  0  0  0  0  0  0  0
    8.2678  -15.2520   19.3945 N   0  0  0  0  0  0  0  0  0  0  0  0
   10.2442  -15.4122   23.4205 C   0  0  0  0  0  0  0  0  0  0  0  0
   10.8752  -14.3055   23.6541 O   0  0  0  0  0  0  0  0  0  0  0  0
   10.7087  -16.5502   24.0889 N   0  0  0  0  0  0  0  0  0  0  0  0
   11.9274  -16.4593   24.9152 C   0  0  0  0  0  0  0  0  0  0  0  0
   12.8888  -17.5068   24.5047 C   0  0  0  0  0  0  0  0  0  0  0  0
   14.1388  -17.1675   23.9867 O   0  0  0  0  0  0  0  0  0  0  0  0
   12.5364  -18.6888   24.6408 O   0  0  0  0  0  0  0  0  0  0  0  0
  2  1  1  1
  2  3  1  0
  4  2  1  0
  4  5  1  0
  5  7  1  0
  5  6  1  1
  7  8  2  0
  9  7  1  0
  9 10  1  0
 11 12  1  0
 10 11  1  6
 12 16  1  0
 13 14  1  0
 13 12  2  0
 14 15  1  0
 15 16  2  0
 17 10  1  0
 17 19  1  0
 18 17  2  0
 20 19  1  0
 20 21  1  0
 21 22  1  0
 23 21  2  0
M  END
$$$$
