LHG.pdb
     RDKit          3D

 23 23  0  0  1  0  0  0  0  0999 V2000
    5.7627  -12.0495   25.8753 C   0  0  0  0  0  0  0  0  0  0  0  0
    6.5277  -12.9748   26.7917 C   0  0  2  0  0  0  0  0  0  0  0  0
    7.4040  -12.2066   27.7651 C   0  0  0  0  0  0  0  0  0  0  0  0
    7.4338  -13.8248   25.9481 C   0  0  0  0  0  0  0  0  0  0  0  0
    6.6716  -14.5921   24.8885 C   0  0  2  0  0  0  0  0  0  0  0  0
    5.7465  -15.4816   25.5486 N   0  0  0  0  0  0  0  0  0  0  0  0
    7.6699  -15.4086   24.1491 C   0  0  0  0  0  0  0  0  0  0  0  0
    7.5971  -16.6613   24.1766 O   0  0  0  0  0  0  0  0  0  0  0  0
    8.6906  -14.7998   23.4221 N   0  0  0  0  0  0  0  0  0  0  0  0
    9.5010  -15.6972   22.5147 C   0  0  1  0  0  0  0  0  0  0  0  0
    9.7311  -14.7867   21.3409 C   0  0  0  0  0  0  0  0  0  0  0  0
    8.5949  -14.2692   20.6069 C   0  0  0  0  0  0  0  0  0  0  0  0
    8.2798  -12.9806   20.3058 C   0  0  0  0  0  0  0  0  0  0  0  0
    7.1615  -13.0301   19.5233 N   0  0  0  0  0  0  0  0  0  0  0  0
    6.8144  -14.3118   19.3570 C   0  0  0  0  0  0  0  0  0  0  0  0
    7.6675  -15.0819   20.0034 N   0  0  0  0  0  0  0  0  0  0  0  0
   10.7717  -15.8830   23.3068 C   0  0  0  0  0  0  0  0  0  0  0  0
   11.8164  -16.2660   22.6442 O   0  0  0  0  0  0  0  0  0  0  0  0
   10.9416  -15.6813   24.6808 N   0  0  0  0  0  0  0  0  0  0  0  0
   10.5740  -16.7556   25.6225 C   0  0  0  0  0  0  0  0  0  0  0  0
   11.6824  -17.7308   25.7256 C   0  0  0  0  0  0  0  0  0  0  0  0
   12.5489  -17.9452   24.6536 O   0  0  0  0  0  0  0  0  0  0  0  0
   11.8049  -18.3432   26.7979 O   0  0  0  0  0  0  0  0  0  0  0  0
  2  1  1  6
  2  3  1  0
  4  2  1  0
  4  5  1  0
  5  7  1  0
  5  6  1  1
  7  8  2  0
  9  7  1  0
  9 10  1  0
 11 12  1  0
 10 11  1  6
 12 16  1  0
 13 14  1  0
 13 12  2  0
 14 15  1  0
 15 16  2  0
 17 10  1  0
 17 19  1  0
 18 17  2  0
 20 19  1  0
 20 21  1  0
 21 22  1  0
 23 21  2  0
M  END
$$$$
