LHG.pdb
     RDKit          3D

 23 23  0  0  1  0  0  0  0  0999 V2000
    7.4251  -12.3719   27.4678 C   0  0  0  0  0  0  0  0  0  0  0  0
    6.9328  -12.2823   26.0428 C   0  0  2  0  0  0  0  0  0  0  0  0
    5.8061  -11.2749   25.8977 C   0  0  0  0  0  0  0  0  0  0  0  0
    6.3863  -13.6252   25.6513 C   0  0  0  0  0  0  0  0  0  0  0  0
    7.3644  -14.7443   25.9395 C   0  0  2  0  0  0  0  0  0  0  0  0
    8.6184  -14.1580   26.3476 N   0  0  0  0  0  0  0  0  0  0  0  0
    7.5741  -15.4706   24.6593 C   0  0  0  0  0  0  0  0  0  0  0  0
    6.6058  -16.0355   24.0949 O   0  0  0  0  0  0  0  0  0  0  0  0
    8.8368  -15.5333   24.0741 N   0  0  0  0  0  0  0  0  0  0  0  0
    8.9707  -16.4100   22.8497 C   0  0  1  0  0  0  0  0  0  0  0  0
    9.4727  -15.4172   21.8388 C   0  0  0  0  0  0  0  0  0  0  0  0
    8.5225  -14.6368   21.0736 C   0  0  0  0  0  0  0  0  0  0  0  0
    7.1630  -14.6778   21.0921 C   0  0  0  0  0  0  0  0  0  0  0  0
    6.7362  -13.6845   20.2575 N   0  0  0  0  0  0  0  0  0  0  0  0
    7.8081  -13.0626   19.7523 C   0  0  0  0  0  0  0  0  0  0  0  0
    8.9022  -13.6210   20.2318 N   0  0  0  0  0  0  0  0  0  0  0  0
   10.0688  -17.3601   23.2599 C   0  0  0  0  0  0  0  0  0  0  0  0
   10.5652  -18.1088   22.3271 O   0  0  0  0  0  0  0  0  0  0  0  0
   10.6102  -17.5146   24.5408 N   0  0  0  0  0  0  0  0  0  0  0  0
   11.7051  -18.4800   24.7537 C   0  0  0  0  0  0  0  0  0  0  0  0
   11.2756  -19.5185   25.7166 C   0  0  0  0  0  0  0  0  0  0  0  0
   12.2131  -20.3054   26.3859 O   0  0  0  0  0  0  0  0  0  0  0  0
   10.0561  -19.6564   25.8999 O   0  0  0  0  0  0  0  0  0  0  0  0
  2  1  1  1
  2  3  1  0
  4  2  1  0
  4  5  1  0
  5  7  1  0
  5  6  1  6
  7  8  2  0
  9  7  1  0
  9 10  1  0
 11 12  1  0
 10 11  1  6
 12 16  1  0
 13 14  1  0
 13 12  2  0
 14 15  1  0
 15 16  2  0
 17 10  1  0
 17 19  1  0
 18 17  2  0
 20 19  1  0
 20 21  1  0
 21 22  1  0
 23 21  2  0
M  END
$$$$
