LHG.pdb
     RDKit          3D

 23 23  0  0  1  0  0  0  0  0999 V2000
    6.3958  -11.7554   26.6344 C   0  0  0  0  0  0  0  0  0  0  0  0
    7.2419  -12.8796   26.0853 C   0  0  2  0  0  0  0  0  0  0  0  0
    8.6858  -12.4536   25.8872 C   0  0  0  0  0  0  0  0  0  0  0  0
    6.6980  -13.2594   24.7381 C   0  0  0  0  0  0  0  0  0  0  0  0
    7.4110  -14.4605   24.1540 C   0  0  2  0  0  0  0  0  0  0  0  0
    6.8247  -14.7566   22.8689 N   0  0  0  0  0  0  0  0  0  0  0  0
    7.1488  -15.6019   25.0698 C   0  0  0  0  0  0  0  0  0  0  0  0
    5.9727  -16.0008   25.2512 O   0  0  0  0  0  0  0  0  0  0  0  0
    8.1956  -16.2384   25.7332 N   0  0  0  0  0  0  0  0  0  0  0  0
    7.8294  -17.4363   26.5795 C   0  0  1  0  0  0  0  0  0  0  0  0
    7.7611  -18.5157   25.5355 C   0  0  0  0  0  0  0  0  0  0  0  0
    7.4816  -19.8789   25.9369 C   0  0  0  0  0  0  0  0  0  0  0  0
    7.0363  -20.3491   27.1332 C   0  0  0  0  0  0  0  0  0  0  0  0
    6.8471  -21.6922   26.9729 N   0  0  0  0  0  0  0  0  0  0  0  0
    7.1680  -22.0206   25.7159 C   0  0  0  0  0  0  0  0  0  0  0  0
    7.5550  -20.9392   25.0681 N   0  0  0  0  0  0  0  0  0  0  0  0
    9.0565  -17.6009   27.4420 C   0  0  0  0  0  0  0  0  0  0  0  0
   10.1971  -17.3595   26.8783 O   0  0  0  0  0  0  0  0  0  0  0  0
    9.0918  -17.9829   28.7875 N   0  0  0  0  0  0  0  0  0  0  0  0
   10.3918  -18.0937   29.4760 C   0  0  0  0  0  0  0  0  0  0  0  0
   10.7972  -19.5150   29.5527 C   0  0  0  0  0  0  0  0  0  0  0  0
   11.8451  -19.9165   30.3813 O   0  0  0  0  0  0  0  0  0  0  0  0
   10.1691  -20.3254   28.8536 O   0  0  0  0  0  0  0  0  0  0  0  0
  2  1  1  6
  2  3  1  0
  4  2  1  0
  4  5  1  0
  5  7  1  0
  5  6  1  6
  7  8  2  0
  9  7  1  0
  9 10  1  0
 11 12  1  0
 10 11  1  6
 12 16  1  0
 13 14  1  0
 13 12  2  0
 14 15  1  0
 15 16  2  0
 17 10  1  0
 17 19  1  0
 18 17  2  0
 20 19  1  0
 20 21  1  0
 21 22  1  0
 23 21  2  0
M  END
$$$$
