LHG.pdb
     RDKit          3D

 23 23  0  0  1  0  0  0  0  0999 V2000
    6.9151  -12.1679   24.7487 C   0  0  0  0  0  0  0  0  0  0  0  0
    6.5500  -12.9486   25.9890 C   0  0  2  0  0  0  0  0  0  0  0  0
    6.8413  -12.1635   27.2556 C   0  0  0  0  0  0  0  0  0  0  0  0
    7.3952  -14.1893   26.0266 C   0  0  0  0  0  0  0  0  0  0  0  0
    7.1688  -15.0697   24.8158 C   0  0  2  0  0  0  0  0  0  0  0  0
    5.8562  -15.6599   24.9221 N   0  0  0  0  0  0  0  0  0  0  0  0
    8.1837  -16.1543   24.8787 C   0  0  0  0  0  0  0  0  0  0  0  0
    7.9957  -17.1440   25.6273 O   0  0  0  0  0  0  0  0  0  0  0  0
    9.3466  -16.0873   24.1144 N   0  0  0  0  0  0  0  0  0  0  0  0
   10.2941  -17.2604   24.2227 C   0  0  1  0  0  0  0  0  0  0  0  0
   11.0435  -17.1453   22.9247 C   0  0  0  0  0  0  0  0  0  0  0  0
   10.3801  -17.4940   21.6854 C   0  0  0  0  0  0  0  0  0  0  0  0
    9.5110  -18.5092   21.4311 C   0  0  0  0  0  0  0  0  0  0  0  0
    9.1033  -18.3522   20.1371 N   0  0  0  0  0  0  0  0  0  0  0  0
    9.7084  -17.2728   19.6277 C   0  0  0  0  0  0  0  0  0  0  0  0
   10.4869  -16.7353   20.5463 N   0  0  0  0  0  0  0  0  0  0  0  0
   11.1675  -16.8548   25.3843 C   0  0  0  0  0  0  0  0  0  0  0  0
   12.1262  -16.0236   25.1255 O   0  0  0  0  0  0  0  0  0  0  0  0
   11.0485  -17.2789   26.7123 N   0  0  0  0  0  0  0  0  0  0  0  0
   10.9643  -18.7216   27.0083 C   0  0  0  0  0  0  0  0  0  0  0  0
   12.2710  -19.2070   27.5053 C   0  0  0  0  0  0  0  0  0  0  0  0
   12.3807  -19.8105   28.7581 O   0  0  0  0  0  0  0  0  0  0  0  0
   13.2549  -19.0545   26.7645 O   0  0  0  0  0  0  0  0  0  0  0  0
  2  1  1  6
  2  3  1  0
  4  2  1  0
  4  5  1  0
  5  7  1  0
  5  6  1  1
  7  8  2  0
  9  7  1  0
  9 10  1  0
 11 12  1  0
 10 11  1  6
 12 16  1  0
 13 14  1  0
 13 12  2  0
 14 15  1  0
 15 16  2  0
 17 10  1  0
 17 19  1  0
 18 17  2  0
 20 19  1  0
 20 21  1  0
 21 22  1  0
 23 21  2  0
M  END
$$$$
