LHG.pdb
     RDKit          3D

 23 23  0  0  1  0  0  0  0  0999 V2000
    6.6904  -12.1716   24.4108 C   0  0  0  0  0  0  0  0  0  0  0  0
    6.2116  -12.6046   25.7762 C   0  0  2  0  0  0  0  0  0  0  0  0
    6.1938  -11.4485   26.7603 C   0  0  0  0  0  0  0  0  0  0  0  0
    7.1732  -13.6292   26.3061 C   0  0  0  0  0  0  0  0  0  0  0  0
    7.2185  -14.8698   25.4395 C   0  0  2  0  0  0  0  0  0  0  0  0
    6.2261  -15.7990   25.9238 N   0  0  0  0  0  0  0  0  0  0  0  0
    8.5645  -15.4732   25.6248 C   0  0  0  0  0  0  0  0  0  0  0  0
    9.1811  -15.3067   26.7052 O   0  0  0  0  0  0  0  0  0  0  0  0
    9.1542  -16.2249   24.6108 N   0  0  0  0  0  0  0  0  0  0  0  0
   10.5220  -16.7984   24.9040 C   0  0  1  0  0  0  0  0  0  0  0  0
   10.2115  -18.2682   24.9590 C   0  0  0  0  0  0  0  0  0  0  0  0
    9.6551  -18.8342   26.1704 C   0  0  0  0  0  0  0  0  0  0  0  0
    9.8730  -18.4783   27.4651 C   0  0  0  0  0  0  0  0  0  0  0  0
    9.0455  -19.2568   28.2232 N   0  0  0  0  0  0  0  0  0  0  0  0
    8.3487  -20.0572   27.4080 C   0  0  0  0  0  0  0  0  0  0  0  0
    8.6997  -19.8200   26.1593 N   0  0  0  0  0  0  0  0  0  0  0  0
   11.2835  -16.4576   23.6468 C   0  0  0  0  0  0  0  0  0  0  0  0
   10.9095  -17.0585   22.5622 O   0  0  0  0  0  0  0  0  0  0  0  0
   12.3485  -15.5579   23.5282 N   0  0  0  0  0  0  0  0  0  0  0  0
   13.6045  -15.8209   24.2557 C   0  0  0  0  0  0  0  0  0  0  0  0
   14.5697  -16.4952   23.3590 C   0  0  0  0  0  0  0  0  0  0  0  0
   14.9515  -17.8180   23.5836 O   0  0  0  0  0  0  0  0  0  0  0  0
   15.0195  -15.8373   22.4078 O   0  0  0  0  0  0  0  0  0  0  0  0
  2  1  1  6
  2  3  1  0
  4  2  1  0
  4  5  1  0
  5  7  1  0
  5  6  1  1
  7  8  2  0
  9  7  1  0
  9 10  1  0
 11 12  1  0
 10 11  1  6
 12 16  1  0
 13 14  1  0
 13 12  2  0
 14 15  1  0
 15 16  2  0
 17 10  1  0
 17 19  1  0
 18 17  2  0
 20 19  1  0
 20 21  1  0
 21 22  1  0
 23 21  2  0
M  END
$$$$
