LHG.pdb
     RDKit          3D

 23 23  0  0  1  0  0  0  0  0999 V2000
    8.2598  -12.1124   19.3510 C   0  0  0  0  0  0  0  0  0  0  0  0
    7.9632  -13.5281   19.7857 C   0  0  2  0  0  0  0  0  0  0  0  0
    7.3767  -13.5770   21.1854 C   0  0  0  0  0  0  0  0  0  0  0  0
    9.2574  -14.2893   19.8155 C   0  0  0  0  0  0  0  0  0  0  0  0
    9.8900  -14.3911   18.4437 C   0  0  2  0  0  0  0  0  0  0  0  0
    9.0232  -15.1790   17.6008 N   0  0  0  0  0  0  0  0  0  0  0  0
   11.1744  -15.1195   18.6170 C   0  0  0  0  0  0  0  0  0  0  0  0
   11.1988  -16.3719   18.5371 O   0  0  0  0  0  0  0  0  0  0  0  0
   12.3576  -14.4282   18.8681 N   0  0  0  0  0  0  0  0  0  0  0  0
   13.6083  -15.2637   19.0203 C   0  0  1  0  0  0  0  0  0  0  0  0
   14.5808  -14.4803   18.1834 C   0  0  0  0  0  0  0  0  0  0  0  0
   14.9819  -14.9928   16.8896 C   0  0  0  0  0  0  0  0  0  0  0  0
   14.4612  -14.7290   15.6609 C   0  0  0  0  0  0  0  0  0  0  0  0
   15.2478  -15.3881   14.7596 N   0  0  0  0  0  0  0  0  0  0  0  0
   16.2149  -16.0289   15.4266 C   0  0  0  0  0  0  0  0  0  0  0  0
   16.0756  -15.8047   16.7186 N   0  0  0  0  0  0  0  0  0  0  0  0
   13.9164  -15.1067   20.4890 C   0  0  0  0  0  0  0  0  0  0  0  0
   14.1284  -13.9006   20.9106 O   0  0  0  0  0  0  0  0  0  0  0  0
   13.9931  -16.1259   21.4444 N   0  0  0  0  0  0  0  0  0  0  0  0
   14.3153  -15.7861   22.8432 C   0  0  0  0  0  0  0  0  0  0  0  0
   14.3244  -17.0157   23.6669 C   0  0  0  0  0  0  0  0  0  0  0  0
   13.5237  -17.1208   24.8044 O   0  0  0  0  0  0  0  0  0  0  0  0
   15.0690  -17.9395   23.3037 O   0  0  0  0  0  0  0  0  0  0  0  0
  2  1  1  1
  2  3  1  0
  4  2  1  0
  4  5  1  0
  5  7  1  0
  5  6  1  6
  7  8  2  0
  9  7  1  0
  9 10  1  0
 11 12  1  0
 10 11  1  6
 12 16  1  0
 13 14  1  0
 13 12  2  0
 14 15  1  0
 15 16  2  0
 17 10  1  0
 17 19  1  0
 18 17  2  0
 20 19  1  0
 20 21  1  0
 21 22  1  0
 23 21  2  0
M  END
$$$$
