LHG.pdb
     RDKit          3D

 23 23  0  0  1  0  0  0  0  0999 V2000
    7.4918  -12.5171   27.5928 C   0  0  0  0  0  0  0  0  0  0  0  0
    6.9547  -12.3366   26.1927 C   0  0  2  0  0  0  0  0  0  0  0  0
    5.7055  -11.4737   26.1749 C   0  0  0  0  0  0  0  0  0  0  0  0
    6.5734  -13.6879   25.6600 C   0  0  0  0  0  0  0  0  0  0  0  0
    7.7088  -14.6836   25.7674 C   0  0  2  0  0  0  0  0  0  0  0  0
    8.9557  -13.9619   25.6833 N   0  0  0  0  0  0  0  0  0  0  0  0
    7.6015  -15.5848   24.5898 C   0  0  0  0  0  0  0  0  0  0  0  0
    6.5161  -16.1649   24.3431 O   0  0  0  0  0  0  0  0  0  0  0  0
    8.6943  -15.7956   23.7517 N   0  0  0  0  0  0  0  0  0  0  0  0
    8.4937  -16.7695   22.6130 C   0  0  1  0  0  0  0  0  0  0  0  0
    9.0103  -15.9653   21.4527 C   0  0  0  0  0  0  0  0  0  0  0  0
    8.2641  -14.8105   20.9976 C   0  0  0  0  0  0  0  0  0  0  0  0
    6.9214  -14.6626   20.8370 C   0  0  0  0  0  0  0  0  0  0  0  0
    6.7178  -13.3618   20.4739 N   0  0  0  0  0  0  0  0  0  0  0  0
    7.9037  -12.7443   20.4188 C   0  0  0  0  0  0  0  0  0  0  0  0
    8.8561  -13.6007   20.7323 N   0  0  0  0  0  0  0  0  0  0  0  0
    9.4560  -17.8755   22.9700 C   0  0  0  0  0  0  0  0  0  0  0  0
    9.7512  -18.7130   22.0273 O   0  0  0  0  0  0  0  0  0  0  0  0
   10.0661  -18.0895   24.2108 N   0  0  0  0  0  0  0  0  0  0  0  0
   10.9842  -19.2317   24.3802 C   0  0  0  0  0  0  0  0  0  0  0  0
   11.5735  -19.2023   25.7375 C   0  0  0  0  0  0  0  0  0  0  0  0
   12.5730  -20.1040   26.1033 O   0  0  0  0  0  0  0  0  0  0  0  0
   11.1426  -18.3478   26.5274 O   0  0  0  0  0  0  0  0  0  0  0  0
  2  1  1  1
  2  3  1  0
  4  2  1  0
  4  5  1  0
  5  7  1  0
  5  6  1  6
  7  8  2  0
  9  7  1  0
  9 10  1  0
 11 12  1  0
 10 11  1  6
 12 16  1  0
 13 14  1  0
 13 12  2  0
 14 15  1  0
 15 16  2  0
 17 10  1  0
 17 19  1  0
 18 17  2  0
 20 19  1  0
 20 21  1  0
 21 22  1  0
 23 21  2  0
M  END
$$$$
