LHG.pdb
     RDKit          3D

 23 23  0  0  1  0  0  0  0  0999 V2000
    6.0992  -12.0940   27.7261 C   0  0  0  0  0  0  0  0  0  0  0  0
    6.8962  -12.0800   26.4432 C   0  0  2  0  0  0  0  0  0  0  0  0
    6.6035  -10.8441   25.6111 C   0  0  0  0  0  0  0  0  0  0  0  0
    6.4920  -13.2748   25.6282 C   0  0  0  0  0  0  0  0  0  0  0  0
    7.2567  -14.5199   26.0249 C   0  0  2  0  0  0  0  0  0  0  0  0
    8.5171  -14.1154   26.5997 N   0  0  0  0  0  0  0  0  0  0  0  0
    7.5262  -15.2745   24.7726 C   0  0  0  0  0  0  0  0  0  0  0  0
    6.5748  -15.7864   24.1338 O   0  0  0  0  0  0  0  0  0  0  0  0
    8.8268  -15.4223   24.2955 N   0  0  0  0  0  0  0  0  0  0  0  0
    9.0035  -16.3009   23.0781 C   0  0  1  0  0  0  0  0  0  0  0  0
    9.5544  -15.3129   22.0881 C   0  0  0  0  0  0  0  0  0  0  0  0
    8.6434  -14.5520   21.2584 C   0  0  0  0  0  0  0  0  0  0  0  0
    7.2849  -14.5980   21.2065 C   0  0  0  0  0  0  0  0  0  0  0  0
    6.8995  -13.6235   20.3306 N   0  0  0  0  0  0  0  0  0  0  0  0
    7.9946  -13.0077   19.8697 C   0  0  0  0  0  0  0  0  0  0  0  0
    9.0637  -13.5519   20.4171 N   0  0  0  0  0  0  0  0  0  0  0  0
   10.0763  -17.2594   23.5332 C   0  0  0  0  0  0  0  0  0  0  0  0
   10.5990  -18.0182   22.6232 O   0  0  0  0  0  0  0  0  0  0  0  0
   10.5687  -17.4122   24.8339 N   0  0  0  0  0  0  0  0  0  0  0  0
   11.5830  -18.4476   25.1084 C   0  0  0  0  0  0  0  0  0  0  0  0
   11.0470  -19.4274   26.0794 C   0  0  0  0  0  0  0  0  0  0  0  0
    9.9035  -20.1714   25.7880 O   0  0  0  0  0  0  0  0  0  0  0  0
   11.6545  -19.5559   27.1538 O   0  0  0  0  0  0  0  0  0  0  0  0
  2  1  1  1
  2  3  1  0
  4  2  1  0
  4  5  1  0
  5  7  1  0
  5  6  1  6
  7  8  2  0
  9  7  1  0
  9 10  1  0
 11 12  1  0
 10 11  1  6
 12 16  1  0
 13 14  1  0
 13 12  2  0
 14 15  1  0
 15 16  2  0
 17 10  1  0
 17 19  1  0
 18 17  2  0
 20 19  1  0
 20 21  1  0
 21 22  1  0
 23 21  2  0
M  END
$$$$
