VWH.pdb
     RDKit          3D

 32 34  0  0  1  0  0  0  0  0999 V2000
    9.3648  -14.9677   18.8651 C   0  0  0  0  0  0  0  0  0  0  0  0
    8.0280  -15.6266   19.1877 C   0  0  2  0  0  0  0  0  0  0  0  0
    7.2025  -15.7955   17.9301 C   0  0  0  0  0  0  0  0  0  0  0  0
    7.3012  -14.9110   20.2787 C   0  0  2  0  0  0  0  0  0  0  0  0
    6.9265  -13.6012   19.7883 N   0  0  0  0  0  0  0  0  0  0  0  0
    8.0809  -14.7457   21.5202 C   0  0  0  0  0  0  0  0  0  0  0  0
    8.7514  -13.6934   21.7019 O   0  0  0  0  0  0  0  0  0  0  0  0
    8.0964  -15.7436   22.5198 N   0  0  0  0  0  0  0  0  0  0  0  0
    8.9454  -15.6425   23.7305 C   0  0  1  0  0  0  0  0  0  0  0  0
    8.1273  -16.0013   24.8973 C   0  0  0  0  0  0  0  0  0  0  0  0
    7.1405  -15.0836   25.4206 C   0  0  0  0  0  0  0  0  0  0  0  0
    5.7988  -15.2804   25.6588 C   0  0  0  0  0  0  0  0  0  0  0  0
    5.2986  -14.1446   26.1495 N   0  0  0  0  0  0  0  0  0  0  0  0
    6.2505  -13.2249   26.2402 C   0  0  0  0  0  0  0  0  0  0  0  0
    6.2384  -11.8992   26.7007 C   0  0  0  0  0  0  0  0  0  0  0  0
    7.3884  -11.1304   26.7123 C   0  0  0  0  0  0  0  0  0  0  0  0
    8.5547  -11.6921   26.2604 C   0  0  0  0  0  0  0  0  0  0  0  0
    8.5597  -12.9895   25.8109 C   0  0  0  0  0  0  0  0  0  0  0  0
    7.4253  -13.7791   25.7892 C   0  0  0  0  0  0  0  0  0  0  0  0
   10.2228  -16.2904   23.5114 C   0  0  0  0  0  0  0  0  0  0  0  0
   10.2660  -17.5038   23.0885 O   0  0  0  0  0  0  0  0  0  0  0  0
   11.4861  -15.6864   23.7187 N   0  0  0  0  0  0  0  0  0  0  0  0
   12.7167  -16.4768   23.4807 C   0  0  1  0  0  0  0  0  0  0  0  0
   13.9014  -15.5081   23.5710 C   0  0  0  0  0  0  0  0  0  0  0  0
   15.1459  -16.2446   23.2844 C   0  0  0  0  0  0  0  0  0  0  0  0
   15.1957  -17.6102   22.9384 C   0  0  0  0  0  0  0  0  0  0  0  0
   16.4676  -17.9562   22.7456 N   0  0  0  0  0  0  0  0  0  0  0  0
   17.2394  -16.8905   22.9480 C   0  0  0  0  0  0  0  0  0  0  0  0
   16.4357  -15.8837   23.2672 N   0  0  0  0  0  0  0  0  0  0  0  0
   12.8682  -17.4287   24.6061 C   0  0  0  0  0  0  0  0  0  0  0  0
   12.3285  -17.1079   25.8772 O   0  0  0  0  0  0  0  0  0  0  0  0
   13.4453  -18.5339   24.5674 O   0  0  0  0  0  0  0  0  0  0  0  0
  2  1  1  6
  2  3  1  0
  4  2  1  0
  4  5  1  6
  6  4  1  0
  6  7  2  0
  8  6  1  0
  9 10  1  1
  9  8  1  0
 11 10  1  0
 11 12  2  0
 13 12  1  0
 14 13  1  0
 15 14  2  0
 16 15  1  0
 17 16  2  0
 17 18  1  0
 18 19  2  0
 19 14  1  0
 19 11  1  0
 20  9  1  0
 21 20  2  0
 22 20  1  0
 23 24  1  1
 23 22  1  0
 24 25  1  0
 25 29  1  0
 26 25  2  0
 26 27  1  0
 27 28  1  0
 29 28  2  0
 30 31  1  0
 30 23  1  0
 32 30  2  0
M  END
$$$$
