VWH.pdb
     RDKit          3D

 32 34  0  0  1  0  0  0  0  0999 V2000
    8.4694  -19.5905   19.5561 C   0  0  0  0  0  0  0  0  0  0  0  0
    7.5679  -18.4960   18.9952 C   0  0  2  0  0  0  0  0  0  0  0  0
    6.8989  -18.9614   17.7195 C   0  0  0  0  0  0  0  0  0  0  0  0
    8.2926  -17.1991   18.8420 C   0  0  2  0  0  0  0  0  0  0  0  0
    9.3644  -17.3906   17.8876 N   0  0  0  0  0  0  0  0  0  0  0  0
    8.8646  -16.6720   20.0956 C   0  0  0  0  0  0  0  0  0  0  0  0
   10.0538  -16.9527   20.4067 O   0  0  0  0  0  0  0  0  0  0  0  0
    8.1088  -15.8540   20.9644 N   0  0  0  0  0  0  0  0  0  0  0  0
    8.6477  -15.3488   22.2495 C   0  0  1  0  0  0  0  0  0  0  0  0
    7.8539  -14.1801   22.6535 C   0  0  0  0  0  0  0  0  0  0  0  0
    8.1976  -13.4243   23.8370 C   0  0  0  0  0  0  0  0  0  0  0  0
    9.3276  -12.6863   24.1091 C   0  0  0  0  0  0  0  0  0  0  0  0
    9.1919  -12.1635   25.3294 N   0  0  0  0  0  0  0  0  0  0  0  0
    8.0307  -12.5271   25.8583 C   0  0  0  0  0  0  0  0  0  0  0  0
    7.4228  -12.2328   27.0886 C   0  0  0  0  0  0  0  0  0  0  0  0
    6.1715  -12.7274   27.4101 C   0  0  0  0  0  0  0  0  0  0  0  0
    5.5273  -13.5202   26.4956 C   0  0  0  0  0  0  0  0  0  0  0  0
    6.1277  -13.8046   25.2938 C   0  0  0  0  0  0  0  0  0  0  0  0
    7.3763  -13.3229   24.9477 C   0  0  0  0  0  0  0  0  0  0  0  0
    8.8570  -16.4415   23.1778 C   0  0  0  0  0  0  0  0  0  0  0  0
    8.5062  -17.6361   22.8570 O   0  0  0  0  0  0  0  0  0  0  0  0
    9.4453  -16.3173   24.4592 N   0  0  0  0  0  0  0  0  0  0  0  0
   10.2144  -17.4538   25.0184 C   0  0  1  0  0  0  0  0  0  0  0  0
   11.4690  -17.6207   24.1532 C   0  0  0  0  0  0  0  0  0  0  0  0
   11.2463  -18.7162   23.1921 C   0  0  0  0  0  0  0  0  0  0  0  0
   10.0459  -19.4480   23.0903 C   0  0  0  0  0  0  0  0  0  0  0  0
   10.1801  -20.3574   22.1261 N   0  0  0  0  0  0  0  0  0  0  0  0
   11.3992  -20.2523   21.6015 C   0  0  0  0  0  0  0  0  0  0  0  0
   12.0172  -19.2717   22.2481 N   0  0  0  0  0  0  0  0  0  0  0  0
   10.6860  -17.0613   26.3672 C   0  0  0  0  0  0  0  0  0  0  0  0
   11.4094  -17.9895   27.1578 O   0  0  0  0  0  0  0  0  0  0  0  0
   10.5115  -15.9564   26.9192 O   0  0  0  0  0  0  0  0  0  0  0  0
  2  1  1  6
  2  3  1  0
  4  2  1  0
  4  5  1  6
  6  4  1  0
  6  7  2  0
  8  6  1  0
  9 10  1  1
  9  8  1  0
 11 10  1  0
 11 12  2  0
 13 12  1  0
 14 13  1  0
 15 14  2  0
 16 15  1  0
 17 16  2  0
 17 18  1  0
 18 19  2  0
 19 14  1  0
 19 11  1  0
 20  9  1  0
 21 20  2  0
 22 20  1  0
 23 24  1  6
 23 22  1  0
 24 25  1  0
 25 29  1  0
 26 25  2  0
 26 27  1  0
 27 28  1  0
 29 28  2  0
 30 31  1  0
 30 23  1  0
 32 30  2  0
M  END
$$$$
