VWH.pdb
     RDKit          3D

 32 34  0  0  1  0  0  0  0  0999 V2000
    9.2775  -16.9904   19.7664 C   0  0  0  0  0  0  0  0  0  0  0  0
    7.8590  -17.2856   20.2417 C   0  0  2  0  0  0  0  0  0  0  0  0
    6.9867  -17.7076   19.0788 C   0  0  0  0  0  0  0  0  0  0  0  0
    7.2861  -16.1525   21.0281 C   0  0  2  0  0  0  0  0  0  0  0  0
    7.1020  -15.0292   20.1333 N   0  0  0  0  0  0  0  0  0  0  0  0
    8.1209  -15.7195   22.1648 C   0  0  0  0  0  0  0  0  0  0  0  0
    8.8082  -14.6666   22.0704 O   0  0  0  0  0  0  0  0  0  0  0  0
    8.1715  -16.4597   23.3668 N   0  0  0  0  0  0  0  0  0  0  0  0
    9.1181  -16.1355   24.4604 C   0  0  1  0  0  0  0  0  0  0  0  0
    8.3623  -16.0709   25.7189 C   0  0  0  0  0  0  0  0  0  0  0  0
    7.3212  -15.0858   25.9081 C   0  0  0  0  0  0  0  0  0  0  0  0
    5.9534  -15.2346   25.8587 C   0  0  0  0  0  0  0  0  0  0  0  0
    5.4023  -14.0439   26.1025 N   0  0  0  0  0  0  0  0  0  0  0  0
    6.3463  -13.1342   26.3071 C   0  0  0  0  0  0  0  0  0  0  0  0
    6.2851  -11.7654   26.6111 C   0  0  0  0  0  0  0  0  0  0  0  0
    7.4336  -11.0176   26.7994 C   0  0  0  0  0  0  0  0  0  0  0  0
    8.6478  -11.6436   26.6822 C   0  0  0  0  0  0  0  0  0  0  0  0
    8.7007  -12.9830   26.3842 C   0  0  0  0  0  0  0  0  0  0  0  0
    7.5688  -13.7529   26.1919 C   0  0  0  0  0  0  0  0  0  0  0  0
   10.3050  -16.9613   24.3669 C   0  0  0  0  0  0  0  0  0  0  0  0
   10.2028  -18.2426   24.3946 O   0  0  0  0  0  0  0  0  0  0  0  0
   11.6265  -16.4720   24.2328 N   0  0  0  0  0  0  0  0  0  0  0  0
   12.7621  -17.4220   24.2917 C   0  0  1  0  0  0  0  0  0  0  0  0
   14.0036  -16.6751   23.7907 C   0  0  0  0  0  0  0  0  0  0  0  0
   13.8154  -16.3316   22.3694 C   0  0  0  0  0  0  0  0  0  0  0  0
   12.9797  -17.0451   21.4866 C   0  0  0  0  0  0  0  0  0  0  0  0
   13.0379  -16.4718   20.2855 N   0  0  0  0  0  0  0  0  0  0  0  0
   13.8640  -15.4295   20.3453 C   0  0  0  0  0  0  0  0  0  0  0  0
   14.3157  -15.3628   21.5915 N   0  0  0  0  0  0  0  0  0  0  0  0
   13.0126  -17.7404   25.7170 C   0  0  0  0  0  0  0  0  0  0  0  0
   14.0716  -18.6154   26.0674 O   0  0  0  0  0  0  0  0  0  0  0  0
   12.3688  -17.3104   26.6951 O   0  0  0  0  0  0  0  0  0  0  0  0
  2  1  1  6
  2  3  1  0
  4  2  1  0
  4  5  1  6
  6  4  1  0
  6  7  2  0
  8  6  1  0
  9 10  1  1
  9  8  1  0
 11 10  1  0
 11 12  2  0
 13 12  1  0
 14 13  1  0
 15 14  2  0
 16 15  1  0
 17 16  2  0
 17 18  1  0
 18 19  2  0
 19 14  1  0
 19 11  1  0
 20  9  1  0
 21 20  2  0
 22 20  1  0
 23 24  1  1
 23 22  1  0
 24 25  1  0
 25 29  1  0
 26 25  2  0
 26 27  1  0
 27 28  1  0
 29 28  2  0
 30 31  1  0
 30 23  1  0
 32 30  2  0
M  END
$$$$
