VWH.pdb
     RDKit          3D

 32 34  0  0  1  0  0  0  0  0999 V2000
    6.5710  -13.5986   19.1515 C   0  0  0  0  0  0  0  0  0  0  0  0
    7.4838  -13.5840   20.3729 C   0  0  2  0  0  0  0  0  0  0  0  0
    8.4265  -12.4009   20.3167 C   0  0  0  0  0  0  0  0  0  0  0  0
    8.1855  -14.8888   20.5617 C   0  0  2  0  0  0  0  0  0  0  0  0
    7.1858  -15.9342   20.6249 N   0  0  0  0  0  0  0  0  0  0  0  0
    9.0199  -14.9587   21.7763 C   0  0  0  0  0  0  0  0  0  0  0  0
   10.0720  -14.2679   21.8526 O   0  0  0  0  0  0  0  0  0  0  0  0
    8.6687  -15.7863   22.8658 N   0  0  0  0  0  0  0  0  0  0  0  0
    9.4675  -15.8392   24.1133 C   0  0  1  0  0  0  0  0  0  0  0  0
    8.5488  -16.0607   25.2386 C   0  0  0  0  0  0  0  0  0  0  0  0
    7.4687  -15.1378   25.5059 C   0  0  0  0  0  0  0  0  0  0  0  0
    6.1080  -15.3376   25.4415 C   0  0  0  0  0  0  0  0  0  0  0  0
    5.5092  -14.1944   25.7812 N   0  0  0  0  0  0  0  0  0  0  0  0
    6.4155  -13.2669   26.0619 C   0  0  0  0  0  0  0  0  0  0  0  0
    6.2989  -11.9314   26.4772 C   0  0  0  0  0  0  0  0  0  0  0  0
    7.4162  -11.1554   26.7288 C   0  0  0  0  0  0  0  0  0  0  0  0
    8.6547  -11.7197   26.5631 C   0  0  0  0  0  0  0  0  0  0  0  0
    8.7619  -13.0268   26.1562 C   0  0  0  0  0  0  0  0  0  0  0  0
    7.6621  -13.8237   25.8988 C   0  0  0  0  0  0  0  0  0  0  0  0
   10.6245  -16.6942   23.9403 C   0  0  0  0  0  0  0  0  0  0  0  0
   11.0606  -16.9578   22.7600 O   0  0  0  0  0  0  0  0  0  0  0  0
   11.3607  -17.2875   24.9938 N   0  0  0  0  0  0  0  0  0  0  0  0
   12.7685  -17.6870   24.7606 C   0  0  1  0  0  0  0  0  0  0  0  0
   13.5930  -16.3989   24.6547 C   0  0  0  0  0  0  0  0  0  0  0  0
   13.8350  -16.1002   23.2314 C   0  0  0  0  0  0  0  0  0  0  0  0
   12.9181  -16.3779   22.1974 C   0  0  0  0  0  0  0  0  0  0  0  0
   13.4466  -15.9831   21.0400 N   0  0  0  0  0  0  0  0  0  0  0  0
   14.6519  -15.4669   21.2707 C   0  0  0  0  0  0  0  0  0  0  0  0
   14.8645  -15.5456   22.5784 N   0  0  0  0  0  0  0  0  0  0  0  0
   13.2463  -18.3906   25.9740 C   0  0  0  0  0  0  0  0  0  0  0  0
   14.5529  -18.9400   26.0007 O   0  0  0  0  0  0  0  0  0  0  0  0
   12.6026  -18.5684   27.0276 O   0  0  0  0  0  0  0  0  0  0  0  0
  2  1  1  6
  2  3  1  0
  4  2  1  0
  4  5  1  1
  6  4  1  0
  6  7  2  0
  8  6  1  0
  9 10  1  1
  9  8  1  0
 11 10  1  0
 11 12  2  0
 13 12  1  0
 14 13  1  0
 15 14  2  0
 16 15  1  0
 17 16  2  0
 17 18  1  0
 18 19  2  0
 19 14  1  0
 19 11  1  0
 20  9  1  0
 21 20  2  0
 22 20  1  0
 23 24  1  1
 23 22  1  0
 24 25  1  0
 25 29  1  0
 26 25  2  0
 26 27  1  0
 27 28  1  0
 29 28  2  0
 30 31  1  0
 30 23  1  0
 32 30  2  0
M  END
$$$$
