VWH.pdb
     RDKit          3D

 32 34  0  0  1  0  0  0  0  0999 V2000
   11.2791  -19.4654   19.5556 C   0  0  0  0  0  0  0  0  0  0  0  0
   11.2041  -18.9823   21.0000 C   0  0  2  0  0  0  0  0  0  0  0  0
   10.6071  -20.0536   21.8874 C   0  0  0  0  0  0  0  0  0  0  0  0
   10.5073  -17.6663   21.1136 C   0  0  2  0  0  0  0  0  0  0  0  0
   11.2164  -16.7073   20.2928 N   0  0  0  0  0  0  0  0  0  0  0  0
   10.4240  -17.1407   22.4896 C   0  0  0  0  0  0  0  0  0  0  0  0
   11.4436  -16.6282   23.0258 O   0  0  0  0  0  0  0  0  0  0  0  0
    9.2218  -17.1968   23.2290 N   0  0  0  0  0  0  0  0  0  0  0  0
    9.1293  -16.7279   24.6321 C   0  0  1  0  0  0  0  0  0  0  0  0
    7.7627  -16.2404   24.8650 C   0  0  0  0  0  0  0  0  0  0  0  0
    7.3741  -14.9062   24.4665 C   0  0  0  0  0  0  0  0  0  0  0  0
    7.0274  -14.4282   23.2227 C   0  0  0  0  0  0  0  0  0  0  0  0
    6.7404  -13.1309   23.3474 N   0  0  0  0  0  0  0  0  0  0  0  0
    6.8844  -12.7479   24.6095 C   0  0  0  0  0  0  0  0  0  0  0  0
    6.6914  -11.5124   25.2466 C   0  0  0  0  0  0  0  0  0  0  0  0
    6.8944  -11.3642   26.6070 C   0  0  0  0  0  0  0  0  0  0  0  0
    7.2926  -12.4581   27.3314 C   0  0  0  0  0  0  0  0  0  0  0  0
    7.4799  -13.6640   26.7019 C   0  0  0  0  0  0  0  0  0  0  0  0
    7.2836  -13.8390   25.3448 C   0  0  0  0  0  0  0  0  0  0  0  0
    9.7181  -17.6985   25.5325 C   0  0  0  0  0  0  0  0  0  0  0  0
   10.0181  -18.8739   25.1066 O   0  0  0  0  0  0  0  0  0  0  0  0
   10.0172  -17.4646   26.8961 N   0  0  0  0  0  0  0  0  0  0  0  0
   10.9751  -18.3552   27.5925 C   0  0  1  0  0  0  0  0  0  0  0  0
   12.3719  -18.0292   27.0513 C   0  0  0  0  0  0  0  0  0  0  0  0
   12.7562  -19.0566   26.0663 C   0  0  0  0  0  0  0  0  0  0  0  0
   11.9193  -20.1154   25.6594 C   0  0  0  0  0  0  0  0  0  0  0  0
   12.5707  -20.8551   24.7633 N   0  0  0  0  0  0  0  0  0  0  0  0
   13.7798  -20.3323   24.5703 C   0  0  0  0  0  0  0  0  0  0  0  0
   13.8709  -19.2646   25.3534 N   0  0  0  0  0  0  0  0  0  0  0  0
   10.9837  -17.9786   29.0256 C   0  0  0  0  0  0  0  0  0  0  0  0
   10.1693  -16.9098   29.4777 O   0  0  0  0  0  0  0  0  0  0  0  0
   11.6580  -18.5154   29.9274 O   0  0  0  0  0  0  0  0  0  0  0  0
  2  1  1  6
  2  3  1  0
  4  2  1  0
  4  5  1  6
  6  4  1  0
  6  7  2  0
  8  6  1  0
  9 10  1  1
  9  8  1  0
 11 10  1  0
 11 12  2  0
 13 12  1  0
 14 13  1  0
 15 14  2  0
 16 15  1  0
 17 16  2  0
 17 18  1  0
 18 19  2  0
 19 14  1  0
 19 11  1  0
 20  9  1  0
 21 20  2  0
 22 20  1  0
 23 24  1  6
 23 22  1  0
 24 25  1  0
 25 29  1  0
 26 25  2  0
 26 27  1  0
 27 28  1  0
 29 28  2  0
 30 31  1  0
 30 23  1  0
 32 30  2  0
M  END
$$$$
