VWH.pdb
     RDKit          3D

 32 34  0  0  1  0  0  0  0  0999 V2000
    9.2956  -18.4369   18.8816 C   0  0  0  0  0  0  0  0  0  0  0  0
    9.6801  -18.0032   20.2920 C   0  0  2  0  0  0  0  0  0  0  0  0
   10.1962  -19.1831   21.0877 C   0  0  0  0  0  0  0  0  0  0  0  0
    8.5705  -17.2720   20.9737 C   0  0  2  0  0  0  0  0  0  0  0  0
    8.2104  -16.1331   20.1555 N   0  0  0  0  0  0  0  0  0  0  0  0
    8.9019  -16.7941   22.3295 C   0  0  0  0  0  0  0  0  0  0  0  0
    9.6448  -15.7854   22.4727 O   0  0  0  0  0  0  0  0  0  0  0  0
    8.4046  -17.4422   23.4819 N   0  0  0  0  0  0  0  0  0  0  0  0
    8.8632  -17.0962   24.8483 C   0  0  1  0  0  0  0  0  0  0  0  0
    7.6851  -16.7472   25.6543 C   0  0  0  0  0  0  0  0  0  0  0  0
    6.9768  -15.5066   25.4326 C   0  0  0  0  0  0  0  0  0  0  0  0
    5.7774  -15.2832   24.7945 C   0  0  0  0  0  0  0  0  0  0  0  0
    5.5249  -13.9737   24.8428 N   0  0  0  0  0  0  0  0  0  0  0  0
    6.5013  -13.3409   25.4805 C   0  0  0  0  0  0  0  0  0  0  0  0
    6.6944  -11.9886   25.8024 C   0  0  0  0  0  0  0  0  0  0  0  0
    7.8097  -11.5676   26.5042 C   0  0  0  0  0  0  0  0  0  0  0  0
    8.7351  -12.5052   26.8844 C   0  0  0  0  0  0  0  0  0  0  0  0
    8.5403  -13.8266   26.5660 C   0  0  0  0  0  0  0  0  0  0  0  0
    7.4350  -14.2736   25.8665 C   0  0  0  0  0  0  0  0  0  0  0  0
    9.8089  -18.0816   25.3321 C   0  0  0  0  0  0  0  0  0  0  0  0
    9.5053  -19.3308   25.3117 O   0  0  0  0  0  0  0  0  0  0  0  0
   11.0975  -17.7899   25.8401 N   0  0  0  0  0  0  0  0  0  0  0  0
   11.9132  -18.8820   26.4213 C   0  0  1  0  0  0  0  0  0  0  0  0
   13.3671  -18.3963   26.4473 C   0  0  0  0  0  0  0  0  0  0  0  0
   13.8553  -18.2702   25.0620 C   0  0  0  0  0  0  0  0  0  0  0  0
   13.3090  -18.9649   23.9639 C   0  0  0  0  0  0  0  0  0  0  0  0
   13.9791  -18.6220   22.8647 N   0  0  0  0  0  0  0  0  0  0  0  0
   14.9259  -17.7458   23.1933 C   0  0  0  0  0  0  0  0  0  0  0  0
   14.8363  -17.5497   24.5029 N   0  0  0  0  0  0  0  0  0  0  0  0
   11.5033  -19.0500   27.8352 C   0  0  0  0  0  0  0  0  0  0  0  0
   12.1203  -20.0458   28.6337 O   0  0  0  0  0  0  0  0  0  0  0  0
   10.6341  -18.3879   28.4370 O   0  0  0  0  0  0  0  0  0  0  0  0
  2  1  1  6
  2  3  1  0
  4  2  1  0
  4  5  1  6
  6  4  1  0
  6  7  2  0
  8  6  1  0
  9 10  1  1
  9  8  1  0
 11 10  1  0
 11 12  2  0
 13 12  1  0
 14 13  1  0
 15 14  2  0
 16 15  1  0
 17 16  2  0
 17 18  1  0
 18 19  2  0
 19 14  1  0
 19 11  1  0
 20  9  1  0
 21 20  2  0
 22 20  1  0
 23 24  1  1
 23 22  1  0
 24 25  1  0
 25 29  1  0
 26 25  2  0
 26 27  1  0
 27 28  1  0
 29 28  2  0
 30 31  1  0
 30 23  1  0
 32 30  2  0
M  END
$$$$
