VWH.pdb
     RDKit          3D

 32 34  0  0  1  0  0  0  0  0999 V2000
    6.7071  -13.6863   18.9966 C   0  0  0  0  0  0  0  0  0  0  0  0
    7.5015  -13.7005   20.2981 C   0  0  2  0  0  0  0  0  0  0  0  0
    8.4555  -12.5263   20.3503 C   0  0  0  0  0  0  0  0  0  0  0  0
    8.1710  -15.0152   20.5298 C   0  0  2  0  0  0  0  0  0  0  0  0
    7.1536  -16.0453   20.5365 N   0  0  0  0  0  0  0  0  0  0  0  0
    8.9322  -15.0945   21.7910 C   0  0  0  0  0  0  0  0  0  0  0  0
    9.9424  -14.3588   21.9589 O   0  0  0  0  0  0  0  0  0  0  0  0
    8.5562  -15.9804   22.8250 N   0  0  0  0  0  0  0  0  0  0  0  0
    9.2945  -16.0638   24.1076 C   0  0  1  0  0  0  0  0  0  0  0  0
    8.3162  -16.2283   25.1916 C   0  0  0  0  0  0  0  0  0  0  0  0
    7.2863  -15.2391   25.4165 C   0  0  0  0  0  0  0  0  0  0  0  0
    5.9237  -15.3367   25.2449 C   0  0  0  0  0  0  0  0  0  0  0  0
    5.3825  -14.1656   25.5860 N   0  0  0  0  0  0  0  0  0  0  0  0
    6.3277  -13.3171   25.9694 C   0  0  0  0  0  0  0  0  0  0  0  0
    6.2739  -11.9920   26.4288 C   0  0  0  0  0  0  0  0  0  0  0  0
    7.4206  -11.3088   26.7924 C   0  0  0  0  0  0  0  0  0  0  0  0
    8.6255  -11.9558   26.6949 C   0  0  0  0  0  0  0  0  0  0  0  0
    8.6713  -13.2521   26.2443 C   0  0  0  0  0  0  0  0  0  0  0  0
    7.5410  -13.9572   25.8754 C   0  0  0  0  0  0  0  0  0  0  0  0
   10.4123  -16.9786   23.9922 C   0  0  0  0  0  0  0  0  0  0  0  0
   10.2751  -18.0872   23.3558 O   0  0  0  0  0  0  0  0  0  0  0  0
   11.7029  -16.7558   24.5293 N   0  0  0  0  0  0  0  0  0  0  0  0
   12.7568  -17.7792   24.3352 C   0  0  1  0  0  0  0  0  0  0  0  0
   14.0719  -17.0327   24.0837 C   0  0  0  0  0  0  0  0  0  0  0  0
   14.0369  -16.4410   22.7338 C   0  0  0  0  0  0  0  0  0  0  0  0
   13.0219  -16.6882   21.7874 C   0  0  0  0  0  0  0  0  0  0  0  0
   13.2934  -15.9999   20.6797 N   0  0  0  0  0  0  0  0  0  0  0  0
   14.4260  -15.3236   20.8596 C   0  0  0  0  0  0  0  0  0  0  0  0
   14.8523  -15.5987   22.0859 N   0  0  0  0  0  0  0  0  0  0  0  0
   12.9258  -18.5038   25.6166 C   0  0  0  0  0  0  0  0  0  0  0  0
   13.8720  -19.5552   25.7115 O   0  0  0  0  0  0  0  0  0  0  0  0
   12.3015  -18.2898   26.6751 O   0  0  0  0  0  0  0  0  0  0  0  0
  2  1  1  6
  2  3  1  0
  4  2  1  0
  4  5  1  1
  6  4  1  0
  6  7  2  0
  8  6  1  0
  9 10  1  1
  9  8  1  0
 11 10  1  0
 11 12  2  0
 13 12  1  0
 14 13  1  0
 15 14  2  0
 16 15  1  0
 17 16  2  0
 17 18  1  0
 18 19  2  0
 19 14  1  0
 19 11  1  0
 20  9  1  0
 21 20  2  0
 22 20  1  0
 23 24  1  1
 23 22  1  0
 24 25  1  0
 25 29  1  0
 26 25  2  0
 26 27  1  0
 27 28  1  0
 29 28  2  0
 30 31  1  0
 30 23  1  0
 32 30  2  0
M  END
$$$$
