VWH.pdb
     RDKit          3D

 32 34  0  0  1  0  0  0  0  0999 V2000
    9.2079  -15.2482   18.7162 C   0  0  0  0  0  0  0  0  0  0  0  0
    7.8477  -15.6843   19.2499 C   0  0  2  0  0  0  0  0  0  0  0  0
    6.8522  -15.8204   18.1176 C   0  0  0  0  0  0  0  0  0  0  0  0
    7.3695  -14.7974   20.3523 C   0  0  2  0  0  0  0  0  0  0  0  0
    7.1639  -13.4714   19.8084 N   0  0  0  0  0  0  0  0  0  0  0  0
    8.2946  -14.7004   21.4974 C   0  0  0  0  0  0  0  0  0  0  0  0
    9.0865  -13.7228   21.5803 O   0  0  0  0  0  0  0  0  0  0  0  0
    8.3170  -15.6822   22.5127 N   0  0  0  0  0  0  0  0  0  0  0  0
    9.2659  -15.6277   23.6500 C   0  0  1  0  0  0  0  0  0  0  0  0
    8.5190  -15.9005   24.8858 C   0  0  0  0  0  0  0  0  0  0  0  0
    7.4050  -15.0665   25.2776 C   0  0  0  0  0  0  0  0  0  0  0  0
    6.0537  -15.3240   25.2205 C   0  0  0  0  0  0  0  0  0  0  0  0
    5.4122  -14.2558   25.6985 N   0  0  0  0  0  0  0  0  0  0  0  0
    6.2821  -13.3220   26.0614 C   0  0  0  0  0  0  0  0  0  0  0  0
    6.1154  -12.0478   26.6257 C   0  0  0  0  0  0  0  0  0  0  0  0
    7.2021  -11.2509   26.9382 C   0  0  0  0  0  0  0  0  0  0  0  0
    8.4604  -11.7324   26.6840 C   0  0  0  0  0  0  0  0  0  0  0  0
    8.6166  -12.9798   26.1315 C   0  0  0  0  0  0  0  0  0  0  0  0
    7.5482  -13.7960   25.8105 C   0  0  0  0  0  0  0  0  0  0  0  0
   10.4675  -16.3784   23.3462 C   0  0  0  0  0  0  0  0  0  0  0  0
   10.3821  -17.5964   22.9436 O   0  0  0  0  0  0  0  0  0  0  0  0
   11.7866  -15.8748   23.4456 N   0  0  0  0  0  0  0  0  0  0  0  0
   12.9315  -16.7895   23.2256 C   0  0  1  0  0  0  0  0  0  0  0  0
   14.1240  -15.9270   22.7965 C   0  0  0  0  0  0  0  0  0  0  0  0
   13.9299  -15.5019   21.3983 C   0  0  0  0  0  0  0  0  0  0  0  0
   12.9499  -16.0362   20.5374 C   0  0  0  0  0  0  0  0  0  0  0  0
   13.0460  -15.4329   19.3535 N   0  0  0  0  0  0  0  0  0  0  0  0
   14.0325  -14.5403   19.4038 C   0  0  0  0  0  0  0  0  0  0  0  0
   14.5452  -14.5963   20.6267 N   0  0  0  0  0  0  0  0  0  0  0  0
   13.2944  -17.3835   24.5337 C   0  0  0  0  0  0  0  0  0  0  0  0
   12.5363  -17.0618   25.6877 O   0  0  0  0  0  0  0  0  0  0  0  0
   14.2367  -18.1710   24.7525 O   0  0  0  0  0  0  0  0  0  0  0  0
  2  1  1  6
  2  3  1  0
  4  2  1  0
  4  5  1  6
  6  4  1  0
  6  7  2  0
  8  6  1  0
  9 10  1  1
  9  8  1  0
 11 10  1  0
 11 12  2  0
 13 12  1  0
 14 13  1  0
 15 14  2  0
 16 15  1  0
 17 16  2  0
 17 18  1  0
 18 19  2  0
 19 14  1  0
 19 11  1  0
 20  9  1  0
 21 20  2  0
 22 20  1  0
 23 24  1  1
 23 22  1  0
 24 25  1  0
 25 29  1  0
 26 25  2  0
 26 27  1  0
 27 28  1  0
 29 28  2  0
 30 31  1  0
 30 23  1  0
 32 30  2  0
M  END
$$$$
