VWH.pdb
     RDKit          3D

 32 34  0  0  1  0  0  0  0  0999 V2000
    8.7609  -16.6928   19.3175 C   0  0  0  0  0  0  0  0  0  0  0  0
    7.4724  -17.0625   20.0444 C   0  0  2  0  0  0  0  0  0  0  0  0
    6.3976  -17.4542   19.0530 C   0  0  0  0  0  0  0  0  0  0  0  0
    7.0391  -15.9929   20.9924 C   0  0  2  0  0  0  0  0  0  0  0  0
    6.7149  -14.8107   20.2219 N   0  0  0  0  0  0  0  0  0  0  0  0
    8.0496  -15.6344   22.0056 C   0  0  0  0  0  0  0  0  0  0  0  0
    8.7887  -14.6292   21.8231 O   0  0  0  0  0  0  0  0  0  0  0  0
    8.2129  -16.3938   23.1854 N   0  0  0  0  0  0  0  0  0  0  0  0
    9.1895  -16.0265   24.2381 C   0  0  1  0  0  0  0  0  0  0  0  0
    8.4899  -16.0139   25.5303 C   0  0  0  0  0  0  0  0  0  0  0  0
    7.3833  -15.1138   25.7649 C   0  0  0  0  0  0  0  0  0  0  0  0
    6.0305  -15.3698   25.7713 C   0  0  0  0  0  0  0  0  0  0  0  0
    5.3980  -14.2260   26.0409 N   0  0  0  0  0  0  0  0  0  0  0  0
    6.2750  -13.2448   26.2090 C   0  0  0  0  0  0  0  0  0  0  0  0
    6.1189  -11.8849   26.5190 C   0  0  0  0  0  0  0  0  0  0  0  0
    7.2117  -11.0488   26.6620 C   0  0  0  0  0  0  0  0  0  0  0  0
    8.4655  -11.5774   26.4932 C   0  0  0  0  0  0  0  0  0  0  0  0
    8.6114  -12.9086   26.1897 C   0  0  0  0  0  0  0  0  0  0  0  0
    7.5367  -13.7653   26.0419 C   0  0  0  0  0  0  0  0  0  0  0  0
   10.4145  -16.7845   24.0821 C   0  0  0  0  0  0  0  0  0  0  0  0
   10.3711  -18.0649   23.9743 O   0  0  0  0  0  0  0  0  0  0  0  0
   11.7138  -16.2256   24.0253 N   0  0  0  0  0  0  0  0  0  0  0  0
   12.8869  -17.1245   23.9175 C   0  0  1  0  0  0  0  0  0  0  0  0
   14.1024  -16.2463   23.5992 C   0  0  0  0  0  0  0  0  0  0  0  0
   13.9565  -15.7008   22.2374 C   0  0  0  0  0  0  0  0  0  0  0  0
   12.9723  -16.1185   21.3187 C   0  0  0  0  0  0  0  0  0  0  0  0
   13.1197  -15.4262   20.1902 N   0  0  0  0  0  0  0  0  0  0  0  0
   14.1431  -14.5864   20.3305 C   0  0  0  0  0  0  0  0  0  0  0  0
   14.6271  -14.7646   21.5534 N   0  0  0  0  0  0  0  0  0  0  0  0
   13.1331  -17.7100   25.2562 C   0  0  0  0  0  0  0  0  0  0  0  0
   14.2069  -18.6169   25.4413 O   0  0  0  0  0  0  0  0  0  0  0  0
   12.4735  -17.4910   26.2920 O   0  0  0  0  0  0  0  0  0  0  0  0
  2  1  1  6
  2  3  1  0
  4  2  1  0
  4  5  1  6
  6  4  1  0
  6  7  2  0
  8  6  1  0
  9 10  1  1
  9  8  1  0
 11 10  1  0
 11 12  2  0
 13 12  1  0
 14 13  1  0
 15 14  2  0
 16 15  1  0
 17 16  2  0
 17 18  1  0
 18 19  2  0
 19 14  1  0
 19 11  1  0
 20  9  1  0
 21 20  2  0
 22 20  1  0
 23 24  1  1
 23 22  1  0
 24 25  1  0
 25 29  1  0
 26 25  2  0
 26 27  1  0
 27 28  1  0
 29 28  2  0
 30 31  1  0
 30 23  1  0
 32 30  2  0
M  END
$$$$
