VWH.pdb
     RDKit          3D

 32 34  0  0  1  0  0  0  0  0999 V2000
    9.1877  -17.0866   19.7952 C   0  0  0  0  0  0  0  0  0  0  0  0
    7.7165  -17.1016   20.1958 C   0  0  2  0  0  0  0  0  0  0  0  0
    6.8400  -17.3529   18.9874 C   0  0  0  0  0  0  0  0  0  0  0  0
    7.3325  -15.8763   20.9584 C   0  0  2  0  0  0  0  0  0  0  0  0
    7.4468  -14.7378   20.0712 N   0  0  0  0  0  0  0  0  0  0  0  0
    8.1545  -15.6255   22.1575 C   0  0  0  0  0  0  0  0  0  0  0  0
    9.1066  -14.8007   22.1015 O   0  0  0  0  0  0  0  0  0  0  0  0
    7.9012  -16.2907   23.3776 N   0  0  0  0  0  0  0  0  0  0  0  0
    8.7404  -16.0876   24.5825 C   0  0  1  0  0  0  0  0  0  0  0  0
    7.8553  -16.0211   25.7536 C   0  0  0  0  0  0  0  0  0  0  0  0
    6.9121  -14.9366   25.9087 C   0  0  0  0  0  0  0  0  0  0  0  0
    5.5362  -14.9572   25.8619 C   0  0  0  0  0  0  0  0  0  0  0  0
    5.1003  -13.7125   26.0657 N   0  0  0  0  0  0  0  0  0  0  0  0
    6.1261  -12.8898   26.2421 C   0  0  0  0  0  0  0  0  0  0  0  0
    6.1947  -11.5121   26.5012 C   0  0  0  0  0  0  0  0  0  0  0  0
    7.4089  -10.8702   26.6669 C   0  0  0  0  0  0  0  0  0  0  0  0
    8.5584  -11.6114   26.5723 C   0  0  0  0  0  0  0  0  0  0  0  0
    8.4844  -12.9589   26.3183 C   0  0  0  0  0  0  0  0  0  0  0  0
    7.2847  -13.6244   26.1493 C   0  0  0  0  0  0  0  0  0  0  0  0
    9.8691  -16.9962   24.5750 C   0  0  0  0  0  0  0  0  0  0  0  0
    9.6866  -18.2492   24.3524 O   0  0  0  0  0  0  0  0  0  0  0  0
   11.2165  -16.6194   24.7901 N   0  0  0  0  0  0  0  0  0  0  0  0
   12.2517  -17.6709   24.9261 C   0  0  1  0  0  0  0  0  0  0  0  0
   13.6158  -16.9807   24.8116 C   0  0  0  0  0  0  0  0  0  0  0  0
   13.7943  -16.4975   23.4303 C   0  0  0  0  0  0  0  0  0  0  0  0
   12.9527  -16.8467   22.3547 C   0  0  0  0  0  0  0  0  0  0  0  0
   13.3923  -16.2395   21.2534 N   0  0  0  0  0  0  0  0  0  0  0  0
   14.4693  -15.5192   21.5594 C   0  0  0  0  0  0  0  0  0  0  0  0
   14.6921  -15.6855   22.8572 N   0  0  0  0  0  0  0  0  0  0  0  0
   12.1705  -18.2106   26.3037 C   0  0  0  0  0  0  0  0  0  0  0  0
   13.0905  -19.2030   26.7264 O   0  0  0  0  0  0  0  0  0  0  0  0
   11.3460  -17.8811   27.1798 O   0  0  0  0  0  0  0  0  0  0  0  0
  2  1  1  6
  2  3  1  0
  4  2  1  0
  4  5  1  6
  6  4  1  0
  6  7  2  0
  8  6  1  0
  9 10  1  1
  9  8  1  0
 11 10  1  0
 11 12  2  0
 13 12  1  0
 14 13  1  0
 15 14  2  0
 16 15  1  0
 17 16  2  0
 17 18  1  0
 18 19  2  0
 19 14  1  0
 19 11  1  0
 20  9  1  0
 21 20  2  0
 22 20  1  0
 23 24  1  1
 23 22  1  0
 24 25  1  0
 25 29  1  0
 26 25  2  0
 26 27  1  0
 27 28  1  0
 29 28  2  0
 30 31  1  0
 30 23  1  0
 32 30  2  0
M  END
$$$$
