VWH.pdb
     RDKit          3D

 32 34  0  0  1  0  0  0  0  0999 V2000
    8.6432  -15.0197   16.0947 C   0  0  0  0  0  0  0  0  0  0  0  0
    9.0015  -14.9348   17.5745 C   0  0  2  0  0  0  0  0  0  0  0  0
    9.2550  -16.3163   18.1391 C   0  0  0  0  0  0  0  0  0  0  0  0
    7.9902  -14.1567   18.3505 C   0  0  2  0  0  0  0  0  0  0  0  0
    7.8927  -12.8350   17.7676 N   0  0  0  0  0  0  0  0  0  0  0  0
    8.3021  -14.0185   19.7859 C   0  0  0  0  0  0  0  0  0  0  0  0
    9.1649  -13.1787   20.1601 O   0  0  0  0  0  0  0  0  0  0  0  0
    7.6540  -14.8089   20.7608 N   0  0  0  0  0  0  0  0  0  0  0  0
    7.9915  -14.7282   22.2019 C   0  0  1  0  0  0  0  0  0  0  0  0
    6.7375  -14.7118   22.9678 C   0  0  0  0  0  0  0  0  0  0  0  0
    6.7524  -14.6782   24.4129 C   0  0  0  0  0  0  0  0  0  0  0  0
    6.7449  -15.7186   25.3147 C   0  0  0  0  0  0  0  0  0  0  0  0
    6.7707  -15.1969   26.5428 N   0  0  0  0  0  0  0  0  0  0  0  0
    6.7949  -13.8719   26.4785 C   0  0  0  0  0  0  0  0  0  0  0  0
    6.8422  -12.8815   27.4718 C   0  0  0  0  0  0  0  0  0  0  0  0
    6.8781  -11.5372   27.1472 C   0  0  0  0  0  0  0  0  0  0  0  0
    6.8661  -11.1842   25.8225 C   0  0  0  0  0  0  0  0  0  0  0  0
    6.8194  -12.1580   24.8555 C   0  0  0  0  0  0  0  0  0  0  0  0
    6.7834  -13.5076   25.1527 C   0  0  0  0  0  0  0  0  0  0  0  0
    9.0338  -15.6783   22.5341 C   0  0  0  0  0  0  0  0  0  0  0  0
    8.8956  -16.9196   22.2291 O   0  0  0  0  0  0  0  0  0  0  0  0
   10.2495  -15.3562   23.1837 N   0  0  0  0  0  0  0  0  0  0  0  0
   11.1932  -16.4422   23.5383 C   0  0  1  0  0  0  0  0  0  0  0  0
   12.6089  -15.9143   23.2791 C   0  0  0  0  0  0  0  0  0  0  0  0
   12.8288  -15.8259   21.8240 C   0  0  0  0  0  0  0  0  0  0  0  0
   11.9601  -16.3722   20.8577 C   0  0  0  0  0  0  0  0  0  0  0  0
   12.4508  -16.1133   19.6466 N   0  0  0  0  0  0  0  0  0  0  0  0
   13.5863  -15.4311   19.7788 C   0  0  0  0  0  0  0  0  0  0  0  0
   13.7939  -15.2704   21.0797 N   0  0  0  0  0  0  0  0  0  0  0  0
   11.0930  -16.6701   24.9990 C   0  0  0  0  0  0  0  0  0  0  0  0
   11.8873  -17.6720   25.6115 O   0  0  0  0  0  0  0  0  0  0  0  0
   10.3537  -16.0562   25.7944 O   0  0  0  0  0  0  0  0  0  0  0  0
  2  1  1  6
  2  3  1  0
  4  2  1  0
  4  5  1  6
  6  4  1  0
  6  7  2  0
  8  6  1  0
  9 10  1  1
  9  8  1  0
 11 10  1  0
 11 12  2  0
 13 12  1  0
 14 13  1  0
 15 14  2  0
 16 15  1  0
 17 16  2  0
 17 18  1  0
 18 19  2  0
 19 14  1  0
 19 11  1  0
 20  9  1  0
 21 20  2  0
 22 20  1  0
 23 24  1  1
 23 22  1  0
 24 25  1  0
 25 29  1  0
 26 25  2  0
 26 27  1  0
 27 28  1  0
 29 28  2  0
 30 31  1  0
 30 23  1  0
 32 30  2  0
M  END
$$$$
