LEG.pdb
     RDKit          3D

 22 21  0  0  1  0  0  0  0  0999 V2000
    7.2285  -11.9304   27.4402 C   0  0  0  0  0  0  0  0  0  0  0  0
    6.9729  -12.2192   25.9878 C   0  0  2  0  0  0  0  0  0  0  0  0
    6.3987  -10.9944   25.3093 C   0  0  0  0  0  0  0  0  0  0  0  0
    6.0314  -13.3562   25.7662 C   0  0  0  0  0  0  0  0  0  0  0  0
    6.5971  -14.6817   26.2246 C   0  0  2  0  0  0  0  0  0  0  0  0
    7.6853  -14.5354   27.1365 N   0  0  0  0  0  0  0  0  0  0  0  0
    6.9203  -15.5641   25.0748 C   0  0  0  0  0  0  0  0  0  0  0  0
    6.0409  -15.8497   24.2451 O   0  0  0  0  0  0  0  0  0  0  0  0
    8.2226  -16.1085   24.8779 N   0  0  0  0  0  0  0  0  0  0  0  0
    8.5105  -17.0687   23.8117 C   0  0  1  0  0  0  0  0  0  0  0  0
    9.8735  -16.7845   23.1970 C   0  0  0  0  0  0  0  0  0  0  0  0
   10.1638  -17.6990   22.0293 C   0  0  0  0  0  0  0  0  0  0  0  0
   11.4339  -17.2718   21.4230 C   0  0  0  0  0  0  0  0  0  0  0  0
   12.5313  -17.7198   21.8801 O   0  0  0  0  0  0  0  0  0  0  0  0
    8.5305  -18.4211   24.4192 C   0  0  0  0  0  0  0  0  0  0  0  0
    8.6760  -19.4546   23.7081 O   0  0  0  0  0  0  0  0  0  0  0  0
   11.5338  -16.3895   20.3565 O   0  0  0  0  0  0  0  0  0  0  0  0
    8.3905  -18.6448   25.8125 N   0  0  0  0  0  0  0  0  0  0  0  0
    8.4201  -19.9949   26.3808 C   0  0  0  0  0  0  0  0  0  0  0  0
    9.6420  -20.2363   27.1490 C   0  0  0  0  0  0  0  0  0  0  0  0
    9.7008  -21.3302   27.9961 O   0  0  0  0  0  0  0  0  0  0  0  0
   10.6444  -19.4908   27.0731 O   0  0  0  0  0  0  0  0  0  0  0  0
  2  1  1  1
  2  3  1  0
  4  2  1  0
  4  5  1  0
  5  7  1  0
  5  6  1  6
  7  9  1  0
  7  8  2  0
  9 10  1  0
 10 15  1  0
 10 11  1  1
 12 13  1  0
 12 11  1  0
 13 14  2  0
 15 16  2  0
 17 13  1  0
 18 15  1  0
 18 19  1  0
 19 20  1  0
 20 22  2  0
 20 21  1  0
M  END
$$$$
