LEG.pdb
     RDKit          3D

 22 21  0  0  1  0  0  0  0  0999 V2000
    5.7191  -12.7055   25.5686 C   0  0  0  0  0  0  0  0  0  0  0  0
    6.6252  -13.1176   26.6944 C   0  0  2  0  0  0  0  0  0  0  0  0
    7.2978  -11.9000   27.2903 C   0  0  0  0  0  0  0  0  0  0  0  0
    7.6895  -14.0778   26.2777 C   0  0  0  0  0  0  0  0  0  0  0  0
    7.1283  -15.3629   25.7112 C   0  0  2  0  0  0  0  0  0  0  0  0
    6.3542  -16.0965   26.6597 N   0  0  0  0  0  0  0  0  0  0  0  0
    8.1861  -16.1837   25.0688 C   0  0  0  0  0  0  0  0  0  0  0  0
    9.0149  -16.7875   25.7701 O   0  0  0  0  0  0  0  0  0  0  0  0
    8.2936  -16.3113   23.6535 N   0  0  0  0  0  0  0  0  0  0  0  0
    9.3875  -17.0492   23.0205 C   0  0  1  0  0  0  0  0  0  0  0  0
    8.9873  -17.4921   21.6205 C   0  0  0  0  0  0  0  0  0  0  0  0
    8.8854  -16.3218   20.6697 C   0  0  0  0  0  0  0  0  0  0  0  0
    8.6315  -16.8528   19.3218 C   0  0  0  0  0  0  0  0  0  0  0  0
    7.8195  -17.8178   19.1685 O   0  0  0  0  0  0  0  0  0  0  0  0
   10.5483  -16.1321   22.9203 C   0  0  0  0  0  0  0  0  0  0  0  0
   10.3872  -14.8876   22.7776 O   0  0  0  0  0  0  0  0  0  0  0  0
    9.2269  -16.3689   18.1655 O   0  0  0  0  0  0  0  0  0  0  0  0
   11.8931  -16.5783   22.9765 N   0  0  0  0  0  0  0  0  0  0  0  0
   13.0175  -15.6442   22.8775 C   0  0  0  0  0  0  0  0  0  0  0  0
   14.3046  -16.3214   23.0392 C   0  0  0  0  0  0  0  0  0  0  0  0
   14.8069  -17.0740   21.9909 O   0  0  0  0  0  0  0  0  0  0  0  0
   14.9767  -16.2492   24.0925 O   0  0  0  0  0  0  0  0  0  0  0  0
  2  1  1  6
  2  3  1  0
  4  2  1  0
  4  5  1  0
  5  7  1  0
  5  6  1  1
  7  9  1  0
  7  8  2  0
  9 10  1  0
 10 15  1  0
 10 11  1  6
 12 13  1  0
 12 11  1  0
 13 14  2  0
 15 16  2  0
 17 13  1  0
 18 15  1  0
 18 19  1  0
 19 20  1  0
 20 22  2  0
 20 21  1  0
M  END
$$$$
