LEG.pdb
     RDKit          3D

 22 21  0  0  1  0  0  0  0  0999 V2000
    6.2621  -12.1968   25.1251 C   0  0  0  0  0  0  0  0  0  0  0  0
    6.7096  -12.9323   26.3567 C   0  0  2  0  0  0  0  0  0  0  0  0
    7.4400  -11.9884   27.2871 C   0  0  0  0  0  0  0  0  0  0  0  0
    7.6117  -14.0851   26.0638 C   0  0  0  0  0  0  0  0  0  0  0  0
    6.9298  -15.1727   25.2642 C   0  0  2  0  0  0  0  0  0  0  0  0
    5.9981  -15.9289   26.0370 N   0  0  0  0  0  0  0  0  0  0  0  0
    7.9150  -16.0240   24.5501 C   0  0  0  0  0  0  0  0  0  0  0  0
    8.4052  -17.0149   25.1167 O   0  0  0  0  0  0  0  0  0  0  0  0
    8.3308  -15.7476   23.2153 N   0  0  0  0  0  0  0  0  0  0  0  0
    9.1394  -16.6910   22.4420 C   0  0  1  0  0  0  0  0  0  0  0  0
    8.8262  -16.5647   20.9580 C   0  0  0  0  0  0  0  0  0  0  0  0
    9.6598  -17.5120   20.1262 C   0  0  0  0  0  0  0  0  0  0  0  0
    9.2747  -17.3381   18.7174 C   0  0  0  0  0  0  0  0  0  0  0  0
    8.8144  -16.2211   18.3244 O   0  0  0  0  0  0  0  0  0  0  0  0
   10.5646  -16.3463   22.6628 C   0  0  0  0  0  0  0  0  0  0  0  0
   11.4840  -16.9253   22.0190 O   0  0  0  0  0  0  0  0  0  0  0  0
    9.3768  -18.3283   17.7507 O   0  0  0  0  0  0  0  0  0  0  0  0
   10.9869  -15.3627   23.5928 N   0  0  0  0  0  0  0  0  0  0  0  0
   12.3932  -14.9685   23.7090 C   0  0  0  0  0  0  0  0  0  0  0  0
   13.1797  -15.9634   24.4391 C   0  0  0  0  0  0  0  0  0  0  0  0
   14.4995  -15.6831   24.7508 O   0  0  0  0  0  0  0  0  0  0  0  0
   12.7074  -17.0658   24.7969 O   0  0  0  0  0  0  0  0  0  0  0  0
  2  1  1  6
  2  3  1  0
  4  2  1  0
  4  5  1  0
  5  7  1  0
  5  6  1  1
  7  9  1  0
  7  8  2  0
  9 10  1  0
 10 15  1  0
 10 11  1  6
 12 13  1  0
 12 11  1  0
 13 14  2  0
 15 16  2  0
 17 13  1  0
 18 15  1  0
 18 19  1  0
 19 20  1  0
 20 22  2  0
 20 21  1  0
M  END
$$$$
