LEG.pdb
     RDKit          3D

 22 21  0  0  1  0  0  0  0  0999 V2000
    6.1858  -12.7483   26.7339 C   0  0  0  0  0  0  0  0  0  0  0  0
    7.1915  -13.1937   25.7099 C   0  0  2  0  0  0  0  0  0  0  0  0
    8.2419  -12.1220   25.5150 C   0  0  0  0  0  0  0  0  0  0  0  0
    6.5875  -13.4984   24.3792 C   0  0  0  0  0  0  0  0  0  0  0  0
    7.5718  -14.1319   23.4216 C   0  0  2  0  0  0  0  0  0  0  0  0
    7.0583  -14.2500   22.0951 N   0  0  0  0  0  0  0  0  0  0  0  0
    8.1025  -15.4130   23.9529 C   0  0  0  0  0  0  0  0  0  0  0  0
    7.3348  -16.3704   24.1465 O   0  0  0  0  0  0  0  0  0  0  0  0
    9.4829  -15.5955   24.2565 N   0  0  0  0  0  0  0  0  0  0  0  0
   10.0589  -16.9204   24.4896 C   0  0  1  0  0  0  0  0  0  0  0  0
   11.2478  -17.1508   23.5675 C   0  0  0  0  0  0  0  0  0  0  0  0
   12.2188  -15.9933   23.6044 C   0  0  0  0  0  0  0  0  0  0  0  0
   13.3127  -16.2884   22.6666 C   0  0  0  0  0  0  0  0  0  0  0  0
   14.3247  -16.9439   23.0667 O   0  0  0  0  0  0  0  0  0  0  0  0
   10.5266  -16.9652   25.8959 C   0  0  0  0  0  0  0  0  0  0  0  0
   11.2968  -17.8812   26.2994 O   0  0  0  0  0  0  0  0  0  0  0  0
   13.3293  -15.8957   21.3357 O   0  0  0  0  0  0  0  0  0  0  0  0
   10.1500  -16.0028   26.8668 N   0  0  0  0  0  0  0  0  0  0  0  0
   10.6297  -16.0772   28.2491 C   0  0  0  0  0  0  0  0  0  0  0  0
   10.2170  -14.9124   29.0330 C   0  0  0  0  0  0  0  0  0  0  0  0
   10.5859  -14.8310   30.3652 O   0  0  0  0  0  0  0  0  0  0  0  0
    9.5393  -13.9788   28.5474 O   0  0  0  0  0  0  0  0  0  0  0  0
  2  1  1  1
  2  3  1  0
  4  2  1  0
  4  5  1  0
  5  7  1  0
  5  6  1  6
  7  9  1  0
  7  8  2  0
  9 10  1  0
 10 15  1  0
 10 11  1  6
 12 13  1  0
 12 11  1  0
 13 14  2  0
 15 16  2  0
 17 13  1  0
 18 15  1  0
 18 19  1  0
 19 20  1  0
 20 22  2  0
 20 21  1  0
M  END
$$$$
