LEG.pdb
     RDKit          3D

 22 21  0  0  1  0  0  0  0  0999 V2000
    6.5580  -12.2695   25.2219 C   0  0  0  0  0  0  0  0  0  0  0  0
    6.5222  -13.0856   26.4832 C   0  0  2  0  0  0  0  0  0  0  0  0
    7.0246  -12.2610   27.6483 C   0  0  0  0  0  0  0  0  0  0  0  0
    7.3432  -14.3300   26.4076 C   0  0  0  0  0  0  0  0  0  0  0  0
    6.8881  -15.2651   25.3096 C   0  0  2  0  0  0  0  0  0  0  0  0
    5.8031  -16.1025   25.7076 N   0  0  0  0  0  0  0  0  0  0  0  0
    8.0261  -16.0265   24.7348 C   0  0  0  0  0  0  0  0  0  0  0  0
    8.5072  -16.9881   25.3571 O   0  0  0  0  0  0  0  0  0  0  0  0
    8.6021  -15.6949   23.4741 N   0  0  0  0  0  0  0  0  0  0  0  0
    9.7146  -16.4557   22.9037 C   0  0  1  0  0  0  0  0  0  0  0  0
    9.8968  -16.1059   21.4337 C   0  0  0  0  0  0  0  0  0  0  0  0
   11.0286  -16.8875   20.8073 C   0  0  0  0  0  0  0  0  0  0  0  0
   10.4802  -17.6546   19.6785 C   0  0  0  0  0  0  0  0  0  0  0  0
    9.9335  -17.0427   18.7086 O   0  0  0  0  0  0  0  0  0  0  0  0
   10.9428  -16.0769   23.6430 C   0  0  0  0  0  0  0  0  0  0  0  0
   11.1858  -14.8717   23.9319 O   0  0  0  0  0  0  0  0  0  0  0  0
   10.5127  -19.0387   19.5842 O   0  0  0  0  0  0  0  0  0  0  0  0
   11.9109  -17.0213   24.0689 N   0  0  0  0  0  0  0  0  0  0  0  0
   13.1113  -16.6135   24.8033 C   0  0  0  0  0  0  0  0  0  0  0  0
   14.2814  -16.5247   23.9290 C   0  0  0  0  0  0  0  0  0  0  0  0
   15.5053  -16.1745   24.4739 O   0  0  0  0  0  0  0  0  0  0  0  0
   14.2234  -16.7534   22.6998 O   0  0  0  0  0  0  0  0  0  0  0  0
  2  1  1  6
  2  3  1  0
  4  2  1  0
  4  5  1  0
  5  7  1  0
  5  6  1  1
  7  9  1  0
  7  8  2  0
  9 10  1  0
 10 15  1  0
 10 11  1  6
 12 13  1  0
 12 11  1  0
 13 14  2  0
 15 16  2  0
 17 13  1  0
 18 15  1  0
 18 19  1  0
 19 20  1  0
 20 22  2  0
 20 21  1  0
M  END
$$$$
