LEG.pdb
     RDKit          3D

 22 21  0  0  1  0  0  0  0  0999 V2000
    6.9927  -12.4391   24.2511 C   0  0  0  0  0  0  0  0  0  0  0  0
    6.3898  -12.8197   25.5740 C   0  0  2  0  0  0  0  0  0  0  0  0
    6.7564  -11.7941   26.6247 C   0  0  0  0  0  0  0  0  0  0  0  0
    6.8287  -14.1605   26.0617 C   0  0  0  0  0  0  0  0  0  0  0  0
    6.8581  -15.2009   24.9645 C   0  0  2  0  0  0  0  0  0  0  0  0
    5.5953  -15.8363   24.7678 N   0  0  0  0  0  0  0  0  0  0  0  0
    7.9684  -16.1678   25.1590 C   0  0  0  0  0  0  0  0  0  0  0  0
    7.8272  -17.1271   25.9356 O   0  0  0  0  0  0  0  0  0  0  0  0
    9.2144  -16.0400   24.4792 N   0  0  0  0  0  0  0  0  0  0  0  0
   10.2639  -17.0546   24.5830 C   0  0  1  0  0  0  0  0  0  0  0  0
   11.3508  -16.8000   23.5483 C   0  0  0  0  0  0  0  0  0  0  0  0
   10.9204  -17.2310   22.1652 C   0  0  0  0  0  0  0  0  0  0  0  0
   11.9713  -16.8303   21.2174 C   0  0  0  0  0  0  0  0  0  0  0  0
   13.1483  -17.2892   21.3521 O   0  0  0  0  0  0  0  0  0  0  0  0
   10.8571  -16.9496   25.9379 C   0  0  0  0  0  0  0  0  0  0  0  0
   11.2282  -15.8360   26.4040 O   0  0  0  0  0  0  0  0  0  0  0  0
   11.7746  -15.9625   20.1525 O   0  0  0  0  0  0  0  0  0  0  0  0
   11.0455  -18.0687   26.7880 N   0  0  0  0  0  0  0  0  0  0  0  0
   11.3925  -17.9094   28.2025 C   0  0  0  0  0  0  0  0  0  0  0  0
   11.3404  -19.1819   28.9233 C   0  0  0  0  0  0  0  0  0  0  0  0
   11.8389  -19.2469   30.2136 O   0  0  0  0  0  0  0  0  0  0  0  0
   10.8608  -20.2226   28.4200 O   0  0  0  0  0  0  0  0  0  0  0  0
  2  1  1  6
  2  3  1  0
  4  2  1  0
  4  5  1  0
  5  7  1  0
  5  6  1  1
  7  9  1  0
  7  8  2  0
  9 10  1  0
 10 15  1  0
 10 11  1  6
 12 13  1  0
 12 11  1  0
 13 14  2  0
 15 16  2  0
 17 13  1  0
 18 15  1  0
 18 19  1  0
 19 20  1  0
 20 22  2  0
 20 21  1  0
M  END
$$$$
