LEG.pdb
     RDKit          3D

 22 21  0  0  1  0  0  0  0  0999 V2000
    7.2108  -11.9033   24.9430 C   0  0  0  0  0  0  0  0  0  0  0  0
    6.4261  -12.6767   25.9650 C   0  0  2  0  0  0  0  0  0  0  0  0
    6.3550  -11.8986   27.2609 C   0  0  0  0  0  0  0  0  0  0  0  0
    7.0030  -14.0210   26.2623 C   0  0  0  0  0  0  0  0  0  0  0  0
    6.6757  -15.0459   25.1994 C   0  0  2  0  0  0  0  0  0  0  0  0
    5.3180  -15.4832   25.2492 N   0  0  0  0  0  0  0  0  0  0  0  0
    7.6464  -16.1697   25.2077 C   0  0  0  0  0  0  0  0  0  0  0  0
    7.5011  -17.1096   26.0069 O   0  0  0  0  0  0  0  0  0  0  0  0
    8.7604  -16.2174   24.3202 N   0  0  0  0  0  0  0  0  0  0  0  0
    9.7682  -17.2760   24.3940 C   0  0  1  0  0  0  0  0  0  0  0  0
   10.6831  -17.2221   23.1789 C   0  0  0  0  0  0  0  0  0  0  0  0
    9.9382  -17.5345   21.9016 C   0  0  0  0  0  0  0  0  0  0  0  0
   10.8697  -17.3558   20.7775 C   0  0  0  0  0  0  0  0  0  0  0  0
   11.9188  -18.0693   20.7103 O   0  0  0  0  0  0  0  0  0  0  0  0
   10.5768  -17.0413   25.6145 C   0  0  0  0  0  0  0  0  0  0  0  0
   11.1717  -15.9433   25.8027 O   0  0  0  0  0  0  0  0  0  0  0  0
   10.6895  -16.4403   19.7503 O   0  0  0  0  0  0  0  0  0  0  0  0
   10.7359  -18.0127   26.6351 N   0  0  0  0  0  0  0  0  0  0  0  0
   11.5666  -17.7589   27.8150 C   0  0  0  0  0  0  0  0  0  0  0  0
   11.5549  -18.8899   28.7435 C   0  0  0  0  0  0  0  0  0  0  0  0
   12.3790  -18.8577   29.8558 O   0  0  0  0  0  0  0  0  0  0  0  0
   10.8263  -19.8934   28.5745 O   0  0  0  0  0  0  0  0  0  0  0  0
  2  1  1  6
  2  3  1  0
  4  2  1  0
  4  5  1  0
  5  7  1  0
  5  6  1  1
  7  9  1  0
  7  8  2  0
  9 10  1  0
 10 15  1  0
 10 11  1  6
 12 13  1  0
 12 11  1  0
 13 14  2  0
 15 16  2  0
 17 13  1  0
 18 15  1  0
 18 19  1  0
 19 20  1  0
 20 22  2  0
 20 21  1  0
M  END
$$$$
