LEG.pdb
     RDKit          3D

 22 21  0  0  1  0  0  0  0  0999 V2000
    7.8756  -12.6505   21.7298 C   0  0  0  0  0  0  0  0  0  0  0  0
    8.4141  -13.4336   20.5658 C   0  0  2  0  0  0  0  0  0  0  0  0
    7.8131  -12.9219   19.2747 C   0  0  0  0  0  0  0  0  0  0  0  0
    8.1378  -14.8977   20.6576 C   0  0  0  0  0  0  0  0  0  0  0  0
    8.6114  -15.5015   21.9608 C   0  0  2  0  0  0  0  0  0  0  0  0
    9.6919  -14.7772   22.5481 N   0  0  0  0  0  0  0  0  0  0  0  0
    8.8966  -16.9519   21.8184 C   0  0  0  0  0  0  0  0  0  0  0  0
    8.0294  -17.7128   21.3576 O   0  0  0  0  0  0  0  0  0  0  0  0
   10.1480  -17.5202   22.1952 N   0  0  0  0  0  0  0  0  0  0  0  0
   10.4034  -18.9591   22.1164 C   0  0  1  0  0  0  0  0  0  0  0  0
   11.7220  -19.2248   21.4043 C   0  0  0  0  0  0  0  0  0  0  0  0
   12.5715  -17.9782   21.3134 C   0  0  0  0  0  0  0  0  0  0  0  0
   13.8300  -18.3345   20.6406 C   0  0  0  0  0  0  0  0  0  0  0  0
   13.8815  -18.3522   19.3713 O   0  0  0  0  0  0  0  0  0  0  0  0
   10.4945  -19.4751   23.5035 C   0  0  0  0  0  0  0  0  0  0  0  0
   10.6124  -20.7112   23.7342 O   0  0  0  0  0  0  0  0  0  0  0  0
   15.0045  -18.6638   21.3020 O   0  0  0  0  0  0  0  0  0  0  0  0
   10.4566  -18.6347   24.6450 N   0  0  0  0  0  0  0  0  0  0  0  0
   10.4506  -19.1834   26.0034 C   0  0  0  0  0  0  0  0  0  0  0  0
   11.7978  -19.2483   26.5712 C   0  0  0  0  0  0  0  0  0  0  0  0
   11.9566  -19.6516   27.8863 O   0  0  0  0  0  0  0  0  0  0  0  0
   12.8212  -18.9525   25.9142 O   0  0  0  0  0  0  0  0  0  0  0  0
  2  1  1  1
  2  3  1  0
  4  2  1  0
  4  5  1  0
  5  7  1  0
  5  6  1  6
  7  9  1  0
  7  8  2  0
  9 10  1  0
 10 15  1  0
 10 11  1  1
 12 13  1  0
 12 11  1  0
 13 14  2  0
 15 16  2  0
 17 13  1  0
 18 15  1  0
 18 19  1  0
 19 20  1  0
 20 22  2  0
 20 21  1  0
M  END
$$$$
