LEG.pdb
     RDKit          3D

 22 21  0  0  1  0  0  0  0  0999 V2000
    7.0146  -12.0246   24.7149 C   0  0  0  0  0  0  0  0  0  0  0  0
    6.3500  -12.6271   25.9205 C   0  0  2  0  0  0  0  0  0  0  0  0
    6.5726  -11.7450   27.1298 C   0  0  0  0  0  0  0  0  0  0  0  0
    6.8454  -13.9967   26.2481 C   0  0  0  0  0  0  0  0  0  0  0  0
    6.8975  -14.9043   25.0395 C   0  0  2  0  0  0  0  0  0  0  0  0
    5.6063  -15.3436   24.6189 N   0  0  0  0  0  0  0  0  0  0  0  0
    7.8532  -16.0233   25.2383 C   0  0  0  0  0  0  0  0  0  0  0  0
    7.5851  -16.9337   26.0399 O   0  0  0  0  0  0  0  0  0  0  0  0
    9.0902  -16.0996   24.5345 N   0  0  0  0  0  0  0  0  0  0  0  0
   10.0277  -17.2064   24.7285 C   0  0  1  0  0  0  0  0  0  0  0  0
   11.0463  -17.2420   23.5982 C   0  0  0  0  0  0  0  0  0  0  0  0
   10.3996  -17.0057   22.2528 C   0  0  0  0  0  0  0  0  0  0  0  0
   11.4639  -16.9650   21.2385 C   0  0  0  0  0  0  0  0  0  0  0  0
   12.6696  -16.7891   21.5984 O   0  0  0  0  0  0  0  0  0  0  0  0
   10.7391  -16.9726   26.0084 C   0  0  0  0  0  0  0  0  0  0  0  0
   11.8360  -16.3476   26.0413 O   0  0  0  0  0  0  0  0  0  0  0  0
   11.2506  -17.1078   19.8747 O   0  0  0  0  0  0  0  0  0  0  0  0
   10.2481  -17.4249   27.2594 N   0  0  0  0  0  0  0  0  0  0  0  0
   11.0441  -17.3107   28.4841 C   0  0  0  0  0  0  0  0  0  0  0  0
   11.7851  -18.5400   28.7694 C   0  0  0  0  0  0  0  0  0  0  0  0
   12.4627  -18.6553   29.9715 O   0  0  0  0  0  0  0  0  0  0  0  0
   11.8333  -19.4995   27.9672 O   0  0  0  0  0  0  0  0  0  0  0  0
  2  1  1  6
  2  3  1  0
  4  2  1  0
  4  5  1  0
  5  7  1  0
  5  6  1  1
  7  9  1  0
  7  8  2  0
  9 10  1  0
 10 15  1  0
 10 11  1  6
 12 13  1  0
 12 11  1  0
 13 14  2  0
 15 16  2  0
 17 13  1  0
 18 15  1  0
 18 19  1  0
 19 20  1  0
 20 22  2  0
 20 21  1  0
M  END
$$$$
