LEG.pdb
     RDKit          3D

 22 21  0  0  1  0  0  0  0  0999 V2000
    6.9823  -11.5976   24.8116 C   0  0  0  0  0  0  0  0  0  0  0  0
    6.3494  -12.5071   25.8267 C   0  0  2  0  0  0  0  0  0  0  0  0
    5.9003  -11.7073   27.0303 C   0  0  0  0  0  0  0  0  0  0  0  0
    7.2608  -13.5893   26.3030 C   0  0  0  0  0  0  0  0  0  0  0  0
    7.5858  -14.5973   25.2234 C   0  0  2  0  0  0  0  0  0  0  0  0
    6.6135  -15.6374   25.1239 N   0  0  0  0  0  0  0  0  0  0  0  0
    8.9723  -15.1120   25.3570 C   0  0  0  0  0  0  0  0  0  0  0  0
    9.8960  -14.3371   25.6563 O   0  0  0  0  0  0  0  0  0  0  0  0
    9.2956  -16.4849   25.1526 N   0  0  0  0  0  0  0  0  0  0  0  0
   10.6796  -16.9554   25.0831 C   0  0  1  0  0  0  0  0  0  0  0  0
   10.8829  -18.1423   26.0139 C   0  0  0  0  0  0  0  0  0  0  0  0
   10.4476  -17.8282   27.4266 C   0  0  0  0  0  0  0  0  0  0  0  0
   10.6356  -19.0395   28.2395 C   0  0  0  0  0  0  0  0  0  0  0  0
   11.7454  -19.2382   28.8250 O   0  0  0  0  0  0  0  0  0  0  0  0
   10.9364  -17.3894   23.6887 C   0  0  0  0  0  0  0  0  0  0  0  0
   10.1938  -18.2392   23.1218 O   0  0  0  0  0  0  0  0  0  0  0  0
    9.6665  -20.0154   28.4246 O   0  0  0  0  0  0  0  0  0  0  0  0
   12.0115  -16.8914   22.9097 N   0  0  0  0  0  0  0  0  0  0  0  0
   12.3245  -17.4442   21.5895 C   0  0  0  0  0  0  0  0  0  0  0  0
   13.7573  -17.6953   21.4293 C   0  0  0  0  0  0  0  0  0  0  0  0
   14.3209  -17.6047   20.1677 O   0  0  0  0  0  0  0  0  0  0  0  0
   14.5016  -17.9909   22.3912 O   0  0  0  0  0  0  0  0  0  0  0  0
  2  1  1  6
  2  3  1  0
  4  2  1  0
  4  5  1  0
  5  7  1  0
  5  6  1  1
  7  9  1  0
  7  8  2  0
  9 10  1  0
 10 15  1  0
 10 11  1  1
 12 13  1  0
 12 11  1  0
 13 14  2  0
 15 16  2  0
 17 13  1  0
 18 15  1  0
 18 19  1  0
 19 20  1  0
 20 22  2  0
 20 21  1  0
M  END
$$$$
