RDN.pdb
     RDKit          3D

 28 27  0  0  1  0  0  0  0  0999 V2000
    8.8269  -12.8474   21.1383 N   0  0  0  0  0  0  0  0  0  0  0  0
    8.3144  -12.2626   19.9228 C   0  0  0  0  0  0  0  0  0  0  0  0
    8.0923  -10.9928   19.9278 N   0  0  0  0  0  0  0  0  0  0  0  0
    8.0645  -13.0421   18.7725 N   0  0  0  0  0  0  0  0  0  0  0  0
    7.3761  -14.3001   18.8679 C   0  0  0  0  0  0  0  0  0  0  0  0
    6.7895  -14.4818   20.2637 C   0  0  0  0  0  0  0  0  0  0  0  0
    7.5279  -15.5229   21.0456 C   0  0  0  0  0  0  0  0  0  0  0  0
    8.0242  -16.6712   20.2300 C   0  0  2  0  0  0  0  0  0  0  0  0
    7.2600  -17.8695   20.3414 N   0  0  0  0  0  0  0  0  0  0  0  0
    9.4304  -16.9527   20.6390 C   0  0  0  0  0  0  0  0  0  0  0  0
    9.6128  -17.8767   21.4897 O   0  0  0  0  0  0  0  0  0  0  0  0
    7.7685  -10.4618   19.1059 N   0  0  0  0  0  0  0  0  0  0  0  0
   10.5493  -16.2528   20.1345 C   0  0  2  0  0  0  0  0  0  0  0  0
   11.9128  -16.5335   20.6004 C   0  0  0  0  0  0  0  0  0  0  0  0
   12.7900  -15.4207   20.0750 C   0  0  0  0  0  0  0  0  0  0  0  0
   14.2296  -15.7019   20.3017 O   0  0  0  0  0  0  0  0  0  0  0  0
   14.6131  -16.6099   21.0576 C   0  0  0  0  0  0  0  0  0  0  0  0
   11.9466  -16.5984   22.0865 O   0  0  0  0  0  0  0  0  0  0  0  0
   11.7579  -15.5570   22.7616 O   0  0  0  0  0  0  0  0  0  0  0  0
   15.1348  -14.8904   19.6194 N   0  0  0  0  0  0  0  0  0  0  0  0
   10.6770  -19.8064   26.9066 C   0  0  0  0  0  0  0  0  0  0  0  0
   11.7771  -19.4452   26.0955 O   0  0  0  0  0  0  0  0  0  0  0  0
   12.9157  -19.3217   26.5961 C   0  0  0  0  0  0  0  0  0  0  0  0
   11.5987  -19.2090   24.6500 C   0  0  1  0  0  0  0  0  0  0  0  0
   12.2207  -17.8728   24.2380 N   0  0  0  0  0  0  0  0  0  0  0  0
   12.1876  -17.8086   22.7932 C   0  0  0  0  0  0  0  0  0  0  0  0
   13.5914  -17.8633   24.7750 O   0  0  0  0  0  0  0  0  0  0  0  0
   14.6097  -18.2950   23.9308 O   0  0  0  0  0  0  0  0  0  0  0  0
  2  3  2  0
  2  1  1  0
  4  2  1  0
  5  4  1  0
  6  5  1  0
  7  6  1  0
  7  8  1  0
  8 10  1  0
  8  9  1  1
 10 11  2  0
 12 13  1  0
 12 10  1  0
 13 14  1  6
 15 14  1  0
 16 15  2  0
 17 18  2  0
 17 13  1  0
 19 15  1  0
 20 21  1  0
 21 22  2  0
 21 23  1  0
 24 23  1  1
 24 25  1  0
 24 26  1  0
 25 17  1  0
 26 27  1  0
 28 26  2  0
M  END
$$$$
