RDN.pdb
     RDKit          3D

 28 27  0  0  1  0  0  0  0  0999 V2000
    8.7083  -11.6579   19.1770 N   0  0  0  0  0  0  0  0  0  0  0  0
    8.3545  -12.8173   18.3944 C   0  0  0  0  0  0  0  0  0  0  0  0
    8.4426  -12.7125   17.1126 N   0  0  0  0  0  0  0  0  0  0  0  0
    7.9289  -14.0194   19.0003 N   0  0  0  0  0  0  0  0  0  0  0  0
    8.1231  -14.2474   20.4058 C   0  0  0  0  0  0  0  0  0  0  0  0
    7.5906  -15.6206   20.8013 C   0  0  0  0  0  0  0  0  0  0  0  0
    7.8371  -15.9167   22.2477 C   0  0  0  0  0  0  0  0  0  0  0  0
    9.2718  -16.1402   22.5965 C   0  0  2  0  0  0  0  0  0  0  0  0
   10.0871  -16.6225   21.5312 N   0  0  0  0  0  0  0  0  0  0  0  0
    9.3249  -17.1120   23.7264 C   0  0  0  0  0  0  0  0  0  0  0  0
    8.3611  -17.0944   24.5520 O   0  0  0  0  0  0  0  0  0  0  0  0
    8.2077  -13.4710   16.4555 N   0  0  0  0  0  0  0  0  0  0  0  0
   10.3776  -18.0346   23.9190 C   0  0  1  0  0  0  0  0  0  0  0  0
   10.4489  -18.8906   25.1093 C   0  0  0  0  0  0  0  0  0  0  0  0
   11.4297  -19.9960   24.7924 C   0  0  0  0  0  0  0  0  0  0  0  0
   11.6002  -20.9247   25.9375 O   0  0  0  0  0  0  0  0  0  0  0  0
   10.6566  -21.2296   26.6855 C   0  0  0  0  0  0  0  0  0  0  0  0
   10.8854  -18.0969   26.2897 O   0  0  0  0  0  0  0  0  0  0  0  0
   10.9543  -18.6423   27.4182 O   0  0  0  0  0  0  0  0  0  0  0  0
   12.8807  -21.4402   26.1322 N   0  0  0  0  0  0  0  0  0  0  0  0
    8.4337  -13.3388   28.3419 C   0  0  0  0  0  0  0  0  0  0  0  0
    9.6831  -13.9739   28.1570 O   0  0  0  0  0  0  0  0  0  0  0  0
   10.6369  -13.7240   28.9251 C   0  0  0  0  0  0  0  0  0  0  0  0
    9.8798  -14.9383   27.0578 C   0  0  2  0  0  0  0  0  0  0  0  0
   11.1101  -15.8112   27.3159 N   0  0  0  0  0  0  0  0  0  0  0  0
   11.2352  -16.7216   26.1987 C   0  0  0  0  0  0  0  0  0  0  0  0
   10.8721  -16.5072   28.5911 O   0  0  0  0  0  0  0  0  0  0  0  0
   10.0733  -17.6459   28.5563 O   0  0  0  0  0  0  0  0  0  0  0  0
  2  3  2  0
  2  1  1  0
  4  2  1  0
  5  4  1  0
  6  5  1  0
  7  6  1  0
  7  8  1  0
  8 10  1  0
  8  9  1  6
 10 11  2  0
 12 13  1  0
 12 10  1  0
 13 14  1  1
 15 14  1  0
 16 15  2  0
 17 18  2  0
 17 13  1  0
 19 15  1  0
 20 21  1  0
 21 22  2  0
 21 23  1  0
 24 23  1  6
 24 25  1  0
 24 26  1  0
 25 17  1  0
 26 27  1  0
 28 26  2  0
M  END
$$$$
