RDN.pdb
     RDKit          3D

 28 27  0  0  1  0  0  0  0  0999 V2000
    9.3692  -14.8356   18.1492 N   0  0  0  0  0  0  0  0  0  0  0  0
    8.4437  -13.8405   17.6641 C   0  0  0  0  0  0  0  0  0  0  0  0
    8.4247  -13.6229   16.3937 N   0  0  0  0  0  0  0  0  0  0  0  0
    7.5917  -13.1311   18.5383 N   0  0  0  0  0  0  0  0  0  0  0  0
    7.4224  -13.5468   19.9036 C   0  0  0  0  0  0  0  0  0  0  0  0
    7.1398  -15.0437   19.9735 C   0  0  0  0  0  0  0  0  0  0  0  0
    6.8220  -15.4846   21.3682 C   0  0  0  0  0  0  0  0  0  0  0  0
    6.6406  -16.9587   21.5236 C   0  0  2  0  0  0  0  0  0  0  0  0
    5.3153  -17.4338   21.2996 N   0  0  0  0  0  0  0  0  0  0  0  0
    7.0627  -17.3315   22.9044 C   0  0  0  0  0  0  0  0  0  0  0  0
    6.2484  -17.0848   23.8461 O   0  0  0  0  0  0  0  0  0  0  0  0
    7.8465  -12.8989   15.9423 N   0  0  0  0  0  0  0  0  0  0  0  0
    8.3033  -17.9351   23.2095 C   0  0  2  0  0  0  0  0  0  0  0  0
    8.7228  -18.1858   24.5937 C   0  0  0  0  0  0  0  0  0  0  0  0
    9.7838  -19.2607   24.5391 C   0  0  0  0  0  0  0  0  0  0  0  0
   10.2623  -19.6303   25.8946 O   0  0  0  0  0  0  0  0  0  0  0  0
    9.7024  -19.2222   26.9256 C   0  0  0  0  0  0  0  0  0  0  0  0
    9.2450  -16.9356   25.2087 O   0  0  0  0  0  0  0  0  0  0  0  0
   10.3639  -16.4873   24.8582 O   0  0  0  0  0  0  0  0  0  0  0  0
   11.3784  -20.4635   25.9522 N   0  0  0  0  0  0  0  0  0  0  0  0
    9.6259  -12.5598   27.9206 C   0  0  0  0  0  0  0  0  0  0  0  0
    8.2528  -12.8759   27.8059 O   0  0  0  0  0  0  0  0  0  0  0  0
    7.3840  -12.0457   28.1496 C   0  0  0  0  0  0  0  0  0  0  0  0
    7.8254  -14.1867   27.2804 C   0  0  2  0  0  0  0  0  0  0  0  0
    9.0307  -14.9959   26.7960 N   0  0  0  0  0  0  0  0  0  0  0  0
    8.5223  -16.2095   26.1948 C   0  0  0  0  0  0  0  0  0  0  0  0
    9.8661  -15.2561   27.9799 O   0  0  0  0  0  0  0  0  0  0  0  0
   10.5892  -14.1859   28.4973 O   0  0  0  0  0  0  0  0  0  0  0  0
  2  3  2  0
  2  1  1  0
  4  2  1  0
  5  4  1  0
  6  5  1  0
  7  6  1  0
  7  8  1  0
  8 10  1  0
  8  9  1  1
 10 11  2  0
 12 13  1  0
 12 10  1  0
 13 14  1  6
 15 14  1  0
 16 15  2  0
 17 18  2  0
 17 13  1  0
 19 15  1  0
 20 21  1  0
 21 22  2  0
 21 23  1  0
 24 23  1  6
 24 25  1  0
 24 26  1  0
 25 17  1  0
 26 27  1  0
 28 26  2  0
M  END
$$$$
