RDN.pdb
     RDKit          3D

 28 27  0  0  1  0  0  0  0  0999 V2000
    8.1434  -12.0510   18.5546 N   0  0  0  0  0  0  0  0  0  0  0  0
    8.0936  -13.4219   18.1074 C   0  0  0  0  0  0  0  0  0  0  0  0
    7.8783  -13.6252   16.8528 N   0  0  0  0  0  0  0  0  0  0  0  0
    8.2725  -14.5005   19.0007 N   0  0  0  0  0  0  0  0  0  0  0  0
    8.7065  -14.2761   20.3522 C   0  0  0  0  0  0  0  0  0  0  0  0
    7.5071  -14.0481   21.2659 C   0  0  0  0  0  0  0  0  0  0  0  0
    7.4257  -15.0826   22.3447 C   0  0  0  0  0  0  0  0  0  0  0  0
    7.9134  -16.4351   21.9413 C   0  0  2  0  0  0  0  0  0  0  0  0
    6.8927  -17.3785   21.6241 N   0  0  0  0  0  0  0  0  0  0  0  0
    8.7447  -16.9759   23.0551 C   0  0  0  0  0  0  0  0  0  0  0  0
    8.1390  -17.3220   24.1153 O   0  0  0  0  0  0  0  0  0  0  0  0
    7.9987  -14.5373   16.3884 N   0  0  0  0  0  0  0  0  0  0  0  0
   10.1489  -17.1187   22.9883 C   0  0  2  0  0  0  0  0  0  0  0  0
   10.9239  -17.6798   24.1016 C   0  0  0  0  0  0  0  0  0  0  0  0
   12.2905  -18.0193   23.5529 C   0  0  0  0  0  0  0  0  0  0  0  0
   13.1394  -18.6910   24.5684 O   0  0  0  0  0  0  0  0  0  0  0  0
   12.7285  -18.9334   25.7153 C   0  0  0  0  0  0  0  0  0  0  0  0
   11.0127  -16.6969   25.2150 O   0  0  0  0  0  0  0  0  0  0  0  0
   11.1531  -15.4757   24.9604 O   0  0  0  0  0  0  0  0  0  0  0  0
   14.4286  -19.0380   24.1674 N   0  0  0  0  0  0  0  0  0  0  0  0
    8.7658  -13.0894   28.4118 C   0  0  0  0  0  0  0  0  0  0  0  0
    9.7594  -14.0946   28.4408 O   0  0  0  0  0  0  0  0  0  0  0  0
   10.6296  -14.0950   29.3381 C   0  0  0  0  0  0  0  0  0  0  0  0
    9.7846  -15.1553   27.4156 C   0  0  2  0  0  0  0  0  0  0  0  0
   10.9456  -16.1213   27.6629 N   0  0  0  0  0  0  0  0  0  0  0  0
   10.9449  -17.0827   26.5820 C   0  0  0  0  0  0  0  0  0  0  0  0
   10.7035  -16.7428   28.9752 O   0  0  0  0  0  0  0  0  0  0  0  0
   10.9975  -15.9839   30.1038 O   0  0  0  0  0  0  0  0  0  0  0  0
  2  3  2  0
  2  1  1  0
  4  2  1  0
  5  4  1  0
  6  5  1  0
  7  6  1  0
  7  8  1  0
  8 10  1  0
  8  9  1  1
 10 11  2  0
 12 13  1  0
 12 10  1  0
 13 14  1  6
 15 14  1  0
 16 15  2  0
 17 18  2  0
 17 13  1  0
 19 15  1  0
 20 21  1  0
 21 22  2  0
 21 23  1  0
 24 23  1  6
 24 25  1  0
 24 26  1  0
 25 17  1  0
 26 27  1  0
 28 26  2  0
M  END
$$$$
