RDN.pdb
     RDKit          3D

 28 27  0  0  1  0  0  0  0  0999 V2000
    8.8901  -11.5197   19.9283 N   0  0  0  0  0  0  0  0  0  0  0  0
    9.0953  -12.9409   19.7863 C   0  0  0  0  0  0  0  0  0  0  0  0
    9.5594  -13.3596   18.6589 N   0  0  0  0  0  0  0  0  0  0  0  0
    8.8026  -13.8409   20.8340 N   0  0  0  0  0  0  0  0  0  0  0  0
    8.0051  -15.0132   20.5995 C   0  0  0  0  0  0  0  0  0  0  0  0
    6.6595  -14.8921   21.3066 C   0  0  0  0  0  0  0  0  0  0  0  0
    6.7376  -15.3448   22.7313 C   0  0  0  0  0  0  0  0  0  0  0  0
    7.1043  -16.7821   22.9033 C   0  0  2  0  0  0  0  0  0  0  0  0
    6.3594  -17.6981   22.1043 N   0  0  0  0  0  0  0  0  0  0  0  0
    6.9239  -17.1344   24.3410 C   0  0  0  0  0  0  0  0  0  0  0  0
    5.9833  -16.5553   24.9662 O   0  0  0  0  0  0  0  0  0  0  0  0
    9.6533  -14.3551   18.4091 N   0  0  0  0  0  0  0  0  0  0  0  0
    7.7349  -18.0649   25.0287 C   0  0  1  0  0  0  0  0  0  0  0  0
    7.2417  -18.8098   26.1934 C   0  0  0  0  0  0  0  0  0  0  0  0
    6.0985  -19.6706   25.7074 C   0  0  0  0  0  0  0  0  0  0  0  0
    6.5787  -20.8104   24.8869 O   0  0  0  0  0  0  0  0  0  0  0  0
    7.7672  -20.9208   24.5429 C   0  0  0  0  0  0  0  0  0  0  0  0
    8.3337  -19.6340   26.7785 O   0  0  0  0  0  0  0  0  0  0  0  0
    8.0768  -20.4496   27.6974 O   0  0  0  0  0  0  0  0  0  0  0  0
    5.6227  -21.7561   24.5196 N   0  0  0  0  0  0  0  0  0  0  0  0
   12.0004  -18.0941   23.9998 C   0  0  0  0  0  0  0  0  0  0  0  0
   12.1123  -18.8556   25.1856 O   0  0  0  0  0  0  0  0  0  0  0  0
   12.5464  -20.0269   25.1439 C   0  0  0  0  0  0  0  0  0  0  0  0
   11.7194  -18.2813   26.4866 C   0  0  2  0  0  0  0  0  0  0  0  0
   10.7738  -19.2254   27.2329 N   0  0  0  0  0  0  0  0  0  0  0  0
    9.6823  -19.5397   26.3373 C   0  0  0  0  0  0  0  0  0  0  0  0
   10.3294  -18.5085   28.4395 O   0  0  0  0  0  0  0  0  0  0  0  0
   10.5314  -19.1363   29.6646 O   0  0  0  0  0  0  0  0  0  0  0  0
  2  3  2  0
  2  1  1  0
  4  2  1  0
  5  4  1  0
  6  5  1  0
  7  6  1  0
  7  8  1  0
  8 10  1  0
  8  9  1  6
 10 11  2  0
 12 13  1  0
 12 10  1  0
 13 14  1  6
 15 14  1  0
 16 15  2  0
 17 18  2  0
 17 13  1  0
 19 15  1  0
 20 21  1  0
 21 22  2  0
 21 23  1  0
 24 23  1  6
 24 25  1  0
 24 26  1  0
 25 17  1  0
 26 27  1  0
 28 26  2  0
M  END
$$$$
