RDN.pdb
     RDKit          3D

 28 27  0  0  1  0  0  0  0  0999 V2000
    9.7582  -13.8659   18.6597 N   0  0  0  0  0  0  0  0  0  0  0  0
    8.9837  -12.8701   19.3601 C   0  0  0  0  0  0  0  0  0  0  0  0
    9.6065  -11.8168   19.7656 N   0  0  0  0  0  0  0  0  0  0  0  0
    7.6014  -13.0356   19.5949 N   0  0  0  0  0  0  0  0  0  0  0  0
    7.1222  -13.5661   20.8416 C   0  0  0  0  0  0  0  0  0  0  0  0
    7.1053  -15.0904   20.8004 C   0  0  0  0  0  0  0  0  0  0  0  0
    6.6448  -15.6763   22.0986 C   0  0  0  0  0  0  0  0  0  0  0  0
    6.5877  -17.1684   22.1169 C   0  0  2  0  0  0  0  0  0  0  0  0
    5.4498  -17.7399   21.4760 N   0  0  0  0  0  0  0  0  0  0  0  0
    6.6171  -17.6128   23.5401 C   0  0  0  0  0  0  0  0  0  0  0  0
    5.5717  -17.4131   24.2316 O   0  0  0  0  0  0  0  0  0  0  0  0
    9.1558  -11.0410   20.2727 N   0  0  0  0  0  0  0  0  0  0  0  0
    7.7325  -18.2341   24.1453 C   0  0  1  0  0  0  0  0  0  0  0  0
    7.6640  -18.8011   25.4975 C   0  0  0  0  0  0  0  0  0  0  0  0
    8.1540  -20.2272   25.3969 C   0  0  0  0  0  0  0  0  0  0  0  0
    8.1555  -20.9026   26.7186 O   0  0  0  0  0  0  0  0  0  0  0  0
    7.1766  -20.8601   27.4820 C   0  0  0  0  0  0  0  0  0  0  0  0
    8.5000  -18.0026   26.4343 O   0  0  0  0  0  0  0  0  0  0  0  0
    8.6958  -18.4155   27.6035 O   0  0  0  0  0  0  0  0  0  0  0  0
    9.3182  -21.5908   27.0618 N   0  0  0  0  0  0  0  0  0  0  0  0
   10.5520  -12.9033   28.1518 C   0  0  0  0  0  0  0  0  0  0  0  0
   10.0049  -14.1497   28.5336 O   0  0  0  0  0  0  0  0  0  0  0  0
   10.2214  -14.6099   29.6753 C   0  0  0  0  0  0  0  0  0  0  0  0
    9.1727  -14.9241   27.5931 C   0  0  1  0  0  0  0  0  0  0  0  0
    9.9901  -16.0394   26.9372 N   0  0  0  0  0  0  0  0  0  0  0  0
    9.0999  -16.7687   26.0608 C   0  0  0  0  0  0  0  0  0  0  0  0
   10.5183  -16.8723   28.0302 O   0  0  0  0  0  0  0  0  0  0  0  0
   11.6516  -16.4109   28.6925 O   0  0  0  0  0  0  0  0  0  0  0  0
  2  3  2  0
  2  1  1  0
  4  2  1  0
  5  4  1  0
  6  5  1  0
  7  6  1  0
  7  8  1  0
  8 10  1  0
  8  9  1  1
 10 11  2  0
 12 13  1  0
 12 10  1  0
 13 14  1  1
 15 14  1  0
 16 15  2  0
 17 18  2  0
 17 13  1  0
 19 15  1  0
 20 21  1  0
 21 22  2  0
 21 23  1  0
 24 23  1  6
 24 25  1  0
 24 26  1  0
 25 17  1  0
 26 27  1  0
 28 26  2  0
M  END
$$$$
