RDN.pdb
     RDKit          3D

 28 27  0  0  1  0  0  0  0  0999 V2000
    7.5999  -11.3517   19.6606 N   0  0  0  0  0  0  0  0  0  0  0  0
    8.4973  -12.4323   19.3304 C   0  0  0  0  0  0  0  0  0  0  0  0
    9.7555  -12.2357   19.5305 N   0  0  0  0  0  0  0  0  0  0  0  0
    8.0243  -13.6565   18.8098 N   0  0  0  0  0  0  0  0  0  0  0  0
    8.7475  -14.8795   19.0252 C   0  0  0  0  0  0  0  0  0  0  0  0
    8.5797  -15.3509   20.4657 C   0  0  0  0  0  0  0  0  0  0  0  0
    9.3781  -16.5864   20.7427 C   0  0  0  0  0  0  0  0  0  0  0  0
   10.8498  -16.4277   20.5455 C   0  0  2  0  0  0  0  0  0  0  0  0
   11.2787  -16.3851   19.1866 N   0  0  0  0  0  0  0  0  0  0  0  0
   11.5314  -17.5613   21.2341 C   0  0  0  0  0  0  0  0  0  0  0  0
   10.8447  -18.2329   22.0638 O   0  0  0  0  0  0  0  0  0  0  0  0
   10.4804  -12.9540   19.3869 N   0  0  0  0  0  0  0  0  0  0  0  0
   12.8806  -17.9174   21.0118 C   0  0  2  0  0  0  0  0  0  0  0  0
   13.5069  -19.0497   21.7049 C   0  0  0  0  0  0  0  0  0  0  0  0
   14.8064  -19.3341   20.9876 C   0  0  0  0  0  0  0  0  0  0  0  0
   15.4559  -20.5684   21.4953 O   0  0  0  0  0  0  0  0  0  0  0  0
   14.7994  -21.5643   21.8418 C   0  0  0  0  0  0  0  0  0  0  0  0
   13.7367  -18.7147   23.1363 O   0  0  0  0  0  0  0  0  0  0  0  0
   14.8772  -18.3554   23.5183 O   0  0  0  0  0  0  0  0  0  0  0  0
   16.8481  -20.5531   21.5641 N   0  0  0  0  0  0  0  0  0  0  0  0
   12.0921  -19.9240   27.9751 C   0  0  0  0  0  0  0  0  0  0  0  0
   11.3909  -20.6207   26.9644 O   0  0  0  0  0  0  0  0  0  0  0  0
   10.4450  -21.3813   27.2633 C   0  0  0  0  0  0  0  0  0  0  0  0
   11.7635  -20.4614   25.5458 C   0  0  2  0  0  0  0  0  0  0  0  0
   12.8864  -19.4329   25.3921 N   0  0  0  0  0  0  0  0  0  0  0  0
   12.7048  -18.7837   24.1123 C   0  0  0  0  0  0  0  0  0  0  0  0
   14.1535  -20.1777   25.4759 O   0  0  0  0  0  0  0  0  0  0  0  0
   15.1688  -19.6234   26.2491 O   0  0  0  0  0  0  0  0  0  0  0  0
  2  3  2  0
  2  1  1  0
  4  2  1  0
  5  4  1  0
  6  5  1  0
  7  6  1  0
  7  8  1  0
  8 10  1  0
  8  9  1  6
 10 11  2  0
 12 13  1  0
 12 10  1  0
 13 14  1  6
 15 14  1  0
 16 15  2  0
 17 18  2  0
 17 13  1  0
 19 15  1  0
 20 21  1  0
 21 22  2  0
 21 23  1  0
 24 23  1  1
 24 25  1  0
 24 26  1  0
 25 17  1  0
 26 27  1  0
 28 26  2  0
M  END
$$$$
