RDN.pdb
     RDKit          3D

 28 27  0  0  1  0  0  0  0  0999 V2000
    7.5459  -11.9914   18.3454 N   0  0  0  0  0  0  0  0  0  0  0  0
    7.7843  -13.3570   17.9452 C   0  0  0  0  0  0  0  0  0  0  0  0
    8.4032  -13.5449   16.8301 N   0  0  0  0  0  0  0  0  0  0  0  0
    7.3606  -14.4467   18.7367 N   0  0  0  0  0  0  0  0  0  0  0  0
    6.6999  -14.2331   19.9949 C   0  0  0  0  0  0  0  0  0  0  0  0
    7.6970  -13.7572   21.0460 C   0  0  0  0  0  0  0  0  0  0  0  0
    7.8862  -14.7705   22.1314 C   0  0  0  0  0  0  0  0  0  0  0  0
    8.6283  -15.9958   21.7097 C   0  0  2  0  0  0  0  0  0  0  0  0
    7.8168  -17.0511   21.1996 N   0  0  0  0  0  0  0  0  0  0  0  0
    9.3941  -16.4982   22.8866 C   0  0  0  0  0  0  0  0  0  0  0  0
    8.7354  -17.0841   23.7997 O   0  0  0  0  0  0  0  0  0  0  0  0
    8.5947  -14.4741   16.4275 N   0  0  0  0  0  0  0  0  0  0  0  0
   10.7923  -16.3558   23.0319 C   0  0  2  0  0  0  0  0  0  0  0  0
   11.4915  -16.7812   24.2504 C   0  0  0  0  0  0  0  0  0  0  0  0
   12.9608  -16.8579   23.9048 C   0  0  0  0  0  0  0  0  0  0  0  0
   13.2114  -17.7821   22.7708 O   0  0  0  0  0  0  0  0  0  0  0  0
   12.6352  -18.8782   22.6737 C   0  0  0  0  0  0  0  0  0  0  0  0
   11.2410  -15.8141   25.3529 O   0  0  0  0  0  0  0  0  0  0  0  0
   10.7061  -14.7064   25.1026 O   0  0  0  0  0  0  0  0  0  0  0  0
   14.1318  -17.3551   21.8148 N   0  0  0  0  0  0  0  0  0  0  0  0
    7.7724  -13.4122   27.4729 C   0  0  0  0  0  0  0  0  0  0  0  0
    9.1028  -13.8841   27.3963 O   0  0  0  0  0  0  0  0  0  0  0  0
   10.0598  -13.0812   27.4392 C   0  0  0  0  0  0  0  0  0  0  0  0
    9.3813  -15.3270   27.2649 C   0  0  2  0  0  0  0  0  0  0  0  0
   10.7674  -15.6646   27.8190 N   0  0  0  0  0  0  0  0  0  0  0  0
   11.5857  -16.0902   26.7046 C   0  0  0  0  0  0  0  0  0  0  0  0
   10.5733  -16.7273   28.8190 O   0  0  0  0  0  0  0  0  0  0  0  0
   10.6283  -16.3588   30.1595 O   0  0  0  0  0  0  0  0  0  0  0  0
  2  3  2  0
  2  1  1  0
  4  2  1  0
  5  4  1  0
  6  5  1  0
  7  6  1  0
  7  8  1  0
  8 10  1  0
  8  9  1  1
 10 11  2  0
 12 13  1  0
 12 10  1  0
 13 14  1  1
 15 14  1  0
 16 15  2  0
 17 18  2  0
 17 13  1  0
 19 15  1  0
 20 21  1  0
 21 22  2  0
 21 23  1  0
 24 23  1  6
 24 25  1  0
 24 26  1  0
 25 17  1  0
 26 27  1  0
 28 26  2  0
M  END
$$$$
