RDN.pdb
     RDKit          3D

 28 27  0  0  1  0  0  0  0  0999 V2000
    8.9386  -10.9858   19.7342 N   0  0  0  0  0  0  0  0  0  0  0  0
    8.2870  -12.2063   19.3246 C   0  0  0  0  0  0  0  0  0  0  0  0
    8.5109  -12.6198   18.1243 N   0  0  0  0  0  0  0  0  0  0  0  0
    7.4387  -12.9229   20.1964 N   0  0  0  0  0  0  0  0  0  0  0  0
    7.9329  -14.0369   20.9580 C   0  0  0  0  0  0  0  0  0  0  0  0
    8.4383  -15.1352   20.0286 C   0  0  0  0  0  0  0  0  0  0  0  0
    9.0173  -16.2857   20.7913 C   0  0  0  0  0  0  0  0  0  0  0  0
   10.3024  -15.9805   21.4880 C   0  0  2  0  0  0  0  0  0  0  0  0
   11.3437  -15.4843   20.6504 N   0  0  0  0  0  0  0  0  0  0  0  0
   10.7710  -17.2282   22.1571 C   0  0  0  0  0  0  0  0  0  0  0  0
    9.9127  -17.8885   22.8191 O   0  0  0  0  0  0  0  0  0  0  0  0
    8.0876  -13.4677   17.7192 N   0  0  0  0  0  0  0  0  0  0  0  0
   12.1004  -17.7022   22.0910 C   0  0  1  0  0  0  0  0  0  0  0  0
   12.5324  -18.9004   22.8206 C   0  0  0  0  0  0  0  0  0  0  0  0
   13.8811  -19.2888   22.2599 C   0  0  0  0  0  0  0  0  0  0  0  0
   14.4293  -20.4937   22.9311 O   0  0  0  0  0  0  0  0  0  0  0  0
   15.6077  -20.5536   23.3193 C   0  0  0  0  0  0  0  0  0  0  0  0
   12.6102  -18.6160   24.2790 O   0  0  0  0  0  0  0  0  0  0  0  0
   13.4390  -17.7766   24.7083 O   0  0  0  0  0  0  0  0  0  0  0  0
   13.5495  -21.5610   23.1047 N   0  0  0  0  0  0  0  0  0  0  0  0
   11.9288  -19.0867   29.4032 C   0  0  0  0  0  0  0  0  0  0  0  0
   10.6656  -19.1454   28.7711 O   0  0  0  0  0  0  0  0  0  0  0  0
    9.6186  -19.1450   29.4539 C   0  0  0  0  0  0  0  0  0  0  0  0
   10.5640  -19.2079   27.3006 C   0  0  1  0  0  0  0  0  0  0  0  0
   11.9483  -19.1036   26.6563 N   0  0  0  0  0  0  0  0  0  0  0  0
   11.7733  -19.2630   25.2293 C   0  0  0  0  0  0  0  0  0  0  0  0
   12.7701  -20.1710   27.2500 O   0  0  0  0  0  0  0  0  0  0  0  0
   13.2955  -19.9406   28.5176 O   0  0  0  0  0  0  0  0  0  0  0  0
  2  3  2  0
  2  1  1  0
  4  2  1  0
  5  4  1  0
  6  5  1  0
  7  6  1  0
  7  8  1  0
  8 10  1  0
  8  9  1  6
 10 11  2  0
 12 13  1  0
 12 10  1  0
 13 14  1  6
 15 14  1  0
 16 15  2  0
 17 18  2  0
 17 13  1  0
 19 15  1  0
 20 21  1  0
 21 22  2  0
 21 23  1  0
 24 23  1  6
 24 25  1  0
 24 26  1  0
 25 17  1  0
 26 27  1  0
 28 26  2  0
M  END
$$$$
