RDN.pdb
     RDKit          3D

 28 27  0  0  1  0  0  0  0  0999 V2000
    6.7766  -13.9193   14.1992 N   0  0  0  0  0  0  0  0  0  0  0  0
    7.4240  -13.5769   15.4424 C   0  0  0  0  0  0  0  0  0  0  0  0
    7.4108  -12.3362   15.7917 N   0  0  0  0  0  0  0  0  0  0  0  0
    8.0478  -14.5546   16.2476 N   0  0  0  0  0  0  0  0  0  0  0  0
    7.5871  -14.8148   17.5838 C   0  0  0  0  0  0  0  0  0  0  0  0
    7.6810  -13.5529   18.4348 C   0  0  0  0  0  0  0  0  0  0  0  0
    8.3486  -13.8167   19.7483 C   0  0  0  0  0  0  0  0  0  0  0  0
    9.0903  -15.1111   19.8149 C   0  0  2  0  0  0  0  0  0  0  0  0
    8.2720  -16.2767   19.8795 N   0  0  0  0  0  0  0  0  0  0  0  0
    9.9759  -15.0730   21.0141 C   0  0  0  0  0  0  0  0  0  0  0  0
   10.5846  -13.9848   21.2510 O   0  0  0  0  0  0  0  0  0  0  0  0
    7.8196  -11.9806   16.6684 N   0  0  0  0  0  0  0  0  0  0  0  0
   10.1670  -16.1703   21.8836 C   0  0  1  0  0  0  0  0  0  0  0  0
   11.1126  -16.1142   23.0049 C   0  0  0  0  0  0  0  0  0  0  0  0
   10.6504  -17.1382   24.0158 C   0  0  0  0  0  0  0  0  0  0  0  0
   11.4198  -17.0472   25.2818 O   0  0  0  0  0  0  0  0  0  0  0  0
   12.3326  -16.2200   25.4406 C   0  0  0  0  0  0  0  0  0  0  0  0
   12.4930  -16.4020   22.5301 O   0  0  0  0  0  0  0  0  0  0  0  0
   12.8747  -17.5912   22.4035 O   0  0  0  0  0  0  0  0  0  0  0  0
   11.0639  -17.9426   26.2892 N   0  0  0  0  0  0  0  0  0  0  0  0
   13.7107  -15.5815   19.3458 C   0  0  0  0  0  0  0  0  0  0  0  0
   14.6388  -14.5593   19.6497 O   0  0  0  0  0  0  0  0  0  0  0  0
   14.9224  -13.6914   18.7961 C   0  0  0  0  0  0  0  0  0  0  0  0
   15.2850  -14.5016   20.9748 C   0  0  2  0  0  0  0  0  0  0  0  0
   14.7987  -15.6470   21.8658 N   0  0  0  0  0  0  0  0  0  0  0  0
   13.4198  -15.3732   22.2063 C   0  0  0  0  0  0  0  0  0  0  0  0
   15.6810  -15.6670   23.0441 O   0  0  0  0  0  0  0  0  0  0  0  0
   17.0232  -15.9650   22.8303 O   0  0  0  0  0  0  0  0  0  0  0  0
  2  3  2  0
  2  1  1  0
  4  2  1  0
  5  4  1  0
  6  5  1  0
  7  6  1  0
  7  8  1  0
  8 10  1  0
  8  9  1  1
 10 11  2  0
 12 13  1  0
 12 10  1  0
 13 14  1  6
 15 14  1  0
 16 15  2  0
 17 18  2  0
 17 13  1  0
 19 15  1  0
 20 21  1  0
 21 22  2  0
 21 23  1  0
 24 23  1  6
 24 25  1  0
 24 26  1  0
 25 17  1  0
 26 27  1  0
 28 26  2  0
M  END
$$$$
