RDN.pdb
     RDKit          3D

 28 27  0  0  1  0  0  0  0  0999 V2000
   10.9728  -12.9271   18.2463 N   0  0  0  0  0  0  0  0  0  0  0  0
    9.6665  -13.4887   18.0018 C   0  0  0  0  0  0  0  0  0  0  0  0
    9.6130  -14.5827   17.3221 N   0  0  0  0  0  0  0  0  0  0  0  0
    8.4917  -12.8716   18.4840 N   0  0  0  0  0  0  0  0  0  0  0  0
    8.1135  -12.9813   19.8661 C   0  0  0  0  0  0  0  0  0  0  0  0
    7.1082  -14.1123   20.0552 C   0  0  0  0  0  0  0  0  0  0  0  0
    7.3485  -14.8622   21.3282 C   0  0  0  0  0  0  0  0  0  0  0  0
    8.7136  -15.4556   21.4471 C   0  0  2  0  0  0  0  0  0  0  0  0
    9.0729  -16.3639   20.4086 N   0  0  0  0  0  0  0  0  0  0  0  0
    8.7965  -16.1607   22.7585 C   0  0  0  0  0  0  0  0  0  0  0  0
    8.1755  -15.6416   23.7361 O   0  0  0  0  0  0  0  0  0  0  0  0
    8.7376  -15.0064   16.9811 N   0  0  0  0  0  0  0  0  0  0  0  0
    9.5202  -17.3571   22.9617 C   0  0  1  0  0  0  0  0  0  0  0  0
    9.6817  -17.9473   24.2960 C   0  0  0  0  0  0  0  0  0  0  0  0
   10.3015  -19.3112   24.0966 C   0  0  0  0  0  0  0  0  0  0  0  0
   10.4692  -20.0323   25.3831 O   0  0  0  0  0  0  0  0  0  0  0  0
   10.1378  -19.5290   26.4692 C   0  0  0  0  0  0  0  0  0  0  0  0
   10.5406  -17.0773   25.1441 O   0  0  0  0  0  0  0  0  0  0  0  0
   11.2756  -16.2123   24.6081 O   0  0  0  0  0  0  0  0  0  0  0  0
   11.0209  -21.3104   25.3100 N   0  0  0  0  0  0  0  0  0  0  0  0
   10.1805  -13.8060   29.0037 C   0  0  0  0  0  0  0  0  0  0  0  0
    9.2343  -14.0163   27.9746 O   0  0  0  0  0  0  0  0  0  0  0  0
    8.3150  -13.1909   27.7853 C   0  0  0  0  0  0  0  0  0  0  0  0
    9.3172  -15.2096   27.1110 C   0  0  2  0  0  0  0  0  0  0  0  0
   10.5752  -16.0218   27.4272 N   0  0  0  0  0  0  0  0  0  0  0  0
   10.5693  -17.1811   26.5620 C   0  0  0  0  0  0  0  0  0  0  0  0
   10.4986  -16.3778   28.8536 O   0  0  0  0  0  0  0  0  0  0  0  0
   10.9498  -15.4342   29.7711 O   0  0  0  0  0  0  0  0  0  0  0  0
  2  3  2  0
  2  1  1  0
  4  2  1  0
  5  4  1  0
  6  5  1  0
  7  6  1  0
  7  8  1  0
  8 10  1  0
  8  9  1  6
 10 11  2  0
 12 13  1  0
 12 10  1  0
 13 14  1  1
 15 14  1  0
 16 15  2  0
 17 18  2  0
 17 13  1  0
 19 15  1  0
 20 21  1  0
 21 22  2  0
 21 23  1  0
 24 23  1  6
 24 25  1  0
 24 26  1  0
 25 17  1  0
 26 27  1  0
 28 26  2  0
M  END
$$$$
