RDN.pdb
     RDKit          3D

 28 27  0  0  1  0  0  0  0  0999 V2000
    8.4831  -11.8873   19.0316 N   0  0  0  0  0  0  0  0  0  0  0  0
    7.6403  -12.9635   18.5696 C   0  0  0  0  0  0  0  0  0  0  0  0
    6.4661  -13.0589   19.0930 N   0  0  0  0  0  0  0  0  0  0  0  0
    8.0766  -13.8773   17.5858 N   0  0  0  0  0  0  0  0  0  0  0  0
    8.1692  -15.2826   17.8720 C   0  0  0  0  0  0  0  0  0  0  0  0
    8.0229  -15.5320   19.3693 C   0  0  0  0  0  0  0  0  0  0  0  0
    9.2133  -16.2430   19.9332 C   0  0  0  0  0  0  0  0  0  0  0  0
    8.9613  -17.6658   20.3102 C   0  0  2  0  0  0  0  0  0  0  0  0
    7.8126  -17.8829   21.1261 N   0  0  0  0  0  0  0  0  0  0  0  0
   10.1674  -18.1731   21.0256 C   0  0  0  0  0  0  0  0  0  0  0  0
   10.3294  -17.7978   22.2272 O   0  0  0  0  0  0  0  0  0  0  0  0
    5.8117  -13.8317   18.9017 N   0  0  0  0  0  0  0  0  0  0  0  0
   11.1216  -19.0356   20.4409 C   0  0  1  0  0  0  0  0  0  0  0  0
   12.4019  -19.3314   21.0953 C   0  0  0  0  0  0  0  0  0  0  0  0
   12.9342  -20.5948   20.4592 C   0  0  0  0  0  0  0  0  0  0  0  0
   14.0350  -21.1903   21.2570 O   0  0  0  0  0  0  0  0  0  0  0  0
   14.4301  -20.6810   22.3188 C   0  0  0  0  0  0  0  0  0  0  0  0
   13.3452  -18.1942   20.9202 O   0  0  0  0  0  0  0  0  0  0  0  0
   13.9038  -18.0111   19.8111 O   0  0  0  0  0  0  0  0  0  0  0  0
   14.6063  -22.3570   20.7512 N   0  0  0  0  0  0  0  0  0  0  0  0
   12.1600  -13.9566   20.2954 C   0  0  0  0  0  0  0  0  0  0  0  0
   13.4178  -14.5751   20.4793 O   0  0  0  0  0  0  0  0  0  0  0  0
   14.1350  -14.8504   19.4933 C   0  0  0  0  0  0  0  0  0  0  0  0
   13.9019  -14.9042   21.8336 C   0  0  2  0  0  0  0  0  0  0  0  0
   14.6434  -16.2430   21.8342 N   0  0  0  0  0  0  0  0  0  0  0  0
   13.6506  -17.2861   21.9711 C   0  0  0  0  0  0  0  0  0  0  0  0
   15.5838  -16.2026   22.9661 O   0  0  0  0  0  0  0  0  0  0  0  0
   15.4100  -17.1469   23.9731 O   0  0  0  0  0  0  0  0  0  0  0  0
  2  3  2  0
  2  1  1  0
  4  2  1  0
  5  4  1  0
  6  5  1  0
  7  6  1  0
  7  8  1  0
  8 10  1  0
  8  9  1  1
 10 11  2  0
 12 13  1  0
 12 10  1  0
 13 14  1  6
 15 14  1  0
 16 15  2  0
 17 18  2  0
 17 13  1  0
 19 15  1  0
 20 21  1  0
 21 22  2  0
 21 23  1  0
 24 23  1  6
 24 25  1  0
 24 26  1  0
 25 17  1  0
 26 27  1  0
 28 26  2  0
M  END
$$$$
