RDN.pdb
     RDKit          3D

 28 27  0  0  1  0  0  0  0  0999 V2000
    7.1466  -13.0258   19.1467 N   0  0  0  0  0  0  0  0  0  0  0  0
    7.9920  -13.5044   18.0798 C   0  0  0  0  0  0  0  0  0  0  0  0
    9.1881  -13.0280   18.0167 N   0  0  0  0  0  0  0  0  0  0  0  0
    7.5351  -14.4546   17.1409 N   0  0  0  0  0  0  0  0  0  0  0  0
    7.6281  -15.8632   17.4104 C   0  0  0  0  0  0  0  0  0  0  0  0
    9.0068  -16.3892   17.0257 C   0  0  0  0  0  0  0  0  0  0  0  0
    9.4075  -17.5628   17.8638 C   0  0  0  0  0  0  0  0  0  0  0  0
    9.4827  -17.2790   19.3280 C   0  0  2  0  0  0  0  0  0  0  0  0
    8.8634  -16.0639   19.7431 N   0  0  0  0  0  0  0  0  0  0  0  0
   10.9218  -17.2479   19.7177 C   0  0  0  0  0  0  0  0  0  0  0  0
   11.6035  -18.2967   19.5028 O   0  0  0  0  0  0  0  0  0  0  0  0
    9.8336  -13.1951   17.2309 N   0  0  0  0  0  0  0  0  0  0  0  0
   11.5518  -16.1274   20.3042 C   0  0  2  0  0  0  0  0  0  0  0  0
   12.8881  -16.2168   20.9051 C   0  0  0  0  0  0  0  0  0  0  0  0
   13.6254  -14.9561   20.5166 C   0  0  0  0  0  0  0  0  0  0  0  0
   14.0761  -14.9962   19.1031 O   0  0  0  0  0  0  0  0  0  0  0  0
   14.2802  -16.0662   18.5061 C   0  0  0  0  0  0  0  0  0  0  0  0
   12.7808  -16.3517   22.3830 O   0  0  0  0  0  0  0  0  0  0  0  0
   13.7153  -15.9463   23.1167 O   0  0  0  0  0  0  0  0  0  0  0  0
   14.2601  -13.7650   18.4758 N   0  0  0  0  0  0  0  0  0  0  0  0
   10.8720  -14.4160   23.9405 C   0  0  0  0  0  0  0  0  0  0  0  0
    9.8442  -15.2200   24.4843 O   0  0  0  0  0  0  0  0  0  0  0  0
    8.7073  -14.7403   24.6834 C   0  0  0  0  0  0  0  0  0  0  0  0
   10.0969  -16.6333   24.8242 C   0  0  2  0  0  0  0  0  0  0  0  0
   11.5275  -17.0325   24.4551 N   0  0  0  0  0  0  0  0  0  0  0  0
   11.6469  -16.9298   23.0172 C   0  0  0  0  0  0  0  0  0  0  0  0
   11.7198  -18.4079   24.9436 O   0  0  0  0  0  0  0  0  0  0  0  0
   11.8081  -18.5887   26.3204 O   0  0  0  0  0  0  0  0  0  0  0  0
  2  3  2  0
  2  1  1  0
  4  2  1  0
  5  4  1  0
  6  5  1  0
  7  6  1  0
  7  8  1  0
  8 10  1  0
  8  9  1  6
 10 11  2  0
 12 13  1  0
 12 10  1  0
 13 14  1  6
 15 14  1  0
 16 15  2  0
 17 18  2  0
 17 13  1  0
 19 15  1  0
 20 21  1  0
 21 22  2  0
 21 23  1  0
 24 23  1  1
 24 25  1  0
 24 26  1  0
 25 17  1  0
 26 27  1  0
 28 26  2  0
M  END
$$$$
