RDN.pdb
     RDKit          3D

 28 27  0  0  1  0  0  0  0  0999 V2000
    7.2717  -12.9189   17.0611 N   0  0  0  0  0  0  0  0  0  0  0  0
    8.1398  -14.0048   17.4471 C   0  0  0  0  0  0  0  0  0  0  0  0
    8.2756  -14.9766   16.6111 N   0  0  0  0  0  0  0  0  0  0  0  0
    8.8156  -14.0095   18.6867 N   0  0  0  0  0  0  0  0  0  0  0  0
    8.4941  -13.0498   19.7070 C   0  0  0  0  0  0  0  0  0  0  0  0
    7.2673  -13.4992   20.4934 C   0  0  0  0  0  0  0  0  0  0  0  0
    7.5409  -14.7358   21.2912 C   0  0  0  0  0  0  0  0  0  0  0  0
    8.7940  -14.6831   22.1017 C   0  0  2  0  0  0  0  0  0  0  0  0
   10.0025  -14.6277   21.3475 N   0  0  0  0  0  0  0  0  0  0  0  0
    8.8251  -15.8878   22.9801 C   0  0  0  0  0  0  0  0  0  0  0  0
    8.2633  -16.9387   22.5431 O   0  0  0  0  0  0  0  0  0  0  0  0
    8.8909  -15.7885   16.7672 N   0  0  0  0  0  0  0  0  0  0  0  0
    9.4386  -15.9154   24.2526 C   0  0  2  0  0  0  0  0  0  0  0  0
   10.2720  -17.0434   24.6862 C   0  0  0  0  0  0  0  0  0  0  0  0
   11.3833  -17.1790   23.6710 C   0  0  0  0  0  0  0  0  0  0  0  0
   12.2817  -18.3170   23.9881 O   0  0  0  0  0  0  0  0  0  0  0  0
   11.8433  -19.4433   24.2749 C   0  0  0  0  0  0  0  0  0  0  0  0
   10.8087  -16.7931   26.0512 O   0  0  0  0  0  0  0  0  0  0  0  0
   11.6319  -17.5954   26.5555 O   0  0  0  0  0  0  0  0  0  0  0  0
   13.6505  -18.0562   23.9475 N   0  0  0  0  0  0  0  0  0  0  0  0
    7.9795  -13.4310   27.6405 C   0  0  0  0  0  0  0  0  0  0  0  0
    9.3861  -13.5484   27.7196 O   0  0  0  0  0  0  0  0  0  0  0  0
   10.1145  -12.9752   26.8810 C   0  0  0  0  0  0  0  0  0  0  0  0
   10.0139  -14.3469   28.7896 C   0  0  2  0  0  0  0  0  0  0  0  0
   10.8518  -15.4829   28.1981 N   0  0  0  0  0  0  0  0  0  0  0  0
   10.4256  -15.6651   26.8278 C   0  0  0  0  0  0  0  0  0  0  0  0
   10.6010  -16.6693   29.0329 O   0  0  0  0  0  0  0  0  0  0  0  0
   10.9951  -16.6055   30.3658 O   0  0  0  0  0  0  0  0  0  0  0  0
  2  3  2  0
  2  1  1  0
  4  2  1  0
  5  4  1  0
  6  5  1  0
  7  6  1  0
  7  8  1  0
  8 10  1  0
  8  9  1  6
 10 11  2  0
 12 13  1  0
 12 10  1  0
 13 14  1  1
 15 14  1  0
 16 15  2  0
 17 18  2  0
 17 13  1  0
 19 15  1  0
 20 21  1  0
 21 22  2  0
 21 23  1  0
 24 23  1  6
 24 25  1  0
 24 26  1  0
 25 17  1  0
 26 27  1  0
 28 26  2  0
M  END
$$$$
