QNI.pdb
     RDKit          3D

 26 25  0  0  1  0  0  0  0  0999 V2000
    8.6914  -12.6093   18.1105 N   0  0  0  0  0  0  0  0  0  0  0  0
    8.1395  -13.5941   17.2136 C   0  0  0  0  0  0  0  0  0  0  0  0
    8.5003  -13.5008   16.0308 O   0  0  0  0  0  0  0  0  0  0  0  0
    7.2182  -14.6128   17.7070 C   0  0  0  0  0  0  0  0  0  0  0  0
    7.0207  -14.6972   19.1840 C   0  0  0  0  0  0  0  0  0  0  0  0
    8.1497  -15.3106   19.9557 C   0  0  2  0  0  0  0  0  0  0  0  0
    8.7239  -16.4363   19.3265 N   0  0  0  0  0  0  0  0  0  0  0  0
    7.7336  -15.5538   21.3923 C   0  0  0  0  0  0  0  0  0  0  0  0
    7.1054  -14.6358   21.9614 O   0  0  0  0  0  0  0  0  0  0  0  0
    5.9866  -18.8789   25.5767 N   0  0  0  0  0  0  0  0  0  0  0  0
    7.3241  -18.7769   25.1271 C   0  0  0  0  0  0  0  0  0  0  0  0
    8.2575  -18.8326   25.9803 O   0  0  0  0  0  0  0  0  0  0  0  0
    7.5940  -18.6072   23.6671 C   0  0  0  0  0  0  0  0  0  0  0  0
    7.7341  -17.1157   23.4134 C   0  0  2  0  0  0  0  0  0  0  0  0
    8.0308  -16.7476   22.0697 N   0  0  0  0  0  0  0  0  0  0  0  0
    8.5039  -16.4039   24.4467 C   0  0  0  0  0  0  0  0  0  0  0  0
    9.7447  -16.5409   24.4602 O   0  0  0  0  0  0  0  0  0  0  0  0
    6.1669  -11.7299   26.2523 C   0  0  0  0  0  0  0  0  0  0  0  0
    7.1533  -12.7703   25.7741 C   0  0  0  0  0  0  0  0  0  0  0  0
    7.7299  -13.5827   26.9102 C   0  0  2  0  0  0  0  0  0  0  0  0
    8.5595  -12.6435   27.7670 C   0  0  0  0  0  0  0  0  0  0  0  0
    8.4756  -14.8002   26.4542 C   0  0  2  0  0  0  0  0  0  0  0  0
    7.8986  -15.5754   25.4175 N   0  0  0  0  0  0  0  0  0  0  0  0
    9.0813  -15.5588   27.5401 C   0  0  0  0  0  0  0  0  0  0  0  0
   10.3504  -15.2536   28.0715 O   0  0  0  0  0  0  0  0  0  0  0  0
    8.4916  -16.5272   28.0537 O   0  0  0  0  0  0  0  0  0  0  0  0
  1  2  1  0
  2  3  2  0
  4  2  1  0
  4  5  1  0
  6  5  1  0
  6  7  1  6
  8  6  1  0
  8  9  2  0
 10 11  1  0
 11 13  1  0
 12 11  2  0
 14 13  1  6
 14 15  1  0
 15  8  1  0
 16 14  1  0
 17 16  2  0
 18 19  1  0
 19 20  1  0
 20 22  1  0
 20 21  1  6
 22 23  1  1
 22 24  1  0
 23 16  1  0
 24 25  1  0
 26 24  2  0
M  END
$$$$
