QNI.pdb
     RDKit          3D

 26 25  0  0  1  0  0  0  0  0999 V2000
    8.1840  -12.7439   15.9988 N   0  0  0  0  0  0  0  0  0  0  0  0
    8.2053  -14.1799   15.8711 C   0  0  0  0  0  0  0  0  0  0  0  0
    8.3510  -14.6113   14.7176 O   0  0  0  0  0  0  0  0  0  0  0  0
    8.0581  -15.0311   17.0474 C   0  0  0  0  0  0  0  0  0  0  0  0
    7.8781  -14.3515   18.3640 C   0  0  0  0  0  0  0  0  0  0  0  0
    8.6591  -14.9300   19.5049 C   0  0  2  0  0  0  0  0  0  0  0  0
    9.5339  -15.9711   19.1262 N   0  0  0  0  0  0  0  0  0  0  0  0
    7.7317  -15.2903   20.6479 C   0  0  0  0  0  0  0  0  0  0  0  0
    6.5228  -15.4382   20.3690 O   0  0  0  0  0  0  0  0  0  0  0  0
    7.1567  -19.7460   24.0690 N   0  0  0  0  0  0  0  0  0  0  0  0
    6.8034  -18.4043   23.7923 C   0  0  0  0  0  0  0  0  0  0  0  0
    5.9977  -17.8156   24.5711 O   0  0  0  0  0  0  0  0  0  0  0  0
    7.3880  -17.7258   22.5960 C   0  0  0  0  0  0  0  0  0  0  0  0
    7.6744  -16.2889   22.9981 C   0  0  2  0  0  0  0  0  0  0  0  0
    8.1899  -15.4543   21.9652 N   0  0  0  0  0  0  0  0  0  0  0  0
    8.3368  -16.1554   24.3060 C   0  0  0  0  0  0  0  0  0  0  0  0
    9.4958  -16.6021   24.4309 O   0  0  0  0  0  0  0  0  0  0  0  0
    6.7248  -10.7778   26.5420 C   0  0  0  0  0  0  0  0  0  0  0  0
    7.6565  -11.9557   26.7099 C   0  0  0  0  0  0  0  0  0  0  0  0
    7.1095  -13.2169   26.0829 C   0  0  2  0  0  0  0  0  0  0  0  0
    5.7678  -13.5040   26.7324 C   0  0  0  0  0  0  0  0  0  0  0  0
    8.0641  -14.3713   26.1349 C   0  0  2  0  0  0  0  0  0  0  0  0
    7.7177  -15.5442   25.4188 N   0  0  0  0  0  0  0  0  0  0  0  0
    8.6490  -14.5908   27.4506 C   0  0  0  0  0  0  0  0  0  0  0  0
    8.6841  -15.8557   28.0709 O   0  0  0  0  0  0  0  0  0  0  0  0
    9.1518  -13.6515   28.0945 O   0  0  0  0  0  0  0  0  0  0  0  0
  1  2  1  0
  2  3  2  0
  4  2  1  0
  4  5  1  0
  6  5  1  0
  6  7  1  6
  8  6  1  0
  8  9  2  0
 10 11  1  0
 11 13  1  0
 12 11  2  0
 14 13  1  6
 14 15  1  0
 15  8  1  0
 16 14  1  0
 17 16  2  0
 18 19  1  0
 19 20  1  0
 20 22  1  0
 20 21  1  1
 22 23  1  1
 22 24  1  0
 23 16  1  0
 24 25  1  0
 26 24  2  0
M  END
$$$$
