QNI.pdb
     RDKit          3D

 26 25  0  0  1  0  0  0  0  0999 V2000
    8.4292  -12.1851   19.1690 N   0  0  0  0  0  0  0  0  0  0  0  0
    8.4696  -13.1586   18.1062 C   0  0  0  0  0  0  0  0  0  0  0  0
    8.6147  -12.6968   16.9645 O   0  0  0  0  0  0  0  0  0  0  0  0
    8.3408  -14.5823   18.3996 C   0  0  0  0  0  0  0  0  0  0  0  0
    8.1911  -14.9737   19.8320 C   0  0  0  0  0  0  0  0  0  0  0  0
    8.0469  -16.4428   20.0917 C   0  0  2  0  0  0  0  0  0  0  0  0
    7.0146  -17.0539   19.3474 N   0  0  0  0  0  0  0  0  0  0  0  0
    7.9719  -16.7086   21.5816 C   0  0  0  0  0  0  0  0  0  0  0  0
    6.8438  -16.6298   22.1132 O   0  0  0  0  0  0  0  0  0  0  0  0
   12.1597  -18.6088   22.8879 N   0  0  0  0  0  0  0  0  0  0  0  0
   10.7793  -18.8943   23.0086 C   0  0  0  0  0  0  0  0  0  0  0  0
   10.2151  -19.5622   22.0932 O   0  0  0  0  0  0  0  0  0  0  0  0
   10.0325  -18.4019   24.2057 C   0  0  0  0  0  0  0  0  0  0  0  0
    9.2185  -17.2003   23.7560 C   0  0  2  0  0  0  0  0  0  0  0  0
    9.1052  -17.0293   22.3464 N   0  0  0  0  0  0  0  0  0  0  0  0
    9.4944  -15.9725   24.5199 C   0  0  0  0  0  0  0  0  0  0  0  0
   10.4088  -15.2211   24.1228 O   0  0  0  0  0  0  0  0  0  0  0  0
    6.3650  -12.0103   25.8763 C   0  0  0  0  0  0  0  0  0  0  0  0
    7.5366  -12.9339   25.6353 C   0  0  0  0  0  0  0  0  0  0  0  0
    8.0428  -13.5673   26.9102 C   0  0  2  0  0  0  0  0  0  0  0  0
    8.5406  -12.4492   27.8083 C   0  0  0  0  0  0  0  0  0  0  0  0
    9.0533  -14.6496   26.6782 C   0  0  2  0  0  0  0  0  0  0  0  0
    8.7690  -15.6116   25.6769 N   0  0  0  0  0  0  0  0  0  0  0  0
    9.6425  -15.1752   27.9021 C   0  0  0  0  0  0  0  0  0  0  0  0
   10.6749  -14.5157   28.5987 O   0  0  0  0  0  0  0  0  0  0  0  0
    9.2509  -16.2500   28.3930 O   0  0  0  0  0  0  0  0  0  0  0  0
  1  2  1  0
  2  3  2  0
  4  2  1  0
  4  5  1  0
  6  5  1  0
  6  7  1  6
  8  6  1  0
  8  9  2  0
 10 11  1  0
 11 13  1  0
 12 11  2  0
 14 13  1  6
 14 15  1  0
 15  8  1  0
 16 14  1  0
 17 16  2  0
 18 19  1  0
 19 20  1  0
 20 22  1  0
 20 21  1  1
 22 23  1  1
 22 24  1  0
 23 16  1  0
 24 25  1  0
 26 24  2  0
M  END
$$$$
