QNI.pdb
     RDKit          3D

 26 25  0  0  1  0  0  0  0  0999 V2000
    8.0493  -15.3366   15.6102 N   0  0  0  0  0  0  0  0  0  0  0  0
    8.6060  -14.2595   16.3903 C   0  0  0  0  0  0  0  0  0  0  0  0
    8.8371  -13.2127   15.7668 O   0  0  0  0  0  0  0  0  0  0  0  0
    8.8677  -14.4342   17.8154 C   0  0  0  0  0  0  0  0  0  0  0  0
    7.7451  -14.1471   18.7561 C   0  0  0  0  0  0  0  0  0  0  0  0
    8.0438  -14.3650   20.2086 C   0  0  2  0  0  0  0  0  0  0  0  0
    9.4171  -14.2855   20.5256 N   0  0  0  0  0  0  0  0  0  0  0  0
    7.3708  -15.6307   20.6997 C   0  0  0  0  0  0  0  0  0  0  0  0
    6.6463  -16.2385   19.8830 O   0  0  0  0  0  0  0  0  0  0  0  0
    9.4931  -18.6519   19.8753 N   0  0  0  0  0  0  0  0  0  0  0  0
    9.6844  -18.3714   21.2488 C   0  0  0  0  0  0  0  0  0  0  0  0
    9.6985  -19.3352   22.0692 O   0  0  0  0  0  0  0  0  0  0  0  0
    9.8628  -16.9541   21.6879 C   0  0  0  0  0  0  0  0  0  0  0  0
    8.7127  -16.6339   22.6277 C   0  0  2  0  0  0  0  0  0  0  0  0
    7.5405  -16.1141   22.0073 N   0  0  0  0  0  0  0  0  0  0  0  0
    9.1252  -15.9532   23.8661 C   0  0  0  0  0  0  0  0  0  0  0  0
   10.2615  -16.1939   24.3236 O   0  0  0  0  0  0  0  0  0  0  0  0
    5.9387  -11.5413   26.5931 C   0  0  0  0  0  0  0  0  0  0  0  0
    6.5569  -12.9145   26.4664 C   0  0  0  0  0  0  0  0  0  0  0  0
    7.8805  -12.8855   25.7384 C   0  0  2  0  0  0  0  0  0  0  0  0
    7.6379  -12.2609   24.3761 C   0  0  0  0  0  0  0  0  0  0  0  0
    8.5571  -14.2215   25.6774 C   0  0  2  0  0  0  0  0  0  0  0  0
    8.2922  -15.0425   24.5530 N   0  0  0  0  0  0  0  0  0  0  0  0
    8.6094  -14.9123   26.9587 C   0  0  0  0  0  0  0  0  0  0  0  0
    9.2413  -14.3692   28.0953 O   0  0  0  0  0  0  0  0  0  0  0  0
    8.0881  -16.0331   27.1054 O   0  0  0  0  0  0  0  0  0  0  0  0
  1  2  1  0
  2  3  2  0
  4  2  1  0
  4  5  1  0
  6  5  1  0
  6  7  1  6
  8  6  1  0
  8  9  2  0
 10 11  1  0
 11 13  1  0
 12 11  2  0
 14 13  1  6
 14 15  1  0
 15  8  1  0
 16 14  1  0
 17 16  2  0
 18 19  1  0
 19 20  1  0
 20 22  1  0
 20 21  1  6
 22 23  1  6
 22 24  1  0
 23 16  1  0
 24 25  1  0
 26 24  2  0
M  END
$$$$
