QNI.pdb
     RDKit          3D

 26 25  0  0  1  0  0  0  0  0999 V2000
    9.6341  -12.4292   18.5715 N   0  0  0  0  0  0  0  0  0  0  0  0
    8.8560  -13.3184   17.7452 C   0  0  0  0  0  0  0  0  0  0  0  0
    9.4485  -13.7897   16.7629 O   0  0  0  0  0  0  0  0  0  0  0  0
    7.4660  -13.6135   18.0777 C   0  0  0  0  0  0  0  0  0  0  0  0
    7.1500  -13.8879   19.5104 C   0  0  0  0  0  0  0  0  0  0  0  0
    7.9955  -14.9334   20.1726 C   0  0  2  0  0  0  0  0  0  0  0  0
    8.2730  -16.0465   19.3499 N   0  0  0  0  0  0  0  0  0  0  0  0
    7.4184  -15.2967   21.5258 C   0  0  0  0  0  0  0  0  0  0  0  0
    6.6412  -14.4699   22.0488 O   0  0  0  0  0  0  0  0  0  0  0  0
    5.6494  -19.4143   21.6322 N   0  0  0  0  0  0  0  0  0  0  0  0
    5.6910  -18.7016   22.8536 C   0  0  0  0  0  0  0  0  0  0  0  0
    4.6047  -18.2793   23.3475 O   0  0  0  0  0  0  0  0  0  0  0  0
    7.0080  -18.4695   23.5206 C   0  0  0  0  0  0  0  0  0  0  0  0
    7.2858  -16.9777   23.4444 C   0  0  2  0  0  0  0  0  0  0  0  0
    7.7304  -16.5008   22.1779 N   0  0  0  0  0  0  0  0  0  0  0  0
    8.0121  -16.4453   24.6089 C   0  0  0  0  0  0  0  0  0  0  0  0
    8.3431  -17.2391   25.5138 O   0  0  0  0  0  0  0  0  0  0  0  0
    6.3323  -11.6861   27.4555 C   0  0  0  0  0  0  0  0  0  0  0  0
    7.0011  -13.0259   27.2512 C   0  0  0  0  0  0  0  0  0  0  0  0
    7.9697  -13.0154   26.0916 C   0  0  2  0  0  0  0  0  0  0  0  0
    7.2090  -12.5410   24.8665 C   0  0  0  0  0  0  0  0  0  0  0  0
    8.6773  -14.3218   25.8937 C   0  0  2  0  0  0  0  0  0  0  0  0
    8.3490  -15.0800   24.7423 N   0  0  0  0  0  0  0  0  0  0  0  0
    8.8490  -15.0884   27.1203 C   0  0  0  0  0  0  0  0  0  0  0  0
    9.6663  -14.6568   28.1841 O   0  0  0  0  0  0  0  0  0  0  0  0
    8.2696  -16.1781   27.2826 O   0  0  0  0  0  0  0  0  0  0  0  0
  1  2  1  0
  2  3  2  0
  4  2  1  0
  4  5  1  0
  6  5  1  0
  6  7  1  6
  8  6  1  0
  8  9  2  0
 10 11  1  0
 11 13  1  0
 12 11  2  0
 14 13  1  6
 14 15  1  0
 15  8  1  0
 16 14  1  0
 17 16  2  0
 18 19  1  0
 19 20  1  0
 20 22  1  0
 20 21  1  6
 22 23  1  6
 22 24  1  0
 23 16  1  0
 24 25  1  0
 26 24  2  0
M  END
$$$$
