QNI.pdb
     RDKit          3D

 26 25  0  0  1  0  0  0  0  0999 V2000
    7.6846  -14.0127   16.6009 N   0  0  0  0  0  0  0  0  0  0  0  0
    8.0176  -13.4380   17.8806 C   0  0  0  0  0  0  0  0  0  0  0  0
    9.2260  -13.2438   18.0805 O   0  0  0  0  0  0  0  0  0  0  0  0
    6.9706  -13.1247   18.8478 C   0  0  0  0  0  0  0  0  0  0  0  0
    7.1804  -13.5812   20.2532 C   0  0  0  0  0  0  0  0  0  0  0  0
    7.7058  -14.9760   20.4109 C   0  0  2  0  0  0  0  0  0  0  0  0
    6.9695  -15.9459   19.6966 N   0  0  0  0  0  0  0  0  0  0  0  0
    7.8947  -15.3041   21.8782 C   0  0  0  0  0  0  0  0  0  0  0  0
    7.3457  -14.5421   22.7024 O   0  0  0  0  0  0  0  0  0  0  0  0
   11.8055  -17.8179   20.1916 N   0  0  0  0  0  0  0  0  0  0  0  0
   11.7097  -17.4503   21.5545 C   0  0  0  0  0  0  0  0  0  0  0  0
   12.1531  -18.2484   22.4313 O   0  0  0  0  0  0  0  0  0  0  0  0
   11.0916  -16.1388   21.9166 C   0  0  0  0  0  0  0  0  0  0  0  0
    9.9540  -16.4365   22.8788 C   0  0  2  0  0  0  0  0  0  0  0  0
    8.6477  -16.4075   22.3114 N   0  0  0  0  0  0  0  0  0  0  0  0
   10.0884  -15.7731   24.1860 C   0  0  0  0  0  0  0  0  0  0  0  0
   11.2360  -15.5104   24.6013 O   0  0  0  0  0  0  0  0  0  0  0  0
    6.6102  -11.8436   25.5036 C   0  0  0  0  0  0  0  0  0  0  0  0
    7.7762  -12.7912   25.3415 C   0  0  0  0  0  0  0  0  0  0  0  0
    7.8994  -13.7562   26.4976 C   0  0  2  0  0  0  0  0  0  0  0  0
    8.1444  -12.9363   27.7515 C   0  0  0  0  0  0  0  0  0  0  0  0
    8.9189  -14.8312   26.2711 C   0  0  2  0  0  0  0  0  0  0  0  0
    8.9772  -15.4222   24.9843 N   0  0  0  0  0  0  0  0  0  0  0  0
    9.0591  -15.7528   27.3903 C   0  0  0  0  0  0  0  0  0  0  0  0
    8.8759  -17.1443   27.2630 O   0  0  0  0  0  0  0  0  0  0  0  0
    9.3520  -15.3412   28.5280 O   0  0  0  0  0  0  0  0  0  0  0  0
  1  2  1  0
  2  3  2  0
  4  2  1  0
  4  5  1  0
  6  5  1  0
  6  7  1  1
  8  6  1  0
  8  9  2  0
 10 11  1  0
 11 13  1  0
 12 11  2  0
 14 13  1  6
 14 15  1  0
 15  8  1  0
 16 14  1  0
 17 16  2  0
 18 19  1  0
 19 20  1  0
 20 22  1  0
 20 21  1  1
 22 23  1  6
 22 24  1  0
 23 16  1  0
 24 25  1  0
 26 24  2  0
M  END
$$$$
