QNI.pdb
     RDKit          3D

 26 25  0  0  1  0  0  0  0  0999 V2000
    8.2637  -12.3013   18.7410 N   0  0  0  0  0  0  0  0  0  0  0  0
    8.2373  -13.2248   17.6341 C   0  0  0  0  0  0  0  0  0  0  0  0
    8.2496  -12.7079   16.5069 O   0  0  0  0  0  0  0  0  0  0  0  0
    8.1954  -14.6644   17.8704 C   0  0  0  0  0  0  0  0  0  0  0  0
    8.0646  -15.1207   19.2854 C   0  0  0  0  0  0  0  0  0  0  0  0
    7.8651  -16.5938   19.4763 C   0  0  2  0  0  0  0  0  0  0  0  0
    6.8001  -17.1271   18.7184 N   0  0  0  0  0  0  0  0  0  0  0  0
    7.7979  -16.9284   20.9527 C   0  0  0  0  0  0  0  0  0  0  0  0
    6.6600  -17.0766   21.4470 O   0  0  0  0  0  0  0  0  0  0  0  0
    8.6533  -18.9247   25.6872 N   0  0  0  0  0  0  0  0  0  0  0  0
    9.8602  -18.6851   24.9890 C   0  0  0  0  0  0  0  0  0  0  0  0
   10.9293  -18.5498   25.6531 O   0  0  0  0  0  0  0  0  0  0  0  0
    9.8376  -18.5989   23.4973 C   0  0  0  0  0  0  0  0  0  0  0  0
    9.0515  -17.3494   23.1380 C   0  0  2  0  0  0  0  0  0  0  0  0
    8.9488  -17.0690   21.7452 N   0  0  0  0  0  0  0  0  0  0  0  0
    9.3494  -16.1896   23.9943 C   0  0  0  0  0  0  0  0  0  0  0  0
   10.5306  -16.0080   24.3550 O   0  0  0  0  0  0  0  0  0  0  0  0
    6.4164  -11.4885   27.0044 C   0  0  0  0  0  0  0  0  0  0  0  0
    7.5485  -12.0123   26.1511 C   0  0  0  0  0  0  0  0  0  0  0  0
    7.2237  -13.3453   25.5182 C   0  0  2  0  0  0  0  0  0  0  0  0
    6.0681  -13.9495   26.2953 C   0  0  0  0  0  0  0  0  0  0  0  0
    8.4101  -14.2534   25.3983 C   0  0  2  0  0  0  0  0  0  0  0  0
    8.3582  -15.2781   24.4206 N   0  0  0  0  0  0  0  0  0  0  0  0
    8.9865  -14.6387   26.6792 C   0  0  0  0  0  0  0  0  0  0  0  0
    8.5530  -15.7663   27.4050 O   0  0  0  0  0  0  0  0  0  0  0  0
    9.9039  -13.9748   27.1961 O   0  0  0  0  0  0  0  0  0  0  0  0
  1  2  1  0
  2  3  2  0
  4  2  1  0
  4  5  1  0
  6  5  1  0
  6  7  1  6
  8  6  1  0
  8  9  2  0
 10 11  1  0
 11 13  1  0
 12 11  2  0
 14 13  1  6
 14 15  1  0
 15  8  1  0
 16 14  1  0
 17 16  2  0
 18 19  1  0
 19 20  1  0
 20 22  1  0
 20 21  1  1
 22 23  1  1
 22 24  1  0
 23 16  1  0
 24 25  1  0
 26 24  2  0
M  END
$$$$
