NVK.pdb
     RDKit          3D

 25 24  0  0  1  0  0  0  0  0999 V2000
   28.1135  -20.0922  -18.9263 N   0  0  0  0  0  0  0  0  0  0  0  0
   27.8791  -19.7780  -17.5828 C   0  0  0  0  0  0  0  0  0  0  0  0
   28.5621  -18.8123  -17.0999 O   0  0  0  0  0  0  0  0  0  0  0  0
   26.9419  -20.4275  -16.6754 C   0  0  0  0  0  0  0  0  0  0  0  0
   27.5193  -21.1021  -15.4742 C   0  0  2  0  0  0  0  0  0  0  0  0
   28.2560  -22.2655  -15.8958 N   0  0  0  0  0  0  0  0  0  0  0  0
   26.4504  -21.5540  -14.5325 C   0  0  0  0  0  0  0  0  0  0  0  0
   25.8194  -22.5882  -14.8548 O   0  0  0  0  0  0  0  0  0  0  0  0
   24.7328  -20.9702   -9.8861 C   0  0  0  0  0  0  0  0  0  0  0  0
   25.7033  -21.0650  -11.0289 C   0  0  2  0  0  0  0  0  0  0  0  0
   26.7256  -19.9708  -10.8196 C   0  0  0  0  0  0  0  0  0  0  0  0
   25.1851  -21.2576  -12.3709 C   0  0  2  0  0  0  0  0  0  0  0  0
   26.1781  -20.8299  -13.3316 N   0  0  0  0  0  0  0  0  0  0  0  0
   23.8713  -20.7618  -12.7695 C   0  0  0  0  0  0  0  0  0  0  0  0
   23.7533  -19.5254  -12.9814 O   0  0  0  0  0  0  0  0  0  0  0  0
   22.7068  -21.5429  -12.9439 N   0  0  0  0  0  0  0  0  0  0  0  0
   21.4540  -20.8555  -13.3020 C   0  0  1  0  0  0  0  0  0  0  0  0
   20.5712  -21.7749  -14.0752 C   0  0  0  0  0  0  0  0  0  0  0  0
   19.2404  -21.1593  -14.3611 C   0  0  0  0  0  0  0  0  0  0  0  0
   18.4011  -22.1129  -15.1811 C   0  0  0  0  0  0  0  0  0  0  0  0
   17.0468  -21.4608  -15.4938 C   0  0  0  0  0  0  0  0  0  0  0  0
   16.2228  -22.4445  -16.1605 N   0  0  0  0  0  0  0  0  0  0  0  0
   20.8600  -20.3827  -12.0250 C   0  0  0  0  0  0  0  0  0  0  0  0
   20.1836  -19.1899  -11.9996 O   0  0  0  0  0  0  0  0  0  0  0  0
   20.9670  -21.0565  -10.9578 O   0  0  0  0  0  0  0  0  0  0  0  0
  1  2  1  0
  2  3  2  0
  2  4  1  0
  4  5  1  0
  5  7  1  0
  5  6  1  6
  7  8  2  0
 10 12  1  0
 10  9  1  1
 10 11  1  0
 13  7  1  0
 12 13  1  6
 14 12  1  0
 14 15  2  0
 16 14  1  0
 17 23  1  0
 17 16  1  0
 17 18  1  1
 19 18  1  0
 20 19  1  0
 21 20  1  0
 21 22  1  0
 23 24  1  0
 25 23  2  0
M  END
$$$$
