NVK.pdb
     RDKit          3D

 25 24  0  0  1  0  0  0  0  0999 V2000
   22.1706   -8.8223  -13.6561 N   0  0  0  0  0  0  0  0  0  0  0  0
   21.3837   -7.7407  -13.2440 C   0  0  0  0  0  0  0  0  0  0  0  0
   22.0065   -6.7522  -12.7271 O   0  0  0  0  0  0  0  0  0  0  0  0
   19.9351   -7.6159  -13.3412 C   0  0  0  0  0  0  0  0  0  0  0  0
   19.2003   -8.7421  -13.9916 C   0  0  2  0  0  0  0  0  0  0  0  0
   19.5218   -8.7663  -15.3952 N   0  0  0  0  0  0  0  0  0  0  0  0
   17.7204   -8.5773  -13.8641 C   0  0  0  0  0  0  0  0  0  0  0  0
   17.1801   -7.7471  -14.6326 O   0  0  0  0  0  0  0  0  0  0  0  0
   15.2529  -11.5899  -13.8711 C   0  0  0  0  0  0  0  0  0  0  0  0
   15.0168  -10.6424  -12.7295 C   0  0  2  0  0  0  0  0  0  0  0  0
   13.5725  -10.8146  -12.3166 C   0  0  0  0  0  0  0  0  0  0  0  0
   15.5352   -9.2901  -12.8259 C   0  0  2  0  0  0  0  0  0  0  0  0
   16.9783   -9.3373  -12.9090 N   0  0  0  0  0  0  0  0  0  0  0  0
   15.1313   -8.2405  -11.8953 C   0  0  0  0  0  0  0  0  0  0  0  0
   14.3017   -7.3850  -12.3042 O   0  0  0  0  0  0  0  0  0  0  0  0
   15.5847   -8.0903  -10.5654 N   0  0  0  0  0  0  0  0  0  0  0  0
   14.9671   -7.0435   -9.7329 C   0  0  1  0  0  0  0  0  0  0  0  0
   13.7556   -7.5826   -9.0517 C   0  0  0  0  0  0  0  0  0  0  0  0
   13.1194   -6.5664   -8.1606 C   0  0  0  0  0  0  0  0  0  0  0  0
   11.8973   -7.1608   -7.4975 C   0  0  0  0  0  0  0  0  0  0  0  0
   11.2137   -6.0905   -6.6350 C   0  0  0  0  0  0  0  0  0  0  0  0
    9.9384   -6.6165   -6.2012 N   0  0  0  0  0  0  0  0  0  0  0  0
   16.0249   -6.5769   -8.7999 C   0  0  0  0  0  0  0  0  0  0  0  0
   17.2429   -7.2074   -8.7956 O   0  0  0  0  0  0  0  0  0  0  0  0
   15.8253   -5.6104   -8.0060 O   0  0  0  0  0  0  0  0  0  0  0  0
  1  2  1  0
  2  3  2  0
  2  4  1  0
  4  5  1  0
  5  7  1  0
  5  6  1  6
  7  8  2  0
 10 12  1  0
 10  9  1  6
 10 11  1  0
 13  7  1  0
 12 13  1  1
 14 12  1  0
 14 15  2  0
 16 14  1  0
 17 23  1  0
 17 16  1  0
 17 18  1  1
 19 18  1  0
 20 19  1  0
 21 20  1  0
 21 22  1  0
 23 24  1  0
 25 23  2  0
M  END
$$$$
