NVK.pdb
     RDKit          3D

 25 24  0  0  1  0  0  0  0  0999 V2000
   28.2727  -22.2219  -17.8172 N   0  0  0  0  0  0  0  0  0  0  0  0
   27.7181  -22.7406  -16.6415 C   0  0  0  0  0  0  0  0  0  0  0  0
   28.0911  -23.9169  -16.3107 O   0  0  0  0  0  0  0  0  0  0  0  0
   26.7658  -22.0877  -15.7525 C   0  0  0  0  0  0  0  0  0  0  0  0
   26.2445  -20.7547  -16.1796 C   0  0  2  0  0  0  0  0  0  0  0  0
   27.3246  -19.8021  -16.1729 N   0  0  0  0  0  0  0  0  0  0  0  0
   25.1882  -20.2550  -15.2478 C   0  0  0  0  0  0  0  0  0  0  0  0
   25.5728  -19.8705  -14.1182 O   0  0  0  0  0  0  0  0  0  0  0  0
   21.6162  -18.4493  -16.8062 C   0  0  0  0  0  0  0  0  0  0  0  0
   22.3788  -18.3543  -15.5153 C   0  0  2  0  0  0  0  0  0  0  0  0
   23.4200  -17.2747  -15.7069 C   0  0  0  0  0  0  0  0  0  0  0  0
   22.7900  -19.5799  -14.8554 C   0  0  2  0  0  0  0  0  0  0  0  0
   23.8162  -20.2252  -15.6443 N   0  0  0  0  0  0  0  0  0  0  0  0
   21.8225  -20.5740  -14.4012 C   0  0  0  0  0  0  0  0  0  0  0  0
   21.4854  -21.4751  -15.2148 O   0  0  0  0  0  0  0  0  0  0  0  0
   21.2220  -20.6249  -13.1231 N   0  0  0  0  0  0  0  0  0  0  0  0
   20.1733  -21.6320  -12.8858 C   0  0  1  0  0  0  0  0  0  0  0  0
   19.9913  -21.8430  -11.4213 C   0  0  0  0  0  0  0  0  0  0  0  0
   18.8164  -22.7174  -11.1266 C   0  0  0  0  0  0  0  0  0  0  0  0
   19.2611  -24.1601  -11.0410 C   0  0  0  0  0  0  0  0  0  0  0  0
   18.0321  -25.0629  -10.8640 C   0  0  0  0  0  0  0  0  0  0  0  0
   18.4923  -26.4321  -10.7948 N   0  0  0  0  0  0  0  0  0  0  0  0
   18.9563  -21.1355  -13.5784 C   0  0  0  0  0  0  0  0  0  0  0  0
   18.0845  -22.0368  -14.1339 O   0  0  0  0  0  0  0  0  0  0  0  0
   18.7076  -19.8969  -13.6693 O   0  0  0  0  0  0  0  0  0  0  0  0
  1  2  1  0
  2  3  2  0
  2  4  1  0
  4  5  1  0
  5  7  1  0
  5  6  1  1
  7  8  2  0
 10 12  1  0
 10  9  1  6
 10 11  1  0
 13  7  1  0
 12 13  1  6
 14 12  1  0
 14 15  2  0
 16 14  1  0
 17 23  1  0
 17 16  1  0
 17 18  1  1
 19 18  1  0
 20 19  1  0
 21 20  1  0
 21 22  1  0
 23 24  1  0
 25 23  2  0
M  END
$$$$
