NVK.pdb
     RDKit          3D

 25 24  0  0  1  0  0  0  0  0999 V2000
   15.2701  -10.9747  -17.6021 N   0  0  0  0  0  0  0  0  0  0  0  0
   16.2044  -10.0999  -17.0358 C   0  0  0  0  0  0  0  0  0  0  0  0
   16.7876   -9.2966  -17.8400 O   0  0  0  0  0  0  0  0  0  0  0  0
   16.5834  -10.0017  -15.6321 C   0  0  0  0  0  0  0  0  0  0  0  0
   18.0445   -9.9438  -15.3275 C   0  0  2  0  0  0  0  0  0  0  0  0
   18.6161  -11.2531  -15.5096 N   0  0  0  0  0  0  0  0  0  0  0  0
   18.2938   -9.5286  -13.9136 C   0  0  0  0  0  0  0  0  0  0  0  0
   17.9071  -10.3188  -13.0204 O   0  0  0  0  0  0  0  0  0  0  0  0
   20.8702   -6.3919  -11.0058 C   0  0  0  0  0  0  0  0  0  0  0  0
   20.4963   -7.1680  -12.2366 C   0  0  2  0  0  0  0  0  0  0  0  0
   20.8507   -6.2973  -13.4208 C   0  0  0  0  0  0  0  0  0  0  0  0
   19.2209   -7.8603  -12.2649 C   0  0  2  0  0  0  0  0  0  0  0  0
   18.9415   -8.2904  -13.6172 N   0  0  0  0  0  0  0  0  0  0  0  0
   18.0166   -7.2840  -11.6746 C   0  0  0  0  0  0  0  0  0  0  0  0
   17.3639   -6.4588  -12.3677 O   0  0  0  0  0  0  0  0  0  0  0  0
   17.5057   -7.5663  -10.3877 N   0  0  0  0  0  0  0  0  0  0  0  0
   16.2580   -6.9022   -9.9725 C   0  0  1  0  0  0  0  0  0  0  0  0
   15.4514   -7.8206   -9.1189 C   0  0  0  0  0  0  0  0  0  0  0  0
   14.2507   -7.1393   -8.5482 C   0  0  0  0  0  0  0  0  0  0  0  0
   13.1968   -8.1662   -8.2004 C   0  0  0  0  0  0  0  0  0  0  0  0
   11.9549   -7.4546   -7.6451 C   0  0  0  0  0  0  0  0  0  0  0  0
   10.9186   -8.4464   -7.4619 N   0  0  0  0  0  0  0  0  0  0  0  0
   16.6632   -5.6463   -9.2901 C   0  0  0  0  0  0  0  0  0  0  0  0
   17.8086   -5.6308   -8.5359 O   0  0  0  0  0  0  0  0  0  0  0  0
   15.9718   -4.5895   -9.3876 O   0  0  0  0  0  0  0  0  0  0  0  0
  1  2  1  0
  2  3  2  0
  2  4  1  0
  4  5  1  0
  5  7  1  0
  5  6  1  1
  7  8  2  0
 10 12  1  0
 10  9  1  1
 10 11  1  0
 13  7  1  0
 12 13  1  6
 14 12  1  0
 14 15  2  0
 16 14  1  0
 17 23  1  0
 17 16  1  0
 17 18  1  1
 19 18  1  0
 20 19  1  0
 21 20  1  0
 21 22  1  0
 23 24  1  0
 25 23  2  0
M  END
$$$$
