NVK.pdb
     RDKit          3D

 25 24  0  0  1  0  0  0  0  0999 V2000
   20.8873  -16.7555  -19.4587 N   0  0  0  0  0  0  0  0  0  0  0  0
   21.8577  -15.7523  -19.3559 C   0  0  0  0  0  0  0  0  0  0  0  0
   22.7039  -15.6833  -20.3107 O   0  0  0  0  0  0  0  0  0  0  0  0
   22.0085  -14.7771  -18.2836 C   0  0  0  0  0  0  0  0  0  0  0  0
   23.2933  -14.8010  -17.5222 C   0  0  2  0  0  0  0  0  0  0  0  0
   23.4211  -16.0699  -16.8531 N   0  0  0  0  0  0  0  0  0  0  0  0
   23.3338  -13.7291  -16.4814 C   0  0  0  0  0  0  0  0  0  0  0  0
   22.6224  -13.9074  -15.4646 O   0  0  0  0  0  0  0  0  0  0  0  0
   26.0149  -10.0532  -14.5849 C   0  0  0  0  0  0  0  0  0  0  0  0
   25.6383  -11.3026  -15.3294 C   0  0  2  0  0  0  0  0  0  0  0  0
   26.6584  -11.4724  -16.4324 C   0  0  0  0  0  0  0  0  0  0  0  0
   24.2425  -11.5244  -15.6601 C   0  0  2  0  0  0  0  0  0  0  0  0
   24.1485  -12.5689  -16.6561 N   0  0  0  0  0  0  0  0  0  0  0  0
   23.3494  -10.4258  -16.0153 C   0  0  0  0  0  0  0  0  0  0  0  0
   23.3716  -10.0172  -17.2070 O   0  0  0  0  0  0  0  0  0  0  0  0
   22.4518   -9.7701  -15.1430 N   0  0  0  0  0  0  0  0  0  0  0  0
   21.6474   -8.6580  -15.6782 C   0  0  1  0  0  0  0  0  0  0  0  0
   20.2066   -9.0396  -15.7086 C   0  0  0  0  0  0  0  0  0  0  0  0
   19.3454   -7.9234  -16.2027 C   0  0  0  0  0  0  0  0  0  0  0  0
   17.9021   -8.3720  -16.2475 C   0  0  0  0  0  0  0  0  0  0  0  0
   17.0420   -7.2618  -16.8675 C   0  0  0  0  0  0  0  0  0  0  0  0
   15.6976   -7.7727  -17.0190 N   0  0  0  0  0  0  0  0  0  0  0  0
   21.9409   -7.4821  -14.8191 C   0  0  0  0  0  0  0  0  0  0  0  0
   21.7823   -6.2196  -15.3310 O   0  0  0  0  0  0  0  0  0  0  0  0
   22.3371   -7.6201  -13.6239 O   0  0  0  0  0  0  0  0  0  0  0  0
  1  2  1  0
  2  3  2  0
  2  4  1  0
  4  5  1  0
  5  7  1  0
  5  6  1  1
  7  8  2  0
 10 12  1  0
 10  9  1  6
 10 11  1  0
 13  7  1  0
 12 13  1  6
 14 12  1  0
 14 15  2  0
 16 14  1  0
 17 23  1  0
 17 16  1  0
 17 18  1  1
 19 18  1  0
 20 19  1  0
 21 20  1  0
 21 22  1  0
 23 24  1  0
 25 23  2  0
M  END
$$$$
