NVK.pdb
     RDKit          3D

 25 24  0  0  1  0  0  0  0  0999 V2000
   23.7675  -10.8571  -13.4835 N   0  0  0  0  0  0  0  0  0  0  0  0
   23.1387   -9.6203  -13.2999 C   0  0  0  0  0  0  0  0  0  0  0  0
   23.3849   -9.0179  -12.2004 O   0  0  0  0  0  0  0  0  0  0  0  0
   22.2377   -8.9428  -14.2233 C   0  0  0  0  0  0  0  0  0  0  0  0
   21.8580   -9.6825  -15.4643 C   0  0  2  0  0  0  0  0  0  0  0  0
   22.9975   -9.7454  -16.3427 N   0  0  0  0  0  0  0  0  0  0  0  0
   20.7532   -8.9928  -16.1972 C   0  0  0  0  0  0  0  0  0  0  0  0
   21.0933   -8.1773  -17.0866 O   0  0  0  0  0  0  0  0  0  0  0  0
   16.8051  -10.7621  -16.2549 C   0  0  0  0  0  0  0  0  0  0  0  0
   17.5152   -9.8424  -17.2071 C   0  0  2  0  0  0  0  0  0  0  0  0
   18.1745  -10.7212  -18.2460 C   0  0  0  0  0  0  0  0  0  0  0  0
   18.2881   -8.7391  -16.6667 C   0  0  2  0  0  0  0  0  0  0  0  0
   19.3858   -9.2637  -15.8847 N   0  0  0  0  0  0  0  0  0  0  0  0
   17.6590   -7.6342  -15.9498 C   0  0  0  0  0  0  0  0  0  0  0  0
   17.5351   -7.7436  -14.7007 O   0  0  0  0  0  0  0  0  0  0  0  0
   17.1714   -6.4401  -16.5271 N   0  0  0  0  0  0  0  0  0  0  0  0
   16.6470   -5.3960  -15.6299 C   0  0  1  0  0  0  0  0  0  0  0  0
   16.9456   -4.0466  -16.1888 C   0  0  0  0  0  0  0  0  0  0  0  0
   16.4426   -2.9535  -15.3034 C   0  0  0  0  0  0  0  0  0  0  0  0
   16.7319   -1.6102  -15.9343 C   0  0  0  0  0  0  0  0  0  0  0  0
   16.2849   -0.4924  -14.9816 C   0  0  0  0  0  0  0  0  0  0  0  0
   16.6866    0.7712  -15.5587 N   0  0  0  0  0  0  0  0  0  0  0  0
   15.1964   -5.6746  -15.4715 C   0  0  0  0  0  0  0  0  0  0  0  0
   14.5678   -6.4964  -16.3718 O   0  0  0  0  0  0  0  0  0  0  0  0
   14.5264   -5.1673  -14.5238 O   0  0  0  0  0  0  0  0  0  0  0  0
  1  2  1  0
  2  3  2  0
  2  4  1  0
  4  5  1  0
  5  7  1  0
  5  6  1  6
  7  8  2  0
 10 12  1  0
 10  9  1  1
 10 11  1  0
 13  7  1  0
 12 13  1  1
 14 12  1  0
 14 15  2  0
 16 14  1  0
 17 23  1  0
 17 16  1  0
 17 18  1  6
 19 18  1  0
 20 19  1  0
 21 20  1  0
 21 22  1  0
 23 24  1  0
 25 23  2  0
M  END
$$$$
