NVK.pdb
     RDKit          3D

 25 24  0  0  1  0  0  0  0  0999 V2000
   14.0806  -13.9386  -10.3488 N   0  0  0  0  0  0  0  0  0  0  0  0
   14.8627  -13.3392  -11.3427 C   0  0  0  0  0  0  0  0  0  0  0  0
   15.5555  -14.1284  -12.0705 O   0  0  0  0  0  0  0  0  0  0  0  0
   14.9726  -11.9171  -11.6411 C   0  0  0  0  0  0  0  0  0  0  0  0
   14.2467  -10.9770  -10.7353 C   0  0  2  0  0  0  0  0  0  0  0  0
   12.8297  -11.1100  -10.9558 N   0  0  0  0  0  0  0  0  0  0  0  0
   14.6203   -9.5557  -11.0070 C   0  0  0  0  0  0  0  0  0  0  0  0
   14.0842   -9.0153  -12.0032 O   0  0  0  0  0  0  0  0  0  0  0  0
   15.9794   -7.0613   -7.8650 C   0  0  0  0  0  0  0  0  0  0  0  0
   15.4735   -6.6957   -9.2314 C   0  0  2  0  0  0  0  0  0  0  0  0
   13.9928   -6.4264   -9.0862 C   0  0  0  0  0  0  0  0  0  0  0  0
   15.9084   -7.4827  -10.3708 C   0  0  2  0  0  0  0  0  0  0  0  0
   15.5430   -8.8664  -10.1620 N   0  0  0  0  0  0  0  0  0  0  0  0
   17.2724   -7.4076  -10.8852 C   0  0  0  0  0  0  0  0  0  0  0  0
   18.1728   -8.0112  -10.2430 O   0  0  0  0  0  0  0  0  0  0  0  0
   17.6849   -6.7173  -12.0471 N   0  0  0  0  0  0  0  0  0  0  0  0
   19.1057   -6.7853  -12.4303 C   0  0  1  0  0  0  0  0  0  0  0  0
   19.3143   -7.8783  -13.4224 C   0  0  0  0  0  0  0  0  0  0  0  0
   20.7088   -7.8851  -13.9582 C   0  0  0  0  0  0  0  0  0  0  0  0
   20.8349   -8.9308  -15.0431 C   0  0  0  0  0  0  0  0  0  0  0  0
   22.2528   -8.8882  -15.6302 C   0  0  0  0  0  0  0  0  0  0  0  0
   22.3025   -9.8132  -16.7406 N   0  0  0  0  0  0  0  0  0  0  0  0
   19.4642   -5.4356  -12.9372 C   0  0  0  0  0  0  0  0  0  0  0  0
   20.7861   -5.0820  -13.0302 O   0  0  0  0  0  0  0  0  0  0  0  0
   18.5749   -4.6027  -13.2831 O   0  0  0  0  0  0  0  0  0  0  0  0
  1  2  1  0
  2  3  2  0
  2  4  1  0
  4  5  1  0
  5  7  1  0
  5  6  1  6
  7  8  2  0
 10 12  1  0
 10  9  1  1
 10 11  1  0
 13  7  1  0
 12 13  1  1
 14 12  1  0
 14 15  2  0
 16 14  1  0
 17 23  1  0
 17 16  1  0
 17 18  1  6
 19 18  1  0
 20 19  1  0
 21 20  1  0
 21 22  1  0
 23 24  1  0
 25 23  2  0
M  END
$$$$
