NVK.pdb
     RDKit          3D

 25 24  0  0  1  0  0  0  0  0999 V2000
   18.4986  -11.7255  -20.2275 N   0  0  0  0  0  0  0  0  0  0  0  0
   17.7420  -11.0260  -19.2803 C   0  0  0  0  0  0  0  0  0  0  0  0
   16.5919  -10.6210  -19.6618 O   0  0  0  0  0  0  0  0  0  0  0  0
   18.1188  -10.7109  -17.9083 C   0  0  0  0  0  0  0  0  0  0  0  0
   19.4294  -11.2417  -17.4270 C   0  0  2  0  0  0  0  0  0  0  0  0
   19.2867  -12.6414  -17.1197 N   0  0  0  0  0  0  0  0  0  0  0  0
   19.8802  -10.5443  -16.1844 C   0  0  0  0  0  0  0  0  0  0  0  0
   19.2124  -10.7608  -15.1458 O   0  0  0  0  0  0  0  0  0  0  0  0
   24.0101   -9.5470  -15.4527 C   0  0  0  0  0  0  0  0  0  0  0  0
   22.7750   -9.7596  -14.6244 C   0  0  2  0  0  0  0  0  0  0  0  0
   22.6908  -11.2436  -14.3470 C   0  0  0  0  0  0  0  0  0  0  0  0
   21.5536   -9.0728  -15.0029 C   0  0  2  0  0  0  0  0  0  0  0  0
   21.0171   -9.6794  -16.2012 N   0  0  0  0  0  0  0  0  0  0  0  0
   21.4895   -7.6191  -15.1179 C   0  0  0  0  0  0  0  0  0  0  0  0
   21.9857   -7.0924  -16.1494 O   0  0  0  0  0  0  0  0  0  0  0  0
   20.9173   -6.7359  -14.1748 N   0  0  0  0  0  0  0  0  0  0  0  0
   20.9621   -5.2907  -14.4572 C   0  0  1  0  0  0  0  0  0  0  0  0
   19.6402   -4.6711  -14.1553 C   0  0  0  0  0  0  0  0  0  0  0  0
   18.6516   -4.9075  -15.2501 C   0  0  0  0  0  0  0  0  0  0  0  0
   17.3072   -4.3379  -14.8571 C   0  0  0  0  0  0  0  0  0  0  0  0
   16.2609   -4.7262  -15.9114 C   0  0  0  0  0  0  0  0  0  0  0  0
   15.9470   -6.1264  -15.7320 N   0  0  0  0  0  0  0  0  0  0  0  0
   22.0821   -4.7441  -13.6485 C   0  0  0  0  0  0  0  0  0  0  0  0
   22.6331   -3.5365  -13.9936 O   0  0  0  0  0  0  0  0  0  0  0  0
   22.5412   -5.3708  -12.6481 O   0  0  0  0  0  0  0  0  0  0  0  0
  1  2  1  0
  2  3  2  0
  2  4  1  0
  4  5  1  0
  5  7  1  0
  5  6  1  1
  7  8  2  0
 10 12  1  0
 10  9  1  6
 10 11  1  0
 13  7  1  0
 12 13  1  6
 14 12  1  0
 14 15  2  0
 16 14  1  0
 17 23  1  0
 17 16  1  0
 17 18  1  1
 19 18  1  0
 20 19  1  0
 21 20  1  0
 21 22  1  0
 23 24  1  0
 25 23  2  0
M  END
$$$$
