NVK.pdb
     RDKit          3D

 25 24  0  0  1  0  0  0  0  0999 V2000
   18.0821  -13.9419  -20.1459 N   0  0  0  0  0  0  0  0  0  0  0  0
   17.4421  -12.7880  -19.6794 C   0  0  0  0  0  0  0  0  0  0  0  0
   16.5274  -12.3055  -20.4296 O   0  0  0  0  0  0  0  0  0  0  0  0
   17.7008  -12.0781  -18.4333 C   0  0  0  0  0  0  0  0  0  0  0  0
   18.8175  -12.5882  -17.5825 C   0  0  2  0  0  0  0  0  0  0  0  0
   18.4168  -13.8305  -16.9740 N   0  0  0  0  0  0  0  0  0  0  0  0
   19.1536  -11.6296  -16.4863 C   0  0  0  0  0  0  0  0  0  0  0  0
   18.3273  -11.5384  -15.5479 O   0  0  0  0  0  0  0  0  0  0  0  0
   22.7480   -9.4077  -14.0037 C   0  0  0  0  0  0  0  0  0  0  0  0
   22.0601  -10.3226  -14.9767 C   0  0  2  0  0  0  0  0  0  0  0  0
   23.1008  -10.7327  -15.9941 C   0  0  0  0  0  0  0  0  0  0  0  0
   20.7434   -9.9580  -15.4667 C   0  0  2  0  0  0  0  0  0  0  0  0
   20.3602  -10.8660  -16.5253 N   0  0  0  0  0  0  0  0  0  0  0  0
   20.4149   -8.5889  -15.8517 C   0  0  0  0  0  0  0  0  0  0  0  0
   20.7303   -8.2173  -17.0136 O   0  0  0  0  0  0  0  0  0  0  0  0
   19.7692   -7.6300  -15.0391 N   0  0  0  0  0  0  0  0  0  0  0  0
   19.5738   -6.2747  -15.5823 C   0  0  1  0  0  0  0  0  0  0  0  0
   18.1299   -5.9075  -15.5292 C   0  0  0  0  0  0  0  0  0  0  0  0
   17.9103   -4.4646  -15.8481 C   0  0  0  0  0  0  0  0  0  0  0  0
   16.4528   -4.1134  -15.6518 C   0  0  0  0  0  0  0  0  0  0  0  0
   16.2425   -2.6226  -15.9524 C   0  0  0  0  0  0  0  0  0  0  0  0
   14.8537   -2.3093  -15.6989 N   0  0  0  0  0  0  0  0  0  0  0  0
   20.4527   -5.3781  -14.7881 C   0  0  0  0  0  0  0  0  0  0  0  0
   20.9279   -4.2251  -15.3586 O   0  0  0  0  0  0  0  0  0  0  0  0
   20.7750   -5.6570  -13.5953 O   0  0  0  0  0  0  0  0  0  0  0  0
  1  2  1  0
  2  3  2  0
  2  4  1  0
  4  5  1  0
  5  7  1  0
  5  6  1  1
  7  8  2  0
 10 12  1  0
 10  9  1  6
 10 11  1  0
 13  7  1  0
 12 13  1  6
 14 12  1  0
 14 15  2  0
 16 14  1  0
 17 23  1  0
 17 16  1  0
 17 18  1  1
 19 18  1  0
 20 19  1  0
 21 20  1  0
 21 22  1  0
 23 24  1  0
 25 23  2  0
M  END
$$$$
