AQR.pdb
     RDKit          3D

 26 25  0  0  1  0  0  0  0  0999 V2000
   12.7532  -15.7372   14.3943 C   0  0  0  0  0  0  0  0  0  0  0  0
   11.6381  -16.3795   15.2253 C   0  0  2  0  0  0  0  0  0  0  0  0
   10.3772  -16.0797   14.6249 N   0  0  0  0  0  0  0  0  0  0  0  0
   11.6949  -15.7627   16.5951 C   0  0  0  0  0  0  0  0  0  0  0  0
   12.7179  -15.9296   17.2705 O   0  0  0  0  0  0  0  0  0  0  0  0
    6.6118  -12.8428   19.3887 N   0  0  0  0  0  0  0  0  0  0  0  0
    7.6409  -12.7920   20.3617 C   0  0  0  0  0  0  0  0  0  0  0  0
    7.4032  -12.2389   21.4574 O   0  0  0  0  0  0  0  0  0  0  0  0
    9.0060  -13.3901   20.1080 C   0  0  0  0  0  0  0  0  0  0  0  0
    9.0571  -13.9939   18.7621 C   0  0  0  0  0  0  0  0  0  0  0  0
   10.4239  -14.5488   18.4425 C   0  0  2  0  0  0  0  0  0  0  0  0
   10.6305  -15.0136   17.1168 N   0  0  0  0  0  0  0  0  0  0  0  0
   11.0251  -15.3477   19.5174 C   0  0  0  0  0  0  0  0  0  0  0  0
   11.0147  -16.6089   19.5359 O   0  0  0  0  0  0  0  0  0  0  0  0
   11.6334  -18.2198   28.1339 N   0  0  0  0  0  0  0  0  0  0  0  0
   11.2009  -17.3385   27.0885 C   0  0  0  0  0  0  0  0  0  0  0  0
   10.6208  -16.2375   27.4163 N   0  0  0  0  0  0  0  0  0  0  0  0
   11.4329  -17.7221   25.7430 N   0  0  0  0  0  0  0  0  0  0  0  0
   11.2626  -16.7229   24.7112 C   0  0  0  0  0  0  0  0  0  0  0  0
   11.6917  -17.2632   23.3550 C   0  0  0  0  0  0  0  0  0  0  0  0
   11.1016  -16.3907   22.2848 C   0  0  0  0  0  0  0  0  0  0  0  0
   12.1435  -15.4131   21.7655 C   0  0  2  0  0  0  0  0  0  0  0  0
   11.6605  -14.6883   20.6095 N   0  0  0  0  0  0  0  0  0  0  0  0
   13.3969  -16.1360   21.3953 C   0  0  0  0  0  0  0  0  0  0  0  0
   13.4589  -16.8529   20.3655 O   0  0  0  0  0  0  0  0  0  0  0  0
   14.5393  -16.0463   22.1695 O   0  0  0  0  0  0  0  0  0  0  0  0
  2  1  1  6
  3  2  1  0
  4  2  1  0
  4  5  2  0
  6  7  1  0
  7  9  1  0
  8  7  2  0
  9 10  1  0
 11 10  1  1
 11 12  1  0
 12  4  1  0
 13 11  1  0
 13 23  1  0
 14 13  2  0
 16 18  1  0
 16 15  1  0
 17 16  2  0
 19 20  1  0
 19 18  1  0
 20 21  1  0
 22 21  1  6
 22 23  1  0
 22 24  1  0
 24 25  2  0
 24 26  1  0
M  END
$$$$
