AQR.pdb
     RDKit          3D

 26 25  0  0  1  0  0  0  0  0999 V2000
    4.7322  -18.9396   22.5452 C   0  0  0  0  0  0  0  0  0  0  0  0
    5.2413  -18.3111   21.2443 C   0  0  2  0  0  0  0  0  0  0  0  0
    5.5377  -19.3496   20.3094 N   0  0  0  0  0  0  0  0  0  0  0  0
    6.5046  -17.5668   21.5766 C   0  0  0  0  0  0  0  0  0  0  0  0
    7.4488  -18.2029   22.0607 O   0  0  0  0  0  0  0  0  0  0  0  0
    7.8521  -11.9368   19.0037 N   0  0  0  0  0  0  0  0  0  0  0  0
    7.8599  -13.2316   18.4278 C   0  0  0  0  0  0  0  0  0  0  0  0
    7.8338  -13.3339   17.1821 O   0  0  0  0  0  0  0  0  0  0  0  0
    7.9030  -14.4805   19.2786 C   0  0  0  0  0  0  0  0  0  0  0  0
    7.8788  -14.1242   20.7108 C   0  0  0  0  0  0  0  0  0  0  0  0
    7.7482  -15.3409   21.5944 C   0  0  2  0  0  0  0  0  0  0  0  0
    6.6348  -16.1886   21.3534 N   0  0  0  0  0  0  0  0  0  0  0  0
    8.1078  -15.1162   22.9998 C   0  0  0  0  0  0  0  0  0  0  0  0
    7.3275  -14.5949   23.8426 O   0  0  0  0  0  0  0  0  0  0  0  0
    6.4267  -20.5013   27.6586 N   0  0  0  0  0  0  0  0  0  0  0  0
    7.8561  -20.6180   27.6607 C   0  0  0  0  0  0  0  0  0  0  0  0
    8.4005  -21.4633   28.4639 N   0  0  0  0  0  0  0  0  0  0  0  0
    8.6018  -19.7962   26.7775 N   0  0  0  0  0  0  0  0  0  0  0  0
    8.2599  -18.3928   26.7015 C   0  0  0  0  0  0  0  0  0  0  0  0
    9.1887  -17.6579   25.7462 C   0  0  0  0  0  0  0  0  0  0  0  0
    8.8108  -16.2047   25.7359 C   0  0  0  0  0  0  0  0  0  0  0  0
    9.7696  -15.4153   24.8594 C   0  0  2  0  0  0  0  0  0  0  0  0
    9.4006  -15.4981   23.4622 N   0  0  0  0  0  0  0  0  0  0  0  0
   11.1641  -15.9244   25.0234 C   0  0  0  0  0  0  0  0  0  0  0  0
   11.7350  -16.5738   24.1120 O   0  0  0  0  0  0  0  0  0  0  0  0
   11.8834  -15.7025   26.1835 O   0  0  0  0  0  0  0  0  0  0  0  0
  2  1  1  1
  3  2  1  0
  4  2  1  0
  4  5  2  0
  6  7  1  0
  7  9  1  0
  8  7  2  0
  9 10  1  0
 11 10  1  1
 11 12  1  0
 12  4  1  0
 13 11  1  0
 13 23  1  0
 14 13  2  0
 16 18  1  0
 16 15  1  0
 17 16  2  0
 19 20  1  0
 19 18  1  0
 20 21  1  0
 22 21  1  1
 22 23  1  0
 22 24  1  0
 24 25  2  0
 24 26  1  0
M  END
$$$$
