AQR.pdb
     RDKit          3D

 26 25  0  0  1  0  0  0  0  0999 V2000
    5.3732  -20.0623   19.6588 C   0  0  0  0  0  0  0  0  0  0  0  0
    5.8794  -18.9571   18.7267 C   0  0  2  0  0  0  0  0  0  0  0  0
    6.4066  -19.5527   17.5401 N   0  0  0  0  0  0  0  0  0  0  0  0
    6.9814  -18.2360   19.4519 C   0  0  0  0  0  0  0  0  0  0  0  0
    8.0074  -18.8671   19.7340 O   0  0  0  0  0  0  0  0  0  0  0  0
    7.4493  -11.9137   19.4631 N   0  0  0  0  0  0  0  0  0  0  0  0
    7.6768  -12.8528   18.4263 C   0  0  0  0  0  0  0  0  0  0  0  0
    7.7006  -12.4467   17.2443 O   0  0  0  0  0  0  0  0  0  0  0  0
    7.8936  -14.3207   18.7160 C   0  0  0  0  0  0  0  0  0  0  0  0
    7.7629  -14.5807   20.1630 C   0  0  0  0  0  0  0  0  0  0  0  0
    7.8129  -16.0556   20.4796 C   0  0  2  0  0  0  0  0  0  0  0  0
    6.8742  -16.8847   19.8104 N   0  0  0  0  0  0  0  0  0  0  0  0
    8.0745  -16.3688   21.8897 C   0  0  0  0  0  0  0  0  0  0  0  0
    7.2215  -16.2151   22.8062 O   0  0  0  0  0  0  0  0  0  0  0  0
   13.4442  -22.1827   25.5859 N   0  0  0  0  0  0  0  0  0  0  0  0
   12.7856  -21.6032   26.7204 C   0  0  0  0  0  0  0  0  0  0  0  0
   12.8916  -22.1945   27.8584 N   0  0  0  0  0  0  0  0  0  0  0  0
   12.0487  -20.4058   26.5342 N   0  0  0  0  0  0  0  0  0  0  0  0
   11.8551  -19.9288   25.1825 C   0  0  0  0  0  0  0  0  0  0  0  0
   10.8777  -18.7629   25.1522 C   0  0  0  0  0  0  0  0  0  0  0  0
   10.6294  -18.3851   23.7203 C   0  0  0  0  0  0  0  0  0  0  0  0
    9.6626  -17.2145   23.6424 C   0  0  2  0  0  0  0  0  0  0  0  0
    9.3514  -16.8746   22.2703 N   0  0  0  0  0  0  0  0  0  0  0  0
   10.2413  -16.0155   24.3193 C   0  0  0  0  0  0  0  0  0  0  0  0
   10.9730  -15.2037   23.6998 O   0  0  0  0  0  0  0  0  0  0  0  0
    9.9959  -15.7497   25.6542 O   0  0  0  0  0  0  0  0  0  0  0  0
  2  1  1  1
  3  2  1  0
  4  2  1  0
  4  5  2  0
  6  7  1  0
  7  9  1  0
  8  7  2  0
  9 10  1  0
 11 10  1  1
 11 12  1  0
 12  4  1  0
 13 11  1  0
 13 23  1  0
 14 13  2  0
 16 18  1  0
 16 15  1  0
 17 16  2  0
 19 20  1  0
 19 18  1  0
 20 21  1  0
 22 21  1  6
 22 23  1  0
 22 24  1  0
 24 25  2  0
 24 26  1  0
M  END
$$$$
