AQR.pdb
     RDKit          3D

 26 25  0  0  1  0  0  0  0  0999 V2000
    4.7389  -21.0936   24.3730 C   0  0  0  0  0  0  0  0  0  0  0  0
    5.4435  -21.1493   23.0140 C   0  0  2  0  0  0  0  0  0  0  0  0
    4.9983  -22.3066   22.3048 N   0  0  0  0  0  0  0  0  0  0  0  0
    6.9177  -21.2691   23.2838 C   0  0  0  0  0  0  0  0  0  0  0  0
    7.4182  -22.4001   23.3095 O   0  0  0  0  0  0  0  0  0  0  0  0
   13.1376  -17.7298   22.4527 N   0  0  0  0  0  0  0  0  0  0  0  0
   12.2975  -18.8377   22.1789 C   0  0  0  0  0  0  0  0  0  0  0  0
   12.2857  -19.3097   21.0214 O   0  0  0  0  0  0  0  0  0  0  0  0
   11.4262  -19.4586   23.2472 C   0  0  0  0  0  0  0  0  0  0  0  0
   10.0019  -19.3367   22.8796 C   0  0  0  0  0  0  0  0  0  0  0  0
    9.1044  -20.0807   23.8382 C   0  0  2  0  0  0  0  0  0  0  0  0
    7.7259  -20.1445   23.5037 N   0  0  0  0  0  0  0  0  0  0  0  0
    9.4252  -19.8787   25.2565 C   0  0  0  0  0  0  0  0  0  0  0  0
    9.6372  -18.7449   25.7670 O   0  0  0  0  0  0  0  0  0  0  0  0
   10.2218  -25.0079   32.7012 N   0  0  0  0  0  0  0  0  0  0  0  0
    9.5045  -23.7921   32.4477 C   0  0  0  0  0  0  0  0  0  0  0  0
    8.3587  -23.6282   33.0102 N   0  0  0  0  0  0  0  0  0  0  0  0
   10.0920  -22.8281   31.5892 N   0  0  0  0  0  0  0  0  0  0  0  0
   10.4501  -23.2383   30.2492 C   0  0  0  0  0  0  0  0  0  0  0  0
   10.9631  -22.0574   29.4380 C   0  0  0  0  0  0  0  0  0  0  0  0
   10.4920  -22.2111   28.0205 C   0  0  0  0  0  0  0  0  0  0  0  0
    9.9614  -20.8876   27.4933 C   0  0  2  0  0  0  0  0  0  0  0  0
    9.5076  -21.0064   26.1240 N   0  0  0  0  0  0  0  0  0  0  0  0
   11.0208  -19.8371   27.5634 C   0  0  0  0  0  0  0  0  0  0  0  0
   10.9023  -18.8374   28.3150 O   0  0  0  0  0  0  0  0  0  0  0  0
   12.1742  -19.9213   26.8050 O   0  0  0  0  0  0  0  0  0  0  0  0
  2  1  1  1
  3  2  1  0
  4  2  1  0
  4  5  2  0
  6  7  1  0
  7  9  1  0
  8  7  2  0
  9 10  1  0
 11 10  1  6
 11 12  1  0
 12  4  1  0
 13 11  1  0
 13 23  1  0
 14 13  2  0
 16 18  1  0
 16 15  1  0
 17 16  2  0
 19 20  1  0
 19 18  1  0
 20 21  1  0
 22 21  1  6
 22 23  1  0
 22 24  1  0
 24 25  2  0
 24 26  1  0
M  END
$$$$
