AQR.pdb
     RDKit          3D

 26 25  0  0  1  0  0  0  0  0999 V2000
   10.8105  -18.8465   16.7365 C   0  0  0  0  0  0  0  0  0  0  0  0
   11.7324  -19.1244   17.9279 C   0  0  2  0  0  0  0  0  0  0  0  0
   12.0182  -20.5229   17.9803 N   0  0  0  0  0  0  0  0  0  0  0  0
   10.9851  -18.7236   19.1693 C   0  0  0  0  0  0  0  0  0  0  0  0
   10.7374  -17.5239   19.3419 O   0  0  0  0  0  0  0  0  0  0  0  0
    8.2297  -22.2459   23.1845 N   0  0  0  0  0  0  0  0  0  0  0  0
    8.1959  -22.4710   21.7857 C   0  0  0  0  0  0  0  0  0  0  0  0
    7.9763  -23.6293   21.3700 O   0  0  0  0  0  0  0  0  0  0  0  0
    8.4134  -21.3506   20.7942 C   0  0  0  0  0  0  0  0  0  0  0  0
    8.5270  -20.0590   21.4994 C   0  0  0  0  0  0  0  0  0  0  0  0
    9.9038  -19.4569   21.3591 C   0  0  2  0  0  0  0  0  0  0  0  0
   10.5687  -19.6648   20.1217 N   0  0  0  0  0  0  0  0  0  0  0  0
   10.7317  -19.5376   22.5687 C   0  0  0  0  0  0  0  0  0  0  0  0
   10.7620  -20.5468   23.3247 O   0  0  0  0  0  0  0  0  0  0  0  0
   11.4826  -22.3322   29.4414 N   0  0  0  0  0  0  0  0  0  0  0  0
   12.2481  -21.1519   29.7202 C   0  0  0  0  0  0  0  0  0  0  0  0
   12.4436  -20.8247   30.9494 N   0  0  0  0  0  0  0  0  0  0  0  0
   12.7534  -20.4014   28.6281 N   0  0  0  0  0  0  0  0  0  0  0  0
   11.8687  -20.1409   27.5138 C   0  0  0  0  0  0  0  0  0  0  0  0
   12.5621  -19.2960   26.4551 C   0  0  0  0  0  0  0  0  0  0  0  0
   11.6580  -19.1904   25.2609 C   0  0  0  0  0  0  0  0  0  0  0  0
   12.3494  -18.4313   24.1398 C   0  0  2  0  0  0  0  0  0  0  0  0
   11.5537  -18.4311   22.9307 N   0  0  0  0  0  0  0  0  0  0  0  0
   13.6810  -19.0394   23.8435 C   0  0  0  0  0  0  0  0  0  0  0  0
   13.7882  -20.0564   23.1138 O   0  0  0  0  0  0  0  0  0  0  0  0
   14.8494  -18.5087   24.3593 O   0  0  0  0  0  0  0  0  0  0  0  0
  2  1  1  6
  3  2  1  0
  4  2  1  0
  4  5  2  0
  6  7  1  0
  7  9  1  0
  8  7  2  0
  9 10  1  0
 11 10  1  1
 11 12  1  0
 12  4  1  0
 13 11  1  0
 13 23  1  0
 14 13  2  0
 16 18  1  0
 16 15  1  0
 17 16  2  0
 19 20  1  0
 19 18  1  0
 20 21  1  0
 22 21  1  1
 22 23  1  0
 22 24  1  0
 24 25  2  0
 24 26  1  0
M  END
$$$$
