AQR.pdb
     RDKit          3D

 26 25  0  0  1  0  0  0  0  0999 V2000
    8.4952  -12.5406   19.1475 C   0  0  0  0  0  0  0  0  0  0  0  0
    9.1714  -13.3929   18.0691 C   0  0  2  0  0  0  0  0  0  0  0  0
    8.1688  -14.0949   17.3326 N   0  0  0  0  0  0  0  0  0  0  0  0
   10.0533  -14.3841   18.7761 C   0  0  0  0  0  0  0  0  0  0  0  0
    9.5495  -15.4471   19.1593 O   0  0  0  0  0  0  0  0  0  0  0  0
   16.1577  -16.1035   17.0309 N   0  0  0  0  0  0  0  0  0  0  0  0
   15.2894  -14.9836   17.0474 C   0  0  0  0  0  0  0  0  0  0  0  0
   15.7212  -13.8840   16.6387 O   0  0  0  0  0  0  0  0  0  0  0  0
   13.8639  -15.0894   17.5400 C   0  0  0  0  0  0  0  0  0  0  0  0
   13.8059  -14.8413   18.9938 C   0  0  0  0  0  0  0  0  0  0  0  0
   12.4074  -14.9985   19.5393 C   0  0  2  0  0  0  0  0  0  0  0  0
   11.4136  -14.1348   19.0075 N   0  0  0  0  0  0  0  0  0  0  0  0
   12.3409  -15.2633   20.9817 C   0  0  0  0  0  0  0  0  0  0  0  0
   12.9309  -14.5592   21.8460 O   0  0  0  0  0  0  0  0  0  0  0  0
    7.1383  -13.3745   22.8713 N   0  0  0  0  0  0  0  0  0  0  0  0
    7.2467  -13.6534   24.2739 C   0  0  0  0  0  0  0  0  0  0  0  0
    6.6820  -12.8483   25.1039 N   0  0  0  0  0  0  0  0  0  0  0  0
    7.9710  -14.8033   24.6796 N   0  0  0  0  0  0  0  0  0  0  0  0
    8.6810  -15.5530   23.6668 C   0  0  0  0  0  0  0  0  0  0  0  0
    9.4693  -16.6961   24.2892 C   0  0  0  0  0  0  0  0  0  0  0  0
   10.2042  -17.4194   23.1975 C   0  0  0  0  0  0  0  0  0  0  0  0
   11.5000  -16.6977   22.8644 C   0  0  2  0  0  0  0  0  0  0  0  0
   11.5762  -16.3680   21.4571 N   0  0  0  0  0  0  0  0  0  0  0  0
   12.6756  -17.5440   23.2282 C   0  0  0  0  0  0  0  0  0  0  0  0
   13.0828  -17.6234   24.4139 O   0  0  0  0  0  0  0  0  0  0  0  0
   13.3634  -18.2742   22.2762 O   0  0  0  0  0  0  0  0  0  0  0  0
  2  1  1  1
  3  2  1  0
  4  2  1  0
  4  5  2  0
  6  7  1  0
  7  9  1  0
  8  7  2  0
  9 10  1  0
 11 10  1  1
 11 12  1  0
 12  4  1  0
 13 11  1  0
 13 23  1  0
 14 13  2  0
 16 18  1  0
 16 15  1  0
 17 16  2  0
 19 20  1  0
 19 18  1  0
 20 21  1  0
 22 21  1  6
 22 23  1  0
 22 24  1  0
 24 25  2  0
 24 26  1  0
M  END
$$$$
