AQR.pdb
     RDKit          3D

 26 25  0  0  1  0  0  0  0  0999 V2000
    9.4608  -20.4930   15.3859 C   0  0  0  0  0  0  0  0  0  0  0  0
   10.6732  -21.3365   14.9796 C   0  0  2  0  0  0  0  0  0  0  0  0
   10.2373  -22.6610   14.6698 N   0  0  0  0  0  0  0  0  0  0  0  0
   11.5980  -21.3826   16.1640 C   0  0  0  0  0  0  0  0  0  0  0  0
   12.1124  -20.3246   16.5468 O   0  0  0  0  0  0  0  0  0  0  0  0
   11.4809  -25.3929   21.0726 N   0  0  0  0  0  0  0  0  0  0  0  0
   12.6976  -24.6835   21.2298 C   0  0  0  0  0  0  0  0  0  0  0  0
   13.3503  -24.8390   22.2846 O   0  0  0  0  0  0  0  0  0  0  0  0
   13.2211  -23.7546   20.1581 C   0  0  0  0  0  0  0  0  0  0  0  0
   12.3106  -23.7501   18.9964 C   0  0  0  0  0  0  0  0  0  0  0  0
   12.7823  -22.8131   17.9113 C   0  0  2  0  0  0  0  0  0  0  0  0
   11.8862  -22.5798   16.8347 N   0  0  0  0  0  0  0  0  0  0  0  0
   14.2023  -22.9471   17.5637 C   0  0  0  0  0  0  0  0  0  0  0  0
   14.7001  -23.9922   17.0627 O   0  0  0  0  0  0  0  0  0  0  0  0
   20.2784  -16.7094   16.2883 N   0  0  0  0  0  0  0  0  0  0  0  0
   20.9476  -17.8923   15.8305 C   0  0  0  0  0  0  0  0  0  0  0  0
   22.0953  -17.7658   15.2622 N   0  0  0  0  0  0  0  0  0  0  0  0
   20.3128  -19.1454   16.0258 N   0  0  0  0  0  0  0  0  0  0  0  0
   19.0153  -19.1589   16.6649 C   0  0  0  0  0  0  0  0  0  0  0  0
   18.4436  -20.5686   16.7048 C   0  0  0  0  0  0  0  0  0  0  0  0
   17.1059  -20.5223   17.3855 C   0  0  0  0  0  0  0  0  0  0  0  0
   16.4857  -21.9095   17.4272 C   0  0  2  0  0  0  0  0  0  0  0  0
   15.0867  -21.8537   17.7944 N   0  0  0  0  0  0  0  0  0  0  0  0
   17.2096  -22.7742   18.4066 C   0  0  0  0  0  0  0  0  0  0  0  0
   17.8582  -23.7834   18.0340 O   0  0  0  0  0  0  0  0  0  0  0  0
   17.1958  -22.4999   19.7620 O   0  0  0  0  0  0  0  0  0  0  0  0
  2  1  1  1
  3  2  1  0
  4  2  1  0
  4  5  2  0
  6  7  1  0
  7  9  1  0
  8  7  2  0
  9 10  1  0
 11 10  1  6
 11 12  1  0
 12  4  1  0
 13 11  1  0
 13 23  1  0
 14 13  2  0
 16 18  1  0
 16 15  1  0
 17 16  2  0
 19 20  1  0
 19 18  1  0
 20 21  1  0
 22 21  1  1
 22 23  1  0
 22 24  1  0
 24 25  2  0
 24 26  1  0
M  END
$$$$
