AQR.pdb
     RDKit          3D

 26 25  0  0  1  0  0  0  0  0999 V2000
   11.8428  -17.7363   19.6213 C   0  0  0  0  0  0  0  0  0  0  0  0
   11.2139  -18.1252   20.9629 C   0  0  2  0  0  0  0  0  0  0  0  0
    9.9889  -18.8188   20.7202 N   0  0  0  0  0  0  0  0  0  0  0  0
   10.9235  -16.8491   21.7027 C   0  0  0  0  0  0  0  0  0  0  0  0
   11.8762  -16.1259   22.0189 O   0  0  0  0  0  0  0  0  0  0  0  0
    6.1603  -13.5410   20.3045 N   0  0  0  0  0  0  0  0  0  0  0  0
    7.4467  -13.7276   19.7399 C   0  0  0  0  0  0  0  0  0  0  0  0
    7.6050  -13.5011   18.5207 O   0  0  0  0  0  0  0  0  0  0  0  0
    8.6222  -14.1863   20.5727 C   0  0  0  0  0  0  0  0  0  0  0  0
    8.2015  -14.4129   21.9692 C   0  0  0  0  0  0  0  0  0  0  0  0
    9.1680  -15.3010   22.7143 C   0  0  2  0  0  0  0  0  0  0  0  0
    9.6169  -16.4657   22.0374 N   0  0  0  0  0  0  0  0  0  0  0  0
    8.8842  -15.4451   24.1474 C   0  0  0  0  0  0  0  0  0  0  0  0
    8.5052  -14.4914   24.8807 O   0  0  0  0  0  0  0  0  0  0  0  0
    5.8710  -21.6430   23.0683 N   0  0  0  0  0  0  0  0  0  0  0  0
    5.3997  -20.3296   22.7373 C   0  0  0  0  0  0  0  0  0  0  0  0
    4.8855  -20.1386   21.5732 N   0  0  0  0  0  0  0  0  0  0  0  0
    5.5228  -19.3035   23.7087 N   0  0  0  0  0  0  0  0  0  0  0  0
    6.7128  -19.2834   24.5306 C   0  0  0  0  0  0  0  0  0  0  0  0
    6.6642  -18.1366   25.5296 C   0  0  0  0  0  0  0  0  0  0  0  0
    7.9046  -18.1863   26.3744 C   0  0  0  0  0  0  0  0  0  0  0  0
    8.7359  -16.9305   26.1675 C   0  0  2  0  0  0  0  0  0  0  0  0
    9.0371  -16.7191   24.7676 N   0  0  0  0  0  0  0  0  0  0  0  0
   10.0167  -17.0225   26.9302 C   0  0  0  0  0  0  0  0  0  0  0  0
   10.0263  -17.1901   28.1752 O   0  0  0  0  0  0  0  0  0  0  0  0
   11.2433  -16.9271   26.2984 O   0  0  0  0  0  0  0  0  0  0  0  0
  2  1  1  6
  3  2  1  0
  4  2  1  0
  4  5  2  0
  6  7  1  0
  7  9  1  0
  8  7  2  0
  9 10  1  0
 11 10  1  6
 11 12  1  0
 12  4  1  0
 13 11  1  0
 13 23  1  0
 14 13  2  0
 16 18  1  0
 16 15  1  0
 17 16  2  0
 19 20  1  0
 19 18  1  0
 20 21  1  0
 22 21  1  6
 22 23  1  0
 22 24  1  0
 24 25  2  0
 24 26  1  0
M  END
$$$$
