AQR.pdb
     RDKit          3D

 26 25  0  0  1  0  0  0  0  0999 V2000
    6.7695  -20.0975   18.5380 C   0  0  0  0  0  0  0  0  0  0  0  0
    5.2989  -20.2103   18.9517 C   0  0  2  0  0  0  0  0  0  0  0  0
    4.6025  -19.0392   18.5229 N   0  0  0  0  0  0  0  0  0  0  0  0
    5.2654  -20.2860   20.4528 C   0  0  0  0  0  0  0  0  0  0  0  0
    5.4744  -19.2502   21.0961 O   0  0  0  0  0  0  0  0  0  0  0  0
    2.4417  -25.0047   23.8061 N   0  0  0  0  0  0  0  0  0  0  0  0
    2.9353  -24.1013   24.7801 C   0  0  0  0  0  0  0  0  0  0  0  0
    2.6242  -24.2815   25.9773 O   0  0  0  0  0  0  0  0  0  0  0  0
    3.8252  -22.9373   24.4071 C   0  0  0  0  0  0  0  0  0  0  0  0
    3.9614  -22.8478   22.9401 C   0  0  0  0  0  0  0  0  0  0  0  0
    4.8748  -21.7205   22.5244 C   0  0  2  0  0  0  0  0  0  0  0  0
    5.0064  -21.4862   21.1301 N   0  0  0  0  0  0  0  0  0  0  0  0
    6.0977  -21.5979   23.3272 C   0  0  0  0  0  0  0  0  0  0  0  0
    7.1873  -22.1567   23.0245 O   0  0  0  0  0  0  0  0  0  0  0  0
    9.1006  -20.6167   29.8173 N   0  0  0  0  0  0  0  0  0  0  0  0
    9.7397  -19.3342   29.8764 C   0  0  0  0  0  0  0  0  0  0  0  0
   10.8452  -19.2301   30.5270 N   0  0  0  0  0  0  0  0  0  0  0  0
    9.1232  -18.2416   29.2150 N   0  0  0  0  0  0  0  0  0  0  0  0
    7.9417  -18.5041   28.4230 C   0  0  0  0  0  0  0  0  0  0  0  0
    8.2510  -19.4701   27.2888 C   0  0  0  0  0  0  0  0  0  0  0  0
    7.0301  -19.5979   26.4240 C   0  0  0  0  0  0  0  0  0  0  0  0
    7.2636  -20.6253   25.3281 C   0  0  2  0  0  0  0  0  0  0  0  0
    6.0802  -20.8120   24.5159 N   0  0  0  0  0  0  0  0  0  0  0  0
    7.6566  -21.9386   25.9210 C   0  0  0  0  0  0  0  0  0  0  0  0
    6.7965  -22.7414   26.3614 O   0  0  0  0  0  0  0  0  0  0  0  0
    8.9817  -22.3247   26.0095 O   0  0  0  0  0  0  0  0  0  0  0  0
  2  1  1  1
  3  2  1  0
  4  2  1  0
  4  5  2  0
  6  7  1  0
  7  9  1  0
  8  7  2  0
  9 10  1  0
 11 10  1  6
 11 12  1  0
 12  4  1  0
 13 11  1  0
 13 23  1  0
 14 13  2  0
 16 18  1  0
 16 15  1  0
 17 16  2  0
 19 20  1  0
 19 18  1  0
 20 21  1  0
 22 21  1  1
 22 23  1  0
 22 24  1  0
 24 25  2  0
 24 26  1  0
M  END
$$$$
