AQR.pdb
     RDKit          3D

 26 25  0  0  1  0  0  0  0  0999 V2000
    7.0103  -14.5750   19.0732 C   0  0  0  0  0  0  0  0  0  0  0  0
    7.4796  -13.2595   19.7023 C   0  0  2  0  0  0  0  0  0  0  0  0
    8.4818  -12.6753   18.8688 N   0  0  0  0  0  0  0  0  0  0  0  0
    8.0801  -13.5967   21.0386 C   0  0  0  0  0  0  0  0  0  0  0  0
    9.2324  -14.0462   21.0661 O   0  0  0  0  0  0  0  0  0  0  0  0
    5.3325  -12.2756   26.7757 N   0  0  0  0  0  0  0  0  0  0  0  0
    6.5727  -12.8866   27.0869 C   0  0  0  0  0  0  0  0  0  0  0  0
    6.9053  -12.9907   28.2874 O   0  0  0  0  0  0  0  0  0  0  0  0
    7.4922  -13.4144   26.0091 C   0  0  0  0  0  0  0  0  0  0  0  0
    6.9507  -13.0946   24.6738 C   0  0  0  0  0  0  0  0  0  0  0  0
    7.7738  -13.7084   23.5676 C   0  0  2  0  0  0  0  0  0  0  0  0
    7.3742  -13.4161   22.2367 N   0  0  0  0  0  0  0  0  0  0  0  0
    8.2219  -15.0815   23.8299 C   0  0  0  0  0  0  0  0  0  0  0  0
    7.4819  -16.0933   23.6900 O   0  0  0  0  0  0  0  0  0  0  0  0
   14.3845  -14.2915   20.2232 N   0  0  0  0  0  0  0  0  0  0  0  0
   13.2195  -15.1139   20.3754 C   0  0  0  0  0  0  0  0  0  0  0  0
   12.4154  -15.2278   19.3771 N   0  0  0  0  0  0  0  0  0  0  0  0
   13.0089  -15.7628   21.6188 N   0  0  0  0  0  0  0  0  0  0  0  0
   12.3645  -17.0577   21.6104 C   0  0  0  0  0  0  0  0  0  0  0  0
   11.0354  -17.0083   22.3498 C   0  0  0  0  0  0  0  0  0  0  0  0
   11.3110  -16.9702   23.8254 C   0  0  0  0  0  0  0  0  0  0  0  0
   10.0413  -16.6366   24.5919 C   0  0  2  0  0  0  0  0  0  0  0  0
    9.5589  -15.3112   24.2667 N   0  0  0  0  0  0  0  0  0  0  0  0
   10.2854  -16.7160   26.0632 C   0  0  0  0  0  0  0  0  0  0  0  0
   10.1926  -15.7010   26.7976 O   0  0  0  0  0  0  0  0  0  0  0  0
   10.6230  -17.9084   26.6771 O   0  0  0  0  0  0  0  0  0  0  0  0
  2  1  1  6
  3  2  1  0
  4  2  1  0
  4  5  2  0
  6  7  1  0
  7  9  1  0
  8  7  2  0
  9 10  1  0
 11 10  1  1
 11 12  1  0
 12  4  1  0
 13 11  1  0
 13 23  1  0
 14 13  2  0
 16 18  1  0
 16 15  1  0
 17 16  2  0
 19 20  1  0
 19 18  1  0
 20 21  1  0
 22 21  1  6
 22 23  1  0
 22 24  1  0
 24 25  2  0
 24 26  1  0
M  END
$$$$
