AQR.pdb
     RDKit          3D

 26 25  0  0  1  0  0  0  0  0999 V2000
   14.4104  -13.9308   18.6737 C   0  0  0  0  0  0  0  0  0  0  0  0
   14.1999  -15.3677   18.1863 C   0  0  2  0  0  0  0  0  0  0  0  0
   13.6339  -15.3374   16.8752 N   0  0  0  0  0  0  0  0  0  0  0  0
   13.2285  -16.0183   19.1315 C   0  0  0  0  0  0  0  0  0  0  0  0
   12.0198  -15.8225   18.9552 O   0  0  0  0  0  0  0  0  0  0  0  0
   14.3926  -21.1674   22.7874 N   0  0  0  0  0  0  0  0  0  0  0  0
   13.0476  -20.8093   23.0539 C   0  0  0  0  0  0  0  0  0  0  0  0
   12.3486  -21.5788   23.7480 O   0  0  0  0  0  0  0  0  0  0  0  0
   12.4461  -19.5268   22.5255 C   0  0  0  0  0  0  0  0  0  0  0  0
   13.4391  -18.7912   21.7184 C   0  0  0  0  0  0  0  0  0  0  0  0
   12.8833  -17.4947   21.1815 C   0  0  2  0  0  0  0  0  0  0  0  0
   13.6552  -16.8299   20.1923 N   0  0  0  0  0  0  0  0  0  0  0  0
   12.2368  -16.6442   22.1883 C   0  0  0  0  0  0  0  0  0  0  0  0
   12.8749  -15.9642   23.0377 O   0  0  0  0  0  0  0  0  0  0  0  0
    8.5571  -12.6782   17.4513 N   0  0  0  0  0  0  0  0  0  0  0  0
    8.2431  -12.9210   18.8295 C   0  0  0  0  0  0  0  0  0  0  0  0
    8.5422  -12.0162   19.6944 N   0  0  0  0  0  0  0  0  0  0  0  0
    7.6180  -14.1466   19.1737 N   0  0  0  0  0  0  0  0  0  0  0  0
    7.5440  -14.5034   20.5735 C   0  0  0  0  0  0  0  0  0  0  0  0
    8.9238  -14.8325   21.1243 C   0  0  0  0  0  0  0  0  0  0  0  0
    8.7796  -15.2361   22.5634 C   0  0  0  0  0  0  0  0  0  0  0  0
   10.1237  -15.6652   23.1294 C   0  0  2  0  0  0  0  0  0  0  0  0
   10.8145  -16.5648   22.2301 N   0  0  0  0  0  0  0  0  0  0  0  0
    9.9410  -16.3434   24.4474 C   0  0  0  0  0  0  0  0  0  0  0  0
    9.4331  -15.7433   25.4273 O   0  0  0  0  0  0  0  0  0  0  0  0
   10.3228  -17.6581   24.6435 O   0  0  0  0  0  0  0  0  0  0  0  0
  2  1  1  1
  3  2  1  0
  4  2  1  0
  4  5  2  0
  6  7  1  0
  7  9  1  0
  8  7  2  0
  9 10  1  0
 11 10  1  1
 11 12  1  0
 12  4  1  0
 13 11  1  0
 13 23  1  0
 14 13  2  0
 16 18  1  0
 16 15  1  0
 17 16  2  0
 19 20  1  0
 19 18  1  0
 20 21  1  0
 22 21  1  6
 22 23  1  0
 22 24  1  0
 24 25  2  0
 24 26  1  0
M  END
$$$$
