AQR.pdb
     RDKit          3D

 26 25  0  0  1  0  0  0  0  0999 V2000
    7.5714  -19.2283   16.8861 C   0  0  0  0  0  0  0  0  0  0  0  0
    8.3924  -18.0278   17.3670 C   0  0  2  0  0  0  0  0  0  0  0  0
    9.4318  -17.7652   16.4230 N   0  0  0  0  0  0  0  0  0  0  0  0
    9.0046  -18.4095   18.6860 C   0  0  0  0  0  0  0  0  0  0  0  0
    8.2481  -18.6464   19.6359 O   0  0  0  0  0  0  0  0  0  0  0  0
   14.5628  -21.2640   19.4638 N   0  0  0  0  0  0  0  0  0  0  0  0
   13.4173  -21.4840   18.6589 C   0  0  0  0  0  0  0  0  0  0  0  0
   13.4529  -22.3923   17.8008 O   0  0  0  0  0  0  0  0  0  0  0  0
   12.1631  -20.6546   18.8166 C   0  0  0  0  0  0  0  0  0  0  0  0
   12.3343  -19.6707   19.9033 C   0  0  0  0  0  0  0  0  0  0  0  0
   11.1331  -18.7676   20.0435 C   0  0  2  0  0  0  0  0  0  0  0  0
   10.3927  -18.5016   18.8614 N   0  0  0  0  0  0  0  0  0  0  0  0
   11.3205  -17.6411   20.9659 C   0  0  0  0  0  0  0  0  0  0  0  0
   11.9140  -16.5741   20.6492 O   0  0  0  0  0  0  0  0  0  0  0  0
    6.9382  -13.4848   19.5155 N   0  0  0  0  0  0  0  0  0  0  0  0
    7.5418  -12.8342   20.6421 C   0  0  0  0  0  0  0  0  0  0  0  0
    7.4361  -11.5554   20.7401 N   0  0  0  0  0  0  0  0  0  0  0  0
    8.2264  -13.6311   21.5949 N   0  0  0  0  0  0  0  0  0  0  0  0
    7.7672  -14.9865   21.8045 C   0  0  0  0  0  0  0  0  0  0  0  0
    8.5591  -15.6634   22.9136 C   0  0  0  0  0  0  0  0  0  0  0  0
   10.0222  -15.4396   22.6607 C   0  0  0  0  0  0  0  0  0  0  0  0
   10.8365  -16.6038   23.2017 C   0  0  2  0  0  0  0  0  0  0  0  0
   10.8149  -17.7320   22.2953 N   0  0  0  0  0  0  0  0  0  0  0  0
   10.3059  -17.0379   24.5286 C   0  0  0  0  0  0  0  0  0  0  0  0
    9.6980  -18.1288   24.6651 O   0  0  0  0  0  0  0  0  0  0  0  0
   10.4617  -16.2582   25.6602 O   0  0  0  0  0  0  0  0  0  0  0  0
  2  1  1  6
  3  2  1  0
  4  2  1  0
  4  5  2  0
  6  7  1  0
  7  9  1  0
  8  7  2  0
  9 10  1  0
 11 10  1  6
 11 12  1  0
 12  4  1  0
 13 11  1  0
 13 23  1  0
 14 13  2  0
 16 18  1  0
 16 15  1  0
 17 16  2  0
 19 20  1  0
 19 18  1  0
 20 21  1  0
 22 21  1  6
 22 23  1  0
 22 24  1  0
 24 25  2  0
 24 26  1  0
M  END
$$$$
