AQR.pdb
     RDKit          3D

 26 25  0  0  1  0  0  0  0  0999 V2000
    7.5376  -19.9233   18.4884 C   0  0  0  0  0  0  0  0  0  0  0  0
    7.5260  -19.5601   19.9765 C   0  0  2  0  0  0  0  0  0  0  0  0
    6.1725  -19.4367   20.4160 N   0  0  0  0  0  0  0  0  0  0  0  0
    8.2157  -18.2313   20.1137 C   0  0  0  0  0  0  0  0  0  0  0  0
    9.4130  -18.1590   19.8108 O   0  0  0  0  0  0  0  0  0  0  0  0
    8.4523  -11.5228   19.0158 N   0  0  0  0  0  0  0  0  0  0  0  0
    8.4001  -12.8901   19.3846 C   0  0  0  0  0  0  0  0  0  0  0  0
    8.8330  -13.7447   18.5814 O   0  0  0  0  0  0  0  0  0  0  0  0
    7.8414  -13.3338   20.7175 C   0  0  0  0  0  0  0  0  0  0  0  0
    7.1439  -14.6267   20.5743 C   0  0  0  0  0  0  0  0  0  0  0  0
    8.0569  -15.7960   20.8525 C   0  0  2  0  0  0  0  0  0  0  0  0
    7.5425  -17.0891   20.5703 N   0  0  0  0  0  0  0  0  0  0  0  0
    8.8636  -15.6641   22.0718 C   0  0  0  0  0  0  0  0  0  0  0  0
    8.3704  -15.4443   23.2117 O   0  0  0  0  0  0  0  0  0  0  0  0
   10.9277  -22.2678   25.6659 N   0  0  0  0  0  0  0  0  0  0  0  0
   11.8872  -21.4735   26.3767 C   0  0  0  0  0  0  0  0  0  0  0  0
   12.5115  -22.0079   27.3671 N   0  0  0  0  0  0  0  0  0  0  0  0
   12.1026  -20.1369   25.9543 N   0  0  0  0  0  0  0  0  0  0  0  0
   11.2371  -19.5996   24.9275 C   0  0  0  0  0  0  0  0  0  0  0  0
   11.6508  -18.1837   24.5538 C   0  0  0  0  0  0  0  0  0  0  0  0
   10.7298  -17.6854   23.4776 C   0  0  0  0  0  0  0  0  0  0  0  0
   11.0747  -16.2515   23.1088 C   0  0  2  0  0  0  0  0  0  0  0  0
   10.2812  -15.7864   21.9911 N   0  0  0  0  0  0  0  0  0  0  0  0
   12.5216  -16.1383   22.7563 C   0  0  0  0  0  0  0  0  0  0  0  0
   12.9066  -16.1492   21.5605 O   0  0  0  0  0  0  0  0  0  0  0  0
   13.4960  -16.0171   23.7302 O   0  0  0  0  0  0  0  0  0  0  0  0
  2  1  1  6
  3  2  1  0
  4  2  1  0
  4  5  2  0
  6  7  1  0
  7  9  1  0
  8  7  2  0
  9 10  1  0
 11 10  1  1
 11 12  1  0
 12  4  1  0
 13 11  1  0
 13 23  1  0
 14 13  2  0
 16 18  1  0
 16 15  1  0
 17 16  2  0
 19 20  1  0
 19 18  1  0
 20 21  1  0
 22 21  1  6
 22 23  1  0
 22 24  1  0
 24 25  2  0
 24 26  1  0
M  END
$$$$
