AQR.pdb
     RDKit          3D

 26 25  0  0  1  0  0  0  0  0999 V2000
   12.8462  -18.9869   20.5068 C   0  0  0  0  0  0  0  0  0  0  0  0
   14.0924  -18.7610   21.3685 C   0  0  2  0  0  0  0  0  0  0  0  0
   15.1846  -19.4929   20.8102 N   0  0  0  0  0  0  0  0  0  0  0  0
   13.7858  -19.2958   22.7397 C   0  0  0  0  0  0  0  0  0  0  0  0
   13.0956  -18.6031   23.4975 O   0  0  0  0  0  0  0  0  0  0  0  0
   14.2242  -24.3968   22.1414 N   0  0  0  0  0  0  0  0  0  0  0  0
   12.9043  -23.8955   22.2638 C   0  0  0  0  0  0  0  0  0  0  0  0
   12.0469  -24.2539   21.4277 O   0  0  0  0  0  0  0  0  0  0  0  0
   12.5129  -22.9487   23.3756 C   0  0  0  0  0  0  0  0  0  0  0  0
   13.6632  -22.7045   24.2675 C   0  0  0  0  0  0  0  0  0  0  0  0
   13.9877  -21.2350   24.3831 C   0  0  2  0  0  0  0  0  0  0  0  0
   14.2574  -20.5433   23.1726 N   0  0  0  0  0  0  0  0  0  0  0  0
   14.8226  -20.8831   25.5382 C   0  0  0  0  0  0  0  0  0  0  0  0
   16.0836  -20.9023   25.5165 O   0  0  0  0  0  0  0  0  0  0  0  0
   10.7445  -19.5996   31.9830 N   0  0  0  0  0  0  0  0  0  0  0  0
   11.8174  -20.0725   32.8088 C   0  0  0  0  0  0  0  0  0  0  0  0
   12.0447  -19.4694   33.9227 N   0  0  0  0  0  0  0  0  0  0  0  0
   12.5769  -21.1825   32.3588 N   0  0  0  0  0  0  0  0  0  0  0  0
   12.5402  -21.5061   30.9495 C   0  0  0  0  0  0  0  0  0  0  0  0
   13.6017  -20.7286   30.1853 C   0  0  0  0  0  0  0  0  0  0  0  0
   14.0012  -21.5265   28.9776 C   0  0  0  0  0  0  0  0  0  0  0  0
   14.8490  -20.6802   28.0416 C   0  0  2  0  0  0  0  0  0  0  0  0
   14.2008  -20.4958   26.7607 N   0  0  0  0  0  0  0  0  0  0  0  0
   16.1805  -21.3205   27.8232 C   0  0  0  0  0  0  0  0  0  0  0  0
   16.2945  -22.3867   27.1687 O   0  0  0  0  0  0  0  0  0  0  0  0
   17.3414  -20.7669   28.3317 O   0  0  0  0  0  0  0  0  0  0  0  0
  2  1  1  6
  3  2  1  0
  4  2  1  0
  4  5  2  0
  6  7  1  0
  7  9  1  0
  8  7  2  0
  9 10  1  0
 11 10  1  6
 11 12  1  0
 12  4  1  0
 13 11  1  0
 13 23  1  0
 14 13  2  0
 16 18  1  0
 16 15  1  0
 17 16  2  0
 19 20  1  0
 19 18  1  0
 20 21  1  0
 22 21  1  1
 22 23  1  0
 22 24  1  0
 24 25  2  0
 24 26  1  0
M  END
$$$$
