VHN.pdb
     RDKit          3D

 26 26  0  0  1  0  0  0  0  0999 V2000
   19.3328  -14.3949  -17.6606 C   0  0  0  0  0  0  0  0  0  0  0  0
   20.0164  -13.1149  -17.2056 C   0  0  1  0  0  0  0  0  0  0  0  0
   20.1969  -12.1729  -18.3697 C   0  0  0  0  0  0  0  0  0  0  0  0
   19.2891  -12.4527  -16.0820 C   0  0  2  0  0  0  0  0  0  0  0  0
   17.9254  -12.2322  -16.4646 N   0  0  0  0  0  0  0  0  0  0  0  0
   19.9438  -11.1974  -15.6325 C   0  0  0  0  0  0  0  0  0  0  0  0
   21.1273  -11.2308  -15.2132 O   0  0  0  0  0  0  0  0  0  0  0  0
   19.2411   -9.9617  -15.6735 N   0  0  0  0  0  0  0  0  0  0  0  0
   19.7417   -8.6939  -15.2363 C   0  0  1  0  0  0  0  0  0  0  0  0
   20.1839   -7.7934  -16.3389 C   0  0  0  0  0  0  0  0  0  0  0  0
   21.4543   -8.2222  -16.9609 C   0  0  0  0  0  0  0  0  0  0  0  0
   22.6939   -8.1357  -16.4057 C   0  0  0  0  0  0  0  0  0  0  0  0
   23.5622   -8.6319  -17.2999 N   0  0  0  0  0  0  0  0  0  0  0  0
   22.9178   -9.0317  -18.4063 C   0  0  0  0  0  0  0  0  0  0  0  0
   21.6154   -8.7773  -18.1940 N   0  0  0  0  0  0  0  0  0  0  0  0
   18.8462   -8.0077  -14.2425 C   0  0  0  0  0  0  0  0  0  0  0  0
   17.6353   -7.8865  -14.5432 O   0  0  0  0  0  0  0  0  0  0  0  0
   18.0892   -5.2254   -9.1754 N   0  0  0  0  0  0  0  0  0  0  0  0
   17.7532   -6.4904   -9.7831 C   0  0  0  0  0  0  0  0  0  0  0  0
   16.6173   -6.9244   -9.4515 O   0  0  0  0  0  0  0  0  0  0  0  0
   18.6770   -7.1668  -10.6916 C   0  0  0  0  0  0  0  0  0  0  0  0
   18.4310   -6.8167  -12.1179 C   0  0  2  0  0  0  0  0  0  0  0  0
   19.3440   -7.5164  -13.0149 N   0  0  0  0  0  0  0  0  0  0  0  0
   18.4975   -5.3726  -12.3585 C   0  0  0  0  0  0  0  0  0  0  0  0
   19.4765   -4.6913  -13.0217 O   0  0  0  0  0  0  0  0  0  0  0  0
   17.5364   -4.6615  -11.9000 O   0  0  0  0  0  0  0  0  0  0  0  0
  2  1  1  6
  2  3  1  0
  4  2  1  0
  4  5  1  6
  6  4  1  0
  7  6  2  0
  8  6  1  0
  9  8  1  0
  9 10  1  6
 10 11  1  0
 11 12  2  0
 12 13  1  0
 14 13  1  0
 15 11  1  0
 15 14  2  0
 16 23  1  0
 16  9  1  0
 17 16  2  0
 19 18  1  0
 19 20  2  0
 22 21  1  1
 21 19  1  0
 22 24  1  0
 22 23  1  0
 24 25  1  0
 26 24  2  0
M  END
$$$$
