VHN.pdb
     RDKit          3D

 26 26  0  0  1  0  0  0  0  0999 V2000
   20.2069  -19.5325  -14.8675 C   0  0  0  0  0  0  0  0  0  0  0  0
   19.5872  -20.4324  -15.9253 C   0  0  1  0  0  0  0  0  0  0  0  0
   18.2387  -19.9012  -16.3431 C   0  0  0  0  0  0  0  0  0  0  0  0
   20.4833  -20.6206  -17.1049 C   0  0  2  0  0  0  0  0  0  0  0  0
   19.8372  -21.4722  -18.0599 N   0  0  0  0  0  0  0  0  0  0  0  0
   21.8267  -21.1329  -16.7319 C   0  0  0  0  0  0  0  0  0  0  0  0
   21.9405  -22.2940  -16.2663 O   0  0  0  0  0  0  0  0  0  0  0  0
   22.9814  -20.3197  -16.8978 N   0  0  0  0  0  0  0  0  0  0  0  0
   24.2947  -20.6129  -16.4093 C   0  0  1  0  0  0  0  0  0  0  0  0
   25.3974  -20.2045  -17.3254 C   0  0  0  0  0  0  0  0  0  0  0  0
   26.7388  -20.5249  -16.7939 C   0  0  0  0  0  0  0  0  0  0  0  0
   27.4619  -21.6485  -17.0530 C   0  0  0  0  0  0  0  0  0  0  0  0
   28.6149  -21.5407  -16.3756 N   0  0  0  0  0  0  0  0  0  0  0  0
   28.6510  -20.3862  -15.6936 C   0  0  0  0  0  0  0  0  0  0  0  0
   27.4905  -19.7606  -15.9539 N   0  0  0  0  0  0  0  0  0  0  0  0
   24.5175  -20.1702  -14.9899 C   0  0  0  0  0  0  0  0  0  0  0  0
   24.1085  -19.0294  -14.6694 O   0  0  0  0  0  0  0  0  0  0  0  0
   26.3770  -21.2929   -9.5347 N   0  0  0  0  0  0  0  0  0  0  0  0
   25.2328  -20.8705  -10.3059 C   0  0  0  0  0  0  0  0  0  0  0  0
   24.5071  -20.0276   -9.7130 O   0  0  0  0  0  0  0  0  0  0  0  0
   24.9811  -21.3992  -11.6451 C   0  0  0  0  0  0  0  0  0  0  0  0
   25.4397  -20.4738  -12.7178 C   0  0  2  0  0  0  0  0  0  0  0  0
   25.1621  -21.0034  -14.0482 N   0  0  0  0  0  0  0  0  0  0  0  0
   26.8610  -20.1378  -12.5964 C   0  0  0  0  0  0  0  0  0  0  0  0
   27.9162  -20.8064  -13.1458 O   0  0  0  0  0  0  0  0  0  0  0  0
   27.1573  -19.1050  -11.8999 O   0  0  0  0  0  0  0  0  0  0  0  0
  2  1  1  1
  2  3  1  0
  4  2  1  0
  4  5  1  6
  6  4  1  0
  7  6  2  0
  8  6  1  0
  9  8  1  0
  9 10  1  6
 10 11  1  0
 11 12  2  0
 12 13  1  0
 14 13  1  0
 15 11  1  0
 15 14  2  0
 16 23  1  0
 16  9  1  0
 17 16  2  0
 19 18  1  0
 19 20  2  0
 22 21  1  1
 21 19  1  0
 22 24  1  0
 22 23  1  0
 24 25  1  0
 26 24  2  0
M  END
$$$$
