VHN.pdb
     RDKit          3D

 26 26  0  0  1  0  0  0  0  0999 V2000
   15.6102  -11.6053  -14.2359 C   0  0  0  0  0  0  0  0  0  0  0  0
   15.1798  -10.4020  -13.4115 C   0  0  1  0  0  0  0  0  0  0  0  0
   15.0331  -10.7845  -11.9599 C   0  0  0  0  0  0  0  0  0  0  0  0
   16.1071   -9.2428  -13.5741 C   0  0  2  0  0  0  0  0  0  0  0  0
   17.4371   -9.6472  -13.2245 N   0  0  0  0  0  0  0  0  0  0  0  0
   15.6758   -8.0477  -12.8047 C   0  0  0  0  0  0  0  0  0  0  0  0
   14.5632   -7.5195  -13.0514 O   0  0  0  0  0  0  0  0  0  0  0  0
   16.5120   -7.4991  -11.7938 N   0  0  0  0  0  0  0  0  0  0  0  0
   16.2326   -6.3336  -11.0111 C   0  0  1  0  0  0  0  0  0  0  0  0
   16.5963   -6.4577   -9.5709 C   0  0  0  0  0  0  0  0  0  0  0  0
   15.5980   -7.2136   -8.7858 C   0  0  0  0  0  0  0  0  0  0  0  0
   14.4451   -7.7603   -9.2595 C   0  0  0  0  0  0  0  0  0  0  0  0
   13.8345   -8.3536   -8.2226 N   0  0  0  0  0  0  0  0  0  0  0  0
   14.5595   -8.2035   -7.1040 C   0  0  0  0  0  0  0  0  0  0  0  0
   15.6486   -7.4987   -7.4550 N   0  0  0  0  0  0  0  0  0  0  0  0
   16.7333   -5.0604  -11.6345 C   0  0  0  0  0  0  0  0  0  0  0  0
   17.8419   -5.0999  -12.2184 O   0  0  0  0  0  0  0  0  0  0  0  0
   17.7526   -1.6947  -15.3517 N   0  0  0  0  0  0  0  0  0  0  0  0
   16.4664   -2.0703  -14.8158 C   0  0  0  0  0  0  0  0  0  0  0  0
   15.5191   -1.3438  -15.2198 O   0  0  0  0  0  0  0  0  0  0  0  0
   16.3260   -3.1957  -13.8939 C   0  0  0  0  0  0  0  0  0  0  0  0
   16.3383   -2.7680  -12.4676 C   0  0  2  0  0  0  0  0  0  0  0  0
   15.9876   -3.8620  -11.5688 N   0  0  0  0  0  0  0  0  0  0  0  0
   15.4666   -1.6159  -12.2219 C   0  0  0  0  0  0  0  0  0  0  0  0
   15.7075   -0.3141  -12.5529 O   0  0  0  0  0  0  0  0  0  0  0  0
   14.3533   -1.8440  -11.6318 O   0  0  0  0  0  0  0  0  0  0  0  0
  2  1  1  6
  2  3  1  0
  4  2  1  0
  4  5  1  1
  6  4  1  0
  7  6  2  0
  8  6  1  0
  9  8  1  0
  9 10  1  1
 10 11  1  0
 11 12  2  0
 12 13  1  0
 14 13  1  0
 15 11  1  0
 15 14  2  0
 16 23  1  0
 16  9  1  0
 17 16  2  0
 19 18  1  0
 19 20  2  0
 22 21  1  6
 21 19  1  0
 22 24  1  0
 22 23  1  0
 24 25  1  0
 26 24  2  0
M  END
$$$$
