VHN.pdb
     RDKit          3D

 26 26  0  0  1  0  0  0  0  0999 V2000
   22.3608   -9.9121    6.7994 C   0  0  0  0  0  0  0  0  0  0  0  0
   21.5922  -11.1605    7.2038 C   0  0  1  0  0  0  0  0  0  0  0  0
   22.1073  -11.6922    8.5179 C   0  0  0  0  0  0  0  0  0  0  0  0
   20.1183  -10.9265    7.2556 C   0  0  2  0  0  0  0  0  0  0  0  0
   19.8329   -9.9144    8.2297 N   0  0  0  0  0  0  0  0  0  0  0  0
   19.3464  -12.1695    7.5121 C   0  0  0  0  0  0  0  0  0  0  0  0
   18.9694  -12.4356    8.6803 O   0  0  0  0  0  0  0  0  0  0  0  0
   19.0328  -13.0576    6.4466 N   0  0  0  0  0  0  0  0  0  0  0  0
   18.3879  -14.3294    6.5732 C   0  0  1  0  0  0  0  0  0  0  0  0
   17.4728  -14.6701    5.4469 C   0  0  0  0  0  0  0  0  0  0  0  0
   16.1333  -14.0610    5.5861 C   0  0  0  0  0  0  0  0  0  0  0  0
   15.7114  -13.2644    6.6059 C   0  0  0  0  0  0  0  0  0  0  0  0
   14.4386  -12.9301    6.3448 N   0  0  0  0  0  0  0  0  0  0  0  0
   14.0352  -13.4868    5.1930 C   0  0  0  0  0  0  0  0  0  0  0  0
   15.0844  -14.1850    4.7264 N   0  0  0  0  0  0  0  0  0  0  0  0
   19.3321  -15.4468    6.9198 C   0  0  0  0  0  0  0  0  0  0  0  0
   20.3367  -15.6029    6.1865 O   0  0  0  0  0  0  0  0  0  0  0  0
   22.3386  -18.1692   11.1044 N   0  0  0  0  0  0  0  0  0  0  0  0
   22.0620  -17.8335    9.7285 C   0  0  0  0  0  0  0  0  0  0  0  0
   22.7502  -18.4886    8.9004 O   0  0  0  0  0  0  0  0  0  0  0  0
   21.0675  -16.8213    9.3778 C   0  0  0  0  0  0  0  0  0  0  0  0
   20.0984  -17.3055    8.3562 C   0  0  2  0  0  0  0  0  0  0  0  0
   19.1019  -16.2919    8.0285 N   0  0  0  0  0  0  0  0  0  0  0  0
   19.4370  -18.5498    8.7584 C   0  0  0  0  0  0  0  0  0  0  0  0
   19.9558  -19.8112    8.7138 O   0  0  0  0  0  0  0  0  0  0  0  0
   18.2396  -18.4551    9.2021 O   0  0  0  0  0  0  0  0  0  0  0  0
  2  1  1  1
  2  3  1  0
  4  2  1  0
  4  5  1  1
  6  4  1  0
  7  6  2  0
  8  6  1  0
  9  8  1  0
  9 10  1  6
 10 11  1  0
 11 12  2  0
 12 13  1  0
 14 13  1  0
 15 11  1  0
 15 14  2  0
 16 23  1  0
 16  9  1  0
 17 16  2  0
 19 18  1  0
 19 20  2  0
 22 21  1  1
 21 19  1  0
 22 24  1  0
 22 23  1  0
 24 25  1  0
 26 24  2  0
M  END
$$$$
