VHN.pdb
     RDKit          3D

 26 26  0  0  1  0  0  0  0  0999 V2000
   26.9368  -12.9288  -17.2765 C   0  0  0  0  0  0  0  0  0  0  0  0
   25.5502  -12.3059  -17.3237 C   0  0  1  0  0  0  0  0  0  0  0  0
   24.4902  -13.3762  -17.2476 C   0  0  0  0  0  0  0  0  0  0  0  0
   25.3555  -11.2754  -16.2605 C   0  0  2  0  0  0  0  0  0  0  0  0
   25.6137  -11.8625  -14.9786 N   0  0  0  0  0  0  0  0  0  0  0  0
   24.0143  -10.6392  -16.3137 C   0  0  0  0  0  0  0  0  0  0  0  0
   23.6972   -9.9427  -17.3097 O   0  0  0  0  0  0  0  0  0  0  0  0
   23.0898  -10.8128  -15.2472 N   0  0  0  0  0  0  0  0  0  0  0  0
   21.7701  -10.2624  -15.1793 C   0  0  1  0  0  0  0  0  0  0  0  0
   20.7552  -11.1704  -14.5730 C   0  0  0  0  0  0  0  0  0  0  0  0
   20.2522  -12.1886  -15.5190 C   0  0  0  0  0  0  0  0  0  0  0  0
   20.5850  -12.3025  -16.8338 C   0  0  0  0  0  0  0  0  0  0  0  0
   19.9086  -13.3531  -17.3224 N   0  0  0  0  0  0  0  0  0  0  0  0
   19.1560  -13.9125  -16.3633 C   0  0  0  0  0  0  0  0  0  0  0  0
   19.3703  -13.1909  -15.2500 N   0  0  0  0  0  0  0  0  0  0  0  0
   21.7302   -8.8730  -14.6064 C   0  0  0  0  0  0  0  0  0  0  0  0
   22.6418   -8.5505  -13.8087 O   0  0  0  0  0  0  0  0  0  0  0  0
   21.4277   -3.8176  -14.3972 N   0  0  0  0  0  0  0  0  0  0  0  0
   22.4068   -4.6266  -15.0825 C   0  0  0  0  0  0  0  0  0  0  0  0
   23.4033   -3.9736  -15.4935 O   0  0  0  0  0  0  0  0  0  0  0  0
   22.2158   -6.0649  -15.2586 C   0  0  0  0  0  0  0  0  0  0  0  0
   20.9211   -6.5402  -14.6972 C   0  0  2  0  0  0  0  0  0  0  0  0
   20.7074   -7.9607  -14.9502 N   0  0  0  0  0  0  0  0  0  0  0  0
   19.7797   -5.7641  -15.1898 C   0  0  0  0  0  0  0  0  0  0  0  0
   19.0417   -4.8509  -14.4944 O   0  0  0  0  0  0  0  0  0  0  0  0
   19.4267   -5.9563  -16.4056 O   0  0  0  0  0  0  0  0  0  0  0  0
  2  1  1  1
  2  3  1  0
  4  2  1  0
  4  5  1  1
  6  4  1  0
  7  6  2  0
  8  6  1  0
  9  8  1  0
  9 10  1  1
 10 11  1  0
 11 12  2  0
 12 13  1  0
 14 13  1  0
 15 11  1  0
 15 14  2  0
 16 23  1  0
 16  9  1  0
 17 16  2  0
 19 18  1  0
 19 20  2  0
 22 21  1  6
 21 19  1  0
 22 24  1  0
 22 23  1  0
 24 25  1  0
 26 24  2  0
M  END
$$$$
