VHN.pdb
     RDKit          3D

 26 26  0  0  1  0  0  0  0  0999 V2000
   17.1305  -10.0479  -18.5357 C   0  0  0  0  0  0  0  0  0  0  0  0
   17.4396  -11.3331  -17.7836 C   0  0  1  0  0  0  0  0  0  0  0  0
   16.9600  -12.5292  -18.5674 C   0  0  0  0  0  0  0  0  0  0  0  0
   18.8882  -11.4557  -17.4423 C   0  0  2  0  0  0  0  0  0  0  0  0
   19.1124  -12.6999  -16.7669 N   0  0  0  0  0  0  0  0  0  0  0  0
   19.3937  -10.3030  -16.6535 C   0  0  0  0  0  0  0  0  0  0  0  0
   19.0043  -10.1428  -15.4701 O   0  0  0  0  0  0  0  0  0  0  0  0
   20.3128   -9.3823  -17.2279 N   0  0  0  0  0  0  0  0  0  0  0  0
   20.7848   -8.1749  -16.6209 C   0  0  1  0  0  0  0  0  0  0  0  0
   22.2414   -8.1742  -16.3038 C   0  0  0  0  0  0  0  0  0  0  0  0
   22.6130   -9.1856  -15.2921 C   0  0  0  0  0  0  0  0  0  0  0  0
   22.1368   -9.2667  -14.0196 C   0  0  0  0  0  0  0  0  0  0  0  0
   22.7297  -10.3230  -13.4430 N   0  0  0  0  0  0  0  0  0  0  0  0
   23.5677  -10.9179  -14.3051 C   0  0  0  0  0  0  0  0  0  0  0  0
   23.4936  -10.2129  -15.4468 N   0  0  0  0  0  0  0  0  0  0  0  0
   20.3408   -6.9311  -17.3392 C   0  0  0  0  0  0  0  0  0  0  0  0
   20.4857   -6.8998  -18.5840 O   0  0  0  0  0  0  0  0  0  0  0  0
   18.5575   -2.2266  -18.4961 N   0  0  0  0  0  0  0  0  0  0  0  0
   17.6014   -2.9946  -17.7355 C   0  0  0  0  0  0  0  0  0  0  0  0
   16.4495   -2.4839  -17.7093 O   0  0  0  0  0  0  0  0  0  0  0  0
   17.9810   -4.2421  -17.0752 C   0  0  0  0  0  0  0  0  0  0  0  0
   19.3727   -4.6587  -17.4024 C   0  0  2  0  0  0  0  0  0  0  0  0
   19.7804   -5.8361  -16.6440 N   0  0  0  0  0  0  0  0  0  0  0  0
   20.3406   -3.5755  -17.2088 C   0  0  0  0  0  0  0  0  0  0  0  0
   21.3491   -3.5250  -16.2908 O   0  0  0  0  0  0  0  0  0  0  0  0
   20.2381   -2.5588  -17.9805 O   0  0  0  0  0  0  0  0  0  0  0  0
  2  1  1  6
  2  3  1  0
  4  2  1  0
  4  5  1  1
  6  4  1  0
  7  6  2  0
  8  6  1  0
  9  8  1  0
  9 10  1  6
 10 11  1  0
 11 12  2  0
 12 13  1  0
 14 13  1  0
 15 11  1  0
 15 14  2  0
 16 23  1  0
 16  9  1  0
 17 16  2  0
 19 18  1  0
 19 20  2  0
 22 21  1  1
 21 19  1  0
 22 24  1  0
 22 23  1  0
 24 25  1  0
 26 24  2  0
M  END
$$$$
