VHN.pdb
     RDKit          3D

 26 26  0  0  1  0  0  0  0  0999 V2000
   15.8421  -10.8491  -14.8322 C   0  0  0  0  0  0  0  0  0  0  0  0
   15.9940  -12.3602  -14.7536 C   0  0  1  0  0  0  0  0  0  0  0  0
   14.6411  -13.0266  -14.7796 C   0  0  0  0  0  0  0  0  0  0  0  0
   16.8819  -12.8972  -15.8274 C   0  0  2  0  0  0  0  0  0  0  0  0
   17.0192  -14.3146  -15.6642 N   0  0  0  0  0  0  0  0  0  0  0  0
   18.2026  -12.2190  -15.8756 C   0  0  0  0  0  0  0  0  0  0  0  0
   19.1695  -12.6977  -15.2326 O   0  0  0  0  0  0  0  0  0  0  0  0
   18.3786  -11.0345  -16.6426 N   0  0  0  0  0  0  0  0  0  0  0  0
   19.6257  -10.3886  -16.9196 C   0  0  1  0  0  0  0  0  0  0  0  0
   20.0185  -10.4000  -18.3575 C   0  0  0  0  0  0  0  0  0  0  0  0
   20.2498  -11.7620  -18.8827 C   0  0  0  0  0  0  0  0  0  0  0  0
   21.3766  -12.5082  -18.7217 C   0  0  0  0  0  0  0  0  0  0  0  0
   21.1714  -13.6741  -19.3528 N   0  0  0  0  0  0  0  0  0  0  0  0
   19.9517  -13.6962  -19.9108 C   0  0  0  0  0  0  0  0  0  0  0  0
   19.3845  -12.5134  -19.6187 N   0  0  0  0  0  0  0  0  0  0  0  0
   19.7483   -9.0293  -16.2891 C   0  0  0  0  0  0  0  0  0  0  0  0
   18.7499   -8.2736  -16.3464 O   0  0  0  0  0  0  0  0  0  0  0  0
   21.2841   -4.7951  -13.8408 N   0  0  0  0  0  0  0  0  0  0  0  0
   22.1031   -5.8850  -13.3679 C   0  0  0  0  0  0  0  0  0  0  0  0
   22.8665   -5.5675  -12.4167 O   0  0  0  0  0  0  0  0  0  0  0  0
   22.0194   -7.2151  -13.9680 C   0  0  0  0  0  0  0  0  0  0  0  0
   20.9795   -7.2957  -15.0308 C   0  0  2  0  0  0  0  0  0  0  0  0
   20.9404   -8.6136  -15.6545 N   0  0  0  0  0  0  0  0  0  0  0  0
   21.1445   -6.2595  -16.0539 C   0  0  0  0  0  0  0  0  0  0  0  0
   21.4349   -6.4435  -17.3746 O   0  0  0  0  0  0  0  0  0  0  0  0
   21.0032   -5.0435  -15.6786 O   0  0  0  0  0  0  0  0  0  0  0  0
  2  1  1  6
  2  3  1  0
  4  2  1  0
  4  5  1  1
  6  4  1  0
  7  6  2  0
  8  6  1  0
  9  8  1  0
  9 10  1  6
 10 11  1  0
 11 12  2  0
 12 13  1  0
 14 13  1  0
 15 11  1  0
 15 14  2  0
 16 23  1  0
 16  9  1  0
 17 16  2  0
 19 18  1  0
 19 20  2  0
 22 21  1  1
 21 19  1  0
 22 24  1  0
 22 23  1  0
 24 25  1  0
 26 24  2  0
M  END
$$$$
