VHN.pdb
     RDKit          3D

 26 26  0  0  1  0  0  0  0  0999 V2000
   27.4396  -21.3663  -12.3079 C   0  0  0  0  0  0  0  0  0  0  0  0
   26.3591  -20.4511  -12.8627 C   0  0  1  0  0  0  0  0  0  0  0  0
   26.7340  -19.0057  -12.6496 C   0  0  0  0  0  0  0  0  0  0  0  0
   26.0658  -20.7273  -14.3006 C   0  0  2  0  0  0  0  0  0  0  0  0
   27.2718  -20.5958  -15.0640 N   0  0  0  0  0  0  0  0  0  0  0  0
   24.9773  -19.8731  -14.8409 C   0  0  0  0  0  0  0  0  0  0  0  0
   25.0959  -18.6230  -14.8089 O   0  0  0  0  0  0  0  0  0  0  0  0
   23.8051  -20.4598  -15.3924 N   0  0  0  0  0  0  0  0  0  0  0  0
   22.7199  -19.7556  -16.0053 C   0  0  1  0  0  0  0  0  0  0  0  0
   22.7369  -19.7758  -17.4957 C   0  0  0  0  0  0  0  0  0  0  0  0
   23.8396  -18.9781  -18.0720 C   0  0  0  0  0  0  0  0  0  0  0  0
   24.3430  -17.8171  -17.5708 C   0  0  0  0  0  0  0  0  0  0  0  0
   25.3273  -17.4259  -18.3941 N   0  0  0  0  0  0  0  0  0  0  0  0
   25.4683  -18.2984  -19.4032 C   0  0  0  0  0  0  0  0  0  0  0  0
   24.5477  -19.2565  -19.2016 N   0  0  0  0  0  0  0  0  0  0  0  0
   21.3768  -20.1085  -15.4295 C   0  0  0  0  0  0  0  0  0  0  0  0
   21.2522  -21.2401  -14.9048 O   0  0  0  0  0  0  0  0  0  0  0  0
   19.3410  -18.9071  -12.1474 N   0  0  0  0  0  0  0  0  0  0  0  0
   18.4943  -18.0790  -12.9717 C   0  0  0  0  0  0  0  0  0  0  0  0
   17.9967  -17.0968  -12.3584 O   0  0  0  0  0  0  0  0  0  0  0  0
   18.2654  -18.3909  -14.3812 C   0  0  0  0  0  0  0  0  0  0  0  0
   19.0376  -19.5811  -14.8334 C   0  0  2  0  0  0  0  0  0  0  0  0
   20.2924  -19.2038  -15.4744 N   0  0  0  0  0  0  0  0  0  0  0  0
   18.2592  -20.4478  -15.7225 C   0  0  0  0  0  0  0  0  0  0  0  0
   17.2800  -21.3289  -15.3655 O   0  0  0  0  0  0  0  0  0  0  0  0
   18.5180  -20.3796  -16.9746 O   0  0  0  0  0  0  0  0  0  0  0  0
  2  1  1  6
  2  3  1  0
  4  2  1  0
  4  5  1  6
  6  4  1  0
  7  6  2  0
  8  6  1  0
  9  8  1  0
  9 10  1  6
 10 11  1  0
 11 12  2  0
 12 13  1  0
 14 13  1  0
 15 11  1  0
 15 14  2  0
 16 23  1  0
 16  9  1  0
 17 16  2  0
 19 18  1  0
 19 20  2  0
 22 21  1  6
 21 19  1  0
 22 24  1  0
 22 23  1  0
 24 25  1  0
 26 24  2  0
M  END
$$$$
