VHN.pdb
     RDKit          3D

 26 26  0  0  1  0  0  0  0  0999 V2000
   33.8874  -24.9609  -16.7402 C   0  0  0  0  0  0  0  0  0  0  0  0
   32.5410  -25.0652  -17.4395 C   0  0  1  0  0  0  0  0  0  0  0  0
   32.2480  -26.4990  -17.8048 C   0  0  0  0  0  0  0  0  0  0  0  0
   31.4339  -24.4769  -16.6282 C   0  0  2  0  0  0  0  0  0  0  0  0
   31.3642  -25.1486  -15.3639 N   0  0  0  0  0  0  0  0  0  0  0  0
   30.1275  -24.4984  -17.3349 C   0  0  0  0  0  0  0  0  0  0  0  0
   30.0088  -23.9081  -18.4372 O   0  0  0  0  0  0  0  0  0  0  0  0
   29.0136  -25.1809  -16.7729 N   0  0  0  0  0  0  0  0  0  0  0  0
   27.6867  -25.2107  -17.3093 C   0  0  1  0  0  0  0  0  0  0  0  0
   26.9150  -26.4411  -16.9741 C   0  0  0  0  0  0  0  0  0  0  0  0
   27.2615  -27.5927  -17.8334 C   0  0  0  0  0  0  0  0  0  0  0  0
   28.0893  -27.5729  -18.9136 C   0  0  0  0  0  0  0  0  0  0  0  0
   28.1281  -28.8212  -19.4038 N   0  0  0  0  0  0  0  0  0  0  0  0
   27.3530  -29.6358  -18.6724 C   0  0  0  0  0  0  0  0  0  0  0  0
   26.8187  -28.8739  -17.7027 N   0  0  0  0  0  0  0  0  0  0  0  0
   26.9121  -23.9466  -17.0594 C   0  0  0  0  0  0  0  0  0  0  0  0
   26.9424  -23.4699  -15.9005 O   0  0  0  0  0  0  0  0  0  0  0  0
   24.0474  -19.7179  -17.3568 N   0  0  0  0  0  0  0  0  0  0  0  0
   24.8963  -19.8229  -18.5190 C   0  0  0  0  0  0  0  0  0  0  0  0
   24.8692  -18.8024  -19.2582 O   0  0  0  0  0  0  0  0  0  0  0  0
   25.6941  -21.0211  -18.7723 C   0  0  0  0  0  0  0  0  0  0  0  0
   25.4390  -22.0962  -17.7741 C   0  0  2  0  0  0  0  0  0  0  0  0
   26.1765  -23.3151  -18.0872 N   0  0  0  0  0  0  0  0  0  0  0  0
   24.0120  -22.3953  -17.6269 C   0  0  0  0  0  0  0  0  0  0  0  0
   23.1542  -21.8851  -16.6961 O   0  0  0  0  0  0  0  0  0  0  0  0
   23.5029  -23.2260  -18.4578 O   0  0  0  0  0  0  0  0  0  0  0  0
  2  1  1  1
  2  3  1  0
  4  2  1  0
  4  5  1  1
  6  4  1  0
  7  6  2  0
  8  6  1  0
  9  8  1  0
  9 10  1  1
 10 11  1  0
 11 12  2  0
 12 13  1  0
 14 13  1  0
 15 11  1  0
 15 14  2  0
 16 23  1  0
 16  9  1  0
 17 16  2  0
 19 18  1  0
 19 20  2  0
 22 21  1  6
 21 19  1  0
 22 24  1  0
 22 23  1  0
 24 25  1  0
 26 24  2  0
M  END
$$$$
