VHN.pdb
     RDKit          3D

 26 26  0  0  1  0  0  0  0  0999 V2000
   21.1177  -13.7296  -20.4023 C   0  0  0  0  0  0  0  0  0  0  0  0
   20.3089  -12.6834  -19.6511 C   0  0  1  0  0  0  0  0  0  0  0  0
   19.5018  -13.3310  -18.5538 C   0  0  0  0  0  0  0  0  0  0  0  0
   21.1643  -11.5828  -19.1156 C   0  0  2  0  0  0  0  0  0  0  0  0
   22.2345  -12.1459  -18.3460 N   0  0  0  0  0  0  0  0  0  0  0  0
   20.3932  -10.5818  -18.3347 C   0  0  0  0  0  0  0  0  0  0  0  0
   19.4507   -9.9590  -18.8838 O   0  0  0  0  0  0  0  0  0  0  0  0
   20.7144  -10.3247  -16.9734 N   0  0  0  0  0  0  0  0  0  0  0  0
   20.0667   -9.3745  -16.1208 C   0  0  1  0  0  0  0  0  0  0  0  0
   19.4730   -9.9607  -14.8855 C   0  0  0  0  0  0  0  0  0  0  0  0
   18.1109  -10.4944  -15.0961 C   0  0  0  0  0  0  0  0  0  0  0  0
   17.4362  -10.5405  -16.2773 C   0  0  0  0  0  0  0  0  0  0  0  0
   16.2409  -11.0963  -16.0275 N   0  0  0  0  0  0  0  0  0  0  0  0
   16.1311  -11.4060  -14.7270 C   0  0  0  0  0  0  0  0  0  0  0  0
   17.2880  -11.0329  -14.1539 N   0  0  0  0  0  0  0  0  0  0  0  0
   20.8976   -8.1515  -15.8485 C   0  0  0  0  0  0  0  0  0  0  0  0
   22.0099   -8.3200  -15.2955 O   0  0  0  0  0  0  0  0  0  0  0  0
   21.7892   -2.2648  -17.5032 N   0  0  0  0  0  0  0  0  0  0  0  0
   22.0329   -3.5284  -16.8503 C   0  0  0  0  0  0  0  0  0  0  0  0
   23.0783   -3.5401  -16.1465 O   0  0  0  0  0  0  0  0  0  0  0  0
   21.1236   -4.6600  -17.0202 C   0  0  0  0  0  0  0  0  0  0  0  0
   21.3470   -5.7270  -16.0058 C   0  0  2  0  0  0  0  0  0  0  0  0
   20.4479   -6.8590  -16.2002 N   0  0  0  0  0  0  0  0  0  0  0  0
   21.2354   -5.2257  -14.6333 C   0  0  0  0  0  0  0  0  0  0  0  0
   22.2539   -4.8420  -13.8101 O   0  0  0  0  0  0  0  0  0  0  0  0
   20.0567   -5.1336  -14.1416 O   0  0  0  0  0  0  0  0  0  0  0  0
  2  1  1  1
  2  3  1  0
  4  2  1  0
  4  5  1  1
  6  4  1  0
  7  6  2  0
  8  6  1  0
  9  8  1  0
  9 10  1  1
 10 11  1  0
 11 12  2  0
 12 13  1  0
 14 13  1  0
 15 11  1  0
 15 14  2  0
 16 23  1  0
 16  9  1  0
 17 16  2  0
 19 18  1  0
 19 20  2  0
 22 21  1  6
 21 19  1  0
 22 24  1  0
 22 23  1  0
 24 25  1  0
 26 24  2  0
M  END
$$$$
