VHN.pdb
     RDKit          3D

 26 26  0  0  1  0  0  0  0  0999 V2000
   16.9049   -8.1762  -21.3552 C   0  0  0  0  0  0  0  0  0  0  0  0
   17.5701   -8.2529  -19.9897 C   0  0  1  0  0  0  0  0  0  0  0  0
   16.6265   -7.7688  -18.9173 C   0  0  0  0  0  0  0  0  0  0  0  0
   18.0794   -9.6229  -19.6837 C   0  0  2  0  0  0  0  0  0  0  0  0
   17.0088  -10.5669  -19.8151 N   0  0  0  0  0  0  0  0  0  0  0  0
   18.7298   -9.7113  -18.3511 C   0  0  0  0  0  0  0  0  0  0  0  0
   18.0245   -9.8906  -17.3273 O   0  0  0  0  0  0  0  0  0  0  0  0
   20.1417   -9.5945  -18.2274 N   0  0  0  0  0  0  0  0  0  0  0  0
   20.8824   -9.5979  -17.0025 C   0  0  1  0  0  0  0  0  0  0  0  0
   21.8941  -10.6877  -16.8981 C   0  0  0  0  0  0  0  0  0  0  0  0
   21.2982  -12.0383  -16.9711 C   0  0  0  0  0  0  0  0  0  0  0  0
   21.3150  -12.8703  -18.0482 C   0  0  0  0  0  0  0  0  0  0  0  0
   20.6659  -13.9893  -17.6925 N   0  0  0  0  0  0  0  0  0  0  0  0
   20.2361  -13.8985  -16.4251 C   0  0  0  0  0  0  0  0  0  0  0  0
   20.6282  -12.6919  -15.9819 N   0  0  0  0  0  0  0  0  0  0  0  0
   21.4338   -8.2489  -16.6333 C   0  0  0  0  0  0  0  0  0  0  0  0
   21.8666   -7.5274  -17.5626 O   0  0  0  0  0  0  0  0  0  0  0  0
   22.7264   -3.8371  -14.4776 N   0  0  0  0  0  0  0  0  0  0  0  0
   21.6320   -4.0663  -15.3899 C   0  0  0  0  0  0  0  0  0  0  0  0
   21.1029   -3.0066  -15.8207 O   0  0  0  0  0  0  0  0  0  0  0  0
   21.2129   -5.4195  -15.7501 C   0  0  0  0  0  0  0  0  0  0  0  0
   21.9696   -6.4660  -15.0087 C   0  0  2  0  0  0  0  0  0  0  0  0
   21.4655   -7.8050  -15.2922 N   0  0  0  0  0  0  0  0  0  0  0  0
   21.9814   -6.2284  -13.5627 C   0  0  0  0  0  0  0  0  0  0  0  0
   22.4572   -5.1274  -12.9117 O   0  0  0  0  0  0  0  0  0  0  0  0
   21.4944   -7.1491  -12.8178 O   0  0  0  0  0  0  0  0  0  0  0  0
  2  1  1  6
  2  3  1  0
  4  2  1  0
  4  5  1  1
  6  4  1  0
  7  6  2  0
  8  6  1  0
  9  8  1  0
  9 10  1  6
 10 11  1  0
 11 12  2  0
 12 13  1  0
 14 13  1  0
 15 11  1  0
 15 14  2  0
 16 23  1  0
 16  9  1  0
 17 16  2  0
 19 18  1  0
 19 20  2  0
 22 21  1  6
 21 19  1  0
 22 24  1  0
 22 23  1  0
 24 25  1  0
 26 24  2  0
M  END
$$$$
