VHN.pdb
     RDKit          3D

 26 26  0  0  1  0  0  0  0  0999 V2000
   20.1078  -13.5073  -18.2293 C   0  0  0  0  0  0  0  0  0  0  0  0
   19.5140  -12.5389  -17.2181 C   0  0  1  0  0  0  0  0  0  0  0  0
   19.6980  -13.0643  -15.8163 C   0  0  0  0  0  0  0  0  0  0  0  0
   20.0730  -11.1612  -17.3569 C   0  0  2  0  0  0  0  0  0  0  0  0
   21.5043  -11.2237  -17.3121 N   0  0  0  0  0  0  0  0  0  0  0  0
   19.5321  -10.2156  -16.3471 C   0  0  0  0  0  0  0  0  0  0  0  0
   18.2992   -9.9775  -16.3180 O   0  0  0  0  0  0  0  0  0  0  0  0
   20.3988   -9.5798  -15.4160 N   0  0  0  0  0  0  0  0  0  0  0  0
   20.0231   -8.5783  -14.4647 C   0  0  1  0  0  0  0  0  0  0  0  0
   20.6768   -8.7191  -13.1324 C   0  0  0  0  0  0  0  0  0  0  0  0
   20.1532   -7.7691  -12.1285 C   0  0  0  0  0  0  0  0  0  0  0  0
   19.2390   -8.0433  -11.1581 C   0  0  0  0  0  0  0  0  0  0  0  0
   19.0434   -6.9093  -10.4685 N   0  0  0  0  0  0  0  0  0  0  0  0
   19.8020   -5.9215  -10.9667 C   0  0  0  0  0  0  0  0  0  0  0  0
   20.4867   -6.4557  -11.9923 N   0  0  0  0  0  0  0  0  0  0  0  0
   20.0970   -7.1788  -15.0088 C   0  0  0  0  0  0  0  0  0  0  0  0
   21.1405   -6.8512  -15.6213 O   0  0  0  0  0  0  0  0  0  0  0  0
   19.1413   -2.4895  -16.7764 N   0  0  0  0  0  0  0  0  0  0  0  0
   18.0318   -3.3815  -17.0125 C   0  0  0  0  0  0  0  0  0  0  0  0
   17.1561   -2.9056  -17.7840 O   0  0  0  0  0  0  0  0  0  0  0  0
   17.9738   -4.7037  -16.3921 C   0  0  0  0  0  0  0  0  0  0  0  0
   19.1257   -4.9569  -15.4831 C   0  0  2  0  0  0  0  0  0  0  0  0
   19.0342   -6.2630  -14.8402 N   0  0  0  0  0  0  0  0  0  0  0  0
   19.2808   -3.9079  -14.4716 C   0  0  0  0  0  0  0  0  0  0  0  0
   20.1811   -2.8824  -14.4783 O   0  0  0  0  0  0  0  0  0  0  0  0
   18.4896   -3.9483  -13.4656 O   0  0  0  0  0  0  0  0  0  0  0  0
  2  1  1  6
  2  3  1  0
  4  2  1  0
  4  5  1  1
  6  4  1  0
  7  6  2  0
  8  6  1  0
  9  8  1  0
  9 10  1  1
 10 11  1  0
 11 12  2  0
 12 13  1  0
 14 13  1  0
 15 11  1  0
 15 14  2  0
 16 23  1  0
 16  9  1  0
 17 16  2  0
 19 18  1  0
 19 20  2  0
 22 21  1  1
 21 19  1  0
 22 24  1  0
 22 23  1  0
 24 25  1  0
 26 24  2  0
M  END
$$$$
