VHN.pdb
     RDKit          3D

 26 26  0  0  1  0  0  0  0  0999 V2000
   16.4132  -10.9800  -18.4065 C   0  0  0  0  0  0  0  0  0  0  0  0
   17.3510  -10.2382  -17.4668 C   0  0  1  0  0  0  0  0  0  0  0  0
   16.5716   -9.5897  -16.3501 C   0  0  0  0  0  0  0  0  0  0  0  0
   18.4308  -11.1199  -16.9314 C   0  0  2  0  0  0  0  0  0  0  0  0
   17.8391  -12.2304  -16.2449 N   0  0  0  0  0  0  0  0  0  0  0  0
   19.3950  -10.3906  -16.0684 C   0  0  0  0  0  0  0  0  0  0  0  0
   19.1900  -10.3202  -14.8312 O   0  0  0  0  0  0  0  0  0  0  0  0
   20.5452   -9.7731  -16.6324 N   0  0  0  0  0  0  0  0  0  0  0  0
   21.5288   -9.0158  -15.9194 C   0  0  1  0  0  0  0  0  0  0  0  0
   22.9376   -9.4003  -16.2190 C   0  0  0  0  0  0  0  0  0  0  0  0
   23.2634  -10.7779  -15.7941 C   0  0  0  0  0  0  0  0  0  0  0  0
   23.3319  -11.8748  -16.5970 C   0  0  0  0  0  0  0  0  0  0  0  0
   23.6548  -12.9163  -15.8153 N   0  0  0  0  0  0  0  0  0  0  0  0
   23.7945  -12.5201  -14.5414 C   0  0  0  0  0  0  0  0  0  0  0  0
   23.5521  -11.1983  -14.5313 N   0  0  0  0  0  0  0  0  0  0  0  0
   21.3008   -7.5311  -15.9809 C   0  0  0  0  0  0  0  0  0  0  0  0
   21.1978   -7.0088  -17.1158 O   0  0  0  0  0  0  0  0  0  0  0  0
   20.2693   -2.6251  -15.1485 N   0  0  0  0  0  0  0  0  0  0  0  0
   19.2686   -3.5458  -14.6654 C   0  0  0  0  0  0  0  0  0  0  0  0
   18.1700   -2.9959  -14.3841 O   0  0  0  0  0  0  0  0  0  0  0  0
   19.5502   -4.9738  -14.5320 C   0  0  0  0  0  0  0  0  0  0  0  0
   20.9402   -5.3202  -14.9383 C   0  0  2  0  0  0  0  0  0  0  0  0
   21.2048   -6.7488  -14.8082 N   0  0  0  0  0  0  0  0  0  0  0  0
   21.9464   -4.5529  -14.1991 C   0  0  0  0  0  0  0  0  0  0  0  0
   22.1605   -3.2062  -14.2536 O   0  0  0  0  0  0  0  0  0  0  0  0
   22.7154   -5.2079  -13.4123 O   0  0  0  0  0  0  0  0  0  0  0  0
  2  1  1  1
  2  3  1  0
  4  2  1  0
  4  5  1  1
  6  4  1  0
  7  6  2  0
  8  6  1  0
  9  8  1  0
  9 10  1  6
 10 11  1  0
 11 12  2  0
 12 13  1  0
 14 13  1  0
 15 11  1  0
 15 14  2  0
 16 23  1  0
 16  9  1  0
 17 16  2  0
 19 18  1  0
 19 20  2  0
 22 21  1  1
 21 19  1  0
 22 24  1  0
 22 23  1  0
 24 25  1  0
 26 24  2  0
M  END
$$$$
