VHN.pdb
     RDKit          3D

 26 26  0  0  1  0  0  0  0  0999 V2000
   21.2572  -13.1346    7.3938 C   0  0  0  0  0  0  0  0  0  0  0  0
   20.2260  -12.1504    6.8641 C   0  0  1  0  0  0  0  0  0  0  0  0
   20.9086  -10.9654    6.2278 C   0  0  0  0  0  0  0  0  0  0  0  0
   19.2637  -12.7916    5.9192 C   0  0  2  0  0  0  0  0  0  0  0  0
   18.2690  -11.8342    5.5335 N   0  0  0  0  0  0  0  0  0  0  0  0
   18.6521  -14.0278    6.4707 C   0  0  0  0  0  0  0  0  0  0  0  0
   17.8025  -13.9420    7.3917 O   0  0  0  0  0  0  0  0  0  0  0  0
   19.0215  -15.3042    5.9641 N   0  0  0  0  0  0  0  0  0  0  0  0
   18.5444  -16.5680    6.4378 C   0  0  1  0  0  0  0  0  0  0  0  0
   17.9231  -17.4241    5.3874 C   0  0  0  0  0  0  0  0  0  0  0  0
   16.5096  -17.0818    5.1242 C   0  0  0  0  0  0  0  0  0  0  0  0
   15.7899  -16.1013    5.7351 C   0  0  0  0  0  0  0  0  0  0  0  0
   14.5575  -16.1284    5.2055 N   0  0  0  0  0  0  0  0  0  0  0  0
   14.4676  -17.0930    4.2778 C   0  0  0  0  0  0  0  0  0  0  0  0
   15.6753  -17.6804    4.2297 N   0  0  0  0  0  0  0  0  0  0  0  0
   19.5460  -17.3078    7.2803 C   0  0  0  0  0  0  0  0  0  0  0  0
   20.7199  -17.3858    6.8474 O   0  0  0  0  0  0  0  0  0  0  0  0
   22.7311  -19.3415   10.6843 N   0  0  0  0  0  0  0  0  0  0  0  0
   21.6913  -18.4999   11.2254 C   0  0  0  0  0  0  0  0  0  0  0  0
   21.6589  -18.4837   12.4852 O   0  0  0  0  0  0  0  0  0  0  0  0
   20.7847  -17.7554   10.3535 C   0  0  0  0  0  0  0  0  0  0  0  0
   20.2042  -18.6053    9.2773 C   0  0  2  0  0  0  0  0  0  0  0  0
   19.1846  -17.8947    8.5137 N   0  0  0  0  0  0  0  0  0  0  0  0
   19.6604  -19.8651    9.7921 C   0  0  0  0  0  0  0  0  0  0  0  0
   20.3596  -20.9851   10.1373 O   0  0  0  0  0  0  0  0  0  0  0  0
   18.3902  -19.9341    9.9377 O   0  0  0  0  0  0  0  0  0  0  0  0
  2  1  1  6
  2  3  1  0
  4  2  1  0
  4  5  1  1
  6  4  1  0
  7  6  2  0
  8  6  1  0
  9  8  1  0
  9 10  1  6
 10 11  1  0
 11 12  2  0
 12 13  1  0
 14 13  1  0
 15 11  1  0
 15 14  2  0
 16 23  1  0
 16  9  1  0
 17 16  2  0
 19 18  1  0
 19 20  2  0
 22 21  1  1
 21 19  1  0
 22 24  1  0
 22 23  1  0
 24 25  1  0
 26 24  2  0
M  END
$$$$
