QML.pdb
     RDKit          3D

 26 25  0  0  1  0  0  0  0  0999 V2000
    9.8532  -18.6962   16.2610 N   0  0  0  0  0  0  0  0  0  0  0  0
    9.7218  -17.5797   17.1768 C   0  0  0  0  0  0  0  0  0  0  0  0
   10.1256  -16.4830   16.7636 O   0  0  0  0  0  0  0  0  0  0  0  0
    9.1425  -17.8335   18.4822 C   0  0  0  0  0  0  0  0  0  0  0  0
   10.0581  -17.5879   19.6395 C   0  0  0  0  0  0  0  0  0  0  0  0
    9.3959  -17.8104   20.9409 C   0  0  2  0  0  0  0  0  0  0  0  0
    8.0094  -18.1291   20.8823 N   0  0  0  0  0  0  0  0  0  0  0  0
    9.6910  -16.6294   21.8327 C   0  0  0  0  0  0  0  0  0  0  0  0
   10.8925  -16.2282   21.9357 O   0  0  0  0  0  0  0  0  0  0  0  0
    6.2460  -11.5082   26.8485 C   0  0  0  0  0  0  0  0  0  0  0  0
    5.9858  -12.8685   25.6742 S   0  0  0  0  0  0  0  0  0  0  0  0
    7.6251  -13.4180   25.1133 C   0  0  0  0  0  0  0  0  0  0  0  0
    7.4626  -14.5558   24.1471 C   0  0  0  0  0  0  0  0  0  0  0  0
    8.8116  -15.0650   23.6478 C   0  0  2  0  0  0  0  0  0  0  0  0
    8.7010  -15.9514   22.5564 N   0  0  0  0  0  0  0  0  0  0  0  0
    9.7480  -15.4084   24.7072 C   0  0  0  0  0  0  0  0  0  0  0  0
   10.9264  -14.9743   24.6874 O   0  0  0  0  0  0  0  0  0  0  0  0
   10.2351  -14.3648   29.9636 C   0  0  0  0  0  0  0  0  0  0  0  0
   10.6306  -14.6735   28.5089 C   0  0  2  0  0  0  0  0  0  0  0  0
   10.3206  -13.4418   27.7164 C   0  0  0  0  0  0  0  0  0  0  0  0
    9.8344  -15.8721   28.1131 C   0  0  0  0  0  0  0  0  0  0  0  0
   10.2925  -16.5741   26.8869 C   0  0  2  0  0  0  0  0  0  0  0  0
    9.3762  -16.2490   25.8126 N   0  0  0  0  0  0  0  0  0  0  0  0
   10.5017  -18.0103   27.0220 C   0  0  0  0  0  0  0  0  0  0  0  0
   11.6322  -18.6179   27.5021 O   0  0  0  0  0  0  0  0  0  0  0  0
    9.5533  -18.7743   26.6636 O   0  0  0  0  0  0  0  0  0  0  0  0
  2  1  1  0
  3  2  2  0
  4  2  1  0
  5  4  1  0
  6  5  1  0
  6  7  1  6
  8  6  1  0
  8  9  2  0
 11 12  1  0
 11 10  1  0
 12 13  1  0
 14 13  1  1
 14 15  1  0
 15  8  1  0
 16 14  1  0
 17 16  2  0
 19 18  1  1
 20 19  1  0
 21 19  1  0
 22 21  1  1
 22 23  1  0
 23 16  1  0
 24 22  1  0
 25 24  1  0
 26 24  2  0
M  END
$$$$
