QML.pdb
     RDKit          3D

 26 25  0  0  1  0  0  0  0  0999 V2000
   11.5107  -17.2377   16.7764 N   0  0  0  0  0  0  0  0  0  0  0  0
   11.7422  -18.5812   17.2703 C   0  0  0  0  0  0  0  0  0  0  0  0
   11.8422  -19.4698   16.4120 O   0  0  0  0  0  0  0  0  0  0  0  0
   11.8318  -18.7737   18.7053 C   0  0  0  0  0  0  0  0  0  0  0  0
   11.5697  -17.5504   19.5255 C   0  0  0  0  0  0  0  0  0  0  0  0
   10.9821  -17.8686   20.8427 C   0  0  2  0  0  0  0  0  0  0  0  0
    9.9148  -18.8109   20.8319 N   0  0  0  0  0  0  0  0  0  0  0  0
   10.6168  -16.5736   21.5259 C   0  0  0  0  0  0  0  0  0  0  0  0
   11.5133  -15.6838   21.6656 O   0  0  0  0  0  0  0  0  0  0  0  0
    7.1834  -12.4242   18.9383 C   0  0  0  0  0  0  0  0  0  0  0  0
    7.7571  -12.9075   20.5919 S   0  0  0  0  0  0  0  0  0  0  0  0
    7.1072  -14.5725   20.9230 C   0  0  0  0  0  0  0  0  0  0  0  0
    7.3402  -14.9175   22.3657 C   0  0  0  0  0  0  0  0  0  0  0  0
    8.8197  -15.1549   22.6540 C   0  0  2  0  0  0  0  0  0  0  0  0
    9.3323  -16.3037   22.0164 N   0  0  0  0  0  0  0  0  0  0  0  0
    9.2019  -14.9210   24.0384 C   0  0  0  0  0  0  0  0  0  0  0  0
    9.6075  -13.7919   24.4100 O   0  0  0  0  0  0  0  0  0  0  0  0
    9.1928  -12.8499   27.5763 C   0  0  0  0  0  0  0  0  0  0  0  0
    8.2015  -13.3379   26.5052 C   0  0  2  0  0  0  0  0  0  0  0  0
    6.9659  -12.5076   26.6635 C   0  0  0  0  0  0  0  0  0  0  0  0
    7.9985  -14.7930   26.7669 C   0  0  0  0  0  0  0  0  0  0  0  0
    9.1549  -15.6716   26.4552 C   0  0  2  0  0  0  0  0  0  0  0  0
    9.1351  -15.9555   25.0345 N   0  0  0  0  0  0  0  0  0  0  0  0
    9.2646  -16.8812   27.2611 C   0  0  0  0  0  0  0  0  0  0  0  0
    9.3444  -18.1629   26.7833 O   0  0  0  0  0  0  0  0  0  0  0  0
    9.2890  -16.7414   28.5227 O   0  0  0  0  0  0  0  0  0  0  0  0
  2  1  1  0
  3  2  2  0
  4  2  1  0
  5  4  1  0
  6  5  1  0
  6  7  1  6
  8  6  1  0
  8  9  2  0
 11 12  1  0
 11 10  1  0
 12 13  1  0
 14 13  1  1
 14 15  1  0
 15  8  1  0
 16 14  1  0
 17 16  2  0
 19 18  1  1
 20 19  1  0
 21 19  1  0
 22 21  1  1
 22 23  1  0
 23 16  1  0
 24 22  1  0
 25 24  1  0
 26 24  2  0
M  END
$$$$
