QML.pdb
     RDKit          3D

 26 25  0  0  1  0  0  0  0  0999 V2000
    9.6648  -23.4313   20.6205 N   0  0  0  0  0  0  0  0  0  0  0  0
   10.5096  -22.3035   20.2786 C   0  0  0  0  0  0  0  0  0  0  0  0
   11.6915  -22.3746   20.6451 O   0  0  0  0  0  0  0  0  0  0  0  0
    9.9117  -21.1999   19.5515 C   0  0  0  0  0  0  0  0  0  0  0  0
   10.3678  -19.8404   19.9775 C   0  0  0  0  0  0  0  0  0  0  0  0
    9.6586  -19.3577   21.1799 C   0  0  2  0  0  0  0  0  0  0  0  0
    8.2502  -19.5669   21.1924 N   0  0  0  0  0  0  0  0  0  0  0  0
   10.0413  -17.9165   21.4114 C   0  0  0  0  0  0  0  0  0  0  0  0
   11.2698  -17.5954   21.3564 O   0  0  0  0  0  0  0  0  0  0  0  0
    6.3339  -13.3292   19.5681 C   0  0  0  0  0  0  0  0  0  0  0  0
    7.5382  -12.1900   20.3094 S   0  0  0  0  0  0  0  0  0  0  0  0
    8.7066  -13.1933   21.2747 C   0  0  0  0  0  0  0  0  0  0  0  0
    8.3549  -14.6453   21.1244 C   0  0  0  0  0  0  0  0  0  0  0  0
    9.2874  -15.5359   21.9402 C   0  0  2  0  0  0  0  0  0  0  0  0
    9.1048  -16.9111   21.6860 N   0  0  0  0  0  0  0  0  0  0  0  0
    9.4498  -15.1186   23.3247 C   0  0  0  0  0  0  0  0  0  0  0  0
   10.3164  -14.2661   23.6402 O   0  0  0  0  0  0  0  0  0  0  0  0
    8.1906  -12.2487   26.3464 C   0  0  0  0  0  0  0  0  0  0  0  0
    7.2836  -13.2338   25.5881 C   0  0  2  0  0  0  0  0  0  0  0  0
    5.8819  -12.7381   25.7636 C   0  0  0  0  0  0  0  0  0  0  0  0
    7.5386  -14.5742   26.1924 C   0  0  0  0  0  0  0  0  0  0  0  0
    8.7929  -15.2458   25.7657 C   0  0  2  0  0  0  0  0  0  0  0  0
    8.6382  -15.6534   24.3840 N   0  0  0  0  0  0  0  0  0  0  0  0
    9.2469  -16.3371   26.6185 C   0  0  0  0  0  0  0  0  0  0  0  0
    9.5942  -16.2356   27.9401 O   0  0  0  0  0  0  0  0  0  0  0  0
    9.3306  -17.4907   26.0949 O   0  0  0  0  0  0  0  0  0  0  0  0
  2  1  1  0
  3  2  2  0
  4  2  1  0
  5  4  1  0
  6  5  1  0
  6  7  1  6
  8  6  1  0
  8  9  2  0
 11 12  1  0
 11 10  1  0
 12 13  1  0
 14 13  1  1
 14 15  1  0
 15  8  1  0
 16 14  1  0
 17 16  2  0
 19 18  1  1
 20 19  1  0
 21 19  1  0
 22 21  1  1
 22 23  1  0
 23 16  1  0
 24 22  1  0
 25 24  1  0
 26 24  2  0
M  END
$$$$
