QML.pdb
     RDKit          3D

 26 25  0  0  1  0  0  0  0  0999 V2000
   11.4167  -20.7951   20.6271 N   0  0  0  0  0  0  0  0  0  0  0  0
   11.8812  -19.7554   19.7295 C   0  0  0  0  0  0  0  0  0  0  0  0
   12.7928  -20.0717   18.9514 O   0  0  0  0  0  0  0  0  0  0  0  0
   11.2550  -18.4499   19.8168 C   0  0  0  0  0  0  0  0  0  0  0  0
   10.1998  -18.3233   20.8696 C   0  0  0  0  0  0  0  0  0  0  0  0
    9.5401  -17.0018   20.8521 C   0  0  2  0  0  0  0  0  0  0  0  0
    9.8893  -16.1511   19.7651 N   0  0  0  0  0  0  0  0  0  0  0  0
    9.7441  -16.3506   22.1980 C   0  0  0  0  0  0  0  0  0  0  0  0
   10.9193  -16.0047   22.5363 O   0  0  0  0  0  0  0  0  0  0  0  0
    6.4433  -12.3143   26.5441 C   0  0  0  0  0  0  0  0  0  0  0  0
    5.7128  -12.9191   24.9956 S   0  0  0  0  0  0  0  0  0  0  0  0
    7.0128  -13.8228   24.1026 C   0  0  0  0  0  0  0  0  0  0  0  0
    7.3824  -15.0542   24.8781 C   0  0  0  0  0  0  0  0  0  0  0  0
    8.7222  -15.6240   24.4213 C   0  0  2  0  0  0  0  0  0  0  0  0
    8.6969  -16.1085   23.0970 N   0  0  0  0  0  0  0  0  0  0  0  0
    9.3999  -16.4307   25.4249 C   0  0  0  0  0  0  0  0  0  0  0  0
    9.6334  -17.6475   25.2193 O   0  0  0  0  0  0  0  0  0  0  0  0
   11.1426  -13.5887   27.8590 C   0  0  0  0  0  0  0  0  0  0  0  0
   10.2348  -14.4247   28.7782 C   0  0  2  0  0  0  0  0  0  0  0  0
   10.2029  -13.7173   30.0971 C   0  0  0  0  0  0  0  0  0  0  0  0
   10.8445  -15.7859   28.8286 C   0  0  0  0  0  0  0  0  0  0  0  0
   10.5900  -16.6505   27.6479 C   0  0  2  0  0  0  0  0  0  0  0  0
    9.8294  -15.8828   26.6828 N   0  0  0  0  0  0  0  0  0  0  0  0
    9.9810  -17.9441   27.9316 C   0  0  0  0  0  0  0  0  0  0  0  0
   10.6046  -19.0183   28.5100 O   0  0  0  0  0  0  0  0  0  0  0  0
    8.7607  -18.0962   27.6162 O   0  0  0  0  0  0  0  0  0  0  0  0
  2  1  1  0
  3  2  2  0
  4  2  1  0
  5  4  1  0
  6  5  1  0
  6  7  1  6
  8  6  1  0
  8  9  2  0
 11 12  1  0
 11 10  1  0
 12 13  1  0
 14 13  1  1
 14 15  1  0
 15  8  1  0
 16 14  1  0
 17 16  2  0
 19 18  1  6
 20 19  1  0
 21 19  1  0
 22 21  1  1
 22 23  1  0
 23 16  1  0
 24 22  1  0
 25 24  1  0
 26 24  2  0
M  END
$$$$
