QML.pdb
     RDKit          3D

 26 25  0  0  1  0  0  0  0  0999 V2000
    8.4415  -12.3089   18.0223 N   0  0  0  0  0  0  0  0  0  0  0  0
    8.3629  -13.5565   17.2876 C   0  0  0  0  0  0  0  0  0  0  0  0
    7.8270  -13.5010   16.1712 O   0  0  0  0  0  0  0  0  0  0  0  0
    8.9045  -14.7494   17.9103 C   0  0  0  0  0  0  0  0  0  0  0  0
    9.4877  -14.5431   19.2724 C   0  0  0  0  0  0  0  0  0  0  0  0
    9.3879  -15.7498   20.1184 C   0  0  2  0  0  0  0  0  0  0  0  0
    8.2806  -16.6034   19.8491 N   0  0  0  0  0  0  0  0  0  0  0  0
    9.4652  -15.3247   21.5642 C   0  0  0  0  0  0  0  0  0  0  0  0
   10.5116  -14.7277   21.9692 O   0  0  0  0  0  0  0  0  0  0  0  0
    6.4697  -11.9596   24.1190 C   0  0  0  0  0  0  0  0  0  0  0  0
    6.0742  -12.7442   25.7081 S   0  0  0  0  0  0  0  0  0  0  0  0
    6.7440  -14.4332   25.6573 C   0  0  0  0  0  0  0  0  0  0  0  0
    6.8487  -14.8821   24.2283 C   0  0  0  0  0  0  0  0  0  0  0  0
    8.2975  -15.1425   23.8266 C   0  0  2  0  0  0  0  0  0  0  0  0
    8.4358  -15.5578   22.4859 N   0  0  0  0  0  0  0  0  0  0  0  0
    9.0795  -15.8402   24.8360 C   0  0  0  0  0  0  0  0  0  0  0  0
    9.3546  -17.0586   24.7053 O   0  0  0  0  0  0  0  0  0  0  0  0
   10.7460  -14.7621   30.5631 C   0  0  0  0  0  0  0  0  0  0  0  0
   11.2978  -15.4969   29.3288 C   0  0  2  0  0  0  0  0  0  0  0  0
   12.7739  -15.2479   29.3137 C   0  0  0  0  0  0  0  0  0  0  0  0
   10.5698  -14.9310   28.1554 C   0  0  0  0  0  0  0  0  0  0  0  0
   10.3770  -15.8558   27.0091 C   0  0  2  0  0  0  0  0  0  0  0  0
    9.5687  -15.1791   26.0152 N   0  0  0  0  0  0  0  0  0  0  0  0
    9.8561  -17.1756   27.3429 C   0  0  0  0  0  0  0  0  0  0  0  0
    8.5467  -17.4817   27.6062 O   0  0  0  0  0  0  0  0  0  0  0  0
   10.6866  -18.1343   27.3962 O   0  0  0  0  0  0  0  0  0  0  0  0
  2  1  1  0
  3  2  2  0
  4  2  1  0
  5  4  1  0
  6  5  1  0
  6  7  1  1
  8  6  1  0
  8  9  2  0
 11 12  1  0
 11 10  1  0
 12 13  1  0
 14 13  1  1
 14 15  1  0
 15  8  1  0
 16 14  1  0
 17 16  2  0
 19 18  1  1
 20 19  1  0
 21 19  1  0
 22 21  1  1
 22 23  1  0
 23 16  1  0
 24 22  1  0
 25 24  1  0
 26 24  2  0
M  END
$$$$
