QML.pdb
     RDKit          3D

 26 25  0  0  1  0  0  0  0  0999 V2000
    7.8854  -12.7405   16.9444 N   0  0  0  0  0  0  0  0  0  0  0  0
    7.7207  -14.1339   16.5784 C   0  0  0  0  0  0  0  0  0  0  0  0
    7.3445  -14.3538   15.4180 O   0  0  0  0  0  0  0  0  0  0  0  0
    8.0004  -15.1404   17.5848 C   0  0  0  0  0  0  0  0  0  0  0  0
    8.3559  -14.6035   18.9351 C   0  0  0  0  0  0  0  0  0  0  0  0
    8.6681  -15.6736   19.9042 C   0  0  2  0  0  0  0  0  0  0  0  0
    7.6615  -16.6661   20.0745 N   0  0  0  0  0  0  0  0  0  0  0  0
    9.0866  -15.0310   21.2038 C   0  0  0  0  0  0  0  0  0  0  0  0
   10.0102  -14.1581   21.1829 O   0  0  0  0  0  0  0  0  0  0  0  0
    6.5884  -11.6489   25.7345 C   0  0  0  0  0  0  0  0  0  0  0  0
    6.1883  -13.3209   26.3189 S   0  0  0  0  0  0  0  0  0  0  0  0
    6.7696  -14.4884   25.0528 C   0  0  0  0  0  0  0  0  0  0  0  0
    7.9258  -13.8809   24.3121 C   0  0  0  0  0  0  0  0  0  0  0  0
    8.8532  -14.9514   23.7444 C   0  0  2  0  0  0  0  0  0  0  0  0
    8.5048  -15.3516   22.4376 N   0  0  0  0  0  0  0  0  0  0  0  0
    9.2177  -15.9898   24.6963 C   0  0  0  0  0  0  0  0  0  0  0  0
    8.4088  -16.9053   24.9879 O   0  0  0  0  0  0  0  0  0  0  0  0
    9.2226  -13.7025   29.3166 C   0  0  0  0  0  0  0  0  0  0  0  0
    9.9036  -15.0182   28.9007 C   0  0  2  0  0  0  0  0  0  0  0  0
   11.2095  -15.0671   29.6310 C   0  0  0  0  0  0  0  0  0  0  0  0
   10.0352  -14.9600   27.4153 C   0  0  0  0  0  0  0  0  0  0  0  0
   10.6520  -16.1503   26.7756 C   0  0  2  0  0  0  0  0  0  0  0  0
   10.5026  -16.0187   25.3405 N   0  0  0  0  0  0  0  0  0  0  0  0
   10.1880  -17.4423   27.2655 C   0  0  0  0  0  0  0  0  0  0  0  0
    8.9307  -17.9617   27.1016 O   0  0  0  0  0  0  0  0  0  0  0  0
   11.0206  -18.1575   27.9036 O   0  0  0  0  0  0  0  0  0  0  0  0
  2  1  1  0
  3  2  2  0
  4  2  1  0
  5  4  1  0
  6  5  1  0
  6  7  1  1
  8  6  1  0
  8  9  2  0
 11 12  1  0
 11 10  1  0
 12 13  1  0
 14 13  1  1
 14 15  1  0
 15  8  1  0
 16 14  1  0
 17 16  2  0
 19 18  1  1
 20 19  1  0
 21 19  1  0
 22 21  1  1
 22 23  1  0
 23 16  1  0
 24 22  1  0
 25 24  1  0
 26 24  2  0
M  END
$$$$
