QML.pdb
     RDKit          3D

 26 25  0  0  1  0  0  0  0  0999 V2000
   10.5753  -18.4877   15.9766 N   0  0  0  0  0  0  0  0  0  0  0  0
   10.3314  -18.7627   17.3793 C   0  0  0  0  0  0  0  0  0  0  0  0
   11.1024  -19.5680   17.9209 O   0  0  0  0  0  0  0  0  0  0  0  0
    9.2202  -18.0879   18.0228 C   0  0  0  0  0  0  0  0  0  0  0  0
    9.6041  -17.1190   19.0960 C   0  0  0  0  0  0  0  0  0  0  0  0
    9.3354  -17.6414   20.4512 C   0  0  2  0  0  0  0  0  0  0  0  0
    8.0427  -18.2036   20.6517 N   0  0  0  0  0  0  0  0  0  0  0  0
    9.6693  -16.5624   21.4518 C   0  0  0  0  0  0  0  0  0  0  0  0
   10.8277  -16.0403   21.4219 O   0  0  0  0  0  0  0  0  0  0  0  0
    5.9619  -12.5855   26.8407 C   0  0  0  0  0  0  0  0  0  0  0  0
    6.1764  -12.5085   25.0392 S   0  0  0  0  0  0  0  0  0  0  0  0
    7.7890  -13.2543   24.6555 C   0  0  0  0  0  0  0  0  0  0  0  0
    7.5788  -14.4957   23.8375 C   0  0  0  0  0  0  0  0  0  0  0  0
    8.9053  -15.1200   23.4141 C   0  0  2  0  0  0  0  0  0  0  0  0
    8.7612  -16.1066   22.4166 N   0  0  0  0  0  0  0  0  0  0  0  0
    9.8112  -15.3997   24.5179 C   0  0  0  0  0  0  0  0  0  0  0  0
   11.0385  -15.1517   24.4190 O   0  0  0  0  0  0  0  0  0  0  0  0
   10.7974  -13.7630   28.0863 C   0  0  0  0  0  0  0  0  0  0  0  0
    9.4503  -14.5022   28.1687 C   0  0  2  0  0  0  0  0  0  0  0  0
    8.8146  -14.0796   29.4565 C   0  0  0  0  0  0  0  0  0  0  0  0
    9.7756  -15.9568   28.0955 C   0  0  0  0  0  0  0  0  0  0  0  0
   10.2628  -16.4430   26.7792 C   0  0  2  0  0  0  0  0  0  0  0  0
    9.3532  -15.9654   25.7576 N   0  0  0  0  0  0  0  0  0  0  0  0
   10.4997  -17.8781   26.6841 C   0  0  0  0  0  0  0  0  0  0  0  0
    9.8514  -18.7477   25.8468 O   0  0  0  0  0  0  0  0  0  0  0  0
   11.3870  -18.3746   27.4443 O   0  0  0  0  0  0  0  0  0  0  0  0
  2  1  1  0
  3  2  2  0
  4  2  1  0
  5  4  1  0
  6  5  1  0
  6  7  1  6
  8  6  1  0
  8  9  2  0
 11 12  1  0
 11 10  1  0
 12 13  1  0
 14 13  1  1
 14 15  1  0
 15  8  1  0
 16 14  1  0
 17 16  2  0
 19 18  1  1
 20 19  1  0
 21 19  1  0
 22 21  1  1
 22 23  1  0
 23 16  1  0
 24 22  1  0
 25 24  1  0
 26 24  2  0
M  END
$$$$
