QML.pdb
     RDKit          3D

 26 25  0  0  1  0  0  0  0  0999 V2000
    4.4347  -20.4315   22.8582 N   0  0  0  0  0  0  0  0  0  0  0  0
    5.6425  -20.9009   22.2075 C   0  0  0  0  0  0  0  0  0  0  0  0
    5.4895  -21.4786   21.1215 O   0  0  0  0  0  0  0  0  0  0  0  0
    6.9104  -20.6645   22.8715 C   0  0  0  0  0  0  0  0  0  0  0  0
    7.1634  -19.2434   23.2646 C   0  0  0  0  0  0  0  0  0  0  0  0
    7.4802  -18.3845   22.1054 C   0  0  2  0  0  0  0  0  0  0  0  0
    8.1515  -19.0261   21.0260 N   0  0  0  0  0  0  0  0  0  0  0  0
    8.2063  -17.1598   22.6053 C   0  0  0  0  0  0  0  0  0  0  0  0
    9.4526  -17.0551   22.3792 O   0  0  0  0  0  0  0  0  0  0  0  0
    4.9045  -12.0147   25.2434 C   0  0  0  0  0  0  0  0  0  0  0  0
    6.3723  -12.1004   26.3090 S   0  0  0  0  0  0  0  0  0  0  0  0
    7.6609  -12.9860   25.3820 C   0  0  0  0  0  0  0  0  0  0  0  0
    7.0531  -14.1824   24.7084 C   0  0  0  0  0  0  0  0  0  0  0  0
    8.1136  -15.0409   24.0254 C   0  0  2  0  0  0  0  0  0  0  0  0
    7.5712  -16.1287   23.3101 N   0  0  0  0  0  0  0  0  0  0  0  0
    9.2956  -15.2861   24.8378 C   0  0  0  0  0  0  0  0  0  0  0  0
   10.3559  -14.6433   24.6382 O   0  0  0  0  0  0  0  0  0  0  0  0
   11.2732  -13.7981   27.9384 C   0  0  0  0  0  0  0  0  0  0  0  0
    9.9368  -14.5371   28.1279 C   0  0  2  0  0  0  0  0  0  0  0  0
    9.3936  -14.0953   29.4511 C   0  0  0  0  0  0  0  0  0  0  0  0
   10.2589  -15.9924   28.0539 C   0  0  0  0  0  0  0  0  0  0  0  0
   10.4875  -16.5336   26.6897 C   0  0  2  0  0  0  0  0  0  0  0  0
    9.3079  -16.2619   25.8935 N   0  0  0  0  0  0  0  0  0  0  0  0
   10.8906  -17.9328   26.6245 C   0  0  0  0  0  0  0  0  0  0  0  0
   12.0761  -18.4513   27.0752 O   0  0  0  0  0  0  0  0  0  0  0  0
   10.0726  -18.7519   26.1032 O   0  0  0  0  0  0  0  0  0  0  0  0
  2  1  1  0
  3  2  2  0
  4  2  1  0
  5  4  1  0
  6  5  1  0
  6  7  1  6
  8  6  1  0
  8  9  2  0
 11 12  1  0
 11 10  1  0
 12 13  1  0
 14 13  1  1
 14 15  1  0
 15  8  1  0
 16 14  1  0
 17 16  2  0
 19 18  1  1
 20 19  1  0
 21 19  1  0
 22 21  1  1
 22 23  1  0
 23 16  1  0
 24 22  1  0
 25 24  1  0
 26 24  2  0
M  END
$$$$
