QML.pdb
     RDKit          3D

 26 25  0  0  1  0  0  0  0  0999 V2000
   11.3590  -18.4985   18.1714 N   0  0  0  0  0  0  0  0  0  0  0  0
    9.9310  -18.3389   17.9767 C   0  0  0  0  0  0  0  0  0  0  0  0
    9.5381  -18.3195   16.8013 O   0  0  0  0  0  0  0  0  0  0  0  0
    9.0927  -18.2123   19.1537 C   0  0  0  0  0  0  0  0  0  0  0  0
    9.8273  -18.2131   20.4569 C   0  0  0  0  0  0  0  0  0  0  0  0
    8.9242  -18.0517   21.6145 C   0  0  2  0  0  0  0  0  0  0  0  0
    7.5488  -17.8559   21.3027 N   0  0  0  0  0  0  0  0  0  0  0  0
    9.4844  -16.9724   22.5079 C   0  0  0  0  0  0  0  0  0  0  0  0
   10.7267  -16.9864   22.7759 O   0  0  0  0  0  0  0  0  0  0  0  0
    6.9132  -11.5439   26.0120 C   0  0  0  0  0  0  0  0  0  0  0  0
    5.9373  -13.0701   25.8862 S   0  0  0  0  0  0  0  0  0  0  0  0
    7.0763  -14.4000   25.3984 C   0  0  0  0  0  0  0  0  0  0  0  0
    7.8886  -13.9489   24.2189 C   0  0  0  0  0  0  0  0  0  0  0  0
    9.0454  -14.9030   23.9363 C   0  0  2  0  0  0  0  0  0  0  0  0
    8.6985  -15.9517   23.0593 N   0  0  0  0  0  0  0  0  0  0  0  0
    9.8436  -15.2348   25.1068 C   0  0  0  0  0  0  0  0  0  0  0  0
   10.5964  -14.3786   25.6336 O   0  0  0  0  0  0  0  0  0  0  0  0
   11.2084  -14.5436   29.0504 C   0  0  0  0  0  0  0  0  0  0  0  0
    9.9460  -14.6645   28.1789 C   0  0  2  0  0  0  0  0  0  0  0  0
    8.8683  -13.9058   28.8889 C   0  0  0  0  0  0  0  0  0  0  0  0
    9.6784  -16.1265   28.0451 C   0  0  0  0  0  0  0  0  0  0  0  0
   10.4422  -16.8270   26.9811 C   0  0  2  0  0  0  0  0  0  0  0  0
    9.8103  -16.5397   25.7093 N   0  0  0  0  0  0  0  0  0  0  0  0
   10.6490  -18.2550   27.1877 C   0  0  0  0  0  0  0  0  0  0  0  0
   11.3997  -18.8245   28.1826 O   0  0  0  0  0  0  0  0  0  0  0  0
   10.0844  -19.0499   26.3746 O   0  0  0  0  0  0  0  0  0  0  0  0
  2  1  1  0
  3  2  2  0
  4  2  1  0
  5  4  1  0
  6  5  1  0
  6  7  1  6
  8  6  1  0
  8  9  2  0
 11 12  1  0
 11 10  1  0
 12 13  1  0
 14 13  1  1
 14 15  1  0
 15  8  1  0
 16 14  1  0
 17 16  2  0
 19 18  1  1
 20 19  1  0
 21 19  1  0
 22 21  1  1
 22 23  1  0
 23 16  1  0
 24 22  1  0
 25 24  1  0
 26 24  2  0
M  END
$$$$
