QML.pdb
     RDKit          3D

 26 25  0  0  1  0  0  0  0  0999 V2000
   12.9670  -19.8363   20.0261 N   0  0  0  0  0  0  0  0  0  0  0  0
   12.0906  -19.5584   18.9049 C   0  0  0  0  0  0  0  0  0  0  0  0
   12.3822  -20.1085   17.8332 O   0  0  0  0  0  0  0  0  0  0  0  0
   10.9649  -18.6700   19.1238 C   0  0  0  0  0  0  0  0  0  0  0  0
   10.8643  -18.1044   20.5050 C   0  0  0  0  0  0  0  0  0  0  0  0
    9.6757  -17.2448   20.6783 C   0  0  2  0  0  0  0  0  0  0  0  0
    9.3220  -16.4455   19.5544 N   0  0  0  0  0  0  0  0  0  0  0  0
    9.8519  -16.4385   21.9416 C   0  0  0  0  0  0  0  0  0  0  0  0
   11.0158  -16.0287   22.2461 O   0  0  0  0  0  0  0  0  0  0  0  0
    6.3697  -11.8868   27.3206 C   0  0  0  0  0  0  0  0  0  0  0  0
    6.1333  -12.8909   25.8261 S   0  0  0  0  0  0  0  0  0  0  0  0
    7.6343  -13.8921   25.6059 C   0  0  0  0  0  0  0  0  0  0  0  0
    7.5481  -14.6345   24.3036 C   0  0  0  0  0  0  0  0  0  0  0  0
    8.7922  -15.4831   24.0581 C   0  0  2  0  0  0  0  0  0  0  0  0
    8.7909  -16.1191   22.7992 N   0  0  0  0  0  0  0  0  0  0  0  0
    9.2187  -16.2626   25.2104 C   0  0  0  0  0  0  0  0  0  0  0  0
    9.0666  -17.5091   25.2335 O   0  0  0  0  0  0  0  0  0  0  0  0
   11.6880  -13.6619   27.5501 C   0  0  0  0  0  0  0  0  0  0  0  0
   10.4867  -14.1211   28.3950 C   0  0  2  0  0  0  0  0  0  0  0  0
   10.5342  -13.3272   29.6633 C   0  0  0  0  0  0  0  0  0  0  0  0
   10.6582  -15.5911   28.5866 C   0  0  0  0  0  0  0  0  0  0  0  0
   10.5491  -16.4185   27.3579 C   0  0  2  0  0  0  0  0  0  0  0  0
    9.8264  -15.6535   26.3621 N   0  0  0  0  0  0  0  0  0  0  0  0
    9.9937  -17.7535   27.5424 C   0  0  0  0  0  0  0  0  0  0  0  0
    8.7935  -18.2009   27.0557 O   0  0  0  0  0  0  0  0  0  0  0  0
   10.6800  -18.5830   28.2152 O   0  0  0  0  0  0  0  0  0  0  0  0
  2  1  1  0
  3  2  2  0
  4  2  1  0
  5  4  1  0
  6  5  1  0
  6  7  1  6
  8  6  1  0
  8  9  2  0
 11 12  1  0
 11 10  1  0
 12 13  1  0
 14 13  1  1
 14 15  1  0
 15  8  1  0
 16 14  1  0
 17 16  2  0
 19 18  1  6
 20 19  1  0
 21 19  1  0
 22 21  1  1
 22 23  1  0
 23 16  1  0
 24 22  1  0
 25 24  1  0
 26 24  2  0
M  END
$$$$
