QML.pdb
     RDKit          3D

 26 25  0  0  1  0  0  0  0  0999 V2000
    8.0481  -12.5714   17.0726 N   0  0  0  0  0  0  0  0  0  0  0  0
    7.7575  -13.9517   16.7366 C   0  0  0  0  0  0  0  0  0  0  0  0
    7.1605  -14.1402   15.6669 O   0  0  0  0  0  0  0  0  0  0  0  0
    8.1778  -14.9825   17.6667 C   0  0  0  0  0  0  0  0  0  0  0  0
    8.7714  -14.4785   18.9440 C   0  0  0  0  0  0  0  0  0  0  0  0
    9.1915  -15.5731   19.8423 C   0  0  2  0  0  0  0  0  0  0  0  0
    8.4750  -16.7957   19.7037 N   0  0  0  0  0  0  0  0  0  0  0  0
    9.1963  -15.0512   21.2582 C   0  0  0  0  0  0  0  0  0  0  0  0
    9.8725  -14.0078   21.5212 O   0  0  0  0  0  0  0  0  0  0  0  0
    6.8344  -12.2734   27.4310 C   0  0  0  0  0  0  0  0  0  0  0  0
    6.8576  -12.6720   25.6596 S   0  0  0  0  0  0  0  0  0  0  0  0
    6.9196  -14.4828   25.5148 C   0  0  0  0  0  0  0  0  0  0  0  0
    6.9846  -14.8620   24.0634 C   0  0  0  0  0  0  0  0  0  0  0  0
    8.3858  -15.3153   23.6641 C   0  0  2  0  0  0  0  0  0  0  0  0
    8.4892  -15.6637   22.3014 N   0  0  0  0  0  0  0  0  0  0  0  0
    9.0305  -16.1848   24.6365 C   0  0  0  0  0  0  0  0  0  0  0  0
    8.4150  -17.1617   25.1309 O   0  0  0  0  0  0  0  0  0  0  0  0
    9.2070  -14.8974   29.3705 C   0  0  0  0  0  0  0  0  0  0  0  0
   10.5808  -15.1533   28.7261 C   0  0  2  0  0  0  0  0  0  0  0  0
   11.5138  -14.1340   29.3019 C   0  0  0  0  0  0  0  0  0  0  0  0
   10.3725  -15.0294   27.2536 C   0  0  0  0  0  0  0  0  0  0  0  0
   10.8053  -16.1949   26.4409 C   0  0  2  0  0  0  0  0  0  0  0  0
   10.3836  -15.9719   25.0728 N   0  0  0  0  0  0  0  0  0  0  0  0
   10.3959  -17.5012   26.9417 C   0  0  0  0  0  0  0  0  0  0  0  0
    9.1059  -17.9361   27.0971 O   0  0  0  0  0  0  0  0  0  0  0  0
   11.3142  -18.3158   27.2655 O   0  0  0  0  0  0  0  0  0  0  0  0
  2  1  1  0
  3  2  2  0
  4  2  1  0
  5  4  1  0
  6  5  1  0
  6  7  1  1
  8  6  1  0
  8  9  2  0
 11 12  1  0
 11 10  1  0
 12 13  1  0
 14 13  1  1
 14 15  1  0
 15  8  1  0
 16 14  1  0
 17 16  2  0
 19 18  1  1
 20 19  1  0
 21 19  1  0
 22 21  1  1
 22 23  1  0
 23 16  1  0
 24 22  1  0
 25 24  1  0
 26 24  2  0
M  END
$$$$
