QML.pdb
     RDKit          3D

 26 25  0  0  1  0  0  0  0  0999 V2000
   11.4846  -19.0240   17.1010 N   0  0  0  0  0  0  0  0  0  0  0  0
   10.4007  -18.1057   17.3917 C   0  0  0  0  0  0  0  0  0  0  0  0
   10.1713  -17.2412   16.5335 O   0  0  0  0  0  0  0  0  0  0  0  0
    9.6877  -18.2677   18.6445 C   0  0  0  0  0  0  0  0  0  0  0  0
   10.4287  -17.8044   19.8587 C   0  0  0  0  0  0  0  0  0  0  0  0
    9.6786  -18.0518   21.1069 C   0  0  2  0  0  0  0  0  0  0  0  0
    8.3152  -18.4285   20.9441 N   0  0  0  0  0  0  0  0  0  0  0  0
    9.8550  -16.8577   22.0125 C   0  0  0  0  0  0  0  0  0  0  0  0
   11.0289  -16.4157   22.2172 O   0  0  0  0  0  0  0  0  0  0  0  0
    6.3216  -11.3730   26.0291 C   0  0  0  0  0  0  0  0  0  0  0  0
    6.2440  -12.6989   24.7908 S   0  0  0  0  0  0  0  0  0  0  0  0
    7.3574  -14.0232   25.3480 C   0  0  0  0  0  0  0  0  0  0  0  0
    7.3711  -15.1222   24.3250 C   0  0  0  0  0  0  0  0  0  0  0  0
    8.7667  -15.3307   23.7442 C   0  0  2  0  0  0  0  0  0  0  0  0
    8.7835  -16.2104   22.6419 N   0  0  0  0  0  0  0  0  0  0  0  0
    9.8125  -15.4787   24.7450 C   0  0  0  0  0  0  0  0  0  0  0  0
   10.7451  -14.6414   24.8268 O   0  0  0  0  0  0  0  0  0  0  0  0
    9.5772  -14.0319   29.7157 C   0  0  0  0  0  0  0  0  0  0  0  0
   10.5114  -15.0470   29.0340 C   0  0  2  0  0  0  0  0  0  0  0  0
   11.8569  -14.3954   28.9542 C   0  0  0  0  0  0  0  0  0  0  0  0
    9.8960  -15.3441   27.7073 C   0  0  0  0  0  0  0  0  0  0  0  0
   10.4830  -16.4898   26.9663 C   0  0  2  0  0  0  0  0  0  0  0  0
    9.8297  -16.5741   25.6759 N   0  0  0  0  0  0  0  0  0  0  0  0
   10.4836  -17.7651   27.6722 C   0  0  0  0  0  0  0  0  0  0  0  0
    9.7162  -18.8573   27.3628 O   0  0  0  0  0  0  0  0  0  0  0  0
   11.2647  -17.8813   28.6662 O   0  0  0  0  0  0  0  0  0  0  0  0
  2  1  1  0
  3  2  2  0
  4  2  1  0
  5  4  1  0
  6  5  1  0
  6  7  1  6
  8  6  1  0
  8  9  2  0
 11 12  1  0
 11 10  1  0
 12 13  1  0
 14 13  1  1
 14 15  1  0
 15  8  1  0
 16 14  1  0
 17 16  2  0
 19 18  1  1
 20 19  1  0
 21 19  1  0
 22 21  1  1
 22 23  1  0
 23 16  1  0
 24 22  1  0
 25 24  1  0
 26 24  2  0
M  END
$$$$
