QML.pdb
     RDKit          3D

 26 25  0  0  1  0  0  0  0  0999 V2000
   12.0926  -17.8519   18.3034 N   0  0  0  0  0  0  0  0  0  0  0  0
   10.8194  -18.4149   17.8977 C   0  0  0  0  0  0  0  0  0  0  0  0
   10.8419  -19.1620   16.9089 O   0  0  0  0  0  0  0  0  0  0  0  0
    9.6415  -18.0601   18.6664 C   0  0  0  0  0  0  0  0  0  0  0  0
    9.8808  -17.0897   19.7795 C   0  0  0  0  0  0  0  0  0  0  0  0
    9.2632  -17.5231   21.0493 C   0  0  2  0  0  0  0  0  0  0  0  0
    7.8713  -17.8174   20.9907 N   0  0  0  0  0  0  0  0  0  0  0  0
    9.6062  -16.5111   22.1148 C   0  0  0  0  0  0  0  0  0  0  0  0
   10.8196  -16.1596   22.2540 O   0  0  0  0  0  0  0  0  0  0  0  0
    6.1120  -11.0189   26.4599 C   0  0  0  0  0  0  0  0  0  0  0  0
    6.0479  -12.8047   26.1371 S   0  0  0  0  0  0  0  0  0  0  0  0
    7.6557  -13.2846   25.4381 C   0  0  0  0  0  0  0  0  0  0  0  0
    7.4579  -14.4163   24.4713 C   0  0  0  0  0  0  0  0  0  0  0  0
    8.7906  -14.9802   23.9872 C   0  0  2  0  0  0  0  0  0  0  0  0
    8.6484  -15.9383   22.9621 N   0  0  0  0  0  0  0  0  0  0  0  0
    9.7398  -15.2640   25.0529 C   0  0  0  0  0  0  0  0  0  0  0  0
   10.6354  -14.4358   25.3516 O   0  0  0  0  0  0  0  0  0  0  0  0
   11.6054  -14.2082   28.0593 C   0  0  0  0  0  0  0  0  0  0  0  0
   10.1734  -14.7681   28.1208 C   0  0  2  0  0  0  0  0  0  0  0  0
    9.5654  -14.2355   29.3809 C   0  0  0  0  0  0  0  0  0  0  0  0
   10.3122  -16.2537   28.0889 C   0  0  0  0  0  0  0  0  0  0  0  0
   10.7119  -16.8359   26.7822 C   0  0  2  0  0  0  0  0  0  0  0  0
    9.6998  -16.4883   25.8055 N   0  0  0  0  0  0  0  0  0  0  0  0
   11.0079  -18.2631   26.7905 C   0  0  0  0  0  0  0  0  0  0  0  0
   10.4256  -19.2111   25.9906 O   0  0  0  0  0  0  0  0  0  0  0  0
   11.8849  -18.6723   27.6122 O   0  0  0  0  0  0  0  0  0  0  0  0
  2  1  1  0
  3  2  2  0
  4  2  1  0
  5  4  1  0
  6  5  1  0
  6  7  1  6
  8  6  1  0
  8  9  2  0
 11 12  1  0
 11 10  1  0
 12 13  1  0
 14 13  1  1
 14 15  1  0
 15  8  1  0
 16 14  1  0
 17 16  2  0
 19 18  1  1
 20 19  1  0
 21 19  1  0
 22 21  1  1
 22 23  1  0
 23 16  1  0
 24 22  1  0
 25 24  1  0
 26 24  2  0
M  END
$$$$
