QML.pdb
     RDKit          3D

 26 25  0  0  1  0  0  0  0  0999 V2000
    8.6677  -17.1217   19.6563 N   0  0  0  0  0  0  0  0  0  0  0  0
    8.2185  -16.5224   18.4147 C   0  0  0  0  0  0  0  0  0  0  0  0
    8.6121  -17.0645   17.3719 O   0  0  0  0  0  0  0  0  0  0  0  0
    7.3630  -15.3535   18.4926 C   0  0  0  0  0  0  0  0  0  0  0  0
    6.8957  -15.0019   19.8695 C   0  0  0  0  0  0  0  0  0  0  0  0
    7.4821  -13.7378   20.3595 C   0  0  2  0  0  0  0  0  0  0  0  0
    8.3616  -13.0741   19.4576 N   0  0  0  0  0  0  0  0  0  0  0  0
    8.1072  -13.9950   21.7087 C   0  0  0  0  0  0  0  0  0  0  0  0
    9.2931  -14.4498   21.7546 O   0  0  0  0  0  0  0  0  0  0  0  0
    5.6667  -11.4700   27.7948 C   0  0  0  0  0  0  0  0  0  0  0  0
    7.1794  -11.2968   26.8053 S   0  0  0  0  0  0  0  0  0  0  0  0
    6.8439  -12.0262   25.1746 C   0  0  0  0  0  0  0  0  0  0  0  0
    6.8597  -13.5233   25.2886 C   0  0  0  0  0  0  0  0  0  0  0  0
    7.7601  -14.1570   24.2322 C   0  0  2  0  0  0  0  0  0  0  0  0
    7.4410  -13.7566   22.9181 N   0  0  0  0  0  0  0  0  0  0  0  0
    8.0467  -15.5652   24.4606 C   0  0  0  0  0  0  0  0  0  0  0  0
    7.4347  -16.4563   23.8213 O   0  0  0  0  0  0  0  0  0  0  0  0
   12.4115  -18.4573   24.6304 C   0  0  0  0  0  0  0  0  0  0  0  0
   11.2137  -18.4997   23.6652 C   0  0  2  0  0  0  0  0  0  0  0  0
   11.7864  -18.5344   22.2825 C   0  0  0  0  0  0  0  0  0  0  0  0
   10.4047  -17.2812   23.9619 C   0  0  0  0  0  0  0  0  0  0  0  0
    9.7363  -17.2583   25.2882 C   0  0  2  0  0  0  0  0  0  0  0  0
    9.0301  -15.9996   25.4151 N   0  0  0  0  0  0  0  0  0  0  0  0
   10.5958  -17.5301   26.4336 C   0  0  0  0  0  0  0  0  0  0  0  0
   10.9124  -18.7686   26.9271 O   0  0  0  0  0  0  0  0  0  0  0  0
   11.1009  -16.5320   27.0339 O   0  0  0  0  0  0  0  0  0  0  0  0
  2  1  1  0
  3  2  2  0
  4  2  1  0
  5  4  1  0
  6  5  1  0
  6  7  1  6
  8  6  1  0
  8  9  2  0
 11 12  1  0
 11 10  1  0
 12 13  1  0
 14 13  1  1
 14 15  1  0
 15  8  1  0
 16 14  1  0
 17 16  2  0
 19 18  1  1
 20 19  1  0
 21 19  1  0
 22 21  1  6
 22 23  1  0
 23 16  1  0
 24 22  1  0
 25 24  1  0
 26 24  2  0
M  END
$$$$
