AKG.pdb
     RDKit          3D

 19 18  0  0  1  0  0  0  0  0999 V2000
   17.6025  -17.8640  -13.6336 C   0  0  0  0  0  0  0  0  0  0  0  0
   18.6240  -18.1388  -14.7149 C   0  0  2  0  0  0  0  0  0  0  0  0
   19.6942  -18.8884  -14.1309 N   0  0  0  0  0  0  0  0  0  0  0  0
   19.1602  -16.8233  -15.1891 C   0  0  0  0  0  0  0  0  0  0  0  0
   19.9512  -16.1703  -14.4243 O   0  0  0  0  0  0  0  0  0  0  0  0
   18.7884  -16.3205  -16.4697 N   0  0  0  0  0  0  0  0  0  0  0  0
   19.2208  -15.0682  -16.9983 C   0  0  1  0  0  0  0  0  0  0  0  0
   19.1253  -14.9703  -18.4712 C   0  0  0  0  0  0  0  0  0  0  0  0
   19.8787  -13.8870  -19.1396 C   0  0  0  0  0  0  0  0  0  0  0  0
   21.2891  -14.3212  -19.4559 C   0  0  0  0  0  0  0  0  0  0  0  0
   22.0954  -13.2714  -20.1400 C   0  0  0  0  0  0  0  0  0  0  0  0
   23.4636  -13.6949  -20.3933 N   0  0  0  0  0  0  0  0  0  0  0  0
   18.7538  -13.8815  -16.2404 C   0  0  0  0  0  0  0  0  0  0  0  0
   17.6335  -13.9542  -15.6783 O   0  0  0  0  0  0  0  0  0  0  0  0
   19.4831  -12.6820  -16.1159 N   0  0  0  0  0  0  0  0  0  0  0  0
   18.9646  -11.5162  -15.4055 C   0  0  0  0  0  0  0  0  0  0  0  0
   19.8798  -10.3694  -15.4912 C   0  0  0  0  0  0  0  0  0  0  0  0
   19.6032   -9.1244  -14.9480 O   0  0  0  0  0  0  0  0  0  0  0  0
   20.9776  -10.5102  -16.0868 O   0  0  0  0  0  0  0  0  0  0  0  0
  2  3  1  0
  2  1  1  1
  4  5  2  0
  4  2  1  0
  6  4  1  0
  7  6  1  0
  7 13  1  0
  7  8  1  6
  9  8  1  0
 10  9  1  0
 11 10  1  0
 12 11  1  0
 13 15  1  0
 13 14  2  0
 15 16  1  0
 16 17  1  0
 17 18  1  0
 19 17  2  0
M  END
$$$$
