AKG.pdb
     RDKit          3D

 19 18  0  0  1  0  0  0  0  0999 V2000
   21.2105  -12.0064  -19.6866 C   0  0  0  0  0  0  0  0  0  0  0  0
   22.0613  -11.5431  -18.5248 C   0  0  2  0  0  0  0  0  0  0  0  0
   22.0925  -12.5940  -17.5537 N   0  0  0  0  0  0  0  0  0  0  0  0
   21.3999  -10.3450  -17.9166 C   0  0  0  0  0  0  0  0  0  0  0  0
   21.3158   -9.2719  -18.6083 O   0  0  0  0  0  0  0  0  0  0  0  0
   20.8785  -10.4128  -16.5920 N   0  0  0  0  0  0  0  0  0  0  0  0
   20.2802   -9.3144  -15.9062 C   0  0  1  0  0  0  0  0  0  0  0  0
   19.0757   -9.6744  -15.1266 C   0  0  0  0  0  0  0  0  0  0  0  0
   17.8713  -10.0950  -15.8753 C   0  0  0  0  0  0  0  0  0  0  0  0
   17.0196  -11.0308  -15.0528 C   0  0  0  0  0  0  0  0  0  0  0  0
   15.7876  -11.4870  -15.7559 C   0  0  0  0  0  0  0  0  0  0  0  0
   14.8818  -12.2139  -14.8804 N   0  0  0  0  0  0  0  0  0  0  0  0
   21.2410   -8.4092  -15.2294 C   0  0  0  0  0  0  0  0  0  0  0  0
   22.0293   -8.9169  -14.3944 O   0  0  0  0  0  0  0  0  0  0  0  0
   21.3213   -7.0213  -15.4604 N   0  0  0  0  0  0  0  0  0  0  0  0
   22.2418   -6.1541  -14.7300 C   0  0  0  0  0  0  0  0  0  0  0  0
   21.6524   -5.6582  -13.4784 C   0  0  0  0  0  0  0  0  0  0  0  0
   22.2724   -4.7347  -12.6510 O   0  0  0  0  0  0  0  0  0  0  0  0
   20.5244   -6.0861  -13.1256 O   0  0  0  0  0  0  0  0  0  0  0  0
  2  3  1  0
  2  1  1  6
  4  5  2  0
  4  2  1  0
  6  4  1  0
  7  6  1  0
  7 13  1  0
  7  8  1  1
  9  8  1  0
 10  9  1  0
 11 10  1  0
 12 11  1  0
 13 15  1  0
 13 14  2  0
 15 16  1  0
 16 17  1  0
 17 18  1  0
 19 17  2  0
M  END
$$$$
