AKG.pdb
     RDKit          3D

 19 18  0  0  1  0  0  0  0  0999 V2000
   22.4734  -15.4864  -17.8686 C   0  0  0  0  0  0  0  0  0  0  0  0
   23.5943  -16.4908  -18.0208 C   0  0  2  0  0  0  0  0  0  0  0  0
   23.7459  -16.7751  -19.4152 N   0  0  0  0  0  0  0  0  0  0  0  0
   23.1878  -17.7473  -17.3145 C   0  0  0  0  0  0  0  0  0  0  0  0
   22.3022  -18.4968  -17.8541 O   0  0  0  0  0  0  0  0  0  0  0  0
   23.7839  -18.0894  -16.0661 N   0  0  0  0  0  0  0  0  0  0  0  0
   23.4884  -19.2764  -15.3324 C   0  0  1  0  0  0  0  0  0  0  0  0
   24.6249  -19.7938  -14.5395 C   0  0  0  0  0  0  0  0  0  0  0  0
   24.4393  -21.0757  -13.8253 C   0  0  0  0  0  0  0  0  0  0  0  0
   24.7156  -22.2487  -14.7338 C   0  0  0  0  0  0  0  0  0  0  0  0
   24.4173  -23.5683  -14.1092 C   0  0  0  0  0  0  0  0  0  0  0  0
   24.6412  -24.6803  -15.0194 N   0  0  0  0  0  0  0  0  0  0  0  0
   22.1727  -19.2695  -14.6471 C   0  0  0  0  0  0  0  0  0  0  0  0
   22.0175  -18.4673  -13.6939 O   0  0  0  0  0  0  0  0  0  0  0  0
   21.0927  -20.1057  -14.9944 N   0  0  0  0  0  0  0  0  0  0  0  0
   19.8293  -20.1041  -14.2619 C   0  0  0  0  0  0  0  0  0  0  0  0
   19.6115  -21.3659  -13.5404 C   0  0  0  0  0  0  0  0  0  0  0  0
   19.1135  -21.4354  -12.2486 O   0  0  0  0  0  0  0  0  0  0  0  0
   19.8876  -22.4500  -14.1136 O   0  0  0  0  0  0  0  0  0  0  0  0
  2  3  1  0
  2  1  1  6
  4  5  2  0
  4  2  1  0
  6  4  1  0
  7  6  1  0
  7 13  1  0
  7  8  1  1
  9  8  1  0
 10  9  1  0
 11 10  1  0
 12 11  1  0
 13 15  1  0
 13 14  2  0
 15 16  1  0
 16 17  1  0
 17 18  1  0
 19 17  2  0
M  END
$$$$
