AKG.pdb
     RDKit          3D

 19 18  0  0  1  0  0  0  0  0999 V2000
   26.0389  -19.3417   -8.0094 C   0  0  0  0  0  0  0  0  0  0  0  0
   24.8124  -20.0963   -8.4725 C   0  0  2  0  0  0  0  0  0  0  0  0
   24.5629  -21.1501   -7.5368 N   0  0  0  0  0  0  0  0  0  0  0  0
   25.1188  -20.7008   -9.8080 C   0  0  0  0  0  0  0  0  0  0  0  0
   26.0085  -21.6176   -9.8783 O   0  0  0  0  0  0  0  0  0  0  0  0
   24.4251  -20.2541  -10.9700 N   0  0  0  0  0  0  0  0  0  0  0  0
   24.6445  -20.7650  -12.2837 C   0  0  1  0  0  0  0  0  0  0  0  0
   23.4051  -20.9792  -13.0621 C   0  0  0  0  0  0  0  0  0  0  0  0
   23.5109  -21.7289  -14.3328 C   0  0  0  0  0  0  0  0  0  0  0  0
   23.7484  -23.1975  -14.0789 C   0  0  0  0  0  0  0  0  0  0  0  0
   23.8871  -24.0019  -15.3255 C   0  0  0  0  0  0  0  0  0  0  0  0
   24.0948  -25.4162  -15.0572 N   0  0  0  0  0  0  0  0  0  0  0  0
   25.7658  -20.1278  -13.0167 C   0  0  0  0  0  0  0  0  0  0  0  0
   25.7479  -18.8780  -13.1347 O   0  0  0  0  0  0  0  0  0  0  0  0
   26.8423  -20.8340  -13.5899 N   0  0  0  0  0  0  0  0  0  0  0  0
   27.9966  -20.1637  -14.1823 C   0  0  0  0  0  0  0  0  0  0  0  0
   27.9624  -20.2066  -15.6509 C   0  0  0  0  0  0  0  0  0  0  0  0
   28.9932  -19.7483  -16.4565 O   0  0  0  0  0  0  0  0  0  0  0  0
   26.9489  -20.6825  -16.2222 O   0  0  0  0  0  0  0  0  0  0  0  0
  2  3  1  0
  2  1  1  1
  4  5  2  0
  4  2  1  0
  6  4  1  0
  7  6  1  0
  7 13  1  0
  7  8  1  6
  9  8  1  0
 10  9  1  0
 11 10  1  0
 12 11  1  0
 13 15  1  0
 13 14  2  0
 15 16  1  0
 16 17  1  0
 17 18  1  0
 19 17  2  0
M  END
$$$$
