AKG.pdb
     RDKit          3D

 19 18  0  0  1  0  0  0  0  0999 V2000
   21.8787  -11.0406  -20.6810 C   0  0  0  0  0  0  0  0  0  0  0  0
   22.2654  -11.1727  -19.2245 C   0  0  2  0  0  0  0  0  0  0  0  0
   21.8408  -12.4618  -18.7702 N   0  0  0  0  0  0  0  0  0  0  0  0
   21.5266  -10.1229  -18.4533 C   0  0  0  0  0  0  0  0  0  0  0  0
   21.1748   -9.0506  -19.0562 O   0  0  0  0  0  0  0  0  0  0  0  0
   21.2276  -10.3273  -17.0749 N   0  0  0  0  0  0  0  0  0  0  0  0
   20.5085   -9.4015  -16.2622 C   0  0  1  0  0  0  0  0  0  0  0  0
   19.2306   -9.9279  -15.7351 C   0  0  0  0  0  0  0  0  0  0  0  0
   18.2328  -10.4177  -16.7111 C   0  0  0  0  0  0  0  0  0  0  0  0
   16.9903  -10.9160  -16.0141 C   0  0  0  0  0  0  0  0  0  0  0  0
   15.9796  -11.4961  -16.9426 C   0  0  0  0  0  0  0  0  0  0  0  0
   14.8184  -12.0247  -16.2443 N   0  0  0  0  0  0  0  0  0  0  0  0
   21.3437   -8.6466  -15.2962 C   0  0  0  0  0  0  0  0  0  0  0  0
   22.2229   -9.2833  -14.6653 O   0  0  0  0  0  0  0  0  0  0  0  0
   21.2103   -7.2671  -15.0402 N   0  0  0  0  0  0  0  0  0  0  0  0
   22.0889   -6.5489  -14.1210 C   0  0  0  0  0  0  0  0  0  0  0  0
   21.8283   -5.1025  -14.1300 C   0  0  0  0  0  0  0  0  0  0  0  0
   22.4717   -4.2014  -13.2959 O   0  0  0  0  0  0  0  0  0  0  0  0
   20.9776   -4.6425  -14.9329 O   0  0  0  0  0  0  0  0  0  0  0  0
  2  3  1  0
  2  1  1  6
  4  5  2  0
  4  2  1  0
  6  4  1  0
  7  6  1  0
  7 13  1  0
  7  8  1  1
  9  8  1  0
 10  9  1  0
 11 10  1  0
 12 11  1  0
 13 15  1  0
 13 14  2  0
 15 16  1  0
 16 17  1  0
 17 18  1  0
 19 17  2  0
M  END
$$$$
