AKG.pdb
     RDKit          3D

 19 18  0  0  1  0  0  0  0  0999 V2000
   19.7508   -7.1983  -11.2276 C   0  0  0  0  0  0  0  0  0  0  0  0
   18.8492   -8.4124  -11.2653 C   0  0  2  0  0  0  0  0  0  0  0  0
   19.0177   -9.0481  -12.5364 N   0  0  0  0  0  0  0  0  0  0  0  0
   17.4329   -7.9400  -11.1471 C   0  0  0  0  0  0  0  0  0  0  0  0
   16.8027   -7.6142  -12.2119 O   0  0  0  0  0  0  0  0  0  0  0  0
   16.8115   -7.8597   -9.8671 N   0  0  0  0  0  0  0  0  0  0  0  0
   15.5053   -7.3337   -9.6390 C   0  0  1  0  0  0  0  0  0  0  0  0
   14.6061   -8.2503   -8.9046 C   0  0  0  0  0  0  0  0  0  0  0  0
   13.1887   -7.8535   -8.7579 C   0  0  0  0  0  0  0  0  0  0  0  0
   12.3830   -8.9484   -8.1024 C   0  0  0  0  0  0  0  0  0  0  0  0
   10.9271   -8.6438   -8.0135 C   0  0  0  0  0  0  0  0  0  0  0  0
   10.1523   -9.7646   -7.5048 N   0  0  0  0  0  0  0  0  0  0  0  0
   15.4758   -5.9152   -9.2058 C   0  0  0  0  0  0  0  0  0  0  0  0
   14.3519   -5.3780   -9.0494 O   0  0  0  0  0  0  0  0  0  0  0  0
   16.6245   -5.1352   -8.9642 N   0  0  0  0  0  0  0  0  0  0  0  0
   16.5529   -3.7424   -8.5310 C   0  0  0  0  0  0  0  0  0  0  0  0
   16.4323   -2.8194   -9.6683 C   0  0  0  0  0  0  0  0  0  0  0  0
   16.4608   -1.4391   -9.5430 O   0  0  0  0  0  0  0  0  0  0  0  0
   16.2952   -3.2931  -10.8245 O   0  0  0  0  0  0  0  0  0  0  0  0
  2  3  1  0
  2  1  1  6
  4  5  2  0
  4  2  1  0
  6  4  1  0
  7  6  1  0
  7 13  1  0
  7  8  1  1
  9  8  1  0
 10  9  1  0
 11 10  1  0
 12 11  1  0
 13 15  1  0
 13 14  2  0
 15 16  1  0
 16 17  1  0
 17 18  1  0
 19 17  2  0
M  END
$$$$
