AKG.pdb
     RDKit          3D

 19 18  0  0  1  0  0  0  0  0999 V2000
   21.6602  -14.1876  -17.5876 C   0  0  0  0  0  0  0  0  0  0  0  0
   20.7776  -13.5057  -16.5657 C   0  0  2  0  0  0  0  0  0  0  0  0
   19.4399  -13.9796  -16.7512 N   0  0  0  0  0  0  0  0  0  0  0  0
   20.8088  -12.0332  -16.8373 C   0  0  0  0  0  0  0  0  0  0  0  0
   21.1484  -11.6303  -18.0033 O   0  0  0  0  0  0  0  0  0  0  0  0
   20.4644  -11.1098  -15.8079 N   0  0  0  0  0  0  0  0  0  0  0  0
   20.3353   -9.7023  -16.0004 C   0  0  1  0  0  0  0  0  0  0  0  0
   18.9578   -9.2598  -16.3080 C   0  0  0  0  0  0  0  0  0  0  0  0
   18.7241   -7.8102  -16.4872 C   0  0  0  0  0  0  0  0  0  0  0  0
   17.2657   -7.5233  -16.7491 C   0  0  0  0  0  0  0  0  0  0  0  0
   16.9669   -6.0743  -16.9263 C   0  0  0  0  0  0  0  0  0  0  0  0
   15.5832   -5.8315  -17.3024 N   0  0  0  0  0  0  0  0  0  0  0  0
   21.0765   -8.8725  -15.0193 C   0  0  0  0  0  0  0  0  0  0  0  0
   20.9068   -9.1218  -13.8006 O   0  0  0  0  0  0  0  0  0  0  0  0
   21.9516   -7.8240  -15.3674 N   0  0  0  0  0  0  0  0  0  0  0  0
   22.6924   -7.0542  -14.3718 C   0  0  0  0  0  0  0  0  0  0  0  0
   21.9056   -5.9262  -13.8534 C   0  0  0  0  0  0  0  0  0  0  0  0
   22.3698   -5.0457  -12.8886 O   0  0  0  0  0  0  0  0  0  0  0  0
   20.7461   -5.7369  -14.3002 O   0  0  0  0  0  0  0  0  0  0  0  0
  2  3  1  0
  2  1  1  6
  4  5  2  0
  4  2  1  0
  6  4  1  0
  7  6  1  0
  7 13  1  0
  7  8  1  1
  9  8  1  0
 10  9  1  0
 11 10  1  0
 12 11  1  0
 13 15  1  0
 13 14  2  0
 15 16  1  0
 16 17  1  0
 17 18  1  0
 19 17  2  0
M  END
$$$$
