AKG.pdb
     RDKit          3D

 19 18  0  0  1  0  0  0  0  0999 V2000
   22.9688  -13.2944  -20.0699 C   0  0  0  0  0  0  0  0  0  0  0  0
   23.8954  -14.4889  -20.0151 C   0  0  2  0  0  0  0  0  0  0  0  0
   23.4126  -15.4652  -20.9435 N   0  0  0  0  0  0  0  0  0  0  0  0
   23.8276  -15.0632  -18.6336 C   0  0  0  0  0  0  0  0  0  0  0  0
   24.2070  -14.3407  -17.6482 O   0  0  0  0  0  0  0  0  0  0  0  0
   23.3475  -16.3903  -18.4349 N   0  0  0  0  0  0  0  0  0  0  0  0
   23.2624  -17.0327  -17.1641 C   0  0  1  0  0  0  0  0  0  0  0  0
   21.9427  -17.6384  -16.8821 C   0  0  0  0  0  0  0  0  0  0  0  0
   21.7599  -18.3150  -15.5794 C   0  0  0  0  0  0  0  0  0  0  0  0
   20.3049  -18.3390  -15.1792 C   0  0  0  0  0  0  0  0  0  0  0  0
   20.0565  -19.0255  -13.8802 C   0  0  0  0  0  0  0  0  0  0  0  0
   18.6596  -18.9726  -13.4789 N   0  0  0  0  0  0  0  0  0  0  0  0
   24.4419  -17.8587  -16.8075 C   0  0  0  0  0  0  0  0  0  0  0  0
   24.5741  -18.9647  -17.3868 O   0  0  0  0  0  0  0  0  0  0  0  0
   25.4162  -17.4839  -15.8608 N   0  0  0  0  0  0  0  0  0  0  0  0
   26.5566  -18.3329  -15.5271 C   0  0  0  0  0  0  0  0  0  0  0  0
   27.6450  -18.1999  -16.5058 C   0  0  0  0  0  0  0  0  0  0  0  0
   28.8632  -18.8516  -16.3924 O   0  0  0  0  0  0  0  0  0  0  0  0
   27.4764  -17.4577  -17.5061 O   0  0  0  0  0  0  0  0  0  0  0  0
  2  3  1  0
  2  1  1  1
  4  5  2  0
  4  2  1  0
  6  4  1  0
  7  6  1  0
  7 13  1  0
  7  8  1  6
  9  8  1  0
 10  9  1  0
 11 10  1  0
 12 11  1  0
 13 15  1  0
 13 14  2  0
 15 16  1  0
 16 17  1  0
 17 18  1  0
 19 17  2  0
M  END
$$$$
