AKG.pdb
     RDKit          3D

 19 18  0  0  1  0  0  0  0  0999 V2000
   25.4888  -15.1238  -14.6592 C   0  0  0  0  0  0  0  0  0  0  0  0
   25.5839  -15.9311  -15.9349 C   0  0  2  0  0  0  0  0  0  0  0  0
   24.9197  -15.2000  -16.9705 N   0  0  0  0  0  0  0  0  0  0  0  0
   24.8603  -17.2243  -15.7184 C   0  0  0  0  0  0  0  0  0  0  0  0
   23.5938  -17.2576  -15.8976 O   0  0  0  0  0  0  0  0  0  0  0  0
   25.5808  -18.3877  -15.3204 N   0  0  0  0  0  0  0  0  0  0  0  0
   24.9785  -19.6501  -15.0408 C   0  0  1  0  0  0  0  0  0  0  0  0
   25.9059  -20.7975  -15.1481 C   0  0  0  0  0  0  0  0  0  0  0  0
   25.3563  -22.1511  -14.9162 C   0  0  0  0  0  0  0  0  0  0  0  0
   25.9274  -23.1449  -15.8981 C   0  0  0  0  0  0  0  0  0  0  0  0
   25.2218  -24.4573  -15.8945 C   0  0  0  0  0  0  0  0  0  0  0  0
   25.7248  -25.3644  -16.9140 N   0  0  0  0  0  0  0  0  0  0  0  0
   24.0742  -19.6581  -13.8649 C   0  0  0  0  0  0  0  0  0  0  0  0
   24.5118  -19.1764  -12.7913 O   0  0  0  0  0  0  0  0  0  0  0  0
   22.7627  -20.1738  -13.8758 N   0  0  0  0  0  0  0  0  0  0  0  0
   21.9364  -20.2480  -12.6740 C   0  0  0  0  0  0  0  0  0  0  0  0
   20.6021  -20.7949  -12.9581 C   0  0  0  0  0  0  0  0  0  0  0  0
   19.6199  -20.9620  -11.9943 O   0  0  0  0  0  0  0  0  0  0  0  0
   20.3217  -21.1342  -14.1354 O   0  0  0  0  0  0  0  0  0  0  0  0
  2  3  1  0
  2  1  1  1
  4  5  2  0
  4  2  1  0
  6  4  1  0
  7  6  1  0
  7 13  1  0
  7  8  1  1
  9  8  1  0
 10  9  1  0
 11 10  1  0
 12 11  1  0
 13 15  1  0
 13 14  2  0
 15 16  1  0
 16 17  1  0
 17 18  1  0
 19 17  2  0
M  END
$$$$
