AKG.pdb
     RDKit          3D

 19 18  0  0  1  0  0  0  0  0999 V2000
   20.8761  -11.3589  -16.2773 C   0  0  0  0  0  0  0  0  0  0  0  0
   19.4556  -10.8575  -16.4153 C   0  0  2  0  0  0  0  0  0  0  0  0
   19.1112  -10.8836  -17.8042 N   0  0  0  0  0  0  0  0  0  0  0  0
   19.4178   -9.4390  -15.9365 C   0  0  0  0  0  0  0  0  0  0  0  0
   19.9657   -8.5329  -16.6547 O   0  0  0  0  0  0  0  0  0  0  0  0
   18.7805   -9.1186  -14.7027 N   0  0  0  0  0  0  0  0  0  0  0  0
   18.6092   -7.7922  -14.2067 C   0  0  1  0  0  0  0  0  0  0  0  0
   17.2655   -7.5261  -13.6484 C   0  0  0  0  0  0  0  0  0  0  0  0
   16.0941   -7.8289  -14.4993 C   0  0  0  0  0  0  0  0  0  0  0  0
   14.8062   -7.4751  -13.7965 C   0  0  0  0  0  0  0  0  0  0  0  0
   13.5978   -7.6329  -14.6539 C   0  0  0  0  0  0  0  0  0  0  0  0
   12.3683   -7.2974  -13.9532 N   0  0  0  0  0  0  0  0  0  0  0  0
   19.7519   -7.2747  -13.4148 C   0  0  0  0  0  0  0  0  0  0  0  0
   20.0503   -7.8833  -12.3580 O   0  0  0  0  0  0  0  0  0  0  0  0
   20.5172   -6.1459  -13.7701 N   0  0  0  0  0  0  0  0  0  0  0  0
   21.6318   -5.6639  -12.9589 C   0  0  0  0  0  0  0  0  0  0  0  0
   22.3308   -4.5405  -13.5986 C   0  0  0  0  0  0  0  0  0  0  0  0
   23.3440   -3.8185  -12.9872 O   0  0  0  0  0  0  0  0  0  0  0  0
   22.0026   -4.2042  -14.7644 O   0  0  0  0  0  0  0  0  0  0  0  0
  2  3  1  0
  2  1  1  6
  4  5  2  0
  4  2  1  0
  6  4  1  0
  7  6  1  0
  7 13  1  0
  7  8  1  1
  9  8  1  0
 10  9  1  0
 11 10  1  0
 12 11  1  0
 13 15  1  0
 13 14  2  0
 15 16  1  0
 16 17  1  0
 17 18  1  0
 19 17  2  0
M  END
$$$$
