AKG.pdb
     RDKit          3D

 19 18  0  0  1  0  0  0  0  0999 V2000
   27.1984  -10.5081  -15.5140 C   0  0  0  0  0  0  0  0  0  0  0  0
   25.9730  -11.2875  -15.9375 C   0  0  2  0  0  0  0  0  0  0  0  0
   26.2856  -11.9754  -17.1529 N   0  0  0  0  0  0  0  0  0  0  0  0
   24.8730  -10.3079  -16.2079 C   0  0  0  0  0  0  0  0  0  0  0  0
   25.0214   -9.4636  -17.1578 O   0  0  0  0  0  0  0  0  0  0  0  0
   23.6891  -10.3268  -15.4147 N   0  0  0  0  0  0  0  0  0  0  0  0
   22.5724   -9.4625  -15.6161 C   0  0  1  0  0  0  0  0  0  0  0  0
   21.2885  -10.1713  -15.8089 C   0  0  0  0  0  0  0  0  0  0  0  0
   21.0955  -10.9148  -17.0730 C   0  0  0  0  0  0  0  0  0  0  0  0
   19.7458  -11.5894  -17.1059 C   0  0  0  0  0  0  0  0  0  0  0  0
   19.5541  -12.4792  -18.2856 C   0  0  0  0  0  0  0  0  0  0  0  0
   18.2592  -13.1415  -18.2809 N   0  0  0  0  0  0  0  0  0  0  0  0
   22.5309   -8.2841  -14.7158 C   0  0  0  0  0  0  0  0  0  0  0  0
   22.7496   -8.4771  -13.4946 O   0  0  0  0  0  0  0  0  0  0  0  0
   22.2586   -6.9688  -15.1423 N   0  0  0  0  0  0  0  0  0  0  0  0
   22.0951   -5.8572  -14.2095 C   0  0  0  0  0  0  0  0  0  0  0  0
   21.9160   -4.5764  -14.9077 C   0  0  0  0  0  0  0  0  0  0  0  0
   21.6805   -3.3745  -14.2584 O   0  0  0  0  0  0  0  0  0  0  0  0
   21.9772   -4.5540  -16.1630 O   0  0  0  0  0  0  0  0  0  0  0  0
  2  3  1  0
  2  1  1  6
  4  5  2  0
  4  2  1  0
  6  4  1  0
  7  6  1  0
  7 13  1  0
  7  8  1  1
  9  8  1  0
 10  9  1  0
 11 10  1  0
 12 11  1  0
 13 15  1  0
 13 14  2  0
 15 16  1  0
 16 17  1  0
 17 18  1  0
 19 17  2  0
M  END
$$$$
