AKG.pdb
     RDKit          3D

 19 18  0  0  1  0  0  0  0  0999 V2000
   20.2475  -21.9084  -12.3617 C   0  0  0  0  0  0  0  0  0  0  0  0
   19.8493  -21.0597  -13.5489 C   0  0  2  0  0  0  0  0  0  0  0  0
   19.3196  -21.9288  -14.5551 N   0  0  0  0  0  0  0  0  0  0  0  0
   21.0848  -20.4024  -14.0822 C   0  0  0  0  0  0  0  0  0  0  0  0
   21.7580  -19.6385  -13.3074 O   0  0  0  0  0  0  0  0  0  0  0  0
   21.4912  -20.6320  -15.4287 N   0  0  0  0  0  0  0  0  0  0  0  0
   22.5884  -19.9750  -16.0607 C   0  0  1  0  0  0  0  0  0  0  0  0
   23.6261  -20.8947  -16.5759 C   0  0  0  0  0  0  0  0  0  0  0  0
   24.0189  -22.0371  -15.7224 C   0  0  0  0  0  0  0  0  0  0  0  0
   25.0310  -22.9132  -16.4194 C   0  0  0  0  0  0  0  0  0  0  0  0
   25.4939  -24.0622  -15.5912 C   0  0  0  0  0  0  0  0  0  0  0  0
   26.4497  -24.9059  -16.2912 N   0  0  0  0  0  0  0  0  0  0  0  0
   22.2069  -18.8610  -16.9628 C   0  0  0  0  0  0  0  0  0  0  0  0
   21.7602  -19.1585  -18.0978 O   0  0  0  0  0  0  0  0  0  0  0  0
   22.3178  -17.4962  -16.6293 N   0  0  0  0  0  0  0  0  0  0  0  0
   22.0530  -16.4277  -17.5890 C   0  0  0  0  0  0  0  0  0  0  0  0
   22.3483  -15.1013  -17.0289 C   0  0  0  0  0  0  0  0  0  0  0  0
   22.3455  -13.9343  -17.7771 O   0  0  0  0  0  0  0  0  0  0  0  0
   22.6200  -15.0042  -15.8056 O   0  0  0  0  0  0  0  0  0  0  0  0
  2  3  1  0
  2  1  1  1
  4  5  2  0
  4  2  1  0
  6  4  1  0
  7  6  1  0
  7 13  1  0
  7  8  1  6
  9  8  1  0
 10  9  1  0
 11 10  1  0
 12 11  1  0
 13 15  1  0
 13 14  2  0
 15 16  1  0
 16 17  1  0
 17 18  1  0
 19 17  2  0
M  END
$$$$
