AKG.pdb
     RDKit          3D

 19 18  0  0  1  0  0  0  0  0999 V2000
   20.5841  -12.3869  -17.9197 C   0  0  0  0  0  0  0  0  0  0  0  0
   21.2676  -11.4141  -16.9844 C   0  0  2  0  0  0  0  0  0  0  0  0
   21.3576  -12.0299  -15.6956 N   0  0  0  0  0  0  0  0  0  0  0  0
   20.4055  -10.1942  -16.8760 C   0  0  0  0  0  0  0  0  0  0  0  0
   20.2213   -9.4770  -17.9195 O   0  0  0  0  0  0  0  0  0  0  0  0
   19.8081   -9.8506  -15.6286 N   0  0  0  0  0  0  0  0  0  0  0  0
   18.9699   -8.7147  -15.4242 C   0  0  1  0  0  0  0  0  0  0  0  0
   17.5621   -9.0514  -15.1194 C   0  0  0  0  0  0  0  0  0  0  0  0
   16.6112   -7.9335  -14.9349 C   0  0  0  0  0  0  0  0  0  0  0  0
   15.2138   -8.4449  -14.6831 C   0  0  0  0  0  0  0  0  0  0  0  0
   14.2129   -7.3614  -14.4715 C   0  0  0  0  0  0  0  0  0  0  0  0
   13.4707   -7.0430  -15.6811 N   0  0  0  0  0  0  0  0  0  0  0  0
   19.5717   -7.6420  -14.5949 C   0  0  0  0  0  0  0  0  0  0  0  0
   19.7882   -7.8949  -13.3844 O   0  0  0  0  0  0  0  0  0  0  0  0
   19.9101   -6.3617  -15.0771 N   0  0  0  0  0  0  0  0  0  0  0  0
   20.4712   -5.3211  -14.2197 C   0  0  0  0  0  0  0  0  0  0  0  0
   21.9324   -5.4319  -14.1066 C   0  0  0  0  0  0  0  0  0  0  0  0
   22.7305   -4.4724  -13.5034 O   0  0  0  0  0  0  0  0  0  0  0  0
   22.5039   -6.4471  -14.5784 O   0  0  0  0  0  0  0  0  0  0  0  0
  2  3  1  0
  2  1  1  6
  4  5  2  0
  4  2  1  0
  6  4  1  0
  7  6  1  0
  7 13  1  0
  7  8  1  1
  9  8  1  0
 10  9  1  0
 11 10  1  0
 12 11  1  0
 13 15  1  0
 13 14  2  0
 15 16  1  0
 16 17  1  0
 17 18  1  0
 19 17  2  0
M  END
$$$$
