AKG.pdb
     RDKit          3D

 19 18  0  0  1  0  0  0  0  0999 V2000
   24.5597  -19.0545  -19.1027 C   0  0  0  0  0  0  0  0  0  0  0  0
   24.3933  -19.9074  -17.8645 C   0  0  2  0  0  0  0  0  0  0  0  0
   24.7768  -21.2459  -18.1956 N   0  0  0  0  0  0  0  0  0  0  0  0
   22.9432  -19.9005  -17.4903 C   0  0  0  0  0  0  0  0  0  0  0  0
   22.0708  -19.7450  -18.4133 O   0  0  0  0  0  0  0  0  0  0  0  0
   22.5564  -20.0652  -16.1285 N   0  0  0  0  0  0  0  0  0  0  0  0
   21.2069  -20.2006  -15.6866 C   0  0  1  0  0  0  0  0  0  0  0  0
   20.9672  -21.3870  -14.8363 C   0  0  0  0  0  0  0  0  0  0  0  0
   19.5689  -21.6997  -14.4689 C   0  0  0  0  0  0  0  0  0  0  0  0
   19.5023  -22.9004  -13.5569 C   0  0  0  0  0  0  0  0  0  0  0  0
   18.1165  -23.3988  -13.3298 C   0  0  0  0  0  0  0  0  0  0  0  0
   18.0656  -24.4881  -12.3674 N   0  0  0  0  0  0  0  0  0  0  0  0
   20.5758  -18.9389  -15.2280 C   0  0  0  0  0  0  0  0  0  0  0  0
   21.1333  -18.3168  -14.2907 O   0  0  0  0  0  0  0  0  0  0  0  0
   19.3931  -18.3995  -15.7726 N   0  0  0  0  0  0  0  0  0  0  0  0
   18.7275  -17.2302  -15.2048 C   0  0  0  0  0  0  0  0  0  0  0  0
   17.5666  -16.8166  -16.0057 C   0  0  0  0  0  0  0  0  0  0  0  0
   16.6716  -15.8348  -15.6100 O   0  0  0  0  0  0  0  0  0  0  0  0
   17.3612  -17.3751  -17.1129 O   0  0  0  0  0  0  0  0  0  0  0  0
  2  3  1  0
  2  1  1  6
  4  5  2  0
  4  2  1  0
  6  4  1  0
  7  6  1  0
  7 13  1  0
  7  8  1  1
  9  8  1  0
 10  9  1  0
 11 10  1  0
 12 11  1  0
 13 15  1  0
 13 14  2  0
 15 16  1  0
 16 17  1  0
 17 18  1  0
 19 17  2  0
M  END
$$$$
