AKG.pdb
     RDKit          3D

 19 18  0  0  1  0  0  0  0  0999 V2000
   23.5874  -15.4696  -16.4506 C   0  0  0  0  0  0  0  0  0  0  0  0
   24.6401  -16.5252  -16.7070 C   0  0  2  0  0  0  0  0  0  0  0  0
   24.8347  -16.6201  -18.1217 N   0  0  0  0  0  0  0  0  0  0  0  0
   24.1138  -17.8342  -16.2044 C   0  0  0  0  0  0  0  0  0  0  0  0
   22.9768  -18.2422  -16.6260 O   0  0  0  0  0  0  0  0  0  0  0  0
   24.8753  -18.6003  -15.2747 N   0  0  0  0  0  0  0  0  0  0  0  0
   24.5185  -19.9065  -14.8263 C   0  0  1  0  0  0  0  0  0  0  0  0
   25.6467  -20.8628  -14.7965 C   0  0  0  0  0  0  0  0  0  0  0  0
   26.2449  -21.2623  -16.0890 C   0  0  0  0  0  0  0  0  0  0  0  0
   27.3888  -22.2251  -15.8836 C   0  0  0  0  0  0  0  0  0  0  0  0
   28.0213  -22.6774  -17.1548 C   0  0  0  0  0  0  0  0  0  0  0  0
   29.1778  -23.5303  -16.9304 N   0  0  0  0  0  0  0  0  0  0  0  0
   23.6186  -19.9323  -13.6473 C   0  0  0  0  0  0  0  0  0  0  0  0
   24.0191  -19.3723  -12.5974 O   0  0  0  0  0  0  0  0  0  0  0  0
   22.3502  -20.5464  -13.6304 N   0  0  0  0  0  0  0  0  0  0  0  0
   21.4559  -20.4730  -12.4782 C   0  0  0  0  0  0  0  0  0  0  0  0
   20.1944  -21.1888  -12.7161 C   0  0  0  0  0  0  0  0  0  0  0  0
   19.1716  -21.2721  -11.7841 O   0  0  0  0  0  0  0  0  0  0  0  0
   20.0190  -21.7618  -13.8209 O   0  0  0  0  0  0  0  0  0  0  0  0
  2  3  1  0
  2  1  1  6
  4  5  2  0
  4  2  1  0
  6  4  1  0
  7  6  1  0
  7 13  1  0
  7  8  1  1
  9  8  1  0
 10  9  1  0
 11 10  1  0
 12 11  1  0
 13 15  1  0
 13 14  2  0
 15 16  1  0
 16 17  1  0
 17 18  1  0
 19 17  2  0
M  END
$$$$
