TMK.pdb
     RDKit          3D

 25 24  0  0  1  0  0  0  0  0999 V2000
   20.1383  -23.2093  -13.8468 C   0  0  0  0  0  0  0  0  0  0  0  0
   20.3847  -21.8482  -14.4767 C   0  0  1  0  0  0  0  0  0  0  0  0
   19.3576  -21.4035  -15.2580 O   0  0  0  0  0  0  0  0  0  0  0  0
   20.7393  -20.8142  -13.4609 C   0  0  2  0  0  0  0  0  0  0  0  0
   19.6458  -20.6928  -12.5347 N   0  0  0  0  0  0  0  0  0  0  0  0
   21.0288  -19.4587  -14.0325 C   0  0  0  0  0  0  0  0  0  0  0  0
   20.1942  -18.5343  -13.9261 O   0  0  0  0  0  0  0  0  0  0  0  0
   26.8703  -16.4867  -14.2202 C   0  0  0  0  0  0  0  0  0  0  0  0
   26.5004  -16.8693  -15.9470 S   0  0  0  0  0  0  0  0  0  0  0  0
   24.6712  -16.7173  -16.1465 C   0  0  0  0  0  0  0  0  0  0  0  0
   24.0710  -17.9001  -15.4700 C   0  0  0  0  0  0  0  0  0  0  0  0
   22.5845  -17.9880  -15.4337 C   0  0  2  0  0  0  0  0  0  0  0  0
   22.2415  -19.1906  -14.6975 N   0  0  0  0  0  0  0  0  0  0  0  0
   21.9564  -17.9311  -16.7422 C   0  0  0  0  0  0  0  0  0  0  0  0
   21.4750  -18.9376  -17.2843 O   0  0  0  0  0  0  0  0  0  0  0  0
   21.8326  -16.7416  -17.5420 N   0  0  0  0  0  0  0  0  0  0  0  0
   20.7293  -16.6114  -18.4622 C   0  0  1  0  0  0  0  0  0  0  0  0
   19.3892  -16.8063  -17.8400 C   0  0  0  0  0  0  0  0  0  0  0  0
   18.2510  -16.7202  -18.8239 C   0  0  0  0  0  0  0  0  0  0  0  0
   16.9370  -16.9855  -18.1537 C   0  0  0  0  0  0  0  0  0  0  0  0
   15.7919  -17.0452  -19.1376 C   0  0  0  0  0  0  0  0  0  0  0  0
   14.5360  -17.1770  -18.4518 N   0  0  0  0  0  0  0  0  0  0  0  0
   20.8087  -15.3159  -19.2099 C   0  0  0  0  0  0  0  0  0  0  0  0
   20.7539  -14.1893  -18.7054 O   0  0  0  0  0  0  0  0  0  0  0  0
   20.9571  -15.3897  -20.5833 O   0  0  0  0  0  0  0  0  0  0  0  0
  2  1  1  1
  3  2  1  0
  4  2  1  0
  4  6  1  0
  4  5  1  1
  6  7  2  0
  8  9  1  0
  9 10  1  0
 11 10  1  0
 12 11  1  6
 13  6  1  0
 13 12  1  0
 14 12  1  0
 14 15  2  0
 16 14  1  0
 17 16  1  0
 17 23  1  0
 17 18  1  1
 19 20  1  0
 19 18  1  0
 20 21  1  0
 21 22  1  0
 23 25  1  0
 24 23  2  0
M  END
$$$$
