TMK.pdb
     RDKit          3D

 25 24  0  0  1  0  0  0  0  0999 V2000
   20.0135  -11.3969  -19.7816 C   0  0  0  0  0  0  0  0  0  0  0  0
   19.6543  -12.6603  -19.0167 C   0  0  1  0  0  0  0  0  0  0  0  0
   19.1452  -13.6570  -19.7980 O   0  0  0  0  0  0  0  0  0  0  0  0
   20.8006  -13.1758  -18.2124 C   0  0  2  0  0  0  0  0  0  0  0  0
   20.3975  -14.4036  -17.5811 N   0  0  0  0  0  0  0  0  0  0  0  0
   21.2853  -12.2341  -17.1511 C   0  0  0  0  0  0  0  0  0  0  0  0
   20.5273  -11.8821  -16.2216 O   0  0  0  0  0  0  0  0  0  0  0  0
   27.5125  -11.8361  -15.3477 C   0  0  0  0  0  0  0  0  0  0  0  0
   27.2033  -10.1649  -15.9612 S   0  0  0  0  0  0  0  0  0  0  0  0
   25.4265   -9.7935  -15.6235 C   0  0  0  0  0  0  0  0  0  0  0  0
   24.6306  -10.7593  -16.4300 C   0  0  0  0  0  0  0  0  0  0  0  0
   23.1472  -10.6940  -16.3101 C   0  0  2  0  0  0  0  0  0  0  0  0
   22.5992  -11.7263  -17.1702 N   0  0  0  0  0  0  0  0  0  0  0  0
   22.5892   -9.3807  -16.5816 C   0  0  0  0  0  0  0  0  0  0  0  0
   22.5607   -8.9026  -17.7258 O   0  0  0  0  0  0  0  0  0  0  0  0
   22.0318   -8.5041  -15.5862 N   0  0  0  0  0  0  0  0  0  0  0  0
   21.4883   -7.2279  -15.9821 C   0  0  1  0  0  0  0  0  0  0  0  0
   20.0302   -7.2541  -16.2890 C   0  0  0  0  0  0  0  0  0  0  0  0
   19.4527   -5.8933  -16.5821 C   0  0  0  0  0  0  0  0  0  0  0  0
   18.0170   -5.9948  -17.0001 C   0  0  0  0  0  0  0  0  0  0  0  0
   17.3999   -4.6423  -17.2694 C   0  0  0  0  0  0  0  0  0  0  0  0
   16.0133   -4.7749  -17.6224 N   0  0  0  0  0  0  0  0  0  0  0  0
   21.8225   -6.1704  -14.9752 C   0  0  0  0  0  0  0  0  0  0  0  0
   21.5738   -4.9654  -15.0876 O   0  0  0  0  0  0  0  0  0  0  0  0
   22.4640   -6.5810  -13.8204 O   0  0  0  0  0  0  0  0  0  0  0  0
  2  1  1  6
  3  2  1  0
  4  2  1  0
  4  6  1  0
  4  5  1  1
  6  7  2  0
  8  9  1  0
  9 10  1  0
 11 10  1  0
 12 11  1  6
 13  6  1  0
 13 12  1  0
 14 12  1  0
 14 15  2  0
 16 14  1  0
 17 16  1  0
 17 23  1  0
 17 18  1  1
 19 20  1  0
 19 18  1  0
 20 21  1  0
 21 22  1  0
 23 25  1  0
 24 23  2  0
M  END
$$$$
