TMK.pdb
     RDKit          3D

 25 24  0  0  1  0  0  0  0  0999 V2000
   16.1691   -9.7567  -15.9578 C   0  0  0  0  0  0  0  0  0  0  0  0
   16.8186  -11.1298  -16.0104 C   0  0  1  0  0  0  0  0  0  0  0  0
   16.6620  -11.7731  -17.2040 O   0  0  0  0  0  0  0  0  0  0  0  0
   18.2635  -11.0831  -15.6403 C   0  0  2  0  0  0  0  0  0  0  0  0
   18.7911  -12.4198  -15.6977 N   0  0  0  0  0  0  0  0  0  0  0  0
   18.5351  -10.5246  -14.2756 C   0  0  0  0  0  0  0  0  0  0  0  0
   18.1631  -11.1399  -13.2532 O   0  0  0  0  0  0  0  0  0  0  0  0
   24.3063   -9.7973  -14.1780 C   0  0  0  0  0  0  0  0  0  0  0  0
   22.7150   -8.9988  -14.4863 S   0  0  0  0  0  0  0  0  0  0  0  0
   22.0878   -8.4117  -12.8521 C   0  0  0  0  0  0  0  0  0  0  0  0
   20.7511   -7.8059  -13.1036 C   0  0  0  0  0  0  0  0  0  0  0  0
   19.5546   -8.6574  -12.8541 C   0  0  2  0  0  0  0  0  0  0  0  0
   19.2146   -9.3018  -14.1091 N   0  0  0  0  0  0  0  0  0  0  0  0
   18.4338   -7.9449  -12.2660 C   0  0  0  0  0  0  0  0  0  0  0  0
   17.7269   -7.1702  -12.9286 O   0  0  0  0  0  0  0  0  0  0  0  0
   18.0314   -8.0422  -10.8881 N   0  0  0  0  0  0  0  0  0  0  0  0
   16.8262   -7.3831  -10.4477 C   0  0  1  0  0  0  0  0  0  0  0  0
   15.7815   -8.3077   -9.9234 C   0  0  0  0  0  0  0  0  0  0  0  0
   14.5236   -7.6053   -9.4814 C   0  0  0  0  0  0  0  0  0  0  0  0
   13.5234   -8.5804   -8.9382 C   0  0  0  0  0  0  0  0  0  0  0  0
   12.2159   -7.9180   -8.5715 C   0  0  0  0  0  0  0  0  0  0  0  0
   11.2454   -8.8957   -8.1629 N   0  0  0  0  0  0  0  0  0  0  0  0
   17.1413   -6.2933   -9.4696 C   0  0  0  0  0  0  0  0  0  0  0  0
   18.2485   -6.0767   -8.9656 O   0  0  0  0  0  0  0  0  0  0  0  0
   16.1020   -5.4581   -9.1012 O   0  0  0  0  0  0  0  0  0  0  0  0
  2  1  1  6
  3  2  1  0
  4  2  1  0
  4  6  1  0
  4  5  1  1
  6  7  2  0
  8  9  1  0
  9 10  1  0
 11 10  1  0
 12 11  1  6
 13  6  1  0
 13 12  1  0
 14 12  1  0
 14 15  2  0
 16 14  1  0
 17 16  1  0
 17 23  1  0
 17 18  1  1
 19 20  1  0
 19 18  1  0
 20 21  1  0
 21 22  1  0
 23 25  1  0
 24 23  2  0
M  END
$$$$
