TMK.pdb
     RDKit          3D

 25 24  0  0  1  0  0  0  0  0999 V2000
   29.9178  -12.7601  -19.1845 C   0  0  0  0  0  0  0  0  0  0  0  0
   31.3137  -13.0576  -18.6618 C   0  0  1  0  0  0  0  0  0  0  0  0
   31.8923  -14.1609  -19.2196 O   0  0  0  0  0  0  0  0  0  0  0  0
   32.2244  -11.8825  -18.7896 C   0  0  2  0  0  0  0  0  0  0  0  0
   33.5547  -12.2973  -18.4337 N   0  0  0  0  0  0  0  0  0  0  0  0
   31.8479  -10.7114  -17.9324 C   0  0  0  0  0  0  0  0  0  0  0  0
   31.9106  -10.7915  -16.6866 O   0  0  0  0  0  0  0  0  0  0  0  0
   33.2059   -5.1775  -15.7446 C   0  0  0  0  0  0  0  0  0  0  0  0
   33.0011   -6.8242  -15.0297 S   0  0  0  0  0  0  0  0  0  0  0  0
   33.1801   -8.0324  -16.4143 C   0  0  0  0  0  0  0  0  0  0  0  0
   32.3188   -7.5372  -17.5233 C   0  0  0  0  0  0  0  0  0  0  0  0
   31.0579   -8.2817  -17.7969 C   0  0  2  0  0  0  0  0  0  0  0  0
   31.4192   -9.4968  -18.5031 N   0  0  0  0  0  0  0  0  0  0  0  0
   30.0511   -7.5027  -18.4965 C   0  0  0  0  0  0  0  0  0  0  0  0
   29.5274   -6.4990  -17.9895 O   0  0  0  0  0  0  0  0  0  0  0  0
   29.5513   -7.8002  -19.8124 N   0  0  0  0  0  0  0  0  0  0  0  0
   28.1805   -7.4946  -20.1417 C   0  0  1  0  0  0  0  0  0  0  0  0
   27.4552   -8.6030  -20.8247 C   0  0  0  0  0  0  0  0  0  0  0  0
   26.0546   -8.2369  -21.2437 C   0  0  0  0  0  0  0  0  0  0  0  0
   25.3458   -9.4135  -21.8434 C   0  0  0  0  0  0  0  0  0  0  0  0
   23.9365   -9.0777  -22.2724 C   0  0  0  0  0  0  0  0  0  0  0  0
   23.2982  -10.2195  -22.8670 N   0  0  0  0  0  0  0  0  0  0  0  0
   27.4378   -7.0086  -18.9351 C   0  0  0  0  0  0  0  0  0  0  0  0
   27.1789   -7.6801  -17.9306 O   0  0  0  0  0  0  0  0  0  0  0  0
   27.0066   -5.6943  -18.9483 O   0  0  0  0  0  0  0  0  0  0  0  0
  2  1  1  6
  3  2  1  0
  4  2  1  0
  4  6  1  0
  4  5  1  1
  6  7  2  0
  8  9  1  0
  9 10  1  0
 11 10  1  0
 12 11  1  6
 13  6  1  0
 13 12  1  0
 14 12  1  0
 14 15  2  0
 16 14  1  0
 17 16  1  0
 17 23  1  0
 17 18  1  1
 19 20  1  0
 19 18  1  0
 20 21  1  0
 21 22  1  0
 23 25  1  0
 24 23  2  0
M  END
$$$$
