TMK.pdb
     RDKit          3D

 25 24  0  0  1  0  0  0  0  0999 V2000
   22.5358  -10.5627  -19.2705 C   0  0  0  0  0  0  0  0  0  0  0  0
   23.1196  -11.7644  -18.5457 C   0  0  1  0  0  0  0  0  0  0  0  0
   24.0289  -12.4686  -19.2807 O   0  0  0  0  0  0  0  0  0  0  0  0
   23.7065  -11.3939  -17.2247 C   0  0  2  0  0  0  0  0  0  0  0  0
   24.2831  -12.5728  -16.6365 N   0  0  0  0  0  0  0  0  0  0  0  0
   22.7248  -10.8110  -16.2529 C   0  0  0  0  0  0  0  0  0  0  0  0
   21.8296  -11.5246  -15.7510 O   0  0  0  0  0  0  0  0  0  0  0  0
   22.5903   -3.9254  -14.7173 C   0  0  0  0  0  0  0  0  0  0  0  0
   22.7614   -5.1270  -13.3788 S   0  0  0  0  0  0  0  0  0  0  0  0
   21.6539   -6.5455  -13.7912 C   0  0  0  0  0  0  0  0  0  0  0  0
   22.4930   -7.5438  -14.5098 C   0  0  0  0  0  0  0  0  0  0  0  0
   21.7992   -8.7164  -15.1117 C   0  0  2  0  0  0  0  0  0  0  0  0
   22.7856   -9.4541  -15.8789 N   0  0  0  0  0  0  0  0  0  0  0  0
   20.6231   -8.3716  -15.8914 C   0  0  0  0  0  0  0  0  0  0  0  0
   20.7075   -7.9273  -17.0465 O   0  0  0  0  0  0  0  0  0  0  0  0
   19.2666   -8.4909  -15.4269 N   0  0  0  0  0  0  0  0  0  0  0  0
   18.1776   -8.1364  -16.3039 C   0  0  1  0  0  0  0  0  0  0  0  0
   17.0315   -9.0884  -16.2695 C   0  0  0  0  0  0  0  0  0  0  0  0
   15.9267   -8.7346  -17.2314 C   0  0  0  0  0  0  0  0  0  0  0  0
   14.8515   -9.7788  -17.2261 C   0  0  0  0  0  0  0  0  0  0  0  0
   13.7894   -9.5152  -18.2678 C   0  0  0  0  0  0  0  0  0  0  0  0
   12.7155  -10.4630  -18.1532 N   0  0  0  0  0  0  0  0  0  0  0  0
   17.7332   -6.7269  -16.0596 C   0  0  0  0  0  0  0  0  0  0  0  0
   17.6808   -6.1696  -14.9580 O   0  0  0  0  0  0  0  0  0  0  0  0
   17.3501   -5.9872  -17.1639 O   0  0  0  0  0  0  0  0  0  0  0  0
  2  1  1  6
  3  2  1  0
  4  2  1  0
  4  6  1  0
  4  5  1  1
  6  7  2  0
  8  9  1  0
  9 10  1  0
 11 10  1  0
 12 11  1  6
 13  6  1  0
 13 12  1  0
 14 12  1  0
 14 15  2  0
 16 14  1  0
 17 16  1  0
 17 23  1  0
 17 18  1  1
 19 20  1  0
 19 18  1  0
 20 21  1  0
 21 22  1  0
 23 25  1  0
 24 23  2  0
M  END
$$$$
