TMK.pdb
     RDKit          3D

 25 24  0  0  1  0  0  0  0  0999 V2000
   28.7802  -19.4296  -17.4118 C   0  0  0  0  0  0  0  0  0  0  0  0
   27.5851  -19.8892  -16.5930 C   0  0  1  0  0  0  0  0  0  0  0  0
   26.4328  -20.0144  -17.3139 O   0  0  0  0  0  0  0  0  0  0  0  0
   27.8642  -21.1535  -15.8512 C   0  0  2  0  0  0  0  0  0  0  0  0
   28.0664  -22.2074  -16.8087 N   0  0  0  0  0  0  0  0  0  0  0  0
   26.7754  -21.5717  -14.9091 C   0  0  0  0  0  0  0  0  0  0  0  0
   25.8853  -22.3663  -15.2816 O   0  0  0  0  0  0  0  0  0  0  0  0
   24.9954  -20.3187   -7.2842 C   0  0  0  0  0  0  0  0  0  0  0  0
   26.1529  -20.3076   -8.6716 S   0  0  0  0  0  0  0  0  0  0  0  0
   25.2041  -20.8447  -10.1616 C   0  0  0  0  0  0  0  0  0  0  0  0
   26.1618  -20.8318  -11.3016 C   0  0  0  0  0  0  0  0  0  0  0  0
   25.6505  -21.2663  -12.6315 C   0  0  2  0  0  0  0  0  0  0  0  0
   26.7276  -21.0869  -13.5872 N   0  0  0  0  0  0  0  0  0  0  0  0
   24.4222  -20.6056  -13.0376 C   0  0  0  0  0  0  0  0  0  0  0  0
   24.4284  -19.5488  -13.6871 O   0  0  0  0  0  0  0  0  0  0  0  0
   23.0975  -21.0782  -12.7350 N   0  0  0  0  0  0  0  0  0  0  0  0
   21.9690  -20.5581  -13.4677 C   0  0  1  0  0  0  0  0  0  0  0  0
   22.0894  -20.6884  -14.9474 C   0  0  0  0  0  0  0  0  0  0  0  0
   20.8454  -20.2751  -15.6909 C   0  0  0  0  0  0  0  0  0  0  0  0
   20.8980  -18.8252  -16.0667 C   0  0  0  0  0  0  0  0  0  0  0  0
   19.6871  -18.3931  -16.8603 C   0  0  0  0  0  0  0  0  0  0  0  0
   19.7428  -16.9871  -17.1518 N   0  0  0  0  0  0  0  0  0  0  0  0
   20.6879  -21.1480  -12.9631 C   0  0  0  0  0  0  0  0  0  0  0  0
   19.5546  -20.8485  -13.3539 O   0  0  0  0  0  0  0  0  0  0  0  0
   20.7845  -22.1117  -11.9754 O   0  0  0  0  0  0  0  0  0  0  0  0
  2  1  1  6
  3  2  1  0
  4  2  1  0
  4  6  1  0
  4  5  1  6
  6  7  2  0
  8  9  1  0
  9 10  1  0
 11 10  1  0
 12 11  1  1
 13  6  1  0
 13 12  1  0
 14 12  1  0
 14 15  2  0
 16 14  1  0
 17 16  1  0
 17 23  1  0
 17 18  1  6
 19 20  1  0
 19 18  1  0
 20 21  1  0
 21 22  1  0
 23 25  1  0
 24 23  2  0
M  END
$$$$
