TMK.pdb
     RDKit          3D

 25 24  0  0  1  0  0  0  0  0999 V2000
   20.6990  -10.7468  -18.4630 C   0  0  0  0  0  0  0  0  0  0  0  0
   20.5272  -12.0014  -17.6223 C   0  0  1  0  0  0  0  0  0  0  0  0
   19.8808  -13.0170  -18.2656 O   0  0  0  0  0  0  0  0  0  0  0  0
   21.8242  -12.4898  -17.0693 C   0  0  2  0  0  0  0  0  0  0  0  0
   21.5939  -13.7496  -16.4148 N   0  0  0  0  0  0  0  0  0  0  0  0
   22.4693  -11.5571  -16.0885 C   0  0  0  0  0  0  0  0  0  0  0  0
   21.9041  -11.2836  -15.0077 O   0  0  0  0  0  0  0  0  0  0  0  0
   28.6530  -13.3445  -15.0797 C   0  0  0  0  0  0  0  0  0  0  0  0
   28.1206  -11.6704  -15.5024 S   0  0  0  0  0  0  0  0  0  0  0  0
   26.3028  -11.5939  -15.1883 C   0  0  0  0  0  0  0  0  0  0  0  0
   25.8538  -10.2425  -15.6228 C   0  0  0  0  0  0  0  0  0  0  0  0
   24.3935   -9.9540  -15.5657 C   0  0  2  0  0  0  0  0  0  0  0  0
   23.7221  -10.9702  -16.3545 N   0  0  0  0  0  0  0  0  0  0  0  0
   24.0411   -8.6041  -15.9700 C   0  0  0  0  0  0  0  0  0  0  0  0
   24.4443   -7.6067  -15.3523 O   0  0  0  0  0  0  0  0  0  0  0  0
   23.2015   -8.2761  -17.0914 N   0  0  0  0  0  0  0  0  0  0  0  0
   22.8138   -6.9050  -17.3164 C   0  0  1  0  0  0  0  0  0  0  0  0
   22.5271   -6.5778  -18.7418 C   0  0  0  0  0  0  0  0  0  0  0  0
   22.1018   -5.1481  -18.9569 C   0  0  0  0  0  0  0  0  0  0  0  0
   21.7845   -4.8906  -20.3988 C   0  0  0  0  0  0  0  0  0  0  0  0
   21.3534   -3.4638  -20.6464 C   0  0  0  0  0  0  0  0  0  0  0  0
   21.0590   -3.2533  -22.0370 N   0  0  0  0  0  0  0  0  0  0  0  0
   21.6769   -6.5185  -16.4209 C   0  0  0  0  0  0  0  0  0  0  0  0
   20.7006   -7.2261  -16.1513 O   0  0  0  0  0  0  0  0  0  0  0  0
   21.7272   -5.2610  -15.8467 O   0  0  0  0  0  0  0  0  0  0  0  0
  2  1  1  6
  3  2  1  0
  4  2  1  0
  4  6  1  0
  4  5  1  1
  6  7  2  0
  8  9  1  0
  9 10  1  0
 11 10  1  0
 12 11  1  6
 13  6  1  0
 13 12  1  0
 14 12  1  0
 14 15  2  0
 16 14  1  0
 17 16  1  0
 17 23  1  0
 17 18  1  6
 19 20  1  0
 19 18  1  0
 20 21  1  0
 21 22  1  0
 23 25  1  0
 24 23  2  0
M  END
$$$$
