TMK.pdb
     RDKit          3D

 25 24  0  0  1  0  0  0  0  0999 V2000
   26.4051  -17.9355  -15.7109 C   0  0  0  0  0  0  0  0  0  0  0  0
   27.2387  -18.9368  -16.4937 C   0  0  1  0  0  0  0  0  0  0  0  0
   28.1339  -18.3649  -17.3507 O   0  0  0  0  0  0  0  0  0  0  0  0
   27.9346  -19.9091  -15.6009 C   0  0  2  0  0  0  0  0  0  0  0  0
   28.6944  -20.8151  -16.4197 N   0  0  0  0  0  0  0  0  0  0  0  0
   27.0184  -20.7137  -14.7284 C   0  0  0  0  0  0  0  0  0  0  0  0
   26.4979  -21.7665  -15.1564 O   0  0  0  0  0  0  0  0  0  0  0  0
   25.0475  -20.8789   -7.0732 C   0  0  0  0  0  0  0  0  0  0  0  0
   26.1027  -20.3483   -8.4407 S   0  0  0  0  0  0  0  0  0  0  0  0
   25.3409  -21.0068   -9.9882 C   0  0  0  0  0  0  0  0  0  0  0  0
   26.1994  -20.5445  -11.1135 C   0  0  0  0  0  0  0  0  0  0  0  0
   25.7995  -20.9465  -12.4909 C   0  0  2  0  0  0  0  0  0  0  0  0
   26.7236  -20.3102  -13.4112 N   0  0  0  0  0  0  0  0  0  0  0  0
   24.4094  -20.6691  -12.8080 C   0  0  0  0  0  0  0  0  0  0  0  0
   23.9981  -19.5156  -13.0055 O   0  0  0  0  0  0  0  0  0  0  0  0
   23.3777  -21.6659  -12.9160 N   0  0  0  0  0  0  0  0  0  0  0  0
   22.0276  -21.2654  -13.2290 C   0  0  1  0  0  0  0  0  0  0  0  0
   21.1655  -22.3700  -13.7366 C   0  0  0  0  0  0  0  0  0  0  0  0
   19.7769  -21.9235  -14.1156 C   0  0  0  0  0  0  0  0  0  0  0  0
   18.9844  -23.0568  -14.6933 C   0  0  0  0  0  0  0  0  0  0  0  0
   17.6451  -22.6071  -15.2289 C   0  0  0  0  0  0  0  0  0  0  0  0
   16.8877  -23.7271  -15.7156 N   0  0  0  0  0  0  0  0  0  0  0  0
   21.3972  -20.5614  -12.0669 C   0  0  0  0  0  0  0  0  0  0  0  0
   21.5120  -20.8862  -10.8803 O   0  0  0  0  0  0  0  0  0  0  0  0
   20.6210  -19.4516  -12.3488 O   0  0  0  0  0  0  0  0  0  0  0  0
  2  1  1  1
  3  2  1  0
  4  2  1  0
  4  6  1  0
  4  5  1  6
  6  7  2  0
  8  9  1  0
  9 10  1  0
 11 10  1  0
 12 11  1  1
 13  6  1  0
 13 12  1  0
 14 12  1  0
 14 15  2  0
 16 14  1  0
 17 16  1  0
 17 23  1  0
 17 18  1  1
 19 20  1  0
 19 18  1  0
 20 21  1  0
 21 22  1  0
 23 25  1  0
 24 23  2  0
M  END
$$$$
