TMK.pdb
     RDKit          3D

 25 24  0  0  1  0  0  0  0  0999 V2000
   18.2476   -9.8815  -14.1804 C   0  0  0  0  0  0  0  0  0  0  0  0
   17.3040  -11.0131  -13.8074 C   0  0  1  0  0  0  0  0  0  0  0  0
   17.7953  -12.2577  -14.0764 O   0  0  0  0  0  0  0  0  0  0  0  0
   16.8652  -10.9332  -12.3834 C   0  0  2  0  0  0  0  0  0  0  0  0
   16.1186  -12.1218  -12.0702 N   0  0  0  0  0  0  0  0  0  0  0  0
   16.0139   -9.7409  -12.0639 C   0  0  0  0  0  0  0  0  0  0  0  0
   14.8401   -9.6683  -12.4873 O   0  0  0  0  0  0  0  0  0  0  0  0
   12.9688   -8.1758   -6.3856 C   0  0  0  0  0  0  0  0  0  0  0  0
   14.4878   -7.5155   -7.1077 S   0  0  0  0  0  0  0  0  0  0  0  0
   14.3936   -7.8275   -8.9250 C   0  0  0  0  0  0  0  0  0  0  0  0
   15.6796   -7.3507   -9.5044 C   0  0  0  0  0  0  0  0  0  0  0  0
   15.8357   -7.4285  -10.9838 C   0  0  2  0  0  0  0  0  0  0  0  0
   16.5087   -8.6792  -11.2812 N   0  0  0  0  0  0  0  0  0  0  0  0
   16.5017   -6.2781  -11.5695 C   0  0  0  0  0  0  0  0  0  0  0  0
   17.7097   -6.0581  -11.3933 O   0  0  0  0  0  0  0  0  0  0  0  0
   15.8573   -5.2852  -12.3873 N   0  0  0  0  0  0  0  0  0  0  0  0
   16.6394   -4.2219  -12.9690 C   0  0  1  0  0  0  0  0  0  0  0  0
   16.2951   -3.9160  -14.3864 C   0  0  0  0  0  0  0  0  0  0  0  0
   16.6895   -5.0057  -15.3498 C   0  0  0  0  0  0  0  0  0  0  0  0
   16.3017   -4.6515  -16.7535 C   0  0  0  0  0  0  0  0  0  0  0  0
   16.6746   -5.7312  -17.7424 C   0  0  0  0  0  0  0  0  0  0  0  0
   16.3303   -5.3384  -19.0811 N   0  0  0  0  0  0  0  0  0  0  0  0
   16.5924   -2.9947  -12.1114 C   0  0  0  0  0  0  0  0  0  0  0  0
   15.8095   -2.8004  -11.1754 O   0  0  0  0  0  0  0  0  0  0  0  0
   17.5058   -1.9946  -12.3927 O   0  0  0  0  0  0  0  0  0  0  0  0
  2  1  1  1
  3  2  1  0
  4  2  1  0
  4  6  1  0
  4  5  1  6
  6  7  2  0
  8  9  1  0
  9 10  1  0
 11 10  1  0
 12 11  1  1
 13  6  1  0
 13 12  1  0
 14 12  1  0
 14 15  2  0
 16 14  1  0
 17 16  1  0
 17 23  1  0
 17 18  1  6
 19 20  1  0
 19 18  1  0
 20 21  1  0
 21 22  1  0
 23 25  1  0
 24 23  2  0
M  END
$$$$
