TMK.pdb
     RDKit          3D

 25 24  0  0  1  0  0  0  0  0999 V2000
   28.3902   -9.7833  -19.1099 C   0  0  0  0  0  0  0  0  0  0  0  0
   28.4428  -10.7019  -17.9002 C   0  0  1  0  0  0  0  0  0  0  0  0
   29.7080  -11.0124  -17.4929 O   0  0  0  0  0  0  0  0  0  0  0  0
   27.6530  -10.1667  -16.7528 C   0  0  2  0  0  0  0  0  0  0  0  0
   27.9416  -10.9636  -15.5909 N   0  0  0  0  0  0  0  0  0  0  0  0
   26.1694  -10.1651  -16.9697 C   0  0  0  0  0  0  0  0  0  0  0  0
   25.6796   -9.6497  -17.9977 O   0  0  0  0  0  0  0  0  0  0  0  0
   20.1459  -14.4034  -14.1867 C   0  0  0  0  0  0  0  0  0  0  0  0
   21.9064  -14.0427  -14.3744 S   0  0  0  0  0  0  0  0  0  0  0  0
   22.0285  -12.4556  -15.3099 C   0  0  0  0  0  0  0  0  0  0  0  0
   23.4781  -12.1290  -15.4037 C   0  0  0  0  0  0  0  0  0  0  0  0
   23.8572  -10.9033  -16.1605 C   0  0  2  0  0  0  0  0  0  0  0  0
   25.2935  -10.7427  -16.0296 N   0  0  0  0  0  0  0  0  0  0  0  0
   23.1202   -9.7145  -15.7685 C   0  0  0  0  0  0  0  0  0  0  0  0
   23.4307   -9.0487  -14.7690 O   0  0  0  0  0  0  0  0  0  0  0  0
   21.9743   -9.1928  -16.4645 N   0  0  0  0  0  0  0  0  0  0  0  0
   21.3507   -7.9768  -16.0025 C   0  0  1  0  0  0  0  0  0  0  0  0
   20.4921   -7.3066  -17.0197 C   0  0  0  0  0  0  0  0  0  0  0  0
   19.8151   -6.0609  -16.5088 C   0  0  0  0  0  0  0  0  0  0  0  0
   18.9845   -5.4202  -17.5792 C   0  0  0  0  0  0  0  0  0  0  0  0
   18.3179   -4.1496  -17.1060 C   0  0  0  0  0  0  0  0  0  0  0  0
   17.3309   -3.7079  -18.0524 N   0  0  0  0  0  0  0  0  0  0  0  0
   20.6104   -8.2105  -14.7215 C   0  0  0  0  0  0  0  0  0  0  0  0
   19.8690   -9.1699  -14.4835 O   0  0  0  0  0  0  0  0  0  0  0  0
   20.7730   -7.2704  -13.7198 O   0  0  0  0  0  0  0  0  0  0  0  0
  2  1  1  6
  3  2  1  0
  4  2  1  0
  4  6  1  0
  4  5  1  1
  6  7  2  0
  8  9  1  0
  9 10  1  0
 11 10  1  0
 12 11  1  1
 13  6  1  0
 13 12  1  0
 14 12  1  0
 14 15  2  0
 16 14  1  0
 17 16  1  0
 17 23  1  0
 17 18  1  6
 19 20  1  0
 19 18  1  0
 20 21  1  0
 21 22  1  0
 23 25  1  0
 24 23  2  0
M  END
$$$$
