TMK.pdb
     RDKit          3D

 25 24  0  0  1  0  0  0  0  0999 V2000
   28.7275  -18.2334  -15.8104 C   0  0  0  0  0  0  0  0  0  0  0  0
   27.5531  -18.8959  -15.1089 C   0  0  1  0  0  0  0  0  0  0  0  0
   26.3888  -18.8598  -15.8202 O   0  0  0  0  0  0  0  0  0  0  0  0
   27.8599  -20.2980  -14.7008 C   0  0  2  0  0  0  0  0  0  0  0  0
   28.0919  -21.0767  -15.8875 N   0  0  0  0  0  0  0  0  0  0  0  0
   26.7775  -20.9613  -13.9029 C   0  0  0  0  0  0  0  0  0  0  0  0
   25.9115  -21.6625  -14.4692 O   0  0  0  0  0  0  0  0  0  0  0  0
   26.5723  -19.4255   -7.5446 C   0  0  0  0  0  0  0  0  0  0  0  0
   25.9689  -21.1286   -7.5585 S   0  0  0  0  0  0  0  0  0  0  0  0
   25.0830  -21.3670   -9.1607 C   0  0  0  0  0  0  0  0  0  0  0  0
   26.0548  -21.0294  -10.2370 C   0  0  0  0  0  0  0  0  0  0  0  0
   25.5874  -21.1523  -11.6460 C   0  0  2  0  0  0  0  0  0  0  0  0
   26.7090  -20.8162  -12.5032 N   0  0  0  0  0  0  0  0  0  0  0  0
   24.3981  -20.3738  -11.9447 C   0  0  0  0  0  0  0  0  0  0  0  0
   24.4588  -19.2737  -12.5146 O   0  0  0  0  0  0  0  0  0  0  0  0
   23.0544  -20.7692  -11.6157 N   0  0  0  0  0  0  0  0  0  0  0  0
   21.9731  -20.4388  -12.5115 C   0  0  1  0  0  0  0  0  0  0  0  0
   22.2150  -20.8276  -13.9298 C   0  0  0  0  0  0  0  0  0  0  0  0
   22.3668  -19.6505  -14.8585 C   0  0  0  0  0  0  0  0  0  0  0  0
   22.6029  -20.1021  -16.2680 C   0  0  0  0  0  0  0  0  0  0  0  0
   22.8906  -18.9485  -17.2003 C   0  0  0  0  0  0  0  0  0  0  0  0
   23.1460  -19.4209  -18.5332 N   0  0  0  0  0  0  0  0  0  0  0  0
   20.6738  -20.9835  -12.0028 C   0  0  0  0  0  0  0  0  0  0  0  0
   19.5585  -20.4923  -12.2065 O   0  0  0  0  0  0  0  0  0  0  0  0
   20.7298  -22.1364  -11.2403 O   0  0  0  0  0  0  0  0  0  0  0  0
  2  1  1  6
  3  2  1  0
  4  2  1  0
  4  6  1  0
  4  5  1  6
  6  7  2  0
  8  9  1  0
  9 10  1  0
 11 10  1  0
 12 11  1  1
 13  6  1  0
 13 12  1  0
 14 12  1  0
 14 15  2  0
 16 14  1  0
 17 16  1  0
 17 23  1  0
 17 18  1  6
 19 20  1  0
 19 18  1  0
 20 21  1  0
 21 22  1  0
 23 25  1  0
 24 23  2  0
M  END
$$$$
