TRL.pdb
     RDKit          3D

 27 26  0  0  1  0  0  0  0  0999 V2000
    9.2333  -20.0429   23.4945 C   0  0  0  0  0  0  0  0  0  0  0  0
    7.7817  -19.6891   23.3159 C   0  0  1  0  0  0  0  0  0  0  0  0
    7.4041  -18.8136   24.3300 O   0  0  0  0  0  0  0  0  0  0  0  0
    7.5427  -19.0381   21.9578 C   0  0  2  0  0  0  0  0  0  0  0  0
    7.8293  -20.0051   20.9227 N   0  0  0  0  0  0  0  0  0  0  0  0
    8.4350  -17.8723   21.7552 C   0  0  0  0  0  0  0  0  0  0  0  0
    9.5618  -18.0832   21.2726 O   0  0  0  0  0  0  0  0  0  0  0  0
    7.8736  -15.4071   17.2737 N   0  0  0  0  0  0  0  0  0  0  0  0
    7.7862  -13.9997   16.9584 C   0  0  0  0  0  0  0  0  0  0  0  0
    7.9821  -13.5994   15.7479 N   0  0  0  0  0  0  0  0  0  0  0  0
    7.4954  -13.0400   17.9483 N   0  0  0  0  0  0  0  0  0  0  0  0
    6.9537  -13.4580   19.2189 C   0  0  0  0  0  0  0  0  0  0  0  0
    7.8350  -14.5266   19.7740 C   0  0  0  0  0  0  0  0  0  0  0  0
    8.3739  -14.2738   21.1406 C   0  0  0  0  0  0  0  0  0  0  0  0
    8.9503  -15.4062   21.8753 C   0  0  2  0  0  0  0  0  0  0  0  0
    8.1073  -16.5496   22.0657 N   0  0  0  0  0  0  0  0  0  0  0  0
    9.3625  -14.9800   23.2456 C   0  0  0  0  0  0  0  0  0  0  0  0
    9.9723  -13.8947   23.4421 O   0  0  0  0  0  0  0  0  0  0  0  0
    7.9363  -12.5955   15.5116 C   0  0  0  0  0  0  0  0  0  0  0  0
    8.5856  -12.3942   27.1784 C   0  0  2  0  0  0  0  0  0  0  0  0
    7.4093  -13.3904   26.8629 C   0  0  0  0  0  0  0  0  0  0  0  0
    6.2251  -12.4806   26.7048 C   0  0  0  0  0  0  0  0  0  0  0  0
    7.8570  -14.1345   25.6789 C   0  0  1  0  0  0  0  0  0  0  0  0
    8.8691  -15.1887   25.7351 N   0  0  0  0  0  0  0  0  0  0  0  0
    9.0910  -15.7707   24.3954 C   0  0  0  0  0  0  0  0  0  0  0  0
    8.6455  -16.2154   26.7275 O   0  0  0  0  0  0  0  0  0  0  0  0
    9.2606  -16.3704   27.9384 O   0  0  0  0  0  0  0  0  0  0  0  0
  2  1  1  1
  2  4  1  0
  3  2  1  0
  4  5  1  6
  6  7  2  0
  6  4  1  0
  8  9  1  0
  9 11  1  0
 10  9  2  0
 11 12  1  0
 12 13  1  0
 13 14  1  0
 15 14  1  1
 15 16  1  0
 16  6  1  0
 17 18  2  0
 17 15  1  0
 20 19  1  1
 20 22  1  0
 21 20  1  0
 23 22  1  6
 23 24  1  0
 24 17  1  0
 25 26  1  0
 25 23  1  0
 27 25  2  0
M  END
$$$$
