TRL.pdb
     RDKit          3D

 27 26  0  0  1  0  0  0  0  0999 V2000
    8.1306  -11.9848   19.2427 C   0  0  0  0  0  0  0  0  0  0  0  0
    8.3840  -12.9567   20.3631 C   0  0  1  0  0  0  0  0  0  0  0  0
    7.6340  -12.5718   21.4707 O   0  0  0  0  0  0  0  0  0  0  0  0
    8.0035  -14.3746   19.9509 C   0  0  2  0  0  0  0  0  0  0  0  0
    6.6429  -14.3671   19.4635 N   0  0  0  0  0  0  0  0  0  0  0  0
    8.0726  -15.3065   21.1013 C   0  0  0  0  0  0  0  0  0  0  0  0
    7.0240  -15.5224   21.7346 O   0  0  0  0  0  0  0  0  0  0  0  0
    8.2984  -20.5423   19.3237 N   0  0  0  0  0  0  0  0  0  0  0  0
    9.7329  -20.4941   19.4906 C   0  0  0  0  0  0  0  0  0  0  0  0
   10.4732  -20.0164   18.5485 N   0  0  0  0  0  0  0  0  0  0  0  0
   10.3538  -20.9651   20.6645 N   0  0  0  0  0  0  0  0  0  0  0  0
   10.2777  -20.1903   21.8796 C   0  0  0  0  0  0  0  0  0  0  0  0
   10.5031  -18.7562   21.5343 C   0  0  0  0  0  0  0  0  0  0  0  0
   10.4268  -17.7980   22.6737 C   0  0  0  0  0  0  0  0  0  0  0  0
    9.3353  -16.8168   22.6780 C   0  0  2  0  0  0  0  0  0  0  0  0
    9.2288  -15.9635   21.5313 N   0  0  0  0  0  0  0  0  0  0  0  0
    9.4668  -15.8995   23.8487 C   0  0  0  0  0  0  0  0  0  0  0  0
    9.6258  -14.6584   23.6984 O   0  0  0  0  0  0  0  0  0  0  0  0
   11.5010  -19.9987   18.6445 C   0  0  0  0  0  0  0  0  0  0  0  0
    6.1633  -13.0349   25.9378 C   0  0  1  0  0  0  0  0  0  0  0  0
    7.6946  -13.3760   25.8185 C   0  0  0  0  0  0  0  0  0  0  0  0
    8.3253  -12.4762   26.8421 C   0  0  0  0  0  0  0  0  0  0  0  0
    7.7739  -14.8244   26.0464 C   0  0  2  0  0  0  0  0  0  0  0  0
    9.0291  -15.5199   26.3285 N   0  0  0  0  0  0  0  0  0  0  0  0
    9.4199  -16.3740   25.1880 C   0  0  0  0  0  0  0  0  0  0  0  0
    9.0707  -16.2502   27.5750 O   0  0  0  0  0  0  0  0  0  0  0  0
    9.5599  -15.8362   28.7825 O   0  0  0  0  0  0  0  0  0  0  0  0
  2  1  1  6
  2  4  1  0
  3  2  1  0
  4  5  1  1
  6  7  2  0
  6  4  1  0
  8  9  1  0
  9 11  1  0
 10  9  2  0
 11 12  1  0
 12 13  1  0
 13 14  1  0
 15 14  1  6
 15 16  1  0
 16  6  1  0
 17 18  2  0
 17 15  1  0
 20 19  1  6
 20 22  1  0
 21 20  1  0
 23 22  1  6
 23 24  1  0
 24 17  1  0
 25 26  1  0
 25 23  1  0
 27 25  2  0
M  END
$$$$
