TRL.pdb
     RDKit          3D

 27 26  0  0  1  0  0  0  0  0999 V2000
    6.0615  -20.1061   23.3227 C   0  0  0  0  0  0  0  0  0  0  0  0
    7.0528  -18.9776   23.2326 C   0  0  1  0  0  0  0  0  0  0  0  0
    8.2455  -19.3781   23.8281 O   0  0  0  0  0  0  0  0  0  0  0  0
    7.3070  -18.5904   21.7798 C   0  0  2  0  0  0  0  0  0  0  0  0
    7.8499  -19.7341   21.0827 N   0  0  0  0  0  0  0  0  0  0  0  0
    8.2896  -17.4852   21.6813 C   0  0  0  0  0  0  0  0  0  0  0  0
    9.4862  -17.7872   21.5258 O   0  0  0  0  0  0  0  0  0  0  0  0
    9.6363  -14.2938   17.0814 N   0  0  0  0  0  0  0  0  0  0  0  0
    8.3184  -13.9468   16.6012 C   0  0  0  0  0  0  0  0  0  0  0  0
    7.9670  -14.2668   15.4021 N   0  0  0  0  0  0  0  0  0  0  0  0
    7.3974  -13.2554   17.4132 N   0  0  0  0  0  0  0  0  0  0  0  0
    7.7723  -12.8575   18.7487 C   0  0  0  0  0  0  0  0  0  0  0  0
    8.2191  -14.0728   19.4904 C   0  0  0  0  0  0  0  0  0  0  0  0
    8.5485  -13.8663   20.9294 C   0  0  0  0  0  0  0  0  0  0  0  0
    8.9127  -15.0417   21.7294 C   0  0  2  0  0  0  0  0  0  0  0  0
    7.9748  -16.1253   21.7501 N   0  0  0  0  0  0  0  0  0  0  0  0
    9.1104  -14.6560   23.1582 C   0  0  0  0  0  0  0  0  0  0  0  0
    9.5105  -13.5051   23.4804 O   0  0  0  0  0  0  0  0  0  0  0  0
    7.0135  -14.0650   15.0615 C   0  0  0  0  0  0  0  0  0  0  0  0
    8.3381  -12.3759   27.3199 C   0  0  2  0  0  0  0  0  0  0  0  0
    7.2237  -13.4146   26.9265 C   0  0  0  0  0  0  0  0  0  0  0  0
    5.9789  -12.5762   26.8749 C   0  0  0  0  0  0  0  0  0  0  0  0
    7.6944  -14.0097   25.6693 C   0  0  1  0  0  0  0  0  0  0  0  0
    8.6471  -15.1182   25.6192 N   0  0  0  0  0  0  0  0  0  0  0  0
    8.8596  -15.5607   24.2257 C   0  0  0  0  0  0  0  0  0  0  0  0
    8.3518  -16.2338   26.4894 O   0  0  0  0  0  0  0  0  0  0  0  0
    8.9438  -16.5603   27.6774 O   0  0  0  0  0  0  0  0  0  0  0  0
  2  1  1  6
  2  4  1  0
  3  2  1  0
  4  5  1  6
  6  7  2  0
  6  4  1  0
  8  9  1  0
  9 11  1  0
 10  9  2  0
 11 12  1  0
 12 13  1  0
 13 14  1  0
 15 14  1  6
 15 16  1  0
 16  6  1  0
 17 18  2  0
 17 15  1  0
 20 19  1  1
 20 22  1  0
 21 20  1  0
 23 22  1  6
 23 24  1  0
 24 17  1  0
 25 26  1  0
 25 23  1  0
 27 25  2  0
M  END
$$$$
