TRL.pdb
     RDKit          3D

 27 26  0  0  1  0  0  0  0  0999 V2000
    8.4090  -12.1389   20.3341 C   0  0  0  0  0  0  0  0  0  0  0  0
    7.5277  -12.9639   19.4359 C   0  0  1  0  0  0  0  0  0  0  0  0
    7.2782  -12.2472   18.2690 O   0  0  0  0  0  0  0  0  0  0  0  0
    8.1919  -14.2928   19.0920 C   0  0  2  0  0  0  0  0  0  0  0  0
    7.3864  -14.9721   18.1029 N   0  0  0  0  0  0  0  0  0  0  0  0
    8.2903  -15.1695   20.2830 C   0  0  0  0  0  0  0  0  0  0  0  0
    7.3840  -16.0019   20.4650 O   0  0  0  0  0  0  0  0  0  0  0  0
   13.5810  -15.3928   18.2251 N   0  0  0  0  0  0  0  0  0  0  0  0
   14.4821  -15.0366   19.2970 C   0  0  0  0  0  0  0  0  0  0  0  0
   15.3675  -14.1168   19.1126 N   0  0  0  0  0  0  0  0  0  0  0  0
   14.4244  -15.6770   20.5508 N   0  0  0  0  0  0  0  0  0  0  0  0
   13.4117  -16.6733   20.8042 C   0  0  0  0  0  0  0  0  0  0  0  0
   12.1761  -15.9765   21.2673 C   0  0  0  0  0  0  0  0  0  0  0  0
   11.0388  -16.8624   21.6465 C   0  0  0  0  0  0  0  0  0  0  0  0
    9.7699  -16.2311   22.0280 C   0  0  2  0  0  0  0  0  0  0  0  0
    9.3259  -15.1331   21.2207 N   0  0  0  0  0  0  0  0  0  0  0  0
    9.8540  -15.6966   23.4196 C   0  0  0  0  0  0  0  0  0  0  0  0
   10.5434  -16.2704   24.3049 O   0  0  0  0  0  0  0  0  0  0  0  0
   15.9298  -13.7618   19.9022 C   0  0  0  0  0  0  0  0  0  0  0  0
    7.4588  -12.2770   27.2098 C   0  0  2  0  0  0  0  0  0  0  0  0
    6.6151  -13.3264   26.3959 C   0  0  0  0  0  0  0  0  0  0  0  0
    5.2880  -12.6433   26.2314 C   0  0  0  0  0  0  0  0  0  0  0  0
    7.4034  -13.5803   25.1833 C   0  0  1  0  0  0  0  0  0  0  0  0
    8.6744  -14.3038   25.1953 N   0  0  0  0  0  0  0  0  0  0  0  0
    9.1651  -14.5187   23.8184 C   0  0  0  0  0  0  0  0  0  0  0  0
    8.6861  -15.5310   25.9587 O   0  0  0  0  0  0  0  0  0  0  0  0
    8.0914  -16.7234   25.6534 O   0  0  0  0  0  0  0  0  0  0  0  0
  2  1  1  1
  2  4  1  0
  3  2  1  0
  4  5  1  6
  6  7  2  0
  6  4  1  0
  8  9  1  0
  9 11  1  0
 10  9  2  0
 11 12  1  0
 12 13  1  0
 13 14  1  0
 15 14  1  6
 15 16  1  0
 16  6  1  0
 17 18  2  0
 17 15  1  0
 20 19  1  1
 20 22  1  0
 21 20  1  0
 23 22  1  1
 23 24  1  0
 24 17  1  0
 25 26  1  0
 25 23  1  0
 27 25  2  0
M  END
$$$$
