TRL.pdb
     RDKit          3D

 27 26  0  0  1  0  0  0  0  0999 V2000
    9.3062  -12.3552   20.3036 C   0  0  0  0  0  0  0  0  0  0  0  0
    8.2741  -12.8297   19.3168 C   0  0  1  0  0  0  0  0  0  0  0  0
    8.4323  -12.1251   18.1268 O   0  0  0  0  0  0  0  0  0  0  0  0
    8.4188  -14.3247   19.0534 C   0  0  2  0  0  0  0  0  0  0  0  0
    7.4016  -14.7305   18.1104 N   0  0  0  0  0  0  0  0  0  0  0  0
    8.2313  -15.1108   20.2958 C   0  0  0  0  0  0  0  0  0  0  0  0
    7.0679  -15.2860   20.6995 O   0  0  0  0  0  0  0  0  0  0  0  0
   12.6351  -18.6622   26.2106 N   0  0  0  0  0  0  0  0  0  0  0  0
   12.4215  -19.7711   25.3092 C   0  0  0  0  0  0  0  0  0  0  0  0
   13.4210  -20.4943   24.9326 N   0  0  0  0  0  0  0  0  0  0  0  0
   11.1382  -20.0851   24.8193 N   0  0  0  0  0  0  0  0  0  0  0  0
   10.7941  -19.7763   23.4523 C   0  0  0  0  0  0  0  0  0  0  0  0
    9.8951  -18.5853   23.4542 C   0  0  0  0  0  0  0  0  0  0  0  0
   10.0318  -17.6713   22.2846 C   0  0  0  0  0  0  0  0  0  0  0  0
    9.1052  -16.5375   22.1831 C   0  0  2  0  0  0  0  0  0  0  0  0
    9.2642  -15.6722   21.0516 N   0  0  0  0  0  0  0  0  0  0  0  0
    9.2304  -15.6562   23.3818 C   0  0  0  0  0  0  0  0  0  0  0  0
   10.2057  -14.8705   23.5227 O   0  0  0  0  0  0  0  0  0  0  0  0
   13.3022  -21.2198   24.2079 C   0  0  0  0  0  0  0  0  0  0  0  0
    5.4686  -12.3563   25.9003 C   0  0  2  0  0  0  0  0  0  0  0  0
    6.9312  -12.7039   25.4359 C   0  0  0  0  0  0  0  0  0  0  0  0
    7.7579  -11.6271   26.0778 C   0  0  0  0  0  0  0  0  0  0  0  0
    7.1477  -14.0851   25.8850 C   0  0  2  0  0  0  0  0  0  0  0  0
    8.3870  -14.8201   25.6345 N   0  0  0  0  0  0  0  0  0  0  0  0
    8.2619  -15.6558   24.4226 C   0  0  0  0  0  0  0  0  0  0  0  0
    8.8969  -15.5818   26.7520 O   0  0  0  0  0  0  0  0  0  0  0  0
    9.6557  -15.1417   27.8004 O   0  0  0  0  0  0  0  0  0  0  0  0
  2  1  1  1
  2  4  1  0
  3  2  1  0
  4  5  1  6
  6  7  2  0
  6  4  1  0
  8  9  1  0
  9 11  1  0
 10  9  2  0
 11 12  1  0
 12 13  1  0
 13 14  1  0
 15 14  1  1
 15 16  1  0
 16  6  1  0
 17 18  2  0
 17 15  1  0
 20 19  1  6
 20 22  1  0
 21 20  1  0
 23 22  1  6
 23 24  1  0
 24 17  1  0
 25 26  1  0
 25 23  1  0
 27 25  2  0
M  END
$$$$
