TRL.pdb
     RDKit          3D

 27 26  0  0  1  0  0  0  0  0999 V2000
    8.4057  -21.3372   24.5156 C   0  0  0  0  0  0  0  0  0  0  0  0
    8.8119  -19.9099   24.2662 C   0  0  1  0  0  0  0  0  0  0  0  0
    9.8852  -19.5964   25.0952 O   0  0  0  0  0  0  0  0  0  0  0  0
    9.2094  -19.7033   22.8086 C   0  0  2  0  0  0  0  0  0  0  0  0
   10.3782  -20.5057   22.5279 N   0  0  0  0  0  0  0  0  0  0  0  0
    9.5513  -18.2865   22.5395 C   0  0  0  0  0  0  0  0  0  0  0  0
   10.7560  -17.9867   22.4624 O   0  0  0  0  0  0  0  0  0  0  0  0
    8.7500  -12.3853   17.5111 N   0  0  0  0  0  0  0  0  0  0  0  0
    7.9459  -13.5814   17.6146 C   0  0  0  0  0  0  0  0  0  0  0  0
    7.8864  -14.4031   16.6221 N   0  0  0  0  0  0  0  0  0  0  0  0
    7.2115  -13.8762   18.7805 N   0  0  0  0  0  0  0  0  0  0  0  0
    7.3783  -13.0632   19.9610 C   0  0  0  0  0  0  0  0  0  0  0  0
    8.3460  -13.7480   20.8673 C   0  0  0  0  0  0  0  0  0  0  0  0
    7.9859  -15.1391   21.2636 C   0  0  0  0  0  0  0  0  0  0  0  0
    8.9274  -15.8806   22.1111 C   0  0  2  0  0  0  0  0  0  0  0  0
    8.6216  -17.2576   22.3653 N   0  0  0  0  0  0  0  0  0  0  0  0
    9.0318  -15.2389   23.4551 C   0  0  0  0  0  0  0  0  0  0  0  0
    9.1131  -13.9877   23.5831 O   0  0  0  0  0  0  0  0  0  0  0  0
    7.3240  -15.2664   16.6865 C   0  0  0  0  0  0  0  0  0  0  0  0
    5.8560  -12.9761   26.1717 C   0  0  1  0  0  0  0  0  0  0  0  0
    7.3921  -13.2515   25.9709 C   0  0  0  0  0  0  0  0  0  0  0  0
    8.0280  -12.4604   27.0776 C   0  0  0  0  0  0  0  0  0  0  0  0
    7.5194  -14.7135   26.0212 C   0  0  2  0  0  0  0  0  0  0  0  0
    8.8085  -15.4035   25.9865 N   0  0  0  0  0  0  0  0  0  0  0  0
    9.0451  -16.0000   24.6557 C   0  0  0  0  0  0  0  0  0  0  0  0
    9.0305  -16.3636   27.0437 O   0  0  0  0  0  0  0  0  0  0  0  0
    9.7472  -16.2026   28.1965 O   0  0  0  0  0  0  0  0  0  0  0  0
  2  1  1  6
  2  4  1  0
  3  2  1  0
  4  5  1  1
  6  7  2  0
  6  4  1  0
  8  9  1  0
  9 11  1  0
 10  9  2  0
 11 12  1  0
 12 13  1  0
 13 14  1  0
 15 14  1  6
 15 16  1  0
 16  6  1  0
 17 18  2  0
 17 15  1  0
 20 19  1  6
 20 22  1  0
 21 20  1  0
 23 22  1  6
 23 24  1  0
 24 17  1  0
 25 26  1  0
 25 23  1  0
 27 25  2  0
M  END
$$$$
