TRL.pdb
     RDKit          3D

 27 26  0  0  1  0  0  0  0  0999 V2000
   14.9417  -17.6182   18.9544 C   0  0  0  0  0  0  0  0  0  0  0  0
   14.0921  -16.9910   20.0262 C   0  0  1  0  0  0  0  0  0  0  0  0
   14.8966  -16.6974   21.1235 O   0  0  0  0  0  0  0  0  0  0  0  0
   13.4281  -15.7156   19.5184 C   0  0  2  0  0  0  0  0  0  0  0  0
   14.4580  -14.7754   19.1391 N   0  0  0  0  0  0  0  0  0  0  0  0
   12.5978  -15.0849   20.5717 C   0  0  0  0  0  0  0  0  0  0  0  0
   13.0760  -14.1105   21.1792 O   0  0  0  0  0  0  0  0  0  0  0  0
    8.2334  -15.3979   17.4092 N   0  0  0  0  0  0  0  0  0  0  0  0
    7.6698  -14.0718   17.3006 C   0  0  0  0  0  0  0  0  0  0  0  0
    7.5760  -13.5065   16.1450 N   0  0  0  0  0  0  0  0  0  0  0  0
    7.2201  -13.3678   18.4354 N   0  0  0  0  0  0  0  0  0  0  0  0
    7.3074  -13.9760   19.7411 C   0  0  0  0  0  0  0  0  0  0  0  0
    8.7431  -14.0081   20.1466 C   0  0  0  0  0  0  0  0  0  0  0  0
    9.0341  -14.6936   21.4379 C   0  0  0  0  0  0  0  0  0  0  0  0
   10.4373  -14.8271   21.8472 C   0  0  2  0  0  0  0  0  0  0  0  0
   11.3147  -15.5018   20.9367 N   0  0  0  0  0  0  0  0  0  0  0  0
   10.5336  -15.5837   23.1308 C   0  0  0  0  0  0  0  0  0  0  0  0
   10.8039  -16.8145   23.1512 O   0  0  0  0  0  0  0  0  0  0  0  0
    7.1976  -12.5502   16.0560 C   0  0  0  0  0  0  0  0  0  0  0  0
   11.0078  -13.8999   28.9884 C   0  0  2  0  0  0  0  0  0  0  0  0
   10.5662  -15.1856   28.1962 C   0  0  0  0  0  0  0  0  0  0  0  0
    9.2871  -15.5823   28.8755 C   0  0  0  0  0  0  0  0  0  0  0  0
   10.4853  -14.7522   26.7955 C   0  0  1  0  0  0  0  0  0  0  0  0
   10.4298  -15.6881   25.6731 N   0  0  0  0  0  0  0  0  0  0  0  0
   10.3268  -14.9602   24.3916 C   0  0  0  0  0  0  0  0  0  0  0  0
    9.4277  -16.7248   25.7747 O   0  0  0  0  0  0  0  0  0  0  0  0
    9.5464  -17.9642   26.3389 O   0  0  0  0  0  0  0  0  0  0  0  0
  2  1  1  6
  2  4  1  0
  3  2  1  0
  4  5  1  1
  6  7  2  0
  6  4  1  0
  8  9  1  0
  9 11  1  0
 10  9  2  0
 11 12  1  0
 12 13  1  0
 13 14  1  0
 15 14  1  6
 15 16  1  0
 16  6  1  0
 17 18  2  0
 17 15  1  0
 20 19  1  1
 20 22  1  0
 21 20  1  0
 23 22  1  6
 23 24  1  0
 24 17  1  0
 25 26  1  0
 25 23  1  0
 27 25  2  0
M  END
$$$$
