TRL.pdb
     RDKit          3D

 27 26  0  0  1  0  0  0  0  0999 V2000
    8.7047  -12.1677   20.3672 C   0  0  0  0  0  0  0  0  0  0  0  0
    7.8462  -12.8593   19.3430 C   0  0  1  0  0  0  0  0  0  0  0  0
    7.7721  -12.0609   18.2052 O   0  0  0  0  0  0  0  0  0  0  0  0
    8.4242  -14.2226   18.9788 C   0  0  2  0  0  0  0  0  0  0  0  0
    7.5670  -14.8420   17.9938 N   0  0  0  0  0  0  0  0  0  0  0  0
    8.4833  -15.1153   20.1604 C   0  0  0  0  0  0  0  0  0  0  0  0
    7.4064  -15.4722   20.6703 O   0  0  0  0  0  0  0  0  0  0  0  0
   10.2915  -20.8217   20.5434 N   0  0  0  0  0  0  0  0  0  0  0  0
   11.5154  -20.8204   19.7752 C   0  0  0  0  0  0  0  0  0  0  0  0
   11.6280  -21.5890   18.7454 N   0  0  0  0  0  0  0  0  0  0  0  0
   12.6044  -19.9982   20.1267 N   0  0  0  0  0  0  0  0  0  0  0  0
   12.4804  -19.0697   21.2244 C   0  0  0  0  0  0  0  0  0  0  0  0
   11.2163  -18.2979   21.0432 C   0  0  0  0  0  0  0  0  0  0  0  0
   10.9579  -17.2350   22.0559 C   0  0  0  0  0  0  0  0  0  0  0  0
    9.7434  -16.4238   21.9101 C   0  0  2  0  0  0  0  0  0  0  0  0
    9.6596  -15.5887   20.7483 N   0  0  0  0  0  0  0  0  0  0  0  0
    9.5907  -15.5040   23.0762 C   0  0  0  0  0  0  0  0  0  0  0  0
   10.3260  -14.4899   23.2159 O   0  0  0  0  0  0  0  0  0  0  0  0
   12.5078  -21.6211   18.2064 C   0  0  0  0  0  0  0  0  0  0  0  0
    7.8816  -11.9050   26.2225 C   0  0  2  0  0  0  0  0  0  0  0  0
    7.0106  -13.1940   26.4579 C   0  0  0  0  0  0  0  0  0  0  0  0
    5.6104  -12.6542   26.5131 C   0  0  0  0  0  0  0  0  0  0  0  0
    7.3517  -14.0847   25.3414 C   0  0  1  0  0  0  0  0  0  0  0  0
    8.5509  -14.9218   25.3267 N   0  0  0  0  0  0  0  0  0  0  0  0
    8.6137  -15.7212   24.0858 C   0  0  0  0  0  0  0  0  0  0  0  0
    8.7507  -15.7455   26.4973 O   0  0  0  0  0  0  0  0  0  0  0  0
    9.4730  -15.4576   27.6216 O   0  0  0  0  0  0  0  0  0  0  0  0
  2  1  1  1
  2  4  1  0
  3  2  1  0
  4  5  1  6
  6  7  2  0
  6  4  1  0
  8  9  1  0
  9 11  1  0
 10  9  2  0
 11 12  1  0
 12 13  1  0
 13 14  1  0
 15 14  1  1
 15 16  1  0
 16  6  1  0
 17 18  2  0
 17 15  1  0
 20 19  1  1
 20 22  1  0
 21 20  1  0
 23 22  1  6
 23 24  1  0
 24 17  1  0
 25 26  1  0
 25 23  1  0
 27 25  2  0
M  END
$$$$
