TRL.pdb
     RDKit          3D

 27 26  0  0  1  0  0  0  0  0999 V2000
   10.3232  -13.7882   17.8929 C   0  0  0  0  0  0  0  0  0  0  0  0
    9.7102  -14.1158   19.2275 C   0  0  1  0  0  0  0  0  0  0  0  0
    9.8406  -13.0120   20.0654 O   0  0  0  0  0  0  0  0  0  0  0  0
    8.2362  -14.4763   19.0763 C   0  0  2  0  0  0  0  0  0  0  0  0
    7.5187  -13.3112   18.6112 N   0  0  0  0  0  0  0  0  0  0  0  0
    7.6475  -14.8896   20.3721 C   0  0  0  0  0  0  0  0  0  0  0  0
    7.0623  -14.0221   21.0446 O   0  0  0  0  0  0  0  0  0  0  0  0
    7.5972  -21.1830   21.9863 N   0  0  0  0  0  0  0  0  0  0  0  0
    7.6924  -21.3013   23.4233 C   0  0  0  0  0  0  0  0  0  0  0  0
    8.7194  -21.8735   23.9540 N   0  0  0  0  0  0  0  0  0  0  0  0
    6.6804  -20.8087   24.2712 N   0  0  0  0  0  0  0  0  0  0  0  0
    5.9147  -19.6497   23.8802 C   0  0  0  0  0  0  0  0  0  0  0  0
    6.8338  -18.4749   23.8374 C   0  0  0  0  0  0  0  0  0  0  0  0
    7.2513  -18.0310   22.4771 C   0  0  0  0  0  0  0  0  0  0  0  0
    7.1632  -16.6003   22.1610 C   0  0  2  0  0  0  0  0  0  0  0  0
    7.6992  -16.1831   20.8989 N   0  0  0  0  0  0  0  0  0  0  0  0
    7.8878  -15.7961   23.1893 C   0  0  0  0  0  0  0  0  0  0  0  0
    9.1450  -15.7080   23.1907 O   0  0  0  0  0  0  0  0  0  0  0  0
    8.8083  -21.9490   24.9797 C   0  0  0  0  0  0  0  0  0  0  0  0
    6.2289  -11.2559   26.8791 C   0  0  2  0  0  0  0  0  0  0  0  0
    7.4381  -12.2553   26.7580 C   0  0  0  0  0  0  0  0  0  0  0  0
    7.5233  -12.8557   28.1318 C   0  0  0  0  0  0  0  0  0  0  0  0
    7.0767  -13.1466   25.6484 C   0  0  1  0  0  0  0  0  0  0  0  0
    7.9006  -14.2829   25.2374 N   0  0  0  0  0  0  0  0  0  0  0  0
    7.2027  -15.0908   24.2160 C   0  0  0  0  0  0  0  0  0  0  0  0
    8.4043  -15.1085   26.3114 O   0  0  0  0  0  0  0  0  0  0  0  0
    9.5902  -14.9945   26.9818 O   0  0  0  0  0  0  0  0  0  0  0  0
  2  1  1  6
  2  4  1  0
  3  2  1  0
  4  5  1  1
  6  7  2  0
  6  4  1  0
  8  9  1  0
  9 11  1  0
 10  9  2  0
 11 12  1  0
 12 13  1  0
 13 14  1  0
 15 14  1  1
 15 16  1  0
 16  6  1  0
 17 18  2  0
 17 15  1  0
 20 19  1  1
 20 22  1  0
 21 20  1  0
 23 22  1  6
 23 24  1  0
 24 17  1  0
 25 26  1  0
 25 23  1  0
 27 25  2  0
M  END
$$$$
