TRL.pdb
     RDKit          3D

 27 26  0  0  1  0  0  0  0  0999 V2000
    8.7721  -12.1761   20.4762 C   0  0  0  0  0  0  0  0  0  0  0  0
    7.7958  -12.8203   19.5297 C   0  0  1  0  0  0  0  0  0  0  0  0
    7.7973  -12.1124   18.3312 O   0  0  0  0  0  0  0  0  0  0  0  0
    8.1694  -14.2755   19.2687 C   0  0  2  0  0  0  0  0  0  0  0  0
    7.2360  -14.8306   18.3151 N   0  0  0  0  0  0  0  0  0  0  0  0
    8.0907  -15.0824   20.5094 C   0  0  0  0  0  0  0  0  0  0  0  0
    6.9843  -15.5575   20.8212 O   0  0  0  0  0  0  0  0  0  0  0  0
   10.1360  -21.4837   19.5151 N   0  0  0  0  0  0  0  0  0  0  0  0
    9.9260  -21.4233   20.9435 C   0  0  0  0  0  0  0  0  0  0  0  0
    9.2154  -22.3280   21.5269 N   0  0  0  0  0  0  0  0  0  0  0  0
   10.4770  -20.3887   21.7254 N   0  0  0  0  0  0  0  0  0  0  0  0
   11.1091  -19.2607   21.0847 C   0  0  0  0  0  0  0  0  0  0  0  0
   10.1552  -18.1135   21.1105 C   0  0  0  0  0  0  0  0  0  0  0  0
   10.0237  -17.4125   22.4194 C   0  0  0  0  0  0  0  0  0  0  0  0
    9.1490  -16.2358   22.4870 C   0  0  2  0  0  0  0  0  0  0  0  0
    9.1671  -15.3514   21.3593 N   0  0  0  0  0  0  0  0  0  0  0  0
    9.5065  -15.3904   23.6646 C   0  0  0  0  0  0  0  0  0  0  0  0
    9.9269  -14.2105   23.5249 O   0  0  0  0  0  0  0  0  0  0  0  0
    9.0246  -22.2750   22.5401 C   0  0  0  0  0  0  0  0  0  0  0  0
    6.0572  -12.5612   25.6566 C   0  0  2  0  0  0  0  0  0  0  0  0
    7.5883  -12.8988   25.5243 C   0  0  0  0  0  0  0  0  0  0  0  0
    8.2260  -11.9936   26.5387 C   0  0  0  0  0  0  0  0  0  0  0  0
    7.6734  -14.3462   25.7569 C   0  0  2  0  0  0  0  0  0  0  0  0
    8.9185  -15.0245   26.1151 N   0  0  0  0  0  0  0  0  0  0  0  0
    9.3928  -15.8680   24.9987 C   0  0  0  0  0  0  0  0  0  0  0  0
    8.8924  -15.7594   27.3594 O   0  0  0  0  0  0  0  0  0  0  0  0
    8.5503  -17.0671   27.5630 O   0  0  0  0  0  0  0  0  0  0  0  0
  2  1  1  1
  2  4  1  0
  3  2  1  0
  4  5  1  6
  6  7  2  0
  6  4  1  0
  8  9  1  0
  9 11  1  0
 10  9  2  0
 11 12  1  0
 12 13  1  0
 13 14  1  0
 15 14  1  6
 15 16  1  0
 16  6  1  0
 17 18  2  0
 17 15  1  0
 20 19  1  6
 20 22  1  0
 21 20  1  0
 23 22  1  6
 23 24  1  0
 24 17  1  0
 25 26  1  0
 25 23  1  0
 27 25  2  0
M  END
$$$$
