TRL.pdb
     RDKit          3D

 27 26  0  0  1  0  0  0  0  0999 V2000
    8.5476  -11.8161   18.4916 C   0  0  0  0  0  0  0  0  0  0  0  0
    8.7219  -12.7365   19.6691 C   0  0  1  0  0  0  0  0  0  0  0  0
    8.2745  -12.0883   20.8168 O   0  0  0  0  0  0  0  0  0  0  0  0
    7.9394  -14.0301   19.4701 C   0  0  2  0  0  0  0  0  0  0  0  0
    6.5400  -13.7063   19.3103 N   0  0  0  0  0  0  0  0  0  0  0  0
    8.0711  -14.9251   20.6441 C   0  0  0  0  0  0  0  0  0  0  0  0
    7.1044  -15.0038   21.4228 O   0  0  0  0  0  0  0  0  0  0  0  0
    9.6921  -21.9117   22.6506 N   0  0  0  0  0  0  0  0  0  0  0  0
   10.5638  -21.7235   23.7875 C   0  0  0  0  0  0  0  0  0  0  0  0
   10.5065  -22.5416   24.7831 N   0  0  0  0  0  0  0  0  0  0  0  0
   11.4815  -20.6555   23.8429 N   0  0  0  0  0  0  0  0  0  0  0  0
   11.5501  -19.7085   22.7562 C   0  0  0  0  0  0  0  0  0  0  0  0
   10.4307  -18.7344   22.9137 C   0  0  0  0  0  0  0  0  0  0  0  0
   10.3115  -17.7085   21.8389 C   0  0  0  0  0  0  0  0  0  0  0  0
    9.3130  -16.6459   22.0071 C   0  0  2  0  0  0  0  0  0  0  0  0
    9.2016  -15.6898   20.9452 N   0  0  0  0  0  0  0  0  0  0  0  0
    9.6056  -15.8484   23.2349 C   0  0  0  0  0  0  0  0  0  0  0  0
   10.1970  -14.7372   23.1730 O   0  0  0  0  0  0  0  0  0  0  0  0
   11.1195  -22.4152   25.6042 C   0  0  0  0  0  0  0  0  0  0  0  0
    8.4588  -12.1842   26.1437 C   0  0  2  0  0  0  0  0  0  0  0  0
    7.5503  -13.4384   26.4218 C   0  0  0  0  0  0  0  0  0  0  0  0
    6.1594  -12.8877   26.2914 C   0  0  0  0  0  0  0  0  0  0  0  0
    7.9805  -14.4377   25.4356 C   0  0  1  0  0  0  0  0  0  0  0  0
    9.0701  -15.3820   25.6804 N   0  0  0  0  0  0  0  0  0  0  0  0
    9.2353  -16.2968   24.5321 C   0  0  0  0  0  0  0  0  0  0  0  0
    8.9981  -16.1073   26.9285 O   0  0  0  0  0  0  0  0  0  0  0  0
    9.5958  -15.8033   28.1197 O   0  0  0  0  0  0  0  0  0  0  0  0
  2  1  1  6
  2  4  1  0
  3  2  1  0
  4  5  1  1
  6  7  2  0
  6  4  1  0
  8  9  1  0
  9 11  1  0
 10  9  2  0
 11 12  1  0
 12 13  1  0
 13 14  1  0
 15 14  1  6
 15 16  1  0
 16  6  1  0
 17 18  2  0
 17 15  1  0
 20 19  1  1
 20 22  1  0
 21 20  1  0
 23 22  1  6
 23 24  1  0
 24 17  1  0
 25 26  1  0
 25 23  1  0
 27 25  2  0
M  END
$$$$
