TRL.pdb
     RDKit          3D

 27 26  0  0  1  0  0  0  0  0999 V2000
    9.1359  -12.0097   20.7433 C   0  0  0  0  0  0  0  0  0  0  0  0
    8.1957  -12.5036   19.6774 C   0  0  1  0  0  0  0  0  0  0  0  0
    8.3117  -11.6823   18.5596 O   0  0  0  0  0  0  0  0  0  0  0  0
    8.5158  -13.9443   19.2934 C   0  0  2  0  0  0  0  0  0  0  0  0
    7.6315  -14.3470   18.2236 N   0  0  0  0  0  0  0  0  0  0  0  0
    8.3030  -14.8655   20.4347 C   0  0  0  0  0  0  0  0  0  0  0  0
    7.1356  -15.2119   20.6887 O   0  0  0  0  0  0  0  0  0  0  0  0
   12.4854  -19.4577   19.7174 N   0  0  0  0  0  0  0  0  0  0  0  0
   11.4130  -19.6428   18.7669 C   0  0  0  0  0  0  0  0  0  0  0  0
   11.6828  -19.7805   17.5131 N   0  0  0  0  0  0  0  0  0  0  0  0
   10.0645  -19.6716   19.1747 N   0  0  0  0  0  0  0  0  0  0  0  0
    9.7172  -19.3436   20.5365 C   0  0  0  0  0  0  0  0  0  0  0  0
   10.4253  -18.0840   20.9089 C   0  0  0  0  0  0  0  0  0  0  0  0
   10.0696  -17.5125   22.2389 C   0  0  0  0  0  0  0  0  0  0  0  0
    9.1533  -16.3665   22.2746 C   0  0  2  0  0  0  0  0  0  0  0  0
    9.3159  -15.3768   21.2507 N   0  0  0  0  0  0  0  0  0  0  0  0
    9.2913  -15.6318   23.5671 C   0  0  0  0  0  0  0  0  0  0  0  0
   10.3372  -14.9881   23.8503 O   0  0  0  0  0  0  0  0  0  0  0  0
   10.9245  -19.8439   16.8154 C   0  0  0  0  0  0  0  0  0  0  0  0
    5.2230  -12.9836   26.3883 C   0  0  1  0  0  0  0  0  0  0  0  0
    6.6172  -13.1908   25.6890 C   0  0  0  0  0  0  0  0  0  0  0  0
    7.3171  -11.8842   25.9299 C   0  0  0  0  0  0  0  0  0  0  0  0
    7.1793  -14.3896   26.3239 C   0  0  2  0  0  0  0  0  0  0  0  0
    8.4238  -15.0174   25.8811 N   0  0  0  0  0  0  0  0  0  0  0  0
    8.2568  -15.6190   24.5420 C   0  0  0  0  0  0  0  0  0  0  0  0
    9.0157  -15.9523   26.8109 O   0  0  0  0  0  0  0  0  0  0  0  0
    9.2817  -17.2798   26.6224 O   0  0  0  0  0  0  0  0  0  0  0  0
  2  1  1  1
  2  4  1  0
  3  2  1  0
  4  5  1  6
  6  7  2  0
  6  4  1  0
  8  9  1  0
  9 11  1  0
 10  9  2  0
 11 12  1  0
 12 13  1  0
 13 14  1  0
 15 14  1  6
 15 16  1  0
 16  6  1  0
 17 18  2  0
 17 15  1  0
 20 19  1  6
 20 22  1  0
 21 20  1  0
 23 22  1  6
 23 24  1  0
 24 17  1  0
 25 26  1  0
 25 23  1  0
 27 25  2  0
M  END
$$$$
