TRL.pdb
     RDKit          3D

 27 26  0  0  1  0  0  0  0  0999 V2000
    9.1330  -14.0808   18.1236 C   0  0  0  0  0  0  0  0  0  0  0  0
    8.7360  -14.4413   19.5295 C   0  0  1  0  0  0  0  0  0  0  0  0
    9.2192  -13.4662   20.3973 O   0  0  0  0  0  0  0  0  0  0  0  0
    7.2199  -14.5406   19.6590 C   0  0  2  0  0  0  0  0  0  0  0  0
    6.6461  -13.2385   19.4064 N   0  0  0  0  0  0  0  0  0  0  0  0
    6.8226  -14.9590   21.0242 C   0  0  0  0  0  0  0  0  0  0  0  0
    6.5330  -14.0670   21.8414 O   0  0  0  0  0  0  0  0  0  0  0  0
    2.5120  -18.3815   21.1652 N   0  0  0  0  0  0  0  0  0  0  0  0
    3.0228  -19.6300   20.6474 C   0  0  0  0  0  0  0  0  0  0  0  0
    2.6734  -20.0285   19.4714 N   0  0  0  0  0  0  0  0  0  0  0  0
    3.8975  -20.4371   21.4018 N   0  0  0  0  0  0  0  0  0  0  0  0
    5.2251  -19.9646   21.7125 C   0  0  0  0  0  0  0  0  0  0  0  0
    5.1035  -18.8208   22.6631 C   0  0  0  0  0  0  0  0  0  0  0  0
    6.3830  -18.1541   23.0381 C   0  0  0  0  0  0  0  0  0  0  0  0
    6.4997  -16.7085   22.8120 C   0  0  2  0  0  0  0  0  0  0  0  0
    6.7480  -16.2828   21.4661 N   0  0  0  0  0  0  0  0  0  0  0  0
    7.6195  -16.1452   23.6231 C   0  0  0  0  0  0  0  0  0  0  0  0
    8.3959  -15.2696   23.1554 O   0  0  0  0  0  0  0  0  0  0  0  0
    3.0123  -20.9296   19.0987 C   0  0  0  0  0  0  0  0  0  0  0  0
    8.8701  -12.4601   26.4189 C   0  0  2  0  0  0  0  0  0  0  0  0
    7.7780  -13.3852   27.0725 C   0  0  0  0  0  0  0  0  0  0  0  0
    6.6466  -12.4364   27.3460 C   0  0  0  0  0  0  0  0  0  0  0  0
    7.5495  -14.4484   26.0859 C   0  0  1  0  0  0  0  0  0  0  0  0
    8.3771  -15.6514   26.0037 N   0  0  0  0  0  0  0  0  0  0  0  0
    7.8688  -16.5638   24.9587 C   0  0  0  0  0  0  0  0  0  0  0  0
    8.5934  -16.3459   27.2527 O   0  0  0  0  0  0  0  0  0  0  0  0
    9.6342  -16.2086   28.1282 O   0  0  0  0  0  0  0  0  0  0  0  0
  2  1  1  6
  2  4  1  0
  3  2  1  0
  4  5  1  1
  6  7  2  0
  6  4  1  0
  8  9  1  0
  9 11  1  0
 10  9  2  0
 11 12  1  0
 12 13  1  0
 13 14  1  0
 15 14  1  6
 15 16  1  0
 16  6  1  0
 17 18  2  0
 17 15  1  0
 20 19  1  1
 20 22  1  0
 21 20  1  0
 23 22  1  6
 23 24  1  0
 24 17  1  0
 25 26  1  0
 25 23  1  0
 27 25  2  0
M  END
$$$$
