FEC.pdb
     RDKit          3D

 27 27  0  0  1  0  0  0  0  0999 V2000
   16.2751  -14.7752    6.6052 N   0  0  0  0  0  0  0  0  0  0  0  0
   17.2327  -15.8061    6.3773 C   0  0  1  0  0  0  0  0  0  0  0  0
   18.4585  -15.3098    5.6825 C   0  0  0  0  0  0  0  0  0  0  0  0
   18.2371  -14.7619    4.3470 C   0  0  0  0  0  0  0  0  0  0  0  0
   18.4736  -13.4444    4.0306 C   0  0  0  0  0  0  0  0  0  0  0  0
   18.2743  -12.9103    2.7913 C   0  0  0  0  0  0  0  0  0  0  0  0
   17.8050  -13.7433    1.7894 C   0  0  0  0  0  0  0  0  0  0  0  0
   17.5471  -15.0919    2.0546 C   0  0  0  0  0  0  0  0  0  0  0  0
   17.7690  -15.5775    3.3329 C   0  0  0  0  0  0  0  0  0  0  0  0
   17.5961  -16.5205    7.6535 C   0  0  0  0  0  0  0  0  0  0  0  0
   17.4872  -15.9703    8.7808 O   0  0  0  0  0  0  0  0  0  0  0  0
   18.0801  -17.8508    7.6379 N   0  0  0  0  0  0  0  0  0  0  0  0
   18.7557  -18.4599    8.7939 C   0  0  1  0  0  0  0  0  0  0  0  0
   18.4330  -19.9053    8.9215 C   0  0  0  0  0  0  0  0  0  0  0  0
   17.1630  -20.1857    9.6402 C   0  0  0  0  0  0  0  0  0  0  0  0
   16.3451  -21.2818    9.0715 C   0  0  0  0  0  0  0  0  0  0  0  0
   16.6747  -21.9826    8.0845 O   0  0  0  0  0  0  0  0  0  0  0  0
   20.2123  -18.1540    8.7431 C   0  0  0  0  0  0  0  0  0  0  0  0
   20.7712  -18.1171    7.6257 O   0  0  0  0  0  0  0  0  0  0  0  0
   15.1138  -21.5292    9.7081 O   0  0  0  0  0  0  0  0  0  0  0  0
   20.9788  -17.9059    9.9050 N   0  0  0  0  0  0  0  0  0  0  0  0
   22.3947  -17.7010    9.9302 C   0  0  1  0  0  0  0  0  0  0  0  0
   22.7653  -16.2485   10.1714 C   0  0  0  0  0  0  0  0  0  0  0  0
   24.5621  -16.0427   10.0992 S   0  0  0  0  0  0  0  0  0  0  0  0
   22.9421  -18.5070   11.0820 C   0  0  0  0  0  0  0  0  0  0  0  0
   24.1761  -18.7273   11.1167 O   0  0  0  0  0  0  0  0  0  0  0  0
   22.1332  -18.9944   12.0728 O   0  0  0  0  0  0  0  0  0  0  0  0
  2  1  1  1
  3  2  1  0
  3  4  1  0
  4  9  2  0
  5  4  1  0
  5  6  2  0
  6  7  1  0
  7  8  2  0
  9  8  1  0
 10  2  1  0
 10 11  2  0
 12 10  1  0
 13 18  1  0
 13 12  1  0
 13 14  1  6
 15 14  1  0
 16 15  1  0
 17 16  2  0
 18 21  1  0
 19 18  2  0
 20 16  1  0
 21 22  1  0
 22 25  1  0
 23 24  1  0
 22 23  1  1
 25 26  2  0
 25 27  1  0
M  END
$$$$
