FEC.pdb
     RDKit          3D

 27 27  0  0  1  0  0  0  0  0999 V2000
   27.5678  -22.2557  -12.1486 N   0  0  0  0  0  0  0  0  0  0  0  0
   26.9143  -21.4847  -11.1436 C   0  0  1  0  0  0  0  0  0  0  0  0
   27.8238  -20.4908  -10.4981 C   0  0  0  0  0  0  0  0  0  0  0  0
   29.0783  -21.0366   -9.9871 C   0  0  0  0  0  0  0  0  0  0  0  0
   30.1550  -21.3192  -10.7951 C   0  0  0  0  0  0  0  0  0  0  0  0
   31.3359  -21.8291  -10.3410 C   0  0  0  0  0  0  0  0  0  0  0  0
   31.4604  -22.0788   -8.9845 C   0  0  0  0  0  0  0  0  0  0  0  0
   30.3975  -21.8106   -8.1161 C   0  0  0  0  0  0  0  0  0  0  0  0
   29.2225  -21.2927   -8.6357 C   0  0  0  0  0  0  0  0  0  0  0  0
   25.6782  -20.8075  -11.6773 C   0  0  0  0  0  0  0  0  0  0  0  0
   25.0215  -19.9801  -10.9919 O   0  0  0  0  0  0  0  0  0  0  0  0
   25.1992  -21.0764  -12.9820 N   0  0  0  0  0  0  0  0  0  0  0  0
   23.9539  -20.4920  -13.5031 C   0  0  1  0  0  0  0  0  0  0  0  0
   24.0642  -20.1590  -14.9476 C   0  0  0  0  0  0  0  0  0  0  0  0
   22.8398  -19.5489  -15.5281 C   0  0  0  0  0  0  0  0  0  0  0  0
   22.8288  -19.4403  -17.0052 C   0  0  0  0  0  0  0  0  0  0  0  0
   23.6914  -19.9413  -17.7661 O   0  0  0  0  0  0  0  0  0  0  0  0
   22.8031  -21.3720  -13.1579 C   0  0  0  0  0  0  0  0  0  0  0  0
   23.0440  -22.5110  -12.7029 O   0  0  0  0  0  0  0  0  0  0  0  0
   21.7588  -18.7155  -17.5643 O   0  0  0  0  0  0  0  0  0  0  0  0
   21.4587  -20.9676  -13.3253 N   0  0  0  0  0  0  0  0  0  0  0  0
   20.3223  -21.6305  -12.7628 C   0  0  1  0  0  0  0  0  0  0  0  0
   20.3982  -21.7259  -11.2493 C   0  0  0  0  0  0  0  0  0  0  0  0
   18.9067  -22.5184  -10.5985 S   0  0  0  0  0  0  0  0  0  0  0  0
   19.1079  -20.8038  -13.1057 C   0  0  0  0  0  0  0  0  0  0  0  0
   19.2449  -19.5608  -13.1987 O   0  0  0  0  0  0  0  0  0  0  0  0
   17.8805  -21.3730  -13.3137 O   0  0  0  0  0  0  0  0  0  0  0  0
  2  1  1  6
  3  2  1  0
  3  4  1  0
  4  9  2  0
  5  4  1  0
  5  6  2  0
  6  7  1  0
  7  8  2  0
  9  8  1  0
 10  2  1  0
 10 11  2  0
 12 10  1  0
 13 18  1  0
 13 12  1  0
 13 14  1  6
 15 14  1  0
 16 15  1  0
 17 16  2  0
 18 21  1  0
 19 18  2  0
 20 16  1  0
 21 22  1  0
 22 25  1  0
 23 24  1  0
 22 23  1  1
 25 26  2  0
 25 27  1  0
M  END
$$$$
