FEC.pdb
     RDKit          3D

 27 27  0  0  1  0  0  0  0  0999 V2000
   23.2978   -7.6305  -15.7854 N   0  0  0  0  0  0  0  0  0  0  0  0
   21.9943   -8.1234  -15.4862 C   0  0  1  0  0  0  0  0  0  0  0  0
   22.0224   -9.3201  -14.5926 C   0  0  0  0  0  0  0  0  0  0  0  0
   22.6507  -10.5081  -15.1644 C   0  0  0  0  0  0  0  0  0  0  0  0
   23.7888  -11.0768  -14.6420 C   0  0  0  0  0  0  0  0  0  0  0  0
   24.3933  -12.1853  -15.1585 C   0  0  0  0  0  0  0  0  0  0  0  0
   23.8286  -12.7753  -16.2770 C   0  0  0  0  0  0  0  0  0  0  0  0
   22.6711  -12.2394  -16.8503 C   0  0  0  0  0  0  0  0  0  0  0  0
   22.1020  -11.1120  -16.2811 C   0  0  0  0  0  0  0  0  0  0  0  0
   21.1115   -7.0475  -14.9080 C   0  0  0  0  0  0  0  0  0  0  0  0
   21.4928   -6.3070  -13.9637 O   0  0  0  0  0  0  0  0  0  0  0  0
   19.8053   -6.8234  -15.4059 N   0  0  0  0  0  0  0  0  0  0  0  0
   18.9409   -5.7456  -14.9010 C   0  0  1  0  0  0  0  0  0  0  0  0
   18.1647   -5.1044  -15.9946 C   0  0  0  0  0  0  0  0  0  0  0  0
   17.2178   -4.0548  -15.5363 C   0  0  0  0  0  0  0  0  0  0  0  0
   16.4177   -3.4162  -16.6067 C   0  0  0  0  0  0  0  0  0  0  0  0
   16.4884   -3.7090  -17.8246 O   0  0  0  0  0  0  0  0  0  0  0  0
   18.1137   -6.2527  -13.7712 C   0  0  0  0  0  0  0  0  0  0  0  0
   17.6359   -7.4045  -13.8572 O   0  0  0  0  0  0  0  0  0  0  0  0
   15.5221   -2.4112  -16.1936 O   0  0  0  0  0  0  0  0  0  0  0  0
   17.8520   -5.4832  -12.6142 N   0  0  0  0  0  0  0  0  0  0  0  0
   16.9876   -5.8735  -11.5428 C   0  0  1  0  0  0  0  0  0  0  0  0
   17.7250   -6.0026  -10.2218 C   0  0  0  0  0  0  0  0  0  0  0  0
   16.5623   -6.4085   -8.8954 S   0  0  0  0  0  0  0  0  0  0  0  0
   15.9554   -4.7851  -11.3826 C   0  0  0  0  0  0  0  0  0  0  0  0
   16.3168   -3.5966  -11.5542 O   0  0  0  0  0  0  0  0  0  0  0  0
   14.6548   -5.0636  -11.0593 O   0  0  0  0  0  0  0  0  0  0  0  0
  2  1  1  1
  3  2  1  0
  3  4  1  0
  4  9  2  0
  5  4  1  0
  5  6  2  0
  6  7  1  0
  7  8  2  0
  9  8  1  0
 10  2  1  0
 10 11  2  0
 12 10  1  0
 13 18  1  0
 13 12  1  0
 13 14  1  6
 15 14  1  0
 16 15  1  0
 17 16  2  0
 18 21  1  0
 19 18  2  0
 20 16  1  0
 21 22  1  0
 22 25  1  0
 23 24  1  0
 22 23  1  1
 25 26  2  0
 25 27  1  0
M  END
$$$$
