FEC.pdb
     RDKit          3D

 27 27  0  0  1  0  0  0  0  0999 V2000
   24.7535  -20.7121   -8.1739 N   0  0  0  0  0  0  0  0  0  0  0  0
   25.5683  -20.2268   -9.2379 C   0  0  1  0  0  0  0  0  0  0  0  0
   26.9925  -20.6608   -9.1164 C   0  0  0  0  0  0  0  0  0  0  0  0
   27.7446  -20.0294   -8.0354 C   0  0  0  0  0  0  0  0  0  0  0  0
   27.5299  -18.7316   -7.6339 C   0  0  0  0  0  0  0  0  0  0  0  0
   28.2194  -18.1208   -6.6276 C   0  0  0  0  0  0  0  0  0  0  0  0
   29.1956  -18.8499   -5.9693 C   0  0  0  0  0  0  0  0  0  0  0  0
   29.4565  -20.1740   -6.3358 C   0  0  0  0  0  0  0  0  0  0  0  0
   28.7233  -20.7408   -7.3655 C   0  0  0  0  0  0  0  0  0  0  0  0
   25.0089  -20.6060  -10.5850 C   0  0  0  0  0  0  0  0  0  0  0  0
   24.3432  -21.6606  -10.7586 O   0  0  0  0  0  0  0  0  0  0  0  0
   25.2113  -19.7860  -11.7211 N   0  0  0  0  0  0  0  0  0  0  0  0
   24.6666  -20.1218  -13.0456 C   0  0  1  0  0  0  0  0  0  0  0  0
   24.7057  -18.9572  -13.9685 C   0  0  0  0  0  0  0  0  0  0  0  0
   24.2136  -19.2490  -15.3400 C   0  0  0  0  0  0  0  0  0  0  0  0
   22.7437  -19.3786  -15.4684 C   0  0  0  0  0  0  0  0  0  0  0  0
   21.9068  -18.7628  -14.7653 O   0  0  0  0  0  0  0  0  0  0  0  0
   25.3342  -21.3465  -13.5675 C   0  0  0  0  0  0  0  0  0  0  0  0
   26.5532  -21.5005  -13.3372 O   0  0  0  0  0  0  0  0  0  0  0  0
   22.2853  -20.2656  -16.4613 O   0  0  0  0  0  0  0  0  0  0  0  0
   24.6434  -22.3331  -14.3082 N   0  0  0  0  0  0  0  0  0  0  0  0
   25.2300  -23.5231  -14.8438 C   0  0  1  0  0  0  0  0  0  0  0  0
   24.9707  -24.7392  -13.9724 C   0  0  0  0  0  0  0  0  0  0  0  0
   23.2018  -25.1220  -13.9457 S   0  0  0  0  0  0  0  0  0  0  0  0
   24.5824  -23.7769  -16.1824 C   0  0  0  0  0  0  0  0  0  0  0  0
   23.6247  -23.0436  -16.5252 O   0  0  0  0  0  0  0  0  0  0  0  0
   25.0115  -24.7742  -17.0161 O   0  0  0  0  0  0  0  0  0  0  0  0
  2  1  1  1
  3  2  1  0
  3  4  1  0
  4  9  2  0
  5  4  1  0
  5  6  2  0
  6  7  1  0
  7  8  2  0
  9  8  1  0
 10  2  1  0
 10 11  2  0
 12 10  1  0
 13 18  1  0
 13 12  1  0
 13 14  1  6
 15 14  1  0
 16 15  1  0
 17 16  2  0
 18 21  1  0
 19 18  2  0
 20 16  1  0
 21 22  1  0
 22 25  1  0
 23 24  1  0
 22 23  1  1
 25 26  2  0
 25 27  1  0
M  END
$$$$
