FEC.pdb
     RDKit          3D

 27 27  0  0  1  0  0  0  0  0999 V2000
   28.9685  -28.1823  -16.9473 N   0  0  0  0  0  0  0  0  0  0  0  0
   27.8494  -27.3709  -17.2949 C   0  0  1  0  0  0  0  0  0  0  0  0
   26.5456  -28.0716  -17.0938 C   0  0  0  0  0  0  0  0  0  0  0  0
   26.2728  -29.1580  -18.0310 C   0  0  0  0  0  0  0  0  0  0  0  0
   26.4317  -30.4846  -17.7047 C   0  0  0  0  0  0  0  0  0  0  0  0
   26.1836  -31.5158  -18.5627 C   0  0  0  0  0  0  0  0  0  0  0  0
   25.7454  -31.2106  -19.8405 C   0  0  0  0  0  0  0  0  0  0  0  0
   25.5664  -29.8786  -20.2269 C   0  0  0  0  0  0  0  0  0  0  0  0
   25.8343  -28.8739  -19.3115 C   0  0  0  0  0  0  0  0  0  0  0  0
   27.8659  -26.0552  -16.5599 C   0  0  0  0  0  0  0  0  0  0  0  0
   28.5051  -25.8982  -15.4865 O   0  0  0  0  0  0  0  0  0  0  0  0
   27.1567  -24.9320  -17.0494 N   0  0  0  0  0  0  0  0  0  0  0  0
   27.2119  -23.6157  -16.3952 C   0  0  1  0  0  0  0  0  0  0  0  0
   27.5458  -22.5350  -17.3597 C   0  0  0  0  0  0  0  0  0  0  0  0
   28.9041  -22.6447  -17.9525 C   0  0  0  0  0  0  0  0  0  0  0  0
   29.2241  -21.6345  -18.9873 C   0  0  0  0  0  0  0  0  0  0  0  0
   30.2932  -21.5951  -19.6425 O   0  0  0  0  0  0  0  0  0  0  0  0
   25.9611  -23.3872  -15.6198 C   0  0  0  0  0  0  0  0  0  0  0  0
   24.9039  -23.9105  -16.0332 O   0  0  0  0  0  0  0  0  0  0  0  0
   28.2351  -20.6617  -19.2289 O   0  0  0  0  0  0  0  0  0  0  0  0
   25.9278  -22.6055  -14.4421 N   0  0  0  0  0  0  0  0  0  0  0  0
   24.7827  -22.4279  -13.6027 C   0  0  1  0  0  0  0  0  0  0  0  0
   25.1129  -21.6794  -12.3236 C   0  0  0  0  0  0  0  0  0  0  0  0
   25.8640  -22.8028  -11.1195 S   0  0  0  0  0  0  0  0  0  0  0  0
   23.7890  -21.5945  -14.3733 C   0  0  0  0  0  0  0  0  0  0  0  0
   24.2211  -20.8534  -15.2880 O   0  0  0  0  0  0  0  0  0  0  0  0
   22.4484  -21.6300  -14.0990 O   0  0  0  0  0  0  0  0  0  0  0  0
  2  1  1  1
  3  2  1  0
  3  4  1  0
  4  9  2  0
  5  4  1  0
  5  6  2  0
  6  7  1  0
  7  8  2  0
  9  8  1  0
 10  2  1  0
 10 11  2  0
 12 10  1  0
 13 18  1  0
 13 12  1  0
 13 14  1  6
 15 14  1  0
 16 15  1  0
 17 16  2  0
 18 21  1  0
 19 18  2  0
 20 16  1  0
 21 22  1  0
 22 25  1  0
 23 24  1  0
 22 23  1  1
 25 26  2  0
 25 27  1  0
M  END
$$$$
