FEC.pdb
     RDKit          3D

 27 27  0  0  1  0  0  0  0  0999 V2000
   20.7891  -15.2207  -17.5682 N   0  0  0  0  0  0  0  0  0  0  0  0
   20.0873  -14.1565  -18.2057 C   0  0  1  0  0  0  0  0  0  0  0  0
   18.6066  -14.2612  -18.0376 C   0  0  0  0  0  0  0  0  0  0  0  0
   17.9874  -15.4136  -18.6869 C   0  0  0  0  0  0  0  0  0  0  0  0
   17.6584  -16.5653  -18.0109 C   0  0  0  0  0  0  0  0  0  0  0  0
   17.0801  -17.6538  -18.5954 C   0  0  0  0  0  0  0  0  0  0  0  0
   16.8070  -17.5980  -19.9520 C   0  0  0  0  0  0  0  0  0  0  0  0
   17.1205  -16.4520  -20.6895 C   0  0  0  0  0  0  0  0  0  0  0  0
   17.7067  -15.3775  -20.0406 C   0  0  0  0  0  0  0  0  0  0  0  0
   20.5816  -12.8092  -17.7455 C   0  0  0  0  0  0  0  0  0  0  0  0
   20.9708  -12.6084  -16.5650 O   0  0  0  0  0  0  0  0  0  0  0  0
   20.6283  -11.7036  -18.6285 N   0  0  0  0  0  0  0  0  0  0  0  0
   21.2106  -10.4087  -18.2438 C   0  0  1  0  0  0  0  0  0  0  0  0
   21.4718   -9.5489  -19.4279 C   0  0  0  0  0  0  0  0  0  0  0  0
   22.1543   -8.2671  -19.1124 C   0  0  0  0  0  0  0  0  0  0  0  0
   22.4600   -7.4108  -20.2817 C   0  0  0  0  0  0  0  0  0  0  0  0
   22.9513   -7.8215  -21.3605 O   0  0  0  0  0  0  0  0  0  0  0  0
   20.3701   -9.7726  -17.1918 C   0  0  0  0  0  0  0  0  0  0  0  0
   19.1290   -9.7798  -17.3404 O   0  0  0  0  0  0  0  0  0  0  0  0
   22.1659   -6.0412  -20.1392 O   0  0  0  0  0  0  0  0  0  0  0  0
   20.9221   -9.1659  -16.0401 N   0  0  0  0  0  0  0  0  0  0  0  0
   20.1714   -8.5103  -15.0136 C   0  0  1  0  0  0  0  0  0  0  0  0
   20.4433   -9.0906  -13.6371 C   0  0  0  0  0  0  0  0  0  0  0  0
   19.5692   -8.1345  -12.3730 S   0  0  0  0  0  0  0  0  0  0  0  0
   20.6092   -7.0668  -14.9928 C   0  0  0  0  0  0  0  0  0  0  0  0
   21.8246   -6.8142  -15.1702 O   0  0  0  0  0  0  0  0  0  0  0  0
   19.7221   -6.0447  -14.7875 O   0  0  0  0  0  0  0  0  0  0  0  0
  2  1  1  1
  3  2  1  0
  3  4  1  0
  4  9  2  0
  5  4  1  0
  5  6  2  0
  6  7  1  0
  7  8  2  0
  9  8  1  0
 10  2  1  0
 10 11  2  0
 12 10  1  0
 13 18  1  0
 13 12  1  0
 13 14  1  6
 15 14  1  0
 16 15  1  0
 17 16  2  0
 18 21  1  0
 19 18  2  0
 20 16  1  0
 21 22  1  0
 22 25  1  0
 23 24  1  0
 22 23  1  1
 25 26  2  0
 25 27  1  0
M  END
$$$$
