FEC.pdb
     RDKit          3D

 27 27  0  0  1  0  0  0  0  0999 V2000
   24.8957  -20.1154   -7.4802 N   0  0  0  0  0  0  0  0  0  0  0  0
   26.0674  -20.1320   -8.2916 C   0  0  1  0  0  0  0  0  0  0  0  0
   27.1744  -20.9330   -7.6878 C   0  0  0  0  0  0  0  0  0  0  0  0
   27.7260  -20.3947   -6.4473 C   0  0  0  0  0  0  0  0  0  0  0  0
   28.6576  -19.3832   -6.4201 C   0  0  0  0  0  0  0  0  0  0  0  0
   29.1869  -18.8648   -5.2748 C   0  0  0  0  0  0  0  0  0  0  0  0
   28.7622  -19.3874   -4.0647 C   0  0  0  0  0  0  0  0  0  0  0  0
   27.8166  -20.4172   -4.0325 C   0  0  0  0  0  0  0  0  0  0  0  0
   27.3145  -20.9030   -5.2287 C   0  0  0  0  0  0  0  0  0  0  0  0
   25.7690  -20.6056   -9.6908 C   0  0  0  0  0  0  0  0  0  0  0  0
   24.6147  -20.9660  -10.0417 O   0  0  0  0  0  0  0  0  0  0  0  0
   26.7828  -20.6667  -10.6770 N   0  0  0  0  0  0  0  0  0  0  0  0
   26.4933  -20.5665  -12.1158 C   0  0  1  0  0  0  0  0  0  0  0  0
   27.7351  -20.6093  -12.9316 C   0  0  0  0  0  0  0  0  0  0  0  0
   27.5025  -20.5751  -14.3989 C   0  0  0  0  0  0  0  0  0  0  0  0
   26.9013  -19.3229  -14.9131 C   0  0  0  0  0  0  0  0  0  0  0  0
   27.2846  -18.1676  -14.6094 O   0  0  0  0  0  0  0  0  0  0  0  0
   25.4701  -21.5803  -12.4941 C   0  0  0  0  0  0  0  0  0  0  0  0
   25.7114  -22.7833  -12.2548 O   0  0  0  0  0  0  0  0  0  0  0  0
   25.8230  -19.4755  -15.8058 O   0  0  0  0  0  0  0  0  0  0  0  0
   24.2454  -21.2328  -13.1093 N   0  0  0  0  0  0  0  0  0  0  0  0
   23.2070  -22.1538  -13.4568 C   0  0  1  0  0  0  0  0  0  0  0  0
   21.9574  -21.9615  -12.6161 C   0  0  0  0  0  0  0  0  0  0  0  0
   21.5063  -20.2095  -12.5603 S   0  0  0  0  0  0  0  0  0  0  0  0
   22.8339  -21.8848  -14.8936 C   0  0  0  0  0  0  0  0  0  0  0  0
   23.3104  -20.8661  -15.4482 O   0  0  0  0  0  0  0  0  0  0  0  0
   22.0000  -22.7158  -15.5921 O   0  0  0  0  0  0  0  0  0  0  0  0
  2  1  1  1
  3  2  1  0
  3  4  1  0
  4  9  2  0
  5  4  1  0
  5  6  2  0
  6  7  1  0
  7  8  2  0
  9  8  1  0
 10  2  1  0
 10 11  2  0
 12 10  1  0
 13 18  1  0
 13 12  1  0
 13 14  1  6
 15 14  1  0
 16 15  1  0
 17 16  2  0
 18 21  1  0
 19 18  2  0
 20 16  1  0
 21 22  1  0
 22 25  1  0
 23 24  1  0
 22 23  1  1
 25 26  2  0
 25 27  1  0
M  END
$$$$
