FEC.pdb
     RDKit          3D

 27 27  0  0  1  0  0  0  0  0999 V2000
   18.5755  -10.8317  -14.6771 N   0  0  0  0  0  0  0  0  0  0  0  0
   17.5463   -9.8828  -14.9453 C   0  0  1  0  0  0  0  0  0  0  0  0
   16.1865  -10.3946  -14.5978 C   0  0  0  0  0  0  0  0  0  0  0  0
   15.6671  -11.4312  -15.4858 C   0  0  0  0  0  0  0  0  0  0  0  0
   15.0923  -11.1531  -16.7040 C   0  0  0  0  0  0  0  0  0  0  0  0
   14.6004  -12.1037  -17.5497 C   0  0  0  0  0  0  0  0  0  0  0  0
   14.6832  -13.4300  -17.1598 C   0  0  0  0  0  0  0  0  0  0  0  0
   15.2577  -13.7709  -15.9313 C   0  0  0  0  0  0  0  0  0  0  0  0
   15.7406  -12.7614  -15.1146 C   0  0  0  0  0  0  0  0  0  0  0  0
   17.8108   -8.5663  -14.2610 C   0  0  0  0  0  0  0  0  0  0  0  0
   18.4119   -8.4967  -13.1569 O   0  0  0  0  0  0  0  0  0  0  0  0
   17.3898   -7.3428  -14.8355 N   0  0  0  0  0  0  0  0  0  0  0  0
   17.5936   -6.0461  -14.1715 C   0  0  1  0  0  0  0  0  0  0  0  0
   17.8987   -4.9688  -15.1491 C   0  0  0  0  0  0  0  0  0  0  0  0
   18.2133   -3.6548  -14.5304 C   0  0  0  0  0  0  0  0  0  0  0  0
   18.5588   -2.5753  -15.4839 C   0  0  0  0  0  0  0  0  0  0  0  0
   19.3233   -2.7087  -16.4697 O   0  0  0  0  0  0  0  0  0  0  0  0
   16.4430   -5.7562  -13.2716 C   0  0  0  0  0  0  0  0  0  0  0  0
   15.2941   -6.0531  -13.6646 O   0  0  0  0  0  0  0  0  0  0  0  0
   17.9697   -1.3203  -15.2375 O   0  0  0  0  0  0  0  0  0  0  0  0
   16.6031   -5.1619  -11.9986 N   0  0  0  0  0  0  0  0  0  0  0  0
   15.5435   -4.8914  -11.0760 C   0  0  1  0  0  0  0  0  0  0  0  0
   15.9161   -5.2439   -9.6469 C   0  0  0  0  0  0  0  0  0  0  0  0
   14.5866   -4.7601   -8.5180 S   0  0  0  0  0  0  0  0  0  0  0  0
   15.2780   -3.4071  -11.1235 C   0  0  0  0  0  0  0  0  0  0  0  0
   16.2620   -2.6303  -11.1502 O   0  0  0  0  0  0  0  0  0  0  0  0
   14.0067   -2.8998  -11.1377 O   0  0  0  0  0  0  0  0  0  0  0  0
  2  1  1  1
  3  2  1  0
  3  4  1  0
  4  9  2  0
  5  4  1  0
  5  6  2  0
  6  7  1  0
  7  8  2  0
  9  8  1  0
 10  2  1  0
 10 11  2  0
 12 10  1  0
 13 18  1  0
 13 12  1  0
 13 14  1  6
 15 14  1  0
 16 15  1  0
 17 16  2  0
 18 21  1  0
 19 18  2  0
 20 16  1  0
 21 22  1  0
 22 25  1  0
 23 24  1  0
 22 23  1  1
 25 26  2  0
 25 27  1  0
M  END
$$$$
