FEC.pdb
     RDKit          3D

 27 27  0  0  1  0  0  0  0  0999 V2000
   24.1233   -9.6691  -18.1625 N   0  0  0  0  0  0  0  0  0  0  0  0
   23.5996   -9.4782  -16.8507 C   0  0  1  0  0  0  0  0  0  0  0  0
   24.6394   -9.0332  -15.8748 C   0  0  0  0  0  0  0  0  0  0  0  0
   25.8251   -9.8825  -15.7995 C   0  0  0  0  0  0  0  0  0  0  0  0
   27.0484   -9.5051  -16.3023 C   0  0  0  0  0  0  0  0  0  0  0  0
   28.1690  -10.2808  -16.2438 C   0  0  0  0  0  0  0  0  0  0  0  0
   28.0712  -11.5245  -15.6425 C   0  0  0  0  0  0  0  0  0  0  0  0
   26.8519  -11.9600  -15.1140 C   0  0  0  0  0  0  0  0  0  0  0  0
   25.7480  -11.1278  -15.2028 C   0  0  0  0  0  0  0  0  0  0  0  0
   22.4288   -8.5293  -16.8513 C   0  0  0  0  0  0  0  0  0  0  0  0
   22.4311   -7.4666  -17.5267 O   0  0  0  0  0  0  0  0  0  0  0  0
   21.2682   -8.7948  -16.0853 N   0  0  0  0  0  0  0  0  0  0  0  0
   20.1022   -7.8981  -16.0800 C   0  0  1  0  0  0  0  0  0  0  0  0
   18.8594   -8.6132  -15.6880 C   0  0  0  0  0  0  0  0  0  0  0  0
   18.3601   -9.5722  -16.7075 C   0  0  0  0  0  0  0  0  0  0  0  0
   17.2097  -10.4026  -16.2823 C   0  0  0  0  0  0  0  0  0  0  0  0
   16.0154  -10.0187  -16.2708 O   0  0  0  0  0  0  0  0  0  0  0  0
   20.4024   -6.6885  -15.2647 C   0  0  0  0  0  0  0  0  0  0  0  0
   21.2227   -6.7945  -14.3275 O   0  0  0  0  0  0  0  0  0  0  0  0
   17.5131  -11.7133  -15.8665 O   0  0  0  0  0  0  0  0  0  0  0  0
   19.7971   -5.4348  -15.5115 N   0  0  0  0  0  0  0  0  0  0  0  0
   20.0703   -4.2308  -14.7883 C   0  0  1  0  0  0  0  0  0  0  0  0
   21.5206   -3.7984  -14.9107 C   0  0  0  0  0  0  0  0  0  0  0  0
   21.8603   -3.2228  -16.5928 S   0  0  0  0  0  0  0  0  0  0  0  0
   19.2190   -3.1428  -15.3943 C   0  0  0  0  0  0  0  0  0  0  0  0
   18.5747   -3.4070  -16.4372 O   0  0  0  0  0  0  0  0  0  0  0  0
   19.1371   -1.8944  -14.8387 O   0  0  0  0  0  0  0  0  0  0  0  0
  2  1  1  6
  3  2  1  0
  3  4  1  0
  4  9  2  0
  5  4  1  0
  5  6  2  0
  6  7  1  0
  7  8  2  0
  9  8  1  0
 10  2  1  0
 10 11  2  0
 12 10  1  0
 13 18  1  0
 13 12  1  0
 13 14  1  1
 15 14  1  0
 16 15  1  0
 17 16  2  0
 18 21  1  0
 19 18  2  0
 20 16  1  0
 21 22  1  0
 22 25  1  0
 23 24  1  0
 22 23  1  6
 25 26  2  0
 25 27  1  0
M  END
$$$$
