FEC.pdb
     RDKit          3D

 27 27  0  0  1  0  0  0  0  0999 V2000
   22.9452   -9.0517  -17.4830 N   0  0  0  0  0  0  0  0  0  0  0  0
   22.6844   -8.2675  -16.3217 C   0  0  1  0  0  0  0  0  0  0  0  0
   23.9332   -7.7621  -15.6761 C   0  0  0  0  0  0  0  0  0  0  0  0
   24.9898   -8.7554  -15.5040 C   0  0  0  0  0  0  0  0  0  0  0  0
   24.8287   -9.8959  -14.7523 C   0  0  0  0  0  0  0  0  0  0  0  0
   25.8004  -10.8372  -14.5771 C   0  0  0  0  0  0  0  0  0  0  0  0
   27.0243  -10.6340  -15.1923 C   0  0  0  0  0  0  0  0  0  0  0  0
   27.2442   -9.4918  -15.9686 C   0  0  0  0  0  0  0  0  0  0  0  0
   26.2190   -8.5709  -16.1104 C   0  0  0  0  0  0  0  0  0  0  0  0
   21.7402   -7.1308  -16.6179 C   0  0  0  0  0  0  0  0  0  0  0  0
   21.8262   -6.4492  -17.6731 O   0  0  0  0  0  0  0  0  0  0  0  0
   20.7092   -6.7784  -15.7139 N   0  0  0  0  0  0  0  0  0  0  0  0
   19.6897   -5.7671  -16.0328 C   0  0  1  0  0  0  0  0  0  0  0  0
   18.3144   -6.3231  -15.9385 C   0  0  0  0  0  0  0  0  0  0  0  0
   17.2433   -5.3713  -16.3327 C   0  0  0  0  0  0  0  0  0  0  0  0
   15.8608   -5.8833  -16.1900 C   0  0  0  0  0  0  0  0  0  0  0  0
   15.5601   -7.0200  -15.7525 O   0  0  0  0  0  0  0  0  0  0  0  0
   19.9201   -4.5456  -15.2127 C   0  0  0  0  0  0  0  0  0  0  0  0
   20.2428   -4.6893  -14.0137 O   0  0  0  0  0  0  0  0  0  0  0  0
   14.8325   -5.0054  -16.5831 O   0  0  0  0  0  0  0  0  0  0  0  0
   19.7877   -3.2398  -15.7385 N   0  0  0  0  0  0  0  0  0  0  0  0
   19.9981   -2.0301  -15.0038 C   0  0  1  0  0  0  0  0  0  0  0  0
   20.8468   -1.0291  -15.7674 C   0  0  0  0  0  0  0  0  0  0  0  0
   21.2664    0.3735  -14.7032 S   0  0  0  0  0  0  0  0  0  0  0  0
   18.6448   -1.4018  -14.7808 C   0  0  0  0  0  0  0  0  0  0  0  0
   18.5191   -0.5863  -13.8367 O   0  0  0  0  0  0  0  0  0  0  0  0
   17.5698   -1.6989  -15.5744 O   0  0  0  0  0  0  0  0  0  0  0  0
  2  1  1  6
  3  2  1  0
  3  4  1  0
  4  9  2  0
  5  4  1  0
  5  6  2  0
  6  7  1  0
  7  8  2  0
  9  8  1  0
 10  2  1  0
 10 11  2  0
 12 10  1  0
 13 18  1  0
 13 12  1  0
 13 14  1  1
 15 14  1  0
 16 15  1  0
 17 16  2  0
 18 21  1  0
 19 18  2  0
 20 16  1  0
 21 22  1  0
 22 25  1  0
 23 24  1  0
 22 23  1  6
 25 26  2  0
 25 27  1  0
M  END
$$$$
