FEC.pdb
     RDKit          3D

 27 27  0  0  1  0  0  0  0  0999 V2000
   27.8889  -20.6987  -11.0263 N   0  0  0  0  0  0  0  0  0  0  0  0
   26.6531  -20.7890  -10.3219 C   0  0  1  0  0  0  0  0  0  0  0  0
   26.6555  -20.0023   -9.0520 C   0  0  0  0  0  0  0  0  0  0  0  0
   27.8206  -20.2077   -8.1959 C   0  0  0  0  0  0  0  0  0  0  0  0
   28.8714  -21.0232   -8.5461 C   0  0  0  0  0  0  0  0  0  0  0  0
   29.9693  -21.2305   -7.7635 C   0  0  0  0  0  0  0  0  0  0  0  0
   30.0316  -20.5819   -6.5415 C   0  0  0  0  0  0  0  0  0  0  0  0
   28.9914  -19.7408   -6.1340 C   0  0  0  0  0  0  0  0  0  0  0  0
   27.9018  -19.5689   -6.9719 C   0  0  0  0  0  0  0  0  0  0  0  0
   25.4869  -20.3940  -11.1910 C   0  0  0  0  0  0  0  0  0  0  0  0
   25.2552  -19.1936  -11.4922 O   0  0  0  0  0  0  0  0  0  0  0  0
   24.5951  -21.3643  -11.7083 N   0  0  0  0  0  0  0  0  0  0  0  0
   23.5330  -21.0293  -12.6693 C   0  0  1  0  0  0  0  0  0  0  0  0
   24.0337  -21.0385  -14.0688 C   0  0  0  0  0  0  0  0  0  0  0  0
   23.9605  -19.7207  -14.7516 C   0  0  0  0  0  0  0  0  0  0  0  0
   22.6626  -19.4158  -15.3968 C   0  0  0  0  0  0  0  0  0  0  0  0
   22.2091  -20.0064  -16.4065 O   0  0  0  0  0  0  0  0  0  0  0  0
   22.3477  -21.8989  -12.4313 C   0  0  0  0  0  0  0  0  0  0  0  0
   22.4779  -23.1326  -12.5842 O   0  0  0  0  0  0  0  0  0  0  0  0
   21.9073  -18.3827  -14.8095 O   0  0  0  0  0  0  0  0  0  0  0  0
   21.0906  -21.3823  -12.0415 N   0  0  0  0  0  0  0  0  0  0  0  0
   19.9132  -22.1628  -11.8140 C   0  0  1  0  0  0  0  0  0  0  0  0
   19.3347  -21.9471  -10.4268 C   0  0  0  0  0  0  0  0  0  0  0  0
   20.4219  -22.6767   -9.1770 S   0  0  0  0  0  0  0  0  0  0  0  0
   18.8776  -21.7107  -12.8135 C   0  0  0  0  0  0  0  0  0  0  0  0
   19.1416  -20.7167  -13.5310 O   0  0  0  0  0  0  0  0  0  0  0  0
   17.6763  -22.3524  -12.9508 O   0  0  0  0  0  0  0  0  0  0  0  0
  2  1  1  6
  3  2  1  0
  3  4  1  0
  4  9  2  0
  5  4  1  0
  5  6  2  0
  6  7  1  0
  7  8  2  0
  9  8  1  0
 10  2  1  0
 10 11  2  0
 12 10  1  0
 13 18  1  0
 13 12  1  0
 13 14  1  6
 15 14  1  0
 16 15  1  0
 17 16  2  0
 18 21  1  0
 19 18  2  0
 20 16  1  0
 21 22  1  0
 22 25  1  0
 23 24  1  0
 22 23  1  1
 25 26  2  0
 25 27  1  0
M  END
$$$$
