EDQ.pdb
     RDKit          3D

 27 26  0  0  1  0  0  0  0  0999 V2000
   15.8902  -10.3178   -9.7169 N   0  0  0  0  0  0  0  0  0  0  0  0
   15.5123   -9.8361  -11.0494 C   0  0  1  0  0  0  0  0  0  0  0  0
   14.0466  -10.0836  -11.2656 C   0  0  0  0  0  0  0  0  0  0  0  0
   13.5116  -11.2258  -10.4828 C   0  0  0  0  0  0  0  0  0  0  0  0
   12.0753  -11.5085  -10.6694 C   0  0  0  0  0  0  0  0  0  0  0  0
   11.4498  -12.4196  -10.0911 O   0  0  0  0  0  0  0  0  0  0  0  0
   15.9390   -8.4399  -11.2311 C   0  0  0  0  0  0  0  0  0  0  0  0
   15.8060   -7.8272  -12.3187 O   0  0  0  0  0  0  0  0  0  0  0  0
   11.3769  -10.6987  -11.5531 O   0  0  0  0  0  0  0  0  0  0  0  0
   16.5415   -7.6876  -10.1583 N   0  0  0  0  0  0  0  0  0  0  0  0
   16.9108   -6.3043  -10.3352 C   0  0  1  0  0  0  0  0  0  0  0  0
   16.6743   -5.4784   -9.0877 C   0  0  0  0  0  0  0  0  0  0  0  0
   15.2486   -5.1834   -8.8587 C   0  0  0  0  0  0  0  0  0  0  0  0
   14.5097   -4.9453   -9.8461 O   0  0  0  0  0  0  0  0  0  0  0  0
   18.3875   -6.2452  -10.5721 C   0  0  0  0  0  0  0  0  0  0  0  0
   19.0889   -7.1467  -10.0336 O   0  0  0  0  0  0  0  0  0  0  0  0
   14.7327   -5.1684   -7.5895 O   0  0  0  0  0  0  0  0  0  0  0  0
   20.7153   -9.4981  -14.1749 N   0  0  0  0  0  0  0  0  0  0  0  0
   21.5996   -8.4591  -13.8305 C   0  0  0  0  0  0  0  0  0  0  0  0
   22.7923   -8.7636  -13.5420 O   0  0  0  0  0  0  0  0  0  0  0  0
   21.2316   -7.0245  -13.7817 C   0  0  0  0  0  0  0  0  0  0  0  0
   19.9960   -6.7851  -12.9649 C   0  0  0  0  0  0  0  0  0  0  0  0
   20.1625   -5.5317  -12.1234 C   0  0  2  0  0  0  0  0  0  0  0  0
   18.9832   -5.2385  -11.3567 N   0  0  0  0  0  0  0  0  0  0  0  0
   20.5420   -4.3673  -12.9361 C   0  0  0  0  0  0  0  0  0  0  0  0
   21.8607   -3.9874  -13.1630 O   0  0  0  0  0  0  0  0  0  0  0  0
   19.6490   -3.6592  -13.4660 O   0  0  0  0  0  0  0  0  0  0  0  0
  2  1  1  1
  2  7  1  0
  2  3  1  0
  4  3  1  0
  4  5  1  0
  5  6  2  0
  7  8  2  0
  9  5  1  0
 10 11  1  0
 10  7  1  0
 11 12  1  1
 13 12  1  0
 14 13  2  0
 15 16  2  0
 15 11  1  0
 17 13  1  0
 19 18  1  0
 20 19  2  0
 21 19  1  0
 22 21  1  0
 23 22  1  6
 23 24  1  0
 24 15  1  0
 25 23  1  0
 26 25  1  0
 27 25  2  0
M  END
$$$$
