EDQ.pdb
     RDKit          3D

 27 26  0  0  1  0  0  0  0  0999 V2000
   22.3817  -10.0013  -17.7269 N   0  0  0  0  0  0  0  0  0  0  0  0
   22.5121  -10.4015  -16.3222 C   0  0  1  0  0  0  0  0  0  0  0  0
   23.8943  -10.9417  -16.0899 C   0  0  0  0  0  0  0  0  0  0  0  0
   24.9488   -9.8971  -16.0710 C   0  0  0  0  0  0  0  0  0  0  0  0
   26.3186  -10.3797  -15.8092 C   0  0  0  0  0  0  0  0  0  0  0  0
   27.2813  -10.2426  -16.5903 O   0  0  0  0  0  0  0  0  0  0  0  0
   22.1211   -9.2955  -15.4344 C   0  0  0  0  0  0  0  0  0  0  0  0
   21.9679   -9.4421  -14.1971 O   0  0  0  0  0  0  0  0  0  0  0  0
   26.5445  -11.0318  -14.6058 O   0  0  0  0  0  0  0  0  0  0  0  0
   21.8885   -7.9653  -15.9409 N   0  0  0  0  0  0  0  0  0  0  0  0
   21.4247   -6.9095  -15.0741 C   0  0  1  0  0  0  0  0  0  0  0  0
   22.4351   -5.7896  -14.9350 C   0  0  0  0  0  0  0  0  0  0  0  0
   22.0357   -4.7791  -13.9393 C   0  0  0  0  0  0  0  0  0  0  0  0
   22.7955   -3.8024  -13.7244 O   0  0  0  0  0  0  0  0  0  0  0  0
   20.2250   -6.2803  -15.7107 C   0  0  0  0  0  0  0  0  0  0  0  0
   20.3101   -6.0027  -16.9397 O   0  0  0  0  0  0  0  0  0  0  0  0
   20.8540   -4.8993  -13.2564 O   0  0  0  0  0  0  0  0  0  0  0  0
   13.7047   -6.8623  -17.9018 N   0  0  0  0  0  0  0  0  0  0  0  0
   14.5821   -6.9731  -16.8072 C   0  0  0  0  0  0  0  0  0  0  0  0
   14.5251   -8.0211  -16.1024 O   0  0  0  0  0  0  0  0  0  0  0  0
   15.5746   -5.9436  -16.4188 C   0  0  0  0  0  0  0  0  0  0  0  0
   16.7974   -6.5452  -15.7913 C   0  0  0  0  0  0  0  0  0  0  0  0
   17.8902   -5.4972  -15.6704 C   0  0  2  0  0  0  0  0  0  0  0  0
   19.0482   -6.0045  -14.9876 N   0  0  0  0  0  0  0  0  0  0  0  0
   17.4105   -4.2723  -15.0149 C   0  0  0  0  0  0  0  0  0  0  0  0
   16.8499   -3.2024  -15.7048 O   0  0  0  0  0  0  0  0  0  0  0  0
   17.4992   -4.1576  -13.7664 O   0  0  0  0  0  0  0  0  0  0  0  0
  2  1  1  6
  2  7  1  0
  2  3  1  0
  4  3  1  0
  4  5  1  0
  5  6  2  0
  7  8  2  0
  9  5  1  0
 10 11  1  0
 10  7  1  0
 11 12  1  6
 13 12  1  0
 14 13  2  0
 15 16  2  0
 15 11  1  0
 17 13  1  0
 19 18  1  0
 20 19  2  0
 21 19  1  0
 22 21  1  0
 23 22  1  1
 23 24  1  0
 24 15  1  0
 25 23  1  0
 26 25  1  0
 27 25  2  0
M  END
$$$$
