EDQ.pdb
     RDKit          3D

 27 26  0  0  1  0  0  0  0  0999 V2000
   26.3800  -22.1300  -11.1306 N   0  0  0  0  0  0  0  0  0  0  0  0
   26.7167  -20.7327  -10.8399 C   0  0  1  0  0  0  0  0  0  0  0  0
   28.1485  -20.6535  -10.3927 C   0  0  0  0  0  0  0  0  0  0  0  0
   28.9950  -21.7626  -10.8993 C   0  0  0  0  0  0  0  0  0  0  0  0
   30.3851  -21.7800  -10.4042 C   0  0  0  0  0  0  0  0  0  0  0  0
   30.8671  -20.9466   -9.6112 O   0  0  0  0  0  0  0  0  0  0  0  0
   26.3759  -19.8733  -11.9844 C   0  0  0  0  0  0  0  0  0  0  0  0
   26.4005  -18.6198  -11.9210 O   0  0  0  0  0  0  0  0  0  0  0  0
   31.2095  -22.7996  -10.8576 O   0  0  0  0  0  0  0  0  0  0  0  0
   25.9896  -20.4284  -13.2582 N   0  0  0  0  0  0  0  0  0  0  0  0
   25.5504  -19.5784  -14.3380 C   0  0  1  0  0  0  0  0  0  0  0  0
   26.4435  -19.6837  -15.5568 C   0  0  0  0  0  0  0  0  0  0  0  0
   26.0488  -18.7617  -16.6367 C   0  0  0  0  0  0  0  0  0  0  0  0
   25.0360  -18.0362  -16.4781 O   0  0  0  0  0  0  0  0  0  0  0  0
   24.2078  -20.0607  -14.7911 C   0  0  0  0  0  0  0  0  0  0  0  0
   24.1391  -21.2507  -15.2079 O   0  0  0  0  0  0  0  0  0  0  0  0
   26.7733  -18.6935  -17.7975 O   0  0  0  0  0  0  0  0  0  0  0  0
   21.2791  -20.5921  -10.1051 N   0  0  0  0  0  0  0  0  0  0  0  0
   20.2963  -20.9248  -11.0556 C   0  0  0  0  0  0  0  0  0  0  0  0
   19.2326  -21.4715  -10.6456 O   0  0  0  0  0  0  0  0  0  0  0  0
   20.4187  -20.6787  -12.5117 C   0  0  0  0  0  0  0  0  0  0  0  0
   21.7538  -20.0998  -12.8772 C   0  0  0  0  0  0  0  0  0  0  0  0
   21.7976  -19.7888  -14.3633 C   0  0  2  0  0  0  0  0  0  0  0  0
   23.0643  -19.2389  -14.7602 N   0  0  0  0  0  0  0  0  0  0  0  0
   20.7054  -18.8946  -14.7728 C   0  0  0  0  0  0  0  0  0  0  0  0
   19.4660  -19.3487  -15.2113 O   0  0  0  0  0  0  0  0  0  0  0  0
   20.8719  -17.6494  -14.7352 O   0  0  0  0  0  0  0  0  0  0  0  0
  2  1  1  6
  2  7  1  0
  2  3  1  0
  4  3  1  0
  4  5  1  0
  5  6  2  0
  7  8  2  0
  9  5  1  0
 10 11  1  0
 10  7  1  0
 11 12  1  6
 13 12  1  0
 14 13  2  0
 15 16  2  0
 15 11  1  0
 17 13  1  0
 19 18  1  0
 20 19  2  0
 21 19  1  0
 22 21  1  0
 23 22  1  1
 23 24  1  0
 24 15  1  0
 25 23  1  0
 26 25  1  0
 27 25  2  0
M  END
$$$$
