EDQ.pdb
     RDKit          3D

 27 26  0  0  1  0  0  0  0  0999 V2000
   12.9015  -10.5289   -9.9998 N   0  0  0  0  0  0  0  0  0  0  0  0
   14.2537  -10.2150   -9.5272 C   0  0  1  0  0  0  0  0  0  0  0  0
   15.2019  -11.2772  -10.0056 C   0  0  0  0  0  0  0  0  0  0  0  0
   15.1403  -11.5183  -11.4690 C   0  0  0  0  0  0  0  0  0  0  0  0
   16.1171  -12.4908  -11.9959 C   0  0  0  0  0  0  0  0  0  0  0  0
   16.4564  -13.5418  -11.4161 O   0  0  0  0  0  0  0  0  0  0  0  0
   14.6224   -8.8406   -9.9007 C   0  0  0  0  0  0  0  0  0  0  0  0
   14.1994   -8.2858  -10.9444 O   0  0  0  0  0  0  0  0  0  0  0  0
   16.6956  -12.2096  -13.2251 O   0  0  0  0  0  0  0  0  0  0  0  0
   15.5007   -8.0438   -9.0800 N   0  0  0  0  0  0  0  0  0  0  0  0
   15.8456   -6.6934   -9.4524 C   0  0  1  0  0  0  0  0  0  0  0  0
   15.8303   -5.7459   -8.2708 C   0  0  0  0  0  0  0  0  0  0  0  0
   16.0982   -4.3484   -8.6546 C   0  0  0  0  0  0  0  0  0  0  0  0
   17.0750   -3.7515   -8.1379 O   0  0  0  0  0  0  0  0  0  0  0  0
   17.2613   -6.6936   -9.9384 C   0  0  0  0  0  0  0  0  0  0  0  0
   18.0512   -7.5164   -9.3964 O   0  0  0  0  0  0  0  0  0  0  0  0
   15.2965   -3.7063   -9.5614 O   0  0  0  0  0  0  0  0  0  0  0  0
   19.3523   -9.9868  -13.5317 N   0  0  0  0  0  0  0  0  0  0  0  0
   20.3717   -9.0181  -13.5825 C   0  0  0  0  0  0  0  0  0  0  0  0
   21.4448   -9.3142  -14.1820 O   0  0  0  0  0  0  0  0  0  0  0  0
   20.2776   -7.6673  -12.9806 C   0  0  0  0  0  0  0  0  0  0  0  0
   19.0086   -7.4825  -12.2018 C   0  0  0  0  0  0  0  0  0  0  0  0
   18.9548   -6.0810  -11.6186 C   0  0  2  0  0  0  0  0  0  0  0  0
   17.7081   -5.8238  -10.9521 N   0  0  0  0  0  0  0  0  0  0  0  0
   19.2093   -5.0499  -12.6346 C   0  0  0  0  0  0  0  0  0  0  0  0
   20.4845   -4.6304  -12.9988 O   0  0  0  0  0  0  0  0  0  0  0  0
   18.2429   -4.5010  -13.2215 O   0  0  0  0  0  0  0  0  0  0  0  0
  2  1  1  6
  2  7  1  0
  2  3  1  0
  4  3  1  0
  4  5  1  0
  5  6  2  0
  7  8  2  0
  9  5  1  0
 10 11  1  0
 10  7  1  0
 11 12  1  1
 13 12  1  0
 14 13  2  0
 15 16  2  0
 15 11  1  0
 17 13  1  0
 19 18  1  0
 20 19  2  0
 21 19  1  0
 22 21  1  0
 23 22  1  6
 23 24  1  0
 24 15  1  0
 25 23  1  0
 26 25  1  0
 27 25  2  0
M  END
$$$$
