EDQ.pdb
     RDKit          3D

 27 26  0  0  1  0  0  0  0  0999 V2000
   22.3648   -9.6751  -19.7116 N   0  0  0  0  0  0  0  0  0  0  0  0
   22.2303  -10.5328  -18.5299 C   0  0  1  0  0  0  0  0  0  0  0  0
   23.4155  -11.4523  -18.4507 C   0  0  0  0  0  0  0  0  0  0  0  0
   24.7156  -10.7721  -18.6759 C   0  0  0  0  0  0  0  0  0  0  0  0
   25.9141  -11.6145  -18.4986 C   0  0  0  0  0  0  0  0  0  0  0  0
   27.0866  -11.2281  -18.6767 O   0  0  0  0  0  0  0  0  0  0  0  0
   21.9959   -9.7180  -17.3275 C   0  0  0  0  0  0  0  0  0  0  0  0
   21.7848  -10.2231  -16.1978 O   0  0  0  0  0  0  0  0  0  0  0  0
   25.7149  -12.9299  -18.1052 O   0  0  0  0  0  0  0  0  0  0  0  0
   21.9950   -8.2768  -17.3791 N   0  0  0  0  0  0  0  0  0  0  0  0
   21.7656   -7.4897  -16.1920 C   0  0  1  0  0  0  0  0  0  0  0  0
   22.3577   -6.0995  -16.2966 C   0  0  0  0  0  0  0  0  0  0  0  0
   22.3066   -5.3587  -15.0235 C   0  0  0  0  0  0  0  0  0  0  0  0
   22.6791   -4.1595  -15.0014 O   0  0  0  0  0  0  0  0  0  0  0  0
   20.2902   -7.2797  -16.0529 C   0  0  0  0  0  0  0  0  0  0  0  0
   19.6454   -7.0373  -17.1112 O   0  0  0  0  0  0  0  0  0  0  0  0
   21.8596   -5.9651  -13.8791 O   0  0  0  0  0  0  0  0  0  0  0  0
   15.9687  -10.7566  -13.5741 N   0  0  0  0  0  0  0  0  0  0  0  0
   15.8034  -10.1443  -14.8302 C   0  0  0  0  0  0  0  0  0  0  0  0
   14.9565  -10.6402  -15.6273 O   0  0  0  0  0  0  0  0  0  0  0  0
   16.5549   -8.9524  -15.2891 C   0  0  0  0  0  0  0  0  0  0  0  0
   17.5259   -8.4635  -14.2551 C   0  0  0  0  0  0  0  0  0  0  0  0
   18.2083   -7.1959  -14.7394 C   0  0  2  0  0  0  0  0  0  0  0  0
   19.6357   -7.3463  -14.8074 N   0  0  0  0  0  0  0  0  0  0  0  0
   17.8595   -6.0310  -13.9139 C   0  0  0  0  0  0  0  0  0  0  0  0
   16.6371   -5.3723  -13.9945 O   0  0  0  0  0  0  0  0  0  0  0  0
   18.6902   -5.5845  -13.0830 O   0  0  0  0  0  0  0  0  0  0  0  0
  2  1  1  6
  2  7  1  0
  2  3  1  0
  4  3  1  0
  4  5  1  0
  5  6  2  0
  7  8  2  0
  9  5  1  0
 10 11  1  0
 10  7  1  0
 11 12  1  6
 13 12  1  0
 14 13  2  0
 15 16  2  0
 15 11  1  0
 17 13  1  0
 19 18  1  0
 20 19  2  0
 21 19  1  0
 22 21  1  0
 23 22  1  1
 23 24  1  0
 24 15  1  0
 25 23  1  0
 26 25  1  0
 27 25  2  0
M  END
$$$$
