EDQ.pdb
     RDKit          3D

 27 26  0  0  1  0  0  0  0  0999 V2000
   22.6908  -35.4809  -11.2764 N   0  0  0  0  0  0  0  0  0  0  0  0
   21.5477  -34.6190  -11.5942 C   0  0  1  0  0  0  0  0  0  0  0  0
   20.4755  -35.4433  -12.2477 C   0  0  0  0  0  0  0  0  0  0  0  0
   19.7801  -36.3664  -11.3160 C   0  0  0  0  0  0  0  0  0  0  0  0
   18.3533  -36.0747  -11.0773 C   0  0  0  0  0  0  0  0  0  0  0  0
   17.5055  -35.8947  -11.9743 O   0  0  0  0  0  0  0  0  0  0  0  0
   21.1172  -33.8755  -10.3999 C   0  0  0  0  0  0  0  0  0  0  0  0
   20.2905  -32.9321  -10.4510 O   0  0  0  0  0  0  0  0  0  0  0  0
   17.9317  -35.9966   -9.7580 O   0  0  0  0  0  0  0  0  0  0  0  0
   21.6264  -34.1914   -9.0881 N   0  0  0  0  0  0  0  0  0  0  0  0
   21.1578  -33.4885   -7.9187 C   0  0  1  0  0  0  0  0  0  0  0  0
   19.6550  -33.5792   -7.7530 C   0  0  0  0  0  0  0  0  0  0  0  0
   19.1672  -32.8678   -6.5579 C   0  0  0  0  0  0  0  0  0  0  0  0
   19.2061  -31.6126   -6.5382 O   0  0  0  0  0  0  0  0  0  0  0  0
   21.7284  -34.1649   -6.7115 C   0  0  0  0  0  0  0  0  0  0  0  0
   21.6605  -35.4254   -6.6774 O   0  0  0  0  0  0  0  0  0  0  0  0
   18.6776  -33.5614   -5.4826 O   0  0  0  0  0  0  0  0  0  0  0  0
   26.7159  -32.3746   -3.4607 N   0  0  0  0  0  0  0  0  0  0  0  0
   26.5885  -33.3222   -4.4931 C   0  0  0  0  0  0  0  0  0  0  0  0
   27.6298  -33.6532   -5.1291 O   0  0  0  0  0  0  0  0  0  0  0  0
   25.3138  -33.9645   -4.8910 C   0  0  0  0  0  0  0  0  0  0  0  0
   24.1625  -33.5096   -4.0432 C   0  0  0  0  0  0  0  0  0  0  0  0
   22.8728  -34.1469   -4.5306 C   0  0  2  0  0  0  0  0  0  0  0  0
   22.3174  -33.4444   -5.6542 N   0  0  0  0  0  0  0  0  0  0  0  0
   21.8736  -34.2606   -3.4588 C   0  0  0  0  0  0  0  0  0  0  0  0
   20.7414  -35.0637   -3.5479 O   0  0  0  0  0  0  0  0  0  0  0  0
   22.0240  -33.6093   -2.3945 O   0  0  0  0  0  0  0  0  0  0  0  0
  2  1  1  1
  2  7  1  0
  2  3  1  0
  4  3  1  0
  4  5  1  0
  5  6  2  0
  7  8  2  0
  9  5  1  0
 10 11  1  0
 10  7  1  0
 11 12  1  1
 13 12  1  0
 14 13  2  0
 15 16  2  0
 15 11  1  0
 17 13  1  0
 19 18  1  0
 20 19  2  0
 21 19  1  0
 22 21  1  0
 23 22  1  1
 23 24  1  0
 24 15  1  0
 25 23  1  0
 26 25  1  0
 27 25  2  0
M  END
$$$$
