EDQ.pdb
     RDKit          3D

 27 26  0  0  1  0  0  0  0  0999 V2000
   25.5639  -20.0437  -16.9216 N   0  0  0  0  0  0  0  0  0  0  0  0
   25.7140  -18.8476  -16.0868 C   0  0  1  0  0  0  0  0  0  0  0  0
   26.6068  -17.8650  -16.7893 C   0  0  0  0  0  0  0  0  0  0  0  0
   26.2538  -17.6502  -18.2151 C   0  0  0  0  0  0  0  0  0  0  0  0
   27.0596  -16.6382  -18.9251 C   0  0  0  0  0  0  0  0  0  0  0  0
   26.5969  -15.7796  -19.7026 O   0  0  0  0  0  0  0  0  0  0  0  0
   24.3953  -18.3217  -15.7008 C   0  0  0  0  0  0  0  0  0  0  0  0
   24.2565  -17.3461  -14.9230 O   0  0  0  0  0  0  0  0  0  0  0  0
   28.4297  -16.6482  -18.7073 O   0  0  0  0  0  0  0  0  0  0  0  0
   23.1736  -18.9037  -16.1992 N   0  0  0  0  0  0  0  0  0  0  0  0
   21.8865  -18.4229  -15.7595 C   0  0  1  0  0  0  0  0  0  0  0  0
   20.8978  -18.2918  -16.8994 C   0  0  0  0  0  0  0  0  0  0  0  0
   20.9391  -16.9665  -17.5430 C   0  0  0  0  0  0  0  0  0  0  0  0
   20.9248  -15.9385  -16.8215 O   0  0  0  0  0  0  0  0  0  0  0  0
   21.2966  -19.4488  -14.8430 C   0  0  0  0  0  0  0  0  0  0  0  0
   21.2379  -20.6341  -15.2746 O   0  0  0  0  0  0  0  0  0  0  0  0
   20.9927  -16.8531  -18.9073 O   0  0  0  0  0  0  0  0  0  0  0  0
   23.0936  -21.8460   -8.4240 N   0  0  0  0  0  0  0  0  0  0  0  0
   23.0113  -21.0884   -9.6069 C   0  0  0  0  0  0  0  0  0  0  0  0
   23.9759  -20.3223   -9.8914 O   0  0  0  0  0  0  0  0  0  0  0  0
   21.8684  -21.1241  -10.5494 C   0  0  0  0  0  0  0  0  0  0  0  0
   21.9689  -20.0585  -11.6008 C   0  0  0  0  0  0  0  0  0  0  0  0
   20.7744  -20.1350  -12.5359 C   0  0  2  0  0  0  0  0  0  0  0  0
   20.8249  -19.1244  -13.5560 N   0  0  0  0  0  0  0  0  0  0  0  0
   19.4988  -20.0597  -11.8096 C   0  0  0  0  0  0  0  0  0  0  0  0
   18.5870  -19.0212  -11.9667 O   0  0  0  0  0  0  0  0  0  0  0  0
   19.1895  -20.9674  -10.9971 O   0  0  0  0  0  0  0  0  0  0  0  0
  2  1  1  6
  2  7  1  0
  2  3  1  0
  4  3  1  0
  4  5  1  0
  5  6  2  0
  7  8  2  0
  9  5  1  0
 10 11  1  0
 10  7  1  0
 11 12  1  6
 13 12  1  0
 14 13  2  0
 15 16  2  0
 15 11  1  0
 17 13  1  0
 19 18  1  0
 20 19  2  0
 21 19  1  0
 22 21  1  0
 23 22  1  1
 23 24  1  0
 24 15  1  0
 25 23  1  0
 26 25  1  0
 27 25  2  0
M  END
$$$$
