EDQ.pdb
     RDKit          3D

 27 26  0  0  1  0  0  0  0  0999 V2000
   27.6912  -23.6406  -17.0185 N   0  0  0  0  0  0  0  0  0  0  0  0
   27.5674  -22.5701  -16.0240 C   0  0  1  0  0  0  0  0  0  0  0  0
   28.0199  -21.2748  -16.6351 C   0  0  0  0  0  0  0  0  0  0  0  0
   27.3849  -20.9773  -17.9435 C   0  0  0  0  0  0  0  0  0  0  0  0
   27.7712  -19.6942  -18.5617 C   0  0  0  0  0  0  0  0  0  0  0  0
   27.3784  -19.2963  -19.6767 O   0  0  0  0  0  0  0  0  0  0  0  0
   26.2091  -22.5483  -15.4590 C   0  0  0  0  0  0  0  0  0  0  0  0
   25.3810  -23.4721  -15.6507 O   0  0  0  0  0  0  0  0  0  0  0  0
   28.6333  -18.8767  -17.8455 O   0  0  0  0  0  0  0  0  0  0  0  0
   25.7467  -21.4521  -14.6440 N   0  0  0  0  0  0  0  0  0  0  0  0
   24.4575  -21.4970  -13.9981 C   0  0  1  0  0  0  0  0  0  0  0  0
   24.4039  -20.6355  -12.7534 C   0  0  0  0  0  0  0  0  0  0  0  0
   23.1652  -20.8268  -11.9781 C   0  0  0  0  0  0  0  0  0  0  0  0
   23.0105  -20.1854  -10.9094 O   0  0  0  0  0  0  0  0  0  0  0  0
   23.4501  -20.9024  -14.9319 C   0  0  0  0  0  0  0  0  0  0  0  0
   23.6178  -19.6944  -15.2593 O   0  0  0  0  0  0  0  0  0  0  0  0
   22.1943  -21.6900  -12.4132 O   0  0  0  0  0  0  0  0  0  0  0  0
   20.4841  -24.6982  -15.9040 N   0  0  0  0  0  0  0  0  0  0  0  0
   19.5702  -23.8109  -15.3061 C   0  0  0  0  0  0  0  0  0  0  0  0
   18.8055  -24.2613  -14.4056 O   0  0  0  0  0  0  0  0  0  0  0  0
   19.4387  -22.3774  -15.6577 C   0  0  0  0  0  0  0  0  0  0  0  0
   20.3473  -21.9862  -16.7857 C   0  0  0  0  0  0  0  0  0  0  0  0
   21.3994  -21.0082  -16.2919 C   0  0  2  0  0  0  0  0  0  0  0  0
   22.3604  -21.6417  -15.4318 N   0  0  0  0  0  0  0  0  0  0  0  0
   20.8012  -19.8478  -15.6168 C   0  0  0  0  0  0  0  0  0  0  0  0
   20.2957  -18.7430  -16.2941 O   0  0  0  0  0  0  0  0  0  0  0  0
   20.7295  -19.8251  -14.3622 O   0  0  0  0  0  0  0  0  0  0  0  0
  2  1  1  6
  2  7  1  0
  2  3  1  0
  4  3  1  0
  4  5  1  0
  5  6  2  0
  7  8  2  0
  9  5  1  0
 10 11  1  0
 10  7  1  0
 11 12  1  1
 13 12  1  0
 14 13  2  0
 15 16  2  0
 15 11  1  0
 17 13  1  0
 19 18  1  0
 20 19  2  0
 21 19  1  0
 22 21  1  0
 23 22  1  1
 23 24  1  0
 24 15  1  0
 25 23  1  0
 26 25  1  0
 27 25  2  0
M  END
$$$$
