EDQ.pdb
     RDKit          3D

 27 26  0  0  1  0  0  0  0  0999 V2000
   16.6397  -11.1823  -15.9052 N   0  0  0  0  0  0  0  0  0  0  0  0
   17.8210  -11.0009  -15.0556 C   0  0  1  0  0  0  0  0  0  0  0  0
   19.0558  -11.2938  -15.8592 C   0  0  0  0  0  0  0  0  0  0  0  0
   19.1007  -10.5879  -17.1643 C   0  0  0  0  0  0  0  0  0  0  0  0
   20.3299  -10.7900  -17.9555 C   0  0  0  0  0  0  0  0  0  0  0  0
   20.3938  -11.4486  -19.0128 O   0  0  0  0  0  0  0  0  0  0  0  0
   17.7962   -9.6756  -14.4172 C   0  0  0  0  0  0  0  0  0  0  0  0
   17.4192   -8.6408  -15.0195 O   0  0  0  0  0  0  0  0  0  0  0  0
   21.4944  -10.2021  -17.4834 O   0  0  0  0  0  0  0  0  0  0  0  0
   18.2087   -9.4880  -13.0481 N   0  0  0  0  0  0  0  0  0  0  0  0
   18.1487   -8.1886  -12.4241 C   0  0  1  0  0  0  0  0  0  0  0  0
   17.9573   -8.2757  -10.9241 C   0  0  0  0  0  0  0  0  0  0  0  0
   16.5969   -8.6968  -10.5444 C   0  0  0  0  0  0  0  0  0  0  0  0
   16.4155   -9.2299   -9.4218 O   0  0  0  0  0  0  0  0  0  0  0  0
   19.4752   -7.5216  -12.6136 C   0  0  0  0  0  0  0  0  0  0  0  0
   20.4935   -8.2683  -12.6256 O   0  0  0  0  0  0  0  0  0  0  0  0
   15.5431   -8.5111  -11.4000 O   0  0  0  0  0  0  0  0  0  0  0  0
   22.2580   -7.4079  -17.0179 N   0  0  0  0  0  0  0  0  0  0  0  0
   22.9483   -6.3661  -16.3711 C   0  0  0  0  0  0  0  0  0  0  0  0
   24.0632   -6.0058  -16.8462 O   0  0  0  0  0  0  0  0  0  0  0  0
   22.4595   -5.6561  -15.1658 C   0  0  0  0  0  0  0  0  0  0  0  0
   21.1972   -6.2612  -14.6260 C   0  0  0  0  0  0  0  0  0  0  0  0
   20.8034   -5.5749  -13.3294 C   0  0  2  0  0  0  0  0  0  0  0  0
   19.5996   -6.1277  -12.7728 N   0  0  0  0  0  0  0  0  0  0  0  0
   20.6655   -4.1209  -13.4940 C   0  0  0  0  0  0  0  0  0  0  0  0
   21.7178   -3.2269  -13.3266 O   0  0  0  0  0  0  0  0  0  0  0  0
   19.5495   -3.6315  -13.8018 O   0  0  0  0  0  0  0  0  0  0  0  0
  2  1  1  6
  2  7  1  0
  2  3  1  0
  4  3  1  0
  4  5  1  0
  5  6  2  0
  7  8  2  0
  9  5  1  0
 10 11  1  0
 10  7  1  0
 11 12  1  1
 13 12  1  0
 14 13  2  0
 15 16  2  0
 15 11  1  0
 17 13  1  0
 19 18  1  0
 20 19  2  0
 21 19  1  0
 22 21  1  0
 23 22  1  6
 23 24  1  0
 24 15  1  0
 25 23  1  0
 26 25  1  0
 27 25  2  0
M  END
$$$$
