EDQ.pdb
     RDKit          3D

 27 26  0  0  1  0  0  0  0  0999 V2000
   15.3728  -10.4982  -13.9678 N   0  0  0  0  0  0  0  0  0  0  0  0
   16.7141  -10.6975  -14.5257 C   0  0  1  0  0  0  0  0  0  0  0  0
   16.6705  -11.8167  -15.5265 C   0  0  0  0  0  0  0  0  0  0  0  0
   15.5709  -12.7860  -15.2914 C   0  0  0  0  0  0  0  0  0  0  0  0
   15.4159  -13.8344  -16.3183 C   0  0  0  0  0  0  0  0  0  0  0  0
   16.2756  -14.1222  -17.1749 O   0  0  0  0  0  0  0  0  0  0  0  0
   17.2513   -9.4274  -15.0385 C   0  0  0  0  0  0  0  0  0  0  0  0
   18.3252   -9.3581  -15.6849 O   0  0  0  0  0  0  0  0  0  0  0  0
   14.2257  -14.5472  -16.3254 O   0  0  0  0  0  0  0  0  0  0  0  0
   16.5671   -8.1760  -14.8250 N   0  0  0  0  0  0  0  0  0  0  0  0
   17.1227   -6.9331  -15.3025 C   0  0  1  0  0  0  0  0  0  0  0  0
   16.1187   -5.7995  -15.2672 C   0  0  0  0  0  0  0  0  0  0  0  0
   16.6629   -4.5367  -15.7974 C   0  0  0  0  0  0  0  0  0  0  0  0
   17.0071   -4.4809  -17.0040 O   0  0  0  0  0  0  0  0  0  0  0  0
   18.2137   -6.5220  -14.3638 C   0  0  0  0  0  0  0  0  0  0  0  0
   18.1851   -7.0175  -13.2027 O   0  0  0  0  0  0  0  0  0  0  0  0
   16.7927   -3.4375  -14.9899 O   0  0  0  0  0  0  0  0  0  0  0  0
   22.4186   -9.6011  -15.6113 N   0  0  0  0  0  0  0  0  0  0  0  0
   23.1397   -8.6142  -14.9140 C   0  0  0  0  0  0  0  0  0  0  0  0
   24.3411   -8.8604  -14.6066 O   0  0  0  0  0  0  0  0  0  0  0  0
   22.5891   -7.2986  -14.5117 C   0  0  0  0  0  0  0  0  0  0  0  0
   21.1470   -7.1472  -14.8972 C   0  0  0  0  0  0  0  0  0  0  0  0
   20.5855   -5.8598  -14.3190 C   0  0  2  0  0  0  0  0  0  0  0  0
   19.2324   -5.6259  -14.7420 N   0  0  0  0  0  0  0  0  0  0  0  0
   21.4258   -4.6975  -14.6402 C   0  0  0  0  0  0  0  0  0  0  0  0
   22.6395   -4.4323  -14.0146 O   0  0  0  0  0  0  0  0  0  0  0  0
   21.0531   -3.8835  -15.5223 O   0  0  0  0  0  0  0  0  0  0  0  0
  2  1  1  6
  2  7  1  0
  2  3  1  0
  4  3  1  0
  4  5  1  0
  5  6  2  0
  7  8  2  0
  9  5  1  0
 10 11  1  0
 10  7  1  0
 11 12  1  1
 13 12  1  0
 14 13  2  0
 15 16  2  0
 15 11  1  0
 17 13  1  0
 19 18  1  0
 20 19  2  0
 21 19  1  0
 22 21  1  0
 23 22  1  6
 23 24  1  0
 24 15  1  0
 25 23  1  0
 26 25  1  0
 27 25  2  0
M  END
$$$$
