EDQ.pdb
     RDKit          3D

 27 26  0  0  1  0  0  0  0  0999 V2000
   18.1322  -13.0711  -16.0114 N   0  0  0  0  0  0  0  0  0  0  0  0
   17.1722  -12.1999  -15.3262 C   0  0  1  0  0  0  0  0  0  0  0  0
   16.1824  -13.0479  -14.5796 C   0  0  0  0  0  0  0  0  0  0  0  0
   15.3090  -13.8629  -15.4609 C   0  0  0  0  0  0  0  0  0  0  0  0
   14.3132  -14.7038  -14.7689 C   0  0  0  0  0  0  0  0  0  0  0  0
   14.1483  -14.7380  -13.5330 O   0  0  0  0  0  0  0  0  0  0  0  0
   17.8776  -11.2026  -14.5062 C   0  0  0  0  0  0  0  0  0  0  0  0
   18.4809  -11.5015  -13.4467 O   0  0  0  0  0  0  0  0  0  0  0  0
   13.5057  -15.5120  -15.5559 O   0  0  0  0  0  0  0  0  0  0  0  0
   17.9161   -9.8095  -14.8770 N   0  0  0  0  0  0  0  0  0  0  0  0
   18.5901   -8.8377  -14.0507 C   0  0  1  0  0  0  0  0  0  0  0  0
   19.6739   -8.0923  -14.8017 C   0  0  0  0  0  0  0  0  0  0  0  0
   20.4263   -7.1595  -13.9438 C   0  0  0  0  0  0  0  0  0  0  0  0
   20.3672   -7.2965  -12.6968 O   0  0  0  0  0  0  0  0  0  0  0  0
   17.5936   -7.7924  -13.6576 C   0  0  0  0  0  0  0  0  0  0  0  0
   16.8191   -7.3726  -14.5623 O   0  0  0  0  0  0  0  0  0  0  0  0
   21.1804   -6.1568  -14.4943 O   0  0  0  0  0  0  0  0  0  0  0  0
   15.1714   -6.9563   -7.8824 N   0  0  0  0  0  0  0  0  0  0  0  0
   14.9149   -7.8956   -8.8983 C   0  0  0  0  0  0  0  0  0  0  0  0
   14.2905   -8.9507   -8.5896 O   0  0  0  0  0  0  0  0  0  0  0  0
   15.3260   -7.7361  -10.3130 C   0  0  0  0  0  0  0  0  0  0  0  0
   16.0725   -6.4552  -10.5440 C   0  0  0  0  0  0  0  0  0  0  0  0
   16.4815   -6.3464  -12.0027 C   0  0  2  0  0  0  0  0  0  0  0  0
   17.5099   -7.2899  -12.3444 N   0  0  0  0  0  0  0  0  0  0  0  0
   16.9042   -4.9842  -12.3576 C   0  0  0  0  0  0  0  0  0  0  0  0
   16.0498   -3.8868  -12.3391 O   0  0  0  0  0  0  0  0  0  0  0  0
   18.0945   -4.7702  -12.6999 O   0  0  0  0  0  0  0  0  0  0  0  0
  2  1  1  1
  2  7  1  0
  2  3  1  0
  4  3  1  0
  4  5  1  0
  5  6  2  0
  7  8  2  0
  9  5  1  0
 10 11  1  0
 10  7  1  0
 11 12  1  6
 13 12  1  0
 14 13  2  0
 15 16  2  0
 15 11  1  0
 17 13  1  0
 19 18  1  0
 20 19  2  0
 21 19  1  0
 22 21  1  0
 23 22  1  1
 23 24  1  0
 24 15  1  0
 25 23  1  0
 26 25  1  0
 27 25  2  0
M  END
$$$$
