EDQ.pdb
     RDKit          3D

 27 26  0  0  1  0  0  0  0  0999 V2000
   15.0456  -12.1677  -17.2257 N   0  0  0  0  0  0  0  0  0  0  0  0
   15.7928  -11.7600  -16.0317 C   0  0  1  0  0  0  0  0  0  0  0  0
   16.7434  -12.8573  -15.6465 C   0  0  0  0  0  0  0  0  0  0  0  0
   16.0698  -14.0953  -15.1805 C   0  0  0  0  0  0  0  0  0  0  0  0
   16.9660  -15.1715  -14.7155 C   0  0  0  0  0  0  0  0  0  0  0  0
   16.5831  -16.2736  -14.2743 O   0  0  0  0  0  0  0  0  0  0  0  0
   16.4164  -10.4439  -16.2403 C   0  0  0  0  0  0  0  0  0  0  0  0
   17.0801  -10.1643  -17.2686 O   0  0  0  0  0  0  0  0  0  0  0  0
   18.3313  -14.9335  -14.7764 O   0  0  0  0  0  0  0  0  0  0  0  0
   16.2998   -9.3886  -15.2643 N   0  0  0  0  0  0  0  0  0  0  0  0
   16.9211   -8.1044  -15.4788 C   0  0  1  0  0  0  0  0  0  0  0  0
   16.1175   -6.9665  -14.8841 C   0  0  0  0  0  0  0  0  0  0  0  0
   16.7340   -5.6482  -15.1164 C   0  0  0  0  0  0  0  0  0  0  0  0
   17.2917   -5.4224  -16.2188 O   0  0  0  0  0  0  0  0  0  0  0  0
   18.2249   -8.0916  -14.7437 C   0  0  0  0  0  0  0  0  0  0  0  0
   18.4540   -9.0629  -13.9699 O   0  0  0  0  0  0  0  0  0  0  0  0
   16.7012   -4.6804  -14.1471 O   0  0  0  0  0  0  0  0  0  0  0  0
   22.6110  -10.4887  -16.6305 N   0  0  0  0  0  0  0  0  0  0  0  0
   23.2267   -9.7381  -15.6119 C   0  0  0  0  0  0  0  0  0  0  0  0
   24.4165  -10.0265  -15.2962 O   0  0  0  0  0  0  0  0  0  0  0  0
   22.5771   -8.6266  -14.8781 C   0  0  0  0  0  0  0  0  0  0  0  0
   21.1407   -8.4507  -15.2740 C   0  0  0  0  0  0  0  0  0  0  0  0
   20.5372   -7.2695  -14.5340 C   0  0  2  0  0  0  0  0  0  0  0  0
   19.1638   -7.0528  -14.8967 N   0  0  0  0  0  0  0  0  0  0  0  0
   21.3148   -6.0381  -14.7320 C   0  0  0  0  0  0  0  0  0  0  0  0
   22.3175   -5.6165  -13.8651 O   0  0  0  0  0  0  0  0  0  0  0  0
   21.0829   -5.3078  -15.7283 O   0  0  0  0  0  0  0  0  0  0  0  0
  2  1  1  6
  2  7  1  0
  2  3  1  0
  4  3  1  0
  4  5  1  0
  5  6  2  0
  7  8  2  0
  9  5  1  0
 10 11  1  0
 10  7  1  0
 11 12  1  1
 13 12  1  0
 14 13  2  0
 15 16  2  0
 15 11  1  0
 17 13  1  0
 19 18  1  0
 20 19  2  0
 21 19  1  0
 22 21  1  0
 23 22  1  6
 23 24  1  0
 24 15  1  0
 25 23  1  0
 26 25  1  0
 27 25  2  0
M  END
$$$$
