MDW.pdb
     RDKit          3D

 31 32  0  0  1  0  0  0  0  0999 V2000
   31.5610  -17.7815  -17.7160 C   0  0  0  0  0  0  0  0  0  0  0  0
   30.5486  -19.0883  -18.4402 S   0  0  0  0  0  0  0  0  0  0  0  0
   28.7952  -18.9435  -17.9812 C   0  0  0  0  0  0  0  0  0  0  0  0
   27.9945  -20.0992  -18.5342 C   0  0  0  0  0  0  0  0  0  0  0  0
   28.5306  -21.4412  -18.1040 C   0  0  2  0  0  0  0  0  0  0  0  0
   29.6698  -21.7595  -18.9288 N   0  0  0  0  0  0  0  0  0  0  0  0
   27.4761  -22.4955  -18.2765 C   0  0  0  0  0  0  0  0  0  0  0  0
   26.8899  -22.4963  -19.4043 O   0  0  0  0  0  0  0  0  0  0  0  0
   27.1655  -23.4132  -17.2560 N   0  0  0  0  0  0  0  0  0  0  0  0
   26.1683  -24.4313  -17.4454 C   0  0  1  0  0  0  0  0  0  0  0  0
   26.2977  -25.5240  -16.4351 C   0  0  0  0  0  0  0  0  0  0  0  0
   27.4684  -26.4056  -16.6023 C   0  0  0  0  0  0  0  0  0  0  0  0
   28.3002  -26.3189  -17.5423 O   0  0  0  0  0  0  0  0  0  0  0  0
   24.7963  -23.8584  -17.4145 C   0  0  0  0  0  0  0  0  0  0  0  0
   24.4650  -23.1525  -16.4490 O   0  0  0  0  0  0  0  0  0  0  0  0
   27.7264  -27.4314  -15.6829 O   0  0  0  0  0  0  0  0  0  0  0  0
   23.8461  -24.0795  -18.4361 N   0  0  0  0  0  0  0  0  0  0  0  0
   22.5046  -23.4486  -18.4015 C   0  0  1  0  0  0  0  0  0  0  0  0
   22.0538  -23.1364  -19.7803 C   0  0  0  0  0  0  0  0  0  0  0  0
   20.7445  -22.5011  -19.9412 C   0  0  0  0  0  0  0  0  0  0  0  0
   20.3921  -21.2055  -19.5441 C   0  0  0  0  0  0  0  0  0  0  0  0
   19.1032  -20.9624  -19.8129 N   0  0  0  0  0  0  0  0  0  0  0  0
   18.5951  -22.0753  -20.3824 C   0  0  0  0  0  0  0  0  0  0  0  0
   17.3241  -22.3793  -20.8734 C   0  0  0  0  0  0  0  0  0  0  0  0
   17.0516  -23.6027  -21.4375 C   0  0  0  0  0  0  0  0  0  0  0  0
   18.0525  -24.5488  -21.5205 C   0  0  0  0  0  0  0  0  0  0  0  0
   19.3059  -24.2763  -21.0464 C   0  0  0  0  0  0  0  0  0  0  0  0
   19.5915  -23.0382  -20.4717 C   0  0  0  0  0  0  0  0  0  0  0  0
   21.6230  -24.3027  -17.6086 C   0  0  0  0  0  0  0  0  0  0  0  0
   20.6695  -23.7764  -16.7126 O   0  0  0  0  0  0  0  0  0  0  0  0
   21.6586  -25.5636  -17.6748 O   0  0  0  0  0  0  0  0  0  0  0  0
  1  2  1  0
  3  4  1  0
  3  2  1  0
  5  4  1  0
  5  6  1  6
  7  8  2  0
  7  5  1  0
  9  7  1  0
 10  9  1  0
 10 11  1  1
 12 16  1  0
 12 11  1  0
 13 12  2  0
 14 17  1  0
 14 10  1  0
 15 14  2  0
 18 29  1  0
 18 17  1  0
 18 19  1  6
 19 20  1  0
 20 21  2  0
 20 28  1  0
 21 22  1  0
 22 23  1  0
 23 24  2  0
 25 24  1  0
 26 25  2  0
 27 28  2  0
 27 26  1  0
 28 23  1  0
 29 30  1  0
 31 29  2  0
M  END
$$$$
