MDW.pdb
     RDKit          3D

 31 32  0  0  1  0  0  0  0  0999 V2000
   26.7460  -18.2092  -18.1079 C   0  0  0  0  0  0  0  0  0  0  0  0
   27.8952  -19.5333  -18.5362 S   0  0  0  0  0  0  0  0  0  0  0  0
   29.1157  -19.8449  -17.2250 C   0  0  0  0  0  0  0  0  0  0  0  0
   28.6819  -19.2149  -15.9220 C   0  0  0  0  0  0  0  0  0  0  0  0
   28.5863  -20.2108  -14.7940 C   0  0  2  0  0  0  0  0  0  0  0  0
   28.3066  -21.5082  -15.3576 N   0  0  0  0  0  0  0  0  0  0  0  0
   27.4800  -19.8218  -13.8570 C   0  0  0  0  0  0  0  0  0  0  0  0
   27.5871  -18.6643  -13.3429 O   0  0  0  0  0  0  0  0  0  0  0  0
   26.4048  -20.6844  -13.5739 N   0  0  0  0  0  0  0  0  0  0  0  0
   25.3299  -20.2790  -12.7096 C   0  0  1  0  0  0  0  0  0  0  0  0
   23.9965  -20.6087  -13.2970 C   0  0  0  0  0  0  0  0  0  0  0  0
   23.5115  -19.6748  -14.3305 C   0  0  0  0  0  0  0  0  0  0  0  0
   22.5345  -19.8956  -15.0918 O   0  0  0  0  0  0  0  0  0  0  0  0
   25.4634  -20.8847  -11.3581 C   0  0  0  0  0  0  0  0  0  0  0  0
   25.6969  -22.1003  -11.2683 O   0  0  0  0  0  0  0  0  0  0  0  0
   24.1417  -18.4385  -14.5278 O   0  0  0  0  0  0  0  0  0  0  0  0
   25.3370  -20.1400  -10.1644 N   0  0  0  0  0  0  0  0  0  0  0  0
   25.2864  -20.7992   -8.8371 C   0  0  1  0  0  0  0  0  0  0  0  0
   25.9887  -19.9670   -7.8289 C   0  0  0  0  0  0  0  0  0  0  0  0
   27.3907  -20.2794   -7.5455 C   0  0  0  0  0  0  0  0  0  0  0  0
   28.2686  -20.9941   -8.3695 C   0  0  0  0  0  0  0  0  0  0  0  0
   29.4660  -21.1244   -7.7848 N   0  0  0  0  0  0  0  0  0  0  0  0
   29.3970  -20.5071   -6.5868 C   0  0  0  0  0  0  0  0  0  0  0  0
   30.3400  -20.3184   -5.5748 C   0  0  0  0  0  0  0  0  0  0  0  0
   30.0284  -19.6233   -4.4306 C   0  0  0  0  0  0  0  0  0  0  0  0
   28.7599  -19.1021   -4.2785 C   0  0  0  0  0  0  0  0  0  0  0  0
   27.8177  -19.2735   -5.2546 C   0  0  0  0  0  0  0  0  0  0  0  0
   28.1243  -19.9779   -6.4184 C   0  0  0  0  0  0  0  0  0  0  0  0
   23.8925  -21.1293   -8.5484 C   0  0  0  0  0  0  0  0  0  0  0  0
   23.5286  -22.0545   -7.5480 O   0  0  0  0  0  0  0  0  0  0  0  0
   22.9271  -20.6086   -9.1748 O   0  0  0  0  0  0  0  0  0  0  0  0
  1  2  1  0
  3  4  1  0
  3  2  1  0
  5  4  1  0
  5  6  1  6
  7  8  2  0
  7  5  1  0
  9  7  1  0
 10  9  1  0
 10 11  1  6
 12 16  1  0
 12 11  1  0
 13 12  2  0
 14 17  1  0
 14 10  1  0
 15 14  2  0
 18 29  1  0
 18 17  1  0
 18 19  1  1
 19 20  1  0
 20 21  2  0
 20 28  1  0
 21 22  1  0
 22 23  1  0
 23 24  2  0
 25 24  1  0
 26 25  2  0
 27 28  2  0
 27 26  1  0
 28 23  1  0
 29 30  1  0
 31 29  2  0
M  END
$$$$
