MDW.pdb
     RDKit          3D

 31 32  0  0  1  0  0  0  0  0999 V2000
   27.6146  -11.5224  -15.1850 C   0  0  0  0  0  0  0  0  0  0  0  0
   26.5336  -12.7835  -15.8908 S   0  0  0  0  0  0  0  0  0  0  0  0
   26.1048  -12.4400  -17.6240 C   0  0  0  0  0  0  0  0  0  0  0  0
   24.6324  -12.1326  -17.7659 C   0  0  0  0  0  0  0  0  0  0  0  0
   23.7528  -13.1703  -17.1154 C   0  0  2  0  0  0  0  0  0  0  0  0
   23.9343  -14.4193  -17.8127 N   0  0  0  0  0  0  0  0  0  0  0  0
   22.3139  -12.7519  -17.2018 C   0  0  0  0  0  0  0  0  0  0  0  0
   21.8482  -12.6521  -18.3802 O   0  0  0  0  0  0  0  0  0  0  0  0
   21.5433  -12.4906  -16.0537 N   0  0  0  0  0  0  0  0  0  0  0  0
   20.2055  -11.9740  -16.1540 C   0  0  1  0  0  0  0  0  0  0  0  0
   19.2541  -12.7374  -15.2917 C   0  0  0  0  0  0  0  0  0  0  0  0
   19.0720  -14.1562  -15.6516 C   0  0  0  0  0  0  0  0  0  0  0  0
   19.1673  -14.6154  -16.8190 O   0  0  0  0  0  0  0  0  0  0  0  0
   20.1574  -10.5256  -15.8205 C   0  0  0  0  0  0  0  0  0  0  0  0
   20.4530  -10.1672  -14.6697 O   0  0  0  0  0  0  0  0  0  0  0  0
   18.7693  -15.1086  -14.6690 O   0  0  0  0  0  0  0  0  0  0  0  0
   19.7896   -9.5319  -16.7547 N   0  0  0  0  0  0  0  0  0  0  0  0
   19.6698   -8.1055  -16.3676 C   0  0  1  0  0  0  0  0  0  0  0  0
   20.5387   -7.2692  -17.2323 C   0  0  0  0  0  0  0  0  0  0  0  0
   21.7982   -6.7835  -16.6654 C   0  0  0  0  0  0  0  0  0  0  0  0
   23.0741   -7.3134  -16.8931 C   0  0  0  0  0  0  0  0  0  0  0  0
   23.9963   -6.6459  -16.1885 N   0  0  0  0  0  0  0  0  0  0  0  0
   23.3531   -5.6814  -15.4978 C   0  0  0  0  0  0  0  0  0  0  0  0
   23.8094   -4.6920  -14.6249 C   0  0  0  0  0  0  0  0  0  0  0  0
   22.9422   -3.7947  -14.0486 C   0  0  0  0  0  0  0  0  0  0  0  0
   21.5953   -3.8725  -14.3376 C   0  0  0  0  0  0  0  0  0  0  0  0
   21.1227   -4.8327  -15.1888 C   0  0  0  0  0  0  0  0  0  0  0  0
   21.9947   -5.7479  -15.7776 C   0  0  0  0  0  0  0  0  0  0  0  0
   18.2502   -7.7598  -16.3466 C   0  0  0  0  0  0  0  0  0  0  0  0
   17.2588   -8.6125  -16.8751 O   0  0  0  0  0  0  0  0  0  0  0  0
   17.8214   -6.6780  -15.8553 O   0  0  0  0  0  0  0  0  0  0  0  0
  1  2  1  0
  3  4  1  0
  3  2  1  0
  5  4  1  0
  5  6  1  6
  7  8  2  0
  7  5  1  0
  9  7  1  0
 10  9  1  0
 10 11  1  1
 12 16  1  0
 12 11  1  0
 13 12  2  0
 14 17  1  0
 14 10  1  0
 15 14  2  0
 18 29  1  0
 18 17  1  0
 18 19  1  6
 19 20  1  0
 20 21  2  0
 20 28  1  0
 21 22  1  0
 22 23  1  0
 23 24  2  0
 25 24  1  0
 26 25  2  0
 27 28  2  0
 27 26  1  0
 28 23  1  0
 29 30  1  0
 31 29  2  0
M  END
$$$$
