MDW.pdb
     RDKit          3D

 31 32  0  0  1  0  0  0  0  0999 V2000
   30.8096  -19.5478  -13.4928 C   0  0  0  0  0  0  0  0  0  0  0  0
   30.0735  -18.7228  -14.9192 S   0  0  0  0  0  0  0  0  0  0  0  0
   28.9260  -17.3967  -14.4389 C   0  0  0  0  0  0  0  0  0  0  0  0
   27.6851  -17.9643  -13.7904 C   0  0  0  0  0  0  0  0  0  0  0  0
   26.8891  -18.8442  -14.7208 C   0  0  2  0  0  0  0  0  0  0  0  0
   26.2379  -18.0026  -15.6938 N   0  0  0  0  0  0  0  0  0  0  0  0
   25.8552  -19.6088  -13.9465 C   0  0  0  0  0  0  0  0  0  0  0  0
   24.8056  -18.9551  -13.6519 O   0  0  0  0  0  0  0  0  0  0  0  0
   26.0437  -20.9535  -13.5772 N   0  0  0  0  0  0  0  0  0  0  0  0
   25.0993  -21.6361  -12.7353 C   0  0  1  0  0  0  0  0  0  0  0  0
   25.0015  -23.0863  -13.0801 C   0  0  0  0  0  0  0  0  0  0  0  0
   23.8904  -23.8157  -12.4407 C   0  0  0  0  0  0  0  0  0  0  0  0
   23.9263  -25.0304  -12.1147 O   0  0  0  0  0  0  0  0  0  0  0  0
   25.4356  -21.4683  -11.2965 C   0  0  0  0  0  0  0  0  0  0  0  0
   26.4642  -22.0055  -10.8565 O   0  0  0  0  0  0  0  0  0  0  0  0
   22.6831  -23.1656  -12.1508 O   0  0  0  0  0  0  0  0  0  0  0  0
   24.6371  -20.7230  -10.4007 N   0  0  0  0  0  0  0  0  0  0  0  0
   24.7344  -20.9075   -8.9326 C   0  0  1  0  0  0  0  0  0  0  0  0
   25.5214  -19.8019   -8.3322 C   0  0  0  0  0  0  0  0  0  0  0  0
   26.9345  -20.0516   -8.0417 C   0  0  0  0  0  0  0  0  0  0  0  0
   27.9121  -20.4679   -8.9536 C   0  0  0  0  0  0  0  0  0  0  0  0
   29.0912  -20.6320   -8.3409 N   0  0  0  0  0  0  0  0  0  0  0  0
   28.9120  -20.3305   -7.0379 C   0  0  0  0  0  0  0  0  0  0  0  0
   29.7890  -20.3113   -5.9518 C   0  0  0  0  0  0  0  0  0  0  0  0
   29.3631  -19.9426   -4.6981 C   0  0  0  0  0  0  0  0  0  0  0  0
   28.0441  -19.5846   -4.5084 C   0  0  0  0  0  0  0  0  0  0  0  0
   27.1647  -19.5958   -5.5554 C   0  0  0  0  0  0  0  0  0  0  0  0
   27.5874  -19.9692   -6.8308 C   0  0  0  0  0  0  0  0  0  0  0  0
   23.3835  -21.1003   -8.4100 C   0  0  0  0  0  0  0  0  0  0  0  0
   22.2387  -21.0122   -9.2291 O   0  0  0  0  0  0  0  0  0  0  0  0
   23.1553  -21.3574   -7.1945 O   0  0  0  0  0  0  0  0  0  0  0  0
  1  2  1  0
  3  4  1  0
  3  2  1  0
  5  4  1  0
  5  6  1  6
  7  8  2  0
  7  5  1  0
  9  7  1  0
 10  9  1  0
 10 11  1  6
 12 16  1  0
 12 11  1  0
 13 12  2  0
 14 17  1  0
 14 10  1  0
 15 14  2  0
 18 29  1  0
 18 17  1  0
 18 19  1  1
 19 20  1  0
 20 21  2  0
 20 28  1  0
 21 22  1  0
 22 23  1  0
 23 24  2  0
 25 24  1  0
 26 25  2  0
 27 28  2  0
 27 26  1  0
 28 23  1  0
 29 30  1  0
 31 29  2  0
M  END
$$$$
