MDW.pdb
     RDKit          3D

 31 32  0  0  1  0  0  0  0  0999 V2000
   36.1633  -26.0017  -13.1768 C   0  0  0  0  0  0  0  0  0  0  0  0
   34.9294  -24.8838  -13.8732 S   0  0  0  0  0  0  0  0  0  0  0  0
   34.3105  -25.4505  -15.4862 C   0  0  0  0  0  0  0  0  0  0  0  0
   33.3517  -24.4455  -16.0807 C   0  0  0  0  0  0  0  0  0  0  0  0
   32.8520  -24.8497  -17.4447 C   0  0  2  0  0  0  0  0  0  0  0  0
   33.9731  -24.8655  -18.3514 N   0  0  0  0  0  0  0  0  0  0  0  0
   31.8282  -23.8650  -17.9298 C   0  0  0  0  0  0  0  0  0  0  0  0
   32.2674  -22.9713  -18.7198 O   0  0  0  0  0  0  0  0  0  0  0  0
   30.4802  -23.9343  -17.5322 N   0  0  0  0  0  0  0  0  0  0  0  0
   29.5290  -22.9366  -17.9405 C   0  0  1  0  0  0  0  0  0  0  0  0
   28.9367  -23.2535  -19.2748 C   0  0  0  0  0  0  0  0  0  0  0  0
   27.9033  -22.3136  -19.7483 C   0  0  0  0  0  0  0  0  0  0  0  0
   26.6639  -22.4962  -19.6327 O   0  0  0  0  0  0  0  0  0  0  0  0
   28.4554  -22.7641  -16.9261 C   0  0  0  0  0  0  0  0  0  0  0  0
   27.8467  -23.7679  -16.5235 O   0  0  0  0  0  0  0  0  0  0  0  0
   28.2637  -21.1156  -20.3801 O   0  0  0  0  0  0  0  0  0  0  0  0
   28.0923  -21.5064  -16.3951 N   0  0  0  0  0  0  0  0  0  0  0  0
   26.9532  -21.3566  -15.4576 C   0  0  1  0  0  0  0  0  0  0  0  0
   27.0073  -20.0274  -14.8001 C   0  0  0  0  0  0  0  0  0  0  0  0
   26.8395  -18.8429  -15.6441 C   0  0  0  0  0  0  0  0  0  0  0  0
   25.6270  -18.2510  -16.0185 C   0  0  0  0  0  0  0  0  0  0  0  0
   25.8409  -17.2030  -16.8237 N   0  0  0  0  0  0  0  0  0  0  0  0
   27.1754  -17.0894  -16.9889 C   0  0  0  0  0  0  0  0  0  0  0  0
   27.9565  -16.1795  -17.7037 C   0  0  0  0  0  0  0  0  0  0  0  0
   29.3285  -16.2622  -17.7020 C   0  0  0  0  0  0  0  0  0  0  0  0
   29.9462  -17.2631  -16.9806 C   0  0  0  0  0  0  0  0  0  0  0  0
   29.2040  -18.1674  -16.2726 C   0  0  0  0  0  0  0  0  0  0  0  0
   27.8115  -18.0919  -16.2690 C   0  0  0  0  0  0  0  0  0  0  0  0
   25.7249  -21.6716  -16.1837 C   0  0  0  0  0  0  0  0  0  0  0  0
   24.5038  -21.9248  -15.5250 O   0  0  0  0  0  0  0  0  0  0  0  0
   25.6784  -21.7371  -17.4443 O   0  0  0  0  0  0  0  0  0  0  0  0
  1  2  1  0
  3  4  1  0
  3  2  1  0
  5  4  1  0
  5  6  1  6
  7  8  2  0
  7  5  1  0
  9  7  1  0
 10  9  1  0
 10 11  1  6
 12 16  1  0
 12 11  1  0
 13 12  2  0
 14 17  1  0
 14 10  1  0
 15 14  2  0
 18 29  1  0
 18 17  1  0
 18 19  1  6
 19 20  1  0
 20 21  2  0
 20 28  1  0
 21 22  1  0
 22 23  1  0
 23 24  2  0
 25 24  1  0
 26 25  2  0
 27 28  2  0
 27 26  1  0
 28 23  1  0
 29 30  1  0
 31 29  2  0
M  END
$$$$
