MDW.pdb
     RDKit          3D

 31 32  0  0  1  0  0  0  0  0999 V2000
   19.1113  -22.9454   -9.5119 C   0  0  0  0  0  0  0  0  0  0  0  0
   18.8825  -23.5547  -11.1952 S   0  0  0  0  0  0  0  0  0  0  0  0
   18.8397  -25.3706  -11.2767 C   0  0  0  0  0  0  0  0  0  0  0  0
   18.0617  -25.9456  -10.1162 C   0  0  0  0  0  0  0  0  0  0  0  0
   17.9291  -27.4459  -10.1868 C   0  0  2  0  0  0  0  0  0  0  0  0
   16.9871  -27.7689  -11.2296 N   0  0  0  0  0  0  0  0  0  0  0  0
   17.4294  -27.9802   -8.8761 C   0  0  0  0  0  0  0  0  0  0  0  0
   16.2239  -27.6901   -8.5968 O   0  0  0  0  0  0  0  0  0  0  0  0
   18.2455  -28.7467   -8.0237 N   0  0  0  0  0  0  0  0  0  0  0  0
   17.7933  -29.1487   -6.7195 C   0  0  1  0  0  0  0  0  0  0  0  0
   18.5691  -30.3161   -6.2030 C   0  0  0  0  0  0  0  0  0  0  0  0
   18.1157  -30.8542   -4.9067 C   0  0  0  0  0  0  0  0  0  0  0  0
   16.9725  -30.6674   -4.4157 O   0  0  0  0  0  0  0  0  0  0  0  0
   17.8533  -28.0198   -5.7534 C   0  0  0  0  0  0  0  0  0  0  0  0
   18.8231  -27.2466   -5.7970 O   0  0  0  0  0  0  0  0  0  0  0  0
   18.9723  -31.6354   -4.1193 O   0  0  0  0  0  0  0  0  0  0  0  0
   16.8547  -27.7828   -4.7827 N   0  0  0  0  0  0  0  0  0  0  0  0
   16.9332  -26.6332   -3.8495 C   0  0  1  0  0  0  0  0  0  0  0  0
   15.5781  -26.2871   -3.3538 C   0  0  0  0  0  0  0  0  0  0  0  0
   15.4598  -25.1617   -2.4247 C   0  0  0  0  0  0  0  0  0  0  0  0
   15.4269  -23.8029   -2.7610 C   0  0  0  0  0  0  0  0  0  0  0  0
   15.3466  -23.0449   -1.6604 N   0  0  0  0  0  0  0  0  0  0  0  0
   15.3248  -23.8786   -0.5995 C   0  0  0  0  0  0  0  0  0  0  0  0
   15.2342  -23.6445    0.7738 C   0  0  0  0  0  0  0  0  0  0  0  0
   15.2108  -24.6830    1.6739 C   0  0  0  0  0  0  0  0  0  0  0  0
   15.2783  -25.9815    1.2124 C   0  0  0  0  0  0  0  0  0  0  0  0
   15.3683  -26.2378   -0.1278 C   0  0  0  0  0  0  0  0  0  0  0  0
   15.3934  -25.1907   -1.0484 C   0  0  0  0  0  0  0  0  0  0  0  0
   17.9362  -26.9430   -2.8330 C   0  0  0  0  0  0  0  0  0  0  0  0
   18.7426  -25.9483   -2.2418 O   0  0  0  0  0  0  0  0  0  0  0  0
   18.1446  -28.1184   -2.4200 O   0  0  0  0  0  0  0  0  0  0  0  0
  1  2  1  0
  3  4  1  0
  3  2  1  0
  5  4  1  0
  5  6  1  6
  7  8  2  0
  7  5  1  0
  9  7  1  0
 10  9  1  0
 10 11  1  1
 12 16  1  0
 12 11  1  0
 13 12  2  0
 14 17  1  0
 14 10  1  0
 15 14  2  0
 18 29  1  0
 18 17  1  0
 18 19  1  1
 19 20  1  0
 20 21  2  0
 20 28  1  0
 21 22  1  0
 22 23  1  0
 23 24  2  0
 25 24  1  0
 26 25  2  0
 27 28  2  0
 27 26  1  0
 28 23  1  0
 29 30  1  0
 31 29  2  0
M  END
$$$$
