MDW.pdb
     RDKit          3D

 31 32  0  0  1  0  0  0  0  0999 V2000
   34.2389  -23.2181   -8.7867 C   0  0  0  0  0  0  0  0  0  0  0  0
   32.9768  -22.0003   -9.2125 S   0  0  0  0  0  0  0  0  0  0  0  0
   32.9404  -21.6312  -10.9925 C   0  0  0  0  0  0  0  0  0  0  0  0
   31.6772  -20.8910  -11.3653 C   0  0  0  0  0  0  0  0  0  0  0  0
   30.4600  -21.7810  -11.3786 C   0  0  2  0  0  0  0  0  0  0  0  0
   30.7697  -22.9606  -12.1479 N   0  0  0  0  0  0  0  0  0  0  0  0
   29.3033  -21.0608  -12.0082 C   0  0  0  0  0  0  0  0  0  0  0  0
   29.0743  -19.8978  -11.5492 O   0  0  0  0  0  0  0  0  0  0  0  0
   28.5327  -21.6405  -13.0331 N   0  0  0  0  0  0  0  0  0  0  0  0
   27.3812  -20.9695  -13.5720 C   0  0  1  0  0  0  0  0  0  0  0  0
   27.1262  -21.3655  -14.9896 C   0  0  0  0  0  0  0  0  0  0  0  0
   26.8678  -20.2518  -15.9215 C   0  0  0  0  0  0  0  0  0  0  0  0
   25.7751  -20.0533  -16.5128 O   0  0  0  0  0  0  0  0  0  0  0  0
   26.1726  -21.2152  -12.7411 C   0  0  0  0  0  0  0  0  0  0  0  0
   25.9130  -22.3778  -12.3928 O   0  0  0  0  0  0  0  0  0  0  0  0
   27.8701  -19.3158  -16.2104 O   0  0  0  0  0  0  0  0  0  0  0  0
   25.3004  -20.1843  -12.3264 N   0  0  0  0  0  0  0  0  0  0  0  0
   24.2259  -20.4260  -11.3335 C   0  0  1  0  0  0  0  0  0  0  0  0
   24.3842  -19.5072  -10.1791 C   0  0  0  0  0  0  0  0  0  0  0  0
   24.6637  -20.1005   -8.8700 C   0  0  0  0  0  0  0  0  0  0  0  0
   23.9270  -21.1094   -8.2376 C   0  0  0  0  0  0  0  0  0  0  0  0
   24.4435  -21.3890   -7.0345 N   0  0  0  0  0  0  0  0  0  0  0  0
   25.5112  -20.5826   -6.8587 C   0  0  0  0  0  0  0  0  0  0  0  0
   26.4245  -20.4530   -5.8109 C   0  0  0  0  0  0  0  0  0  0  0  0
   27.4611  -19.5528   -5.8760 C   0  0  0  0  0  0  0  0  0  0  0  0
   27.6025  -18.7620   -6.9978 C   0  0  0  0  0  0  0  0  0  0  0  0
   26.7210  -18.8689   -8.0377 C   0  0  0  0  0  0  0  0  0  0  0  0
   25.6657  -19.7787   -7.9803 C   0  0  0  0  0  0  0  0  0  0  0  0
   22.9437  -20.3743  -12.0325 C   0  0  0  0  0  0  0  0  0  0  0  0
   21.7702  -20.9456  -11.4979 O   0  0  0  0  0  0  0  0  0  0  0  0
   22.8048  -19.8164  -13.1572 O   0  0  0  0  0  0  0  0  0  0  0  0
  1  2  1  0
  3  4  1  0
  3  2  1  0
  5  4  1  0
  5  6  1  6
  7  8  2  0
  7  5  1  0
  9  7  1  0
 10  9  1  0
 10 11  1  6
 12 16  1  0
 12 11  1  0
 13 12  2  0
 14 17  1  0
 14 10  1  0
 15 14  2  0
 18 29  1  0
 18 17  1  0
 18 19  1  1
 19 20  1  0
 20 21  2  0
 20 28  1  0
 21 22  1  0
 22 23  1  0
 23 24  2  0
 25 24  1  0
 26 25  2  0
 27 28  2  0
 27 26  1  0
 28 23  1  0
 29 30  1  0
 31 29  2  0
M  END
$$$$
