MDW.pdb
     RDKit          3D

 31 32  0  0  1  0  0  0  0  0999 V2000
   28.3060  -15.0393  -15.8378 C   0  0  0  0  0  0  0  0  0  0  0  0
   28.0214  -15.7840  -17.4569 S   0  0  0  0  0  0  0  0  0  0  0  0
   27.0171  -17.2965  -17.3589 C   0  0  0  0  0  0  0  0  0  0  0  0
   26.4832  -17.5012  -15.9604 C   0  0  0  0  0  0  0  0  0  0  0  0
   25.7214  -18.7935  -15.8084 C   0  0  2  0  0  0  0  0  0  0  0  0
   24.7199  -18.8534  -16.8441 N   0  0  0  0  0  0  0  0  0  0  0  0
   25.0563  -18.8431  -14.4637 C   0  0  0  0  0  0  0  0  0  0  0  0
   25.3616  -17.8962  -13.6727 O   0  0  0  0  0  0  0  0  0  0  0  0
   24.1598  -19.8695  -14.1129 N   0  0  0  0  0  0  0  0  0  0  0  0
   23.5532  -19.9181  -12.8104 C   0  0  1  0  0  0  0  0  0  0  0  0
   22.2200  -20.5911  -12.8484 C   0  0  0  0  0  0  0  0  0  0  0  0
   21.5339  -20.7109  -11.5483 C   0  0  0  0  0  0  0  0  0  0  0  0
   20.8513  -21.7049  -11.1891 O   0  0  0  0  0  0  0  0  0  0  0  0
   24.4419  -20.5867  -11.8232 C   0  0  0  0  0  0  0  0  0  0  0  0
   24.8406  -21.7376  -12.0613 O   0  0  0  0  0  0  0  0  0  0  0  0
   21.6090  -19.6782  -10.6038 O   0  0  0  0  0  0  0  0  0  0  0  0
   24.8570  -19.9725  -10.6207 N   0  0  0  0  0  0  0  0  0  0  0  0
   25.7425  -20.6686   -9.6563 C   0  0  1  0  0  0  0  0  0  0  0  0
   26.7567  -19.7249   -9.1245 C   0  0  0  0  0  0  0  0  0  0  0  0
   27.7753  -20.2594   -8.2186 C   0  0  0  0  0  0  0  0  0  0  0  0
   28.6206  -21.3483   -8.4642 C   0  0  0  0  0  0  0  0  0  0  0  0
   29.4064  -21.5852   -7.4064 N   0  0  0  0  0  0  0  0  0  0  0  0
   29.0967  -20.6708   -6.4635 C   0  0  0  0  0  0  0  0  0  0  0  0
   29.6031  -20.4369   -5.1837 C   0  0  0  0  0  0  0  0  0  0  0  0
   29.1265  -19.4091   -4.4054 C   0  0  0  0  0  0  0  0  0  0  0  0
   28.1289  -18.5927   -4.8973 C   0  0  0  0  0  0  0  0  0  0  0  0
   27.6153  -18.8010   -6.1475 C   0  0  0  0  0  0  0  0  0  0  0  0
   28.0920  -19.8416   -6.9441 C   0  0  0  0  0  0  0  0  0  0  0  0
   24.8987  -21.3382   -8.6688 C   0  0  0  0  0  0  0  0  0  0  0  0
   25.2794  -22.5451   -8.0463 O   0  0  0  0  0  0  0  0  0  0  0  0
   23.7773  -20.8801   -8.3108 O   0  0  0  0  0  0  0  0  0  0  0  0
  1  2  1  0
  3  4  1  0
  3  2  1  0
  5  4  1  0
  5  6  1  6
  7  8  2  0
  7  5  1  0
  9  7  1  0
 10  9  1  0
 10 11  1  6
 12 16  1  0
 12 11  1  0
 13 12  2  0
 14 17  1  0
 14 10  1  0
 15 14  2  0
 18 29  1  0
 18 17  1  0
 18 19  1  1
 19 20  1  0
 20 21  2  0
 20 28  1  0
 21 22  1  0
 22 23  1  0
 23 24  2  0
 25 24  1  0
 26 25  2  0
 27 28  2  0
 27 26  1  0
 28 23  1  0
 29 30  1  0
 31 29  2  0
M  END
$$$$
