MDW.pdb
     RDKit          3D

 31 32  0  0  1  0  0  0  0  0999 V2000
   25.6186  -21.4481   -8.5305 C   0  0  0  0  0  0  0  0  0  0  0  0
   26.6790  -22.3121   -9.7079 S   0  0  0  0  0  0  0  0  0  0  0  0
   27.0166  -21.3220  -11.1950 C   0  0  0  0  0  0  0  0  0  0  0  0
   25.7676  -21.1553  -12.0285 C   0  0  0  0  0  0  0  0  0  0  0  0
   25.8235  -21.9216  -13.3259 C   0  0  2  0  0  0  0  0  0  0  0  0
   26.8185  -21.3094  -14.1711 N   0  0  0  0  0  0  0  0  0  0  0  0
   24.4876  -21.8748  -14.0087 C   0  0  0  0  0  0  0  0  0  0  0  0
   24.1409  -20.7319  -14.4435 O   0  0  0  0  0  0  0  0  0  0  0  0
   23.6831  -23.0204  -14.1521 N   0  0  0  0  0  0  0  0  0  0  0  0
   22.3693  -22.9426  -14.7307 C   0  0  1  0  0  0  0  0  0  0  0  0
   21.9887  -24.2191  -15.4069 C   0  0  0  0  0  0  0  0  0  0  0  0
   22.7999  -24.5777  -16.5855 C   0  0  0  0  0  0  0  0  0  0  0  0
   23.0846  -23.7896  -17.5240 O   0  0  0  0  0  0  0  0  0  0  0  0
   21.3500  -22.5727  -13.7131 C   0  0  0  0  0  0  0  0  0  0  0  0
   21.1636  -23.3330  -12.7500 O   0  0  0  0  0  0  0  0  0  0  0  0
   23.3182  -25.8720  -16.7281 O   0  0  0  0  0  0  0  0  0  0  0  0
   20.5790  -21.3915  -13.7891 N   0  0  0  0  0  0  0  0  0  0  0  0
   19.7103  -20.9553  -12.6694 C   0  0  1  0  0  0  0  0  0  0  0  0
   20.1099  -19.6008  -12.2137 C   0  0  0  0  0  0  0  0  0  0  0  0
   19.9499  -18.4909  -13.1551 C   0  0  0  0  0  0  0  0  0  0  0  0
   18.8154  -17.6846  -13.3083 C   0  0  0  0  0  0  0  0  0  0  0  0
   19.0010  -16.7874  -14.2846 N   0  0  0  0  0  0  0  0  0  0  0  0
   20.2402  -16.9848  -14.7810 C   0  0  0  0  0  0  0  0  0  0  0  0
   20.9601  -16.3379  -15.7871 C   0  0  0  0  0  0  0  0  0  0  0  0
   22.2422  -16.7188  -16.1038 C   0  0  0  0  0  0  0  0  0  0  0  0
   22.8296  -17.7601  -15.4150 C   0  0  0  0  0  0  0  0  0  0  0  0
   22.1457  -18.4108  -14.4256 C   0  0  0  0  0  0  0  0  0  0  0  0
   20.8443  -18.0319  -14.0978 C   0  0  0  0  0  0  0  0  0  0  0  0
   18.3191  -21.1151  -13.0869 C   0  0  0  0  0  0  0  0  0  0  0  0
   17.2528  -21.1360  -12.1641 O   0  0  0  0  0  0  0  0  0  0  0  0
   17.9836  -21.2445  -14.2978 O   0  0  0  0  0  0  0  0  0  0  0  0
  1  2  1  0
  3  4  1  0
  3  2  1  0
  5  4  1  0
  5  6  1  6
  7  8  2  0
  7  5  1  0
  9  7  1  0
 10  9  1  0
 10 11  1  1
 12 16  1  0
 12 11  1  0
 13 12  2  0
 14 17  1  0
 14 10  1  0
 15 14  2  0
 18 29  1  0
 18 17  1  0
 18 19  1  6
 19 20  1  0
 20 21  2  0
 20 28  1  0
 21 22  1  0
 22 23  1  0
 23 24  2  0
 25 24  1  0
 26 25  2  0
 27 28  2  0
 27 26  1  0
 28 23  1  0
 29 30  1  0
 31 29  2  0
M  END
$$$$
