MDW.pdb
     RDKit          3D

 31 32  0  0  1  0  0  0  0  0999 V2000
   32.5655  -16.2077  -18.8380 C   0  0  0  0  0  0  0  0  0  0  0  0
   32.8982  -17.7029  -19.7923 S   0  0  0  0  0  0  0  0  0  0  0  0
   31.6847  -17.9632  -21.1210 C   0  0  0  0  0  0  0  0  0  0  0  0
   30.3017  -18.1842  -20.5542 C   0  0  0  0  0  0  0  0  0  0  0  0
   30.2639  -19.2726  -19.5114 C   0  0  2  0  0  0  0  0  0  0  0  0
   30.4975  -20.5358  -20.1663 N   0  0  0  0  0  0  0  0  0  0  0  0
   28.9211  -19.2958  -18.8409 C   0  0  0  0  0  0  0  0  0  0  0  0
   28.5310  -18.1815  -18.3701 O   0  0  0  0  0  0  0  0  0  0  0  0
   28.1560  -20.4729  -18.7449 N   0  0  0  0  0  0  0  0  0  0  0  0
   26.8799  -20.4822  -18.0830 C   0  0  1  0  0  0  0  0  0  0  0  0
   25.8612  -21.2491  -18.8612 C   0  0  0  0  0  0  0  0  0  0  0  0
   25.3974  -20.6050  -20.1044 C   0  0  0  0  0  0  0  0  0  0  0  0
   25.7396  -20.9572  -21.2628 O   0  0  0  0  0  0  0  0  0  0  0  0
   26.9896  -21.0223  -16.7019 C   0  0  0  0  0  0  0  0  0  0  0  0
   27.6264  -22.0718  -16.5194 O   0  0  0  0  0  0  0  0  0  0  0  0
   24.5128  -19.5188  -20.0585 O   0  0  0  0  0  0  0  0  0  0  0  0
   26.4011  -20.3959  -15.5808 N   0  0  0  0  0  0  0  0  0  0  0  0
   26.4411  -21.0139  -14.2334 C   0  0  1  0  0  0  0  0  0  0  0  0
   26.5487  -19.9605  -13.1938 C   0  0  0  0  0  0  0  0  0  0  0  0
   26.2724  -20.3414  -11.8074 C   0  0  0  0  0  0  0  0  0  0  0  0
   27.2177  -20.6821  -10.8322 C   0  0  0  0  0  0  0  0  0  0  0  0
   26.6145  -21.0105   -9.6830 N   0  0  0  0  0  0  0  0  0  0  0  0
   25.2847  -20.8924   -9.8795 C   0  0  0  0  0  0  0  0  0  0  0  0
   24.1918  -21.0897   -9.0335 C   0  0  0  0  0  0  0  0  0  0  0  0
   22.9054  -20.8819   -9.4705 C   0  0  0  0  0  0  0  0  0  0  0  0
   22.6890  -20.4707  -10.7697 C   0  0  0  0  0  0  0  0  0  0  0  0
   23.7422  -20.2710  -11.6188 C   0  0  0  0  0  0  0  0  0  0  0  0
   25.0508  -20.4800  -11.1845 C   0  0  0  0  0  0  0  0  0  0  0  0
   25.3039  -21.9243  -14.1191 C   0  0  0  0  0  0  0  0  0  0  0  0
   24.0135  -21.5793  -14.5719 O   0  0  0  0  0  0  0  0  0  0  0  0
   25.4036  -23.0754  -13.6086 O   0  0  0  0  0  0  0  0  0  0  0  0
  1  2  1  0
  3  4  1  0
  3  2  1  0
  5  4  1  0
  5  6  1  6
  7  8  2  0
  7  5  1  0
  9  7  1  0
 10  9  1  0
 10 11  1  6
 12 16  1  0
 12 11  1  0
 13 12  2  0
 14 17  1  0
 14 10  1  0
 15 14  2  0
 18 29  1  0
 18 17  1  0
 18 19  1  1
 19 20  1  0
 20 21  2  0
 20 28  1  0
 21 22  1  0
 22 23  1  0
 23 24  2  0
 25 24  1  0
 26 25  2  0
 27 28  2  0
 27 26  1  0
 28 23  1  0
 29 30  1  0
 31 29  2  0
M  END
$$$$
