MDW.pdb
     RDKit          3D

 31 32  0  0  1  0  0  0  0  0999 V2000
   30.4307  -19.5047  -17.2945 C   0  0  0  0  0  0  0  0  0  0  0  0
   29.3073  -18.2026  -17.8417 S   0  0  0  0  0  0  0  0  0  0  0  0
   28.2632  -17.5738  -16.4925 C   0  0  0  0  0  0  0  0  0  0  0  0
   26.8462  -18.0814  -16.6240 C   0  0  0  0  0  0  0  0  0  0  0  0
   26.6110  -18.8329  -17.9098 C   0  0  2  0  0  0  0  0  0  0  0  0
   26.4330  -17.8720  -18.9700 N   0  0  0  0  0  0  0  0  0  0  0  0
   25.3795  -19.6827  -17.7908 C   0  0  0  0  0  0  0  0  0  0  0  0
   24.2786  -19.0479  -17.8149 O   0  0  0  0  0  0  0  0  0  0  0  0
   25.4490  -21.0822  -17.6617 N   0  0  0  0  0  0  0  0  0  0  0  0
   24.2705  -21.8693  -17.4197 C   0  0  1  0  0  0  0  0  0  0  0  0
   24.4347  -23.2715  -17.9078 C   0  0  0  0  0  0  0  0  0  0  0  0
   23.2234  -24.1106  -17.8426 C   0  0  0  0  0  0  0  0  0  0  0  0
   23.1588  -25.3043  -18.2350 O   0  0  0  0  0  0  0  0  0  0  0  0
   23.9010  -21.8631  -15.9793 C   0  0  0  0  0  0  0  0  0  0  0  0
   24.5940  -22.5140  -15.1817 O   0  0  0  0  0  0  0  0  0  0  0  0
   22.0286  -23.5996  -17.3179 O   0  0  0  0  0  0  0  0  0  0  0  0
   22.7935  -21.1483  -15.4713 N   0  0  0  0  0  0  0  0  0  0  0  0
   22.4679  -21.1422  -14.0246 C   0  0  1  0  0  0  0  0  0  0  0  0
   22.4306  -19.7481  -13.5177 C   0  0  0  0  0  0  0  0  0  0  0  0
   21.3579  -18.8764  -14.0007 C   0  0  0  0  0  0  0  0  0  0  0  0
   20.1096  -18.6784  -13.3981 C   0  0  0  0  0  0  0  0  0  0  0  0
   19.3601  -17.8416  -14.1265 N   0  0  0  0  0  0  0  0  0  0  0  0
   20.0910  -17.4807  -15.2019 C   0  0  0  0  0  0  0  0  0  0  0  0
   19.8223  -16.6266  -16.2730 C   0  0  0  0  0  0  0  0  0  0  0  0
   20.7556  -16.4013  -17.2566 C   0  0  0  0  0  0  0  0  0  0  0  0
   21.9814  -17.0306  -17.1847 C   0  0  0  0  0  0  0  0  0  0  0  0
   22.2693  -17.8725  -16.1463 C   0  0  0  0  0  0  0  0  0  0  0  0
   21.3285  -18.1079  -15.1443 C   0  0  0  0  0  0  0  0  0  0  0  0
   21.2565  -21.9359  -13.8299 C   0  0  0  0  0  0  0  0  0  0  0  0
   20.4499  -22.3570  -14.9075 O   0  0  0  0  0  0  0  0  0  0  0  0
   20.8554  -22.2944  -12.6870 O   0  0  0  0  0  0  0  0  0  0  0  0
  1  2  1  0
  3  4  1  0
  3  2  1  0
  5  4  1  0
  5  6  1  6
  7  8  2  0
  7  5  1  0
  9  7  1  0
 10  9  1  0
 10 11  1  1
 12 16  1  0
 12 11  1  0
 13 12  2  0
 14 17  1  0
 14 10  1  0
 15 14  2  0
 18 29  1  0
 18 17  1  0
 18 19  1  6
 19 20  1  0
 20 21  2  0
 20 28  1  0
 21 22  1  0
 22 23  1  0
 23 24  2  0
 25 24  1  0
 26 25  2  0
 27 28  2  0
 27 26  1  0
 28 23  1  0
 29 30  1  0
 31 29  2  0
M  END
$$$$
