DYG.pdb
     RDKit          3D

 25 25  0  0  1  0  0  0  0  0999 V2000
   17.7620   -9.1532  -13.6560 N   0  0  0  0  0  0  0  0  0  0  0  0
   18.0070   -7.9453  -12.9035 C   0  0  1  0  0  0  0  0  0  0  0  0
   18.2941   -6.7691  -13.8077 C   0  0  0  0  0  0  0  0  0  0  0  0
   19.5184   -7.0589  -14.5711 C   0  0  0  0  0  0  0  0  0  0  0  0
   20.1063   -8.1437  -14.4145 O   0  0  0  0  0  0  0  0  0  0  0  0
   16.8346   -7.6462  -12.0041 C   0  0  0  0  0  0  0  0  0  0  0  0
   15.6677   -7.8594  -12.4484 O   0  0  0  0  0  0  0  0  0  0  0  0
   20.0121   -6.1322  -15.4565 O   0  0  0  0  0  0  0  0  0  0  0  0
   10.7837   -7.1320   -5.8543 O   0  0  0  0  0  0  0  0  0  0  0  0
   11.9822   -7.2283   -6.5455 C   0  0  0  0  0  0  0  0  0  0  0  0
   13.0944   -6.4853   -6.2146 C   0  0  0  0  0  0  0  0  0  0  0  0
   14.2824   -6.6168   -6.9419 C   0  0  0  0  0  0  0  0  0  0  0  0
   14.3962   -7.4812   -8.0072 C   0  0  0  0  0  0  0  0  0  0  0  0
   15.6479   -7.5771   -8.7371 C   0  0  0  0  0  0  0  0  0  0  0  0
   15.8234   -6.7256   -9.9333 C   0  0  2  0  0  0  0  0  0  0  0  0
   16.9999   -7.1420  -10.6990 N   0  0  0  0  0  0  0  0  0  0  0  0
   15.9292   -5.3032   -9.5549 C   0  0  0  0  0  0  0  0  0  0  0  0
   16.9682   -4.8943   -9.0108 O   0  0  0  0  0  0  0  0  0  0  0  0
   13.2575   -8.2175   -8.3173 C   0  0  0  0  0  0  0  0  0  0  0  0
   12.0841   -8.0963   -7.6090 C   0  0  0  0  0  0  0  0  0  0  0  0
   14.8812   -4.3693   -9.7852 N   0  0  0  0  0  0  0  0  0  0  0  0
   15.0003   -3.0017   -9.3681 C   0  0  0  0  0  0  0  0  0  0  0  0
   15.5521   -2.0886  -10.3946 C   0  0  0  0  0  0  0  0  0  0  0  0
   15.9248   -2.5516  -11.5132 O   0  0  0  0  0  0  0  0  0  0  0  0
   15.7052   -0.7206  -10.2376 O   0  0  0  0  0  0  0  0  0  0  0  0
  2  3  1  0
  2  1  1  6
  4  8  1  0
  4  3  1  0
  5  4  2  0
  6  2  1  0
  7  6  2  0
  9 10  1  0
 10 20  2  0
 10 11  1  0
 11 12  2  0
 12 13  1  0
 13 14  1  0
 15 14  1  1
 15 16  1  0
 16  6  1  0
 17 15  1  0
 17 21  1  0
 18 17  2  0
 19 13  2  0
 20 19  1  0
 22 21  1  0
 23 22  1  0
 24 23  2  0
 25 23  1  0
M  END
$$$$
