DYG.pdb
     RDKit          3D

 25 25  0  0  1  0  0  0  0  0999 V2000
   27.9801  -20.0226  -19.0142 N   0  0  0  0  0  0  0  0  0  0  0  0
   27.3279  -19.0911  -18.1242 C   0  0  1  0  0  0  0  0  0  0  0  0
   26.0821  -18.5014  -18.7434 C   0  0  0  0  0  0  0  0  0  0  0  0
   26.4877  -17.6091  -19.8413 C   0  0  0  0  0  0  0  0  0  0  0  0
   25.8425  -17.5992  -20.9046 O   0  0  0  0  0  0  0  0  0  0  0  0
   26.9993  -19.7651  -16.8161 C   0  0  0  0  0  0  0  0  0  0  0  0
   26.9669  -21.0310  -16.7849 O   0  0  0  0  0  0  0  0  0  0  0  0
   27.5781  -16.7874  -19.6923 O   0  0  0  0  0  0  0  0  0  0  0  0
   25.9312  -21.1527   -8.0842 O   0  0  0  0  0  0  0  0  0  0  0  0
   26.2232  -20.6638   -9.3488 C   0  0  0  0  0  0  0  0  0  0  0  0
   25.5916  -19.5631   -9.8857 C   0  0  0  0  0  0  0  0  0  0  0  0
   25.9201  -19.1065  -11.1668 C   0  0  0  0  0  0  0  0  0  0  0  0
   26.8752  -19.7253  -11.9415 C   0  0  0  0  0  0  0  0  0  0  0  0
   27.1761  -19.2196  -13.2690 C   0  0  0  0  0  0  0  0  0  0  0  0
   26.3967  -19.7486  -14.4089 C   0  0  2  0  0  0  0  0  0  0  0  0
   26.7303  -19.0338  -15.6425 N   0  0  0  0  0  0  0  0  0  0  0  0
   24.9484  -19.6661  -14.1386 C   0  0  0  0  0  0  0  0  0  0  0  0
   24.3536  -18.5932  -14.3331 O   0  0  0  0  0  0  0  0  0  0  0  0
   27.4952  -20.8331  -11.3729 C   0  0  0  0  0  0  0  0  0  0  0  0
   27.1802  -21.2907  -10.1141 C   0  0  0  0  0  0  0  0  0  0  0  0
   24.1948  -20.7723  -13.6569 N   0  0  0  0  0  0  0  0  0  0  0  0
   22.8263  -20.6195  -13.2540 C   0  0  0  0  0  0  0  0  0  0  0  0
   21.8461  -20.6753  -14.3623 C   0  0  0  0  0  0  0  0  0  0  0  0
   20.6162  -20.4882  -14.1240 O   0  0  0  0  0  0  0  0  0  0  0  0
   22.1629  -20.9239  -15.6879 O   0  0  0  0  0  0  0  0  0  0  0  0
  2  3  1  0
  2  1  1  6
  4  8  1  0
  4  3  1  0
  5  4  2  0
  6  2  1  0
  7  6  2  0
  9 10  1  0
 10 20  2  0
 10 11  1  0
 11 12  2  0
 12 13  1  0
 13 14  1  0
 15 14  1  1
 15 16  1  0
 16  6  1  0
 17 15  1  0
 17 21  1  0
 18 17  2  0
 19 13  2  0
 20 19  1  0
 22 21  1  0
 23 22  1  0
 24 23  2  0
 25 23  1  0
M  END
$$$$
