DYG.pdb
     RDKit          3D

 25 25  0  0  1  0  0  0  0  0999 V2000
   22.4420  -13.0529  -17.5636 N   0  0  0  0  0  0  0  0  0  0  0  0
   22.1781  -11.6613  -17.8449 C   0  0  1  0  0  0  0  0  0  0  0  0
   20.7029  -11.3976  -18.0382 C   0  0  0  0  0  0  0  0  0  0  0  0
   20.2435  -12.1661  -19.2063 C   0  0  0  0  0  0  0  0  0  0  0  0
   20.9609  -12.2455  -20.2192 O   0  0  0  0  0  0  0  0  0  0  0  0
   22.7295  -10.7943  -16.7415 C   0  0  0  0  0  0  0  0  0  0  0  0
   22.6204  -11.2016  -15.5470 O   0  0  0  0  0  0  0  0  0  0  0  0
   19.0231  -12.7956  -19.1784 O   0  0  0  0  0  0  0  0  0  0  0  0
   28.8926  -12.8954  -17.0076 O   0  0  0  0  0  0  0  0  0  0  0  0
   28.0398  -11.8243  -16.7862 C   0  0  0  0  0  0  0  0  0  0  0  0
   27.8012  -11.3097  -15.5305 C   0  0  0  0  0  0  0  0  0  0  0  0
   26.9320  -10.2271  -15.3565 C   0  0  0  0  0  0  0  0  0  0  0  0
   26.2826   -9.6329  -16.4149 C   0  0  0  0  0  0  0  0  0  0  0  0
   25.3831   -8.5166  -16.1838 C   0  0  0  0  0  0  0  0  0  0  0  0
   23.9635   -8.8144  -15.8958 C   0  0  2  0  0  0  0  0  0  0  0  0
   23.3547   -9.5586  -17.0001 N   0  0  0  0  0  0  0  0  0  0  0  0
   23.2097   -7.5739  -15.6303 C   0  0  0  0  0  0  0  0  0  0  0  0
   23.8278   -6.5389  -15.3311 O   0  0  0  0  0  0  0  0  0  0  0  0
   26.5433  -10.1738  -17.6696 C   0  0  0  0  0  0  0  0  0  0  0  0
   27.3962  -11.2380  -17.8524 C   0  0  0  0  0  0  0  0  0  0  0  0
   21.7903   -7.5103  -15.6995 N   0  0  0  0  0  0  0  0  0  0  0  0
   21.0794   -6.3298  -15.3002 C   0  0  0  0  0  0  0  0  0  0  0  0
   19.6135   -6.3949  -15.4976 C   0  0  0  0  0  0  0  0  0  0  0  0
   19.1107   -7.3462  -16.1660 O   0  0  0  0  0  0  0  0  0  0  0  0
   18.7058   -5.4744  -14.9997 O   0  0  0  0  0  0  0  0  0  0  0  0
  2  3  1  0
  2  1  1  1
  4  8  1  0
  4  3  1  0
  5  4  2  0
  6  2  1  0
  7  6  2  0
  9 10  1  0
 10 20  2  0
 10 11  1  0
 11 12  2  0
 12 13  1  0
 13 14  1  0
 15 14  1  6
 15 16  1  0
 16  6  1  0
 17 15  1  0
 17 21  1  0
 18 17  2  0
 19 13  2  0
 20 19  1  0
 22 21  1  0
 23 22  1  0
 24 23  2  0
 25 23  1  0
M  END
$$$$
