DYG.pdb
     RDKit          3D

 25 25  0  0  1  0  0  0  0  0999 V2000
   22.0667  -10.7998  -19.5912 N   0  0  0  0  0  0  0  0  0  0  0  0
   22.7526   -9.9270  -18.6677 C   0  0  1  0  0  0  0  0  0  0  0  0
   23.5672   -8.8770  -19.3871 C   0  0  0  0  0  0  0  0  0  0  0  0
   24.7331   -9.5338  -19.9996 C   0  0  0  0  0  0  0  0  0  0  0  0
   24.9166  -10.7531  -19.8363 O   0  0  0  0  0  0  0  0  0  0  0  0
   21.7633   -9.2788  -17.7326 C   0  0  0  0  0  0  0  0  0  0  0  0
   20.6338   -8.9400  -18.1951 O   0  0  0  0  0  0  0  0  0  0  0  0
   25.6186   -8.8011  -20.7516 O   0  0  0  0  0  0  0  0  0  0  0  0
   17.0500  -13.3842  -16.5906 O   0  0  0  0  0  0  0  0  0  0  0  0
   17.8726  -12.3856  -16.0911 C   0  0  0  0  0  0  0  0  0  0  0  0
   17.4016  -11.1394  -15.7394 C   0  0  0  0  0  0  0  0  0  0  0  0
   18.2705  -10.1633  -15.2394 C   0  0  0  0  0  0  0  0  0  0  0  0
   19.6175  -10.3967  -15.0773 C   0  0  0  0  0  0  0  0  0  0  0  0
   20.4815   -9.3494  -14.5622 C   0  0  0  0  0  0  0  0  0  0  0  0
   21.0612   -8.3885  -15.5253 C   0  0  2  0  0  0  0  0  0  0  0  0
   22.0579   -9.0426  -16.3754 N   0  0  0  0  0  0  0  0  0  0  0  0
   21.6568   -7.2354  -14.8231 C   0  0  0  0  0  0  0  0  0  0  0  0
   22.6159   -7.4198  -14.0557 O   0  0  0  0  0  0  0  0  0  0  0  0
   20.0633  -11.6632  -15.4407 C   0  0  0  0  0  0  0  0  0  0  0  0
   19.2179  -12.6306  -15.9332 C   0  0  0  0  0  0  0  0  0  0  0  0
   21.1742   -5.9071  -14.9853 N   0  0  0  0  0  0  0  0  0  0  0  0
   21.7390   -4.8160  -14.2442 C   0  0  0  0  0  0  0  0  0  0  0  0
   21.2209   -3.4807  -14.6192 C   0  0  0  0  0  0  0  0  0  0  0  0
   20.4493   -3.3630  -15.6169 O   0  0  0  0  0  0  0  0  0  0  0  0
   21.5148   -2.3018  -13.9536 O   0  0  0  0  0  0  0  0  0  0  0  0
  2  3  1  0
  2  1  1  6
  4  8  1  0
  4  3  1  0
  5  4  2  0
  6  2  1  0
  7  6  2  0
  9 10  1  0
 10 20  2  0
 10 11  1  0
 11 12  2  0
 12 13  1  0
 13 14  1  0
 15 14  1  1
 15 16  1  0
 16  6  1  0
 17 15  1  0
 17 21  1  0
 18 17  2  0
 19 13  2  0
 20 19  1  0
 22 21  1  0
 23 22  1  0
 24 23  2  0
 25 23  1  0
M  END
$$$$
