DYG.pdb
     RDKit          3D

 25 25  0  0  1  0  0  0  0  0999 V2000
   21.1850  -13.9119  -19.2743 N   0  0  0  0  0  0  0  0  0  0  0  0
   21.5222  -12.5147  -19.4140 C   0  0  1  0  0  0  0  0  0  0  0  0
   20.4209  -11.7368  -20.0961 C   0  0  0  0  0  0  0  0  0  0  0  0
   20.3869  -12.1279  -21.5145 C   0  0  0  0  0  0  0  0  0  0  0  0
   20.6260  -13.3040  -21.8408 O   0  0  0  0  0  0  0  0  0  0  0  0
   21.8329  -11.9175  -18.0649 C   0  0  0  0  0  0  0  0  0  0  0  0
   21.1923  -12.3431  -17.0583 O   0  0  0  0  0  0  0  0  0  0  0  0
   20.0912  -11.1948  -22.4780 O   0  0  0  0  0  0  0  0  0  0  0  0
   26.0449  -16.2909  -16.4459 O   0  0  0  0  0  0  0  0  0  0  0  0
   25.6789  -14.9551  -16.3734 C   0  0  0  0  0  0  0  0  0  0  0  0
   25.1746  -14.3825  -15.2260 C   0  0  0  0  0  0  0  0  0  0  0  0
   24.8189  -13.0295  -15.2010 C   0  0  0  0  0  0  0  0  0  0  0  0
   24.9530  -12.2172  -16.3043 C   0  0  0  0  0  0  0  0  0  0  0  0
   24.5624  -10.8204  -16.2324 C   0  0  0  0  0  0  0  0  0  0  0  0
   23.1595  -10.4727  -16.5448 C   0  0  2  0  0  0  0  0  0  0  0  0
   22.8043  -10.9113  -17.8958 N   0  0  0  0  0  0  0  0  0  0  0  0
   22.9317   -9.0225  -16.3950 C   0  0  0  0  0  0  0  0  0  0  0  0
   23.1620   -8.2683  -17.3546 O   0  0  0  0  0  0  0  0  0  0  0  0
   25.4645  -12.8232  -17.4471 C   0  0  0  0  0  0  0  0  0  0  0  0
   25.8177  -14.1525  -17.4830 C   0  0  0  0  0  0  0  0  0  0  0  0
   22.4574   -8.4425  -15.1857 N   0  0  0  0  0  0  0  0  0  0  0  0
   22.2608   -7.0261  -15.0686 C   0  0  0  0  0  0  0  0  0  0  0  0
   21.6624   -6.5894  -13.7867 C   0  0  0  0  0  0  0  0  0  0  0  0
   21.2284   -7.4536  -12.9686 O   0  0  0  0  0  0  0  0  0  0  0  0
   21.5275   -5.2705  -13.3843 O   0  0  0  0  0  0  0  0  0  0  0  0
  2  3  1  0
  2  1  1  1
  4  8  1  0
  4  3  1  0
  5  4  2  0
  6  2  1  0
  7  6  2  0
  9 10  1  0
 10 20  2  0
 10 11  1  0
 11 12  2  0
 12 13  1  0
 13 14  1  0
 15 14  1  6
 15 16  1  0
 16  6  1  0
 17 15  1  0
 17 21  1  0
 18 17  2  0
 19 13  2  0
 20 19  1  0
 22 21  1  0
 23 22  1  0
 24 23  2  0
 25 23  1  0
M  END
$$$$
