DYG.pdb
     RDKit          3D

 25 25  0  0  1  0  0  0  0  0999 V2000
   20.6351  -10.5187  -17.5664 N   0  0  0  0  0  0  0  0  0  0  0  0
   20.5951  -10.6849  -16.1325 C   0  0  1  0  0  0  0  0  0  0  0  0
   21.2101  -11.9962  -15.7019 C   0  0  0  0  0  0  0  0  0  0  0  0
   20.2705  -13.0798  -16.0321 C   0  0  0  0  0  0  0  0  0  0  0  0
   19.2605  -12.8394  -16.7170 O   0  0  0  0  0  0  0  0  0  0  0  0
   21.2876   -9.5293  -15.4556 C   0  0  0  0  0  0  0  0  0  0  0  0
   21.3214   -9.5082  -14.1895 O   0  0  0  0  0  0  0  0  0  0  0  0
   20.5083  -14.3563  -15.5844 O   0  0  0  0  0  0  0  0  0  0  0  0
   27.1291  -12.0514  -16.3395 O   0  0  0  0  0  0  0  0  0  0  0  0
   26.3698  -10.8953  -16.2382 C   0  0  0  0  0  0  0  0  0  0  0  0
   26.0596  -10.3117  -15.0291 C   0  0  0  0  0  0  0  0  0  0  0  0
   25.2899   -9.1444  -14.9770 C   0  0  0  0  0  0  0  0  0  0  0  0
   24.8120   -8.5319  -16.1135 C   0  0  0  0  0  0  0  0  0  0  0  0
   24.0099   -7.3259  -16.0087 C   0  0  0  0  0  0  0  0  0  0  0  0
   22.6374   -7.4470  -15.4716 C   0  0  2  0  0  0  0  0  0  0  0  0
   21.8905   -8.4853  -16.1844 N   0  0  0  0  0  0  0  0  0  0  0  0
   21.9278   -6.1554  -15.5466 C   0  0  0  0  0  0  0  0  0  0  0  0
   21.1714   -5.9319  -16.5061 O   0  0  0  0  0  0  0  0  0  0  0  0
   25.1413   -9.1438  -17.3185 C   0  0  0  0  0  0  0  0  0  0  0  0
   25.8975  -10.2915  -17.3815 C   0  0  0  0  0  0  0  0  0  0  0  0
   22.0754   -5.1418  -14.5595 N   0  0  0  0  0  0  0  0  0  0  0  0
   21.3254   -3.9208  -14.6309 C   0  0  0  0  0  0  0  0  0  0  0  0
   21.6757   -3.0464  -15.7731 C   0  0  0  0  0  0  0  0  0  0  0  0
   22.6331   -3.3655  -16.5388 O   0  0  0  0  0  0  0  0  0  0  0  0
   21.0277   -1.8645  -16.0936 O   0  0  0  0  0  0  0  0  0  0  0  0
  2  3  1  0
  2  1  1  6
  4  8  1  0
  4  3  1  0
  5  4  2  0
  6  2  1  0
  7  6  2  0
  9 10  1  0
 10 20  2  0
 10 11  1  0
 11 12  2  0
 12 13  1  0
 13 14  1  0
 15 14  1  6
 15 16  1  0
 16  6  1  0
 17 15  1  0
 17 21  1  0
 18 17  2  0
 19 13  2  0
 20 19  1  0
 22 21  1  0
 23 22  1  0
 24 23  2  0
 25 23  1  0
M  END
$$$$
