DYG.pdb
     RDKit          3D

 25 25  0  0  1  0  0  0  0  0999 V2000
   24.5057   -6.9771  -19.8007 N   0  0  0  0  0  0  0  0  0  0  0  0
   23.1948   -7.5754  -19.7057 C   0  0  1  0  0  0  0  0  0  0  0  0
   23.2147   -9.0357  -20.0938 C   0  0  0  0  0  0  0  0  0  0  0  0
   23.4606   -9.1273  -21.5420 C   0  0  0  0  0  0  0  0  0  0  0  0
   24.5473   -9.5630  -21.9615 O   0  0  0  0  0  0  0  0  0  0  0  0
   22.6462   -7.4070  -18.3115 C   0  0  0  0  0  0  0  0  0  0  0  0
   21.4769   -7.8309  -18.0715 O   0  0  0  0  0  0  0  0  0  0  0  0
   22.4905   -8.7322  -22.4304 O   0  0  0  0  0  0  0  0  0  0  0  0
   24.1117  -13.0868  -15.7263 O   0  0  0  0  0  0  0  0  0  0  0  0
   24.0123  -11.7151  -15.5472 C   0  0  0  0  0  0  0  0  0  0  0  0
   25.0957  -10.8701  -15.6514 C   0  0  0  0  0  0  0  0  0  0  0  0
   24.9462   -9.4918  -15.4622 C   0  0  0  0  0  0  0  0  0  0  0  0
   23.7284   -8.9217  -15.1670 C   0  0  0  0  0  0  0  0  0  0  0  0
   23.6242   -7.4866  -14.9711 C   0  0  0  0  0  0  0  0  0  0  0  0
   22.8180   -6.7088  -15.9364 C   0  0  2  0  0  0  0  0  0  0  0  0
   23.3898   -6.7982  -17.2814 N   0  0  0  0  0  0  0  0  0  0  0  0
   22.7078   -5.2993  -15.5137 C   0  0  0  0  0  0  0  0  0  0  0  0
   23.7411   -4.6258  -15.3671 O   0  0  0  0  0  0  0  0  0  0  0  0
   22.6539   -9.7995  -15.0685 C   0  0  0  0  0  0  0  0  0  0  0  0
   22.7893  -11.1563  -15.2527 C   0  0  0  0  0  0  0  0  0  0  0  0
   21.4569   -4.6710  -15.2607 N   0  0  0  0  0  0  0  0  0  0  0  0
   21.3865   -3.3084  -14.8170 C   0  0  0  0  0  0  0  0  0  0  0  0
   20.0170   -2.8189  -14.5398 C   0  0  0  0  0  0  0  0  0  0  0  0
   19.8499   -1.6660  -14.0422 O   0  0  0  0  0  0  0  0  0  0  0  0
   18.8559   -3.5344  -14.7835 O   0  0  0  0  0  0  0  0  0  0  0  0
  2  3  1  0
  2  1  1  1
  4  8  1  0
  4  3  1  0
  5  4  2  0
  6  2  1  0
  7  6  2  0
  9 10  1  0
 10 20  2  0
 10 11  1  0
 11 12  2  0
 12 13  1  0
 13 14  1  0
 15 14  1  1
 15 16  1  0
 16  6  1  0
 17 15  1  0
 17 21  1  0
 18 17  2  0
 19 13  2  0
 20 19  1  0
 22 21  1  0
 23 22  1  0
 24 23  2  0
 25 23  1  0
M  END
$$$$
