DYG.pdb
     RDKit          3D

 25 25  0  0  1  0  0  0  0  0999 V2000
   20.2830   -8.7570  -19.1952 N   0  0  0  0  0  0  0  0  0  0  0  0
   21.2323   -7.8687  -18.5665 C   0  0  1  0  0  0  0  0  0  0  0  0
   21.5245   -6.6603  -19.4254 C   0  0  0  0  0  0  0  0  0  0  0  0
   22.3131   -7.0978  -20.5884 C   0  0  0  0  0  0  0  0  0  0  0  0
   23.0546   -8.0922  -20.4980 O   0  0  0  0  0  0  0  0  0  0  0  0
   20.7275   -7.4435  -17.2109 C   0  0  0  0  0  0  0  0  0  0  0  0
   19.4761   -7.3468  -17.0399 O   0  0  0  0  0  0  0  0  0  0  0  0
   22.2306   -6.4085  -21.7736 O   0  0  0  0  0  0  0  0  0  0  0  0
   18.2986  -12.7073  -15.0553 O   0  0  0  0  0  0  0  0  0  0  0  0
   18.9895  -11.5413  -14.7612 C   0  0  0  0  0  0  0  0  0  0  0  0
   18.4172  -10.4878  -14.0821 C   0  0  0  0  0  0  0  0  0  0  0  0
   19.1547   -9.3307  -13.8082 C   0  0  0  0  0  0  0  0  0  0  0  0
   20.4675   -9.1905  -14.1981 C   0  0  0  0  0  0  0  0  0  0  0  0
   21.1897   -7.9669  -13.8982 C   0  0  0  0  0  0  0  0  0  0  0  0
   21.0440   -6.8265  -14.8282 C   0  0  2  0  0  0  0  0  0  0  0  0
   21.5993   -7.1544  -16.1428 N   0  0  0  0  0  0  0  0  0  0  0  0
   21.6883   -5.6168  -14.2815 C   0  0  0  0  0  0  0  0  0  0  0  0
   22.8692   -5.6759  -13.9009 O   0  0  0  0  0  0  0  0  0  0  0  0
   21.0176  -10.2700  -14.8812 C   0  0  0  0  0  0  0  0  0  0  0  0
   20.3019  -11.4126  -15.1559 C   0  0  0  0  0  0  0  0  0  0  0  0
   21.0088   -4.3724  -14.1666 N   0  0  0  0  0  0  0  0  0  0  0  0
   21.6687   -3.2115  -13.6419 C   0  0  0  0  0  0  0  0  0  0  0  0
   20.8124   -2.0082  -13.5380 C   0  0  0  0  0  0  0  0  0  0  0  0
   21.2679   -0.9570  -12.9975 O   0  0  0  0  0  0  0  0  0  0  0  0
   19.5072   -1.9232  -13.9947 O   0  0  0  0  0  0  0  0  0  0  0  0
  2  3  1  0
  2  1  1  6
  4  8  1  0
  4  3  1  0
  5  4  2  0
  6  2  1  0
  7  6  2  0
  9 10  1  0
 10 20  2  0
 10 11  1  0
 11 12  2  0
 12 13  1  0
 13 14  1  0
 15 14  1  1
 15 16  1  0
 16  6  1  0
 17 15  1  0
 17 21  1  0
 18 17  2  0
 19 13  2  0
 20 19  1  0
 22 21  1  0
 23 22  1  0
 24 23  2  0
 25 23  1  0
M  END
$$$$
