DYG.pdb
     RDKit          3D

 25 25  0  0  1  0  0  0  0  0999 V2000
   26.8381  -22.1849  -15.1544 N   0  0  0  0  0  0  0  0  0  0  0  0
   25.7728  -21.4377  -15.7807 C   0  0  1  0  0  0  0  0  0  0  0  0
   25.4742  -21.9449  -17.1724 C   0  0  0  0  0  0  0  0  0  0  0  0
   26.6748  -21.7559  -18.0024 C   0  0  0  0  0  0  0  0  0  0  0  0
   26.5923  -21.8323  -19.2411 O   0  0  0  0  0  0  0  0  0  0  0  0
   24.5326  -21.4835  -14.9246 C   0  0  0  0  0  0  0  0  0  0  0  0
   24.2336  -22.5770  -14.3594 O   0  0  0  0  0  0  0  0  0  0  0  0
   27.8861  -21.4951  -17.4099 O   0  0  0  0  0  0  0  0  0  0  0  0
   25.5074  -21.3116   -8.1665 O   0  0  0  0  0  0  0  0  0  0  0  0
   24.8220  -20.8781   -9.2916 C   0  0  0  0  0  0  0  0  0  0  0  0
   25.4617  -20.4173  -10.4216 C   0  0  0  0  0  0  0  0  0  0  0  0
   24.7270  -19.9901  -11.5331 C   0  0  0  0  0  0  0  0  0  0  0  0
   23.3506  -20.0087  -11.5515 C   0  0  0  0  0  0  0  0  0  0  0  0
   22.6314  -19.5473  -12.7256 C   0  0  0  0  0  0  0  0  0  0  0  0
   22.5252  -20.4633  -13.8816 C   0  0  2  0  0  0  0  0  0  0  0  0
   23.7075  -20.3568  -14.7388 N   0  0  0  0  0  0  0  0  0  0  0  0
   21.2986  -20.1922  -14.6559 C   0  0  0  0  0  0  0  0  0  0  0  0
   21.2449  -19.1816  -15.3760 O   0  0  0  0  0  0  0  0  0  0  0  0
   22.7334  -20.4788  -10.3970 C   0  0  0  0  0  0  0  0  0  0  0  0
   23.4457  -20.9015   -9.2984 C   0  0  0  0  0  0  0  0  0  0  0  0
   20.1607  -21.0448  -14.6117 N   0  0  0  0  0  0  0  0  0  0  0  0
   18.9957  -20.7700  -15.4027 C   0  0  0  0  0  0  0  0  0  0  0  0
   17.9752  -19.9345  -14.7300 C   0  0  0  0  0  0  0  0  0  0  0  0
   16.8596  -19.7289  -15.2937 O   0  0  0  0  0  0  0  0  0  0  0  0
   18.1350  -19.3326  -13.4924 O   0  0  0  0  0  0  0  0  0  0  0  0
  2  3  1  0
  2  1  1  1
  4  8  1  0
  4  3  1  0
  5  4  2  0
  6  2  1  0
  7  6  2  0
  9 10  1  0
 10 20  2  0
 10 11  1  0
 11 12  2  0
 12 13  1  0
 13 14  1  0
 15 14  1  1
 15 16  1  0
 16  6  1  0
 17 15  1  0
 17 21  1  0
 18 17  2  0
 19 13  2  0
 20 19  1  0
 22 21  1  0
 23 22  1  0
 24 23  2  0
 25 23  1  0
M  END
$$$$
