DYG.pdb
     RDKit          3D

 25 25  0  0  1  0  0  0  0  0999 V2000
   26.2638  -20.7496  -16.8788 N   0  0  0  0  0  0  0  0  0  0  0  0
   26.6330  -21.9387  -16.1473 C   0  0  1  0  0  0  0  0  0  0  0  0
   28.1304  -22.1392  -16.1209 C   0  0  0  0  0  0  0  0  0  0  0  0
   28.6138  -22.2073  -17.5093 C   0  0  0  0  0  0  0  0  0  0  0  0
   29.5311  -21.4565  -17.8856 O   0  0  0  0  0  0  0  0  0  0  0  0
   26.0835  -21.8777  -14.7446 C   0  0  0  0  0  0  0  0  0  0  0  0
   26.2468  -22.8833  -13.9919 O   0  0  0  0  0  0  0  0  0  0  0  0
   28.0524  -23.0997  -18.3897 O   0  0  0  0  0  0  0  0  0  0  0  0
   29.0523  -21.3290   -7.9159 O   0  0  0  0  0  0  0  0  0  0  0  0
   28.2116  -20.9366   -8.9468 C   0  0  0  0  0  0  0  0  0  0  0  0
   28.6077  -20.9232  -10.2665 C   0  0  0  0  0  0  0  0  0  0  0  0
   27.7235  -20.5190  -11.2727 C   0  0  0  0  0  0  0  0  0  0  0  0
   26.4347  -20.1209  -10.9975 C   0  0  0  0  0  0  0  0  0  0  0  0
   25.5559  -19.7018  -12.0749 C   0  0  0  0  0  0  0  0  0  0  0  0
   24.8942  -20.7499  -12.8813 C   0  0  2  0  0  0  0  0  0  0  0  0
   25.4018  -20.7463  -14.2547 N   0  0  0  0  0  0  0  0  0  0  0  0
   23.4291  -20.5745  -12.8707 C   0  0  0  0  0  0  0  0  0  0  0  0
   22.8989  -19.8355  -13.7166 O   0  0  0  0  0  0  0  0  0  0  0  0
   26.0638  -20.1450   -9.6571 C   0  0  0  0  0  0  0  0  0  0  0  0
   26.9250  -20.5407   -8.6595 C   0  0  0  0  0  0  0  0  0  0  0  0
   22.5873  -21.2189  -11.9222 N   0  0  0  0  0  0  0  0  0  0  0  0
   21.1780  -20.9533  -11.8787 C   0  0  0  0  0  0  0  0  0  0  0  0
   20.3736  -21.7250  -12.8531 C   0  0  0  0  0  0  0  0  0  0  0  0
   20.9424  -22.5608  -13.6163 O   0  0  0  0  0  0  0  0  0  0  0  0
   19.0021  -21.6120  -13.0136 O   0  0  0  0  0  0  0  0  0  0  0  0
  2  3  1  0
  2  1  1  1
  4  8  1  0
  4  3  1  0
  5  4  2  0
  6  2  1  0
  7  6  2  0
  9 10  1  0
 10 20  2  0
 10 11  1  0
 11 12  2  0
 12 13  1  0
 13 14  1  0
 15 14  1  1
 15 16  1  0
 16  6  1  0
 17 15  1  0
 17 21  1  0
 18 17  2  0
 19 13  2  0
 20 19  1  0
 22 21  1  0
 23 22  1  0
 24 23  2  0
 25 23  1  0
M  END
$$$$
