DYG.pdb
     RDKit          3D

 25 25  0  0  1  0  0  0  0  0999 V2000
   28.6685  -23.0027  -16.7206 N   0  0  0  0  0  0  0  0  0  0  0  0
   27.4814  -22.3287  -17.1917 C   0  0  1  0  0  0  0  0  0  0  0  0
   26.7651  -23.1299  -18.2539 C   0  0  0  0  0  0  0  0  0  0  0  0
   27.6068  -23.1571  -19.4608 C   0  0  0  0  0  0  0  0  0  0  0  0
   28.3862  -22.2169  -19.6963 O   0  0  0  0  0  0  0  0  0  0  0  0
   26.5567  -22.0363  -16.0373 C   0  0  0  0  0  0  0  0  0  0  0  0
   26.1839  -23.0023  -15.3077 O   0  0  0  0  0  0  0  0  0  0  0  0
   27.5322  -24.2203  -20.3272 O   0  0  0  0  0  0  0  0  0  0  0  0
   30.0201  -21.4083  -10.3626 O   0  0  0  0  0  0  0  0  0  0  0  0
   28.9949  -20.9533  -11.1783 C   0  0  0  0  0  0  0  0  0  0  0  0
   29.2137  -20.1245  -12.2571 C   0  0  0  0  0  0  0  0  0  0  0  0
   28.1468  -19.6911  -13.0517 C   0  0  0  0  0  0  0  0  0  0  0  0
   26.8465  -20.0656  -12.7983 C   0  0  0  0  0  0  0  0  0  0  0  0
   25.7710  -19.5834  -13.6465 C   0  0  0  0  0  0  0  0  0  0  0  0
   25.1861  -20.5204  -14.6297 C   0  0  2  0  0  0  0  0  0  0  0  0
   26.1018  -20.7339  -15.7521 N   0  0  0  0  0  0  0  0  0  0  0  0
   23.8814  -20.0286  -15.1127 C   0  0  0  0  0  0  0  0  0  0  0  0
   23.8489  -19.1014  -15.9385 O   0  0  0  0  0  0  0  0  0  0  0  0
   26.6570  -20.9024  -11.7034 C   0  0  0  0  0  0  0  0  0  0  0  0
   27.6987  -21.3347  -10.9153 C   0  0  0  0  0  0  0  0  0  0  0  0
   22.6449  -20.5731  -14.6675 N   0  0  0  0  0  0  0  0  0  0  0  0
   21.3924  -20.0395  -15.1203 C   0  0  0  0  0  0  0  0  0  0  0  0
   20.8779  -18.9059  -14.3189 C   0  0  0  0  0  0  0  0  0  0  0  0
   21.0950  -18.8679  -13.0715 O   0  0  0  0  0  0  0  0  0  0  0  0
   20.1515  -17.8416  -14.8277 O   0  0  0  0  0  0  0  0  0  0  0  0
  2  3  1  0
  2  1  1  1
  4  8  1  0
  4  3  1  0
  5  4  2  0
  6  2  1  0
  7  6  2  0
  9 10  1  0
 10 20  2  0
 10 11  1  0
 11 12  2  0
 12 13  1  0
 13 14  1  0
 15 14  1  1
 15 16  1  0
 16  6  1  0
 17 15  1  0
 17 21  1  0
 18 17  2  0
 19 13  2  0
 20 19  1  0
 22 21  1  0
 23 22  1  0
 24 23  2  0
 25 23  1  0
M  END
$$$$
