DYG.pdb
     RDKit          3D

 25 25  0  0  1  0  0  0  0  0999 V2000
   20.9140  -11.5754  -19.6139 N   0  0  0  0  0  0  0  0  0  0  0  0
   21.7811  -10.5116  -19.1649 C   0  0  1  0  0  0  0  0  0  0  0  0
   21.9473   -9.4406  -20.2178 C   0  0  0  0  0  0  0  0  0  0  0  0
   22.6365  -10.0318  -21.3759 C   0  0  0  0  0  0  0  0  0  0  0  0
   22.3711   -9.6371  -22.5251 O   0  0  0  0  0  0  0  0  0  0  0  0
   21.2530   -9.9159  -17.8844 C   0  0  0  0  0  0  0  0  0  0  0  0
   20.0133  -10.0138  -17.6436 O   0  0  0  0  0  0  0  0  0  0  0  0
   23.5728  -11.0191  -21.1884 O   0  0  0  0  0  0  0  0  0  0  0  0
   21.5842  -15.1432  -14.5589 O   0  0  0  0  0  0  0  0  0  0  0  0
   21.6842  -13.7599  -14.5537 C   0  0  0  0  0  0  0  0  0  0  0  0
   20.5823  -12.9338  -14.5116 C   0  0  0  0  0  0  0  0  0  0  0  0
   20.7332  -11.5427  -14.5081 C   0  0  0  0  0  0  0  0  0  0  0  0
   21.9708  -10.9411  -14.5463 C   0  0  0  0  0  0  0  0  0  0  0  0
   22.0770   -9.4928  -14.5494 C   0  0  0  0  0  0  0  0  0  0  0  0
   21.5258   -8.7566  -15.7073 C   0  0  2  0  0  0  0  0  0  0  0  0
   22.0909   -9.2613  -16.9603 N   0  0  0  0  0  0  0  0  0  0  0  0
   21.7727   -7.3078  -15.5749 C   0  0  0  0  0  0  0  0  0  0  0  0
   22.9196   -6.8672  -15.7569 O   0  0  0  0  0  0  0  0  0  0  0  0
   23.0638  -11.8004  -14.5882 C   0  0  0  0  0  0  0  0  0  0  0  0
   22.9271  -13.1695  -14.5920 C   0  0  0  0  0  0  0  0  0  0  0  0
   20.7446   -6.3830  -15.2412 N   0  0  0  0  0  0  0  0  0  0  0  0
   21.0044   -4.9732  -15.1826 C   0  0  0  0  0  0  0  0  0  0  0  0
   21.6196   -4.5104  -13.9179 C   0  0  0  0  0  0  0  0  0  0  0  0
   21.8759   -5.3457  -13.0007 O   0  0  0  0  0  0  0  0  0  0  0  0
   21.9530   -3.1960  -13.6340 O   0  0  0  0  0  0  0  0  0  0  0  0
  2  3  1  0
  2  1  1  6
  4  8  1  0
  4  3  1  0
  5  4  2  0
  6  2  1  0
  7  6  2  0
  9 10  1  0
 10 20  2  0
 10 11  1  0
 11 12  2  0
 12 13  1  0
 13 14  1  0
 15 14  1  1
 15 16  1  0
 16  6  1  0
 17 15  1  0
 17 21  1  0
 18 17  2  0
 19 13  2  0
 20 19  1  0
 22 21  1  0
 23 22  1  0
 24 23  2  0
 25 23  1  0
M  END
$$$$
