DYG.pdb
     RDKit          3D

 25 25  0  0  1  0  0  0  0  0999 V2000
   28.1854  -21.6992  -15.5729 N   0  0  0  0  0  0  0  0  0  0  0  0
   27.3625  -20.6481  -15.0220 C   0  0  1  0  0  0  0  0  0  0  0  0
   26.5943  -19.9148  -16.0969 C   0  0  0  0  0  0  0  0  0  0  0  0
   27.5561  -19.1847  -16.9383 C   0  0  0  0  0  0  0  0  0  0  0  0
   28.3096  -18.3369  -16.4282 O   0  0  0  0  0  0  0  0  0  0  0  0
   26.4190  -21.2130  -13.9907 C   0  0  0  0  0  0  0  0  0  0  0  0
   26.1262  -22.4437  -14.0554 O   0  0  0  0  0  0  0  0  0  0  0  0
   27.6220  -19.4392  -18.2864 O   0  0  0  0  0  0  0  0  0  0  0  0
   29.8816  -21.2428   -7.8883 O   0  0  0  0  0  0  0  0  0  0  0  0
   28.7020  -21.0475   -8.5912 C   0  0  0  0  0  0  0  0  0  0  0  0
   28.5552  -21.4056   -9.9136 C   0  0  0  0  0  0  0  0  0  0  0  0
   27.3449  -21.1887  -10.5813 C   0  0  0  0  0  0  0  0  0  0  0  0
   26.2588  -20.6154   -9.9593 C   0  0  0  0  0  0  0  0  0  0  0  0
   25.0257  -20.4027  -10.6963 C   0  0  0  0  0  0  0  0  0  0  0  0
   24.9017  -21.0137  -12.0372 C   0  0  2  0  0  0  0  0  0  0  0  0
   25.8610  -20.4187  -12.9697 N   0  0  0  0  0  0  0  0  0  0  0  0
   23.5257  -20.8759  -12.5522 C   0  0  0  0  0  0  0  0  0  0  0  0
   23.1693  -19.7968  -13.0536 O   0  0  0  0  0  0  0  0  0  0  0  0
   26.4370  -20.2648   -8.6252 C   0  0  0  0  0  0  0  0  0  0  0  0
   27.6226  -20.4735   -7.9587 C   0  0  0  0  0  0  0  0  0  0  0  0
   22.5773  -21.9347  -12.4968 N   0  0  0  0  0  0  0  0  0  0  0  0
   21.2865  -21.8083  -13.1102 C   0  0  0  0  0  0  0  0  0  0  0  0
   20.2432  -21.2218  -12.2387 C   0  0  0  0  0  0  0  0  0  0  0  0
   20.5395  -20.8532  -11.0636 O   0  0  0  0  0  0  0  0  0  0  0  0
   18.9204  -21.0324  -12.6046 O   0  0  0  0  0  0  0  0  0  0  0  0
  2  3  1  0
  2  1  1  6
  4  8  1  0
  4  3  1  0
  5  4  2  0
  6  2  1  0
  7  6  2  0
  9 10  1  0
 10 20  2  0
 10 11  1  0
 11 12  2  0
 12 13  1  0
 13 14  1  0
 15 14  1  1
 15 16  1  0
 16  6  1  0
 17 15  1  0
 17 21  1  0
 18 17  2  0
 19 13  2  0
 20 19  1  0
 22 21  1  0
 23 22  1  0
 24 23  2  0
 25 23  1  0
M  END
$$$$
