DYG.pdb
     RDKit          3D

 25 25  0  0  1  0  0  0  0  0999 V2000
   21.4826   -7.7931  -19.8955 N   0  0  0  0  0  0  0  0  0  0  0  0
   22.3232   -6.8193  -19.2394 C   0  0  1  0  0  0  0  0  0  0  0  0
   23.7758   -6.9825  -19.6225 C   0  0  0  0  0  0  0  0  0  0  0  0
   24.2771   -8.2284  -19.0206 C   0  0  0  0  0  0  0  0  0  0  0  0
   25.2513   -8.8142  -19.5251 O   0  0  0  0  0  0  0  0  0  0  0  0
   21.8471   -5.4242  -19.5558 C   0  0  0  0  0  0  0  0  0  0  0  0
   21.7335   -5.0904  -20.7724 O   0  0  0  0  0  0  0  0  0  0  0  0
   23.6698   -8.7444  -17.9019 O   0  0  0  0  0  0  0  0  0  0  0  0
   16.1806   -5.7219  -22.2429 O   0  0  0  0  0  0  0  0  0  0  0  0
   17.0367   -5.0313  -21.3982 C   0  0  0  0  0  0  0  0  0  0  0  0
   17.7765   -3.9454  -21.8132 C   0  0  0  0  0  0  0  0  0  0  0  0
   18.6275   -3.2801  -20.9239 C   0  0  0  0  0  0  0  0  0  0  0  0
   18.7652   -3.6719  -19.6114 C   0  0  0  0  0  0  0  0  0  0  0  0
   19.6673   -2.9549  -18.7279 C   0  0  0  0  0  0  0  0  0  0  0  0
   21.1221   -3.1375  -18.9207 C   0  0  2  0  0  0  0  0  0  0  0  0
   21.5292   -4.4935  -18.5472 N   0  0  0  0  0  0  0  0  0  0  0  0
   21.8842   -2.1372  -18.1486 C   0  0  0  0  0  0  0  0  0  0  0  0
   22.2416   -2.4068  -16.9900 O   0  0  0  0  0  0  0  0  0  0  0  0
   18.0060   -4.7704  -19.2219 C   0  0  0  0  0  0  0  0  0  0  0  0
   17.1660   -5.4322  -20.0877 C   0  0  0  0  0  0  0  0  0  0  0  0
   22.2292   -0.8623  -18.6768 N   0  0  0  0  0  0  0  0  0  0  0  0
   23.0353    0.0584  -17.9279 C   0  0  0  0  0  0  0  0  0  0  0  0
   22.4636    0.4598  -16.6225 C   0  0  0  0  0  0  0  0  0  0  0  0
   21.3306    0.0169  -16.2693 O   0  0  0  0  0  0  0  0  0  0  0  0
   23.0777    1.3094  -15.7166 O   0  0  0  0  0  0  0  0  0  0  0  0
  2  3  1  0
  2  1  1  6
  4  8  1  0
  4  3  1  0
  5  4  2  0
  6  2  1  0
  7  6  2  0
  9 10  1  0
 10 20  2  0
 10 11  1  0
 11 12  2  0
 12 13  1  0
 13 14  1  0
 15 14  1  1
 15 16  1  0
 16  6  1  0
 17 15  1  0
 17 21  1  0
 18 17  2  0
 19 13  2  0
 20 19  1  0
 22 21  1  0
 23 22  1  0
 24 23  2  0
 25 23  1  0
M  END
$$$$
