VVS.pdb
     RDKit          3D

 21 20  0  0  1  0  0  0  0  0999 V2000
   24.5457  -13.7696  -20.0614 C   0  0  0  0  0  0  0  0  0  0  0  0
   23.5072  -12.7075  -19.7068 C   0  0  2  0  0  0  0  0  0  0  0  0
   24.2725  -11.4603  -19.3979 C   0  0  0  0  0  0  0  0  0  0  0  0
   22.7288  -13.1546  -18.4602 C   0  0  2  0  0  0  0  0  0  0  0  0
   22.0791  -14.4159  -18.8746 N   0  0  0  0  0  0  0  0  0  0  0  0
   21.6835  -12.1992  -18.0800 C   0  0  0  0  0  0  0  0  0  0  0  0
   20.9136  -11.7551  -18.9824 O   0  0  0  0  0  0  0  0  0  0  0  0
   18.6904  -12.7466  -16.1071 C   0  0  0  0  0  0  0  0  0  0  0  0
   19.3919  -11.5790  -15.5187 C   0  0  2  0  0  0  0  0  0  0  0  0
   18.3159  -10.6467  -14.9441 C   0  0  0  0  0  0  0  0  0  0  0  0
   20.3133  -10.8247  -16.4425 C   0  0  2  0  0  0  0  0  0  0  0  0
   21.4396  -11.7140  -16.7878 N   0  0  0  0  0  0  0  0  0  0  0  0
   20.7897   -9.5405  -15.9415 C   0  0  0  0  0  0  0  0  0  0  0  0
   21.5454   -9.4650  -14.9003 O   0  0  0  0  0  0  0  0  0  0  0  0
   21.2523   -4.7650  -16.6529 O   0  0  0  0  0  0  0  0  0  0  0  0
   20.6904   -5.9731  -17.0757 C   0  0  0  0  0  0  0  0  0  0  0  0
   21.0584   -7.0387  -16.0341 C   0  0  2  0  0  0  0  0  0  0  0  0
   20.4931   -8.2811  -16.5152 N   0  0  0  0  0  0  0  0  0  0  0  0
   20.3958   -6.6708  -14.7778 C   0  0  0  0  0  0  0  0  0  0  0  0
   19.1855   -6.9442  -14.6074 O   0  0  0  0  0  0  0  0  0  0  0  0
   21.0923   -6.0197  -13.7667 O   0  0  0  0  0  0  0  0  0  0  0  0
  2  1  1  1
  2  3  1  0
  2  4  1  0
  4  6  1  0
  4  5  1  6
  6 12  1  0
  6  7  2  0
  9  8  1  6
  9 11  1  0
 10  9  1  0
 11 13  1  0
 11 12  1  1
 13 14  2  0
 15 16  1  0
 17 16  1  6
 17 19  1  0
 18 13  1  0
 18 17  1  0
 19 21  1  0
 20 19  2  0
M  END
$$$$
