VVS.pdb
     RDKit          3D

 21 20  0  0  1  0  0  0  0  0999 V2000
   16.1899  -12.0524  -16.0899 C   0  0  0  0  0  0  0  0  0  0  0  0
   16.9558  -12.6513  -17.2677 C   0  0  2  0  0  0  0  0  0  0  0  0
   16.1144  -13.7733  -17.7871 C   0  0  0  0  0  0  0  0  0  0  0  0
   18.2999  -13.2045  -16.7708 C   0  0  2  0  0  0  0  0  0  0  0  0
   17.9273  -14.3886  -15.9683 N   0  0  0  0  0  0  0  0  0  0  0  0
   19.0071  -12.2600  -15.9004 C   0  0  0  0  0  0  0  0  0  0  0  0
   18.4298  -11.8616  -14.8457 O   0  0  0  0  0  0  0  0  0  0  0  0
   23.1549  -10.2839  -14.1236 C   0  0  0  0  0  0  0  0  0  0  0  0
   22.3755  -11.1015  -15.0857 C   0  0  2  0  0  0  0  0  0  0  0  0
   23.1094  -11.0380  -16.4326 C   0  0  0  0  0  0  0  0  0  0  0  0
   20.9248  -10.7276  -15.2505 C   0  0  2  0  0  0  0  0  0  0  0  0
   20.2899  -11.7388  -16.1182 N   0  0  0  0  0  0  0  0  0  0  0  0
   20.6776   -9.3780  -15.7451 C   0  0  0  0  0  0  0  0  0  0  0  0
   20.8039   -9.0876  -16.9943 O   0  0  0  0  0  0  0  0  0  0  0  0
   17.7534   -7.0707  -15.1604 O   0  0  0  0  0  0  0  0  0  0  0  0
   18.8812   -6.3628  -14.7353 C   0  0  0  0  0  0  0  0  0  0  0  0
   20.0931   -6.9437  -15.4769 C   0  0  2  0  0  0  0  0  0  0  0  0
   20.2853   -8.2768  -14.9473 N   0  0  0  0  0  0  0  0  0  0  0  0
   21.2566   -6.1214  -15.1266 C   0  0  0  0  0  0  0  0  0  0  0  0
   22.1375   -6.5798  -14.3635 O   0  0  0  0  0  0  0  0  0  0  0  0
   21.3993   -4.8341  -15.6303 O   0  0  0  0  0  0  0  0  0  0  0  0
  2  1  1  1
  2  3  1  0
  2  4  1  0
  4  6  1  0
  4  5  1  1
  6 12  1  0
  6  7  2  0
  9  8  1  1
  9 11  1  0
 10  9  1  0
 11 13  1  0
 11 12  1  6
 13 14  2  0
 15 16  1  0
 17 16  1  1
 17 19  1  0
 18 13  1  0
 18 17  1  0
 19 21  1  0
 20 19  2  0
M  END
$$$$
