VVS.pdb
     RDKit          3D

 21 20  0  0  1  0  0  0  0  0999 V2000
   27.3600  -13.0342  -15.7780 C   0  0  0  0  0  0  0  0  0  0  0  0
   26.7415  -11.7163  -16.2395 C   0  0  2  0  0  0  0  0  0  0  0  0
   27.0027  -10.7267  -15.1490 C   0  0  0  0  0  0  0  0  0  0  0  0
   25.2265  -11.9000  -16.4145 C   0  0  2  0  0  0  0  0  0  0  0  0
   25.1077  -12.9013  -17.4953 N   0  0  0  0  0  0  0  0  0  0  0  0
   24.5595  -10.6688  -16.8494 C   0  0  0  0  0  0  0  0  0  0  0  0
   25.0334  -10.0437  -17.8439 O   0  0  0  0  0  0  0  0  0  0  0  0
   20.6455  -10.1551  -17.2108 C   0  0  0  0  0  0  0  0  0  0  0  0
   21.7010   -9.2511  -17.7309 C   0  0  2  0  0  0  0  0  0  0  0  0
   22.3078   -9.9281  -18.9680 C   0  0  0  0  0  0  0  0  0  0  0  0
   22.7796   -8.8602  -16.7537 C   0  0  2  0  0  0  0  0  0  0  0  0
   23.4211  -10.0965  -16.2652 N   0  0  0  0  0  0  0  0  0  0  0  0
   22.3458   -8.0176  -15.6451 C   0  0  0  0  0  0  0  0  0  0  0  0
   21.8138   -8.5237  -14.5859 O   0  0  0  0  0  0  0  0  0  0  0  0
   22.9151   -4.0846  -15.8187 O   0  0  0  0  0  0  0  0  0  0  0  0
   22.9132   -4.5451  -14.4989 C   0  0  0  0  0  0  0  0  0  0  0  0
   22.0536   -5.8161  -14.4586 C   0  0  2  0  0  0  0  0  0  0  0  0
   22.4544   -6.6071  -15.6024 N   0  0  0  0  0  0  0  0  0  0  0  0
   20.6557   -5.4054  -14.6318 C   0  0  0  0  0  0  0  0  0  0  0  0
   20.0703   -5.6264  -15.7167 O   0  0  0  0  0  0  0  0  0  0  0  0
   19.9652   -4.7710  -13.6061 O   0  0  0  0  0  0  0  0  0  0  0  0
  2  1  1  1
  2  3  1  0
  2  4  1  0
  4  6  1  0
  4  5  1  6
  6 12  1  0
  6  7  2  0
  9  8  1  1
  9 11  1  0
 10  9  1  0
 11 13  1  0
 11 12  1  1
 13 14  2  0
 15 16  1  0
 17 16  1  6
 17 19  1  0
 18 13  1  0
 18 17  1  0
 19 21  1  0
 20 19  2  0
M  END
$$$$
