VVS.pdb
     RDKit          3D

 21 20  0  0  1  0  0  0  0  0999 V2000
   18.5563  -12.3837  -20.0783 C   0  0  0  0  0  0  0  0  0  0  0  0
   18.6891  -11.5882  -18.7814 C   0  0  2  0  0  0  0  0  0  0  0  0
   19.0979  -10.2055  -19.1784 C   0  0  0  0  0  0  0  0  0  0  0  0
   19.7860  -12.2178  -17.9095 C   0  0  2  0  0  0  0  0  0  0  0  0
   19.2122  -13.5135  -17.4890 N   0  0  0  0  0  0  0  0  0  0  0  0
   20.0701  -11.4263  -16.7084 C   0  0  0  0  0  0  0  0  0  0  0  0
   19.1380  -11.2443  -15.8702 O   0  0  0  0  0  0  0  0  0  0  0  0
   22.9528   -9.9766  -13.0869 C   0  0  0  0  0  0  0  0  0  0  0  0
   22.5748  -10.6760  -14.3399 C   0  0  2  0  0  0  0  0  0  0  0  0
   23.8627  -10.8813  -15.1499 C   0  0  0  0  0  0  0  0  0  0  0  0
   21.5174  -10.0065  -15.1796 C   0  0  2  0  0  0  0  0  0  0  0  0
   21.2981  -10.8353  -16.3811 N   0  0  0  0  0  0  0  0  0  0  0  0
   21.7872   -8.6188  -15.5381 C   0  0  0  0  0  0  0  0  0  0  0  0
   22.5903   -8.3183  -16.5002 O   0  0  0  0  0  0  0  0  0  0  0  0
   19.5356   -5.9194  -16.5122 O   0  0  0  0  0  0  0  0  0  0  0  0
   20.1968   -5.3949  -15.3978 C   0  0  0  0  0  0  0  0  0  0  0  0
   21.5405   -6.1268  -15.2762 C   0  0  2  0  0  0  0  0  0  0  0  0
   21.2227   -7.4880  -14.9011 N   0  0  0  0  0  0  0  0  0  0  0  0
   22.2863   -5.4947  -14.1822 C   0  0  0  0  0  0  0  0  0  0  0  0
   22.1650   -5.9270  -13.0130 O   0  0  0  0  0  0  0  0  0  0  0  0
   23.1307   -4.4173  -14.4222 O   0  0  0  0  0  0  0  0  0  0  0  0
  2  1  1  6
  2  3  1  0
  2  4  1  0
  4  6  1  0
  4  5  1  1
  6 12  1  0
  6  7  2  0
  9  8  1  1
  9 11  1  0
 10  9  1  0
 11 13  1  0
 11 12  1  6
 13 14  2  0
 15 16  1  0
 17 16  1  1
 17 19  1  0
 18 13  1  0
 18 17  1  0
 19 21  1  0
 20 19  2  0
M  END
$$$$
