VVS.pdb
     RDKit          3D

 21 20  0  0  1  0  0  0  0  0999 V2000
   15.8881  -11.7419  -15.5898 C   0  0  0  0  0  0  0  0  0  0  0  0
   16.7563  -12.1885  -16.7641 C   0  0  2  0  0  0  0  0  0  0  0  0
   16.0926  -13.3992  -17.3388 C   0  0  0  0  0  0  0  0  0  0  0  0
   18.1536  -12.5648  -16.2485 C   0  0  2  0  0  0  0  0  0  0  0  0
   17.9176  -13.7556  -15.4053 N   0  0  0  0  0  0  0  0  0  0  0  0
   18.7432  -11.5151  -15.4116 C   0  0  0  0  0  0  0  0  0  0  0  0
   18.3832  -11.4349  -14.1998 O   0  0  0  0  0  0  0  0  0  0  0  0
   22.3447   -9.3706  -16.2265 C   0  0  0  0  0  0  0  0  0  0  0  0
   21.6348   -9.4549  -14.9262 C   0  0  2  0  0  0  0  0  0  0  0  0
   22.1275  -10.7275  -14.2230 C   0  0  0  0  0  0  0  0  0  0  0  0
   20.1292   -9.4296  -14.9902 C   0  0  2  0  0  0  0  0  0  0  0  0
   19.6899  -10.5666  -15.8225 N   0  0  0  0  0  0  0  0  0  0  0  0
   19.5425   -8.1778  -15.4552 C   0  0  0  0  0  0  0  0  0  0  0  0
   19.4112   -7.9244  -16.7120 O   0  0  0  0  0  0  0  0  0  0  0  0
   16.8589   -4.3038  -14.4436 O   0  0  0  0  0  0  0  0  0  0  0  0
   17.5677   -5.4081  -13.9619 C   0  0  0  0  0  0  0  0  0  0  0  0
   18.4101   -5.9537  -15.1232 C   0  0  2  0  0  0  0  0  0  0  0  0
   19.0674   -7.1401  -14.6183 N   0  0  0  0  0  0  0  0  0  0  0  0
   19.4278   -4.9448  -15.4381 C   0  0  0  0  0  0  0  0  0  0  0  0
   20.5422   -4.9837  -14.8680 O   0  0  0  0  0  0  0  0  0  0  0  0
   19.1750   -3.9400  -16.3643 O   0  0  0  0  0  0  0  0  0  0  0  0
  2  1  1  1
  2  3  1  0
  2  4  1  0
  4  6  1  0
  4  5  1  1
  6 12  1  0
  6  7  2  0
  9  8  1  6
  9 11  1  0
 10  9  1  0
 11 13  1  0
 11 12  1  6
 13 14  2  0
 15 16  1  0
 17 16  1  1
 17 19  1  0
 18 13  1  0
 18 17  1  0
 19 21  1  0
 20 19  2  0
M  END
$$$$
