VVS.pdb
     RDKit          3D

 21 20  0  0  1  0  0  0  0  0999 V2000
   18.5082   -9.4900  -19.2073 C   0  0  0  0  0  0  0  0  0  0  0  0
   19.6114  -10.3767  -19.7808 C   0  0  2  0  0  0  0  0  0  0  0  0
   19.0307  -11.0384  -20.9897 C   0  0  0  0  0  0  0  0  0  0  0  0
   19.9947  -11.4445  -18.7450 C   0  0  2  0  0  0  0  0  0  0  0  0
   18.7743  -12.2669  -18.6073 N   0  0  0  0  0  0  0  0  0  0  0  0
   20.3126  -10.8661  -17.4357 C   0  0  0  0  0  0  0  0  0  0  0  0
   19.3691  -10.6833  -16.6106 O   0  0  0  0  0  0  0  0  0  0  0  0
   22.7251  -12.0678  -14.7355 C   0  0  0  0  0  0  0  0  0  0  0  0
   22.9787  -10.6347  -15.0247 C   0  0  2  0  0  0  0  0  0  0  0  0
   23.3922   -9.9724  -13.7028 C   0  0  0  0  0  0  0  0  0  0  0  0
   21.8459   -9.8779  -15.6692 C   0  0  2  0  0  0  0  0  0  0  0  0
   21.5854  -10.4853  -16.9889 N   0  0  0  0  0  0  0  0  0  0  0  0
   22.0382   -8.4365  -15.7806 C   0  0  0  0  0  0  0  0  0  0  0  0
   22.9422   -7.9379  -16.5521 O   0  0  0  0  0  0  0  0  0  0  0  0
   20.3033   -4.0352  -15.6084 O   0  0  0  0  0  0  0  0  0  0  0  0
   20.1178   -5.4045  -15.3969 C   0  0  0  0  0  0  0  0  0  0  0  0
   21.5079   -6.0357  -15.2379 C   0  0  2  0  0  0  0  0  0  0  0  0
   21.2870   -7.4580  -15.0869 N   0  0  0  0  0  0  0  0  0  0  0  0
   22.0881   -5.5110  -13.9967 C   0  0  0  0  0  0  0  0  0  0  0  0
   21.8136   -6.0533  -12.9016 O   0  0  0  0  0  0  0  0  0  0  0  0
   22.9427   -4.4153  -14.0149 O   0  0  0  0  0  0  0  0  0  0  0  0
  2  1  1  1
  2  3  1  0
  2  4  1  0
  4  6  1  0
  4  5  1  1
  6 12  1  0
  6  7  2  0
  9  8  1  1
  9 11  1  0
 10  9  1  0
 11 13  1  0
 11 12  1  6
 13 14  2  0
 15 16  1  0
 17 16  1  1
 17 19  1  0
 18 13  1  0
 18 17  1  0
 19 21  1  0
 20 19  2  0
M  END
$$$$
