VVS.pdb
     RDKit          3D

 21 20  0  0  1  0  0  0  0  0999 V2000
   16.9615  -11.6182  -17.1350 C   0  0  0  0  0  0  0  0  0  0  0  0
   18.2294  -12.0997  -17.8372 C   0  0  2  0  0  0  0  0  0  0  0  0
   17.8707  -13.3837  -18.5149 C   0  0  0  0  0  0  0  0  0  0  0  0
   19.3225  -12.3597  -16.7896 C   0  0  2  0  0  0  0  0  0  0  0  0
   18.8301  -13.5343  -16.0394 N   0  0  0  0  0  0  0  0  0  0  0  0
   19.4764  -11.2432  -15.8517 C   0  0  0  0  0  0  0  0  0  0  0  0
   18.6723  -11.1578  -14.8768 O   0  0  0  0  0  0  0  0  0  0  0  0
   23.0424   -8.9170  -15.4942 C   0  0  0  0  0  0  0  0  0  0  0  0
   22.0086   -9.1298  -14.4513 C   0  0  2  0  0  0  0  0  0  0  0  0
   22.3583  -10.4376  -13.7272 C   0  0  0  0  0  0  0  0  0  0  0  0
   20.5794   -9.1503  -14.9291 C   0  0  2  0  0  0  0  0  0  0  0  0
   20.4469  -10.2344  -15.9220 N   0  0  0  0  0  0  0  0  0  0  0  0
   20.0768   -7.8871  -15.4572 C   0  0  0  0  0  0  0  0  0  0  0  0
   20.3829   -7.4864  -16.6432 O   0  0  0  0  0  0  0  0  0  0  0  0
   16.8516   -4.3163  -15.1389 O   0  0  0  0  0  0  0  0  0  0  0  0
   17.3812   -5.4956  -14.6072 C   0  0  0  0  0  0  0  0  0  0  0  0
   18.6884   -5.7890  -15.3561 C   0  0  2  0  0  0  0  0  0  0  0  0
   19.2295   -6.9923  -14.7611 N   0  0  0  0  0  0  0  0  0  0  0  0
   19.6051   -4.6746  -15.0908 C   0  0  0  0  0  0  0  0  0  0  0  0
   19.6472   -3.7006  -15.8769 O   0  0  0  0  0  0  0  0  0  0  0  0
   20.4331   -4.6809  -13.9747 O   0  0  0  0  0  0  0  0  0  0  0  0
  2  1  1  1
  2  3  1  0
  2  4  1  0
  4  6  1  0
  4  5  1  1
  6 12  1  0
  6  7  2  0
  9  8  1  6
  9 11  1  0
 10  9  1  0
 11 13  1  0
 11 12  1  6
 13 14  2  0
 15 16  1  0
 17 16  1  1
 17 19  1  0
 18 13  1  0
 18 17  1  0
 19 21  1  0
 20 19  2  0
M  END
$$$$
