VVS.pdb
     RDKit          3D

 21 20  0  0  1  0  0  0  0  0999 V2000
   18.5902  -10.6983  -20.7267 C   0  0  0  0  0  0  0  0  0  0  0  0
   18.7180  -10.1246  -19.3171 C   0  0  2  0  0  0  0  0  0  0  0  0
   19.3871   -8.7953  -19.4653 C   0  0  0  0  0  0  0  0  0  0  0  0
   19.6011  -11.0526  -18.4693 C   0  0  2  0  0  0  0  0  0  0  0  0
   18.7566  -12.2440  -18.2413 N   0  0  0  0  0  0  0  0  0  0  0  0
   19.9386  -10.4690  -17.1672 C   0  0  0  0  0  0  0  0  0  0  0  0
   19.0197  -10.3448  -16.3043 O   0  0  0  0  0  0  0  0  0  0  0  0
   22.3116  -11.6813  -14.5138 C   0  0  0  0  0  0  0  0  0  0  0  0
   22.6168  -10.2626  -14.8236 C   0  0  2  0  0  0  0  0  0  0  0  0
   23.1069   -9.6105  -13.5230 C   0  0  0  0  0  0  0  0  0  0  0  0
   21.4952   -9.4610  -15.4325 C   0  0  2  0  0  0  0  0  0  0  0  0
   21.2056  -10.0236  -16.7660 N   0  0  0  0  0  0  0  0  0  0  0  0
   21.7206   -8.0219  -15.5047 C   0  0  0  0  0  0  0  0  0  0  0  0
   22.7071   -7.5299  -16.1723 O   0  0  0  0  0  0  0  0  0  0  0  0
   20.0598   -3.5457  -14.7731 O   0  0  0  0  0  0  0  0  0  0  0  0
   19.8238   -4.9234  -14.7790 C   0  0  0  0  0  0  0  0  0  0  0  0
   21.1763   -5.6189  -14.9861 C   0  0  2  0  0  0  0  0  0  0  0  0
   20.9171   -7.0388  -14.8795 N   0  0  0  0  0  0  0  0  0  0  0  0
   22.0520   -5.2119  -13.8815 C   0  0  0  0  0  0  0  0  0  0  0  0
   21.9562   -5.7779  -12.7684 O   0  0  0  0  0  0  0  0  0  0  0  0
   22.9923   -4.2026  -14.0499 O   0  0  0  0  0  0  0  0  0  0  0  0
  2  1  1  6
  2  3  1  0
  2  4  1  0
  4  6  1  0
  4  5  1  1
  6 12  1  0
  6  7  2  0
  9  8  1  1
  9 11  1  0
 10  9  1  0
 11 13  1  0
 11 12  1  6
 13 14  2  0
 15 16  1  0
 17 16  1  1
 17 19  1  0
 18 13  1  0
 18 17  1  0
 19 21  1  0
 20 19  2  0
M  END
$$$$
