VVS.pdb
     RDKit          3D

 21 20  0  0  1  0  0  0  0  0999 V2000
   16.6238   -8.5590  -16.7687 C   0  0  0  0  0  0  0  0  0  0  0  0
   17.1881   -9.6111  -17.7211 C   0  0  2  0  0  0  0  0  0  0  0  0
   16.0177  -10.1784  -18.4592 C   0  0  0  0  0  0  0  0  0  0  0  0
   17.8684  -10.7213  -16.9059 C   0  0  2  0  0  0  0  0  0  0  0  0
   16.7463  -11.4268  -16.2518 N   0  0  0  0  0  0  0  0  0  0  0  0
   18.7512  -10.1895  -15.8629 C   0  0  0  0  0  0  0  0  0  0  0  0
   18.2595   -9.9460  -14.7213 O   0  0  0  0  0  0  0  0  0  0  0  0
   21.9984  -11.5342  -14.3172 C   0  0  0  0  0  0  0  0  0  0  0  0
   22.1948  -10.1417  -14.7906 C   0  0  2  0  0  0  0  0  0  0  0  0
   23.1835   -9.4709  -13.8265 C   0  0  0  0  0  0  0  0  0  0  0  0
   20.9468   -9.3098  -14.9391 C   0  0  2  0  0  0  0  0  0  0  0  0
   20.1192   -9.9164  -16.0001 N   0  0  0  0  0  0  0  0  0  0  0  0
   21.1661   -7.8896  -15.1883 C   0  0  0  0  0  0  0  0  0  0  0  0
   21.6957   -7.4752  -16.2877 O   0  0  0  0  0  0  0  0  0  0  0  0
   19.9951   -3.3454  -14.2452 O   0  0  0  0  0  0  0  0  0  0  0  0
   19.8087   -4.7119  -14.0174 C   0  0  0  0  0  0  0  0  0  0  0  0
   21.0223   -5.4441  -14.6066 C   0  0  2  0  0  0  0  0  0  0  0  0
   20.8362   -6.8446  -14.2926 N   0  0  0  0  0  0  0  0  0  0  0  0
   22.2134   -4.9542  -13.9037 C   0  0  0  0  0  0  0  0  0  0  0  0
   22.5361   -5.4526  -12.8010 O   0  0  0  0  0  0  0  0  0  0  0  0
   22.9950   -3.9400  -14.4439 O   0  0  0  0  0  0  0  0  0  0  0  0
  2  1  1  1
  2  3  1  0
  2  4  1  0
  4  6  1  0
  4  5  1  1
  6 12  1  0
  6  7  2  0
  9  8  1  1
  9 11  1  0
 10  9  1  0
 11 13  1  0
 11 12  1  6
 13 14  2  0
 15 16  1  0
 17 16  1  1
 17 19  1  0
 18 13  1  0
 18 17  1  0
 19 21  1  0
 20 19  2  0
M  END
$$$$
