NAN.pdb
     RDKit          3D

 22 21  0  0  1  0  0  0  0  0999 V2000
   14.5452  -12.8319  -15.0442 N   0  0  0  0  0  0  0  0  0  0  0  0
   13.9343  -11.5711  -15.0359 C   0  0  0  0  0  0  0  0  0  0  0  0
   12.8006  -11.4571  -15.6020 O   0  0  0  0  0  0  0  0  0  0  0  0
   14.4830  -10.3454  -14.4274 C   0  0  0  0  0  0  0  0  0  0  0  0
   15.8587  -10.6146  -13.8016 C   0  0  2  0  0  0  0  0  0  0  0  0
   15.6644  -11.4131  -12.6307 N   0  0  0  0  0  0  0  0  0  0  0  0
   16.4045   -9.2995  -13.4210 C   0  0  0  0  0  0  0  0  0  0  0  0
   16.3829   -8.3677  -14.2631 O   0  0  0  0  0  0  0  0  0  0  0  0
   17.7271   -7.6191  -10.3428 C   0  0  0  0  0  0  0  0  0  0  0  0
   17.4909   -7.7768  -11.8300 C   0  0  2  0  0  0  0  0  0  0  0  0
   16.9587   -9.0611  -12.1120 N   0  0  0  0  0  0  0  0  0  0  0  0
   18.7410   -7.4785  -12.5797 C   0  0  0  0  0  0  0  0  0  0  0  0
   19.5540   -8.4013  -12.8058 O   0  0  0  0  0  0  0  0  0  0  0  0
   22.5683   -5.0741  -15.3125 N   0  0  0  0  0  0  0  0  0  0  0  0
   21.4396   -4.2229  -15.2266 C   0  0  0  0  0  0  0  0  0  0  0  0
   21.5390   -3.1369  -15.8957 O   0  0  0  0  0  0  0  0  0  0  0  0
   20.2248   -4.5239  -14.4431 C   0  0  0  0  0  0  0  0  0  0  0  0
   20.2626   -5.8480  -13.7764 C   0  0  2  0  0  0  0  0  0  0  0  0
   19.0545   -6.1762  -13.0552 N   0  0  0  0  0  0  0  0  0  0  0  0
   21.4777   -6.0722  -12.9710 C   0  0  0  0  0  0  0  0  0  0  0  0
   22.4364   -6.8160  -13.2390 O   0  0  0  0  0  0  0  0  0  0  0  0
   21.5738   -5.3664  -11.7542 O   0  0  0  0  0  0  0  0  0  0  0  0
  2  1  1  0
  3  2  2  0
  4  2  1  0
  4  5  1  0
  5  6  1  1
  7  5  1  0
  8  7  2  0
 10  9  1  1
 10 11  1  0
 10 12  1  0
 11  7  1  0
 12 19  1  0
 13 12  2  0
 14 15  1  0
 15 17  1  0
 16 15  2  0
 18 17  1  1
 18 20  1  0
 19 18  1  0
 20 22  1  0
 21 20  2  0
M  END
$$$$
