NAN.pdb
     RDKit          3D

 22 21  0  0  1  0  0  0  0  0999 V2000
   15.9323  -13.3804  -15.5230 N   0  0  0  0  0  0  0  0  0  0  0  0
   16.5093  -12.5478  -14.5553 C   0  0  0  0  0  0  0  0  0  0  0  0
   16.5322  -12.9626  -13.3526 O   0  0  0  0  0  0  0  0  0  0  0  0
   17.1011  -11.2190  -14.7957 C   0  0  0  0  0  0  0  0  0  0  0  0
   16.9751  -10.8240  -16.2737 C   0  0  2  0  0  0  0  0  0  0  0  0
   17.9180  -11.5977  -17.0212 N   0  0  0  0  0  0  0  0  0  0  0  0
   17.3312   -9.3960  -16.3522 C   0  0  0  0  0  0  0  0  0  0  0  0
   18.5062   -9.0809  -16.6654 O   0  0  0  0  0  0  0  0  0  0  0  0
   15.5398   -6.1012  -16.1936 C   0  0  0  0  0  0  0  0  0  0  0  0
   16.7438   -7.0120  -16.3088 C   0  0  2  0  0  0  0  0  0  0  0  0
   16.3668   -8.3602  -16.0793 N   0  0  0  0  0  0  0  0  0  0  0  0
   17.8285   -6.5408  -15.4060 C   0  0  0  0  0  0  0  0  0  0  0  0
   17.9699   -7.0791  -14.2863 O   0  0  0  0  0  0  0  0  0  0  0  0
   21.9759   -3.9900  -13.3568 N   0  0  0  0  0  0  0  0  0  0  0  0
   22.0297   -5.2651  -13.9710 C   0  0  0  0  0  0  0  0  0  0  0  0
   23.0950   -5.9300  -13.7262 O   0  0  0  0  0  0  0  0  0  0  0  0
   20.9663   -5.8234  -14.8298 C   0  0  0  0  0  0  0  0  0  0  0  0
   19.7510   -4.9760  -14.8948 C   0  0  2  0  0  0  0  0  0  0  0  0
   18.7206   -5.4940  -15.7650 N   0  0  0  0  0  0  0  0  0  0  0  0
   20.0346   -3.5503  -15.1446 C   0  0  0  0  0  0  0  0  0  0  0  0
   20.1555   -2.9845  -16.2443 O   0  0  0  0  0  0  0  0  0  0  0  0
   20.1883   -2.7241  -14.0124 O   0  0  0  0  0  0  0  0  0  0  0  0
  2  1  1  0
  3  2  2  0
  4  2  1  0
  4  5  1  0
  5  6  1  6
  7  5  1  0
  8  7  2  0
 10  9  1  1
 10 11  1  0
 10 12  1  0
 11  7  1  0
 12 19  1  0
 13 12  2  0
 14 15  1  0
 15 17  1  0
 16 15  2  0
 18 17  1  6
 18 20  1  0
 19 18  1  0
 20 22  1  0
 21 20  2  0
M  END
$$$$
