NAN.pdb
     RDKit          3D

 22 21  0  0  1  0  0  0  0  0999 V2000
   17.6886  -15.9108  -15.0287 N   0  0  0  0  0  0  0  0  0  0  0  0
   17.7232  -14.5135  -15.1234 C   0  0  0  0  0  0  0  0  0  0  0  0
   16.6233  -13.8836  -15.0120 O   0  0  0  0  0  0  0  0  0  0  0  0
   18.9252  -13.6884  -15.3428 C   0  0  0  0  0  0  0  0  0  0  0  0
   18.6343  -12.5512  -16.3321 C   0  0  2  0  0  0  0  0  0  0  0  0
   18.4847  -13.1240  -17.6344 N   0  0  0  0  0  0  0  0  0  0  0  0
   19.8160  -11.6707  -16.3095 C   0  0  0  0  0  0  0  0  0  0  0  0
   20.3125  -11.3513  -15.2007 O   0  0  0  0  0  0  0  0  0  0  0  0
   22.1754  -10.1126  -18.7741 C   0  0  0  0  0  0  0  0  0  0  0  0
   21.5260  -10.3018  -17.4196 C   0  0  2  0  0  0  0  0  0  0  0  0
   20.4105  -11.1719  -17.5240 N   0  0  0  0  0  0  0  0  0  0  0  0
   21.1895   -8.9798  -16.8257 C   0  0  0  0  0  0  0  0  0  0  0  0
   20.0476   -8.5021  -17.0030 O   0  0  0  0  0  0  0  0  0  0  0  0
   23.0234   -4.3603  -13.5281 N   0  0  0  0  0  0  0  0  0  0  0  0
   22.0925   -5.4277  -13.5320 C   0  0  0  0  0  0  0  0  0  0  0  0
   20.9647   -5.1531  -12.9937 O   0  0  0  0  0  0  0  0  0  0  0  0
   22.3571   -6.7641  -14.1014 C   0  0  0  0  0  0  0  0  0  0  0  0
   21.8325   -6.9364  -15.4777 C   0  0  2  0  0  0  0  0  0  0  0  0
   22.1197   -8.2282  -16.0574 N   0  0  0  0  0  0  0  0  0  0  0  0
   22.1712   -5.8242  -16.3853 C   0  0  0  0  0  0  0  0  0  0  0  0
   23.0747   -5.7919  -17.2378 O   0  0  0  0  0  0  0  0  0  0  0  0
   21.3860   -4.6576  -16.2830 O   0  0  0  0  0  0  0  0  0  0  0  0
  2  1  1  0
  3  2  2  0
  4  2  1  0
  4  5  1  0
  5  6  1  6
  7  5  1  0
  8  7  2  0
 10  9  1  6
 10 11  1  0
 10 12  1  0
 11  7  1  0
 12 19  1  0
 13 12  2  0
 14 15  1  0
 15 17  1  0
 16 15  2  0
 18 17  1  1
 18 20  1  0
 19 18  1  0
 20 22  1  0
 21 20  2  0
M  END
$$$$
