NAN.pdb
     RDKit          3D

 22 21  0  0  1  0  0  0  0  0999 V2000
   16.6814  -14.7832  -16.1425 N   0  0  0  0  0  0  0  0  0  0  0  0
   17.1556  -13.5169  -16.5091 C   0  0  0  0  0  0  0  0  0  0  0  0
   16.8384  -13.0744  -17.6591 O   0  0  0  0  0  0  0  0  0  0  0  0
   17.9982  -12.6334  -15.6826 C   0  0  0  0  0  0  0  0  0  0  0  0
   18.9169  -11.7744  -16.5627 C   0  0  2  0  0  0  0  0  0  0  0  0
   19.7024  -12.6532  -17.3735 N   0  0  0  0  0  0  0  0  0  0  0  0
   19.7950  -11.0307  -15.6419 C   0  0  0  0  0  0  0  0  0  0  0  0
   19.2724  -10.3293  -14.7403 O   0  0  0  0  0  0  0  0  0  0  0  0
   23.4602  -10.6927  -14.9334 C   0  0  0  0  0  0  0  0  0  0  0  0
   22.0069  -10.2699  -14.8944 C   0  0  2  0  0  0  0  0  0  0  0  0
   21.2308  -11.0905  -15.7526 N   0  0  0  0  0  0  0  0  0  0  0  0
   21.8893   -8.8186  -15.2005 C   0  0  0  0  0  0  0  0  0  0  0  0
   21.7686   -8.4518  -16.3898 O   0  0  0  0  0  0  0  0  0  0  0  0
   19.5436   -3.7262  -15.4466 N   0  0  0  0  0  0  0  0  0  0  0  0
   20.6681   -4.5664  -15.6350 C   0  0  0  0  0  0  0  0  0  0  0  0
   21.6982   -3.9785  -16.1148 O   0  0  0  0  0  0  0  0  0  0  0  0
   20.6958   -6.0078  -15.3159 C   0  0  0  0  0  0  0  0  0  0  0  0
   21.8347   -6.4016  -14.4515 C   0  0  2  0  0  0  0  0  0  0  0  0
   21.9083   -7.8204  -14.1887 N   0  0  0  0  0  0  0  0  0  0  0  0
   21.9535   -5.5946  -13.2227 C   0  0  0  0  0  0  0  0  0  0  0  0
   21.7113   -5.9511  -12.0572 O   0  0  0  0  0  0  0  0  0  0  0  0
   22.3916   -4.2631  -13.3756 O   0  0  0  0  0  0  0  0  0  0  0  0
  2  1  1  0
  3  2  2  0
  4  2  1  0
  4  5  1  0
  5  6  1  6
  7  5  1  0
  8  7  2  0
 10  9  1  6
 10 11  1  0
 10 12  1  0
 11  7  1  0
 12 19  1  0
 13 12  2  0
 14 15  1  0
 15 17  1  0
 16 15  2  0
 18 17  1  1
 18 20  1  0
 19 18  1  0
 20 22  1  0
 21 20  2  0
M  END
$$$$
