NAN.pdb
     RDKit          3D

 22 21  0  0  1  0  0  0  0  0999 V2000
   29.3582  -22.0918  -17.8968 N   0  0  0  0  0  0  0  0  0  0  0  0
   28.6703  -21.1709  -17.0959 C   0  0  0  0  0  0  0  0  0  0  0  0
   28.7275  -19.9421  -17.4212 O   0  0  0  0  0  0  0  0  0  0  0  0
   27.8752  -21.4889  -15.8957 C   0  0  0  0  0  0  0  0  0  0  0  0
   26.3817  -21.5824  -16.2387 C   0  0  2  0  0  0  0  0  0  0  0  0
   25.9384  -20.2845  -16.6457 N   0  0  0  0  0  0  0  0  0  0  0  0
   25.6953  -21.9742  -14.9947 C   0  0  0  0  0  0  0  0  0  0  0  0
   25.9426  -23.0998  -14.4950 O   0  0  0  0  0  0  0  0  0  0  0  0
   24.4356  -20.7959  -11.9756 C   0  0  0  0  0  0  0  0  0  0  0  0
   24.0548  -21.5871  -13.2090 C   0  0  2  0  0  0  0  0  0  0  0  0
   24.7530  -21.0994  -14.3435 N   0  0  0  0  0  0  0  0  0  0  0  0
   22.5767  -21.5854  -13.3801 C   0  0  0  0  0  0  0  0  0  0  0  0
   22.0066  -20.5417  -13.7663 O   0  0  0  0  0  0  0  0  0  0  0  0
   17.4664  -22.9217  -13.3067 N   0  0  0  0  0  0  0  0  0  0  0  0
   18.1427  -22.4108  -12.1720 C   0  0  0  0  0  0  0  0  0  0  0  0
   17.3788  -22.0808  -11.2001 O   0  0  0  0  0  0  0  0  0  0  0  0
   19.6077  -22.2559  -12.0732 C   0  0  0  0  0  0  0  0  0  0  0  0
   20.3386  -22.7611  -13.2605 C   0  0  2  0  0  0  0  0  0  0  0  0
   21.7763  -22.7310  -13.1208 N   0  0  0  0  0  0  0  0  0  0  0  0
   19.8840  -22.1696  -14.5329 C   0  0  0  0  0  0  0  0  0  0  0  0
   19.7207  -20.9652  -14.7914 O   0  0  0  0  0  0  0  0  0  0  0  0
   19.5990  -23.0642  -15.5848 O   0  0  0  0  0  0  0  0  0  0  0  0
  2  1  1  0
  3  2  2  0
  4  2  1  0
  4  5  1  0
  5  6  1  1
  7  5  1  0
  8  7  2  0
 10  9  1  1
 10 11  1  0
 10 12  1  0
 11  7  1  0
 12 19  1  0
 13 12  2  0
 14 15  1  0
 15 17  1  0
 16 15  2  0
 18 17  1  1
 18 20  1  0
 19 18  1  0
 20 22  1  0
 21 20  2  0
M  END
$$$$
