NAN.pdb
     RDKit          3D

 22 21  0  0  1  0  0  0  0  0999 V2000
   21.5912  -12.8986  -18.8231 N   0  0  0  0  0  0  0  0  0  0  0  0
   20.2283  -12.8714  -19.1462 C   0  0  0  0  0  0  0  0  0  0  0  0
   19.8148  -13.6738  -20.0429 O   0  0  0  0  0  0  0  0  0  0  0  0
   19.2107  -11.9923  -18.5417 C   0  0  0  0  0  0  0  0  0  0  0  0
   19.8450  -11.0556  -17.5039 C   0  0  2  0  0  0  0  0  0  0  0  0
   20.0518  -11.8019  -16.3010 N   0  0  0  0  0  0  0  0  0  0  0  0
   18.8638   -9.9831  -17.2604 C   0  0  0  0  0  0  0  0  0  0  0  0
   18.6406   -9.1478  -18.1716 O   0  0  0  0  0  0  0  0  0  0  0  0
   16.1467   -9.2158  -14.8604 C   0  0  0  0  0  0  0  0  0  0  0  0
   17.2186   -8.8224  -15.8546 C   0  0  2  0  0  0  0  0  0  0  0  0
   18.1596   -9.8729  -16.0077 N   0  0  0  0  0  0  0  0  0  0  0  0
   17.8371   -7.5299  -15.4536 C   0  0  0  0  0  0  0  0  0  0  0  0
   17.1109   -6.5219  -15.3117 O   0  0  0  0  0  0  0  0  0  0  0  0
   21.3858   -3.8046  -14.1548 N   0  0  0  0  0  0  0  0  0  0  0  0
   21.6610   -5.0499  -13.5388 C   0  0  0  0  0  0  0  0  0  0  0  0
   22.6148   -5.0235  -12.6864 O   0  0  0  0  0  0  0  0  0  0  0  0
   20.9316   -6.3016  -13.8241 C   0  0  0  0  0  0  0  0  0  0  0  0
   19.8693   -6.1483  -14.8476 C   0  0  2  0  0  0  0  0  0  0  0  0
   19.2326   -7.3899  -15.2224 N   0  0  0  0  0  0  0  0  0  0  0  0
   20.2837   -5.3523  -16.0180 C   0  0  0  0  0  0  0  0  0  0  0  0
   20.3389   -5.7221  -17.2031 O   0  0  0  0  0  0  0  0  0  0  0  0
   20.6630   -4.0159  -15.7768 O   0  0  0  0  0  0  0  0  0  0  0  0
  2  1  1  0
  3  2  2  0
  4  2  1  0
  4  5  1  0
  5  6  1  1
  7  5  1  0
  8  7  2  0
 10  9  1  1
 10 11  1  0
 10 12  1  0
 11  7  1  0
 12 19  1  0
 13 12  2  0
 14 15  1  0
 15 17  1  0
 16 15  2  0
 18 17  1  1
 18 20  1  0
 19 18  1  0
 20 22  1  0
 21 20  2  0
M  END
$$$$
