NAN.pdb
     RDKit          3D

 22 21  0  0  1  0  0  0  0  0999 V2000
   17.5060  -14.2475  -14.9707 N   0  0  0  0  0  0  0  0  0  0  0  0
   18.1886  -13.8945  -16.1420 C   0  0  0  0  0  0  0  0  0  0  0  0
   18.6028  -14.8339  -16.8937 O   0  0  0  0  0  0  0  0  0  0  0  0
   18.4791  -12.5224  -16.5967 C   0  0  0  0  0  0  0  0  0  0  0  0
   17.9320  -11.4896  -15.6015 C   0  0  2  0  0  0  0  0  0  0  0  0
   16.5047  -11.5856  -15.6028 N   0  0  0  0  0  0  0  0  0  0  0  0
   18.3414  -10.1681  -16.1097 C   0  0  0  0  0  0  0  0  0  0  0  0
   19.5664   -9.9013  -16.1864 O   0  0  0  0  0  0  0  0  0  0  0  0
   16.6983   -7.1180  -17.5595 C   0  0  0  0  0  0  0  0  0  0  0  0
   17.8448   -7.9352  -17.0029 C   0  0  2  0  0  0  0  0  0  0  0  0
   17.3728   -9.1821  -16.5181 N   0  0  0  0  0  0  0  0  0  0  0  0
   18.5846   -7.1466  -15.9808 C   0  0  0  0  0  0  0  0  0  0  0  0
   18.3759   -7.3681  -14.7679 O   0  0  0  0  0  0  0  0  0  0  0  0
   22.0674   -4.1539  -13.4527 N   0  0  0  0  0  0  0  0  0  0  0  0
   21.9726   -5.5657  -13.5147 C   0  0  0  0  0  0  0  0  0  0  0  0
   22.7323   -6.1873  -12.6941 O   0  0  0  0  0  0  0  0  0  0  0  0
   21.0823   -6.3029  -14.4334 C   0  0  0  0  0  0  0  0  0  0  0  0
   20.3352   -5.4250  -15.3663 C   0  0  2  0  0  0  0  0  0  0  0  0
   19.5285   -6.1418  -16.3270 N   0  0  0  0  0  0  0  0  0  0  0  0
   21.1680   -4.3834  -15.9961 C   0  0  0  0  0  0  0  0  0  0  0  0
   21.7213   -4.4269  -17.1079 O   0  0  0  0  0  0  0  0  0  0  0  0
   21.3664   -3.1965  -15.2612 O   0  0  0  0  0  0  0  0  0  0  0  0
  2  1  1  0
  3  2  2  0
  4  2  1  0
  4  5  1  0
  5  6  1  6
  7  5  1  0
  8  7  2  0
 10  9  1  1
 10 11  1  0
 10 12  1  0
 11  7  1  0
 12 19  1  0
 13 12  2  0
 14 15  1  0
 15 17  1  0
 16 15  2  0
 18 17  1  6
 18 20  1  0
 19 18  1  0
 20 22  1  0
 21 20  2  0
M  END
$$$$
