NAN.pdb
     RDKit          3D

 22 21  0  0  1  0  0  0  0  0999 V2000
   13.4626  -13.0806   -9.7266 N   0  0  0  0  0  0  0  0  0  0  0  0
   14.1692  -12.6000  -10.8368 C   0  0  0  0  0  0  0  0  0  0  0  0
   14.5246  -13.4404  -11.7235 O   0  0  0  0  0  0  0  0  0  0  0  0
   14.5475  -11.1964  -11.0830 C   0  0  0  0  0  0  0  0  0  0  0  0
   14.0050  -10.2820   -9.9757 C   0  0  2  0  0  0  0  0  0  0  0  0
   12.5865  -10.1865  -10.1350 N   0  0  0  0  0  0  0  0  0  0  0  0
   14.6191   -8.9599  -10.1930 C   0  0  0  0  0  0  0  0  0  0  0  0
   14.5558   -8.4429  -11.3361 O   0  0  0  0  0  0  0  0  0  0  0  0
   15.8811   -6.1282   -8.1627 C   0  0  0  0  0  0  0  0  0  0  0  0
   15.8446   -6.9796   -9.4141 C   0  0  2  0  0  0  0  0  0  0  0  0
   15.2862   -8.2522   -9.1294 N   0  0  0  0  0  0  0  0  0  0  0  0
   17.2009   -7.0528  -10.0214 C   0  0  0  0  0  0  0  0  0  0  0  0
   17.9933   -7.9433   -9.6435 O   0  0  0  0  0  0  0  0  0  0  0  0
   21.7319   -7.2897  -12.4998 N   0  0  0  0  0  0  0  0  0  0  0  0
   20.4633   -7.6644  -13.0062 C   0  0  0  0  0  0  0  0  0  0  0  0
   20.4749   -8.0847  -14.2145 O   0  0  0  0  0  0  0  0  0  0  0  0
   19.2042   -7.5946  -12.2382 C   0  0  0  0  0  0  0  0  0  0  0  0
   18.9108   -6.2432  -11.7026 C   0  0  2  0  0  0  0  0  0  0  0  0
   17.6396   -6.1448  -11.0232 N   0  0  0  0  0  0  0  0  0  0  0  0
   19.1100   -5.1601  -12.6838 C   0  0  0  0  0  0  0  0  0  0  0  0
   18.2379   -4.5543  -13.3292 O   0  0  0  0  0  0  0  0  0  0  0  0
   20.4393   -4.7570  -12.9257 O   0  0  0  0  0  0  0  0  0  0  0  0
  2  1  1  0
  3  2  2  0
  4  2  1  0
  4  5  1  0
  5  6  1  6
  7  5  1  0
  8  7  2  0
 10  9  1  1
 10 11  1  0
 10 12  1  0
 11  7  1  0
 12 19  1  0
 13 12  2  0
 14 15  1  0
 15 17  1  0
 16 15  2  0
 18 17  1  6
 18 20  1  0
 19 18  1  0
 20 22  1  0
 21 20  2  0
M  END
$$$$
