NAN.pdb
     RDKit          3D

 22 21  0  0  1  0  0  0  0  0999 V2000
   14.7960  -11.1572  -17.5737 N   0  0  0  0  0  0  0  0  0  0  0  0
   16.1957  -11.2122  -17.5489 C   0  0  0  0  0  0  0  0  0  0  0  0
   16.7711  -12.0375  -18.3278 O   0  0  0  0  0  0  0  0  0  0  0  0
   17.0810  -10.3969  -16.6973 C   0  0  0  0  0  0  0  0  0  0  0  0
   18.2256  -11.2467  -16.1276 C   0  0  2  0  0  0  0  0  0  0  0  0
   17.6826  -12.1011  -15.1168 N   0  0  0  0  0  0  0  0  0  0  0  0
   19.1793  -10.3018  -15.5195 C   0  0  0  0  0  0  0  0  0  0  0  0
   18.7858   -9.5617  -14.5840 O   0  0  0  0  0  0  0  0  0  0  0  0
   22.8616   -9.6678  -15.6004 C   0  0  0  0  0  0  0  0  0  0  0  0
   21.4196   -9.3218  -15.2948 C   0  0  2  0  0  0  0  0  0  0  0  0
   20.5446  -10.2095  -15.9720 N   0  0  0  0  0  0  0  0  0  0  0  0
   21.1621   -7.8893  -15.6039 C   0  0  0  0  0  0  0  0  0  0  0  0
   20.7331   -7.5749  -16.7356 O   0  0  0  0  0  0  0  0  0  0  0  0
   20.7281   -2.6601  -15.4648 N   0  0  0  0  0  0  0  0  0  0  0  0
   20.2596   -3.2727  -14.2768 C   0  0  0  0  0  0  0  0  0  0  0  0
   19.6410   -2.4859  -13.4798 O   0  0  0  0  0  0  0  0  0  0  0  0
   20.4450   -4.6992  -13.9441 C   0  0  0  0  0  0  0  0  0  0  0  0
   21.2370   -5.4448  -14.9522 C   0  0  2  0  0  0  0  0  0  0  0  0
   21.3848   -6.8516  -14.6583 N   0  0  0  0  0  0  0  0  0  0  0  0
   22.5207   -4.8026  -15.2913 C   0  0  0  0  0  0  0  0  0  0  0  0
   22.6936   -3.7184  -15.8734 O   0  0  0  0  0  0  0  0  0  0  0  0
   23.6941   -5.4887  -14.9167 O   0  0  0  0  0  0  0  0  0  0  0  0
  2  1  1  0
  3  2  2  0
  4  2  1  0
  4  5  1  0
  5  6  1  1
  7  5  1  0
  8  7  2  0
 10  9  1  6
 10 11  1  0
 10 12  1  0
 11  7  1  0
 12 19  1  0
 13 12  2  0
 14 15  1  0
 15 17  1  0
 16 15  2  0
 18 17  1  1
 18 20  1  0
 19 18  1  0
 20 22  1  0
 21 20  2  0
M  END
$$$$
