NAN.pdb
     RDKit          3D

 22 21  0  0  1  0  0  0  0  0999 V2000
   15.9732  -14.7711  -14.9185 N   0  0  0  0  0  0  0  0  0  0  0  0
   17.3463  -14.7380  -15.1948 C   0  0  0  0  0  0  0  0  0  0  0  0
   17.9909  -15.8332  -15.1320 O   0  0  0  0  0  0  0  0  0  0  0  0
   18.1299  -13.5425  -15.5562 C   0  0  0  0  0  0  0  0  0  0  0  0
   17.2361  -12.2951  -15.5968 C   0  0  2  0  0  0  0  0  0  0  0  0
   16.3517  -12.4196  -16.7144 N   0  0  0  0  0  0  0  0  0  0  0  0
   18.1372  -11.1470  -15.8021 C   0  0  0  0  0  0  0  0  0  0  0  0
   19.2158  -11.1010  -15.1599 O   0  0  0  0  0  0  0  0  0  0  0  0
   18.4459   -8.2550  -18.1505 C   0  0  0  0  0  0  0  0  0  0  0  0
   18.7401   -9.0248  -16.8803 C   0  0  2  0  0  0  0  0  0  0  0  0
   17.8097  -10.0832  -16.7177 N   0  0  0  0  0  0  0  0  0  0  0  0
   18.7855   -8.0954  -15.7192 C   0  0  0  0  0  0  0  0  0  0  0  0
   17.7397   -7.8761  -15.0697 O   0  0  0  0  0  0  0  0  0  0  0  0
   22.8419   -4.4414  -14.2341 N   0  0  0  0  0  0  0  0  0  0  0  0
   22.4155   -5.7830  -14.3894 C   0  0  0  0  0  0  0  0  0  0  0  0
   23.0097   -6.4264  -15.3222 O   0  0  0  0  0  0  0  0  0  0  0  0
   21.3756   -6.4292  -13.5642 C   0  0  0  0  0  0  0  0  0  0  0  0
   20.0490   -6.4911  -14.2241 C   0  0  2  0  0  0  0  0  0  0  0  0
   19.9788   -7.4392  -15.3120 N   0  0  0  0  0  0  0  0  0  0  0  0
   19.5078   -5.1696  -14.5931 C   0  0  0  0  0  0  0  0  0  0  0  0
   19.4127   -4.6824  -15.7323 O   0  0  0  0  0  0  0  0  0  0  0  0
   19.0415   -4.3561  -13.5400 O   0  0  0  0  0  0  0  0  0  0  0  0
  2  1  1  0
  3  2  2  0
  4  2  1  0
  4  5  1  0
  5  6  1  6
  7  5  1  0
  8  7  2  0
 10  9  1  6
 10 11  1  0
 10 12  1  0
 11  7  1  0
 12 19  1  0
 13 12  2  0
 14 15  1  0
 15 17  1  0
 16 15  2  0
 18 17  1  6
 18 20  1  0
 19 18  1  0
 20 22  1  0
 21 20  2  0
M  END
$$$$
