NAN.pdb
     RDKit          3D

 22 21  0  0  1  0  0  0  0  0999 V2000
   13.9526  -13.2328   -9.4709 N   0  0  0  0  0  0  0  0  0  0  0  0
   14.8033  -12.7852  -10.4900 C   0  0  0  0  0  0  0  0  0  0  0  0
   15.4152  -13.6616  -11.1801 O   0  0  0  0  0  0  0  0  0  0  0  0
   15.0638  -11.3786  -10.8472 C   0  0  0  0  0  0  0  0  0  0  0  0
   14.2244  -10.4301   -9.9798 C   0  0  2  0  0  0  0  0  0  0  0  0
   12.8647  -10.5173  -10.4158 N   0  0  0  0  0  0  0  0  0  0  0  0
   14.7408   -9.0730  -10.2320 C   0  0  0  0  0  0  0  0  0  0  0  0
   14.6016   -8.5747  -11.3767 O   0  0  0  0  0  0  0  0  0  0  0  0
   15.8533   -6.1154   -8.3198 C   0  0  0  0  0  0  0  0  0  0  0  0
   15.8989   -7.0246   -9.5297 C   0  0  2  0  0  0  0  0  0  0  0  0
   15.3975   -8.3101   -9.2004 N   0  0  0  0  0  0  0  0  0  0  0  0
   17.2753   -7.0548  -10.0938 C   0  0  0  0  0  0  0  0  0  0  0  0
   18.1091   -7.8632   -9.6302 O   0  0  0  0  0  0  0  0  0  0  0  0
   21.0598   -8.3622  -13.9651 N   0  0  0  0  0  0  0  0  0  0  0  0
   20.7675   -7.6130  -12.7992 C   0  0  0  0  0  0  0  0  0  0  0  0
   21.7483   -6.9273  -12.3466 O   0  0  0  0  0  0  0  0  0  0  0  0
   19.4525   -7.5926  -12.1279 C   0  0  0  0  0  0  0  0  0  0  0  0
   18.9992   -6.2311  -11.7538 C   0  0  2  0  0  0  0  0  0  0  0  0
   17.6880   -6.1954  -11.1481 N   0  0  0  0  0  0  0  0  0  0  0  0
   19.1471   -5.2387  -12.8349 C   0  0  0  0  0  0  0  0  0  0  0  0
   20.1807   -4.6379  -13.1740 O   0  0  0  0  0  0  0  0  0  0  0  0
   17.9888   -4.9277  -13.5762 O   0  0  0  0  0  0  0  0  0  0  0  0
  2  1  1  0
  3  2  2  0
  4  2  1  0
  4  5  1  0
  5  6  1  6
  7  5  1  0
  8  7  2  0
 10  9  1  1
 10 11  1  0
 10 12  1  0
 11  7  1  0
 12 19  1  0
 13 12  2  0
 14 15  1  0
 15 17  1  0
 16 15  2  0
 18 17  1  6
 18 20  1  0
 19 18  1  0
 20 22  1  0
 21 20  2  0
M  END
$$$$
