NAN.pdb
     RDKit          3D

 22 21  0  0  1  0  0  0  0  0999 V2000
   18.8253  -16.8281  -17.3515 N   0  0  0  0  0  0  0  0  0  0  0  0
   19.7618  -15.8938  -16.8902 C   0  0  0  0  0  0  0  0  0  0  0  0
   20.5960  -16.2753  -16.0084 O   0  0  0  0  0  0  0  0  0  0  0  0
   19.8782  -14.4918  -17.3314 C   0  0  0  0  0  0  0  0  0  0  0  0
   19.8858  -13.5391  -16.1277 C   0  0  2  0  0  0  0  0  0  0  0  0
   18.6716  -13.7374  -15.3977 N   0  0  0  0  0  0  0  0  0  0  0  0
   19.9151  -12.1734  -16.6812 C   0  0  0  0  0  0  0  0  0  0  0  0
   20.9493  -11.7837  -17.2783 O   0  0  0  0  0  0  0  0  0  0  0  0
   17.6113   -9.3678  -17.4179 C   0  0  0  0  0  0  0  0  0  0  0  0
   18.9443   -9.9379  -16.9815 C   0  0  2  0  0  0  0  0  0  0  0  0
   18.7902  -11.2816  -16.5533 N   0  0  0  0  0  0  0  0  0  0  0  0
   19.5637   -9.0584  -15.9536 C   0  0  0  0  0  0  0  0  0  0  0  0
   19.4051   -9.3268  -14.7426 O   0  0  0  0  0  0  0  0  0  0  0  0
   22.0079   -5.0495  -13.5238 N   0  0  0  0  0  0  0  0  0  0  0  0
   22.6358   -5.3494  -14.7574 C   0  0  0  0  0  0  0  0  0  0  0  0
   23.7402   -4.7348  -14.9565 O   0  0  0  0  0  0  0  0  0  0  0  0
   22.0978   -6.2893  -15.7611 C   0  0  0  0  0  0  0  0  0  0  0  0
   20.8579   -6.9761  -15.3250 C   0  0  2  0  0  0  0  0  0  0  0  0
   20.3360   -7.9142  -16.2921 N   0  0  0  0  0  0  0  0  0  0  0  0
   19.8213   -6.0605  -14.8127 C   0  0  0  0  0  0  0  0  0  0  0  0
   18.8775   -5.5568  -15.4448 O   0  0  0  0  0  0  0  0  0  0  0  0
   19.9000   -5.7090  -13.4495 O   0  0  0  0  0  0  0  0  0  0  0  0
  2  1  1  0
  3  2  2  0
  4  2  1  0
  4  5  1  0
  5  6  1  6
  7  5  1  0
  8  7  2  0
 10  9  1  1
 10 11  1  0
 10 12  1  0
 11  7  1  0
 12 19  1  0
 13 12  2  0
 14 15  1  0
 15 17  1  0
 16 15  2  0
 18 17  1  6
 18 20  1  0
 19 18  1  0
 20 22  1  0
 21 20  2  0
M  END
$$$$
