NAN.pdb
     RDKit          3D

 22 21  0  0  1  0  0  0  0  0999 V2000
   15.2657  -13.5024  -13.0377 N   0  0  0  0  0  0  0  0  0  0  0  0
   15.3804  -12.5635  -12.0042 C   0  0  0  0  0  0  0  0  0  0  0  0
   15.0486  -12.9285  -10.8313 O   0  0  0  0  0  0  0  0  0  0  0  0
   15.8541  -11.1743  -12.1429 C   0  0  0  0  0  0  0  0  0  0  0  0
   14.8890  -10.1969  -11.4574 C   0  0  2  0  0  0  0  0  0  0  0  0
   13.7023  -10.1152  -12.2521 N   0  0  0  0  0  0  0  0  0  0  0  0
   15.5672   -8.8884  -11.4417 C   0  0  0  0  0  0  0  0  0  0  0  0
   15.7329   -8.2788  -12.5274 O   0  0  0  0  0  0  0  0  0  0  0  0
   16.6745   -6.3595   -8.9335 C   0  0  0  0  0  0  0  0  0  0  0  0
   16.7011   -7.0434  -10.2840 C   0  0  2  0  0  0  0  0  0  0  0  0
   16.0410   -8.2972  -10.2157 N   0  0  0  0  0  0  0  0  0  0  0  0
   18.1006   -7.1396  -10.7799 C   0  0  0  0  0  0  0  0  0  0  0  0
   18.7719   -8.1629  -10.5231 O   0  0  0  0  0  0  0  0  0  0  0  0
   22.4557   -8.3397  -13.4983 N   0  0  0  0  0  0  0  0  0  0  0  0
   21.3838   -7.4737  -13.8256 C   0  0  0  0  0  0  0  0  0  0  0  0
   21.5962   -6.7223  -14.8392 O   0  0  0  0  0  0  0  0  0  0  0  0
   20.1067   -7.4102  -13.0873 C   0  0  0  0  0  0  0  0  0  0  0  0
   19.9997   -6.2359  -12.1880 C   0  0  2  0  0  0  0  0  0  0  0  0
   18.7142   -6.1078  -11.5410 N   0  0  0  0  0  0  0  0  0  0  0  0
   20.4476   -4.9734  -12.8051 C   0  0  0  0  0  0  0  0  0  0  0  0
   19.7385   -4.0695  -13.2785 O   0  0  0  0  0  0  0  0  0  0  0  0
   21.8392   -4.7559  -12.8711 O   0  0  0  0  0  0  0  0  0  0  0  0
  2  1  1  0
  3  2  2  0
  4  2  1  0
  4  5  1  0
  5  6  1  6
  7  5  1  0
  8  7  2  0
 10  9  1  1
 10 11  1  0
 10 12  1  0
 11  7  1  0
 12 19  1  0
 13 12  2  0
 14 15  1  0
 15 17  1  0
 16 15  2  0
 18 17  1  6
 18 20  1  0
 19 18  1  0
 20 22  1  0
 21 20  2  0
M  END
$$$$
