IMA.pdb
     RDKit          3D

 22 21  0  0  1  0  0  0  0  0999 V2000
    7.7971  -11.9361   19.5755 C   0  0  0  0  0  0  0  0  0  0  0  0
    7.6904  -13.2684   20.2428 C   0  0  0  0  0  0  0  0  0  0  0  0
    8.5669  -14.3419   19.6524 C   0  0  2  0  0  0  0  0  0  0  0  0
    7.9548  -14.7030   18.3168 C   0  0  0  0  0  0  0  0  0  0  0  0
    8.4878  -15.5937   20.5335 C   0  0  2  0  0  0  0  0  0  0  0  0
    7.0581  -15.9557   20.4763 N   0  0  0  0  0  0  0  0  0  0  0  0
    8.8043  -15.3206   21.9450 C   0  0  0  0  0  0  0  0  0  0  0  0
   10.0118  -15.0589   22.2530 O   0  0  0  0  0  0  0  0  0  0  0  0
    6.8534  -11.4081   27.6854 C   0  0  0  0  0  0  0  0  0  0  0  0
    6.0695  -12.9252   27.0412 S   0  0  0  0  0  0  0  0  0  0  0  0
    7.3961  -14.0444   26.5029 C   0  0  0  0  0  0  0  0  0  0  0  0
    7.1657  -14.3471   25.0628 C   0  0  0  0  0  0  0  0  0  0  0  0
    8.3175  -15.1033   24.3984 C   0  0  2  0  0  0  0  0  0  0  0  0
    7.8719  -15.3177   23.0180 N   0  0  0  0  0  0  0  0  0  0  0  0
    8.6885  -16.3191   25.1071 C   0  0  0  0  0  0  0  0  0  0  0  0
    7.7744  -17.1769   25.3604 O   0  0  0  0  0  0  0  0  0  0  0  0
   11.5402  -18.4997   25.5770 C   0  0  0  0  0  0  0  0  0  0  0  0
   10.2662  -17.9418   26.2169 C   0  0  2  0  0  0  0  0  0  0  0  0
    9.9810  -16.6800   25.5642 N   0  0  0  0  0  0  0  0  0  0  0  0
   10.5182  -17.7849   27.6583 C   0  0  0  0  0  0  0  0  0  0  0  0
   10.5767  -16.6541   28.2006 O   0  0  0  0  0  0  0  0  0  0  0  0
   10.7014  -18.8891   28.4740 O   0  0  0  0  0  0  0  0  0  0  0  0
  1  2  1  0
  3  5  1  0
  3  4  1  6
  3  2  1  0
  5  7  1  0
  5  6  1  1
  7 14  1  0
  7  8  2  0
  9 10  1  0
 10 11  1  0
 11 12  1  0
 13 15  1  0
 13 12  1  1
 14 13  1  0
 15 16  2  0
 18 17  1  6
 18 19  1  0
 19 15  1  0
 20 18  1  0
 21 20  2  0
 22 20  1  0
M  END
$$$$
