IMA.pdb
     RDKit          3D

 22 21  0  0  1  0  0  0  0  0999 V2000
    7.4610  -12.0769   19.4750 C   0  0  0  0  0  0  0  0  0  0  0  0
    7.6249  -13.3244   20.2803 C   0  0  0  0  0  0  0  0  0  0  0  0
    8.7504  -14.2205   19.8338 C   0  0  2  0  0  0  0  0  0  0  0  0
    8.3384  -14.7828   18.4911 C   0  0  0  0  0  0  0  0  0  0  0  0
    8.8605  -15.4054   20.8001 C   0  0  2  0  0  0  0  0  0  0  0  0
    7.5335  -16.0440   20.7020 N   0  0  0  0  0  0  0  0  0  0  0  0
    9.0321  -14.9870   22.2009 C   0  0  0  0  0  0  0  0  0  0  0  0
   10.1146  -14.4016   22.5278 O   0  0  0  0  0  0  0  0  0  0  0  0
    7.0336  -10.8901   27.1101 C   0  0  0  0  0  0  0  0  0  0  0  0
    6.0685  -12.4187   26.8587 S   0  0  0  0  0  0  0  0  0  0  0  0
    7.2472  -13.7797   26.6124 C   0  0  0  0  0  0  0  0  0  0  0  0
    7.1335  -14.2151   25.1925 C   0  0  0  0  0  0  0  0  0  0  0  0
    8.4165  -14.8293   24.6298 C   0  0  2  0  0  0  0  0  0  0  0  0
    8.0846  -15.1746   23.2440 N   0  0  0  0  0  0  0  0  0  0  0  0
    8.9152  -15.9417   25.4248 C   0  0  0  0  0  0  0  0  0  0  0  0
    9.1454  -15.7447   26.6672 O   0  0  0  0  0  0  0  0  0  0  0  0
    9.0090  -19.5942   25.4846 C   0  0  0  0  0  0  0  0  0  0  0  0
    9.7338  -18.2909   25.8312 C   0  0  2  0  0  0  0  0  0  0  0  0
    9.1841  -17.2591   24.9752 N   0  0  0  0  0  0  0  0  0  0  0  0
   11.1724  -18.5022   25.6044 C   0  0  0  0  0  0  0  0  0  0  0  0
   11.8523  -19.2652   26.3337 O   0  0  0  0  0  0  0  0  0  0  0  0
   11.8324  -17.8609   24.5693 O   0  0  0  0  0  0  0  0  0  0  0  0
  1  2  1  0
  3  5  1  0
  3  4  1  6
  3  2  1  0
  5  7  1  0
  5  6  1  1
  7 14  1  0
  7  8  2  0
  9 10  1  0
 10 11  1  0
 11 12  1  0
 13 15  1  0
 13 12  1  1
 14 13  1  0
 15 16  2  0
 18 17  1  6
 18 19  1  0
 19 15  1  0
 20 18  1  0
 21 20  2  0
 22 20  1  0
M  END
$$$$
