IMA.pdb
     RDKit          3D

 22 21  0  0  1  0  0  0  0  0999 V2000
    5.9735  -23.1276   24.0680 C   0  0  0  0  0  0  0  0  0  0  0  0
    5.3092  -21.8176   23.7960 C   0  0  0  0  0  0  0  0  0  0  0  0
    6.2461  -20.6413   23.7067 C   0  0  2  0  0  0  0  0  0  0  0  0
    7.0099  -20.6069   25.0121 C   0  0  0  0  0  0  0  0  0  0  0  0
    5.4232  -19.3500   23.6359 C   0  0  2  0  0  0  0  0  0  0  0  0
    4.7940  -19.4246   22.3029 N   0  0  0  0  0  0  0  0  0  0  0  0
    6.2586  -18.1380   23.6479 C   0  0  0  0  0  0  0  0  0  0  0  0
    7.0592  -17.9471   22.6764 O   0  0  0  0  0  0  0  0  0  0  0  0
    7.4345  -11.0433   26.8862 C   0  0  0  0  0  0  0  0  0  0  0  0
    6.5199  -12.6217   26.8315 S   0  0  0  0  0  0  0  0  0  0  0  0
    7.3871  -13.7207   25.6728 C   0  0  0  0  0  0  0  0  0  0  0  0
    6.5929  -14.9767   25.5720 C   0  0  0  0  0  0  0  0  0  0  0  0
    7.1691  -15.9948   24.5865 C   0  0  2  0  0  0  0  0  0  0  0  0
    6.2545  -17.1386   24.6589 N   0  0  0  0  0  0  0  0  0  0  0  0
    8.5630  -16.3208   24.8496 C   0  0  0  0  0  0  0  0  0  0  0  0
    8.8454  -16.9568   25.9225 O   0  0  0  0  0  0  0  0  0  0  0  0
   11.7614  -16.4199   22.9189 C   0  0  0  0  0  0  0  0  0  0  0  0
   10.9903  -16.5990   24.2293 C   0  0  2  0  0  0  0  0  0  0  0  0
    9.6807  -16.0101   24.0348 N   0  0  0  0  0  0  0  0  0  0  0  0
   11.7541  -15.9317   25.2956 C   0  0  0  0  0  0  0  0  0  0  0  0
   11.3182  -14.9109   25.8822 O   0  0  0  0  0  0  0  0  0  0  0  0
   12.9914  -16.4109   25.6926 O   0  0  0  0  0  0  0  0  0  0  0  0
  1  2  1  0
  3  5  1  0
  3  4  1  1
  3  2  1  0
  5  7  1  0
  5  6  1  6
  7 14  1  0
  7  8  2  0
  9 10  1  0
 10 11  1  0
 11 12  1  0
 13 15  1  0
 13 12  1  1
 14 13  1  0
 15 16  2  0
 18 17  1  6
 18 19  1  0
 19 15  1  0
 20 18  1  0
 21 20  2  0
 22 20  1  0
M  END
$$$$
