IMA.pdb
     RDKit          3D

 22 21  0  0  1  0  0  0  0  0999 V2000
    6.8739  -12.4129   18.6262 C   0  0  0  0  0  0  0  0  0  0  0  0
    7.3854  -13.6846   19.2203 C   0  0  0  0  0  0  0  0  0  0  0  0
    8.0536  -13.5306   20.5616 C   0  0  2  0  0  0  0  0  0  0  0  0
    9.3232  -12.7454   20.3159 C   0  0  0  0  0  0  0  0  0  0  0  0
    8.4747  -14.9130   21.0728 C   0  0  2  0  0  0  0  0  0  0  0  0
    7.2637  -15.7312   20.8669 N   0  0  0  0  0  0  0  0  0  0  0  0
    8.7602  -14.9263   22.5168 C   0  0  0  0  0  0  0  0  0  0  0  0
    9.8947  -14.5038   22.9117 O   0  0  0  0  0  0  0  0  0  0  0  0
    6.3871  -11.0223   26.7715 C   0  0  0  0  0  0  0  0  0  0  0  0
    7.0223  -12.7159   27.0146 S   0  0  0  0  0  0  0  0  0  0  0  0
    6.6352  -13.6694   25.5168 C   0  0  0  0  0  0  0  0  0  0  0  0
    7.0884  -15.0688   25.7508 C   0  0  0  0  0  0  0  0  0  0  0  0
    8.3148  -15.4669   24.9278 C   0  0  2  0  0  0  0  0  0  0  0  0
    7.8717  -15.3713   23.5333 N   0  0  0  0  0  0  0  0  0  0  0  0
    8.8570  -16.7654   25.2997 C   0  0  0  0  0  0  0  0  0  0  0  0
    8.0412  -17.6864   25.6483 O   0  0  0  0  0  0  0  0  0  0  0  0
   12.0644  -18.6659   25.1254 C   0  0  0  0  0  0  0  0  0  0  0  0
   10.6711  -18.4627   25.7264 C   0  0  2  0  0  0  0  0  0  0  0  0
   10.2226  -17.1456   25.3219 N   0  0  0  0  0  0  0  0  0  0  0  0
   10.7882  -18.5925   27.1876 C   0  0  0  0  0  0  0  0  0  0  0  0
   11.1127  -19.6764   27.7318 O   0  0  0  0  0  0  0  0  0  0  0  0
   10.5423  -17.5139   28.0209 O   0  0  0  0  0  0  0  0  0  0  0  0
  1  2  1  0
  3  5  1  0
  3  4  1  6
  3  2  1  0
  5  7  1  0
  5  6  1  1
  7 14  1  0
  7  8  2  0
  9 10  1  0
 10 11  1  0
 11 12  1  0
 13 15  1  0
 13 12  1  1
 14 13  1  0
 15 16  2  0
 18 17  1  6
 18 19  1  0
 19 15  1  0
 20 18  1  0
 21 20  2  0
 22 20  1  0
M  END
$$$$
