IMA.pdb
     RDKit          3D

 22 21  0  0  1  0  0  0  0  0999 V2000
   12.5294  -16.5792   30.3723 C   0  0  0  0  0  0  0  0  0  0  0  0
   11.1684  -17.1082   30.0568 C   0  0  0  0  0  0  0  0  0  0  0  0
   10.6435  -16.7289   28.6967 C   0  0  2  0  0  0  0  0  0  0  0  0
   10.4510  -15.2285   28.7192 C   0  0  0  0  0  0  0  0  0  0  0  0
    9.2578  -17.3547   28.5024 C   0  0  2  0  0  0  0  0  0  0  0  0
    9.5511  -18.7978   28.4035 N   0  0  0  0  0  0  0  0  0  0  0  0
    8.6239  -16.9586   27.2342 C   0  0  0  0  0  0  0  0  0  0  0  0
    8.4236  -17.8560   26.3534 O   0  0  0  0  0  0  0  0  0  0  0  0
    5.1803  -11.4418   26.3053 C   0  0  0  0  0  0  0  0  0  0  0  0
    6.0830  -11.6410   24.7316 S   0  0  0  0  0  0  0  0  0  0  0  0
    6.3926  -13.4160   24.4954 C   0  0  0  0  0  0  0  0  0  0  0  0
    7.1586  -13.8954   25.6795 C   0  0  0  0  0  0  0  0  0  0  0  0
    7.5040  -15.3847   25.6304 C   0  0  2  0  0  0  0  0  0  0  0  0
    8.2025  -15.6444   26.8932 N   0  0  0  0  0  0  0  0  0  0  0  0
    8.2525  -15.7600   24.4400 C   0  0  0  0  0  0  0  0  0  0  0  0
    7.6036  -15.9875   23.3618 O   0  0  0  0  0  0  0  0  0  0  0  0
   10.7969  -15.2189   22.3338 C   0  0  0  0  0  0  0  0  0  0  0  0
   10.3063  -16.4252   23.1388 C   0  0  2  0  0  0  0  0  0  0  0  0
    9.6580  -15.9074   24.3266 N   0  0  0  0  0  0  0  0  0  0  0  0
   11.4758  -17.2604   23.4554 C   0  0  0  0  0  0  0  0  0  0  0  0
   11.8661  -17.4322   24.6363 O   0  0  0  0  0  0  0  0  0  0  0  0
   12.1932  -17.8917   22.4528 O   0  0  0  0  0  0  0  0  0  0  0  0
  1  2  1  0
  3  5  1  0
  3  4  1  1
  3  2  1  0
  5  7  1  0
  5  6  1  6
  7 14  1  0
  7  8  2  0
  9 10  1  0
 10 11  1  0
 11 12  1  0
 13 15  1  0
 13 12  1  6
 14 13  1  0
 15 16  2  0
 18 17  1  6
 18 19  1  0
 19 15  1  0
 20 18  1  0
 21 20  2  0
 22 20  1  0
M  END
$$$$
