IMA.pdb
     RDKit          3D

 22 21  0  0  1  0  0  0  0  0999 V2000
    7.5128  -19.4001   19.2131 C   0  0  0  0  0  0  0  0  0  0  0  0
    7.4814  -17.9313   19.4839 C   0  0  0  0  0  0  0  0  0  0  0  0
    7.9746  -17.5307   20.8498 C   0  0  2  0  0  0  0  0  0  0  0  0
    7.0385  -18.1785   21.8461 C   0  0  0  0  0  0  0  0  0  0  0  0
    7.8211  -16.0142   21.0126 C   0  0  2  0  0  0  0  0  0  0  0  0
    8.7010  -15.4719   19.9590 N   0  0  0  0  0  0  0  0  0  0  0  0
    8.3397  -15.5217   22.2992 C   0  0  0  0  0  0  0  0  0  0  0  0
    9.5985  -15.5427   22.4904 O   0  0  0  0  0  0  0  0  0  0  0  0
    6.4708  -10.4907   26.1689 C   0  0  0  0  0  0  0  0  0  0  0  0
    6.2971  -11.9987   27.1821 S   0  0  0  0  0  0  0  0  0  0  0  0
    7.5614  -13.1816   26.6300 C   0  0  0  0  0  0  0  0  0  0  0  0
    7.1644  -13.6570   25.2754 C   0  0  0  0  0  0  0  0  0  0  0  0
    8.1806  -14.6003   24.6292 C   0  0  2  0  0  0  0  0  0  0  0  0
    7.5545  -15.0114   23.3687 N   0  0  0  0  0  0  0  0  0  0  0  0
    8.5700  -15.7028   25.4958 C   0  0  0  0  0  0  0  0  0  0  0  0
    9.1116  -15.4281   26.6213 O   0  0  0  0  0  0  0  0  0  0  0  0
    8.4672  -19.4637   25.5461 C   0  0  0  0  0  0  0  0  0  0  0  0
    8.9343  -18.1199   26.1116 C   0  0  2  0  0  0  0  0  0  0  0  0
    8.4161  -17.0881   25.2362 N   0  0  0  0  0  0  0  0  0  0  0  0
   10.4053  -18.1359   26.1524 C   0  0  0  0  0  0  0  0  0  0  0  0
   11.0954  -17.3576   25.4494 O   0  0  0  0  0  0  0  0  0  0  0  0
   11.0858  -19.0180   26.9753 O   0  0  0  0  0  0  0  0  0  0  0  0
  1  2  1  0
  3  5  1  0
  3  4  1  1
  3  2  1  0
  5  7  1  0
  5  6  1  6
  7 14  1  0
  7  8  2  0
  9 10  1  0
 10 11  1  0
 11 12  1  0
 13 15  1  0
 13 12  1  1
 14 13  1  0
 15 16  2  0
 18 17  1  6
 18 19  1  0
 19 15  1  0
 20 18  1  0
 21 20  2  0
 22 20  1  0
M  END
$$$$
