IMA.pdb
     RDKit          3D

 22 21  0  0  1  0  0  0  0  0999 V2000
    7.0130  -12.2230   19.6791 C   0  0  0  0  0  0  0  0  0  0  0  0
    7.3412  -13.4566   20.4550 C   0  0  0  0  0  0  0  0  0  0  0  0
    8.6406  -14.1158   20.0725 C   0  0  2  0  0  0  0  0  0  0  0  0
    8.4646  -14.6096   18.6533 C   0  0  0  0  0  0  0  0  0  0  0  0
    8.8529  -15.3524   20.9531 C   0  0  2  0  0  0  0  0  0  0  0  0
    7.5927  -16.1029   20.7888 N   0  0  0  0  0  0  0  0  0  0  0  0
    8.9719  -15.0229   22.3828 C   0  0  0  0  0  0  0  0  0  0  0  0
   10.0567  -14.4970   22.7928 O   0  0  0  0  0  0  0  0  0  0  0  0
    6.6949  -10.7639   26.4066 C   0  0  0  0  0  0  0  0  0  0  0  0
    6.5225  -12.5395   26.7920 S   0  0  0  0  0  0  0  0  0  0  0  0
    6.4402  -13.4396   25.2155 C   0  0  0  0  0  0  0  0  0  0  0  0
    6.9425  -14.8196   25.4645 C   0  0  0  0  0  0  0  0  0  0  0  0
    8.2856  -15.1183   24.7960 C   0  0  2  0  0  0  0  0  0  0  0  0
    7.9704  -15.2366   23.3688 N   0  0  0  0  0  0  0  0  0  0  0  0
    8.9615  -16.2766   25.3615 C   0  0  0  0  0  0  0  0  0  0  0  0
    9.2431  -16.2658   26.6088 O   0  0  0  0  0  0  0  0  0  0  0  0
    9.7872  -19.7973   24.4285 C   0  0  0  0  0  0  0  0  0  0  0  0
    9.9851  -18.5799   25.3355 C   0  0  2  0  0  0  0  0  0  0  0  0
    9.3570  -17.4529   24.6761 N   0  0  0  0  0  0  0  0  0  0  0  0
   11.4323  -18.3877   25.5210 C   0  0  0  0  0  0  0  0  0  0  0  0
   12.1309  -19.2059   26.1681 O   0  0  0  0  0  0  0  0  0  0  0  0
   12.0798  -17.2877   24.9835 O   0  0  0  0  0  0  0  0  0  0  0  0
  1  2  1  0
  3  5  1  0
  3  4  1  6
  3  2  1  0
  5  7  1  0
  5  6  1  1
  7 14  1  0
  7  8  2  0
  9 10  1  0
 10 11  1  0
 11 12  1  0
 13 15  1  0
 13 12  1  1
 14 13  1  0
 15 16  2  0
 18 17  1  6
 18 19  1  0
 19 15  1  0
 20 18  1  0
 21 20  2  0
 22 20  1  0
M  END
$$$$
