IMA.pdb
     RDKit          3D

 22 21  0  0  1  0  0  0  0  0999 V2000
    7.4615  -12.8512   17.8280 C   0  0  0  0  0  0  0  0  0  0  0  0
    7.9621  -13.9925   18.6517 C   0  0  0  0  0  0  0  0  0  0  0  0
    8.1179  -13.6909   20.1194 C   0  0  2  0  0  0  0  0  0  0  0  0
    9.2429  -12.6853   20.2292 C   0  0  0  0  0  0  0  0  0  0  0  0
    8.5799  -14.9597   20.8449 C   0  0  2  0  0  0  0  0  0  0  0  0
    7.4741  -15.9070   20.6035 N   0  0  0  0  0  0  0  0  0  0  0  0
    8.6800  -14.7807   22.3026 C   0  0  0  0  0  0  0  0  0  0  0  0
    9.7655  -14.3175   22.7807 O   0  0  0  0  0  0  0  0  0  0  0  0
    7.6909  -11.9903   28.2868 C   0  0  0  0  0  0  0  0  0  0  0  0
    7.0118  -12.3880   26.6401 S   0  0  0  0  0  0  0  0  0  0  0  0
    6.4958  -14.1303   26.6634 C   0  0  0  0  0  0  0  0  0  0  0  0
    6.4869  -14.6105   25.2535 C   0  0  0  0  0  0  0  0  0  0  0  0
    7.8810  -14.8724   24.6810 C   0  0  2  0  0  0  0  0  0  0  0  0
    7.6593  -15.0783   23.2463 N   0  0  0  0  0  0  0  0  0  0  0  0
    8.5770  -15.9642   25.3456 C   0  0  0  0  0  0  0  0  0  0  0  0
    8.7406  -15.8980   26.6122 O   0  0  0  0  0  0  0  0  0  0  0  0
    9.7147  -19.4477   24.6710 C   0  0  0  0  0  0  0  0  0  0  0  0
    9.8184  -18.1538   25.4827 C   0  0  2  0  0  0  0  0  0  0  0  0
    9.1115  -17.1296   24.7405 N   0  0  0  0  0  0  0  0  0  0  0  0
   11.2466  -17.8415   25.6510 C   0  0  0  0  0  0  0  0  0  0  0  0
   11.7788  -16.8535   25.0881 O   0  0  0  0  0  0  0  0  0  0  0  0
   12.0607  -18.6337   26.4434 O   0  0  0  0  0  0  0  0  0  0  0  0
  1  2  1  0
  3  5  1  0
  3  4  1  6
  3  2  1  0
  5  7  1  0
  5  6  1  1
  7 14  1  0
  7  8  2  0
  9 10  1  0
 10 11  1  0
 11 12  1  0
 13 15  1  0
 13 12  1  1
 14 13  1  0
 15 16  2  0
 18 17  1  6
 18 19  1  0
 19 15  1  0
 20 18  1  0
 21 20  2  0
 22 20  1  0
M  END
$$$$
