IMA.pdb
     RDKit          3D

 22 21  0  0  1  0  0  0  0  0999 V2000
    6.9814  -12.7977   18.3922 C   0  0  0  0  0  0  0  0  0  0  0  0
    7.6183  -13.9219   19.1420 C   0  0  0  0  0  0  0  0  0  0  0  0
    7.9949  -13.5985   20.5643 C   0  0  2  0  0  0  0  0  0  0  0  0
    9.1409  -12.6139   20.4867 C   0  0  0  0  0  0  0  0  0  0  0  0
    8.5373  -14.8637   21.2386 C   0  0  2  0  0  0  0  0  0  0  0  0
    7.4153  -15.8153   21.1207 N   0  0  0  0  0  0  0  0  0  0  0  0
    8.7940  -14.6804   22.6765 C   0  0  0  0  0  0  0  0  0  0  0  0
    9.8983  -14.1541   23.0301 O   0  0  0  0  0  0  0  0  0  0  0  0
    6.0479  -12.1232   28.0987 C   0  0  0  0  0  0  0  0  0  0  0  0
    7.0314  -12.0665   26.5623 S   0  0  0  0  0  0  0  0  0  0  0  0
    6.4407  -13.4020   25.4808 C   0  0  0  0  0  0  0  0  0  0  0  0
    7.1014  -14.6604   25.9263 C   0  0  0  0  0  0  0  0  0  0  0  0
    8.3548  -15.0173   25.1253 C   0  0  2  0  0  0  0  0  0  0  0  0
    7.9080  -15.0385   23.7289 N   0  0  0  0  0  0  0  0  0  0  0  0
    8.9893  -16.2481   25.5733 C   0  0  0  0  0  0  0  0  0  0  0  0
    9.2966  -16.3573   26.8098 O   0  0  0  0  0  0  0  0  0  0  0  0
   10.0671  -19.5691   24.1689 C   0  0  0  0  0  0  0  0  0  0  0  0
    9.9551  -18.5623   25.3168 C   0  0  2  0  0  0  0  0  0  0  0  0
    9.3173  -17.3768   24.7806 N   0  0  0  0  0  0  0  0  0  0  0  0
   11.3139  -18.2936   25.8138 C   0  0  0  0  0  0  0  0  0  0  0  0
   12.0137  -17.3581   25.3541 O   0  0  0  0  0  0  0  0  0  0  0  0
   11.8731  -19.0704   26.8148 O   0  0  0  0  0  0  0  0  0  0  0  0
  1  2  1  0
  3  5  1  0
  3  4  1  6
  3  2  1  0
  5  7  1  0
  5  6  1  1
  7 14  1  0
  7  8  2  0
  9 10  1  0
 10 11  1  0
 11 12  1  0
 13 15  1  0
 13 12  1  1
 14 13  1  0
 15 16  2  0
 18 17  1  6
 18 19  1  0
 19 15  1  0
 20 18  1  0
 21 20  2  0
 22 20  1  0
M  END
$$$$
