IMA.pdb
     RDKit          3D

 22 21  0  0  1  0  0  0  0  0999 V2000
    7.9926  -15.7007   16.6559 C   0  0  0  0  0  0  0  0  0  0  0  0
    7.6068  -14.6196   17.6120 C   0  0  0  0  0  0  0  0  0  0  0  0
    8.1092  -14.8125   19.0190 C   0  0  2  0  0  0  0  0  0  0  0  0
    7.4898  -16.0991   19.5185 C   0  0  0  0  0  0  0  0  0  0  0  0
    7.5684  -13.6831   19.9031 C   0  0  2  0  0  0  0  0  0  0  0  0
    8.2270  -12.4815   19.3546 N   0  0  0  0  0  0  0  0  0  0  0  0
    7.9944  -13.8017   21.3071 C   0  0  0  0  0  0  0  0  0  0  0  0
    9.2332  -13.6786   21.5744 O   0  0  0  0  0  0  0  0  0  0  0  0
    8.0058  -12.7419   28.4819 C   0  0  0  0  0  0  0  0  0  0  0  0
    7.6312  -12.5320   26.7080 S   0  0  0  0  0  0  0  0  0  0  0  0
    6.7962  -14.0425   26.1391 C   0  0  0  0  0  0  0  0  0  0  0  0
    6.4947  -13.8656   24.6912 C   0  0  0  0  0  0  0  0  0  0  0  0
    7.6816  -14.1602   23.7723 C   0  0  2  0  0  0  0  0  0  0  0  0
    7.1376  -14.0420   22.4158 N   0  0  0  0  0  0  0  0  0  0  0  0
    8.3219  -15.4361   24.0554 C   0  0  0  0  0  0  0  0  0  0  0  0
    7.5853  -16.4773   24.1491 O   0  0  0  0  0  0  0  0  0  0  0  0
   11.7068  -16.9860   24.1110 C   0  0  0  0  0  0  0  0  0  0  0  0
   10.2492  -16.9741   24.5791 C   0  0  2  0  0  0  0  0  0  0  0  0
    9.7069  -15.6727   24.2447 N   0  0  0  0  0  0  0  0  0  0  0  0
   10.2399  -17.2316   26.0279 C   0  0  0  0  0  0  0  0  0  0  0  0
   10.6021  -18.3344   26.5064 O   0  0  0  0  0  0  0  0  0  0  0  0
    9.8276  -16.2577   26.9222 O   0  0  0  0  0  0  0  0  0  0  0  0
  1  2  1  0
  3  5  1  0
  3  4  1  1
  3  2  1  0
  5  7  1  0
  5  6  1  6
  7 14  1  0
  7  8  2  0
  9 10  1  0
 10 11  1  0
 11 12  1  0
 13 15  1  0
 13 12  1  1
 14 13  1  0
 15 16  2  0
 18 17  1  1
 18 19  1  0
 19 15  1  0
 20 18  1  0
 21 20  2  0
 22 20  1  0
M  END
$$$$
