LHI.pdb
     RDKit          3D

 27 27  0  0  1  0  0  0  0  0999 V2000
   28.0819  -25.3939  -16.4750 C   0  0  0  0  0  0  0  0  0  0  0  0
   27.2729  -26.2144  -17.4491 C   0  0  1  0  0  0  0  0  0  0  0  0
   27.8221  -27.6418  -17.3896 C   0  0  0  0  0  0  0  0  0  0  0  0
   25.8147  -26.2828  -17.0727 C   0  0  0  0  0  0  0  0  0  0  0  0
   24.9828  -27.0477  -18.0745 C   0  0  2  0  0  0  0  0  0  0  0  0
   24.9060  -26.2215  -19.2707 N   0  0  0  0  0  0  0  0  0  0  0  0
   23.6206  -27.1952  -17.4703 C   0  0  0  0  0  0  0  0  0  0  0  0
   22.8430  -26.2131  -17.4668 O   0  0  0  0  0  0  0  0  0  0  0  0
   23.2544  -28.4624  -16.9155 N   0  0  0  0  0  0  0  0  0  0  0  0
   21.8375  -28.6012  -16.5204 C   0  0  1  0  0  0  0  0  0  0  0  0
   21.4465  -29.9785  -16.9893 C   0  0  0  0  0  0  0  0  0  0  0  0
   21.0995  -29.9919  -18.4298 C   0  0  0  0  0  0  0  0  0  0  0  0
   20.8662  -28.8456  -19.1995 C   0  0  0  0  0  0  0  0  0  0  0  0
   20.5829  -29.2470  -20.4370 N   0  0  0  0  0  0  0  0  0  0  0  0
   20.6213  -30.5880  -20.5066 C   0  0  0  0  0  0  0  0  0  0  0  0
   20.9374  -31.0206  -19.2735 N   0  0  0  0  0  0  0  0  0  0  0  0
   21.7812  -28.4360  -15.0640 C   0  0  0  0  0  0  0  0  0  0  0  0
   22.6396  -28.9083  -14.2629 O   0  0  0  0  0  0  0  0  0  0  0  0
   20.8473  -23.7901  -12.8633 C   0  0  0  0  0  0  0  0  0  0  0  0
   21.2609  -25.2283  -13.1381 C   0  0  0  0  0  0  0  0  0  0  0  0
   20.2182  -26.1890  -12.6528 C   0  0  2  0  0  0  0  0  0  0  0  0
   20.0349  -25.9471  -11.1768 C   0  0  0  0  0  0  0  0  0  0  0  0
   20.5855  -27.5972  -12.9962 C   0  0  2  0  0  0  0  0  0  0  0  0
   20.7373  -27.7204  -14.4618 N   0  0  0  0  0  0  0  0  0  0  0  0
   19.6959  -28.6381  -12.4901 C   0  0  0  0  0  0  0  0  0  0  0  0
   19.8995  -29.3457  -11.3358 O   0  0  0  0  0  0  0  0  0  0  0  0
   18.6323  -28.9547  -13.1320 O   0  0  0  0  0  0  0  0  0  0  0  0
  2  1  1  1
  2  3  1  0
  4  5  1  0
  4  2  1  0
  5  7  1  0
  5  6  1  6
  7  8  2  0
  9 10  1  0
  9  7  1  0
 11 12  1  0
 10 11  1  1
 12 16  1  0
 13 12  2  0
 13 14  1  0
 14 15  1  0
 16 15  2  0
 17 18  2  0
 17 10  1  0
 19 20  1  0
 20 21  1  0
 21 23  1  0
 21 22  1  1
 23 24  1  6
 23 25  1  0
 24 17  1  0
 25 26  1  0
 27 25  2  0
M  END
$$$$
