LHI.pdb
     RDKit          3D

 27 27  0  0  1  0  0  0  0  0999 V2000
   29.7922  -21.3637   -9.8148 C   0  0  0  0  0  0  0  0  0  0  0  0
   29.9443  -21.0949  -11.2917 C   0  0  1  0  0  0  0  0  0  0  0  0
   30.7470  -22.2608  -11.8742 C   0  0  0  0  0  0  0  0  0  0  0  0
   28.6197  -21.0636  -12.0109 C   0  0  0  0  0  0  0  0  0  0  0  0
   28.7496  -20.6934  -13.4693 C   0  0  2  0  0  0  0  0  0  0  0  0
   29.4330  -19.4088  -13.5145 N   0  0  0  0  0  0  0  0  0  0  0  0
   27.3554  -20.5463  -13.9955 C   0  0  0  0  0  0  0  0  0  0  0  0
   26.7582  -19.4548  -13.8498 O   0  0  0  0  0  0  0  0  0  0  0  0
   26.7522  -21.6663  -14.6508 N   0  0  0  0  0  0  0  0  0  0  0  0
   25.4428  -21.4067  -15.2840 C   0  0  1  0  0  0  0  0  0  0  0  0
   25.4117  -22.3227  -16.4797 C   0  0  0  0  0  0  0  0  0  0  0  0
   26.0853  -21.7192  -17.6534 C   0  0  0  0  0  0  0  0  0  0  0  0
   26.5624  -20.4037  -17.7036 C   0  0  0  0  0  0  0  0  0  0  0  0
   27.1005  -20.2203  -18.9076 N   0  0  0  0  0  0  0  0  0  0  0  0
   26.9964  -21.3449  -19.6350 C   0  0  0  0  0  0  0  0  0  0  0  0
   26.3752  -22.2441  -18.8521 N   0  0  0  0  0  0  0  0  0  0  0  0
   24.4154  -21.7098  -14.2819 C   0  0  0  0  0  0  0  0  0  0  0  0
   24.2345  -22.8557  -13.7759 O   0  0  0  0  0  0  0  0  0  0  0  0
   24.6158  -19.8175   -9.7442 C   0  0  0  0  0  0  0  0  0  0  0  0
   24.2110  -20.6502  -10.9515 C   0  0  0  0  0  0  0  0  0  0  0  0
   22.9237  -20.1553  -11.5379 C   0  0  2  0  0  0  0  0  0  0  0  0
   21.8882  -20.1880  -10.4438 C   0  0  0  0  0  0  0  0  0  0  0  0
   22.5495  -20.9442  -12.7518 C   0  0  2  0  0  0  0  0  0  0  0  0
   23.5499  -20.7110  -13.8153 N   0  0  0  0  0  0  0  0  0  0  0  0
   21.2014  -20.7315  -13.2696 C   0  0  0  0  0  0  0  0  0  0  0  0
   20.1307  -21.5470  -13.0180 O   0  0  0  0  0  0  0  0  0  0  0  0
   20.9430  -19.7245  -14.0199 O   0  0  0  0  0  0  0  0  0  0  0  0
  2  1  1  1
  2  3  1  0
  4  5  1  0
  4  2  1  0
  5  7  1  0
  5  6  1  1
  7  8  2  0
  9 10  1  0
  9  7  1  0
 11 12  1  0
 10 11  1  6
 12 16  1  0
 13 12  2  0
 13 14  1  0
 14 15  1  0
 16 15  2  0
 17 18  2  0
 17 10  1  0
 19 20  1  0
 20 21  1  0
 21 23  1  0
 21 22  1  1
 23 24  1  6
 23 25  1  0
 24 17  1  0
 25 26  1  0
 27 25  2  0
M  END
$$$$
