LHI.pdb
     RDKit          3D

 27 27  0  0  1  0  0  0  0  0999 V2000
   30.3883  -22.4638  -12.3538 C   0  0  0  0  0  0  0  0  0  0  0  0
   30.0909  -21.0114  -12.0737 C   0  0  1  0  0  0  0  0  0  0  0  0
   31.2511  -20.4758  -11.2311 C   0  0  0  0  0  0  0  0  0  0  0  0
   30.0344  -20.1820  -13.3313 C   0  0  0  0  0  0  0  0  0  0  0  0
   28.8525  -20.5211  -14.2082 C   0  0  2  0  0  0  0  0  0  0  0  0
   29.0010  -19.7414  -15.4285 N   0  0  0  0  0  0  0  0  0  0  0  0
   27.6312  -20.0751  -13.4654 C   0  0  0  0  0  0  0  0  0  0  0  0
   27.5510  -18.8868  -13.0770 O   0  0  0  0  0  0  0  0  0  0  0  0
   26.5927  -21.0297  -13.2250 N   0  0  0  0  0  0  0  0  0  0  0  0
   25.3811  -20.5027  -12.5639 C   0  0  1  0  0  0  0  0  0  0  0  0
   24.2502  -20.8896  -13.4810 C   0  0  0  0  0  0  0  0  0  0  0  0
   22.9377  -20.4491  -12.9530 C   0  0  0  0  0  0  0  0  0  0  0  0
   22.7632  -19.7244  -11.7676 C   0  0  0  0  0  0  0  0  0  0  0  0
   21.4572  -19.5124  -11.6184 N   0  0  0  0  0  0  0  0  0  0  0  0
   20.7816  -20.0601  -12.6422 C   0  0  0  0  0  0  0  0  0  0  0  0
   21.7025  -20.6251  -13.4424 N   0  0  0  0  0  0  0  0  0  0  0  0
   25.3084  -21.1307  -11.2404 C   0  0  0  0  0  0  0  0  0  0  0  0
   25.3804  -22.3787  -11.0426 O   0  0  0  0  0  0  0  0  0  0  0  0
   27.7566  -18.7701   -7.0911 C   0  0  0  0  0  0  0  0  0  0  0  0
   27.1410  -19.7755   -8.0529 C   0  0  0  0  0  0  0  0  0  0  0  0
   25.6903  -19.9931   -7.7464 C   0  0  2  0  0  0  0  0  0  0  0  0
   25.5962  -20.4511   -6.3140 C   0  0  0  0  0  0  0  0  0  0  0  0
   25.0709  -20.9365   -8.7274 C   0  0  2  0  0  0  0  0  0  0  0  0
   25.1503  -20.3543  -10.0842 N   0  0  0  0  0  0  0  0  0  0  0  0
   23.7050  -21.3630   -8.4387 C   0  0  0  0  0  0  0  0  0  0  0  0
   23.3709  -22.4320   -7.6511 O   0  0  0  0  0  0  0  0  0  0  0  0
   22.7063  -20.7281   -8.9319 O   0  0  0  0  0  0  0  0  0  0  0  0
  2  1  1  6
  2  3  1  0
  4  5  1  0
  4  2  1  0
  5  7  1  0
  5  6  1  6
  7  8  2  0
  9 10  1  0
  9  7  1  0
 11 12  1  0
 10 11  1  6
 12 16  1  0
 13 12  2  0
 13 14  1  0
 14 15  1  0
 16 15  2  0
 17 18  2  0
 17 10  1  0
 19 20  1  0
 20 21  1  0
 21 23  1  0
 21 22  1  1
 23 24  1  6
 23 25  1  0
 24 17  1  0
 25 26  1  0
 27 25  2  0
M  END
$$$$
