LHI.pdb
     RDKit          3D

 27 27  0  0  1  0  0  0  0  0999 V2000
   21.1979  -20.9000  -16.9575 C   0  0  0  0  0  0  0  0  0  0  0  0
   21.8692  -19.6231  -16.5154 C   0  0  1  0  0  0  0  0  0  0  0  0
   21.3948  -18.5209  -17.4656 C   0  0  0  0  0  0  0  0  0  0  0  0
   21.4661  -19.2129  -15.1218 C   0  0  0  0  0  0  0  0  0  0  0  0
   22.5937  -18.5743  -14.3462 C   0  0  2  0  0  0  0  0  0  0  0  0
   23.5723  -18.1252  -15.3260 N   0  0  0  0  0  0  0  0  0  0  0  0
   23.1865  -19.6532  -13.4935 C   0  0  0  0  0  0  0  0  0  0  0  0
   22.4699  -20.2180  -12.6351 O   0  0  0  0  0  0  0  0  0  0  0  0
   24.5599  -20.0023  -13.6925 N   0  0  0  0  0  0  0  0  0  0  0  0
   25.1002  -21.0213  -12.7692 C   0  0  1  0  0  0  0  0  0  0  0  0
   25.8235  -21.9960  -13.6617 C   0  0  0  0  0  0  0  0  0  0  0  0
   24.8827  -22.8860  -14.3817 C   0  0  0  0  0  0  0  0  0  0  0  0
   24.1545  -23.9208  -13.7821 C   0  0  0  0  0  0  0  0  0  0  0  0
   23.4233  -24.4974  -14.7337 N   0  0  0  0  0  0  0  0  0  0  0  0
   23.6403  -23.8909  -15.9126 C   0  0  0  0  0  0  0  0  0  0  0  0
   24.5321  -22.9132  -15.6750 N   0  0  0  0  0  0  0  0  0  0  0  0
   25.9788  -20.3213  -11.8261 C   0  0  0  0  0  0  0  0  0  0  0  0
   26.5848  -19.2417  -12.0889 O   0  0  0  0  0  0  0  0  0  0  0  0
   27.2666  -17.8251   -7.1784 C   0  0  0  0  0  0  0  0  0  0  0  0
   27.4171  -19.3338   -7.3057 C   0  0  0  0  0  0  0  0  0  0  0  0
   26.4596  -19.8854   -8.3180 C   0  0  2  0  0  0  0  0  0  0  0  0
   25.7495  -21.0505   -7.6784 C   0  0  0  0  0  0  0  0  0  0  0  0
   27.1646  -20.2289   -9.5912 C   0  0  2  0  0  0  0  0  0  0  0  0
   26.2007  -20.8287  -10.5384 N   0  0  0  0  0  0  0  0  0  0  0  0
   28.3461  -21.0770   -9.4664 C   0  0  0  0  0  0  0  0  0  0  0  0
   29.5722  -20.6487   -9.0328 O   0  0  0  0  0  0  0  0  0  0  0  0
   28.2902  -22.3210   -9.7712 O   0  0  0  0  0  0  0  0  0  0  0  0
  2  1  1  6
  2  3  1  0
  4  5  1  0
  4  2  1  0
  5  7  1  0
  5  6  1  6
  7  8  2  0
  9 10  1  0
  9  7  1  0
 11 12  1  0
 10 11  1  6
 12 16  1  0
 13 12  2  0
 13 14  1  0
 14 15  1  0
 16 15  2  0
 17 18  2  0
 17 10  1  0
 19 20  1  0
 20 21  1  0
 21 23  1  0
 21 22  1  1
 23 24  1  6
 23 25  1  0
 24 17  1  0
 25 26  1  0
 27 25  2  0
M  END
$$$$
