LHI.pdb
     RDKit          3D

 27 27  0  0  1  0  0  0  0  0999 V2000
   27.3169  -16.6204  -17.8015 C   0  0  0  0  0  0  0  0  0  0  0  0
   27.7069  -17.7815  -16.9205 C   0  0  1  0  0  0  0  0  0  0  0  0
   29.1488  -18.1470  -17.2813 C   0  0  0  0  0  0  0  0  0  0  0  0
   27.6917  -17.4241  -15.4560 C   0  0  0  0  0  0  0  0  0  0  0  0
   28.1130  -18.5689  -14.5656 C   0  0  2  0  0  0  0  0  0  0  0  0
   28.3767  -19.7025  -15.4401 N   0  0  0  0  0  0  0  0  0  0  0  0
   26.9433  -18.8709  -13.6808 C   0  0  0  0  0  0  0  0  0  0  0  0
   26.4157  -17.9427  -13.0256 O   0  0  0  0  0  0  0  0  0  0  0  0
   26.4673  -20.2189  -13.6161 N   0  0  0  0  0  0  0  0  0  0  0  0
   25.2486  -20.4279  -12.8074 C   0  0  1  0  0  0  0  0  0  0  0  0
   24.4557  -21.4535  -13.5749 C   0  0  0  0  0  0  0  0  0  0  0  0
   23.0345  -21.4767  -13.1564 C   0  0  0  0  0  0  0  0  0  0  0  0
   22.4842  -20.6455  -12.1730 C   0  0  0  0  0  0  0  0  0  0  0  0
   21.1925  -20.9515  -12.0692 N   0  0  0  0  0  0  0  0  0  0  0  0
   20.8809  -21.9333  -12.9314 C   0  0  0  0  0  0  0  0  0  0  0  0
   22.0170  -22.2378  -13.5827 N   0  0  0  0  0  0  0  0  0  0  0  0
   25.6863  -20.8890  -11.4855 C   0  0  0  0  0  0  0  0  0  0  0  0
   26.5765  -21.7693  -11.3003 O   0  0  0  0  0  0  0  0  0  0  0  0
   28.4859  -18.9642   -7.9289 C   0  0  0  0  0  0  0  0  0  0  0  0
   27.6352  -19.9663   -8.6951 C   0  0  0  0  0  0  0  0  0  0  0  0
   26.2241  -19.9693   -8.1906 C   0  0  2  0  0  0  0  0  0  0  0  0
   26.2741  -20.2663   -6.7142 C   0  0  0  0  0  0  0  0  0  0  0  0
   25.3772  -20.9216   -8.9730 C   0  0  2  0  0  0  0  0  0  0  0  0
   25.1220  -20.3598  -10.3166 N   0  0  0  0  0  0  0  0  0  0  0  0
   24.1229  -21.3322   -8.3494 C   0  0  0  0  0  0  0  0  0  0  0  0
   24.0186  -22.2386   -7.3285 O   0  0  0  0  0  0  0  0  0  0  0  0
   23.0069  -20.8415   -8.7461 O   0  0  0  0  0  0  0  0  0  0  0  0
  2  1  1  6
  2  3  1  0
  4  5  1  0
  4  2  1  0
  5  7  1  0
  5  6  1  6
  7  8  2  0
  9 10  1  0
  9  7  1  0
 11 12  1  0
 10 11  1  6
 12 16  1  0
 13 12  2  0
 13 14  1  0
 14 15  1  0
 16 15  2  0
 17 18  2  0
 17 10  1  0
 19 20  1  0
 20 21  1  0
 21 23  1  0
 21 22  1  1
 23 24  1  6
 23 25  1  0
 24 17  1  0
 25 26  1  0
 27 25  2  0
M  END
$$$$
