LHI.pdb
     RDKit          3D

 27 27  0  0  1  0  0  0  0  0999 V2000
   28.3647  -27.7742  -15.8483 C   0  0  0  0  0  0  0  0  0  0  0  0
   28.4816  -26.6377  -16.8337 C   0  0  1  0  0  0  0  0  0  0  0  0
   27.2683  -26.7293  -17.7622 C   0  0  0  0  0  0  0  0  0  0  0  0
   28.4290  -25.2876  -16.1649 C   0  0  0  0  0  0  0  0  0  0  0  0
   28.6021  -24.1426  -17.1343 C   0  0  2  0  0  0  0  0  0  0  0  0
   30.0353  -23.9383  -17.2872 N   0  0  0  0  0  0  0  0  0  0  0  0
   27.9836  -22.9419  -16.4876 C   0  0  0  0  0  0  0  0  0  0  0  0
   28.5921  -22.3672  -15.5555 O   0  0  0  0  0  0  0  0  0  0  0  0
   26.7109  -22.4916  -16.9619 N   0  0  0  0  0  0  0  0  0  0  0  0
   26.2159  -21.2334  -16.3663 C   0  0  1  0  0  0  0  0  0  0  0  0
   25.5152  -20.5281  -17.4982 C   0  0  0  0  0  0  0  0  0  0  0  0
   24.9204  -19.2430  -17.0621 C   0  0  0  0  0  0  0  0  0  0  0  0
   25.0223  -18.7217  -15.7664 C   0  0  0  0  0  0  0  0  0  0  0  0
   24.3682  -17.5621  -15.7505 N   0  0  0  0  0  0  0  0  0  0  0  0
   23.8512  -17.3079  -16.9641 C   0  0  0  0  0  0  0  0  0  0  0  0
   24.1994  -18.3442  -17.7467 N   0  0  0  0  0  0  0  0  0  0  0  0
   25.3255  -21.6045  -15.2612 C   0  0  0  0  0  0  0  0  0  0  0  0
   24.4838  -22.5481  -15.3148 O   0  0  0  0  0  0  0  0  0  0  0  0
   27.2016  -21.2397  -10.2204 C   0  0  0  0  0  0  0  0  0  0  0  0
   26.4106  -21.7125  -11.4311 C   0  0  0  0  0  0  0  0  0  0  0  0
   25.1786  -20.8818  -11.6254 C   0  0  2  0  0  0  0  0  0  0  0  0
   24.3234  -21.0499  -10.3961 C   0  0  0  0  0  0  0  0  0  0  0  0
   24.4856  -21.2410  -12.9008 C   0  0  2  0  0  0  0  0  0  0  0  0
   25.3618  -20.9093  -14.0446 N   0  0  0  0  0  0  0  0  0  0  0  0
   23.1576  -20.6678  -13.0975 C   0  0  0  0  0  0  0  0  0  0  0  0
   22.9123  -19.3636  -13.4349 O   0  0  0  0  0  0  0  0  0  0  0  0
   22.1084  -21.3911  -12.9569 O   0  0  0  0  0  0  0  0  0  0  0  0
  2  1  1  1
  2  3  1  0
  4  5  1  0
  4  2  1  0
  5  7  1  0
  5  6  1  1
  7  8  2  0
  9 10  1  0
  9  7  1  0
 11 12  1  0
 10 11  1  6
 12 16  1  0
 13 12  2  0
 13 14  1  0
 14 15  1  0
 16 15  2  0
 17 18  2  0
 17 10  1  0
 19 20  1  0
 20 21  1  0
 21 23  1  0
 21 22  1  1
 23 24  1  6
 23 25  1  0
 24 17  1  0
 25 26  1  0
 27 25  2  0
M  END
$$$$
