LHI.pdb
     RDKit          3D

 27 27  0  0  1  0  0  0  0  0999 V2000
   26.9321  -18.1568  -17.9274 C   0  0  0  0  0  0  0  0  0  0  0  0
   28.0563  -18.2729  -16.9278 C   0  0  1  0  0  0  0  0  0  0  0  0
   29.0442  -17.1459  -17.2386 C   0  0  0  0  0  0  0  0  0  0  0  0
   27.5879  -18.0751  -15.5085 C   0  0  0  0  0  0  0  0  0  0  0  0
   28.0307  -19.1826  -14.5821 C   0  0  2  0  0  0  0  0  0  0  0  0
   28.0367  -20.4074  -15.3689 N   0  0  0  0  0  0  0  0  0  0  0  0
   26.9941  -19.2751  -13.5055 C   0  0  0  0  0  0  0  0  0  0  0  0
   26.7252  -18.2578  -12.8256 O   0  0  0  0  0  0  0  0  0  0  0  0
   26.3435  -20.5315  -13.2916 N   0  0  0  0  0  0  0  0  0  0  0  0
   25.3011  -20.5410  -12.2446 C   0  0  1  0  0  0  0  0  0  0  0  0
   24.3114  -21.5796  -12.7044 C   0  0  0  0  0  0  0  0  0  0  0  0
   23.1794  -20.9726  -13.4432 C   0  0  0  0  0  0  0  0  0  0  0  0
   22.9237  -19.5976  -13.5112 C   0  0  0  0  0  0  0  0  0  0  0  0
   21.8323  -19.4312  -14.2554 N   0  0  0  0  0  0  0  0  0  0  0  0
   21.3716  -20.6228  -14.6705 C   0  0  0  0  0  0  0  0  0  0  0  0
   22.2066  -21.5470  -14.1644 N   0  0  0  0  0  0  0  0  0  0  0  0
   25.9663  -20.8785  -10.9816 C   0  0  0  0  0  0  0  0  0  0  0  0
   26.9206  -21.7037  -10.8810 O   0  0  0  0  0  0  0  0  0  0  0  0
   28.5756  -18.4094   -7.3880 C   0  0  0  0  0  0  0  0  0  0  0  0
   27.8952  -19.5026   -8.1985 C   0  0  0  0  0  0  0  0  0  0  0  0
   26.5658  -19.8610   -7.6070 C   0  0  2  0  0  0  0  0  0  0  0  0
   26.8100  -20.3121   -6.1901 C   0  0  0  0  0  0  0  0  0  0  0  0
   25.8579  -20.8712   -8.4522 C   0  0  2  0  0  0  0  0  0  0  0  0
   25.5663  -20.2833   -9.7772 N   0  0  0  0  0  0  0  0  0  0  0  0
   24.6490  -21.4573   -7.8814 C   0  0  0  0  0  0  0  0  0  0  0  0
   24.6311  -22.4953   -6.9886 O   0  0  0  0  0  0  0  0  0  0  0  0
   23.4924  -21.0079   -8.2037 O   0  0  0  0  0  0  0  0  0  0  0  0
  2  1  1  6
  2  3  1  0
  4  5  1  0
  4  2  1  0
  5  7  1  0
  5  6  1  6
  7  8  2  0
  9 10  1  0
  9  7  1  0
 11 12  1  0
 10 11  1  6
 12 16  1  0
 13 12  2  0
 13 14  1  0
 14 15  1  0
 16 15  2  0
 17 18  2  0
 17 10  1  0
 19 20  1  0
 20 21  1  0
 21 23  1  0
 21 22  1  1
 23 24  1  6
 23 25  1  0
 24 17  1  0
 25 26  1  0
 27 25  2  0
M  END
$$$$
