LHI.pdb
     RDKit          3D

 27 27  0  0  1  0  0  0  0  0999 V2000
   31.1316  -21.4531  -10.9472 C   0  0  0  0  0  0  0  0  0  0  0  0
   29.7264  -21.8391  -10.5563 C   0  0  1  0  0  0  0  0  0  0  0  0
   29.6060  -21.6066   -9.0482 C   0  0  0  0  0  0  0  0  0  0  0  0
   28.6853  -20.9769  -11.2238 C   0  0  0  0  0  0  0  0  0  0  0  0
   27.2727  -21.4110  -10.9123 C   0  0  2  0  0  0  0  0  0  0  0  0
   27.2170  -22.8472  -11.1433 N   0  0  0  0  0  0  0  0  0  0  0  0
   26.3862  -20.7041  -11.8904 C   0  0  0  0  0  0  0  0  0  0  0  0
   26.2219  -19.4667  -11.7842 O   0  0  0  0  0  0  0  0  0  0  0  0
   25.7549  -21.4738  -12.9183 N   0  0  0  0  0  0  0  0  0  0  0  0
   24.8285  -20.7293  -13.7960 C   0  0  1  0  0  0  0  0  0  0  0  0
   25.1724  -21.1905  -15.1884 C   0  0  0  0  0  0  0  0  0  0  0  0
   24.3530  -20.5036  -16.2141 C   0  0  0  0  0  0  0  0  0  0  0  0
   24.7374  -19.3354  -16.8838 C   0  0  0  0  0  0  0  0  0  0  0  0
   23.7548  -19.0152  -17.7232 N   0  0  0  0  0  0  0  0  0  0  0  0
   22.7594  -19.9126  -17.6312 C   0  0  0  0  0  0  0  0  0  0  0  0
   23.1446  -20.8095  -16.7067 N   0  0  0  0  0  0  0  0  0  0  0  0
   23.4673  -21.0810  -13.3776 C   0  0  0  0  0  0  0  0  0  0  0  0
   23.1011  -22.2519  -13.0666 O   0  0  0  0  0  0  0  0  0  0  0  0
   21.4039  -19.7529   -9.1478 C   0  0  0  0  0  0  0  0  0  0  0  0
   21.6201  -20.4381  -10.4889 C   0  0  0  0  0  0  0  0  0  0  0  0
   20.7987  -19.7899  -11.5617 C   0  0  2  0  0  0  0  0  0  0  0  0
   19.3555  -19.8730  -11.1363 C   0  0  0  0  0  0  0  0  0  0  0  0
   21.0750  -20.4074  -12.8952 C   0  0  2  0  0  0  0  0  0  0  0  0
   22.4653  -20.1042  -13.2969 N   0  0  0  0  0  0  0  0  0  0  0  0
   20.1506  -20.0618  -13.9707 C   0  0  0  0  0  0  0  0  0  0  0  0
   20.3914  -19.1194  -14.9345 O   0  0  0  0  0  0  0  0  0  0  0  0
   19.0161  -20.6507  -14.0691 O   0  0  0  0  0  0  0  0  0  0  0  0
  2  1  1  6
  2  3  1  0
  4  5  1  0
  4  2  1  0
  5  7  1  0
  5  6  1  6
  7  8  2  0
  9 10  1  0
  9  7  1  0
 11 12  1  0
 10 11  1  6
 12 16  1  0
 13 12  2  0
 13 14  1  0
 14 15  1  0
 16 15  2  0
 17 18  2  0
 17 10  1  0
 19 20  1  0
 20 21  1  0
 21 23  1  0
 21 22  1  1
 23 24  1  6
 23 25  1  0
 24 17  1  0
 25 26  1  0
 27 25  2  0
M  END
$$$$
