LHI.pdb
     RDKit          3D

 27 27  0  0  1  0  0  0  0  0999 V2000
   27.3106  -15.8581  -17.1129 C   0  0  0  0  0  0  0  0  0  0  0  0
   27.6241  -17.2225  -16.5502 C   0  0  1  0  0  0  0  0  0  0  0  0
   29.1242  -17.2431  -16.2470 C   0  0  0  0  0  0  0  0  0  0  0  0
   26.9042  -17.4897  -15.2528 C   0  0  0  0  0  0  0  0  0  0  0  0
   27.5117  -18.6262  -14.4652 C   0  0  2  0  0  0  0  0  0  0  0  0
   27.6776  -19.7354  -15.3934 N   0  0  0  0  0  0  0  0  0  0  0  0
   26.5144  -18.9916  -13.4096 C   0  0  0  0  0  0  0  0  0  0  0  0
   26.0961  -18.1050  -12.6296 O   0  0  0  0  0  0  0  0  0  0  0  0
   26.0721  -20.3502  -13.3305 N   0  0  0  0  0  0  0  0  0  0  0  0
   25.0571  -20.6322  -12.2946 C   0  0  1  0  0  0  0  0  0  0  0  0
   24.2376  -21.7608  -12.8642 C   0  0  0  0  0  0  0  0  0  0  0  0
   23.1683  -21.2659  -13.7626 C   0  0  0  0  0  0  0  0  0  0  0  0
   22.8732  -19.9134  -13.9735 C   0  0  0  0  0  0  0  0  0  0  0  0
   21.8601  -19.8560  -14.8355 N   0  0  0  0  0  0  0  0  0  0  0  0
   21.4869  -21.0964  -15.1913 C   0  0  0  0  0  0  0  0  0  0  0  0
   22.2964  -21.9390  -14.5263 N   0  0  0  0  0  0  0  0  0  0  0  0
   25.7826  -20.9893  -11.0708 C   0  0  0  0  0  0  0  0  0  0  0  0
   26.8652  -21.6446  -11.0536 O   0  0  0  0  0  0  0  0  0  0  0  0
   28.6643  -19.3434   -6.4613 C   0  0  0  0  0  0  0  0  0  0  0  0
   27.6642  -20.4062   -6.8916 C   0  0  0  0  0  0  0  0  0  0  0  0
   26.9469  -19.9940   -8.1412 C   0  0  2  0  0  0  0  0  0  0  0  0
   26.3624  -18.6272   -7.8951 C   0  0  0  0  0  0  0  0  0  0  0  0
   25.9384  -21.0219   -8.5441 C   0  0  2  0  0  0  0  0  0  0  0  0
   25.2982  -20.6096   -9.8115 N   0  0  0  0  0  0  0  0  0  0  0  0
   24.9235  -21.3553   -7.5493 C   0  0  0  0  0  0  0  0  0  0  0  0
   25.1564  -22.0723   -6.4063 O   0  0  0  0  0  0  0  0  0  0  0  0
   23.7090  -20.9755   -7.7052 O   0  0  0  0  0  0  0  0  0  0  0  0
  2  1  1  1
  2  3  1  0
  4  5  1  0
  4  2  1  0
  5  7  1  0
  5  6  1  6
  7  8  2  0
  9 10  1  0
  9  7  1  0
 11 12  1  0
 10 11  1  6
 12 16  1  0
 13 12  2  0
 13 14  1  0
 14 15  1  0
 16 15  2  0
 17 18  2  0
 17 10  1  0
 19 20  1  0
 20 21  1  0
 21 23  1  0
 21 22  1  1
 23 24  1  6
 23 25  1  0
 24 17  1  0
 25 26  1  0
 27 25  2  0
M  END
$$$$
