LHI.pdb
     RDKit          3D

 27 27  0  0  1  0  0  0  0  0999 V2000
   26.8698  -13.8603  -19.4103 C   0  0  0  0  0  0  0  0  0  0  0  0
   26.9064  -15.3102  -18.9943 C   0  0  1  0  0  0  0  0  0  0  0  0
   28.1893  -15.9068  -19.5782 C   0  0  0  0  0  0  0  0  0  0  0  0
   26.9784  -15.4785  -17.4979 C   0  0  0  0  0  0  0  0  0  0  0  0
   27.0202  -16.9261  -17.0691 C   0  0  2  0  0  0  0  0  0  0  0  0
   26.9424  -17.7237  -18.2844 N   0  0  0  0  0  0  0  0  0  0  0  0
   25.8004  -17.1558  -16.2315 C   0  0  0  0  0  0  0  0  0  0  0  0
   25.6867  -16.5551  -15.1380 O   0  0  0  0  0  0  0  0  0  0  0  0
   24.8016  -18.0594  -16.7148 N   0  0  0  0  0  0  0  0  0  0  0  0
   23.6524  -18.2828  -15.8135 C   0  0  1  0  0  0  0  0  0  0  0  0
   22.4599  -18.3569  -16.7311 C   0  0  0  0  0  0  0  0  0  0  0  0
   21.2158  -18.6767  -15.9926 C   0  0  0  0  0  0  0  0  0  0  0  0
   20.6339  -19.9490  -15.9337 C   0  0  0  0  0  0  0  0  0  0  0  0
   19.5361  -19.8513  -15.1867 N   0  0  0  0  0  0  0  0  0  0  0  0
   19.3793  -18.5868  -14.7613 C   0  0  0  0  0  0  0  0  0  0  0  0
   20.4128  -17.8890  -15.2638 N   0  0  0  0  0  0  0  0  0  0  0  0
   23.9152  -19.5291  -15.0860 C   0  0  0  0  0  0  0  0  0  0  0  0
   24.5270  -20.5219  -15.5778 O   0  0  0  0  0  0  0  0  0  0  0  0
   26.3597  -21.7152  -10.3308 C   0  0  0  0  0  0  0  0  0  0  0  0
   25.1836  -21.9426  -11.2689 C   0  0  0  0  0  0  0  0  0  0  0  0
   24.8216  -20.6808  -11.9919 C   0  0  2  0  0  0  0  0  0  0  0  0
   24.4830  -19.6460  -10.9501 C   0  0  0  0  0  0  0  0  0  0  0  0
   23.7285  -20.9253  -12.9824 C   0  0  2  0  0  0  0  0  0  0  0  0
   23.4879  -19.6916  -13.7610 N   0  0  0  0  0  0  0  0  0  0  0  0
   22.4720  -21.4371  -12.4439 C   0  0  0  0  0  0  0  0  0  0  0  0
   22.2202  -22.7541  -12.1667 O   0  0  0  0  0  0  0  0  0  0  0  0
   21.4984  -20.6414  -12.1933 O   0  0  0  0  0  0  0  0  0  0  0  0
  2  1  1  1
  2  3  1  0
  4  5  1  0
  4  2  1  0
  5  7  1  0
  5  6  1  6
  7  8  2  0
  9 10  1  0
  9  7  1  0
 11 12  1  0
 10 11  1  6
 12 16  1  0
 13 12  2  0
 13 14  1  0
 14 15  1  0
 16 15  2  0
 17 18  2  0
 17 10  1  0
 19 20  1  0
 20 21  1  0
 21 23  1  0
 21 22  1  1
 23 24  1  1
 23 25  1  0
 24 17  1  0
 25 26  1  0
 27 25  2  0
M  END
$$$$
