LHI.pdb
     RDKit          3D

 27 27  0  0  1  0  0  0  0  0999 V2000
   22.5678  -15.1727  -20.6353 C   0  0  0  0  0  0  0  0  0  0  0  0
   23.8399  -15.8075  -20.1302 C   0  0  1  0  0  0  0  0  0  0  0  0
   24.4641  -14.8220  -19.1393 C   0  0  0  0  0  0  0  0  0  0  0  0
   23.5853  -17.0906  -19.3809 C   0  0  0  0  0  0  0  0  0  0  0  0
   24.7554  -17.5159  -18.5260 C   0  0  2  0  0  0  0  0  0  0  0  0
   25.7701  -18.0311  -19.4339 N   0  0  0  0  0  0  0  0  0  0  0  0
   24.2572  -18.6176  -17.6426 C   0  0  0  0  0  0  0  0  0  0  0  0
   23.7297  -19.6279  -18.1625 O   0  0  0  0  0  0  0  0  0  0  0  0
   24.4036  -18.4749  -16.2263 N   0  0  0  0  0  0  0  0  0  0  0  0
   23.9477  -19.6245  -15.4180 C   0  0  1  0  0  0  0  0  0  0  0  0
   25.0642  -19.8633  -14.4350 C   0  0  0  0  0  0  0  0  0  0  0  0
   26.2697  -20.4172  -15.0949 C   0  0  0  0  0  0  0  0  0  0  0  0
   27.4289  -19.6826  -15.3735 C   0  0  0  0  0  0  0  0  0  0  0  0
   28.2902  -20.5065  -15.9667 N   0  0  0  0  0  0  0  0  0  0  0  0
   27.7500  -21.7308  -16.0850 C   0  0  0  0  0  0  0  0  0  0  0  0
   26.5199  -21.6535  -15.5480 N   0  0  0  0  0  0  0  0  0  0  0  0
   22.6825  -19.2305  -14.7891 C   0  0  0  0  0  0  0  0  0  0  0  0
   22.4777  -18.1020  -14.2540 O   0  0  0  0  0  0  0  0  0  0  0  0
   19.0299  -17.7756  -17.3274 C   0  0  0  0  0  0  0  0  0  0  0  0
   19.8566  -18.0936  -16.0903 C   0  0  0  0  0  0  0  0  0  0  0  0
   19.3960  -19.3677  -15.4497 C   0  0  2  0  0  0  0  0  0  0  0  0
   17.9360  -19.2020  -15.1158 C   0  0  0  0  0  0  0  0  0  0  0  0
   20.2518  -19.7164  -14.2741 C   0  0  2  0  0  0  0  0  0  0  0  0
   21.5952  -20.1140  -14.7469 N   0  0  0  0  0  0  0  0  0  0  0  0
   19.7174  -20.7235  -13.3626 C   0  0  0  0  0  0  0  0  0  0  0  0
   19.0007  -20.4487  -12.2288 O   0  0  0  0  0  0  0  0  0  0  0  0
   19.9021  -21.9716  -13.5901 O   0  0  0  0  0  0  0  0  0  0  0  0
  2  1  1  1
  2  3  1  0
  4  5  1  0
  4  2  1  0
  5  7  1  0
  5  6  1  6
  7  8  2  0
  9 10  1  0
  9  7  1  0
 11 12  1  0
 10 11  1  1
 12 16  1  0
 13 12  2  0
 13 14  1  0
 14 15  1  0
 16 15  2  0
 17 18  2  0
 17 10  1  0
 19 20  1  0
 20 21  1  0
 21 23  1  0
 21 22  1  1
 23 24  1  6
 23 25  1  0
 24 17  1  0
 25 26  1  0
 27 25  2  0
M  END
$$$$
