LHI.pdb
     RDKit          3D

 27 27  0  0  1  0  0  0  0  0999 V2000
   27.4166  -15.4924  -18.3685 C   0  0  0  0  0  0  0  0  0  0  0  0
   27.7521  -16.7149  -17.5501 C   0  0  1  0  0  0  0  0  0  0  0  0
   29.2673  -16.7013  -17.3336 C   0  0  0  0  0  0  0  0  0  0  0  0
   27.1078  -16.6905  -16.1874 C   0  0  0  0  0  0  0  0  0  0  0  0
   27.5661  -17.8222  -15.2986 C   0  0  2  0  0  0  0  0  0  0  0  0
   27.7195  -18.9894  -16.1549 N   0  0  0  0  0  0  0  0  0  0  0  0
   26.4660  -18.0578  -14.3104 C   0  0  0  0  0  0  0  0  0  0  0  0
   26.1013  -17.1192  -13.5651 O   0  0  0  0  0  0  0  0  0  0  0  0
   25.8669  -19.3560  -14.2536 N   0  0  0  0  0  0  0  0  0  0  0  0
   24.7350  -19.4967  -13.3146 C   0  0  1  0  0  0  0  0  0  0  0  0
   23.6471  -20.1493  -14.1272 C   0  0  0  0  0  0  0  0  0  0  0  0
   22.3894  -20.2847  -13.3557 C   0  0  0  0  0  0  0  0  0  0  0  0
   22.2049  -19.8103  -12.0512 C   0  0  0  0  0  0  0  0  0  0  0  0
   20.9598  -20.1126  -11.6893 N   0  0  0  0  0  0  0  0  0  0  0  0
   20.3325  -20.7550  -12.6885 C   0  0  0  0  0  0  0  0  0  0  0  0
   21.2214  -20.8490  -13.6928 N   0  0  0  0  0  0  0  0  0  0  0  0
   25.2077  -20.3177  -12.1947 C   0  0  0  0  0  0  0  0  0  0  0  0
   25.9915  -21.3035  -12.3192 O   0  0  0  0  0  0  0  0  0  0  0  0
   27.9738  -18.6260   -8.3893 C   0  0  0  0  0  0  0  0  0  0  0  0
   27.2605  -19.5846   -9.3313 C   0  0  0  0  0  0  0  0  0  0  0  0
   25.9579  -20.0410   -8.7478 C   0  0  2  0  0  0  0  0  0  0  0  0
   26.2667  -20.7442   -7.4514 C   0  0  0  0  0  0  0  0  0  0  0  0
   25.1963  -20.8774   -9.7257 C   0  0  2  0  0  0  0  0  0  0  0  0
   24.8023  -20.0434  -10.8812 N   0  0  0  0  0  0  0  0  0  0  0  0
   24.0378  -21.5924   -9.1990 C   0  0  0  0  0  0  0  0  0  0  0  0
   24.0812  -22.8360   -8.6277 O   0  0  0  0  0  0  0  0  0  0  0  0
   22.8697  -21.0663   -9.2487 O   0  0  0  0  0  0  0  0  0  0  0  0
  2  1  1  6
  2  3  1  0
  4  5  1  0
  4  2  1  0
  5  7  1  0
  5  6  1  6
  7  8  2  0
  9 10  1  0
  9  7  1  0
 11 12  1  0
 10 11  1  6
 12 16  1  0
 13 12  2  0
 13 14  1  0
 14 15  1  0
 16 15  2  0
 17 18  2  0
 17 10  1  0
 19 20  1  0
 20 21  1  0
 21 23  1  0
 21 22  1  1
 23 24  1  6
 23 25  1  0
 24 17  1  0
 25 26  1  0
 27 25  2  0
M  END
$$$$
