LHI.pdb
     RDKit          3D

 27 27  0  0  1  0  0  0  0  0999 V2000
   17.7821  -13.8459  -14.5270 C   0  0  0  0  0  0  0  0  0  0  0  0
   17.4001  -13.2428  -15.8562 C   0  0  1  0  0  0  0  0  0  0  0  0
   15.9559  -12.7537  -15.7224 C   0  0  0  0  0  0  0  0  0  0  0  0
   18.2446  -12.0449  -16.2093 C   0  0  0  0  0  0  0  0  0  0  0  0
   17.8443  -11.4070  -17.5184 C   0  0  2  0  0  0  0  0  0  0  0  0
   18.2832  -12.3090  -18.5735 N   0  0  0  0  0  0  0  0  0  0  0  0
   18.5965  -10.1154  -17.6085 C   0  0  0  0  0  0  0  0  0  0  0  0
   19.8162  -10.1359  -17.8936 O   0  0  0  0  0  0  0  0  0  0  0  0
   17.8890   -8.8958  -17.3641 N   0  0  0  0  0  0  0  0  0  0  0  0
   18.6814   -7.6574  -17.5095 C   0  0  1  0  0  0  0  0  0  0  0  0
   17.6930   -6.6298  -17.9961 C   0  0  0  0  0  0  0  0  0  0  0  0
   17.5565   -6.6525  -19.4714 C   0  0  0  0  0  0  0  0  0  0  0  0
   18.6328   -6.6461  -20.3671 C   0  0  0  0  0  0  0  0  0  0  0  0
   18.1271   -6.6705  -21.5985 N   0  0  0  0  0  0  0  0  0  0  0  0
   16.7850   -6.6927  -21.5451 C   0  0  0  0  0  0  0  0  0  0  0  0
   16.4594   -6.6810  -20.2407 N   0  0  0  0  0  0  0  0  0  0  0  0
   19.2466   -7.3538  -16.1904 C   0  0  0  0  0  0  0  0  0  0  0  0
   18.5936   -7.4148  -15.1079 O   0  0  0  0  0  0  0  0  0  0  0  0
   23.2278  -10.0050  -14.8362 C   0  0  0  0  0  0  0  0  0  0  0  0
   22.0148   -9.0872  -14.8723 C   0  0  0  0  0  0  0  0  0  0  0  0
   22.4096   -7.6650  -14.6131 C   0  0  2  0  0  0  0  0  0  0  0  0
   23.0728   -7.6209  -13.2607 C   0  0  0  0  0  0  0  0  0  0  0  0
   21.2339   -6.7502  -14.7428 C   0  0  2  0  0  0  0  0  0  0  0  0
   20.5869   -6.9670  -16.0545 N   0  0  0  0  0  0  0  0  0  0  0  0
   21.4959   -5.3291  -14.5363 C   0  0  0  0  0  0  0  0  0  0  0  0
   21.4006   -4.6845  -13.3321 O   0  0  0  0  0  0  0  0  0  0  0  0
   21.8433   -4.5813  -15.5181 O   0  0  0  0  0  0  0  0  0  0  0  0
  2  1  1  1
  2  3  1  0
  4  5  1  0
  4  2  1  0
  5  7  1  0
  5  6  1  6
  7  8  2  0
  9 10  1  0
  9  7  1  0
 11 12  1  0
 10 11  1  1
 12 16  1  0
 13 12  2  0
 13 14  1  0
 14 15  1  0
 16 15  2  0
 17 18  2  0
 17 10  1  0
 19 20  1  0
 20 21  1  0
 21 23  1  0
 21 22  1  1
 23 24  1  6
 23 25  1  0
 24 17  1  0
 25 26  1  0
 27 25  2  0
M  END
$$$$
