LHI.pdb
     RDKit          3D

 27 27  0  0  1  0  0  0  0  0999 V2000
   28.6342  -15.9235  -18.5377 C   0  0  0  0  0  0  0  0  0  0  0  0
   28.6547  -17.2943  -17.9075 C   0  0  1  0  0  0  0  0  0  0  0  0
   30.1147  -17.6048  -17.5688 C   0  0  0  0  0  0  0  0  0  0  0  0
   27.8777  -17.3466  -16.6167 C   0  0  0  0  0  0  0  0  0  0  0  0
   27.9970  -18.6763  -15.9105 C   0  0  2  0  0  0  0  0  0  0  0  0
   27.7235  -19.7031  -16.9055 N   0  0  0  0  0  0  0  0  0  0  0  0
   26.9336  -18.6938  -14.8564 C   0  0  0  0  0  0  0  0  0  0  0  0
   26.2656  -17.6557  -14.6437 O   0  0  0  0  0  0  0  0  0  0  0  0
   26.7177  -19.9051  -14.1257 N   0  0  0  0  0  0  0  0  0  0  0  0
   25.5540  -19.9032  -13.2155 C   0  0  1  0  0  0  0  0  0  0  0  0
   24.4218  -20.4482  -14.0467 C   0  0  0  0  0  0  0  0  0  0  0  0
   23.1916  -20.6400  -13.2433 C   0  0  0  0  0  0  0  0  0  0  0  0
   22.3523  -19.6025  -12.8192 C   0  0  0  0  0  0  0  0  0  0  0  0
   21.3574  -20.1524  -12.1260 N   0  0  0  0  0  0  0  0  0  0  0  0
   21.5096  -21.4864  -12.0807 C   0  0  0  0  0  0  0  0  0  0  0  0
   22.6326  -21.7612  -12.7671 N   0  0  0  0  0  0  0  0  0  0  0  0
   25.9053  -20.7495  -12.0701 C   0  0  0  0  0  0  0  0  0  0  0  0
   26.4305  -21.8966  -12.1705 O   0  0  0  0  0  0  0  0  0  0  0  0
   27.5867  -19.0105   -7.0189 C   0  0  0  0  0  0  0  0  0  0  0  0
   26.5965  -19.3753   -8.1150 C   0  0  0  0  0  0  0  0  0  0  0  0
   26.9331  -20.7033   -8.7225 C   0  0  2  0  0  0  0  0  0  0  0  0
   28.2408  -20.5455   -9.4543 C   0  0  0  0  0  0  0  0  0  0  0  0
   25.8134  -21.1994   -9.5805 C   0  0  2  0  0  0  0  0  0  0  0  0
   25.6702  -20.3166  -10.7578 N   0  0  0  0  0  0  0  0  0  0  0  0
   24.5236  -21.3758   -8.9202 C   0  0  0  0  0  0  0  0  0  0  0  0
   23.3733  -20.7182   -9.2654 O   0  0  0  0  0  0  0  0  0  0  0  0
   24.3999  -22.1924   -7.9396 O   0  0  0  0  0  0  0  0  0  0  0  0
  2  1  1  1
  2  3  1  0
  4  5  1  0
  4  2  1  0
  5  7  1  0
  5  6  1  6
  7  8  2  0
  9 10  1  0
  9  7  1  0
 11 12  1  0
 10 11  1  6
 12 16  1  0
 13 12  2  0
 13 14  1  0
 14 15  1  0
 16 15  2  0
 17 18  2  0
 17 10  1  0
 19 20  1  0
 20 21  1  0
 21 23  1  0
 21 22  1  6
 23 24  1  6
 23 25  1  0
 24 17  1  0
 25 26  1  0
 27 25  2  0
M  END
$$$$
