LHI.pdb
     RDKit          3D

 27 27  0  0  1  0  0  0  0  0999 V2000
   28.1883  -16.5821  -17.2158 C   0  0  0  0  0  0  0  0  0  0  0  0
   28.0851  -17.9685  -16.6295 C   0  0  1  0  0  0  0  0  0  0  0  0
   29.5145  -18.4966  -16.4857 C   0  0  0  0  0  0  0  0  0  0  0  0
   27.4706  -17.9676  -15.2529 C   0  0  0  0  0  0  0  0  0  0  0  0
   27.5550  -19.3114  -14.5689 C   0  0  2  0  0  0  0  0  0  0  0  0
   27.0618  -20.2960  -15.5211 N   0  0  0  0  0  0  0  0  0  0  0  0
   26.6385  -19.2441  -13.3866 C   0  0  0  0  0  0  0  0  0  0  0  0
   26.2546  -18.1258  -12.9727 O   0  0  0  0  0  0  0  0  0  0  0  0
   26.2316  -20.4690  -12.7687 N   0  0  0  0  0  0  0  0  0  0  0  0
   25.2569  -20.3354  -11.6666 C   0  0  1  0  0  0  0  0  0  0  0  0
   24.0819  -21.1749  -12.0959 C   0  0  0  0  0  0  0  0  0  0  0  0
   23.2250  -20.4638  -13.0735 C   0  0  0  0  0  0  0  0  0  0  0  0
   22.0476  -19.7805  -12.7456 C   0  0  0  0  0  0  0  0  0  0  0  0
   21.5537  -19.2732  -13.8732 N   0  0  0  0  0  0  0  0  0  0  0  0
   22.3481  -19.5917  -14.9086 C   0  0  0  0  0  0  0  0  0  0  0  0
   23.3591  -20.3168  -14.3989 N   0  0  0  0  0  0  0  0  0  0  0  0
   25.9167  -20.8224  -10.4504 C   0  0  0  0  0  0  0  0  0  0  0  0
   26.6021  -21.8848  -10.3923 O   0  0  0  0  0  0  0  0  0  0  0  0
   28.6548  -18.1118   -6.7462 C   0  0  0  0  0  0  0  0  0  0  0  0
   28.0468  -19.2022   -7.6158 C   0  0  0  0  0  0  0  0  0  0  0  0
   26.7463  -19.6812   -7.0455 C   0  0  2  0  0  0  0  0  0  0  0  0
   27.0189  -20.1612   -5.6434 C   0  0  0  0  0  0  0  0  0  0  0  0
   26.1209  -20.7124   -7.9294 C   0  0  2  0  0  0  0  0  0  0  0  0
   25.8200  -20.1114   -9.2464 N   0  0  0  0  0  0  0  0  0  0  0  0
   24.9399  -21.3868   -7.3990 C   0  0  0  0  0  0  0  0  0  0  0  0
   24.9654  -22.5342   -6.6523 O   0  0  0  0  0  0  0  0  0  0  0  0
   23.7677  -20.9157   -7.6172 O   0  0  0  0  0  0  0  0  0  0  0  0
  2  1  1  1
  2  3  1  0
  4  5  1  0
  4  2  1  0
  5  7  1  0
  5  6  1  6
  7  8  2  0
  9 10  1  0
  9  7  1  0
 11 12  1  0
 10 11  1  6
 12 16  1  0
 13 12  2  0
 13 14  1  0
 14 15  1  0
 16 15  2  0
 17 18  2  0
 17 10  1  0
 19 20  1  0
 20 21  1  0
 21 23  1  0
 21 22  1  1
 23 24  1  6
 23 25  1  0
 24 17  1  0
 25 26  1  0
 27 25  2  0
M  END
$$$$
