LHI.pdb
     RDKit          3D

 27 27  0  0  1  0  0  0  0  0999 V2000
   26.9693  -18.5948  -17.9286 C   0  0  0  0  0  0  0  0  0  0  0  0
   27.3121  -19.5770  -16.8357 C   0  0  1  0  0  0  0  0  0  0  0  0
   28.8071  -19.8791  -16.9641 C   0  0  0  0  0  0  0  0  0  0  0  0
   27.0902  -19.0064  -15.4581 C   0  0  0  0  0  0  0  0  0  0  0  0
   27.5704  -19.9215  -14.3568 C   0  0  2  0  0  0  0  0  0  0  0  0
   27.3911  -21.2836  -14.8383 N   0  0  0  0  0  0  0  0  0  0  0  0
   26.6762  -19.6762  -13.1811 C   0  0  0  0  0  0  0  0  0  0  0  0
   26.5714  -18.5147  -12.7236 O   0  0  0  0  0  0  0  0  0  0  0  0
   25.9685  -20.7858  -12.6194 N   0  0  0  0  0  0  0  0  0  0  0  0
   25.0572  -20.4629  -11.5022 C   0  0  1  0  0  0  0  0  0  0  0  0
   23.8147  -21.2677  -11.7818 C   0  0  0  0  0  0  0  0  0  0  0  0
   22.9339  -20.5967  -12.7664 C   0  0  0  0  0  0  0  0  0  0  0  0
   23.1559  -19.3146  -13.2840 C   0  0  0  0  0  0  0  0  0  0  0  0
   22.1642  -19.0496  -14.1319 N   0  0  0  0  0  0  0  0  0  0  0  0
   21.3164  -20.0900  -14.1890 C   0  0  0  0  0  0  0  0  0  0  0  0
   21.8041  -21.0203  -13.3499 N   0  0  0  0  0  0  0  0  0  0  0  0
   25.7438  -20.8486  -10.2648 C   0  0  0  0  0  0  0  0  0  0  0  0
   26.5547  -21.8162  -10.1756 O   0  0  0  0  0  0  0  0  0  0  0  0
   28.7640  -18.3971   -6.9199 C   0  0  0  0  0  0  0  0  0  0  0  0
   27.9811  -19.4921   -7.6291 C   0  0  0  0  0  0  0  0  0  0  0  0
   26.6567  -19.7207   -6.9661 C   0  0  2  0  0  0  0  0  0  0  0  0
   26.9307  -20.1391   -5.5447 C   0  0  0  0  0  0  0  0  0  0  0  0
   25.8324  -20.7001   -7.7390 C   0  0  2  0  0  0  0  0  0  0  0  0
   25.5308  -20.1406   -9.0740 N   0  0  0  0  0  0  0  0  0  0  0  0
   24.6065  -21.1621   -7.0951 C   0  0  0  0  0  0  0  0  0  0  0  0
   23.3403  -20.8439   -7.5075 O   0  0  0  0  0  0  0  0  0  0  0  0
   24.6589  -21.9228   -6.0645 O   0  0  0  0  0  0  0  0  0  0  0  0
  2  1  1  6
  2  3  1  0
  4  5  1  0
  4  2  1  0
  5  7  1  0
  5  6  1  6
  7  8  2  0
  9 10  1  0
  9  7  1  0
 11 12  1  0
 10 11  1  6
 12 16  1  0
 13 12  2  0
 13 14  1  0
 14 15  1  0
 16 15  2  0
 17 18  2  0
 17 10  1  0
 19 20  1  0
 20 21  1  0
 21 23  1  0
 21 22  1  1
 23 24  1  6
 23 25  1  0
 24 17  1  0
 25 26  1  0
 27 25  2  0
M  END
$$$$
