LHI.pdb
     RDKit          3D

 27 27  0  0  1  0  0  0  0  0999 V2000
   22.0691  -17.6112  -17.8440 C   0  0  0  0  0  0  0  0  0  0  0  0
   21.1853  -18.1287  -16.7361 C   0  0  1  0  0  0  0  0  0  0  0  0
   19.8713  -18.5689  -17.3861 C   0  0  0  0  0  0  0  0  0  0  0  0
   21.7693  -19.3376  -16.0503 C   0  0  0  0  0  0  0  0  0  0  0  0
   22.8882  -19.9780  -16.8369 C   0  0  2  0  0  0  0  0  0  0  0  0
   22.2721  -20.9680  -17.7085 N   0  0  0  0  0  0  0  0  0  0  0  0
   23.7724  -20.6596  -15.8389 C   0  0  0  0  0  0  0  0  0  0  0  0
   23.2900  -21.5499  -15.1013 O   0  0  0  0  0  0  0  0  0  0  0  0
   25.1462  -20.2663  -15.7642 N   0  0  0  0  0  0  0  0  0  0  0  0
   25.9528  -20.9549  -14.7356 C   0  0  1  0  0  0  0  0  0  0  0  0
   27.3500  -20.9728  -15.2989 C   0  0  0  0  0  0  0  0  0  0  0  0
   27.6462  -22.2460  -15.9967 C   0  0  0  0  0  0  0  0  0  0  0  0
   26.7689  -23.3353  -16.0643 C   0  0  0  0  0  0  0  0  0  0  0  0
   27.3739  -24.2916  -16.7660 N   0  0  0  0  0  0  0  0  0  0  0  0
   28.5917  -23.8780  -17.1540 C   0  0  0  0  0  0  0  0  0  0  0  0
   28.7365  -22.6303  -16.6747 N   0  0  0  0  0  0  0  0  0  0  0  0
   25.8251  -20.1759  -13.4994 C   0  0  0  0  0  0  0  0  0  0  0  0
   25.6557  -18.9222  -13.4654 O   0  0  0  0  0  0  0  0  0  0  0  0
   22.7149  -21.4181   -9.2264 C   0  0  0  0  0  0  0  0  0  0  0  0
   24.0821  -21.4327   -9.8938 C   0  0  0  0  0  0  0  0  0  0  0  0
   24.4234  -20.0829  -10.4483 C   0  0  2  0  0  0  0  0  0  0  0  0
   23.3795  -19.7427  -11.4803 C   0  0  0  0  0  0  0  0  0  0  0  0
   25.8244  -20.0566  -10.9705 C   0  0  2  0  0  0  0  0  0  0  0  0
   25.8857  -20.8013  -12.2464 N   0  0  0  0  0  0  0  0  0  0  0  0
   26.8621  -20.5284  -10.0587 C   0  0  0  0  0  0  0  0  0  0  0  0
   27.6881  -21.5934  -10.2999 O   0  0  0  0  0  0  0  0  0  0  0  0
   27.0590  -19.9413   -8.9361 O   0  0  0  0  0  0  0  0  0  0  0  0
  2  1  1  6
  2  3  1  0
  4  5  1  0
  4  2  1  0
  5  7  1  0
  5  6  1  6
  7  8  2  0
  9 10  1  0
  9  7  1  0
 11 12  1  0
 10 11  1  6
 12 16  1  0
 13 12  2  0
 13 14  1  0
 14 15  1  0
 16 15  2  0
 17 18  2  0
 17 10  1  0
 19 20  1  0
 20 21  1  0
 21 23  1  0
 21 22  1  6
 23 24  1  6
 23 25  1  0
 24 17  1  0
 25 26  1  0
 27 25  2  0
M  END
$$$$
