VCG.pdb
     RDKit          3D

 18 17  0  0  1  0  0  0  0  0999 V2000
    5.2788  -21.2103   24.4158 C   0  0  0  0  0  0  0  0  0  0  0  0
    6.2283  -20.1429   23.8719 C   0  0  1  0  0  0  0  0  0  0  0  0
    7.5770  -20.7609   23.6817 C   0  0  0  0  0  0  0  0  0  0  0  0
    5.6406  -19.6158   22.5845 C   0  0  2  0  0  0  0  0  0  0  0  0
    5.4734  -20.6255   21.5883 N   0  0  0  0  0  0  0  0  0  0  0  0
    6.5459  -18.5588   22.0452 C   0  0  0  0  0  0  0  0  0  0  0  0
    7.4809  -18.8185   21.2443 O   0  0  0  0  0  0  0  0  0  0  0  0
    6.3849  -17.1954   22.4210 N   0  0  0  0  0  0  0  0  0  0  0  0
    7.3258  -16.1921   21.9665 C   0  0  1  0  0  0  0  0  0  0  0  0
    6.5857  -14.9483   21.5614 C   0  0  0  0  0  0  0  0  0  0  0  0
    7.6447  -13.5724   21.1580 S   0  0  0  0  0  0  0  0  0  0  0  0
    8.3451  -15.9811   22.9805 C   0  0  0  0  0  0  0  0  0  0  0  0
    8.1322  -15.6993   24.1862 O   0  0  0  0  0  0  0  0  0  0  0  0
    9.7282  -16.0968   22.6080 N   0  0  0  0  0  0  0  0  0  0  0  0
   10.7757  -15.8251   23.5674 C   0  0  0  0  0  0  0  0  0  0  0  0
   12.1252  -16.0416   22.9860 C   0  0  0  0  0  0  0  0  0  0  0  0
   13.2719  -15.7825   23.7065 O   0  0  0  0  0  0  0  0  0  0  0  0
   12.2162  -16.4710   21.8098 O   0  0  0  0  0  0  0  0  0  0  0  0
  2  1  1  6
  2  3  1  0
  4  5  1  6
  4  2  1  0
  6  4  1  0
  7  6  2  0
  8  6  1  0
  9  8  1  0
  9 12  1  0
  9 10  1  1
 11 10  1  0
 12 14  1  0
 13 12  2  0
 14 15  1  0
 15 16  1  0
 16 17  1  0
 18 16  2  0
M  END
$$$$
