VCG.pdb
     RDKit          3D

 18 17  0  0  1  0  0  0  0  0999 V2000
    6.3299  -16.2541   20.2774 C   0  0  0  0  0  0  0  0  0  0  0  0
    7.0379  -16.1000   21.6234 C   0  0  1  0  0  0  0  0  0  0  0  0
    8.2060  -17.0337   21.6540 C   0  0  0  0  0  0  0  0  0  0  0  0
    7.4433  -14.6526   21.7681 C   0  0  2  0  0  0  0  0  0  0  0  0
    8.4139  -14.2418   20.8044 N   0  0  0  0  0  0  0  0  0  0  0  0
    8.0117  -14.4513   23.1334 C   0  0  0  0  0  0  0  0  0  0  0  0
    9.2451  -14.5347   23.3674 O   0  0  0  0  0  0  0  0  0  0  0  0
    7.1688  -14.1526   24.2408 N   0  0  0  0  0  0  0  0  0  0  0  0
    7.7186  -14.0558   25.5775 C   0  0  1  0  0  0  0  0  0  0  0  0
    6.7617  -13.3137   26.4677 C   0  0  0  0  0  0  0  0  0  0  0  0
    6.1832  -11.7717   25.7860 S   0  0  0  0  0  0  0  0  0  0  0  0
    8.0802  -15.3795   26.0556 C   0  0  0  0  0  0  0  0  0  0  0  0
    7.3381  -16.3931   26.0380 O   0  0  0  0  0  0  0  0  0  0  0  0
    9.3930  -15.5844   26.6029 N   0  0  0  0  0  0  0  0  0  0  0  0
    9.7599  -16.8573   27.1831 C   0  0  0  0  0  0  0  0  0  0  0  0
   10.8188  -17.5377   26.3945 C   0  0  0  0  0  0  0  0  0  0  0  0
   11.2489  -17.0400   25.1827 O   0  0  0  0  0  0  0  0  0  0  0  0
   11.3298  -18.5908   26.8485 O   0  0  0  0  0  0  0  0  0  0  0  0
  2  1  1  6
  2  3  1  0
  4  5  1  6
  4  2  1  0
  6  4  1  0
  7  6  2  0
  8  6  1  0
  9  8  1  0
  9 12  1  0
  9 10  1  1
 11 10  1  0
 12 14  1  0
 13 12  2  0
 14 15  1  0
 15 16  1  0
 16 17  1  0
 18 16  2  0
M  END
$$$$
