VCG.pdb
     RDKit          3D

 18 17  0  0  1  0  0  0  0  0999 V2000
    9.4683  -13.8217   20.3524 C   0  0  0  0  0  0  0  0  0  0  0  0
    7.9407  -13.7694   20.3685 C   0  0  1  0  0  0  0  0  0  0  0  0
    7.4531  -13.7271   18.9550 C   0  0  0  0  0  0  0  0  0  0  0  0
    7.4458  -14.9815   21.1209 C   0  0  2  0  0  0  0  0  0  0  0  0
    6.0361  -15.1785   21.0041 N   0  0  0  0  0  0  0  0  0  0  0  0
    7.7866  -14.8179   22.5648 C   0  0  0  0  0  0  0  0  0  0  0  0
    7.4246  -13.8143   23.2318 O   0  0  0  0  0  0  0  0  0  0  0  0
    8.5456  -15.8051   23.2544 N   0  0  0  0  0  0  0  0  0  0  0  0
    8.9139  -15.6118   24.6420 C   0  0  1  0  0  0  0  0  0  0  0  0
    7.8397  -16.1670   25.5345 C   0  0  0  0  0  0  0  0  0  0  0  0
    6.2347  -16.2633   24.7653 S   0  0  0  0  0  0  0  0  0  0  0  0
   10.2369  -16.1642   24.8792 C   0  0  0  0  0  0  0  0  0  0  0  0
   10.5928  -16.8003   25.9025 O   0  0  0  0  0  0  0  0  0  0  0  0
   11.2522  -15.9866   23.8779 N   0  0  0  0  0  0  0  0  0  0  0  0
   12.6360  -16.2904   24.1685 C   0  0  0  0  0  0  0  0  0  0  0  0
   13.5191  -15.9991   23.0104 C   0  0  0  0  0  0  0  0  0  0  0  0
   13.4790  -14.7843   22.3594 O   0  0  0  0  0  0  0  0  0  0  0  0
   14.3187  -16.8850   22.6205 O   0  0  0  0  0  0  0  0  0  0  0  0
  2  1  1  6
  2  3  1  0
  4  5  1  1
  4  2  1  0
  6  4  1  0
  7  6  2  0
  8  6  1  0
  9  8  1  0
  9 12  1  0
  9 10  1  1
 11 10  1  0
 12 14  1  0
 13 12  2  0
 14 15  1  0
 15 16  1  0
 16 17  1  0
 18 16  2  0
M  END
$$$$
