VCG.pdb
     RDKit          3D

 18 17  0  0  1  0  0  0  0  0999 V2000
    6.9865  -14.8597   19.0341 C   0  0  0  0  0  0  0  0  0  0  0  0
    7.5081  -14.7113   20.4633 C   0  0  1  0  0  0  0  0  0  0  0  0
    8.9750  -15.0037   20.4652 C   0  0  0  0  0  0  0  0  0  0  0  0
    7.1916  -13.3092   20.9263 C   0  0  2  0  0  0  0  0  0  0  0  0
    7.7782  -12.2998   20.1036 N   0  0  0  0  0  0  0  0  0  0  0  0
    7.6978  -13.1421   22.3204 C   0  0  0  0  0  0  0  0  0  0  0  0
    8.2910  -12.0995   22.7001 O   0  0  0  0  0  0  0  0  0  0  0  0
    7.5271  -14.1706   23.2895 N   0  0  0  0  0  0  0  0  0  0  0  0
    7.8012  -13.9143   24.6887 C   0  0  1  0  0  0  0  0  0  0  0  0
    7.0432  -12.6976   25.1401 C   0  0  0  0  0  0  0  0  0  0  0  0
    6.9835  -12.4947   26.9100 S   0  0  0  0  0  0  0  0  0  0  0  0
    7.5339  -15.1116   25.4676 C   0  0  0  0  0  0  0  0  0  0  0  0
    6.4090  -15.6493   25.6225 O   0  0  0  0  0  0  0  0  0  0  0  0
    8.6276  -15.7646   26.1327 N   0  0  0  0  0  0  0  0  0  0  0  0
    8.4124  -16.9789   26.8882 C   0  0  0  0  0  0  0  0  0  0  0  0
    9.6697  -17.4750   27.5040 C   0  0  0  0  0  0  0  0  0  0  0  0
    9.6823  -18.5780   28.3313 O   0  0  0  0  0  0  0  0  0  0  0  0
   10.7428  -16.8706   27.2607 O   0  0  0  0  0  0  0  0  0  0  0  0
  2  1  1  6
  2  3  1  0
  4  5  1  6
  4  2  1  0
  6  4  1  0
  7  6  2  0
  8  6  1  0
  9  8  1  0
  9 12  1  0
  9 10  1  1
 11 10  1  0
 12 14  1  0
 13 12  2  0
 14 15  1  0
 15 16  1  0
 16 17  1  0
 18 16  2  0
M  END
$$$$
