VCG.pdb
     RDKit          3D

 18 17  0  0  1  0  0  0  0  0999 V2000
    6.4077  -16.3390   21.5987 C   0  0  0  0  0  0  0  0  0  0  0  0
    7.0778  -15.4593   20.5434 C   0  0  1  0  0  0  0  0  0  0  0  0
    6.2762  -15.5373   19.2829 C   0  0  0  0  0  0  0  0  0  0  0  0
    7.1601  -14.0567   21.0971 C   0  0  2  0  0  0  0  0  0  0  0  0
    7.7365  -13.1242   20.1817 N   0  0  0  0  0  0  0  0  0  0  0  0
    7.9895  -14.0822   22.3377 C   0  0  0  0  0  0  0  0  0  0  0  0
    9.2472  -14.0861   22.3060 O   0  0  0  0  0  0  0  0  0  0  0  0
    7.3814  -14.1036   23.6245 N   0  0  0  0  0  0  0  0  0  0  0  0
    8.1965  -14.1212   24.8220 C   0  0  1  0  0  0  0  0  0  0  0  0
    7.5797  -13.2372   25.8692 C   0  0  0  0  0  0  0  0  0  0  0  0
    5.9028  -13.6713   26.2897 S   0  0  0  0  0  0  0  0  0  0  0  0
    8.4138  -15.4938   25.2466 C   0  0  0  0  0  0  0  0  0  0  0  0
    7.5331  -16.3870   25.3180 O   0  0  0  0  0  0  0  0  0  0  0  0
    9.7388  -15.9011   25.6252 N   0  0  0  0  0  0  0  0  0  0  0  0
   10.0126  -17.2733   25.9907 C   0  0  0  0  0  0  0  0  0  0  0  0
   10.1057  -17.4433   27.4633 C   0  0  0  0  0  0  0  0  0  0  0  0
   10.5797  -18.6090   28.0270 O   0  0  0  0  0  0  0  0  0  0  0  0
    9.7423  -16.4988   28.2062 O   0  0  0  0  0  0  0  0  0  0  0  0
  2  1  1  1
  2  3  1  0
  4  5  1  6
  4  2  1  0
  6  4  1  0
  7  6  2  0
  8  6  1  0
  9  8  1  0
  9 12  1  0
  9 10  1  1
 11 10  1  0
 12 14  1  0
 13 12  2  0
 14 15  1  0
 15 16  1  0
 16 17  1  0
 18 16  2  0
M  END
$$$$
