VCG.pdb
     RDKit          3D

 18 17  0  0  1  0  0  0  0  0999 V2000
   -4.7285  -23.4118   23.6343 C   0  0  0  0  0  0  0  0  0  0  0  0
   -5.1452  -23.6436   25.0867 C   0  0  1  0  0  0  0  0  0  0  0  0
   -5.5902  -25.0643   25.2311 C   0  0  0  0  0  0  0  0  0  0  0  0
   -3.9625  -23.3100   25.9645 C   0  0  2  0  0  0  0  0  0  0  0  0
   -2.7919  -24.0608   25.6392 N   0  0  0  0  0  0  0  0  0  0  0  0
   -4.3291  -23.5892   27.3841 C   0  0  0  0  0  0  0  0  0  0  0  0
   -3.8929  -24.5917   28.0068 O   0  0  0  0  0  0  0  0  0  0  0  0
   -5.1993  -22.7196   28.1001 N   0  0  0  0  0  0  0  0  0  0  0  0
   -5.5546  -23.0049   29.4752 C   0  0  1  0  0  0  0  0  0  0  0  0
   -4.3231  -22.9692   30.3358 C   0  0  0  0  0  0  0  0  0  0  0  0
   -4.6582  -23.0273   32.0856 S   0  0  0  0  0  0  0  0  0  0  0  0
   -6.6134  -22.1068   29.9041 C   0  0  0  0  0  0  0  0  0  0  0  0
   -6.6459  -20.8661   29.7090 O   0  0  0  0  0  0  0  0  0  0  0  0
   -7.7372  -22.6499   30.6163 N   0  0  0  0  0  0  0  0  0  0  0  0
   -8.8334  -21.7990   31.0237 C   0  0  0  0  0  0  0  0  0  0  0  0
   -9.9098  -22.5709   31.6959 C   0  0  0  0  0  0  0  0  0  0  0  0
  -11.1013  -21.9808   32.0609 O   0  0  0  0  0  0  0  0  0  0  0  0
   -9.7230  -23.7893   31.9340 O   0  0  0  0  0  0  0  0  0  0  0  0
  2  1  1  6
  2  3  1  0
  4  5  1  6
  4  2  1  0
  6  4  1  0
  7  6  2  0
  8  6  1  0
  9  8  1  0
  9 12  1  0
  9 10  1  1
 11 10  1  0
 12 14  1  0
 13 12  2  0
 14 15  1  0
 15 16  1  0
 16 17  1  0
 18 16  2  0
M  END
$$$$
