VCG.pdb
     RDKit          3D

 18 17  0  0  1  0  0  0  0  0999 V2000
   11.0724  -20.2042   20.5862 C   0  0  0  0  0  0  0  0  0  0  0  0
   10.2555  -19.6345   19.4266 C   0  0  1  0  0  0  0  0  0  0  0  0
    9.6733  -20.7740   18.6521 C   0  0  0  0  0  0  0  0  0  0  0  0
    9.2003  -18.7248   20.0091 C   0  0  2  0  0  0  0  0  0  0  0  0
    8.3243  -18.1767   19.0232 N   0  0  0  0  0  0  0  0  0  0  0  0
    9.8792  -17.6022   20.7210 C   0  0  0  0  0  0  0  0  0  0  0  0
   10.5874  -16.7544   20.1188 O   0  0  0  0  0  0  0  0  0  0  0  0
    9.7504  -17.4442   22.1297 N   0  0  0  0  0  0  0  0  0  0  0  0
   10.4257  -16.3593   22.8120 C   0  0  1  0  0  0  0  0  0  0  0  0
    9.5641  -15.8502   23.9333 C   0  0  0  0  0  0  0  0  0  0  0  0
   10.3814  -14.6829   25.0042 S   0  0  0  0  0  0  0  0  0  0  0  0
   11.7524  -16.7883   23.2212 C   0  0  0  0  0  0  0  0  0  0  0  0
   12.0063  -17.7270   24.0166 O   0  0  0  0  0  0  0  0  0  0  0  0
   12.8976  -16.1019   22.6898 N   0  0  0  0  0  0  0  0  0  0  0  0
   14.2358  -16.5749   22.9680 C   0  0  0  0  0  0  0  0  0  0  0  0
   14.8371  -15.8743   24.1314 C   0  0  0  0  0  0  0  0  0  0  0  0
   15.6706  -14.7880   23.9683 O   0  0  0  0  0  0  0  0  0  0  0  0
   14.5758  -16.2868   25.2880 O   0  0  0  0  0  0  0  0  0  0  0  0
  2  1  1  1
  2  3  1  0
  4  5  1  6
  4  2  1  0
  6  4  1  0
  7  6  2  0
  8  6  1  0
  9  8  1  0
  9 12  1  0
  9 10  1  1
 11 10  1  0
 12 14  1  0
 13 12  2  0
 14 15  1  0
 15 16  1  0
 16 17  1  0
 18 16  2  0
M  END
$$$$
