VCG.pdb
     RDKit          3D

 18 17  0  0  1  0  0  0  0  0999 V2000
   13.2952  -13.8391   42.2761 C   0  0  0  0  0  0  0  0  0  0  0  0
   12.4753  -14.5049   41.1711 C   0  0  1  0  0  0  0  0  0  0  0  0
   13.2421  -15.6811   40.6554 C   0  0  0  0  0  0  0  0  0  0  0  0
   11.1385  -14.8911   41.7578 C   0  0  2  0  0  0  0  0  0  0  0  0
   10.3401  -15.6744   40.8697 N   0  0  0  0  0  0  0  0  0  0  0  0
   10.3903  -13.6455   42.0990 C   0  0  0  0  0  0  0  0  0  0  0  0
    9.5140  -13.1578   41.3392 O   0  0  0  0  0  0  0  0  0  0  0  0
   10.6421  -12.9500   43.3152 N   0  0  0  0  0  0  0  0  0  0  0  0
    9.8280  -11.8130   43.6933 C   0  0  1  0  0  0  0  0  0  0  0  0
    8.3985  -12.2454   43.8614 C   0  0  0  0  0  0  0  0  0  0  0  0
    8.0524  -13.0134   45.4323 S   0  0  0  0  0  0  0  0  0  0  0  0
   10.4014  -11.1669   44.8618 C   0  0  0  0  0  0  0  0  0  0  0  0
   11.1200  -11.7241   45.7287 O   0  0  0  0  0  0  0  0  0  0  0  0
   10.1455   -9.7693   45.0769 N   0  0  0  0  0  0  0  0  0  0  0  0
   10.6074   -9.1113   46.2791 C   0  0  0  0  0  0  0  0  0  0  0  0
   10.3173   -7.6547   46.2563 C   0  0  0  0  0  0  0  0  0  0  0  0
   10.6885   -6.8282   47.2956 O   0  0  0  0  0  0  0  0  0  0  0  0
    9.7194   -7.1718   45.2636 O   0  0  0  0  0  0  0  0  0  0  0  0
  2  1  1  1
  2  3  1  0
  4  5  1  6
  4  2  1  0
  6  4  1  0
  7  6  2  0
  8  6  1  0
  9  8  1  0
  9 12  1  0
  9 10  1  1
 11 10  1  0
 12 14  1  0
 13 12  2  0
 14 15  1  0
 15 16  1  0
 16 17  1  0
 18 16  2  0
M  END
$$$$
