VCG.pdb
     RDKit          3D

 18 17  0  0  1  0  0  0  0  0999 V2000
    6.3264  -16.8857   22.9450 C   0  0  0  0  0  0  0  0  0  0  0  0
    7.3308  -16.5098   21.8557 C   0  0  1  0  0  0  0  0  0  0  0  0
    6.8449  -17.0605   20.5526 C   0  0  0  0  0  0  0  0  0  0  0  0
    7.4558  -15.0049   21.8433 C   0  0  2  0  0  0  0  0  0  0  0  0
    8.2159  -14.5132   20.7387 N   0  0  0  0  0  0  0  0  0  0  0  0
    8.1180  -14.5714   23.1088 C   0  0  0  0  0  0  0  0  0  0  0  0
    9.3675  -14.5915   23.2551 O   0  0  0  0  0  0  0  0  0  0  0  0
    7.3510  -14.1115   24.2161 N   0  0  0  0  0  0  0  0  0  0  0  0
    8.0062  -13.6604   25.4268 C   0  0  1  0  0  0  0  0  0  0  0  0
    7.1763  -12.5952   26.0866 C   0  0  0  0  0  0  0  0  0  0  0  0
    5.4836  -13.0710   26.3791 S   0  0  0  0  0  0  0  0  0  0  0  0
    8.3054  -14.8009   26.2761 C   0  0  0  0  0  0  0  0  0  0  0  0
    8.9132  -14.7571   27.3748 O   0  0  0  0  0  0  0  0  0  0  0  0
    7.8845  -16.1086   25.8546 N   0  0  0  0  0  0  0  0  0  0  0  0
    7.9958  -17.2422   26.7458 C   0  0  0  0  0  0  0  0  0  0  0  0
    9.3899  -17.7490   26.8214 C   0  0  0  0  0  0  0  0  0  0  0  0
   10.0249  -17.9379   28.0307 O   0  0  0  0  0  0  0  0  0  0  0  0
    9.9983  -18.0096   25.7546 O   0  0  0  0  0  0  0  0  0  0  0  0
  2  1  1  1
  2  3  1  0
  4  5  1  6
  4  2  1  0
  6  4  1  0
  7  6  2  0
  8  6  1  0
  9  8  1  0
  9 12  1  0
  9 10  1  1
 11 10  1  0
 12 14  1  0
 13 12  2  0
 14 15  1  0
 15 16  1  0
 16 17  1  0
 18 16  2  0
M  END
$$$$
