VCG.pdb
     RDKit          3D

 18 17  0  0  1  0  0  0  0  0999 V2000
   16.0567  -23.6723   27.4042 C   0  0  0  0  0  0  0  0  0  0  0  0
   14.7565  -24.0421   26.6905 C   0  0  1  0  0  0  0  0  0  0  0  0
   15.0958  -24.8328   25.4670 C   0  0  0  0  0  0  0  0  0  0  0  0
   13.8988  -24.8135   27.6651 C   0  0  2  0  0  0  0  0  0  0  0  0
   12.6904  -25.3047   27.0836 N   0  0  0  0  0  0  0  0  0  0  0  0
   13.5492  -23.9165   28.8056 C   0  0  0  0  0  0  0  0  0  0  0  0
   12.5827  -23.1124   28.7571 O   0  0  0  0  0  0  0  0  0  0  0  0
   14.3063  -23.9355   30.0108 N   0  0  0  0  0  0  0  0  0  0  0  0
   13.9144  -23.1137   31.1376 C   0  0  1  0  0  0  0  0  0  0  0  0
   12.5651  -23.5473   31.6376 C   0  0  0  0  0  0  0  0  0  0  0  0
   12.0789  -22.7814   33.1718 S   0  0  0  0  0  0  0  0  0  0  0  0
   14.9621  -23.1310   32.1444 C   0  0  0  0  0  0  0  0  0  0  0  0
   15.5120  -24.1591   32.6123 O   0  0  0  0  0  0  0  0  0  0  0  0
   15.4354  -21.8818   32.6741 N   0  0  0  0  0  0  0  0  0  0  0  0
   16.4847  -21.8527   33.6690 C   0  0  0  0  0  0  0  0  0  0  0  0
   16.8539  -20.4627   34.0400 C   0  0  0  0  0  0  0  0  0  0  0  0
   17.8821  -20.1992   34.9202 O   0  0  0  0  0  0  0  0  0  0  0  0
   16.2100  -19.5100   33.5363 O   0  0  0  0  0  0  0  0  0  0  0  0
  2  1  1  1
  2  3  1  0
  4  5  1  6
  4  2  1  0
  6  4  1  0
  7  6  2  0
  8  6  1  0
  9  8  1  0
  9 12  1  0
  9 10  1  1
 11 10  1  0
 12 14  1  0
 13 12  2  0
 14 15  1  0
 15 16  1  0
 16 17  1  0
 18 16  2  0
M  END
$$$$
