VCG.pdb
     RDKit          3D

 18 17  0  0  1  0  0  0  0  0999 V2000
    3.8078  -19.8840   13.8009 C   0  0  0  0  0  0  0  0  0  0  0  0
    4.4752  -19.3763   15.0790 C   0  0  1  0  0  0  0  0  0  0  0  0
    3.4108  -19.1097   16.0956 C   0  0  0  0  0  0  0  0  0  0  0  0
    5.4643  -20.4243   15.5303 C   0  0  2  0  0  0  0  0  0  0  0  0
    4.8559  -21.6836   15.8195 N   0  0  0  0  0  0  0  0  0  0  0  0
    6.1513  -19.9326   16.7607 C   0  0  0  0  0  0  0  0  0  0  0  0
    6.8710  -18.9005   16.7623 O   0  0  0  0  0  0  0  0  0  0  0  0
    6.0176  -20.6218   17.9989 N   0  0  0  0  0  0  0  0  0  0  0  0
    6.7254  -20.1614   19.1760 C   0  0  1  0  0  0  0  0  0  0  0  0
    5.8179  -20.2268   20.3722 C   0  0  0  0  0  0  0  0  0  0  0  0
    4.6181  -18.9106   20.4460 S   0  0  0  0  0  0  0  0  0  0  0  0
    7.9666  -20.9027   19.3226 C   0  0  0  0  0  0  0  0  0  0  0  0
    8.1154  -22.1322   19.1111 O   0  0  0  0  0  0  0  0  0  0  0  0
    9.1476  -20.2011   19.7445 N   0  0  0  0  0  0  0  0  0  0  0  0
   10.4233  -20.8790   19.8134 C   0  0  0  0  0  0  0  0  0  0  0  0
   11.5170  -19.9562   20.2115 C   0  0  0  0  0  0  0  0  0  0  0  0
   12.3949  -20.2724   21.2266 O   0  0  0  0  0  0  0  0  0  0  0  0
   11.6387  -18.8639   19.6047 O   0  0  0  0  0  0  0  0  0  0  0  0
  2  1  1  6
  2  3  1  0
  4  5  1  1
  4  2  1  0
  6  4  1  0
  7  6  2  0
  8  6  1  0
  9  8  1  0
  9 12  1  0
  9 10  1  1
 11 10  1  0
 12 14  1  0
 13 12  2  0
 14 15  1  0
 15 16  1  0
 16 17  1  0
 18 16  2  0
M  END
$$$$
