VCG.pdb
     RDKit          3D

 18 17  0  0  1  0  0  0  0  0999 V2000
    5.1129  -20.7754   23.7944 C   0  0  0  0  0  0  0  0  0  0  0  0
    6.2232  -19.7783   24.1257 C   0  0  1  0  0  0  0  0  0  0  0  0
    7.5389  -20.4047   23.7883 C   0  0  0  0  0  0  0  0  0  0  0  0
    5.9588  -18.5161   23.3399 C   0  0  2  0  0  0  0  0  0  0  0  0
    5.9700  -18.7213   21.9266 N   0  0  0  0  0  0  0  0  0  0  0  0
    7.0079  -17.5118   23.6845 C   0  0  0  0  0  0  0  0  0  0  0  0
    8.0316  -17.3379   22.9741 O   0  0  0  0  0  0  0  0  0  0  0  0
    6.8899  -16.6994   24.8473 N   0  0  0  0  0  0  0  0  0  0  0  0
    7.9878  -15.8522   25.2660 C   0  0  1  0  0  0  0  0  0  0  0  0
    7.4653  -14.4961   25.6491 C   0  0  0  0  0  0  0  0  0  0  0  0
    5.7227  -14.2771   25.3449 S   0  0  0  0  0  0  0  0  0  0  0  0
    8.7507  -16.5182   26.3081 C   0  0  0  0  0  0  0  0  0  0  0  0
    8.3914  -16.6583   27.5038 O   0  0  0  0  0  0  0  0  0  0  0  0
   10.0327  -17.0777   25.9787 N   0  0  0  0  0  0  0  0  0  0  0  0
   10.8162  -17.7667   26.9803 C   0  0  0  0  0  0  0  0  0  0  0  0
   11.9953  -18.4469   26.3858 C   0  0  0  0  0  0  0  0  0  0  0  0
   12.9244  -19.0978   27.1695 O   0  0  0  0  0  0  0  0  0  0  0  0
   12.1428  -18.4244   25.1393 O   0  0  0  0  0  0  0  0  0  0  0  0
  2  1  1  6
  2  3  1  0
  4  5  1  6
  4  2  1  0
  6  4  1  0
  7  6  2  0
  8  6  1  0
  9  8  1  0
  9 12  1  0
  9 10  1  1
 11 10  1  0
 12 14  1  0
 13 12  2  0
 14 15  1  0
 15 16  1  0
 16 17  1  0
 18 16  2  0
M  END
$$$$
