VCG.pdb
     RDKit          3D

 18 17  0  0  1  0  0  0  0  0999 V2000
    7.3801  -18.8510   19.0235 C   0  0  0  0  0  0  0  0  0  0  0  0
    8.0264  -18.7766   17.6403 C   0  0  1  0  0  0  0  0  0  0  0  0
    7.3508  -19.7686   16.7475 C   0  0  0  0  0  0  0  0  0  0  0  0
    7.8909  -17.3569   17.1437 C   0  0  2  0  0  0  0  0  0  0  0  0
    8.4100  -17.1704   15.8263 N   0  0  0  0  0  0  0  0  0  0  0  0
    8.6247  -16.4534   18.0780 C   0  0  0  0  0  0  0  0  0  0  0  0
    9.8785  -16.4670   18.1809 O   0  0  0  0  0  0  0  0  0  0  0  0
    7.9247  -15.5270   18.9014 N   0  0  0  0  0  0  0  0  0  0  0  0
    8.6432  -14.6903   19.8407 C   0  0  1  0  0  0  0  0  0  0  0  0
    7.8524  -13.4426   20.1174 C   0  0  0  0  0  0  0  0  0  0  0  0
    7.4630  -12.4920   18.6608 S   0  0  0  0  0  0  0  0  0  0  0  0
    8.9816  -15.4619   21.0247 C   0  0  0  0  0  0  0  0  0  0  0  0
    8.1704  -16.1033   21.7382 O   0  0  0  0  0  0  0  0  0  0  0  0
   10.3542  -15.5190   21.4462 N   0  0  0  0  0  0  0  0  0  0  0  0
   10.7219  -16.1914   22.6727 C   0  0  0  0  0  0  0  0  0  0  0  0
   12.1701  -16.0453   22.9686 C   0  0  0  0  0  0  0  0  0  0  0  0
   12.7016  -16.4297   24.1813 O   0  0  0  0  0  0  0  0  0  0  0  0
   12.9220  -15.5592   22.0885 O   0  0  0  0  0  0  0  0  0  0  0  0
  2  1  1  1
  2  3  1  0
  4  5  1  6
  4  2  1  0
  6  4  1  0
  7  6  2  0
  8  6  1  0
  9  8  1  0
  9 12  1  0
  9 10  1  1
 11 10  1  0
 12 14  1  0
 13 12  2  0
 14 15  1  0
 15 16  1  0
 16 17  1  0
 18 16  2  0
M  END
$$$$
