VCG.pdb
     RDKit          3D

 18 17  0  0  1  0  0  0  0  0999 V2000
    7.1841  -21.0041   24.4163 C   0  0  0  0  0  0  0  0  0  0  0  0
    7.5474  -19.5603   24.0696 C   0  0  1  0  0  0  0  0  0  0  0  0
    8.3472  -19.5633   22.8056 C   0  0  0  0  0  0  0  0  0  0  0  0
    6.2615  -18.7784   23.9452 C   0  0  2  0  0  0  0  0  0  0  0  0
    5.3717  -19.3127   22.9641 N   0  0  0  0  0  0  0  0  0  0  0  0
    6.5934  -17.3717   23.5727 C   0  0  0  0  0  0  0  0  0  0  0  0
    6.4916  -16.9465   22.3929 O   0  0  0  0  0  0  0  0  0  0  0  0
    7.0446  -16.4421   24.5516 N   0  0  0  0  0  0  0  0  0  0  0  0
    7.3944  -15.0883   24.1730 C   0  0  1  0  0  0  0  0  0  0  0  0
    6.5170  -14.1132   24.9064 C   0  0  0  0  0  0  0  0  0  0  0  0
    6.3203  -14.4756   26.6405 S   0  0  0  0  0  0  0  0  0  0  0  0
    8.8191  -14.8779   24.3668 C   0  0  0  0  0  0  0  0  0  0  0  0
    9.4369  -13.8047   24.1551 O   0  0  0  0  0  0  0  0  0  0  0  0
    9.6232  -15.9705   24.8410 N   0  0  0  0  0  0  0  0  0  0  0  0
   11.0400  -15.7970   25.0733 C   0  0  0  0  0  0  0  0  0  0  0  0
   11.8538  -16.3795   23.9757 C   0  0  0  0  0  0  0  0  0  0  0  0
   13.2320  -16.3461   24.0027 O   0  0  0  0  0  0  0  0  0  0  0  0
   11.2658  -16.9134   23.0035 O   0  0  0  0  0  0  0  0  0  0  0  0
  2  1  1  6
  2  3  1  0
  4  5  1  6
  4  2  1  0
  6  4  1  0
  7  6  2  0
  8  6  1  0
  9  8  1  0
  9 12  1  0
  9 10  1  1
 11 10  1  0
 12 14  1  0
 13 12  2  0
 14 15  1  0
 15 16  1  0
 16 17  1  0
 18 16  2  0
M  END
$$$$
