VCG.pdb
     RDKit          3D

 18 17  0  0  1  0  0  0  0  0999 V2000
    7.1573  -16.7846   23.1887 C   0  0  0  0  0  0  0  0  0  0  0  0
    7.7050  -16.0487   21.9659 C   0  0  1  0  0  0  0  0  0  0  0  0
    7.2093  -16.7399   20.7355 C   0  0  0  0  0  0  0  0  0  0  0  0
    7.2507  -14.6111   22.0513 C   0  0  2  0  0  0  0  0  0  0  0  0
    7.5416  -13.8589   20.8726 N   0  0  0  0  0  0  0  0  0  0  0  0
    7.9326  -13.9640   23.2106 C   0  0  0  0  0  0  0  0  0  0  0  0
    9.1470  -13.6366   23.1795 O   0  0  0  0  0  0  0  0  0  0  0  0
    7.2256  -13.6876   24.4147 N   0  0  0  0  0  0  0  0  0  0  0  0
    7.8732  -12.9815   25.5013 C   0  0  1  0  0  0  0  0  0  0  0  0
    6.8941  -12.0469   26.1545 C   0  0  0  0  0  0  0  0  0  0  0  0
    5.4773  -12.8613   26.8663 S   0  0  0  0  0  0  0  0  0  0  0  0
    8.4890  -13.9359   26.4077 C   0  0  0  0  0  0  0  0  0  0  0  0
    9.1385  -13.6484   27.4440 O   0  0  0  0  0  0  0  0  0  0  0  0
    8.3647  -15.3395   26.1259 N   0  0  0  0  0  0  0  0  0  0  0  0
    8.8617  -16.3261   27.0593 C   0  0  0  0  0  0  0  0  0  0  0  0
   10.1955  -16.8417   26.6580 C   0  0  0  0  0  0  0  0  0  0  0  0
   10.8440  -17.8139   27.3899 O   0  0  0  0  0  0  0  0  0  0  0  0
   10.7394  -16.3766   25.6265 O   0  0  0  0  0  0  0  0  0  0  0  0
  2  1  1  1
  2  3  1  0
  4  5  1  6
  4  2  1  0
  6  4  1  0
  7  6  2  0
  8  6  1  0
  9  8  1  0
  9 12  1  0
  9 10  1  1
 11 10  1  0
 12 14  1  0
 13 12  2  0
 14 15  1  0
 15 16  1  0
 16 17  1  0
 18 16  2  0
M  END
$$$$
