ICH.pdb
     RDKit          3D

 25 25  0  0  1  0  0  0  0  0999 V2000
   18.5518  -27.5667   -9.9778 C   0  0  0  0  0  0  0  0  0  0  0  0
   18.0116  -26.2840   -9.3834 C   0  0  0  0  0  0  0  0  0  0  0  0
   18.1636  -26.3907   -7.8847 C   0  0  2  0  0  0  0  0  0  0  0  0
   17.2945  -27.5494   -7.4238 C   0  0  0  0  0  0  0  0  0  0  0  0
   17.6753  -25.1523   -7.1724 C   0  0  2  0  0  0  0  0  0  0  0  0
   18.4187  -23.9997   -7.6152 N   0  0  0  0  0  0  0  0  0  0  0  0
   17.8937  -25.3980   -5.7029 C   0  0  0  0  0  0  0  0  0  0  0  0
   19.0527  -25.4741   -5.2289 O   0  0  0  0  0  0  0  0  0  0  0  0
   16.8006  -25.5506   -4.8110 N   0  0  0  0  0  0  0  0  0  0  0  0
   16.9545  -25.7699   -3.3860 C   0  0  1  0  0  0  0  0  0  0  0  0
   15.7107  -25.2907   -2.6592 C   0  0  0  0  0  0  0  0  0  0  0  0
   15.6502  -23.4976   -2.5881 S   0  0  0  0  0  0  0  0  0  0  0  0
   17.2563  -27.1743   -3.0651 C   0  0  0  0  0  0  0  0  0  0  0  0
   16.4723  -28.0709   -3.4653 O   0  0  0  0  0  0  0  0  0  0  0  0
   18.3960  -27.5817   -2.3202 N   0  0  0  0  0  0  0  0  0  0  0  0
   18.6661  -29.0082   -2.0573 C   0  0  1  0  0  0  0  0  0  0  0  0
   20.1618  -29.1962   -2.1687 C   0  0  0  0  0  0  0  0  0  0  0  0
   20.5966  -30.5881   -1.9324 C   0  0  0  0  0  0  0  0  0  0  0  0
   19.8277  -31.7304   -1.9078 C   0  0  0  0  0  0  0  0  0  0  0  0
   20.6199  -32.8032   -1.6459 N   0  0  0  0  0  0  0  0  0  0  0  0
   21.8652  -32.3309   -1.5097 C   0  0  0  0  0  0  0  0  0  0  0  0
   21.8727  -30.9965   -1.6789 N   0  0  0  0  0  0  0  0  0  0  0  0
   18.1808  -29.3978   -0.7269 C   0  0  0  0  0  0  0  0  0  0  0  0
   18.0814  -28.5349    0.1721 O   0  0  0  0  0  0  0  0  0  0  0  0
   17.8398  -30.7090   -0.4849 O   0  0  0  0  0  0  0  0  0  0  0  0
  2  1  1  0
  2  3  1  0
  3  5  1  0
  3  4  1  1
  5  6  1  6
  5  7  1  0
  7  8  2  0
  9  7  1  0
  9 10  1  0
 10 11  1  1
 12 11  1  0
 13 14  2  0
 13 10  1  0
 15 13  1  0
 16 15  1  0
 16 17  1  1
 18 22  1  0
 18 17  1  0
 19 18  2  0
 20 19  1  0
 20 21  1  0
 21 22  2  0
 23 16  1  0
 24 23  2  0
 25 23  1  0
M  END
$$$$
