ICH.pdb
     RDKit          3D

 25 25  0  0  1  0  0  0  0  0999 V2000
   17.6964  -14.5711  -19.3359 C   0  0  0  0  0  0  0  0  0  0  0  0
   19.1177  -14.8402  -18.8908 C   0  0  0  0  0  0  0  0  0  0  0  0
   19.4983  -13.7385  -17.9307 C   0  0  2  0  0  0  0  0  0  0  0  0
   19.4743  -12.4329  -18.7087 C   0  0  0  0  0  0  0  0  0  0  0  0
   20.8967  -13.9123  -17.3888 C   0  0  2  0  0  0  0  0  0  0  0  0
   21.0196  -15.1903  -16.7341 N   0  0  0  0  0  0  0  0  0  0  0  0
   21.1125  -12.7872  -16.4115 C   0  0  0  0  0  0  0  0  0  0  0  0
   20.3870  -12.6704  -15.3949 O   0  0  0  0  0  0  0  0  0  0  0  0
   22.1389  -11.8272  -16.6082 N   0  0  0  0  0  0  0  0  0  0  0  0
   22.3327  -10.6750  -15.7497 C   0  0  1  0  0  0  0  0  0  0  0  0
   23.8144  -10.3612  -15.6443 C   0  0  0  0  0  0  0  0  0  0  0  0
   24.6762  -11.6098  -14.6841 S   0  0  0  0  0  0  0  0  0  0  0  0
   21.5667   -9.5031  -16.2040 C   0  0  0  0  0  0  0  0  0  0  0  0
   21.5508   -9.2256  -17.4293 O   0  0  0  0  0  0  0  0  0  0  0  0
   20.8347   -8.6563  -15.3284 N   0  0  0  0  0  0  0  0  0  0  0  0
   20.0627   -7.5095  -15.8439 C   0  0  1  0  0  0  0  0  0  0  0  0
   18.6393   -7.6942  -15.3700 C   0  0  0  0  0  0  0  0  0  0  0  0
   17.9571   -8.8439  -15.9984 C   0  0  0  0  0  0  0  0  0  0  0  0
   17.6244  -10.0539  -15.4309 C   0  0  0  0  0  0  0  0  0  0  0  0
   17.0150  -10.8367  -16.3598 N   0  0  0  0  0  0  0  0  0  0  0  0
   16.9707  -10.1200  -17.4897 C   0  0  0  0  0  0  0  0  0  0  0  0
   17.5340   -8.9145  -17.2929 N   0  0  0  0  0  0  0  0  0  0  0  0
   20.6218   -6.2403  -15.3600 C   0  0  0  0  0  0  0  0  0  0  0  0
   21.6031   -6.2522  -14.5858 O   0  0  0  0  0  0  0  0  0  0  0  0
   20.0594   -5.0515  -15.7654 O   0  0  0  0  0  0  0  0  0  0  0  0
  2  1  1  0
  2  3  1  0
  3  5  1  0
  3  4  1  6
  5  6  1  1
  5  7  1  0
  7  8  2  0
  9  7  1  0
  9 10  1  0
 10 11  1  6
 12 11  1  0
 13 14  2  0
 13 10  1  0
 15 13  1  0
 16 15  1  0
 16 17  1  1
 18 22  1  0
 18 17  1  0
 19 18  2  0
 20 19  1  0
 20 21  1  0
 21 22  2  0
 23 16  1  0
 24 23  2  0
 25 23  1  0
M  END
$$$$
