ICH.pdb
     RDKit          3D

 25 25  0  0  1  0  0  0  0  0999 V2000
   19.1501  -16.6791  -17.4079 C   0  0  0  0  0  0  0  0  0  0  0  0
   18.4633  -15.3741  -17.7480 C   0  0  0  0  0  0  0  0  0  0  0  0
   19.2643  -14.2692  -17.1014 C   0  0  2  0  0  0  0  0  0  0  0  0
   19.2160  -14.4957  -15.5992 C   0  0  0  0  0  0  0  0  0  0  0  0
   18.6742  -12.9055  -17.3689 C   0  0  2  0  0  0  0  0  0  0  0  0
   18.6203  -12.6579  -18.7876 N   0  0  0  0  0  0  0  0  0  0  0  0
   19.5789  -11.9139  -16.6864 C   0  0  0  0  0  0  0  0  0  0  0  0
   19.8399  -12.0169  -15.4637 O   0  0  0  0  0  0  0  0  0  0  0  0
   20.1628  -10.8359  -17.4011 N   0  0  0  0  0  0  0  0  0  0  0  0
   20.9660   -9.8029  -16.7767 C   0  0  1  0  0  0  0  0  0  0  0  0
   21.8674   -9.1602  -17.8156 C   0  0  0  0  0  0  0  0  0  0  0  0
   22.8489   -7.8398  -17.0965 S   0  0  0  0  0  0  0  0  0  0  0  0
   20.1445   -8.7977  -16.0829 C   0  0  0  0  0  0  0  0  0  0  0  0
   19.0715   -8.4180  -16.6150 O   0  0  0  0  0  0  0  0  0  0  0  0
   20.4971   -8.2240  -14.8315 N   0  0  0  0  0  0  0  0  0  0  0  0
   19.6447   -7.2033  -14.1924 C   0  0  1  0  0  0  0  0  0  0  0  0
   19.5742   -7.5521  -12.7233 C   0  0  0  0  0  0  0  0  0  0  0  0
   18.5803   -8.6014  -12.4173 C   0  0  0  0  0  0  0  0  0  0  0  0
   17.7653   -9.2865  -13.2908 C   0  0  0  0  0  0  0  0  0  0  0  0
   16.9905  -10.1602  -12.5956 N   0  0  0  0  0  0  0  0  0  0  0  0
   17.3216  -10.0180  -11.3063 C   0  0  0  0  0  0  0  0  0  0  0  0
   18.2792   -9.0822  -11.1772 N   0  0  0  0  0  0  0  0  0  0  0  0
   20.1984   -5.8575  -14.3914 C   0  0  0  0  0  0  0  0  0  0  0  0
   21.3397   -5.7252  -14.8841 O   0  0  0  0  0  0  0  0  0  0  0  0
   19.4540   -4.7566  -14.0340 O   0  0  0  0  0  0  0  0  0  0  0  0
  2  1  1  0
  2  3  1  0
  3  5  1  0
  3  4  1  1
  5  6  1  6
  5  7  1  0
  7  8  2  0
  9  7  1  0
  9 10  1  0
 10 11  1  6
 12 11  1  0
 13 14  2  0
 13 10  1  0
 15 13  1  0
 16 15  1  0
 16 17  1  1
 18 22  1  0
 18 17  1  0
 19 18  2  0
 20 19  1  0
 20 21  1  0
 21 22  2  0
 23 16  1  0
 24 23  2  0
 25 23  1  0
M  END
$$$$
