ICH.pdb
     RDKit          3D

 25 25  0  0  1  0  0  0  0  0999 V2000
   13.6689  -13.8619  -12.3192 C   0  0  0  0  0  0  0  0  0  0  0  0
   13.8975  -13.4648  -10.8768 C   0  0  0  0  0  0  0  0  0  0  0  0
   13.9792  -11.9574  -10.8390 C   0  0  2  0  0  0  0  0  0  0  0  0
   15.2567  -11.5559  -11.5582 C   0  0  0  0  0  0  0  0  0  0  0  0
   14.0724  -11.4265   -9.4287 C   0  0  2  0  0  0  0  0  0  0  0  0
   12.9354  -11.8630   -8.6582 N   0  0  0  0  0  0  0  0  0  0  0  0
   14.0963   -9.9254   -9.5444 C   0  0  0  0  0  0  0  0  0  0  0  0
   13.0558   -9.2495   -9.3591 O   0  0  0  0  0  0  0  0  0  0  0  0
   15.2909   -9.2300   -9.8654 N   0  0  0  0  0  0  0  0  0  0  0  0
   15.3846   -7.7843   -9.9249 C   0  0  1  0  0  0  0  0  0  0  0  0
   15.0166   -7.1937   -8.5756 C   0  0  0  0  0  0  0  0  0  0  0  0
   15.5572   -5.4865   -8.4446 S   0  0  0  0  0  0  0  0  0  0  0  0
   16.7119   -7.3271  -10.3673 C   0  0  0  0  0  0  0  0  0  0  0  0
   17.7061   -7.5448   -9.6305 O   0  0  0  0  0  0  0  0  0  0  0  0
   16.9387   -6.6455  -11.5935 N   0  0  0  0  0  0  0  0  0  0  0  0
   18.2793   -6.1437  -11.9513 C   0  0  1  0  0  0  0  0  0  0  0  0
   18.7955   -7.0322  -13.0599 C   0  0  0  0  0  0  0  0  0  0  0  0
   20.1108   -6.6106  -13.5841 C   0  0  0  0  0  0  0  0  0  0  0  0
   20.8567   -5.5076  -13.2322 C   0  0  0  0  0  0  0  0  0  0  0  0
   22.0024   -5.4848  -13.9627 N   0  0  0  0  0  0  0  0  0  0  0  0
   21.9668   -6.5611  -14.7580 C   0  0  0  0  0  0  0  0  0  0  0  0
   20.8335   -7.2538  -14.5451 N   0  0  0  0  0  0  0  0  0  0  0  0
   18.2169   -4.7409  -12.3822 C   0  0  0  0  0  0  0  0  0  0  0  0
   17.1432   -4.2767  -12.8231 O   0  0  0  0  0  0  0  0  0  0  0  0
   19.3414   -3.9524  -12.2948 O   0  0  0  0  0  0  0  0  0  0  0  0
  2  1  1  0
  2  3  1  0
  3  5  1  0
  3  4  1  6
  5  6  1  1
  5  7  1  0
  7  8  2  0
  9  7  1  0
  9 10  1  0
 10 11  1  1
 12 11  1  0
 13 14  2  0
 13 10  1  0
 15 13  1  0
 16 15  1  0
 16 17  1  6
 18 22  1  0
 18 17  1  0
 19 18  2  0
 20 19  1  0
 20 21  1  0
 21 22  2  0
 23 16  1  0
 24 23  2  0
 25 23  1  0
M  END
$$$$
