ICH.pdb
     RDKit          3D

 25 25  0  0  1  0  0  0  0  0999 V2000
   25.3095  -22.3037  -16.6031 C   0  0  0  0  0  0  0  0  0  0  0  0
   26.7025  -21.8162  -16.9382 C   0  0  0  0  0  0  0  0  0  0  0  0
   27.4912  -23.0150  -17.4084 C   0  0  2  0  0  0  0  0  0  0  0  0
   27.6176  -23.9641  -16.2279 C   0  0  0  0  0  0  0  0  0  0  0  0
   28.8903  -22.6443  -17.8380 C   0  0  2  0  0  0  0  0  0  0  0  0
   28.8415  -21.7223  -18.9446 N   0  0  0  0  0  0  0  0  0  0  0  0
   29.5615  -23.9303  -18.2418 C   0  0  0  0  0  0  0  0  0  0  0  0
   29.1133  -24.6199  -19.1890 O   0  0  0  0  0  0  0  0  0  0  0  0
   30.7175  -24.4015  -17.5670 N   0  0  0  0  0  0  0  0  0  0  0  0
   31.4222  -25.6136  -17.9366 C   0  0  1  0  0  0  0  0  0  0  0  0
   32.9144  -25.4162  -17.7391 C   0  0  0  0  0  0  0  0  0  0  0  0
   33.8276  -26.9046  -18.1569 S   0  0  0  0  0  0  0  0  0  0  0  0
   30.9343  -26.7913  -17.2008 C   0  0  0  0  0  0  0  0  0  0  0  0
   30.4323  -26.6300  -16.0604 O   0  0  0  0  0  0  0  0  0  0  0  0
   30.9981  -28.1166  -17.7098 N   0  0  0  0  0  0  0  0  0  0  0  0
   30.4194  -29.2499  -16.9629 C   0  0  1  0  0  0  0  0  0  0  0  0
   28.9480  -28.9508  -16.7883 C   0  0  0  0  0  0  0  0  0  0  0  0
   28.1809  -30.0861  -16.2363 C   0  0  0  0  0  0  0  0  0  0  0  0
   28.6481  -31.3180  -15.8354 C   0  0  0  0  0  0  0  0  0  0  0  0
   27.6080  -32.0757  -15.3981 N   0  0  0  0  0  0  0  0  0  0  0  0
   26.5092  -31.3219  -15.5266 C   0  0  0  0  0  0  0  0  0  0  0  0
   26.8332  -30.1176  -16.0307 N   0  0  0  0  0  0  0  0  0  0  0  0
   30.6213  -30.5126  -17.6855 C   0  0  0  0  0  0  0  0  0  0  0  0
   30.1735  -31.5772  -17.2069 O   0  0  0  0  0  0  0  0  0  0  0  0
   31.3005  -30.5098  -18.8823 O   0  0  0  0  0  0  0  0  0  0  0  0
  2  1  1  0
  2  3  1  0
  3  5  1  0
  3  4  1  1
  5  6  1  6
  5  7  1  0
  7  8  2  0
  9  7  1  0
  9 10  1  0
 10 11  1  1
 12 11  1  0
 13 14  2  0
 13 10  1  0
 15 13  1  0
 16 15  1  0
 16 17  1  6
 18 22  1  0
 18 17  1  0
 19 18  2  0
 20 19  1  0
 20 21  1  0
 21 22  2  0
 23 16  1  0
 24 23  2  0
 25 23  1  0
M  END
$$$$
