ICH.pdb
     RDKit          3D

 25 25  0  0  1  0  0  0  0  0999 V2000
   27.9988  -17.5756  -17.3525 C   0  0  0  0  0  0  0  0  0  0  0  0
   28.6118  -18.6374  -16.4652 C   0  0  0  0  0  0  0  0  0  0  0  0
   27.4908  -19.2346  -15.6483 C   0  0  2  0  0  0  0  0  0  0  0  0
   26.9633  -18.1392  -14.7361 C   0  0  0  0  0  0  0  0  0  0  0  0
   27.9671  -20.3630  -14.7656 C   0  0  2  0  0  0  0  0  0  0  0  0
   28.4697  -21.4460  -15.5728 N   0  0  0  0  0  0  0  0  0  0  0  0
   26.7714  -20.8035  -13.9632 C   0  0  0  0  0  0  0  0  0  0  0  0
   25.7855  -21.3421  -14.5213 O   0  0  0  0  0  0  0  0  0  0  0  0
   26.7216  -20.6244  -12.5564 N   0  0  0  0  0  0  0  0  0  0  0  0
   25.5599  -20.9428  -11.7493 C   0  0  1  0  0  0  0  0  0  0  0  0
   25.8577  -20.6507  -10.2896 C   0  0  0  0  0  0  0  0  0  0  0  0
   24.4052  -20.9086   -9.2660 S   0  0  0  0  0  0  0  0  0  0  0  0
   24.3519  -20.2348  -12.2031 C   0  0  0  0  0  0  0  0  0  0  0  0
   24.3979  -18.9879  -12.3503 O   0  0  0  0  0  0  0  0  0  0  0  0
   23.1212  -20.8858  -12.4882 N   0  0  0  0  0  0  0  0  0  0  0  0
   21.9528  -20.1291  -12.9772 C   0  0  1  0  0  0  0  0  0  0  0  0
   22.1645  -19.9094  -14.4577 C   0  0  0  0  0  0  0  0  0  0  0  0
   21.0442  -19.2022  -15.1111 C   0  0  0  0  0  0  0  0  0  0  0  0
   19.8996  -18.6985  -14.5341 C   0  0  0  0  0  0  0  0  0  0  0  0
   19.1218  -18.1308  -15.4932 N   0  0  0  0  0  0  0  0  0  0  0  0
   19.7769  -18.2811  -16.6509 C   0  0  0  0  0  0  0  0  0  0  0  0
   20.9392  -18.9252  -16.4422 N   0  0  0  0  0  0  0  0  0  0  0  0
   20.7072  -20.8650  -12.7235 C   0  0  0  0  0  0  0  0  0  0  0  0
   19.6119  -20.3569  -13.0475 O   0  0  0  0  0  0  0  0  0  0  0  0
   20.7597  -22.1069  -12.1327 O   0  0  0  0  0  0  0  0  0  0  0  0
  2  1  1  0
  2  3  1  0
  3  5  1  0
  3  4  1  1
  5  6  1  6
  5  7  1  0
  7  8  2  0
  9  7  1  0
  9 10  1  0
 10 11  1  1
 12 11  1  0
 13 14  2  0
 13 10  1  0
 15 13  1  0
 16 15  1  0
 16 17  1  6
 18 22  1  0
 18 17  1  0
 19 18  2  0
 20 19  1  0
 20 21  1  0
 21 22  2  0
 23 16  1  0
 24 23  2  0
 25 23  1  0
M  END
$$$$
