ICH.pdb
     RDKit          3D

 25 25  0  0  1  0  0  0  0  0999 V2000
   26.2503  -13.3763  -15.5513 C   0  0  0  0  0  0  0  0  0  0  0  0
   26.7109  -12.5203  -16.7114 C   0  0  0  0  0  0  0  0  0  0  0  0
   28.2140  -12.6450  -16.7857 C   0  0  2  0  0  0  0  0  0  0  0  0
   28.7841  -11.9873  -15.5396 C   0  0  0  0  0  0  0  0  0  0  0  0
   28.7881  -11.9194  -17.9787 C   0  0  2  0  0  0  0  0  0  0  0  0
   30.2219  -12.0625  -18.0035 N   0  0  0  0  0  0  0  0  0  0  0  0
   28.3971  -10.4738  -17.8206 C   0  0  0  0  0  0  0  0  0  0  0  0
   29.0452   -9.7114  -17.0641 O   0  0  0  0  0  0  0  0  0  0  0  0
   27.2879   -9.9300  -18.5190 N   0  0  0  0  0  0  0  0  0  0  0  0
   26.9778   -8.5139  -18.5508 C   0  0  1  0  0  0  0  0  0  0  0  0
   27.5258   -7.9006  -19.8268 C   0  0  0  0  0  0  0  0  0  0  0  0
   29.3191   -7.8185  -19.7902 S   0  0  0  0  0  0  0  0  0  0  0  0
   25.5365   -8.2531  -18.4055 C   0  0  0  0  0  0  0  0  0  0  0  0
   24.7210   -8.9991  -19.0029 O   0  0  0  0  0  0  0  0  0  0  0  0
   25.0059   -7.1944  -17.6199 N   0  0  0  0  0  0  0  0  0  0  0  0
   23.5500   -7.0263  -17.4490 C   0  0  1  0  0  0  0  0  0  0  0  0
   23.2937   -6.9332  -15.9622 C   0  0  0  0  0  0  0  0  0  0  0  0
   22.7879   -8.1909  -15.3751 C   0  0  0  0  0  0  0  0  0  0  0  0
   22.4870   -9.3722  -16.0160 C   0  0  0  0  0  0  0  0  0  0  0  0
   22.0400  -10.2786  -15.1074 N   0  0  0  0  0  0  0  0  0  0  0  0
   22.0637   -9.6659  -13.9173 C   0  0  0  0  0  0  0  0  0  0  0  0
   22.5119   -8.4054  -14.0570 N   0  0  0  0  0  0  0  0  0  0  0  0
   23.0753   -5.8229  -18.1448 C   0  0  0  0  0  0  0  0  0  0  0  0
   23.9002   -5.0579  -18.6897 O   0  0  0  0  0  0  0  0  0  0  0  0
   21.7270   -5.5514  -18.1899 O   0  0  0  0  0  0  0  0  0  0  0  0
  2  1  1  0
  2  3  1  0
  3  5  1  0
  3  4  1  1
  5  6  1  1
  5  7  1  0
  7  8  2  0
  9  7  1  0
  9 10  1  0
 10 11  1  6
 12 11  1  0
 13 14  2  0
 13 10  1  0
 15 13  1  0
 16 15  1  0
 16 17  1  1
 18 22  1  0
 18 17  1  0
 19 18  2  0
 20 19  1  0
 20 21  1  0
 21 22  2  0
 23 16  1  0
 24 23  2  0
 25 23  1  0
M  END
$$$$
