ICH.pdb
     RDKit          3D

 25 25  0  0  1  0  0  0  0  0999 V2000
   22.7246  -15.5665  -21.7110 C   0  0  0  0  0  0  0  0  0  0  0  0
   23.7806  -15.9167  -20.6849 C   0  0  0  0  0  0  0  0  0  0  0  0
   23.7873  -14.8088  -19.6589 C   0  0  2  0  0  0  0  0  0  0  0  0
   24.1904  -13.5308  -20.3763 C   0  0  0  0  0  0  0  0  0  0  0  0
   24.8014  -15.0492  -18.5666 C   0  0  2  0  0  0  0  0  0  0  0  0
   24.5308  -16.3008  -17.9052 N   0  0  0  0  0  0  0  0  0  0  0  0
   24.6679  -13.8967  -17.6067 C   0  0  0  0  0  0  0  0  0  0  0  0
   23.6492  -13.7759  -16.8847 O   0  0  0  0  0  0  0  0  0  0  0  0
   25.6854  -12.9147  -17.4885 N   0  0  0  0  0  0  0  0  0  0  0  0
   25.6322  -11.8163  -16.5435 C   0  0  1  0  0  0  0  0  0  0  0  0
   27.0377  -11.3139  -16.2661 C   0  0  0  0  0  0  0  0  0  0  0  0
   28.0270  -12.5699  -15.4489 S   0  0  0  0  0  0  0  0  0  0  0  0
   24.7531  -10.7274  -16.9998 C   0  0  0  0  0  0  0  0  0  0  0  0
   24.8300  -10.3446  -18.1940 O   0  0  0  0  0  0  0  0  0  0  0  0
   23.8108  -10.0752  -16.1594 N   0  0  0  0  0  0  0  0  0  0  0  0
   22.9285   -9.0140  -16.6814 C   0  0  1  0  0  0  0  0  0  0  0  0
   21.7197   -9.7036  -17.2715 C   0  0  0  0  0  0  0  0  0  0  0  0
   20.7261   -8.7656  -17.8329 C   0  0  0  0  0  0  0  0  0  0  0  0
   20.7865   -7.3909  -17.8902 C   0  0  0  0  0  0  0  0  0  0  0  0
   19.6584   -6.9127  -18.4782 N   0  0  0  0  0  0  0  0  0  0  0  0
   18.9077   -7.9789  -18.7816 C   0  0  0  0  0  0  0  0  0  0  0  0
   19.5340   -9.1066  -18.4006 N   0  0  0  0  0  0  0  0  0  0  0  0
   22.5390   -8.0830  -15.6143 C   0  0  0  0  0  0  0  0  0  0  0  0
   21.9379   -7.0261  -15.9048 O   0  0  0  0  0  0  0  0  0  0  0  0
   22.8394   -8.3850  -14.3057 O   0  0  0  0  0  0  0  0  0  0  0  0
  2  1  1  0
  2  3  1  0
  3  5  1  0
  3  4  1  6
  5  6  1  1
  5  7  1  0
  7  8  2  0
  9  7  1  0
  9 10  1  0
 10 11  1  6
 12 11  1  0
 13 14  2  0
 13 10  1  0
 15 13  1  0
 16 15  1  0
 16 17  1  1
 18 22  1  0
 18 17  1  0
 19 18  2  0
 20 19  1  0
 20 21  1  0
 21 22  2  0
 23 16  1  0
 24 23  2  0
 25 23  1  0
M  END
$$$$
