ICH.pdb
     RDKit          3D

 25 25  0  0  1  0  0  0  0  0999 V2000
   16.3120  -11.3078  -18.0751 C   0  0  0  0  0  0  0  0  0  0  0  0
   17.7062  -10.7631  -17.8519 C   0  0  0  0  0  0  0  0  0  0  0  0
   17.8764  -10.5755  -16.3632 C   0  0  2  0  0  0  0  0  0  0  0  0
   16.8982   -9.4962  -15.9290 C   0  0  0  0  0  0  0  0  0  0  0  0
   19.2622  -10.0961  -16.0036 C   0  0  2  0  0  0  0  0  0  0  0  0
   20.2481  -11.0460  -16.4540 N   0  0  0  0  0  0  0  0  0  0  0  0
   19.2877   -9.9687  -14.5035 C   0  0  0  0  0  0  0  0  0  0  0  0
   19.2309  -10.9852  -13.7706 O   0  0  0  0  0  0  0  0  0  0  0  0
   19.3765   -8.7004  -13.8732 N   0  0  0  0  0  0  0  0  0  0  0  0
   19.4399   -8.5234  -12.4355 C   0  0  1  0  0  0  0  0  0  0  0  0
   20.6891   -7.7406  -12.0728 C   0  0  0  0  0  0  0  0  0  0  0  0
   20.7765   -6.1971  -12.9859 S   0  0  0  0  0  0  0  0  0  0  0  0
   18.2293   -7.8827  -11.8964 C   0  0  0  0  0  0  0  0  0  0  0  0
   17.7969   -6.8400  -12.4481 O   0  0  0  0  0  0  0  0  0  0  0  0
   17.5115   -8.3796  -10.7751 N   0  0  0  0  0  0  0  0  0  0  0  0
   16.2805   -7.7176  -10.3024 C   0  0  1  0  0  0  0  0  0  0  0  0
   15.5713   -8.7061   -9.4052 C   0  0  0  0  0  0  0  0  0  0  0  0
   14.2601   -8.2247   -8.9243 C   0  0  0  0  0  0  0  0  0  0  0  0
   13.6151   -7.0487   -9.2368 C   0  0  0  0  0  0  0  0  0  0  0  0
   12.4326   -6.9903   -8.5695 N   0  0  0  0  0  0  0  0  0  0  0  0
   12.3460   -8.1171   -7.8519 C   0  0  0  0  0  0  0  0  0  0  0  0
   13.4387   -8.8757   -8.0519 N   0  0  0  0  0  0  0  0  0  0  0  0
   16.5953   -6.4779   -9.5803 C   0  0  0  0  0  0  0  0  0  0  0  0
   15.8767   -5.4681   -9.7431 O   0  0  0  0  0  0  0  0  0  0  0  0
   17.6778   -6.4421   -8.7312 O   0  0  0  0  0  0  0  0  0  0  0  0
  2  1  1  0
  2  3  1  0
  3  5  1  0
  3  4  1  6
  5  6  1  1
  5  7  1  0
  7  8  2  0
  9  7  1  0
  9 10  1  0
 10 11  1  6
 12 11  1  0
 13 14  2  0
 13 10  1  0
 15 13  1  0
 16 15  1  0
 16 17  1  1
 18 22  1  0
 18 17  1  0
 19 18  2  0
 20 19  1  0
 20 21  1  0
 21 22  2  0
 23 16  1  0
 24 23  2  0
 25 23  1  0
M  END
$$$$
