ICH.pdb
     RDKit          3D

 25 25  0  0  1  0  0  0  0  0999 V2000
   18.4710  -18.0990  -17.6381 C   0  0  0  0  0  0  0  0  0  0  0  0
   19.9076  -18.3439  -17.2298 C   0  0  0  0  0  0  0  0  0  0  0  0
   20.3984  -17.0846  -16.5562 C   0  0  2  0  0  0  0  0  0  0  0  0
   20.2632  -15.9524  -17.5614 C   0  0  0  0  0  0  0  0  0  0  0  0
   21.8562  -17.1735  -16.1738 C   0  0  2  0  0  0  0  0  0  0  0  0
   22.0625  -18.2655  -15.2561 N   0  0  0  0  0  0  0  0  0  0  0  0
   22.2032  -15.8584  -15.5277 C   0  0  0  0  0  0  0  0  0  0  0  0
   21.5246  -15.4129  -14.5713 O   0  0  0  0  0  0  0  0  0  0  0  0
   23.3039  -15.0841  -15.9778 N   0  0  0  0  0  0  0  0  0  0  0  0
   23.6081  -13.7579  -15.4769 C   0  0  1  0  0  0  0  0  0  0  0  0
   25.0375  -13.3930  -15.8353 C   0  0  0  0  0  0  0  0  0  0  0  0
   26.2096  -14.4846  -15.0240 S   0  0  0  0  0  0  0  0  0  0  0  0
   22.6573  -12.7445  -15.9623 C   0  0  0  0  0  0  0  0  0  0  0  0
   22.1256  -12.9012  -17.0898 O   0  0  0  0  0  0  0  0  0  0  0  0
   22.3006  -11.5848  -15.2223 N   0  0  0  0  0  0  0  0  0  0  0  0
   21.3026  -10.6278  -15.7372 C   0  0  1  0  0  0  0  0  0  0  0  0
   19.9419  -11.2163  -15.4421 C   0  0  0  0  0  0  0  0  0  0  0  0
   18.8240  -10.3402  -15.8484 C   0  0  0  0  0  0  0  0  0  0  0  0
   18.1409   -9.4185  -15.0864 C   0  0  0  0  0  0  0  0  0  0  0  0
   17.1759   -8.8325  -15.8430 N   0  0  0  0  0  0  0  0  0  0  0  0
   17.2602   -9.3848  -17.0596 C   0  0  0  0  0  0  0  0  0  0  0  0
   18.2484  -10.2970  -17.0839 N   0  0  0  0  0  0  0  0  0  0  0  0
   21.4601   -9.3127  -15.1024 C   0  0  0  0  0  0  0  0  0  0  0  0
   22.1082   -9.2136  -14.0381 O   0  0  0  0  0  0  0  0  0  0  0  0
   20.8930   -8.2035  -15.6871 O   0  0  0  0  0  0  0  0  0  0  0  0
  2  1  1  0
  2  3  1  0
  3  5  1  0
  3  4  1  6
  5  6  1  1
  5  7  1  0
  7  8  2  0
  9  7  1  0
  9 10  1  0
 10 11  1  6
 12 11  1  0
 13 14  2  0
 13 10  1  0
 15 13  1  0
 16 15  1  0
 16 17  1  1
 18 22  1  0
 18 17  1  0
 19 18  2  0
 20 19  1  0
 20 21  1  0
 21 22  2  0
 23 16  1  0
 24 23  2  0
 25 23  1  0
M  END
$$$$
