RSP.pdb
     RDKit          3D

 25 25  0  0  1  0  0  0  0  0999 V2000
    7.8524  -14.9541   14.1526 N   0  0  0  0  0  0  0  0  0  0  0  0
    8.1505  -14.9211   15.5396 C   0  0  0  0  0  0  0  0  0  0  0  0
    8.1497  -16.0668   16.1712 N   0  0  0  0  0  0  0  0  0  0  0  0
    8.4395  -13.7482   16.2485 N   0  0  0  0  0  0  0  0  0  0  0  0
    8.6968  -13.7866   17.6772 C   0  0  0  0  0  0  0  0  0  0  0  0
    7.3979  -13.5925   18.3707 C   0  0  0  0  0  0  0  0  0  0  0  0
    7.3277  -14.1457   19.7402 C   0  0  0  0  0  0  0  0  0  0  0  0
    8.5491  -13.9995   20.5732 C   0  0  2  0  0  0  0  0  0  0  0  0
    9.7222  -14.6540   20.1061 N   0  0  0  0  0  0  0  0  0  0  0  0
    8.1801  -14.4389   21.9666 C   0  0  0  0  0  0  0  0  0  0  0  0
    7.2001  -13.9278   22.5668 O   0  0  0  0  0  0  0  0  0  0  0  0
    7.9263  -16.9684   15.7368 O   0  0  0  0  0  0  0  0  0  0  0  0
    9.9973  -17.8611   23.7955 C   0  0  0  0  0  0  0  0  0  0  0  0
    8.7214  -17.4063   24.1277 C   0  0  1  0  0  0  0  0  0  0  0  0
    8.6287  -15.8940   23.9876 N   0  0  0  0  0  0  0  0  0  0  0  0
    8.9059  -15.4383   22.6687 C   0  0  0  0  0  0  0  0  0  0  0  0
    9.4366  -15.1872   24.9789 O   0  0  0  0  0  0  0  0  0  0  0  0
   10.6610  -14.9804   24.6048 N   0  0  0  0  0  0  0  0  0  0  0  0
    9.0864  -14.7127   26.2495 C   0  0  0  0  0  0  0  0  0  0  0  0
    7.8698  -14.6708   27.0062 C   0  0  0  0  0  0  0  0  0  0  0  0
    8.0197  -13.4985   27.9870 C   0  0  0  0  0  0  0  0  0  0  0  0
    9.3365  -12.8559   27.5801 C   0  0  1  0  0  0  0  0  0  0  0  0
   10.0935  -14.0885   27.1356 C   0  0  0  0  0  0  0  0  0  0  0  0
   10.3570  -14.9193   28.3213 O   0  0  0  0  0  0  0  0  0  0  0  0
   11.2709  -14.6794   29.3103 O   0  0  0  0  0  0  0  0  0  0  0  0
  1  2  1  0
  2  4  1  0
  3  2  2  0
  4  5  1  0
  6  7  1  0
  6  5  1  0
  7  8  1  0
  8  9  1  6
 10  8  1  0
 10 11  2  0
 14 13  1  6
 13 12  1  0
 14 15  1  0
 15 10  1  0
 16 14  1  0
 17 16  2  0
 18 19  1  0
 18 16  1  0
 20 19  1  0
 21 20  1  0
 22 21  1  0
 22 18  1  0
 22 23  1  1
 24 23  1  0
 25 23  2  0
M  END
$$$$
