RSP.pdb
     RDKit          3D

 25 25  0  0  1  0  0  0  0  0999 V2000
    8.8627  -15.0237   16.9364 N   0  0  0  0  0  0  0  0  0  0  0  0
    8.3803  -13.7952   16.4151 C   0  0  0  0  0  0  0  0  0  0  0  0
    8.4978  -13.6144   15.1248 N   0  0  0  0  0  0  0  0  0  0  0  0
    7.7972  -12.7902   17.1974 N   0  0  0  0  0  0  0  0  0  0  0  0
    7.5434  -13.0011   18.6115 C   0  0  0  0  0  0  0  0  0  0  0  0
    8.7012  -13.7473   19.1669 C   0  0  0  0  0  0  0  0  0  0  0  0
    8.6335  -14.0234   20.6180 C   0  0  0  0  0  0  0  0  0  0  0  0
    8.3054  -15.4187   21.0086 C   0  0  2  0  0  0  0  0  0  0  0  0
    7.4569  -16.1451   20.1283 N   0  0  0  0  0  0  0  0  0  0  0  0
    7.7430  -15.3584   22.4053 C   0  0  0  0  0  0  0  0  0  0  0  0
    6.6916  -14.7132   22.6510 O   0  0  0  0  0  0  0  0  0  0  0  0
    8.1321  -12.8017   14.6173 O   0  0  0  0  0  0  0  0  0  0  0  0
    7.3611  -18.1460   25.2222 C   0  0  0  0  0  0  0  0  0  0  0  0
    6.9220  -16.8264   25.3258 C   0  0  1  0  0  0  0  0  0  0  0  0
    8.0027  -15.8557   24.8727 N   0  0  0  0  0  0  0  0  0  0  0  0
    8.3579  -16.0158   23.5044 C   0  0  0  0  0  0  0  0  0  0  0  0
    9.1799  -15.8816   25.7378 O   0  0  0  0  0  0  0  0  0  0  0  0
   10.2372  -16.3711   25.1681 N   0  0  0  0  0  0  0  0  0  0  0  0
    9.3269  -15.4643   27.0669 C   0  0  0  0  0  0  0  0  0  0  0  0
    8.4721  -14.8142   28.0163 C   0  0  0  0  0  0  0  0  0  0  0  0
    9.4033  -14.0967   29.0047 C   0  0  0  0  0  0  0  0  0  0  0  0
   10.7875  -14.3060   28.4107 C   0  0  1  0  0  0  0  0  0  0  0  0
   10.5958  -15.6762   27.7977 C   0  0  0  0  0  0  0  0  0  0  0  0
   10.4332  -16.6500   28.8889 O   0  0  0  0  0  0  0  0  0  0  0  0
    9.3023  -17.3497   29.2087 O   0  0  0  0  0  0  0  0  0  0  0  0
  1  2  1  0
  2  4  1  0
  3  2  2  0
  4  5  1  0
  6  7  1  0
  6  5  1  0
  7  8  1  0
  8  9  1  6
 10  8  1  0
 10 11  2  0
 14 13  1  6
 13 12  1  0
 14 15  1  0
 15 10  1  0
 16 14  1  0
 17 16  2  0
 18 19  1  0
 18 16  1  0
 20 19  1  0
 21 20  1  0
 22 21  1  0
 22 18  1  0
 22 23  1  1
 24 23  1  0
 25 23  2  0
M  END
$$$$
