RSP.pdb
     RDKit          3D

 25 25  0  0  1  0  0  0  0  0999 V2000
   14.3768  -13.4715   20.8473 N   0  0  0  0  0  0  0  0  0  0  0  0
   13.6707  -14.6824   21.0681 C   0  0  0  0  0  0  0  0  0  0  0  0
   13.7116  -15.1777   22.2783 N   0  0  0  0  0  0  0  0  0  0  0  0
   12.9483  -15.3572   20.0758 N   0  0  0  0  0  0  0  0  0  0  0  0
   11.4969  -15.3934   20.1068 C   0  0  0  0  0  0  0  0  0  0  0  0
   11.0205  -14.0085   20.3533 C   0  0  0  0  0  0  0  0  0  0  0  0
   10.2579  -13.3991   19.2426 C   0  0  0  0  0  0  0  0  0  0  0  0
    8.8419  -13.8262   19.1032 C   0  0  2  0  0  0  0  0  0  0  0  0
    8.0816  -13.1921   18.0822 N   0  0  0  0  0  0  0  0  0  0  0  0
    8.2036  -13.6645   20.4586 C   0  0  0  0  0  0  0  0  0  0  0  0
    7.9290  -12.5235   20.9113 O   0  0  0  0  0  0  0  0  0  0  0  0
   13.2706  -16.0599   22.5591 O   0  0  0  0  0  0  0  0  0  0  0  0
    6.8563  -17.0763   22.8243 C   0  0  0  0  0  0  0  0  0  0  0  0
    6.1810  -15.8641   22.6849 C   0  0  1  0  0  0  0  0  0  0  0  0
    7.1599  -14.7120   22.5120 N   0  0  0  0  0  0  0  0  0  0  0  0
    7.8814  -14.7726   21.2872 C   0  0  0  0  0  0  0  0  0  0  0  0
    8.0575  -14.5609   23.6550 O   0  0  0  0  0  0  0  0  0  0  0  0
    9.3085  -14.7424   23.3653 N   0  0  0  0  0  0  0  0  0  0  0  0
    7.7667  -14.2565   24.9909 C   0  0  0  0  0  0  0  0  0  0  0  0
    6.5585  -14.0571   25.7360 C   0  0  0  0  0  0  0  0  0  0  0  0
    6.9347  -13.1578   26.9228 C   0  0  0  0  0  0  0  0  0  0  0  0
    8.3863  -12.7944   26.6520 C   0  0  1  0  0  0  0  0  0  0  0  0
    8.8473  -14.0719   25.9846 C   0  0  0  0  0  0  0  0  0  0  0  0
    8.8427  -15.1449   26.9915 O   0  0  0  0  0  0  0  0  0  0  0  0
    8.0214  -16.2381   27.0287 O   0  0  0  0  0  0  0  0  0  0  0  0
  1  2  1  0
  2  4  1  0
  3  2  2  0
  4  5  1  0
  6  7  1  0
  6  5  1  0
  7  8  1  0
  8  9  1  6
 10  8  1  0
 10 11  2  0
 14 13  1  6
 13 12  1  0
 14 15  1  0
 15 10  1  0
 16 14  1  0
 17 16  2  0
 18 19  1  0
 18 16  1  0
 20 19  1  0
 21 20  1  0
 22 21  1  0
 22 18  1  0
 22 23  1  1
 24 23  1  0
 25 23  2  0
M  END
$$$$
