RSP.pdb
     RDKit          3D

 25 25  0  0  1  0  0  0  0  0999 V2000
    8.2438  -12.9593   15.8144 N   0  0  0  0  0  0  0  0  0  0  0  0
    8.3629  -14.3693   15.9209 C   0  0  0  0  0  0  0  0  0  0  0  0
    8.1492  -15.0638   14.8330 N   0  0  0  0  0  0  0  0  0  0  0  0
    8.6910  -15.0380   17.1071 N   0  0  0  0  0  0  0  0  0  0  0  0
    7.8485  -14.9218   18.2842 C   0  0  0  0  0  0  0  0  0  0  0  0
    7.9775  -13.5316   18.7907 C   0  0  0  0  0  0  0  0  0  0  0  0
    7.9044  -13.3888   20.2606 C   0  0  0  0  0  0  0  0  0  0  0  0
    8.8366  -14.2329   21.0517 C   0  0  2  0  0  0  0  0  0  0  0  0
    9.0113  -15.5744   20.6130 N   0  0  0  0  0  0  0  0  0  0  0  0
    8.3726  -14.1682   22.4839 C   0  0  0  0  0  0  0  0  0  0  0  0
    8.1513  -13.0629   23.0420 O   0  0  0  0  0  0  0  0  0  0  0  0
    8.2119  -16.0858   14.7757 O   0  0  0  0  0  0  0  0  0  0  0  0
    7.0398  -17.6307   24.6373 C   0  0  0  0  0  0  0  0  0  0  0  0
    6.6722  -16.3233   24.9542 C   0  0  1  0  0  0  0  0  0  0  0  0
    7.8011  -15.3505   24.6469 N   0  0  0  0  0  0  0  0  0  0  0  0
    8.1622  -15.3322   23.2709 C   0  0  0  0  0  0  0  0  0  0  0  0
    8.9672  -15.5540   25.5036 O   0  0  0  0  0  0  0  0  0  0  0  0
    9.9958  -16.0394   24.8804 N   0  0  0  0  0  0  0  0  0  0  0  0
    9.1295  -15.3074   26.8728 C   0  0  0  0  0  0  0  0  0  0  0  0
    8.2734  -14.8210   27.9145 C   0  0  0  0  0  0  0  0  0  0  0  0
    9.1998  -14.2010   28.9710 C   0  0  0  0  0  0  0  0  0  0  0  0
   10.5766  -14.2755   28.3295 C   0  0  1  0  0  0  0  0  0  0  0  0
   10.4222  -15.5611   27.5463 C   0  0  0  0  0  0  0  0  0  0  0  0
   10.3220  -16.6741   28.5036 O   0  0  0  0  0  0  0  0  0  0  0  0
    9.2215  -17.4446   28.7608 O   0  0  0  0  0  0  0  0  0  0  0  0
  1  2  1  0
  2  4  1  0
  3  2  2  0
  4  5  1  0
  6  7  1  0
  6  5  1  0
  7  8  1  0
  8  9  1  6
 10  8  1  0
 10 11  2  0
 14 13  1  6
 13 12  1  0
 14 15  1  0
 15 10  1  0
 16 14  1  0
 17 16  2  0
 18 19  1  0
 18 16  1  0
 20 19  1  0
 21 20  1  0
 22 21  1  0
 22 18  1  0
 22 23  1  1
 24 23  1  0
 25 23  2  0
M  END
$$$$
