RSP.pdb
     RDKit          3D

 25 25  0  0  1  0  0  0  0  0999 V2000
    8.2226  -20.4231   19.3530 N   0  0  0  0  0  0  0  0  0  0  0  0
    9.5868  -20.7753   19.1837 C   0  0  0  0  0  0  0  0  0  0  0  0
    9.9026  -22.0287   19.3855 N   0  0  0  0  0  0  0  0  0  0  0  0
   10.5884  -19.8666   18.8189 N   0  0  0  0  0  0  0  0  0  0  0  0
   10.6034  -18.5190   19.3597 C   0  0  0  0  0  0  0  0  0  0  0  0
   10.3788  -18.6227   20.8242 C   0  0  0  0  0  0  0  0  0  0  0  0
   10.4558  -17.3447   21.5639 C   0  0  0  0  0  0  0  0  0  0  0  0
    9.2795  -16.4446   21.4483 C   0  0  2  0  0  0  0  0  0  0  0  0
    9.2063  -15.6370   20.2799 N   0  0  0  0  0  0  0  0  0  0  0  0
    9.2417  -15.6149   22.7056 C   0  0  0  0  0  0  0  0  0  0  0  0
   10.1050  -14.7253   22.9186 O   0  0  0  0  0  0  0  0  0  0  0  0
   10.8486  -22.4117   19.2857 O   0  0  0  0  0  0  0  0  0  0  0  0
    6.5016  -16.4435   25.9627 C   0  0  0  0  0  0  0  0  0  0  0  0
    6.7553  -15.1371   25.5456 C   0  0  1  0  0  0  0  0  0  0  0  0
    8.1296  -15.0283   24.9015 N   0  0  0  0  0  0  0  0  0  0  0  0
    8.2458  -15.7875   23.7040 C   0  0  0  0  0  0  0  0  0  0  0  0
    9.2129  -15.3309   25.8342 O   0  0  0  0  0  0  0  0  0  0  0  0
   10.1308  -16.1010   25.3379 N   0  0  0  0  0  0  0  0  0  0  0  0
    9.3975  -14.9189   27.1602 C   0  0  0  0  0  0  0  0  0  0  0  0
    8.6305  -14.1379   28.0857 C   0  0  0  0  0  0  0  0  0  0  0  0
    9.6396  -13.5471   29.0814 C   0  0  0  0  0  0  0  0  0  0  0  0
   10.9884  -13.9629   28.5152 C   0  0  1  0  0  0  0  0  0  0  0  0
   10.6106  -15.3004   27.9164 C   0  0  0  0  0  0  0  0  0  0  0  0
   10.2917  -16.2237   29.0169 O   0  0  0  0  0  0  0  0  0  0  0  0
    9.0679  -16.7535   29.3211 O   0  0  0  0  0  0  0  0  0  0  0  0
  1  2  1  0
  2  4  1  0
  3  2  2  0
  4  5  1  0
  6  7  1  0
  6  5  1  0
  7  8  1  0
  8  9  1  6
 10  8  1  0
 10 11  2  0
 14 13  1  6
 13 12  1  0
 14 15  1  0
 15 10  1  0
 16 14  1  0
 17 16  2  0
 18 19  1  0
 18 16  1  0
 20 19  1  0
 21 20  1  0
 22 21  1  0
 22 18  1  0
 22 23  1  1
 24 23  1  0
 25 23  2  0
M  END
$$$$
