RSP.pdb
     RDKit          3D

 25 25  0  0  1  0  0  0  0  0999 V2000
    7.6710  -13.1642   16.0957 N   0  0  0  0  0  0  0  0  0  0  0  0
    8.7937  -13.9912   16.3589 C   0  0  0  0  0  0  0  0  0  0  0  0
    9.0042  -14.9822   15.5312 N   0  0  0  0  0  0  0  0  0  0  0  0
    9.6675  -13.8018   17.4371 N   0  0  0  0  0  0  0  0  0  0  0  0
    9.4044  -14.4184   18.7253 C   0  0  0  0  0  0  0  0  0  0  0  0
    8.0664  -13.9579   19.1763 C   0  0  0  0  0  0  0  0  0  0  0  0
    7.7883  -14.1487   20.6160 C   0  0  0  0  0  0  0  0  0  0  0  0
    7.4300  -15.5263   21.0410 C   0  0  2  0  0  0  0  0  0  0  0  0
    6.3935  -16.1703   20.3104 N   0  0  0  0  0  0  0  0  0  0  0  0
    7.1186  -15.4598   22.5138 C   0  0  0  0  0  0  0  0  0  0  0  0
    6.0849  -14.8762   22.9298 O   0  0  0  0  0  0  0  0  0  0  0  0
    9.8045  -15.6213   15.5833 O   0  0  0  0  0  0  0  0  0  0  0  0
    7.5381  -18.3133   25.3100 C   0  0  0  0  0  0  0  0  0  0  0  0
    6.9123  -17.0767   25.4656 C   0  0  1  0  0  0  0  0  0  0  0  0
    7.7758  -15.9553   24.9066 N   0  0  0  0  0  0  0  0  0  0  0  0
    7.9604  -16.0428   23.4987 C   0  0  0  0  0  0  0  0  0  0  0  0
    9.0517  -15.8262   25.6068 O   0  0  0  0  0  0  0  0  0  0  0  0
   10.0612  -16.3027   24.9466 N   0  0  0  0  0  0  0  0  0  0  0  0
    9.3349  -15.2752   26.8630 C   0  0  0  0  0  0  0  0  0  0  0  0
    8.5828  -14.5203   27.8217 C   0  0  0  0  0  0  0  0  0  0  0  0
    9.6113  -13.7151   28.6296 C   0  0  0  0  0  0  0  0  0  0  0  0
   10.9269  -14.0010   27.9226 C   0  0  1  0  0  0  0  0  0  0  0  0
   10.6719  -15.4251   27.4786 C   0  0  0  0  0  0  0  0  0  0  0  0
   10.6214  -16.2785   28.6763 O   0  0  0  0  0  0  0  0  0  0  0  0
    9.5370  -16.9567   29.1610 O   0  0  0  0  0  0  0  0  0  0  0  0
  1  2  1  0
  2  4  1  0
  3  2  2  0
  4  5  1  0
  6  7  1  0
  6  5  1  0
  7  8  1  0
  8  9  1  6
 10  8  1  0
 10 11  2  0
 14 13  1  6
 13 12  1  0
 14 15  1  0
 15 10  1  0
 16 14  1  0
 17 16  2  0
 18 19  1  0
 18 16  1  0
 20 19  1  0
 21 20  1  0
 22 21  1  0
 22 18  1  0
 22 23  1  1
 24 23  1  0
 25 23  2  0
M  END
$$$$
