RSP.pdb
     RDKit          3D

 25 25  0  0  1  0  0  0  0  0999 V2000
   13.2020  -16.4643   18.9081 N   0  0  0  0  0  0  0  0  0  0  0  0
   14.1076  -15.3868   19.0889 C   0  0  0  0  0  0  0  0  0  0  0  0
   15.3689  -15.6271   18.8384 N   0  0  0  0  0  0  0  0  0  0  0  0
   13.7248  -14.1077   19.5125 N   0  0  0  0  0  0  0  0  0  0  0  0
   12.4553  -13.5362   19.0998 C   0  0  0  0  0  0  0  0  0  0  0  0
   11.4249  -14.5984   19.2261 C   0  0  0  0  0  0  0  0  0  0  0  0
   10.4263  -14.3815   20.2949 C   0  0  0  0  0  0  0  0  0  0  0  0
    8.9994  -14.4518   19.8874 C   0  0  2  0  0  0  0  0  0  0  0  0
    8.5960  -13.5962   18.8255 N   0  0  0  0  0  0  0  0  0  0  0  0
    8.1803  -14.2242   21.1316 C   0  0  0  0  0  0  0  0  0  0  0  0
    7.7264  -13.0838   21.4066 O   0  0  0  0  0  0  0  0  0  0  0  0
   16.1296  -14.9579   18.9976 O   0  0  0  0  0  0  0  0  0  0  0  0
    7.0896  -17.4551   23.8524 C   0  0  0  0  0  0  0  0  0  0  0  0
    6.2769  -16.3615   23.5550 C   0  0  1  0  0  0  0  0  0  0  0  0
    7.1142  -15.1306   23.2399 N   0  0  0  0  0  0  0  0  0  0  0  0
    7.8795  -15.2671   22.0483 C   0  0  0  0  0  0  0  0  0  0  0  0
    7.9467  -14.7139   24.3659 O   0  0  0  0  0  0  0  0  0  0  0  0
    9.2197  -14.8307   24.1469 N   0  0  0  0  0  0  0  0  0  0  0  0
    7.5753  -14.2187   25.6225 C   0  0  0  0  0  0  0  0  0  0  0  0
    6.3233  -13.9840   26.2800 C   0  0  0  0  0  0  0  0  0  0  0  0
    6.5878  -12.8821   27.3165 C   0  0  0  0  0  0  0  0  0  0  0  0
    8.0259  -12.4698   27.0434 C   0  0  1  0  0  0  0  0  0  0  0  0
    8.5946  -13.8039   26.6115 C   0  0  0  0  0  0  0  0  0  0  0  0
    8.6076  -14.6986   27.7797 O   0  0  0  0  0  0  0  0  0  0  0  0
    9.4360  -14.6257   28.8656 O   0  0  0  0  0  0  0  0  0  0  0  0
  1  2  1  0
  2  4  1  0
  3  2  2  0
  4  5  1  0
  6  7  1  0
  6  5  1  0
  7  8  1  0
  8  9  1  6
 10  8  1  0
 10 11  2  0
 14 13  1  6
 13 12  1  0
 14 15  1  0
 15 10  1  0
 16 14  1  0
 17 16  2  0
 18 19  1  0
 18 16  1  0
 20 19  1  0
 21 20  1  0
 22 21  1  0
 22 18  1  0
 22 23  1  1
 24 23  1  0
 25 23  2  0
M  END
$$$$
