RSP.pdb
     RDKit          3D

 25 25  0  0  1  0  0  0  0  0999 V2000
    8.8711  -15.1689   14.9995 N   0  0  0  0  0  0  0  0  0  0  0  0
    8.3769  -14.2521   15.9633 C   0  0  0  0  0  0  0  0  0  0  0  0
    7.5937  -13.3001   15.5256 N   0  0  0  0  0  0  0  0  0  0  0  0
    8.6800  -14.3161   17.3294 N   0  0  0  0  0  0  0  0  0  0  0  0
    8.0031  -15.2627   18.1981 C   0  0  0  0  0  0  0  0  0  0  0  0
    7.4914  -14.5070   19.3698 C   0  0  0  0  0  0  0  0  0  0  0  0
    8.5311  -13.9577   20.2663 C   0  0  0  0  0  0  0  0  0  0  0  0
    9.2020  -14.9279   21.1695 C   0  0  2  0  0  0  0  0  0  0  0  0
    9.0513  -16.3058   20.8510 N   0  0  0  0  0  0  0  0  0  0  0  0
    8.7276  -14.6212   22.5665 C   0  0  0  0  0  0  0  0  0  0  0  0
    8.6567  -13.4349   22.9788 O   0  0  0  0  0  0  0  0  0  0  0  0
    7.2481  -12.5236   16.0995 O   0  0  0  0  0  0  0  0  0  0  0  0
    7.0936  -17.6253   25.2701 C   0  0  0  0  0  0  0  0  0  0  0  0
    6.7972  -16.2626   25.2876 C   0  0  1  0  0  0  0  0  0  0  0  0
    7.9982  -15.4384   24.8475 N   0  0  0  0  0  0  0  0  0  0  0  0
    8.3402  -15.6371   23.4809 C   0  0  0  0  0  0  0  0  0  0  0  0
    9.1554  -15.6208   25.7207 O   0  0  0  0  0  0  0  0  0  0  0  0
   10.1590  -16.2058   25.1440 N   0  0  0  0  0  0  0  0  0  0  0  0
    9.3321  -15.2640   27.0636 C   0  0  0  0  0  0  0  0  0  0  0  0
    8.5065  -14.6371   28.0537 C   0  0  0  0  0  0  0  0  0  0  0  0
    9.4683  -13.9824   29.0562 C   0  0  0  0  0  0  0  0  0  0  0  0
   10.8382  -14.1954   28.4313 C   0  0  1  0  0  0  0  0  0  0  0  0
   10.6071  -15.5338   27.7640 C   0  0  0  0  0  0  0  0  0  0  0  0
   10.4402  -16.5497   28.8154 O   0  0  0  0  0  0  0  0  0  0  0  0
   11.4118  -17.0590   29.6322 O   0  0  0  0  0  0  0  0  0  0  0  0
  1  2  1  0
  2  4  1  0
  3  2  2  0
  4  5  1  0
  6  7  1  0
  6  5  1  0
  7  8  1  0
  8  9  1  6
 10  8  1  0
 10 11  2  0
 14 13  1  6
 13 12  1  0
 14 15  1  0
 15 10  1  0
 16 14  1  0
 17 16  2  0
 18 19  1  0
 18 16  1  0
 20 19  1  0
 21 20  1  0
 22 21  1  0
 22 18  1  0
 22 23  1  1
 24 23  1  0
 25 23  2  0
M  END
$$$$
