RSP.pdb
     RDKit          3D

 25 25  0  0  1  0  0  0  0  0999 V2000
    9.4608  -14.4054   16.0763 N   0  0  0  0  0  0  0  0  0  0  0  0
    8.2640  -13.6485   15.9849 C   0  0  0  0  0  0  0  0  0  0  0  0
    7.9199  -13.2291   14.7945 N   0  0  0  0  0  0  0  0  0  0  0  0
    7.4517  -13.3363   17.0825 N   0  0  0  0  0  0  0  0  0  0  0  0
    8.0359  -12.9975   18.3681 C   0  0  0  0  0  0  0  0  0  0  0  0
    8.5409  -14.2554   18.9750 C   0  0  0  0  0  0  0  0  0  0  0  0
    9.2293  -14.0946   20.2738 C   0  0  0  0  0  0  0  0  0  0  0  0
    9.3955  -15.3259   21.0882 C   0  0  2  0  0  0  0  0  0  0  0  0
    9.0069  -16.5510   20.4795 N   0  0  0  0  0  0  0  0  0  0  0  0
    8.6675  -15.0901   22.3863 C   0  0  0  0  0  0  0  0  0  0  0  0
    7.8621  -14.1319   22.5104 O   0  0  0  0  0  0  0  0  0  0  0  0
    7.0921  -12.6563   14.5982 O   0  0  0  0  0  0  0  0  0  0  0  0
    7.2317  -17.7144   25.1889 C   0  0  0  0  0  0  0  0  0  0  0  0
    7.0795  -16.3281   25.1818 C   0  0  1  0  0  0  0  0  0  0  0  0
    8.3921  -15.6379   24.8413 N   0  0  0  0  0  0  0  0  0  0  0  0
    8.8464  -15.9227   23.5235 C   0  0  0  0  0  0  0  0  0  0  0  0
    9.4344  -15.8919   25.8333 O   0  0  0  0  0  0  0  0  0  0  0  0
   10.4424  -16.5653   25.3723 N   0  0  0  0  0  0  0  0  0  0  0  0
    9.4990  -15.5221   27.1828 C   0  0  0  0  0  0  0  0  0  0  0  0
    8.6056  -14.8592   28.0868 C   0  0  0  0  0  0  0  0  0  0  0  0
    9.4912  -14.2182   29.1655 C   0  0  0  0  0  0  0  0  0  0  0  0
   10.9054  -14.4777   28.6701 C   0  0  1  0  0  0  0  0  0  0  0  0
   10.6971  -15.8180   27.9990 C   0  0  0  0  0  0  0  0  0  0  0  0
   10.4062  -16.8146   29.0418 O   0  0  0  0  0  0  0  0  0  0  0  0
   11.2781  -17.3192   29.9670 O   0  0  0  0  0  0  0  0  0  0  0  0
  1  2  1  0
  2  4  1  0
  3  2  2  0
  4  5  1  0
  6  7  1  0
  6  5  1  0
  7  8  1  0
  8  9  1  6
 10  8  1  0
 10 11  2  0
 14 13  1  6
 13 12  1  0
 14 15  1  0
 15 10  1  0
 16 14  1  0
 17 16  2  0
 18 19  1  0
 18 16  1  0
 20 19  1  0
 21 20  1  0
 22 21  1  0
 22 18  1  0
 22 23  1  1
 24 23  1  0
 25 23  2  0
M  END
$$$$
