RSP.pdb
     RDKit          3D

 25 25  0  0  1  0  0  0  0  0999 V2000
    8.4637  -13.8518   15.5364 N   0  0  0  0  0  0  0  0  0  0  0  0
    7.9394  -13.8059   16.8542 C   0  0  0  0  0  0  0  0  0  0  0  0
    7.7405  -12.6201   17.3697 N   0  0  0  0  0  0  0  0  0  0  0  0
    7.6311  -14.9428   17.6120 N   0  0  0  0  0  0  0  0  0  0  0  0
    8.6593  -15.6323   18.3711 C   0  0  0  0  0  0  0  0  0  0  0  0
    9.4881  -14.5987   19.0423 C   0  0  0  0  0  0  0  0  0  0  0  0
   10.5010  -15.1199   19.9851 C   0  0  0  0  0  0  0  0  0  0  0  0
   10.0628  -16.2219   20.8799 C   0  0  2  0  0  0  0  0  0  0  0  0
    9.2220  -17.2146   20.3052 N   0  0  0  0  0  0  0  0  0  0  0  0
    9.4256  -15.5772   22.0836 C   0  0  0  0  0  0  0  0  0  0  0  0
    8.9683  -14.4070   22.0235 O   0  0  0  0  0  0  0  0  0  0  0  0
    7.3717  -12.4516   18.3116 O   0  0  0  0  0  0  0  0  0  0  0  0
    7.4171  -17.5384   25.1641 C   0  0  0  0  0  0  0  0  0  0  0  0
    7.4032  -16.1722   24.8840 C   0  0  1  0  0  0  0  0  0  0  0  0
    8.7975  -15.6741   24.5330 N   0  0  0  0  0  0  0  0  0  0  0  0
    9.3072  -16.2434   23.3329 C   0  0  0  0  0  0  0  0  0  0  0  0
    9.7417  -15.8214   25.6383 O   0  0  0  0  0  0  0  0  0  0  0  0
   10.8378  -16.4331   25.3120 N   0  0  0  0  0  0  0  0  0  0  0  0
    9.6345  -15.4073   26.9721 C   0  0  0  0  0  0  0  0  0  0  0  0
    8.6135  -14.7637   27.7453 C   0  0  0  0  0  0  0  0  0  0  0  0
    9.3388  -14.0449   28.8924 C   0  0  0  0  0  0  0  0  0  0  0  0
   10.8110  -14.2463   28.5686 C   0  0  1  0  0  0  0  0  0  0  0  0
   10.7446  -15.6156   27.9278 C   0  0  0  0  0  0  0  0  0  0  0  0
   10.3849  -16.5932   28.9671 O   0  0  0  0  0  0  0  0  0  0  0  0
   11.1799  -17.0476   29.9830 O   0  0  0  0  0  0  0  0  0  0  0  0
  1  2  1  0
  2  4  1  0
  3  2  2  0
  4  5  1  0
  6  7  1  0
  6  5  1  0
  7  8  1  0
  8  9  1  6
 10  8  1  0
 10 11  2  0
 14 13  1  6
 13 12  1  0
 14 15  1  0
 15 10  1  0
 16 14  1  0
 17 16  2  0
 18 19  1  0
 18 16  1  0
 20 19  1  0
 21 20  1  0
 22 21  1  0
 22 18  1  0
 22 23  1  1
 24 23  1  0
 25 23  2  0
M  END
$$$$
