RSP.pdb
     RDKit          3D

 25 25  0  0  1  0  0  0  0  0999 V2000
    9.2815  -15.6733   16.1439 N   0  0  0  0  0  0  0  0  0  0  0  0
    8.6067  -14.4262   16.1998 C   0  0  0  0  0  0  0  0  0  0  0  0
    8.1709  -13.9392   15.0665 N   0  0  0  0  0  0  0  0  0  0  0  0
    8.3893  -13.7083   17.3827 N   0  0  0  0  0  0  0  0  0  0  0  0
    8.2920  -14.3914   18.6604 C   0  0  0  0  0  0  0  0  0  0  0  0
    7.0854  -13.8726   19.3538 C   0  0  0  0  0  0  0  0  0  0  0  0
    7.0992  -14.0090   20.8262 C   0  0  0  0  0  0  0  0  0  0  0  0
    8.2216  -14.7914   21.4049 C   0  0  2  0  0  0  0  0  0  0  0  0
    8.3411  -16.1442   20.9825 N   0  0  0  0  0  0  0  0  0  0  0  0
    8.1014  -14.6813   22.9029 C   0  0  0  0  0  0  0  0  0  0  0  0
    8.1773  -13.5646   23.4768 O   0  0  0  0  0  0  0  0  0  0  0  0
    7.7240  -13.0220   14.9630 O   0  0  0  0  0  0  0  0  0  0  0  0
    7.3441  -18.1295   25.5132 C   0  0  0  0  0  0  0  0  0  0  0  0
    6.7826  -16.8612   25.6588 C   0  0  1  0  0  0  0  0  0  0  0  0
    7.7298  -15.7846   25.1496 N   0  0  0  0  0  0  0  0  0  0  0  0
    7.8986  -15.8132   23.7373 C   0  0  0  0  0  0  0  0  0  0  0  0
    9.0160  -15.7941   25.8427 O   0  0  0  0  0  0  0  0  0  0  0  0
    9.9922  -16.2606   25.1276 N   0  0  0  0  0  0  0  0  0  0  0  0
    9.3390  -15.3823   27.1420 C   0  0  0  0  0  0  0  0  0  0  0  0
    8.5920  -14.8416   28.2395 C   0  0  0  0  0  0  0  0  0  0  0  0
    9.5956  -14.0421   29.0834 C   0  0  0  0  0  0  0  0  0  0  0  0
   10.8752  -14.0926   28.2633 C   0  0  1  0  0  0  0  0  0  0  0  0
   10.7272  -15.4667   27.6468 C   0  0  0  0  0  0  0  0  0  0  0  0
   10.8513  -16.4677   28.7182 O   0  0  0  0  0  0  0  0  0  0  0  0
   11.9898  -16.8225   29.3880 O   0  0  0  0  0  0  0  0  0  0  0  0
  1  2  1  0
  2  4  1  0
  3  2  2  0
  4  5  1  0
  6  7  1  0
  6  5  1  0
  7  8  1  0
  8  9  1  1
 10  8  1  0
 10 11  2  0
 14 13  1  6
 13 12  1  0
 14 15  1  0
 15 10  1  0
 16 14  1  0
 17 16  2  0
 18 19  1  0
 18 16  1  0
 20 19  1  0
 21 20  1  0
 22 21  1  0
 22 18  1  0
 22 23  1  1
 24 23  1  0
 25 23  2  0
M  END
$$$$
