RSP.pdb
     RDKit          3D

 25 25  0  0  1  0  0  0  0  0999 V2000
    8.3037  -13.2337   16.9665 N   0  0  0  0  0  0  0  0  0  0  0  0
    8.8236  -12.9319   18.2519 C   0  0  0  0  0  0  0  0  0  0  0  0
    8.6251  -11.7188   18.6994 N   0  0  0  0  0  0  0  0  0  0  0  0
    9.5226  -13.8495   19.0466 N   0  0  0  0  0  0  0  0  0  0  0  0
    9.9606  -15.1227   18.5028 C   0  0  0  0  0  0  0  0  0  0  0  0
    9.0651  -16.1739   19.0496 C   0  0  0  0  0  0  0  0  0  0  0  0
    9.0943  -16.3219   20.5206 C   0  0  0  0  0  0  0  0  0  0  0  0
    8.1785  -17.3386   21.0988 C   0  0  2  0  0  0  0  0  0  0  0  0
    7.1609  -17.8417   20.2420 N   0  0  0  0  0  0  0  0  0  0  0  0
    7.6053  -16.7415   22.3580 C   0  0  0  0  0  0  0  0  0  0  0  0
    6.7514  -15.8195   22.3051 O   0  0  0  0  0  0  0  0  0  0  0  0
    8.9935  -11.3604   19.5868 O   0  0  0  0  0  0  0  0  0  0  0  0
    7.3459  -18.6876   26.0958 C   0  0  0  0  0  0  0  0  0  0  0  0
    6.6449  -17.5582   25.6740 C   0  0  1  0  0  0  0  0  0  0  0  0
    7.5469  -16.6206   24.8848 N   0  0  0  0  0  0  0  0  0  0  0  0
    7.9904  -17.1788   23.6537 C   0  0  0  0  0  0  0  0  0  0  0  0
    8.6658  -16.1172   25.6782 O   0  0  0  0  0  0  0  0  0  0  0  0
    9.8196  -16.5792   25.3076 N   0  0  0  0  0  0  0  0  0  0  0  0
    8.6710  -15.2277   26.7602 C   0  0  0  0  0  0  0  0  0  0  0  0
    7.6554  -14.5268   27.4896 C   0  0  0  0  0  0  0  0  0  0  0  0
    8.3385  -13.2862   28.0836 C   0  0  0  0  0  0  0  0  0  0  0  0
    9.7370  -13.3263   27.4877 C   0  0  1  0  0  0  0  0  0  0  0  0
    9.9371  -14.8244   27.4110 C   0  0  0  0  0  0  0  0  0  0  0  0
   10.0283  -15.3474   28.7833 O   0  0  0  0  0  0  0  0  0  0  0  0
   11.0190  -15.1049   29.6946 O   0  0  0  0  0  0  0  0  0  0  0  0
  1  2  1  0
  2  4  1  0
  3  2  2  0
  4  5  1  0
  6  7  1  0
  6  5  1  0
  7  8  1  0
  8  9  1  6
 10  8  1  0
 10 11  2  0
 14 13  1  6
 13 12  1  0
 14 15  1  0
 15 10  1  0
 16 14  1  0
 17 16  2  0
 18 19  1  0
 18 16  1  0
 20 19  1  0
 21 20  1  0
 22 21  1  0
 22 18  1  0
 22 23  1  1
 24 23  1  0
 25 23  2  0
M  END
$$$$
