RSP.pdb
     RDKit          3D

 25 25  0  0  1  0  0  0  0  0999 V2000
    9.4859  -14.7281   16.8669 N   0  0  0  0  0  0  0  0  0  0  0  0
    8.3323  -14.0257   16.4314 C   0  0  0  0  0  0  0  0  0  0  0  0
    8.2569  -13.7478   15.1553 N   0  0  0  0  0  0  0  0  0  0  0  0
    7.2942  -13.6253   17.2823 N   0  0  0  0  0  0  0  0  0  0  0  0
    7.5078  -13.5114   18.7141 C   0  0  0  0  0  0  0  0  0  0  0  0
    8.4751  -14.5677   19.1071 C   0  0  0  0  0  0  0  0  0  0  0  0
    8.6335  -14.7644   20.5641 C   0  0  0  0  0  0  0  0  0  0  0  0
    8.0368  -16.0012   21.1306 C   0  0  2  0  0  0  0  0  0  0  0  0
    6.9949  -16.6099   20.3778 N   0  0  0  0  0  0  0  0  0  0  0  0
    7.5936  -15.6678   22.5318 C   0  0  0  0  0  0  0  0  0  0  0  0
    6.5174  -15.0508   22.7393 O   0  0  0  0  0  0  0  0  0  0  0  0
    7.4729  -13.2552   14.7143 O   0  0  0  0  0  0  0  0  0  0  0  0
    7.3336  -18.0026   25.5935 C   0  0  0  0  0  0  0  0  0  0  0  0
    6.8955  -16.6795   25.5440 C   0  0  1  0  0  0  0  0  0  0  0  0
    7.9939  -15.7612   25.0286 N   0  0  0  0  0  0  0  0  0  0  0  0
    8.3534  -16.0256   23.6777 C   0  0  0  0  0  0  0  0  0  0  0  0
    9.1661  -15.7425   25.9006 O   0  0  0  0  0  0  0  0  0  0  0  0
   10.2309  -16.2448   25.3566 N   0  0  0  0  0  0  0  0  0  0  0  0
    9.3017  -15.2719   27.2129 C   0  0  0  0  0  0  0  0  0  0  0  0
    8.4074  -14.6854   28.1674 C   0  0  0  0  0  0  0  0  0  0  0  0
    9.2827  -13.8453   29.1091 C   0  0  0  0  0  0  0  0  0  0  0  0
   10.6660  -13.9277   28.4828 C   0  0  1  0  0  0  0  0  0  0  0  0
   10.6035  -15.3285   27.9137 C   0  0  0  0  0  0  0  0  0  0  0  0
   10.5709  -16.2801   29.0355 O   0  0  0  0  0  0  0  0  0  0  0  0
    9.5305  -17.0894   29.4011 O   0  0  0  0  0  0  0  0  0  0  0  0
  1  2  1  0
  2  4  1  0
  3  2  2  0
  4  5  1  0
  6  7  1  0
  6  5  1  0
  7  8  1  0
  8  9  1  6
 10  8  1  0
 10 11  2  0
 14 13  1  6
 13 12  1  0
 14 15  1  0
 15 10  1  0
 16 14  1  0
 17 16  2  0
 18 19  1  0
 18 16  1  0
 20 19  1  0
 21 20  1  0
 22 21  1  0
 22 18  1  0
 22 23  1  1
 24 23  1  0
 25 23  2  0
M  END
$$$$
