RSP.pdb
     RDKit          3D

 25 25  0  0  1  0  0  0  0  0999 V2000
    7.4464  -15.5521   15.6290 N   0  0  0  0  0  0  0  0  0  0  0  0
    8.4761  -14.7101   16.1235 C   0  0  0  0  0  0  0  0  0  0  0  0
    9.0797  -13.9419   15.2534 N   0  0  0  0  0  0  0  0  0  0  0  0
    8.8681  -14.6627   17.4674 N   0  0  0  0  0  0  0  0  0  0  0  0
   10.2069  -15.0588   17.8664 C   0  0  0  0  0  0  0  0  0  0  0  0
   10.0707  -16.1167   18.8998 C   0  0  0  0  0  0  0  0  0  0  0  0
   10.7579  -15.8380   20.1791 C   0  0  0  0  0  0  0  0  0  0  0  0
   11.0480  -14.4112   20.4740 C   0  0  2  0  0  0  0  0  0  0  0  0
   12.3979  -13.9899   20.3229 N   0  0  0  0  0  0  0  0  0  0  0  0
   10.5291  -14.1400   21.8625 C   0  0  0  0  0  0  0  0  0  0  0  0
   11.2901  -13.6996   22.7619 O   0  0  0  0  0  0  0  0  0  0  0  0
    9.9008  -13.3639   15.4614 O   0  0  0  0  0  0  0  0  0  0  0  0
    6.6586  -15.4825   23.4386 C   0  0  0  0  0  0  0  0  0  0  0  0
    7.0740  -14.1520   23.4849 C   0  0  1  0  0  0  0  0  0  0  0  0
    8.5926  -14.0554   23.4891 N   0  0  0  0  0  0  0  0  0  0  0  0
    9.1742  -14.3626   22.2276 C   0  0  0  0  0  0  0  0  0  0  0  0
    9.2023  -14.8353   24.5637 O   0  0  0  0  0  0  0  0  0  0  0  0
   10.0394  -15.7344   24.1476 N   0  0  0  0  0  0  0  0  0  0  0  0
    9.0151  -14.7546   25.9495 C   0  0  0  0  0  0  0  0  0  0  0  0
    8.1024  -14.0494   26.8007 C   0  0  0  0  0  0  0  0  0  0  0  0
    8.8171  -13.8903   28.1507 C   0  0  0  0  0  0  0  0  0  0  0  0
   10.2118  -14.4352   27.8852 C   0  0  1  0  0  0  0  0  0  0  0  0
    9.8747  -15.5168   26.8819 C   0  0  0  0  0  0  0  0  0  0  0  0
    9.1160  -16.5689   27.5767 O   0  0  0  0  0  0  0  0  0  0  0  0
    7.8339  -16.9690   27.3182 O   0  0  0  0  0  0  0  0  0  0  0  0
  1  2  1  0
  2  4  1  0
  3  2  2  0
  4  5  1  0
  6  7  1  0
  6  5  1  0
  7  8  1  0
  8  9  1  1
 10  8  1  0
 10 11  2  0
 14 13  1  6
 13 12  1  0
 14 15  1  0
 15 10  1  0
 16 14  1  0
 17 16  2  0
 18 19  1  0
 18 16  1  0
 20 19  1  0
 21 20  1  0
 22 21  1  0
 22 18  1  0
 22 23  1  1
 24 23  1  0
 25 23  2  0
M  END
$$$$
