RSP.pdb
     RDKit          3D

 25 25  0  0  1  0  0  0  0  0999 V2000
    8.5388  -11.7810   19.4828 N   0  0  0  0  0  0  0  0  0  0  0  0
    8.5935  -12.8522   18.5536 C   0  0  0  0  0  0  0  0  0  0  0  0
    9.7521  -13.0909   17.9950 N   0  0  0  0  0  0  0  0  0  0  0  0
    7.4922  -13.6483   18.2139 N   0  0  0  0  0  0  0  0  0  0  0  0
    7.3295  -14.9748   18.7820 C   0  0  0  0  0  0  0  0  0  0  0  0
    8.6628  -15.6291   18.7784 C   0  0  0  0  0  0  0  0  0  0  0  0
    9.2776  -15.8103   20.1110 C   0  0  0  0  0  0  0  0  0  0  0  0
    8.7947  -16.9677   20.9074 C   0  0  2  0  0  0  0  0  0  0  0  0
    8.0349  -17.9484   20.2120 N   0  0  0  0  0  0  0  0  0  0  0  0
    8.0381  -16.4022   22.0814 C   0  0  0  0  0  0  0  0  0  0  0  0
    7.1090  -15.5715   21.9116 O   0  0  0  0  0  0  0  0  0  0  0  0
    9.9118  -13.7988   17.2704 O   0  0  0  0  0  0  0  0  0  0  0  0
    7.4071  -18.3204   25.7487 C   0  0  0  0  0  0  0  0  0  0  0  0
    6.7300  -17.2136   25.2373 C   0  0  1  0  0  0  0  0  0  0  0  0
    7.6974  -16.2378   24.5834 N   0  0  0  0  0  0  0  0  0  0  0  0
    8.3264  -16.7694   23.4233 C   0  0  0  0  0  0  0  0  0  0  0  0
    8.6772  -15.7017   25.5254 O   0  0  0  0  0  0  0  0  0  0  0  0
    9.9024  -16.0211   25.2442 N   0  0  0  0  0  0  0  0  0  0  0  0
    8.4873  -14.9106   26.6656 C   0  0  0  0  0  0  0  0  0  0  0  0
    7.3381  -14.4178   27.3665 C   0  0  0  0  0  0  0  0  0  0  0  0
    7.7983  -13.1473   28.0964 C   0  0  0  0  0  0  0  0  0  0  0  0
    9.2229  -12.9461   27.6038 C   0  0  1  0  0  0  0  0  0  0  0  0
    9.6393  -14.3911   27.4351 C   0  0  0  0  0  0  0  0  0  0  0  0
    9.7177  -15.0064   28.7695 O   0  0  0  0  0  0  0  0  0  0  0  0
   10.6609  -14.7720   29.7319 O   0  0  0  0  0  0  0  0  0  0  0  0
  1  2  1  0
  2  4  1  0
  3  2  2  0
  4  5  1  0
  6  7  1  0
  6  5  1  0
  7  8  1  0
  8  9  1  6
 10  8  1  0
 10 11  2  0
 14 13  1  6
 13 12  1  0
 14 15  1  0
 15 10  1  0
 16 14  1  0
 17 16  2  0
 18 19  1  0
 18 16  1  0
 20 19  1  0
 21 20  1  0
 22 21  1  0
 22 18  1  0
 22 23  1  1
 24 23  1  0
 25 23  2  0
M  END
$$$$
