SHE.pdb
     RDKit          3D

 26 26  0  0  1  0  0  0  0  0999 V2000
   33.8819  -24.8236  -13.7246 O   0  0  0  0  0  0  0  0  0  0  0  0
   33.2932  -25.7537  -14.5630 C   0  0  0  0  0  0  0  0  0  0  0  0
   33.5410  -25.4056  -16.0376 C   0  0  2  0  0  0  0  0  0  0  0  0
   32.8229  -24.1794  -16.2848 N   0  0  0  0  0  0  0  0  0  0  0  0
   33.0015  -26.5526  -16.8147 C   0  0  0  0  0  0  0  0  0  0  0  0
   31.9524  -26.3594  -17.4663 O   0  0  0  0  0  0  0  0  0  0  0  0
   33.5995  -27.8310  -16.8578 N   0  0  0  0  0  0  0  0  0  0  0  0
   33.0263  -28.9415  -17.6203 C   0  0  1  0  0  0  0  0  0  0  0  0
   33.7544  -30.2127  -17.2175 C   0  0  0  0  0  0  0  0  0  0  0  0
   33.2030  -31.4144  -17.8606 C   0  0  0  0  0  0  0  0  0  0  0  0
   32.4472  -31.4276  -19.0126 C   0  0  0  0  0  0  0  0  0  0  0  0
   32.1160  -32.7071  -19.3067 N   0  0  0  0  0  0  0  0  0  0  0  0
   32.6624  -33.4986  -18.3415 C   0  0  0  0  0  0  0  0  0  0  0  0
   33.3200  -32.6922  -17.4707 N   0  0  0  0  0  0  0  0  0  0  0  0
   31.5779  -29.1012  -17.3036 C   0  0  0  0  0  0  0  0  0  0  0  0
   31.2392  -29.4105  -16.1329 O   0  0  0  0  0  0  0  0  0  0  0  0
   30.5554  -28.9219  -18.2574 N   0  0  0  0  0  0  0  0  0  0  0  0
   29.1199  -28.9973  -17.9303 C   0  0  1  0  0  0  0  0  0  0  0  0
   28.6901  -27.6277  -17.5109 C   0  0  0  0  0  0  0  0  0  0  0  0
   27.2218  -27.4701  -17.2582 C   0  0  0  0  0  0  0  0  0  0  0  0
   26.9747  -26.2112  -16.4636 C   0  0  0  0  0  0  0  0  0  0  0  0
   27.8560  -25.3417  -16.2913 O   0  0  0  0  0  0  0  0  0  0  0  0
   28.4347  -29.4627  -19.1469 C   0  0  0  0  0  0  0  0  0  0  0  0
   27.4016  -30.1592  -19.0570 O   0  0  0  0  0  0  0  0  0  0  0  0
   25.7207  -26.0148  -15.9043 O   0  0  0  0  0  0  0  0  0  0  0  0
   28.9064  -29.1466  -20.4051 O   0  0  0  0  0  0  0  0  0  0  0  0
  1  2  1  0
  2  3  1  0
  3  5  1  0
  3  4  1  6
  5  6  2  0
  7  8  1  0
  7  5  1  0
  8  9  1  1
  9 10  1  0
 10 11  2  0
 11 12  1  0
 13 12  1  0
 14 10  1  0
 14 13  2  0
 15 16  2  0
 15  8  1  0
 17 15  1  0
 18 17  1  0
 18 23  1  0
 18 19  1  6
 20 21  1  0
 20 19  1  0
 21 25  1  0
 22 21  2  0
 23 26  1  0
 24 23  2  0
M  END
$$$$
