SHE.pdb
     RDKit          3D

 26 26  0  0  1  0  0  0  0  0999 V2000
   17.3480  -11.1052  -16.6100 O   0  0  0  0  0  0  0  0  0  0  0  0
   18.6731  -10.7291  -16.4782 C   0  0  0  0  0  0  0  0  0  0  0  0
   19.6086  -11.7586  -17.1276 C   0  0  2  0  0  0  0  0  0  0  0  0
   19.5740  -12.9226  -16.2765 N   0  0  0  0  0  0  0  0  0  0  0  0
   20.9480  -11.1142  -17.1636 C   0  0  0  0  0  0  0  0  0  0  0  0
   21.5906  -11.0698  -16.0924 O   0  0  0  0  0  0  0  0  0  0  0  0
   21.5275  -10.5569  -18.3243 N   0  0  0  0  0  0  0  0  0  0  0  0
   22.8843  -10.0074  -18.3391 C   0  0  1  0  0  0  0  0  0  0  0  0
   23.5226  -10.3685  -19.6698 C   0  0  0  0  0  0  0  0  0  0  0  0
   23.8394  -11.8000  -19.7811 C   0  0  0  0  0  0  0  0  0  0  0  0
   24.3137  -12.5941  -18.7598 C   0  0  0  0  0  0  0  0  0  0  0  0
   24.4903  -13.8526  -19.2271 N   0  0  0  0  0  0  0  0  0  0  0  0
   24.1278  -13.8511  -20.5406 C   0  0  0  0  0  0  0  0  0  0  0  0
   23.7347  -12.5919  -20.8582 N   0  0  0  0  0  0  0  0  0  0  0  0
   22.8487   -8.5218  -18.2153 C   0  0  0  0  0  0  0  0  0  0  0  0
   22.0677   -7.8662  -18.9509 O   0  0  0  0  0  0  0  0  0  0  0  0
   23.6530   -7.8039  -17.3070 N   0  0  0  0  0  0  0  0  0  0  0  0
   23.5360   -6.3497  -17.0950 C   0  0  1  0  0  0  0  0  0  0  0  0
   22.9478   -6.1479  -15.7348 C   0  0  0  0  0  0  0  0  0  0  0  0
   22.8491   -4.7210  -15.2888 C   0  0  0  0  0  0  0  0  0  0  0  0
   22.0807   -4.6454  -13.9921 C   0  0  0  0  0  0  0  0  0  0  0  0
   22.5407   -5.0763  -12.9127 O   0  0  0  0  0  0  0  0  0  0  0  0
   24.8939   -5.7956  -17.2174 C   0  0  0  0  0  0  0  0  0  0  0  0
   25.8763   -6.4465  -16.8031 O   0  0  0  0  0  0  0  0  0  0  0  0
   20.8163   -4.0756  -14.0022 O   0  0  0  0  0  0  0  0  0  0  0  0
   25.1185   -4.5582  -17.7865 O   0  0  0  0  0  0  0  0  0  0  0  0
  1  2  1  0
  2  3  1  0
  3  5  1  0
  3  4  1  1
  5  6  2  0
  7  8  1  0
  7  5  1  0
  8  9  1  6
  9 10  1  0
 10 11  2  0
 11 12  1  0
 13 12  1  0
 14 10  1  0
 14 13  2  0
 15 16  2  0
 15  8  1  0
 17 15  1  0
 18 17  1  0
 18 23  1  0
 18 19  1  1
 20 21  1  0
 20 19  1  0
 21 25  1  0
 22 21  2  0
 23 26  1  0
 24 23  2  0
M  END
$$$$
