SHE.pdb
     RDKit          3D

 26 26  0  0  1  0  0  0  0  0999 V2000
   25.3149  -11.7048  -19.2288 O   0  0  0  0  0  0  0  0  0  0  0  0
   24.0325  -11.1854  -19.2493 C   0  0  0  0  0  0  0  0  0  0  0  0
   23.0106  -12.2122  -18.7411 C   0  0  2  0  0  0  0  0  0  0  0  0
   22.6075  -12.9790  -19.8943 N   0  0  0  0  0  0  0  0  0  0  0  0
   21.8961  -11.4147  -18.1646 C   0  0  0  0  0  0  0  0  0  0  0  0
   21.0794  -10.9104  -18.9654 O   0  0  0  0  0  0  0  0  0  0  0  0
   21.7103  -11.1978  -16.7818 N   0  0  0  0  0  0  0  0  0  0  0  0
   20.5617  -10.4632  -16.2488 C   0  0  1  0  0  0  0  0  0  0  0  0
   20.1373  -11.1321  -14.9522 C   0  0  0  0  0  0  0  0  0  0  0  0
   19.1961  -12.2416  -15.1638 C   0  0  0  0  0  0  0  0  0  0  0  0
   18.6914  -12.6386  -16.3830 C   0  0  0  0  0  0  0  0  0  0  0  0
   17.8581  -13.6887  -16.1931 N   0  0  0  0  0  0  0  0  0  0  0  0
   17.8379  -13.9528  -14.8565 C   0  0  0  0  0  0  0  0  0  0  0  0
   18.6590  -13.0606  -14.2477 N   0  0  0  0  0  0  0  0  0  0  0  0
   20.9347   -9.0494  -15.9559 C   0  0  0  0  0  0  0  0  0  0  0  0
   22.0666   -8.8055  -15.4660 O   0  0  0  0  0  0  0  0  0  0  0  0
   20.0764   -7.9585  -16.2015 N   0  0  0  0  0  0  0  0  0  0  0  0
   20.4517   -6.5572  -15.9393 C   0  0  1  0  0  0  0  0  0  0  0  0
   19.8990   -5.7351  -17.0598 C   0  0  0  0  0  0  0  0  0  0  0  0
   20.2343   -4.2759  -17.0050 C   0  0  0  0  0  0  0  0  0  0  0  0
   19.6413   -3.5725  -18.2012 C   0  0  0  0  0  0  0  0  0  0  0  0
   18.9927   -4.1767  -19.0824 O   0  0  0  0  0  0  0  0  0  0  0  0
   19.8731   -6.2035  -14.6330 C   0  0  0  0  0  0  0  0  0  0  0  0
   20.1565   -5.1115  -14.0968 O   0  0  0  0  0  0  0  0  0  0  0  0
   19.8250   -2.2032  -18.3244 O   0  0  0  0  0  0  0  0  0  0  0  0
   19.0116   -7.0559  -13.9721 O   0  0  0  0  0  0  0  0  0  0  0  0
  1  2  1  0
  2  3  1  0
  3  5  1  0
  3  4  1  6
  5  6  2  0
  7  8  1  0
  7  5  1  0
  8  9  1  1
  9 10  1  0
 10 11  2  0
 11 12  1  0
 13 12  1  0
 14 10  1  0
 14 13  2  0
 15 16  2  0
 15  8  1  0
 17 15  1  0
 18 17  1  0
 18 23  1  0
 18 19  1  6
 20 21  1  0
 20 19  1  0
 21 25  1  0
 22 21  2  0
 23 26  1  0
 24 23  2  0
M  END
$$$$
