SHE.pdb
     RDKit          3D

 26 26  0  0  1  0  0  0  0  0999 V2000
   12.6345   -8.5478  -12.3757 O   0  0  0  0  0  0  0  0  0  0  0  0
   13.9902   -8.2712  -12.3740 C   0  0  0  0  0  0  0  0  0  0  0  0
   14.8166   -9.5502  -12.1789 C   0  0  2  0  0  0  0  0  0  0  0  0
   14.6095   -9.9547  -10.8100 N   0  0  0  0  0  0  0  0  0  0  0  0
   16.2248   -9.1619  -12.4553 C   0  0  0  0  0  0  0  0  0  0  0  0
   16.8458   -8.5742  -11.5434 O   0  0  0  0  0  0  0  0  0  0  0  0
   16.8917   -9.4161  -13.6737 N   0  0  0  0  0  0  0  0  0  0  0  0
   18.2899   -9.0442  -13.8968 C   0  0  1  0  0  0  0  0  0  0  0  0
   18.9780  -10.2036  -14.5973 C   0  0  0  0  0  0  0  0  0  0  0  0
   20.3936   -9.9346  -14.8899 C   0  0  0  0  0  0  0  0  0  0  0  0
   20.9874  -10.0445  -16.1285 C   0  0  0  0  0  0  0  0  0  0  0  0
   22.2972   -9.7195  -16.0185 N   0  0  0  0  0  0  0  0  0  0  0  0
   22.5280   -9.4054  -14.7129 C   0  0  0  0  0  0  0  0  0  0  0  0
   21.3563   -9.5427  -14.0426 N   0  0  0  0  0  0  0  0  0  0  0  0
   18.3777   -7.8393  -14.7711 C   0  0  0  0  0  0  0  0  0  0  0  0
   17.5762   -7.7229  -15.7329 O   0  0  0  0  0  0  0  0  0  0  0  0
   19.3223   -6.8113  -14.5753 N   0  0  0  0  0  0  0  0  0  0  0  0
   19.4738   -5.6651  -15.4898 C   0  0  1  0  0  0  0  0  0  0  0  0
   19.2372   -4.4256  -14.6871 C   0  0  0  0  0  0  0  0  0  0  0  0
   19.4032   -3.1394  -15.4372 C   0  0  0  0  0  0  0  0  0  0  0  0
   19.1818   -1.9741  -14.5041 C   0  0  0  0  0  0  0  0  0  0  0  0
   19.9432   -0.9832  -14.4745 O   0  0  0  0  0  0  0  0  0  0  0  0
   20.8385   -5.7394  -16.0358 C   0  0  0  0  0  0  0  0  0  0  0  0
   21.0222   -5.7069  -17.2709 O   0  0  0  0  0  0  0  0  0  0  0  0
   18.0909   -2.0072  -13.6482 O   0  0  0  0  0  0  0  0  0  0  0  0
   21.9399   -5.8446  -15.2104 O   0  0  0  0  0  0  0  0  0  0  0  0
  1  2  1  0
  2  3  1  0
  3  5  1  0
  3  4  1  1
  5  6  2  0
  7  8  1  0
  7  5  1  0
  8  9  1  6
  9 10  1  0
 10 11  2  0
 11 12  1  0
 13 12  1  0
 14 10  1  0
 14 13  2  0
 15 16  2  0
 15  8  1  0
 17 15  1  0
 18 17  1  0
 18 23  1  0
 18 19  1  1
 20 21  1  0
 20 19  1  0
 21 25  1  0
 22 21  2  0
 23 26  1  0
 24 23  2  0
M  END
$$$$
