SHE.pdb
     RDKit          3D

 26 26  0  0  1  0  0  0  0  0999 V2000
   40.6565   -4.7158  -10.3824 O   0  0  0  0  0  0  0  0  0  0  0  0
   41.0057   -5.7754   -9.5640 C   0  0  0  0  0  0  0  0  0  0  0  0
   39.7744   -6.6078   -9.1795 C   0  0  2  0  0  0  0  0  0  0  0  0
   39.0805   -6.8879  -10.4126 N   0  0  0  0  0  0  0  0  0  0  0  0
   38.9836   -5.7493   -8.2587 C   0  0  0  0  0  0  0  0  0  0  0  0
   38.0034   -5.1426   -8.7423 O   0  0  0  0  0  0  0  0  0  0  0  0
   39.2732   -5.5826   -6.8869 N   0  0  0  0  0  0  0  0  0  0  0  0
   38.4586   -4.7417   -6.0081 C   0  0  1  0  0  0  0  0  0  0  0  0
   38.9566   -4.9292   -4.5849 C   0  0  0  0  0  0  0  0  0  0  0  0
   38.0864   -4.2903   -3.5868 C   0  0  0  0  0  0  0  0  0  0  0  0
   36.7281   -4.0989   -3.7180 C   0  0  0  0  0  0  0  0  0  0  0  0
   36.2617   -3.4816   -2.6068 N   0  0  0  0  0  0  0  0  0  0  0  0
   37.3244   -3.2844   -1.7771 C   0  0  0  0  0  0  0  0  0  0  0  0
   38.4258   -3.7839   -2.3924 N   0  0  0  0  0  0  0  0  0  0  0  0
   38.6030   -3.3043   -6.3779 C   0  0  0  0  0  0  0  0  0  0  0  0
   39.7258   -2.8797   -6.7518 O   0  0  0  0  0  0  0  0  0  0  0  0
   37.5356   -2.3846   -6.3305 N   0  0  0  0  0  0  0  0  0  0  0  0
   37.6718   -0.9652   -6.7047 C   0  0  1  0  0  0  0  0  0  0  0  0
   36.4629   -0.6022   -7.5068 C   0  0  0  0  0  0  0  0  0  0  0  0
   36.3737    0.8384   -7.9084 C   0  0  0  0  0  0  0  0  0  0  0  0
   35.1210    1.0639   -8.7191 C   0  0  0  0  0  0  0  0  0  0  0  0
   34.4032    0.1232   -9.1220 O   0  0  0  0  0  0  0  0  0  0  0  0
   37.7716   -0.2060   -5.4478 C   0  0  0  0  0  0  0  0  0  0  0  0
   38.4953    0.8103   -5.3850 O   0  0  0  0  0  0  0  0  0  0  0  0
   34.7551    2.3658   -9.0272 O   0  0  0  0  0  0  0  0  0  0  0  0
   37.0773   -0.5888   -4.3178 O   0  0  0  0  0  0  0  0  0  0  0  0
  1  2  1  0
  2  3  1  0
  3  5  1  0
  3  4  1  6
  5  6  2  0
  7  8  1  0
  7  5  1  0
  8  9  1  1
  9 10  1  0
 10 11  2  0
 11 12  1  0
 13 12  1  0
 14 10  1  0
 14 13  2  0
 15 16  2  0
 15  8  1  0
 17 15  1  0
 18 17  1  0
 18 23  1  0
 18 19  1  1
 20 21  1  0
 20 19  1  0
 21 25  1  0
 22 21  2  0
 23 26  1  0
 24 23  2  0
M  END
$$$$
