SHE.pdb
     RDKit          3D

 26 26  0  0  1  0  0  0  0  0999 V2000
   29.8520  -35.2279  -17.7939 O   0  0  0  0  0  0  0  0  0  0  0  0
   30.5206  -34.0255  -17.6466 C   0  0  0  0  0  0  0  0  0  0  0  0
   30.9813  -33.8217  -16.1964 C   0  0  2  0  0  0  0  0  0  0  0  0
   29.8005  -33.4654  -15.4485 N   0  0  0  0  0  0  0  0  0  0  0  0
   31.9819  -32.7232  -16.2458 C   0  0  0  0  0  0  0  0  0  0  0  0
   31.5495  -31.5624  -16.4136 O   0  0  0  0  0  0  0  0  0  0  0  0
   33.3748  -32.9145  -16.1157 N   0  0  0  0  0  0  0  0  0  0  0  0
   34.3198  -31.7978  -16.0608 C   0  0  1  0  0  0  0  0  0  0  0  0
   35.6157  -32.3088  -15.4542 C   0  0  0  0  0  0  0  0  0  0  0  0
   35.6554  -32.1685  -13.9912 C   0  0  0  0  0  0  0  0  0  0  0  0
   34.6713  -31.5922  -13.2177 C   0  0  0  0  0  0  0  0  0  0  0  0
   35.0494  -31.6390  -11.9185 N   0  0  0  0  0  0  0  0  0  0  0  0
   36.2695  -32.2440  -11.8735 C   0  0  0  0  0  0  0  0  0  0  0  0
   36.6206  -32.5585  -13.1459 N   0  0  0  0  0  0  0  0  0  0  0  0
   34.6049  -31.2856  -17.4320 C   0  0  0  0  0  0  0  0  0  0  0  0
   34.6143  -32.0930  -18.3958 O   0  0  0  0  0  0  0  0  0  0  0  0
   34.8675  -29.9287  -17.7095 N   0  0  0  0  0  0  0  0  0  0  0  0
   34.9820  -29.3885  -19.0764 C   0  0  1  0  0  0  0  0  0  0  0  0
   35.0104  -27.8977  -18.9610 C   0  0  0  0  0  0  0  0  0  0  0  0
   35.3191  -27.1661  -20.2314 C   0  0  0  0  0  0  0  0  0  0  0  0
   35.2455  -25.6779  -19.9922 C   0  0  0  0  0  0  0  0  0  0  0  0
   35.9979  -25.0891  -19.1860 O   0  0  0  0  0  0  0  0  0  0  0  0
   36.2223  -29.9404  -19.6448 C   0  0  0  0  0  0  0  0  0  0  0  0
   36.2910  -30.2018  -20.8644 O   0  0  0  0  0  0  0  0  0  0  0  0
   34.3062  -24.9383  -20.6952 O   0  0  0  0  0  0  0  0  0  0  0  0
   37.3307  -30.1810  -18.8580 O   0  0  0  0  0  0  0  0  0  0  0  0
  1  2  1  0
  2  3  1  0
  3  5  1  0
  3  4  1  1
  5  6  2  0
  7  8  1  0
  7  5  1  0
  8  9  1  6
  9 10  1  0
 10 11  2  0
 11 12  1  0
 13 12  1  0
 14 10  1  0
 14 13  2  0
 15 16  2  0
 15  8  1  0
 17 15  1  0
 18 17  1  0
 18 23  1  0
 18 19  1  1
 20 21  1  0
 20 19  1  0
 21 25  1  0
 22 21  2  0
 23 26  1  0
 24 23  2  0
M  END
$$$$
