SHE.pdb
     RDKit          3D

 26 26  0  0  1  0  0  0  0  0999 V2000
   12.1454  -10.4098  -14.5993 O   0  0  0  0  0  0  0  0  0  0  0  0
   13.4260  -10.0772  -14.1941 C   0  0  0  0  0  0  0  0  0  0  0  0
   14.3744  -11.2785  -14.3130 C   0  0  2  0  0  0  0  0  0  0  0  0
   14.0083  -12.1831  -13.2509 N   0  0  0  0  0  0  0  0  0  0  0  0
   15.7439  -10.7240  -14.1474 C   0  0  0  0  0  0  0  0  0  0  0  0
   16.0538  -10.2931  -13.0157 O   0  0  0  0  0  0  0  0  0  0  0  0
   16.7017  -10.6576  -15.1827 N   0  0  0  0  0  0  0  0  0  0  0  0
   18.0104  -10.0265  -15.0034 C   0  0  1  0  0  0  0  0  0  0  0  0
   19.0428  -10.8717  -15.7303 C   0  0  0  0  0  0  0  0  0  0  0  0
   20.4025  -10.3210  -15.6323 C   0  0  0  0  0  0  0  0  0  0  0  0
   20.7440   -9.1460  -14.9986 C   0  0  0  0  0  0  0  0  0  0  0  0
   22.0803   -8.9586  -15.1100 N   0  0  0  0  0  0  0  0  0  0  0  0
   22.5798  -10.0139  -15.8126 C   0  0  0  0  0  0  0  0  0  0  0  0
   21.5421  -10.8318  -16.1211 N   0  0  0  0  0  0  0  0  0  0  0  0
   18.0158   -8.6565  -15.5926 C   0  0  0  0  0  0  0  0  0  0  0  0
   17.3126   -8.4261  -16.6091 O   0  0  0  0  0  0  0  0  0  0  0  0
   18.7759   -7.5930  -15.0650 N   0  0  0  0  0  0  0  0  0  0  0  0
   18.7935   -6.2406  -15.6515 C   0  0  1  0  0  0  0  0  0  0  0  0
   17.4755   -5.6066  -15.3389 C   0  0  0  0  0  0  0  0  0  0  0  0
   17.3704   -4.1523  -15.6830 C   0  0  0  0  0  0  0  0  0  0  0  0
   16.0354   -3.6168  -15.2267 C   0  0  0  0  0  0  0  0  0  0  0  0
   15.9197   -2.5314  -14.6176 O   0  0  0  0  0  0  0  0  0  0  0  0
   19.9277   -5.5305  -15.0388 C   0  0  0  0  0  0  0  0  0  0  0  0
   20.3828   -5.9076  -13.9384 O   0  0  0  0  0  0  0  0  0  0  0  0
   14.8954   -4.3598  -15.4951 O   0  0  0  0  0  0  0  0  0  0  0  0
   20.5142   -4.4430  -15.6543 O   0  0  0  0  0  0  0  0  0  0  0  0
  1  2  1  0
  2  3  1  0
  3  5  1  0
  3  4  1  1
  5  6  2  0
  7  8  1  0
  7  5  1  0
  8  9  1  6
  9 10  1  0
 10 11  2  0
 11 12  1  0
 13 12  1  0
 14 10  1  0
 14 13  2  0
 15 16  2  0
 15  8  1  0
 17 15  1  0
 18 17  1  0
 18 23  1  0
 18 19  1  1
 20 21  1  0
 20 19  1  0
 21 25  1  0
 22 21  2  0
 23 26  1  0
 24 23  2  0
M  END
$$$$
