SHE.pdb
     RDKit          3D

 26 26  0  0  1  0  0  0  0  0999 V2000
   24.1743  -39.7301   -6.2351 O   0  0  0  0  0  0  0  0  0  0  0  0
   23.3275  -38.7045   -6.6167 C   0  0  0  0  0  0  0  0  0  0  0  0
   24.0489  -37.6995   -7.5258 C   0  0  2  0  0  0  0  0  0  0  0  0
   24.7451  -38.4845   -8.5156 N   0  0  0  0  0  0  0  0  0  0  0  0
   24.9731  -36.9480   -6.6362 C   0  0  0  0  0  0  0  0  0  0  0  0
   26.1778  -37.2810   -6.6501 O   0  0  0  0  0  0  0  0  0  0  0  0
   24.5720  -35.8931   -5.7876 N   0  0  0  0  0  0  0  0  0  0  0  0
   25.5306  -34.9842   -5.1567 C   0  0  1  0  0  0  0  0  0  0  0  0
   25.0207  -33.5644   -5.3381 C   0  0  0  0  0  0  0  0  0  0  0  0
   25.3548  -33.0019   -6.6548 C   0  0  0  0  0  0  0  0  0  0  0  0
   26.0136  -33.6696   -7.6642 C   0  0  0  0  0  0  0  0  0  0  0  0
   26.1457  -32.8408   -8.7266 N   0  0  0  0  0  0  0  0  0  0  0  0
   25.5710  -31.6528   -8.3870 C   0  0  0  0  0  0  0  0  0  0  0  0
   25.0956  -31.7718   -7.1218 N   0  0  0  0  0  0  0  0  0  0  0  0
   25.6390  -35.2687   -3.6969 C   0  0  0  0  0  0  0  0  0  0  0  0
   24.5877  -35.4327   -3.0270 O   0  0  0  0  0  0  0  0  0  0  0  0
   26.8713  -35.3650   -3.0191 N   0  0  0  0  0  0  0  0  0  0  0  0
   26.9849  -35.7000   -1.5880 C   0  0  1  0  0  0  0  0  0  0  0  0
   28.4276  -35.9838   -1.3143 C   0  0  0  0  0  0  0  0  0  0  0  0
   28.7674  -36.2260    0.1246 C   0  0  0  0  0  0  0  0  0  0  0  0
   30.2649  -36.3239    0.2841 C   0  0  0  0  0  0  0  0  0  0  0  0
   31.0516  -36.2174   -0.6814 O   0  0  0  0  0  0  0  0  0  0  0  0
   26.4809  -34.5360   -0.8417 C   0  0  0  0  0  0  0  0  0  0  0  0
   26.5725  -33.3902   -1.3306 O   0  0  0  0  0  0  0  0  0  0  0  0
   30.7846  -36.5404    1.5517 O   0  0  0  0  0  0  0  0  0  0  0  0
   25.8993  -34.6747    0.4025 O   0  0  0  0  0  0  0  0  0  0  0  0
  1  2  1  0
  2  3  1  0
  3  5  1  0
  3  4  1  6
  5  6  2  0
  7  8  1  0
  7  5  1  0
  8  9  1  1
  9 10  1  0
 10 11  2  0
 11 12  1  0
 13 12  1  0
 14 10  1  0
 14 13  2  0
 15 16  2  0
 15  8  1  0
 17 15  1  0
 18 17  1  0
 18 23  1  0
 18 19  1  1
 20 21  1  0
 20 19  1  0
 21 25  1  0
 22 21  2  0
 23 26  1  0
 24 23  2  0
M  END
$$$$
