SHE.pdb
     RDKit          3D

 26 26  0  0  1  0  0  0  0  0999 V2000
   26.8160  -10.8644  -14.8050 O   0  0  0  0  0  0  0  0  0  0  0  0
   25.6234  -10.3364  -15.2671 C   0  0  0  0  0  0  0  0  0  0  0  0
   25.1337  -11.0832  -16.5158 C   0  0  2  0  0  0  0  0  0  0  0  0
   26.0071  -10.6801  -17.5906 N   0  0  0  0  0  0  0  0  0  0  0  0
   23.7295  -10.6401  -16.7212 C   0  0  0  0  0  0  0  0  0  0  0  0
   23.5532   -9.5552  -17.3166 O   0  0  0  0  0  0  0  0  0  0  0  0
   22.5987  -11.3659  -16.2875 N   0  0  0  0  0  0  0  0  0  0  0  0
   21.2297  -10.9111  -16.5371 C   0  0  1  0  0  0  0  0  0  0  0  0
   20.2992  -12.0973  -16.3482 C   0  0  0  0  0  0  0  0  0  0  0  0
   18.8926  -11.7685  -16.6224 C   0  0  0  0  0  0  0  0  0  0  0  0
   18.4148  -10.5190  -16.9527 C   0  0  0  0  0  0  0  0  0  0  0  0
   17.0750  -10.5941  -17.1330 N   0  0  0  0  0  0  0  0  0  0  0  0
   16.7094  -11.8888  -16.9166 C   0  0  0  0  0  0  0  0  0  0  0  0
   17.8307  -12.5873  -16.6070 N   0  0  0  0  0  0  0  0  0  0  0  0
   20.8470   -9.8459  -15.5662 C   0  0  0  0  0  0  0  0  0  0  0  0
   21.3964   -9.8241  -14.4355 O   0  0  0  0  0  0  0  0  0  0  0  0
   19.8909   -8.8499  -15.8510 N   0  0  0  0  0  0  0  0  0  0  0  0
   19.6916   -7.6543  -15.0119 C   0  0  1  0  0  0  0  0  0  0  0  0
   20.9931   -6.9183  -14.9760 C   0  0  0  0  0  0  0  0  0  0  0  0
   20.9424   -5.5653  -14.3345 C   0  0  0  0  0  0  0  0  0  0  0  0
   22.3294   -4.9726  -14.2871 C   0  0  0  0  0  0  0  0  0  0  0  0
   23.1185   -5.0317  -15.2547 O   0  0  0  0  0  0  0  0  0  0  0  0
   18.6124   -6.8746  -15.6392 C   0  0  0  0  0  0  0  0  0  0  0  0
   17.9244   -6.0905  -14.9520 O   0  0  0  0  0  0  0  0  0  0  0  0
   22.7409   -4.3387  -13.1241 O   0  0  0  0  0  0  0  0  0  0  0  0
   18.3336   -6.9847  -16.9867 O   0  0  0  0  0  0  0  0  0  0  0  0
  1  2  1  0
  2  3  1  0
  3  5  1  0
  3  4  1  6
  5  6  2  0
  7  8  1  0
  7  5  1  0
  8  9  1  1
  9 10  1  0
 10 11  2  0
 11 12  1  0
 13 12  1  0
 14 10  1  0
 14 13  2  0
 15 16  2  0
 15  8  1  0
 17 15  1  0
 18 17  1  0
 18 23  1  0
 18 19  1  6
 20 21  1  0
 20 19  1  0
 21 25  1  0
 22 21  2  0
 23 26  1  0
 24 23  2  0
M  END
$$$$
