SHE.pdb
     RDKit          3D

 26 26  0  0  1  0  0  0  0  0999 V2000
   18.3021  -26.8284   -9.1476 O   0  0  0  0  0  0  0  0  0  0  0  0
   18.7480  -26.0548  -10.2046 C   0  0  0  0  0  0  0  0  0  0  0  0
   19.0905  -26.9248  -11.4223 C   0  0  2  0  0  0  0  0  0  0  0  0
   20.2057  -27.7482  -11.0240 N   0  0  0  0  0  0  0  0  0  0  0  0
   19.4404  -25.9716  -12.5083 C   0  0  0  0  0  0  0  0  0  0  0  0
   20.4985  -25.3190  -12.3779 O   0  0  0  0  0  0  0  0  0  0  0  0
   18.6554  -25.7648  -13.6636 N   0  0  0  0  0  0  0  0  0  0  0  0
   19.0614  -24.8563  -14.7374 C   0  0  1  0  0  0  0  0  0  0  0  0
   18.1930  -25.1452  -15.9502 C   0  0  0  0  0  0  0  0  0  0  0  0
   18.5224  -24.2950  -17.1036 C   0  0  0  0  0  0  0  0  0  0  0  0
   19.2417  -24.6934  -18.2093 C   0  0  0  0  0  0  0  0  0  0  0  0
   19.3481  -23.6491  -19.0644 N   0  0  0  0  0  0  0  0  0  0  0  0
   18.6968  -22.5945  -18.4983 C   0  0  0  0  0  0  0  0  0  0  0  0
   18.2013  -23.0086  -17.3050 N   0  0  0  0  0  0  0  0  0  0  0  0
   18.8530  -23.4373  -14.3291 C   0  0  0  0  0  0  0  0  0  0  0  0
   18.1181  -23.1881  -13.3399 O   0  0  0  0  0  0  0  0  0  0  0  0
   19.4426  -22.3469  -15.0006 N   0  0  0  0  0  0  0  0  0  0  0  0
   19.3570  -20.9563  -14.5187 C   0  0  1  0  0  0  0  0  0  0  0  0
   19.9775  -20.9215  -13.1584 C   0  0  0  0  0  0  0  0  0  0  0  0
   20.0974  -19.5587  -12.5476 C   0  0  0  0  0  0  0  0  0  0  0  0
   20.6339  -19.6767  -11.1420 C   0  0  0  0  0  0  0  0  0  0  0  0
   21.0068  -20.7657  -10.6546 O   0  0  0  0  0  0  0  0  0  0  0  0
   20.0790  -20.1266  -15.4966 C   0  0  0  0  0  0  0  0  0  0  0  0
   20.9219  -20.6458  -16.2584 O   0  0  0  0  0  0  0  0  0  0  0  0
   20.7149  -18.5313  -10.3642 O   0  0  0  0  0  0  0  0  0  0  0  0
   19.8484  -18.7695  -15.5997 O   0  0  0  0  0  0  0  0  0  0  0  0
  1  2  1  0
  2  3  1  0
  3  5  1  0
  3  4  1  1
  5  6  2  0
  7  8  1  0
  7  5  1  0
  8  9  1  6
  9 10  1  0
 10 11  2  0
 11 12  1  0
 13 12  1  0
 14 10  1  0
 14 13  2  0
 15 16  2  0
 15  8  1  0
 17 15  1  0
 18 17  1  0
 18 23  1  0
 18 19  1  1
 20 21  1  0
 20 19  1  0
 21 25  1  0
 22 21  2  0
 23 26  1  0
 24 23  2  0
M  END
$$$$
