SHE.pdb
     RDKit          3D

 26 26  0  0  1  0  0  0  0  0999 V2000
   21.6287   -7.6238  -20.3604 O   0  0  0  0  0  0  0  0  0  0  0  0
   21.5572   -8.9994  -20.4922 C   0  0  0  0  0  0  0  0  0  0  0  0
   20.1778   -9.5255  -20.0712 C   0  0  2  0  0  0  0  0  0  0  0  0
   19.2258   -8.9074  -20.9612 N   0  0  0  0  0  0  0  0  0  0  0  0
   20.0021   -9.0991  -18.6578 C   0  0  0  0  0  0  0  0  0  0  0  0
   19.2532   -8.1213  -18.4440 O   0  0  0  0  0  0  0  0  0  0  0  0
   20.6251   -9.7279  -17.5578 N   0  0  0  0  0  0  0  0  0  0  0  0
   20.3746   -9.3205  -16.1742 C   0  0  1  0  0  0  0  0  0  0  0  0
   20.5647  -10.5375  -15.2847 C   0  0  0  0  0  0  0  0  0  0  0  0
   19.4008  -11.4358  -15.2900 C   0  0  0  0  0  0  0  0  0  0  0  0
   18.2186  -11.2063  -15.9597 C   0  0  0  0  0  0  0  0  0  0  0  0
   17.3783  -12.2444  -15.7370 N   0  0  0  0  0  0  0  0  0  0  0  0
   18.0301  -13.1263  -14.9283 C   0  0  0  0  0  0  0  0  0  0  0  0
   19.2598  -12.6153  -14.6678 N   0  0  0  0  0  0  0  0  0  0  0  0
   21.3439   -8.2677  -15.7549 C   0  0  0  0  0  0  0  0  0  0  0  0
   22.5321   -8.3351  -16.1605 O   0  0  0  0  0  0  0  0  0  0  0  0
   20.9959   -7.1878  -14.9183 N   0  0  0  0  0  0  0  0  0  0  0  0
   21.9212   -6.0894  -14.5858 C   0  0  1  0  0  0  0  0  0  0  0  0
   21.4698   -4.8854  -15.3495 C   0  0  0  0  0  0  0  0  0  0  0  0
   22.2272   -3.6258  -15.0592 C   0  0  0  0  0  0  0  0  0  0  0  0
   21.6483   -2.4874  -15.8631 C   0  0  0  0  0  0  0  0  0  0  0  0
   21.6387   -2.4845  -17.1131 O   0  0  0  0  0  0  0  0  0  0  0  0
   21.8456   -5.9017  -13.1280 C   0  0  0  0  0  0  0  0  0  0  0  0
   22.6524   -5.1425  -12.5509 O   0  0  0  0  0  0  0  0  0  0  0  0
   21.1072   -1.4046  -15.1860 O   0  0  0  0  0  0  0  0  0  0  0  0
   20.8934   -6.5493  -12.3667 O   0  0  0  0  0  0  0  0  0  0  0  0
  1  2  1  0
  2  3  1  0
  3  5  1  0
  3  4  1  6
  5  6  2  0
  7  8  1  0
  7  5  1  0
  8  9  1  1
  9 10  1  0
 10 11  2  0
 11 12  1  0
 13 12  1  0
 14 10  1  0
 14 13  2  0
 15 16  2  0
 15  8  1  0
 17 15  1  0
 18 17  1  0
 18 23  1  0
 18 19  1  6
 20 21  1  0
 20 19  1  0
 21 25  1  0
 22 21  2  0
 23 26  1  0
 24 23  2  0
M  END
$$$$
