SHE.pdb
     RDKit          3D

 26 26  0  0  1  0  0  0  0  0999 V2000
   22.8760   -9.4097  -18.4561 O   0  0  0  0  0  0  0  0  0  0  0  0
   21.5810   -9.1769  -18.0278 C   0  0  0  0  0  0  0  0  0  0  0  0
   20.8819  -10.4873  -17.6390 C   0  0  2  0  0  0  0  0  0  0  0  0
   20.5232  -11.1317  -18.8786 N   0  0  0  0  0  0  0  0  0  0  0  0
   19.6960  -10.0848  -16.8378 C   0  0  0  0  0  0  0  0  0  0  0  0
   18.6699   -9.7450  -17.4656 O   0  0  0  0  0  0  0  0  0  0  0  0
   19.6637  -10.0649  -15.4264 N   0  0  0  0  0  0  0  0  0  0  0  0
   18.4953   -9.6058  -14.6733 C   0  0  1  0  0  0  0  0  0  0  0  0
   18.4934  -10.3165  -13.3304 C   0  0  0  0  0  0  0  0  0  0  0  0
   17.3064  -10.0040  -12.5210 C   0  0  0  0  0  0  0  0  0  0  0  0
   16.3092   -9.1211  -12.8745 C   0  0  0  0  0  0  0  0  0  0  0  0
   15.3812   -9.0885  -11.8891 N   0  0  0  0  0  0  0  0  0  0  0  0
   15.7931   -9.9494  -10.9165 C   0  0  0  0  0  0  0  0  0  0  0  0
   16.9672  -10.4964  -11.3206 N   0  0  0  0  0  0  0  0  0  0  0  0
   18.5712   -8.1358  -14.4344 C   0  0  0  0  0  0  0  0  0  0  0  0
   19.6943   -7.6066  -14.2355 O   0  0  0  0  0  0  0  0  0  0  0  0
   17.4381   -7.2972  -14.4194 N   0  0  0  0  0  0  0  0  0  0  0  0
   17.5156   -5.8330  -14.2664 C   0  0  1  0  0  0  0  0  0  0  0  0
   18.3928   -5.3203  -15.3638 C   0  0  0  0  0  0  0  0  0  0  0  0
   18.5172   -3.8290  -15.4358 C   0  0  0  0  0  0  0  0  0  0  0  0
   19.4931   -3.4519  -16.5234 C   0  0  0  0  0  0  0  0  0  0  0  0
   19.1591   -2.7771  -17.5212 O   0  0  0  0  0  0  0  0  0  0  0  0
   16.1365   -5.3268  -14.3546 C   0  0  0  0  0  0  0  0  0  0  0  0
   15.2301   -6.0535  -14.8137 O   0  0  0  0  0  0  0  0  0  0  0  0
   20.8100   -3.8718  -16.4083 O   0  0  0  0  0  0  0  0  0  0  0  0
   15.8088   -4.0523  -13.9376 O   0  0  0  0  0  0  0  0  0  0  0  0
  1  2  1  0
  2  3  1  0
  3  5  1  0
  3  4  1  6
  5  6  2  0
  7  8  1  0
  7  5  1  0
  8  9  1  1
  9 10  1  0
 10 11  2  0
 11 12  1  0
 13 12  1  0
 14 10  1  0
 14 13  2  0
 15 16  2  0
 15  8  1  0
 17 15  1  0
 18 17  1  0
 18 23  1  0
 18 19  1  6
 20 21  1  0
 20 19  1  0
 21 25  1  0
 22 21  2  0
 23 26  1  0
 24 23  2  0
M  END
$$$$
