SHE.pdb
     RDKit          3D

 26 26  0  0  1  0  0  0  0  0999 V2000
   24.9145  -12.1138  -18.8409 O   0  0  0  0  0  0  0  0  0  0  0  0
   23.9161  -11.1602  -18.7481 C   0  0  0  0  0  0  0  0  0  0  0  0
   22.5612  -11.8059  -18.4253 C   0  0  2  0  0  0  0  0  0  0  0  0
   22.0117  -12.2340  -19.6883 N   0  0  0  0  0  0  0  0  0  0  0  0
   21.7530  -10.7374  -17.7809 C   0  0  0  0  0  0  0  0  0  0  0  0
   21.2586   -9.8651  -18.5274 O   0  0  0  0  0  0  0  0  0  0  0  0
   21.5154  -10.6533  -16.3916 N   0  0  0  0  0  0  0  0  0  0  0  0
   20.6699   -9.6148  -15.8003 C   0  0  1  0  0  0  0  0  0  0  0  0
   19.9959  -10.2014  -14.5714 C   0  0  0  0  0  0  0  0  0  0  0  0
   18.8383  -11.0449  -14.9033 C   0  0  0  0  0  0  0  0  0  0  0  0
   17.9700  -10.8319  -15.9519 C   0  0  0  0  0  0  0  0  0  0  0  0
   17.0295  -11.8058  -15.9488 N   0  0  0  0  0  0  0  0  0  0  0  0
   17.3049  -12.6311  -14.9000 C   0  0  0  0  0  0  0  0  0  0  0  0
   18.4099  -12.1502  -14.2764 N   0  0  0  0  0  0  0  0  0  0  0  0
   21.4943   -8.4456  -15.3793 C   0  0  0  0  0  0  0  0  0  0  0  0
   22.6260   -8.6480  -14.8702 O   0  0  0  0  0  0  0  0  0  0  0  0
   21.0682   -7.1096  -15.5230 N   0  0  0  0  0  0  0  0  0  0  0  0
   21.8736   -5.9517  -15.0942 C   0  0  1  0  0  0  0  0  0  0  0  0
   21.4002   -4.7697  -15.8788 C   0  0  0  0  0  0  0  0  0  0  0  0
   21.9242   -3.4453  -15.4143 C   0  0  0  0  0  0  0  0  0  0  0  0
   21.2160   -2.3325  -16.1476 C   0  0  0  0  0  0  0  0  0  0  0  0
   20.3868   -2.5490  -17.0576 O   0  0  0  0  0  0  0  0  0  0  0  0
   21.6556   -5.7999  -13.6466 C   0  0  0  0  0  0  0  0  0  0  0  0
   20.6099   -6.2366  -13.1209 O   0  0  0  0  0  0  0  0  0  0  0  0
   21.4984   -1.0209  -15.7960 O   0  0  0  0  0  0  0  0  0  0  0  0
   22.5876   -5.1801  -12.8387 O   0  0  0  0  0  0  0  0  0  0  0  0
  1  2  1  0
  2  3  1  0
  3  5  1  0
  3  4  1  6
  5  6  2  0
  7  8  1  0
  7  5  1  0
  8  9  1  1
  9 10  1  0
 10 11  2  0
 11 12  1  0
 13 12  1  0
 14 10  1  0
 14 13  2  0
 15 16  2  0
 15  8  1  0
 17 15  1  0
 18 17  1  0
 18 23  1  0
 18 19  1  6
 20 21  1  0
 20 19  1  0
 21 25  1  0
 22 21  2  0
 23 26  1  0
 24 23  2  0
M  END
$$$$
