SHE.pdb
     RDKit          3D

 26 26  0  0  1  0  0  0  0  0999 V2000
   19.4535  -14.0988  -14.9509 O   0  0  0  0  0  0  0  0  0  0  0  0
   19.3915  -12.8334  -15.5073 C   0  0  0  0  0  0  0  0  0  0  0  0
   17.9638  -12.2720  -15.4497 C   0  0  2  0  0  0  0  0  0  0  0  0
   17.2134  -12.9847  -16.4544 N   0  0  0  0  0  0  0  0  0  0  0  0
   18.0924  -10.8219  -15.7512 C   0  0  0  0  0  0  0  0  0  0  0  0
   18.1768  -10.4929  -16.9542 O   0  0  0  0  0  0  0  0  0  0  0  0
   18.1241   -9.8086  -14.7684 N   0  0  0  0  0  0  0  0  0  0  0  0
   18.2367   -8.3887  -15.1068 C   0  0  1  0  0  0  0  0  0  0  0  0
   17.1213   -7.6456  -14.3911 C   0  0  0  0  0  0  0  0  0  0  0  0
   15.8186   -7.7929  -15.0568 C   0  0  0  0  0  0  0  0  0  0  0  0
   15.3738   -7.0335  -16.1171 C   0  0  0  0  0  0  0  0  0  0  0  0
   14.1338   -7.4500  -16.4666 N   0  0  0  0  0  0  0  0  0  0  0  0
   13.7981   -8.4701  -15.6279 C   0  0  0  0  0  0  0  0  0  0  0  0
   14.8374   -8.6631  -14.7772 N   0  0  0  0  0  0  0  0  0  0  0  0
   19.5455   -7.8430  -14.6453 C   0  0  0  0  0  0  0  0  0  0  0  0
   20.0018   -8.2095  -13.5325 O   0  0  0  0  0  0  0  0  0  0  0  0
   20.3082   -6.9273  -15.3984 N   0  0  0  0  0  0  0  0  0  0  0  0
   21.6615   -6.4890  -15.0118 C   0  0  1  0  0  0  0  0  0  0  0  0
   22.2331   -5.7428  -16.1751 C   0  0  0  0  0  0  0  0  0  0  0  0
   23.6058   -5.1824  -15.9602 C   0  0  0  0  0  0  0  0  0  0  0  0
   24.0257   -4.3865  -17.1718 C   0  0  0  0  0  0  0  0  0  0  0  0
   24.0609   -4.8793  -18.3200 O   0  0  0  0  0  0  0  0  0  0  0  0
   21.5056   -5.6470  -13.8148 C   0  0  0  0  0  0  0  0  0  0  0  0
   22.3817   -5.6548  -12.9244 O   0  0  0  0  0  0  0  0  0  0  0  0
   24.3855   -3.0580  -17.0011 O   0  0  0  0  0  0  0  0  0  0  0  0
   20.4027   -4.8346  -13.6441 O   0  0  0  0  0  0  0  0  0  0  0  0
  1  2  1  0
  2  3  1  0
  3  5  1  0
  3  4  1  6
  5  6  2  0
  7  8  1  0
  7  5  1  0
  8  9  1  1
  9 10  1  0
 10 11  2  0
 11 12  1  0
 13 12  1  0
 14 10  1  0
 14 13  2  0
 15 16  2  0
 15  8  1  0
 17 15  1  0
 18 17  1  0
 18 23  1  0
 18 19  1  6
 20 21  1  0
 20 19  1  0
 21 25  1  0
 22 21  2  0
 23 26  1  0
 24 23  2  0
M  END
$$$$
