FRF.pdb
     RDKit          3D

 34 35  0  0  1  0  0  0  0  0999 V2000
   26.3583  -18.7358   -7.6730 N   0  0  0  0  0  0  0  0  0  0  0  0
   27.1484  -19.7553   -8.3337 C   0  0  1  0  0  0  0  0  0  0  0  0
   27.3512  -20.8732   -7.3449 C   0  0  0  0  0  0  0  0  0  0  0  0
   28.1518  -20.4971   -6.1975 C   0  0  0  0  0  0  0  0  0  0  0  0
   29.4557  -20.0966   -6.3572 C   0  0  0  0  0  0  0  0  0  0  0  0
   30.2521  -19.7292   -5.2833 C   0  0  0  0  0  0  0  0  0  0  0  0
   29.7231  -19.7655   -4.0140 C   0  0  0  0  0  0  0  0  0  0  0  0
   28.4249  -20.1607   -3.8204 C   0  0  0  0  0  0  0  0  0  0  0  0
   27.6570  -20.5208   -4.9124 C   0  0  0  0  0  0  0  0  0  0  0  0
   26.4596  -20.1533   -9.5467 C   0  0  0  0  0  0  0  0  0  0  0  0
   25.2144  -20.3279   -9.5386 O   0  0  0  0  0  0  0  0  0  0  0  0
   25.5401  -20.6106  -16.8021 N   0  0  0  0  0  0  0  0  0  0  0  0
   26.4690  -21.5985  -17.1902 C   0  0  0  0  0  0  0  0  0  0  0  0
   26.1120  -22.4366  -18.1316 N   0  0  0  0  0  0  0  0  0  0  0  0
   27.7401  -21.6706  -16.5751 N   0  0  0  0  0  0  0  0  0  0  0  0
   28.0311  -20.8605  -15.4422 C   0  0  0  0  0  0  0  0  0  0  0  0
   26.9624  -20.9313  -14.3719 C   0  0  0  0  0  0  0  0  0  0  0  0
   27.4010  -20.0587  -13.2264 C   0  0  0  0  0  0  0  0  0  0  0  0
   26.4426  -20.0842  -12.0682 C   0  0  2  0  0  0  0  0  0  0  0  0
   27.0938  -20.3760  -10.8101 N   0  0  0  0  0  0  0  0  0  0  0  0
   25.3375  -21.0436  -12.2617 C   0  0  0  0  0  0  0  0  0  0  0  0
   25.2832  -22.0453  -11.5037 O   0  0  0  0  0  0  0  0  0  0  0  0
   26.7618  -23.1548  -18.4955 N   0  0  0  0  0  0  0  0  0  0  0  0
   24.3367  -20.9179  -13.2366 C   0  0  2  0  0  0  0  0  0  0  0  0
   23.0094  -21.4371  -12.9994 C   0  0  0  0  0  0  0  0  0  0  0  0
   22.4506  -20.9015  -11.6945 C   0  0  0  0  0  0  0  0  0  0  0  0
   21.0604  -21.3659  -11.5036 C   0  0  0  0  0  0  0  0  0  0  0  0
   20.6807  -22.0778  -10.3678 C   0  0  0  0  0  0  0  0  0  0  0  0
   19.4033  -22.5150  -10.1475 C   0  0  0  0  0  0  0  0  0  0  0  0
   18.4237  -22.2610  -11.0627 C   0  0  0  0  0  0  0  0  0  0  0  0
   18.7423  -21.5599  -12.2066 C   0  0  0  0  0  0  0  0  0  0  0  0
   20.0352  -21.1266  -12.4122 C   0  0  0  0  0  0  0  0  0  0  0  0
   22.1729  -21.1656  -14.1679 O   0  0  0  0  0  0  0  0  0  0  0  0
   22.3161  -20.0548  -14.7740 O   0  0  0  0  0  0  0  0  0  0  0  0
  2  1  1  1
  2  3  1  0
  3  4  1  0
  4  5  2  0
  4  9  1  0
  5  6  1  0
  6  7  2  0
  8  7  1  0
  9  8  2  0
 10 20  1  0
 10  2  1  0
 11 10  2  0
 13 12  1  0
 13 15  1  0
 14 13  2  0
 16 15  1  0
 16 17  1  0
 17 18  1  0
 19 18  1  6
 19 21  1  0
 19 20  1  0
 21 23  1  0
 22 21  2  0
 23 24  1  0
 24 32  1  0
 24 25  1  6
 25 26  1  0
 26 27  2  0
 27 28  1  0
 29 28  2  0
 30 29  1  0
 31 26  1  0
 31 30  2  0
 32 34  1  0
 33 32  2  0
M  END
$$$$
