FRF.pdb
     RDKit          3D

 34 35  0  0  1  0  0  0  0  0999 V2000
   25.3244  -19.8912   -7.5534 N   0  0  0  0  0  0  0  0  0  0  0  0
   26.4727  -20.0858   -8.4158 C   0  0  1  0  0  0  0  0  0  0  0  0
   27.4722  -20.9113   -7.6487 C   0  0  0  0  0  0  0  0  0  0  0  0
   28.0181  -20.2349   -6.4896 C   0  0  0  0  0  0  0  0  0  0  0  0
   27.7395  -20.6858   -5.2227 C   0  0  0  0  0  0  0  0  0  0  0  0
   28.2440  -20.0647   -4.0903 C   0  0  0  0  0  0  0  0  0  0  0  0
   29.0507  -18.9601   -4.2356 C   0  0  0  0  0  0  0  0  0  0  0  0
   29.3481  -18.4847   -5.4865 C   0  0  0  0  0  0  0  0  0  0  0  0
   28.8291  -19.1267   -6.5956 C   0  0  0  0  0  0  0  0  0  0  0  0
   26.0193  -20.6985   -9.6499 C   0  0  0  0  0  0  0  0  0  0  0  0
   24.8123  -21.0220   -9.7893 O   0  0  0  0  0  0  0  0  0  0  0  0
   28.1714  -23.0798  -17.1230 N   0  0  0  0  0  0  0  0  0  0  0  0
   28.6095  -21.7625  -17.3726 C   0  0  0  0  0  0  0  0  0  0  0  0
   29.2673  -21.5375  -18.4829 N   0  0  0  0  0  0  0  0  0  0  0  0
   28.3408  -20.7285  -16.4464 N   0  0  0  0  0  0  0  0  0  0  0  0
   27.6580  -21.0183  -15.2322 C   0  0  0  0  0  0  0  0  0  0  0  0
   27.5210  -19.8128  -14.3263 C   0  0  0  0  0  0  0  0  0  0  0  0
   27.8140  -20.2600  -12.9191 C   0  0  0  0  0  0  0  0  0  0  0  0
   26.5714  -20.4786  -12.1014 C   0  0  2  0  0  0  0  0  0  0  0  0
   26.8559  -20.9825  -10.7759 N   0  0  0  0  0  0  0  0  0  0  0  0
   25.6091  -21.3871  -12.7556 C   0  0  0  0  0  0  0  0  0  0  0  0
   25.5518  -22.5774  -12.3548 O   0  0  0  0  0  0  0  0  0  0  0  0
   29.6632  -20.6069  -18.7014 N   0  0  0  0  0  0  0  0  0  0  0  0
   24.7482  -21.0161  -13.7991 C   0  0  2  0  0  0  0  0  0  0  0  0
   23.3638  -21.4297  -13.7929 C   0  0  0  0  0  0  0  0  0  0  0  0
   22.7113  -21.0954  -12.4645 C   0  0  0  0  0  0  0  0  0  0  0  0
   21.2704  -21.4221  -12.5050 C   0  0  0  0  0  0  0  0  0  0  0  0
   20.8137  -22.7236  -12.3087 C   0  0  0  0  0  0  0  0  0  0  0  0
   19.4893  -23.0656  -12.3266 C   0  0  0  0  0  0  0  0  0  0  0  0
   18.5374  -22.1127  -12.5445 C   0  0  0  0  0  0  0  0  0  0  0  0
   18.9318  -20.8066  -12.7450 C   0  0  0  0  0  0  0  0  0  0  0  0
   20.2713  -20.4797  -12.7236 C   0  0  0  0  0  0  0  0  0  0  0  0
   22.6872  -20.8566  -14.9559 O   0  0  0  0  0  0  0  0  0  0  0  0
   21.9463  -21.6134  -15.6631 O   0  0  0  0  0  0  0  0  0  0  0  0
  2  1  1  1
  2  3  1  0
  3  4  1  0
  4  5  2  0
  4  9  1  0
  5  6  1  0
  6  7  2  0
  8  7  1  0
  9  8  2  0
 10 20  1  0
 10  2  1  0
 11 10  2  0
 13 12  1  0
 13 15  1  0
 14 13  2  0
 16 15  1  0
 16 17  1  0
 17 18  1  0
 19 18  1  6
 19 21  1  0
 19 20  1  0
 21 23  1  0
 22 21  2  0
 23 24  1  0
 24 32  1  0
 24 25  1  1
 25 26  1  0
 26 27  2  0
 27 28  1  0
 29 28  2  0
 30 29  1  0
 31 26  1  0
 31 30  2  0
 32 34  1  0
 33 32  2  0
M  END
$$$$
