FRF.pdb
     RDKit          3D

 34 35  0  0  1  0  0  0  0  0999 V2000
   23.4030  -17.6065  -16.9920 N   0  0  0  0  0  0  0  0  0  0  0  0
   24.4960  -17.4665  -16.0507 C   0  0  1  0  0  0  0  0  0  0  0  0
   23.9545  -16.7503  -14.8414 C   0  0  0  0  0  0  0  0  0  0  0  0
   23.6577  -15.3520  -15.0777 C   0  0  0  0  0  0  0  0  0  0  0  0
   24.6722  -14.4377  -15.2218 C   0  0  0  0  0  0  0  0  0  0  0  0
   24.4267  -13.0921  -15.4491 C   0  0  0  0  0  0  0  0  0  0  0  0
   23.1257  -12.6537  -15.5340 C   0  0  0  0  0  0  0  0  0  0  0  0
   22.0900  -13.5409  -15.3947 C   0  0  0  0  0  0  0  0  0  0  0  0
   22.3684  -14.8762  -15.1687 C   0  0  0  0  0  0  0  0  0  0  0  0
   25.0295  -18.7858  -15.7698 C   0  0  0  0  0  0  0  0  0  0  0  0
   24.2674  -19.7060  -15.3782 O   0  0  0  0  0  0  0  0  0  0  0  0
   25.8227  -24.9546  -15.5695 N   0  0  0  0  0  0  0  0  0  0  0  0
   27.0186  -25.4166  -16.1578 C   0  0  0  0  0  0  0  0  0  0  0  0
   27.2999  -26.6914  -16.0494 N   0  0  0  0  0  0  0  0  0  0  0  0
   27.8762  -24.5224  -16.8391 N   0  0  0  0  0  0  0  0  0  0  0  0
   27.5689  -23.1339  -16.8835 C   0  0  0  0  0  0  0  0  0  0  0  0
   28.5336  -22.2868  -16.0806 C   0  0  0  0  0  0  0  0  0  0  0  0
   28.1498  -20.8443  -16.2752 C   0  0  0  0  0  0  0  0  0  0  0  0
   26.8975  -20.4646  -15.5348 C   0  0  2  0  0  0  0  0  0  0  0  0
   26.4058  -19.1551  -15.9028 N   0  0  0  0  0  0  0  0  0  0  0  0
   27.0636  -20.5120  -14.0688 C   0  0  0  0  0  0  0  0  0  0  0  0
   28.1620  -20.1378  -13.5847 O   0  0  0  0  0  0  0  0  0  0  0  0
   28.1291  -27.1063  -16.5086 N   0  0  0  0  0  0  0  0  0  0  0  0
   26.0781  -20.9473  -13.1704 C   0  0  1  0  0  0  0  0  0  0  0  0
   26.3590  -21.0344  -11.7557 C   0  0  0  0  0  0  0  0  0  0  0  0
   26.9094  -19.7189  -11.2375 C   0  0  0  0  0  0  0  0  0  0  0  0
   27.0212  -19.7553   -9.7641 C   0  0  0  0  0  0  0  0  0  0  0  0
   25.9238  -19.4998   -8.9447 C   0  0  0  0  0  0  0  0  0  0  0  0
   25.9822  -19.5349   -7.5784 C   0  0  0  0  0  0  0  0  0  0  0  0
   27.1561  -19.8312   -6.9492 C   0  0  0  0  0  0  0  0  0  0  0  0
   28.2756  -20.0932   -7.7104 C   0  0  0  0  0  0  0  0  0  0  0  0
   28.1986  -20.0535   -9.0867 C   0  0  0  0  0  0  0  0  0  0  0  0
   25.1622  -21.5020  -11.0575 O   0  0  0  0  0  0  0  0  0  0  0  0
   24.0230  -21.2563  -11.5709 O   0  0  0  0  0  0  0  0  0  0  0  0
  2  1  1  6
  2  3  1  0
  3  4  1  0
  4  5  2  0
  4  9  1  0
  5  6  1  0
  6  7  2  0
  8  7  1  0
  9  8  2  0
 10 20  1  0
 10  2  1  0
 11 10  2  0
 13 12  1  0
 13 15  1  0
 14 13  2  0
 16 15  1  0
 16 17  1  0
 17 18  1  0
 19 18  1  6
 19 21  1  0
 19 20  1  0
 21 23  1  0
 22 21  2  0
 23 24  1  0
 24 32  1  0
 24 25  1  1
 25 26  1  0
 26 27  2  0
 27 28  1  0
 29 28  2  0
 30 29  1  0
 31 26  1  0
 31 30  2  0
 32 34  1  0
 33 32  2  0
M  END
$$$$
