FRF.pdb
     RDKit          3D

 34 35  0  0  1  0  0  0  0  0999 V2000
   28.6183  -19.3152  -13.3412 N   0  0  0  0  0  0  0  0  0  0  0  0
   28.0863  -20.6479  -13.5440 C   0  0  1  0  0  0  0  0  0  0  0  0
   27.7453  -21.2036  -12.1862 C   0  0  0  0  0  0  0  0  0  0  0  0
   28.8918  -21.3500  -11.3128 C   0  0  0  0  0  0  0  0  0  0  0  0
   28.7831  -21.0901   -9.9686 C   0  0  0  0  0  0  0  0  0  0  0  0
   29.8580  -21.2195   -9.1022 C   0  0  0  0  0  0  0  0  0  0  0  0
   31.0754  -21.6212   -9.6009 C   0  0  0  0  0  0  0  0  0  0  0  0
   31.2173  -21.8884  -10.9378 C   0  0  0  0  0  0  0  0  0  0  0  0
   30.1260  -21.7498  -11.7753 C   0  0  0  0  0  0  0  0  0  0  0  0
   26.9562  -20.5564  -14.4489 C   0  0  0  0  0  0  0  0  0  0  0  0
   26.1749  -19.5732  -14.3878 O   0  0  0  0  0  0  0  0  0  0  0  0
   27.9363  -25.9596  -16.9260 N   0  0  0  0  0  0  0  0  0  0  0  0
   26.6282  -26.2137  -17.3887 C   0  0  0  0  0  0  0  0  0  0  0  0
   25.9469  -27.1664  -16.8019 N   0  0  0  0  0  0  0  0  0  0  0  0
   26.0827  -25.4575  -18.4516 N   0  0  0  0  0  0  0  0  0  0  0  0
   26.5348  -24.1291  -18.6872 C   0  0  0  0  0  0  0  0  0  0  0  0
   26.6190  -23.2983  -17.4242 C   0  0  0  0  0  0  0  0  0  0  0  0
   25.3748  -22.4547  -17.3454 C   0  0  0  0  0  0  0  0  0  0  0  0
   25.3892  -21.4932  -16.1896 C   0  0  2  0  0  0  0  0  0  0  0  0
   26.6324  -21.5255  -15.4511 N   0  0  0  0  0  0  0  0  0  0  0  0
   24.2744  -21.7149  -15.2476 C   0  0  0  0  0  0  0  0  0  0  0  0
   24.4929  -22.4133  -14.2252 O   0  0  0  0  0  0  0  0  0  0  0  0
   24.9959  -27.4270  -17.1152 N   0  0  0  0  0  0  0  0  0  0  0  0
   22.9802  -21.1994  -15.4116 C   0  0  1  0  0  0  0  0  0  0  0  0
   22.1763  -20.8503  -14.2629 C   0  0  0  0  0  0  0  0  0  0  0  0
   22.8774  -19.8035  -13.4175 C   0  0  0  0  0  0  0  0  0  0  0  0
   22.0522  -19.4588  -12.2407 C   0  0  0  0  0  0  0  0  0  0  0  0
   22.1868  -20.1403  -11.0330 C   0  0  0  0  0  0  0  0  0  0  0  0
   21.4514  -19.8450   -9.9178 C   0  0  0  0  0  0  0  0  0  0  0  0
   20.5299  -18.8394   -9.9501 C   0  0  0  0  0  0  0  0  0  0  0  0
   20.3540  -18.1303  -11.1197 C   0  0  0  0  0  0  0  0  0  0  0  0
   21.1040  -18.4415  -12.2342 C   0  0  0  0  0  0  0  0  0  0  0  0
   20.8400  -20.4627  -14.7131 O   0  0  0  0  0  0  0  0  0  0  0  0
   20.7343  -19.7527  -15.7650 O   0  0  0  0  0  0  0  0  0  0  0  0
  2  1  1  1
  2  3  1  0
  3  4  1  0
  4  5  2  0
  4  9  1  0
  5  6  1  0
  6  7  2  0
  8  7  1  0
  9  8  2  0
 10 20  1  0
 10  2  1  0
 11 10  2  0
 13 12  1  0
 13 15  1  0
 14 13  2  0
 16 15  1  0
 16 17  1  0
 17 18  1  0
 19 18  1  6
 19 21  1  0
 19 20  1  0
 21 23  1  0
 22 21  2  0
 23 24  1  0
 24 32  1  0
 24 25  1  6
 25 26  1  0
 26 27  2  0
 27 28  1  0
 29 28  2  0
 30 29  1  0
 31 26  1  0
 31 30  2  0
 32 34  1  0
 33 32  2  0
M  END
$$$$
