FRF.pdb
     RDKit          3D

 34 35  0  0  1  0  0  0  0  0999 V2000
   25.0874  -17.3126  -18.1579 N   0  0  0  0  0  0  0  0  0  0  0  0
   25.5678  -17.4258  -16.7953 C   0  0  1  0  0  0  0  0  0  0  0  0
   24.6041  -16.6702  -15.9183 C   0  0  0  0  0  0  0  0  0  0  0  0
   24.6362  -15.2358  -16.1193 C   0  0  0  0  0  0  0  0  0  0  0  0
   25.6715  -14.4840  -15.6201 C   0  0  0  0  0  0  0  0  0  0  0  0
   25.7363  -13.1098  -15.7928 C   0  0  0  0  0  0  0  0  0  0  0  0
   24.7329  -12.4740  -16.4864 C   0  0  0  0  0  0  0  0  0  0  0  0
   23.6854  -13.1955  -16.9975 C   0  0  0  0  0  0  0  0  0  0  0  0
   23.6503  -14.5646  -16.8080 C   0  0  0  0  0  0  0  0  0  0  0  0
   25.6892  -18.8338  -16.4685 C   0  0  0  0  0  0  0  0  0  0  0  0
   24.7494  -19.6271  -16.7302 O   0  0  0  0  0  0  0  0  0  0  0  0
   27.1377  -23.6869  -19.5393 N   0  0  0  0  0  0  0  0  0  0  0  0
   28.4956  -23.6878  -19.1576 C   0  0  0  0  0  0  0  0  0  0  0  0
   29.3849  -23.3621  -20.0626 N   0  0  0  0  0  0  0  0  0  0  0  0
   28.8705  -24.0310  -17.8382 N   0  0  0  0  0  0  0  0  0  0  0  0
   28.2982  -23.3428  -16.7322 C   0  0  0  0  0  0  0  0  0  0  0  0
   28.7919  -21.9174  -16.6005 C   0  0  0  0  0  0  0  0  0  0  0  0
   28.2526  -21.3620  -15.3095 C   0  0  0  0  0  0  0  0  0  0  0  0
   26.8563  -20.8201  -15.4411 C   0  0  2  0  0  0  0  0  0  0  0  0
   26.8313  -19.4322  -15.8474 N   0  0  0  0  0  0  0  0  0  0  0  0
   26.0682  -20.9635  -14.2011 C   0  0  0  0  0  0  0  0  0  0  0  0
   26.5843  -20.5734  -13.1230 O   0  0  0  0  0  0  0  0  0  0  0  0
   30.3993  -23.3805  -19.8597 N   0  0  0  0  0  0  0  0  0  0  0  0
   24.7766  -21.5071  -14.1380 C   0  0  1  0  0  0  0  0  0  0  0  0
   24.0424  -21.5165  -12.8937 C   0  0  0  0  0  0  0  0  0  0  0  0
   24.1309  -20.1649  -12.2100 C   0  0  0  0  0  0  0  0  0  0  0  0
   24.6713  -20.3169  -10.8427 C   0  0  0  0  0  0  0  0  0  0  0  0
   26.0428  -20.3146  -10.5979 C   0  0  0  0  0  0  0  0  0  0  0  0
   26.5830  -20.4407   -9.3475 C   0  0  0  0  0  0  0  0  0  0  0  0
   25.7707  -20.5779   -8.2598 C   0  0  0  0  0  0  0  0  0  0  0  0
   24.4039  -20.5869   -8.4424 C   0  0  0  0  0  0  0  0  0  0  0  0
   23.8767  -20.4585   -9.7101 C   0  0  0  0  0  0  0  0  0  0  0  0
   22.6765  -21.9737  -13.1467 O   0  0  0  0  0  0  0  0  0  0  0  0
   22.2481  -21.9766  -14.3459 O   0  0  0  0  0  0  0  0  0  0  0  0
  2  1  1  6
  2  3  1  0
  3  4  1  0
  4  5  2  0
  4  9  1  0
  5  6  1  0
  6  7  2  0
  8  7  1  0
  9  8  2  0
 10 20  1  0
 10  2  1  0
 11 10  2  0
 13 12  1  0
 13 15  1  0
 14 13  2  0
 16 15  1  0
 16 17  1  0
 17 18  1  0
 19 18  1  1
 19 21  1  0
 19 20  1  0
 21 23  1  0
 22 21  2  0
 23 24  1  0
 24 32  1  0
 24 25  1  1
 25 26  1  0
 26 27  2  0
 27 28  1  0
 29 28  2  0
 30 29  1  0
 31 26  1  0
 31 30  2  0
 32 34  1  0
 33 32  2  0
M  END
$$$$
