FRF.pdb
     RDKit          3D

 34 35  0  0  1  0  0  0  0  0999 V2000
   25.9817  -19.2581  -16.5805 N   0  0  0  0  0  0  0  0  0  0  0  0
   25.6862  -18.8608  -15.2185 C   0  0  1  0  0  0  0  0  0  0  0  0
   24.8853  -17.5871  -15.2890 C   0  0  0  0  0  0  0  0  0  0  0  0
   25.6350  -16.4557  -15.7957 C   0  0  0  0  0  0  0  0  0  0  0  0
   26.6308  -15.8841  -15.0421 C   0  0  0  0  0  0  0  0  0  0  0  0
   27.3693  -14.8010  -15.4938 C   0  0  0  0  0  0  0  0  0  0  0  0
   27.0993  -14.2781  -16.7371 C   0  0  0  0  0  0  0  0  0  0  0  0
   26.1117  -14.8255  -17.5143 C   0  0  0  0  0  0  0  0  0  0  0  0
   25.3934  -15.9052  -17.0349 C   0  0  0  0  0  0  0  0  0  0  0  0
   25.0011  -19.9572  -14.5607 C   0  0  0  0  0  0  0  0  0  0  0  0
   24.2224  -20.6985  -15.2125 O   0  0  0  0  0  0  0  0  0  0  0  0
   29.6043  -21.3806   -9.2015 N   0  0  0  0  0  0  0  0  0  0  0  0
   29.2012  -21.1425  -10.5320 C   0  0  0  0  0  0  0  0  0  0  0  0
   30.1341  -21.0646  -11.4484 N   0  0  0  0  0  0  0  0  0  0  0  0
   27.8319  -20.9948  -10.8522 N   0  0  0  0  0  0  0  0  0  0  0  0
   26.8410  -21.1760   -9.8474 C   0  0  0  0  0  0  0  0  0  0  0  0
   25.4399  -20.8717  -10.3342 C   0  0  0  0  0  0  0  0  0  0  0  0
   25.0654  -21.9243  -11.3431 C   0  0  0  0  0  0  0  0  0  0  0  0
   24.3815  -21.3580  -12.5565 C   0  0  2  0  0  0  0  0  0  0  0  0
   25.1348  -20.2894  -13.1750 N   0  0  0  0  0  0  0  0  0  0  0  0
   23.0184  -20.8699  -12.2687 C   0  0  0  0  0  0  0  0  0  0  0  0
   22.8692  -20.0511  -11.3263 O   0  0  0  0  0  0  0  0  0  0  0  0
   29.9054  -20.9089  -12.4454 N   0  0  0  0  0  0  0  0  0  0  0  0
   21.8698  -21.2559  -12.9753 C   0  0  1  0  0  0  0  0  0  0  0  0
   20.5976  -20.6230  -12.7134 C   0  0  0  0  0  0  0  0  0  0  0  0
   20.7310  -19.1125  -12.7638 C   0  0  0  0  0  0  0  0  0  0  0  0
   20.8944  -18.6591  -14.1611 C   0  0  0  0  0  0  0  0  0  0  0  0
   19.9936  -19.0309  -15.1567 C   0  0  0  0  0  0  0  0  0  0  0  0
   20.1022  -18.6238  -16.4582 C   0  0  0  0  0  0  0  0  0  0  0  0
   21.1307  -17.8125  -16.8398 C   0  0  0  0  0  0  0  0  0  0  0  0
   22.0529  -17.4125  -15.8958 C   0  0  0  0  0  0  0  0  0  0  0  0
   21.9279  -17.8324  -14.5883 C   0  0  0  0  0  0  0  0  0  0  0  0
   19.5940  -21.1686  -13.6265 O   0  0  0  0  0  0  0  0  0  0  0  0
   18.3757  -20.8368  -13.4604 O   0  0  0  0  0  0  0  0  0  0  0  0
  2  1  1  6
  2  3  1  0
  3  4  1  0
  4  5  2  0
  4  9  1  0
  5  6  1  0
  6  7  2  0
  8  7  1  0
  9  8  2  0
 10 20  1  0
 10  2  1  0
 11 10  2  0
 13 12  1  0
 13 15  1  0
 14 13  2  0
 16 15  1  0
 16 17  1  0
 17 18  1  0
 19 18  1  1
 19 21  1  0
 19 20  1  0
 21 23  1  0
 22 21  2  0
 23 24  1  0
 24 32  1  0
 24 25  1  1
 25 26  1  0
 26 27  2  0
 27 28  1  0
 29 28  2  0
 30 29  1  0
 31 26  1  0
 31 30  2  0
 32 34  1  0
 33 32  2  0
M  END
$$$$
