FRF.pdb
     RDKit          3D

 34 35  0  0  1  0  0  0  0  0999 V2000
   27.2379  -22.0245  -11.4781 N   0  0  0  0  0  0  0  0  0  0  0  0
   26.6454  -21.4795  -10.2730 C   0  0  1  0  0  0  0  0  0  0  0  0
   27.3360  -20.1715   -9.9884 C   0  0  0  0  0  0  0  0  0  0  0  0
   27.9034  -20.0905   -8.6578 C   0  0  0  0  0  0  0  0  0  0  0  0
   29.0206  -20.8187   -8.3298 C   0  0  0  0  0  0  0  0  0  0  0  0
   29.5917  -20.7665   -7.0674 C   0  0  0  0  0  0  0  0  0  0  0  0
   29.0240  -19.9602   -6.1084 C   0  0  0  0  0  0  0  0  0  0  0  0
   27.9083  -19.2205   -6.4036 C   0  0  0  0  0  0  0  0  0  0  0  0
   27.3631  -19.2947   -7.6721 C   0  0  0  0  0  0  0  0  0  0  0  0
   25.2144  -21.3627  -10.4793 C   0  0  0  0  0  0  0  0  0  0  0  0
   24.7319  -21.4624  -11.6361 O   0  0  0  0  0  0  0  0  0  0  0  0
   17.7930  -23.2224   -7.3205 N   0  0  0  0  0  0  0  0  0  0  0  0
   18.3541  -24.0208   -8.3390 C   0  0  0  0  0  0  0  0  0  0  0  0
   17.5503  -24.4874   -9.2622 N   0  0  0  0  0  0  0  0  0  0  0  0
   19.7401  -24.3004   -8.3511 N   0  0  0  0  0  0  0  0  0  0  0  0
   20.6491  -23.4290   -7.6886 C   0  0  0  0  0  0  0  0  0  0  0  0
   20.7434  -22.0646   -8.3384 C   0  0  0  0  0  0  0  0  0  0  0  0
   22.1715  -21.6014   -8.2289 C   0  0  0  0  0  0  0  0  0  0  0  0
   22.8733  -21.5426   -9.5573 C   0  0  2  0  0  0  0  0  0  0  0  0
   24.2559  -21.1340   -9.4413 N   0  0  0  0  0  0  0  0  0  0  0  0
   22.1973  -20.6531  -10.5221 C   0  0  0  0  0  0  0  0  0  0  0  0
   22.6211  -19.4753  -10.6394 O   0  0  0  0  0  0  0  0  0  0  0  0
   17.8895  -25.1135  -10.0128 N   0  0  0  0  0  0  0  0  0  0  0  0
   21.1088  -21.0293  -11.3230 C   0  0  2  0  0  0  0  0  0  0  0  0
   20.7748  -20.2774  -12.5108 C   0  0  0  0  0  0  0  0  0  0  0  0
   21.9729  -20.1795  -13.4366 C   0  0  0  0  0  0  0  0  0  0  0  0
   21.5995  -19.4828  -14.6855 C   0  0  0  0  0  0  0  0  0  0  0  0
   21.0797  -20.1750  -15.7772 C   0  0  0  0  0  0  0  0  0  0  0  0
   20.7110  -19.5670  -16.9459 C   0  0  0  0  0  0  0  0  0  0  0  0
   20.8439  -18.2165  -17.0883 C   0  0  0  0  0  0  0  0  0  0  0  0
   21.3531  -17.4800  -16.0396 C   0  0  0  0  0  0  0  0  0  0  0  0
   21.7196  -18.1095  -14.8687 C   0  0  0  0  0  0  0  0  0  0  0  0
   19.5843  -20.8606  -13.1281 O   0  0  0  0  0  0  0  0  0  0  0  0
   18.7159  -20.0784  -13.6339 O   0  0  0  0  0  0  0  0  0  0  0  0
  2  1  1  6
  2  3  1  0
  3  4  1  0
  4  5  2  0
  4  9  1  0
  5  6  1  0
  6  7  2  0
  8  7  1  0
  9  8  2  0
 10 20  1  0
 10  2  1  0
 11 10  2  0
 13 12  1  0
 13 15  1  0
 14 13  2  0
 16 15  1  0
 16 17  1  0
 17 18  1  0
 19 18  1  1
 19 21  1  0
 19 20  1  0
 21 23  1  0
 22 21  2  0
 23 24  1  0
 24 32  1  0
 24 25  1  6
 25 26  1  0
 26 27  2  0
 27 28  1  0
 29 28  2  0
 30 29  1  0
 31 26  1  0
 31 30  2  0
 32 34  1  0
 33 32  2  0
M  END
$$$$
