FRF.pdb
     RDKit          3D

 34 35  0  0  1  0  0  0  0  0999 V2000
   29.0098  -20.5614   -9.5623 N   0  0  0  0  0  0  0  0  0  0  0  0
   27.6174  -20.7603   -9.2132 C   0  0  1  0  0  0  0  0  0  0  0  0
   27.2350  -19.6595   -8.2589 C   0  0  0  0  0  0  0  0  0  0  0  0
   27.8829  -19.7583   -6.9668 C   0  0  0  0  0  0  0  0  0  0  0  0
   27.2375  -19.3415   -5.8285 C   0  0  0  0  0  0  0  0  0  0  0  0
   27.8253  -19.4209   -4.5752 C   0  0  0  0  0  0  0  0  0  0  0  0
   29.0969  -19.9334   -4.4633 C   0  0  0  0  0  0  0  0  0  0  0  0
   29.7685  -20.3583   -5.5802 C   0  0  0  0  0  0  0  0  0  0  0  0
   29.1544  -20.2656   -6.8155 C   0  0  0  0  0  0  0  0  0  0  0  0
   26.8379  -20.7830  -10.4363 C   0  0  0  0  0  0  0  0  0  0  0  0
   27.0299  -19.9144  -11.3249 O   0  0  0  0  0  0  0  0  0  0  0  0
   22.2335  -24.1088  -15.3404 N   0  0  0  0  0  0  0  0  0  0  0  0
   23.1588  -24.3853  -16.3684 C   0  0  0  0  0  0  0  0  0  0  0  0
   22.7018  -24.4798  -17.5925 N   0  0  0  0  0  0  0  0  0  0  0  0
   24.5314  -24.5527  -16.0735 N   0  0  0  0  0  0  0  0  0  0  0  0
   24.9899  -24.4507  -14.7304 C   0  0  0  0  0  0  0  0  0  0  0  0
   24.7354  -23.0892  -14.1185 C   0  0  0  0  0  0  0  0  0  0  0  0
   25.3132  -23.0951  -12.7285 C   0  0  0  0  0  0  0  0  0  0  0  0
   25.1442  -21.7816  -12.0166 C   0  0  2  0  0  0  0  0  0  0  0  0
   25.8238  -21.7461  -10.7403 N   0  0  0  0  0  0  0  0  0  0  0  0
   23.7277  -21.4228  -11.8076 C   0  0  0  0  0  0  0  0  0  0  0  0
   23.3618  -21.1066  -10.6470 O   0  0  0  0  0  0  0  0  0  0  0  0
   23.3171  -24.7339  -18.3846 N   0  0  0  0  0  0  0  0  0  0  0  0
   22.7535  -21.4089  -12.8169 C   0  0  2  0  0  0  0  0  0  0  0  0
   21.4951  -20.7281  -12.6153 C   0  0  0  0  0  0  0  0  0  0  0  0
   21.7266  -19.2991  -12.1612 C   0  0  0  0  0  0  0  0  0  0  0  0
   20.4392  -18.5812  -12.0529 C   0  0  0  0  0  0  0  0  0  0  0  0
   19.5552  -18.8266  -11.0043 C   0  0  0  0  0  0  0  0  0  0  0  0
   18.3603  -18.1760  -10.8613 C   0  0  0  0  0  0  0  0  0  0  0  0
   17.9795  -17.2327  -11.7705 C   0  0  0  0  0  0  0  0  0  0  0  0
   18.8155  -16.9485  -12.8297 C   0  0  0  0  0  0  0  0  0  0  0  0
   20.0164  -17.6139  -12.9583 C   0  0  0  0  0  0  0  0  0  0  0  0
   20.6850  -20.8500  -13.8268 O   0  0  0  0  0  0  0  0  0  0  0  0
   21.2521  -20.6943  -14.9563 O   0  0  0  0  0  0  0  0  0  0  0  0
  2  1  1  6
  2  3  1  0
  3  4  1  0
  4  5  2  0
  4  9  1  0
  5  6  1  0
  6  7  2  0
  8  7  1  0
  9  8  2  0
 10 20  1  0
 10  2  1  0
 11 10  2  0
 13 12  1  0
 13 15  1  0
 14 13  2  0
 16 15  1  0
 16 17  1  0
 17 18  1  0
 19 18  1  1
 19 21  1  0
 19 20  1  0
 21 23  1  0
 22 21  2  0
 23 24  1  0
 24 32  1  0
 24 25  1  6
 25 26  1  0
 26 27  2  0
 27 28  1  0
 29 28  2  0
 30 29  1  0
 31 26  1  0
 31 30  2  0
 32 34  1  0
 33 32  2  0
M  END
$$$$
