FRF.pdb
     RDKit          3D

 34 35  0  0  1  0  0  0  0  0999 V2000
   27.7541  -30.2341  -16.4701 N   0  0  0  0  0  0  0  0  0  0  0  0
   26.5585  -30.0056  -17.2566 C   0  0  1  0  0  0  0  0  0  0  0  0
   25.4255  -30.7153  -16.5628 C   0  0  0  0  0  0  0  0  0  0  0  0
   25.3990  -32.1436  -16.8041 C   0  0  0  0  0  0  0  0  0  0  0  0
   25.8251  -33.0227  -15.8388 C   0  0  0  0  0  0  0  0  0  0  0  0
   25.8140  -34.3955  -16.0336 C   0  0  0  0  0  0  0  0  0  0  0  0
   25.3621  -34.8982  -17.2315 C   0  0  0  0  0  0  0  0  0  0  0  0
   24.9298  -34.0477  -18.2157 C   0  0  0  0  0  0  0  0  0  0  0  0
   24.9536  -32.6838  -17.9902 C   0  0  0  0  0  0  0  0  0  0  0  0
   26.3675  -28.5742  -17.3931 C   0  0  0  0  0  0  0  0  0  0  0  0
   26.8186  -27.7898  -16.5201 O   0  0  0  0  0  0  0  0  0  0  0  0
   28.5785  -22.8501  -23.2397 N   0  0  0  0  0  0  0  0  0  0  0  0
   28.8666  -22.5681  -21.8880 C   0  0  0  0  0  0  0  0  0  0  0  0
   29.9313  -21.8510  -21.6270 N   0  0  0  0  0  0  0  0  0  0  0  0
   28.0254  -23.0499  -20.8586 N   0  0  0  0  0  0  0  0  0  0  0  0
   27.0764  -24.0737  -21.1337 C   0  0  0  0  0  0  0  0  0  0  0  0
   26.2695  -24.4769  -19.9176 C   0  0  0  0  0  0  0  0  0  0  0  0
   26.3609  -25.9733  -19.7811 C   0  0  0  0  0  0  0  0  0  0  0  0
   25.5880  -26.5042  -18.6058 C   0  0  2  0  0  0  0  0  0  0  0  0
   25.6817  -27.9419  -18.4786 N   0  0  0  0  0  0  0  0  0  0  0  0
   24.1618  -26.1251  -18.6412 C   0  0  0  0  0  0  0  0  0  0  0  0
   23.3859  -26.8050  -19.3599 O   0  0  0  0  0  0  0  0  0  0  0  0
   30.1999  -21.6091  -20.6575 N   0  0  0  0  0  0  0  0  0  0  0  0
   23.6056  -25.0540  -17.9263 C   0  0  1  0  0  0  0  0  0  0  0  0
   22.1942  -24.7598  -18.0215 C   0  0  0  0  0  0  0  0  0  0  0  0
   21.3678  -25.9769  -17.6502 C   0  0  0  0  0  0  0  0  0  0  0  0
   19.9271  -25.6487  -17.6883 C   0  0  0  0  0  0  0  0  0  0  0  0
   19.0790  -25.9725  -16.6314 C   0  0  0  0  0  0  0  0  0  0  0  0
   17.7435  -25.6764  -16.6222 C   0  0  0  0  0  0  0  0  0  0  0  0
   17.1761  -25.0322  -17.6828 C   0  0  0  0  0  0  0  0  0  0  0  0
   17.9682  -24.6870  -18.7575 C   0  0  0  0  0  0  0  0  0  0  0  0
   19.3127  -24.9933  -18.7499 C   0  0  0  0  0  0  0  0  0  0  0  0
   21.8986  -23.5676  -17.2279 O   0  0  0  0  0  0  0  0  0  0  0  0
   22.6909  -23.2549  -16.2812 O   0  0  0  0  0  0  0  0  0  0  0  0
  2  1  1  1
  2  3  1  0
  3  4  1  0
  4  5  2  0
  4  9  1  0
  5  6  1  0
  6  7  2  0
  8  7  1  0
  9  8  2  0
 10 20  1  0
 10  2  1  0
 11 10  2  0
 13 12  1  0
 13 15  1  0
 14 13  2  0
 16 15  1  0
 16 17  1  0
 17 18  1  0
 19 18  1  6
 19 21  1  0
 19 20  1  0
 21 23  1  0
 22 21  2  0
 23 24  1  0
 24 32  1  0
 24 25  1  1
 25 26  1  0
 26 27  2  0
 27 28  1  0
 29 28  2  0
 30 29  1  0
 31 26  1  0
 31 30  2  0
 32 34  1  0
 33 32  2  0
M  END
$$$$
