FRF.pdb
     RDKit          3D

 34 35  0  0  1  0  0  0  0  0999 V2000
   27.1712  -19.4704  -10.6900 N   0  0  0  0  0  0  0  0  0  0  0  0
   26.6060  -20.7868  -10.4709 C   0  0  1  0  0  0  0  0  0  0  0  0
   25.9608  -20.7745   -9.1099 C   0  0  0  0  0  0  0  0  0  0  0  0
   26.8943  -20.5476   -8.0254 C   0  0  0  0  0  0  0  0  0  0  0  0
   26.7002  -19.5143   -7.1419 C   0  0  0  0  0  0  0  0  0  0  0  0
   27.5717  -19.2667   -6.0922 C   0  0  0  0  0  0  0  0  0  0  0  0
   28.6683  -20.0803   -5.9263 C   0  0  0  0  0  0  0  0  0  0  0  0
   28.8909  -21.1204   -6.7910 C   0  0  0  0  0  0  0  0  0  0  0  0
   28.0029  -21.3406   -7.8276 C   0  0  0  0  0  0  0  0  0  0  0  0
   25.6919  -21.0790  -11.5586 C   0  0  0  0  0  0  0  0  0  0  0  0
   24.7999  -20.2511  -11.8748 O   0  0  0  0  0  0  0  0  0  0  0  0
   25.3678  -26.8082  -18.2352 N   0  0  0  0  0  0  0  0  0  0  0  0
   26.2995  -26.5014  -17.2216 C   0  0  0  0  0  0  0  0  0  0  0  0
   27.5072  -26.9969  -17.3316 N   0  0  0  0  0  0  0  0  0  0  0  0
   25.9289  -25.6848  -16.1285 N   0  0  0  0  0  0  0  0  0  0  0  0
   24.6143  -25.1456  -16.0546 C   0  0  0  0  0  0  0  0  0  0  0  0
   24.5954  -23.6758  -15.6914 C   0  0  0  0  0  0  0  0  0  0  0  0
   25.4363  -23.4971  -14.4557 C   0  0  0  0  0  0  0  0  0  0  0  0
   24.9006  -22.4419  -13.5282 C   0  0  2  0  0  0  0  0  0  0  0  0
   25.7112  -22.2767  -12.3418 N   0  0  0  0  0  0  0  0  0  0  0  0
   23.5064  -22.6976  -13.1159 C   0  0  0  0  0  0  0  0  0  0  0  0
   23.2672  -23.7358  -12.4483 O   0  0  0  0  0  0  0  0  0  0  0  0
   28.2409  -26.8025  -16.6285 N   0  0  0  0  0  0  0  0  0  0  0  0
   22.4218  -21.8605  -13.4169 C   0  0  2  0  0  0  0  0  0  0  0  0
   21.0826  -22.2153  -13.0064 C   0  0  0  0  0  0  0  0  0  0  0  0
   20.2494  -20.9704  -12.7654 C   0  0  0  0  0  0  0  0  0  0  0  0
   18.8635  -21.3424  -12.4110 C   0  0  0  0  0  0  0  0  0  0  0  0
   18.4607  -21.4673  -11.0831 C   0  0  0  0  0  0  0  0  0  0  0  0
   17.1860  -21.7979  -10.7128 C   0  0  0  0  0  0  0  0  0  0  0  0
   16.2325  -22.0244  -11.6622 C   0  0  0  0  0  0  0  0  0  0  0  0
   16.5748  -21.9147  -12.9935 C   0  0  0  0  0  0  0  0  0  0  0  0
   17.8646  -21.5805  -13.3488 C   0  0  0  0  0  0  0  0  0  0  0  0
   20.5113  -23.1410  -13.9839 O   0  0  0  0  0  0  0  0  0  0  0  0
   19.8931  -24.1699  -13.5586 O   0  0  0  0  0  0  0  0  0  0  0  0
  2  1  1  6
  2  3  1  0
  3  4  1  0
  4  5  2  0
  4  9  1  0
  5  6  1  0
  6  7  2  0
  8  7  1  0
  9  8  2  0
 10 20  1  0
 10  2  1  0
 11 10  2  0
 13 12  1  0
 13 15  1  0
 14 13  2  0
 16 15  1  0
 16 17  1  0
 17 18  1  0
 19 18  1  1
 19 21  1  0
 19 20  1  0
 21 23  1  0
 22 21  2  0
 23 24  1  0
 24 32  1  0
 24 25  1  6
 25 26  1  0
 26 27  2  0
 27 28  1  0
 29 28  2  0
 30 29  1  0
 31 26  1  0
 31 30  2  0
 32 34  1  0
 33 32  2  0
M  END
$$$$
