FRF.pdb
     RDKit          3D

 34 35  0  0  1  0  0  0  0  0999 V2000
   27.4081  -21.6315  -17.9281 N   0  0  0  0  0  0  0  0  0  0  0  0
   27.5749  -20.4573  -17.0952 C   0  0  1  0  0  0  0  0  0  0  0  0
   26.4710  -19.4966  -17.4520 C   0  0  0  0  0  0  0  0  0  0  0  0
   26.6579  -18.8450  -18.7325 C   0  0  0  0  0  0  0  0  0  0  0  0
   25.8418  -19.1468  -19.7950 C   0  0  0  0  0  0  0  0  0  0  0  0
   25.9903  -18.5437  -21.0347 C   0  0  0  0  0  0  0  0  0  0  0  0
   26.9865  -17.6117  -21.2109 C   0  0  0  0  0  0  0  0  0  0  0  0
   27.8182  -17.2881  -20.1705 C   0  0  0  0  0  0  0  0  0  0  0  0
   27.6438  -17.9075  -18.9467 C   0  0  0  0  0  0  0  0  0  0  0  0
   27.5708  -20.8770  -15.7067 C   0  0  0  0  0  0  0  0  0  0  0  0
   26.7886  -21.7832  -15.3222 O   0  0  0  0  0  0  0  0  0  0  0  0
   32.4394  -22.9576   -9.8011 N   0  0  0  0  0  0  0  0  0  0  0  0
   31.8487  -22.1524   -8.8049 C   0  0  0  0  0  0  0  0  0  0  0  0
   32.0549  -22.4795   -7.5533 N   0  0  0  0  0  0  0  0  0  0  0  0
   31.0624  -21.0321   -9.1596 N   0  0  0  0  0  0  0  0  0  0  0  0
   30.9658  -20.6309  -10.5213 C   0  0  0  0  0  0  0  0  0  0  0  0
   29.6293  -20.9708  -11.1466 C   0  0  0  0  0  0  0  0  0  0  0  0
   29.6677  -20.5243  -12.5836 C   0  0  0  0  0  0  0  0  0  0  0  0
   28.3890  -20.8093  -13.3216 C   0  0  2  0  0  0  0  0  0  0  0  0
   28.4127  -20.3309  -14.6863 N   0  0  0  0  0  0  0  0  0  0  0  0
   27.2020  -20.2499  -12.6455 C   0  0  0  0  0  0  0  0  0  0  0  0
   26.8381  -19.0865  -12.9538 O   0  0  0  0  0  0  0  0  0  0  0  0
   31.6839  -21.9090   -6.7739 N   0  0  0  0  0  0  0  0  0  0  0  0
   26.4453  -20.9267  -11.6775 C   0  0  2  0  0  0  0  0  0  0  0  0
   25.0678  -20.5646  -11.4350 C   0  0  0  0  0  0  0  0  0  0  0  0
   24.2475  -20.6998  -12.7042 C   0  0  0  0  0  0  0  0  0  0  0  0
   22.8307  -20.3760  -12.4354 C   0  0  0  0  0  0  0  0  0  0  0  0
   22.2863  -19.1432  -12.7888 C   0  0  0  0  0  0  0  0  0  0  0  0
   20.9783  -18.8086  -12.5685 C   0  0  0  0  0  0  0  0  0  0  0  0
   20.1327  -19.7000  -11.9752 C   0  0  0  0  0  0  0  0  0  0  0  0
   20.6171  -20.9366  -11.6040 C   0  0  0  0  0  0  0  0  0  0  0  0
   21.9384  -21.2570  -11.8338 C   0  0  0  0  0  0  0  0  0  0  0  0
   24.5596  -21.3420  -10.3053 O   0  0  0  0  0  0  0  0  0  0  0  0
   24.8882  -22.5690  -10.2142 O   0  0  0  0  0  0  0  0  0  0  0  0
  2  1  1  6
  2  3  1  0
  3  4  1  0
  4  5  2  0
  4  9  1  0
  5  6  1  0
  6  7  2  0
  8  7  1  0
  9  8  2  0
 10 20  1  0
 10  2  1  0
 11 10  2  0
 13 12  1  0
 13 15  1  0
 14 13  2  0
 16 15  1  0
 16 17  1  0
 17 18  1  0
 19 18  1  1
 19 21  1  0
 19 20  1  0
 21 23  1  0
 22 21  2  0
 23 24  1  0
 24 32  1  0
 24 25  1  6
 25 26  1  0
 26 27  2  0
 27 28  1  0
 29 28  2  0
 30 29  1  0
 31 26  1  0
 31 30  2  0
 32 34  1  0
 33 32  2  0
M  END
$$$$
