FRF.pdb
     RDKit          3D

 34 35  0  0  1  0  0  0  0  0999 V2000
   18.7968  -18.2048  -16.3819 N   0  0  0  0  0  0  0  0  0  0  0  0
   20.1091  -17.6373  -16.1449 C   0  0  1  0  0  0  0  0  0  0  0  0
   19.9347  -16.5010  -15.1718 C   0  0  0  0  0  0  0  0  0  0  0  0
   19.3421  -15.3169  -15.7600 C   0  0  0  0  0  0  0  0  0  0  0  0
   19.9924  -14.6329  -16.7576 C   0  0  0  0  0  0  0  0  0  0  0  0
   19.4565  -13.4966  -17.3443 C   0  0  0  0  0  0  0  0  0  0  0  0
   18.2333  -13.0354  -16.9162 C   0  0  0  0  0  0  0  0  0  0  0  0
   17.5583  -13.6952  -15.9223 C   0  0  0  0  0  0  0  0  0  0  0  0
   18.1200  -14.8255  -15.3577 C   0  0  0  0  0  0  0  0  0  0  0  0
   20.9856  -18.6928  -15.6741 C   0  0  0  0  0  0  0  0  0  0  0  0
   20.5800  -19.5151  -14.8137 O   0  0  0  0  0  0  0  0  0  0  0  0
   23.7271  -24.6200  -13.8973 N   0  0  0  0  0  0  0  0  0  0  0  0
   24.5774  -24.6484  -15.0223 C   0  0  0  0  0  0  0  0  0  0  0  0
   24.8394  -25.8135  -15.5609 N   0  0  0  0  0  0  0  0  0  0  0  0
   25.1220  -23.4513  -15.5414 N   0  0  0  0  0  0  0  0  0  0  0  0
   24.6449  -22.1923  -15.0812 C   0  0  0  0  0  0  0  0  0  0  0  0
   25.4367  -21.0224  -15.6264 C   0  0  0  0  0  0  0  0  0  0  0  0
   24.4695  -20.0895  -16.3048 C   0  0  0  0  0  0  0  0  0  0  0  0
   23.2091  -19.8735  -15.5140 C   0  0  2  0  0  0  0  0  0  0  0  0
   22.3312  -18.8952  -16.1177 N   0  0  0  0  0  0  0  0  0  0  0  0
   23.4719  -19.4742  -14.1174 C   0  0  0  0  0  0  0  0  0  0  0  0
   23.6638  -18.2552  -13.8760 O   0  0  0  0  0  0  0  0  0  0  0  0
   25.4052  -25.8993  -16.4229 N   0  0  0  0  0  0  0  0  0  0  0  0
   23.5233  -20.3620  -13.0326 C   0  0  2  0  0  0  0  0  0  0  0  0
   23.8236  -19.8825  -11.7031 C   0  0  0  0  0  0  0  0  0  0  0  0
   22.8151  -18.8341  -11.2719 C   0  0  0  0  0  0  0  0  0  0  0  0
   21.5112  -19.4666  -10.9813 C   0  0  0  0  0  0  0  0  0  0  0  0
   21.2921  -20.1726   -9.8004 C   0  0  0  0  0  0  0  0  0  0  0  0
   20.0979  -20.7623   -9.4882 C   0  0  0  0  0  0  0  0  0  0  0  0
   19.0443  -20.6770  -10.3510 C   0  0  0  0  0  0  0  0  0  0  0  0
   19.2038  -19.9900  -11.5359 C   0  0  0  0  0  0  0  0  0  0  0  0
   20.4147  -19.4016  -11.8343 C   0  0  0  0  0  0  0  0  0  0  0  0
   23.9298  -21.0237  -10.7948 O   0  0  0  0  0  0  0  0  0  0  0  0
   24.2580  -20.8087   -9.5832 O   0  0  0  0  0  0  0  0  0  0  0  0
  2  1  1  1
  2  3  1  0
  3  4  1  0
  4  5  2  0
  4  9  1  0
  5  6  1  0
  6  7  2  0
  8  7  1  0
  9  8  2  0
 10 20  1  0
 10  2  1  0
 11 10  2  0
 13 12  1  0
 13 15  1  0
 14 13  2  0
 16 15  1  0
 16 17  1  0
 17 18  1  0
 19 18  1  6
 19 21  1  0
 19 20  1  0
 21 23  1  0
 22 21  2  0
 23 24  1  0
 24 32  1  0
 24 25  1  6
 25 26  1  0
 26 27  2  0
 27 28  1  0
 29 28  2  0
 30 29  1  0
 31 26  1  0
 31 30  2  0
 32 34  1  0
 33 32  2  0
M  END
$$$$
