GKG.pdb
     RDKit          3D

 18 17  0  0  1  0  0  0  0  0999 V2000
   16.4153  -10.0450  -13.5212 N   0  0  0  0  0  0  0  0  0  0  0  0
   16.8259   -9.4191  -14.7452 C   0  0  0  0  0  0  0  0  0  0  0  0
   18.2944   -9.4596  -14.9467 C   0  0  0  0  0  0  0  0  0  0  0  0
   18.9884   -9.8367  -13.9638 O   0  0  0  0  0  0  0  0  0  0  0  0
   18.9346   -9.1069  -16.1505 N   0  0  0  0  0  0  0  0  0  0  0  0
   20.4000   -9.0626  -16.1972 C   0  0  1  0  0  0  0  0  0  0  0  0
   20.8653   -9.4406  -17.5801 C   0  0  0  0  0  0  0  0  0  0  0  0
   20.3398  -10.7580  -18.0041 C   0  0  0  0  0  0  0  0  0  0  0  0
   21.1128  -11.9119  -17.3558 C   0  0  0  0  0  0  0  0  0  0  0  0
   20.5227  -13.1832  -17.9398 C   0  0  0  0  0  0  0  0  0  0  0  0
   21.1961  -14.3692  -17.4758 N   0  0  0  0  0  0  0  0  0  0  0  0
   20.8901   -7.7302  -15.8345 C   0  0  0  0  0  0  0  0  0  0  0  0
   20.3379   -6.7036  -16.2664 O   0  0  0  0  0  0  0  0  0  0  0  0
   22.0221   -7.5235  -14.9703 N   0  0  0  0  0  0  0  0  0  0  0  0
   22.3927   -6.1742  -14.5706 C   0  0  0  0  0  0  0  0  0  0  0  0
   21.9602   -5.8706  -13.1968 C   0  0  0  0  0  0  0  0  0  0  0  0
   21.1500   -6.6549  -12.6504 O   0  0  0  0  0  0  0  0  0  0  0  0
   22.4380   -4.7479  -12.5305 O   0  0  0  0  0  0  0  0  0  0  0  0
  2  1  1  0
  3  2  1  0
  4  3  2  0
  5  3  1  0
  6  5  1  0
  6  7  1  6
  8  7  1  0
  9  8  1  0
 10  9  1  0
 11 10  1  0
 12  6  1  0
 12 14  1  0
 13 12  2  0
 15 14  1  0
 15 16  1  0
 16 18  1  0
 17 16  2  0
M  END
$$$$
