GKG.pdb
     RDKit          3D

 18 17  0  0  1  0  0  0  0  0999 V2000
   22.1084  -15.8822  -17.3286 N   0  0  0  0  0  0  0  0  0  0  0  0
   21.1151  -16.3736  -16.4173 C   0  0  0  0  0  0  0  0  0  0  0  0
   21.3389  -17.7878  -16.0315 C   0  0  0  0  0  0  0  0  0  0  0  0
   20.9235  -18.6646  -16.8367 O   0  0  0  0  0  0  0  0  0  0  0  0
   21.9761  -18.1884  -14.8412 N   0  0  0  0  0  0  0  0  0  0  0  0
   22.1675  -19.6184  -14.5765 C   0  0  1  0  0  0  0  0  0  0  0  0
   23.4707  -19.8190  -13.8461 C   0  0  0  0  0  0  0  0  0  0  0  0
   24.1010  -21.1168  -14.1775 C   0  0  0  0  0  0  0  0  0  0  0  0
   25.1906  -20.9619  -15.2443 C   0  0  0  0  0  0  0  0  0  0  0  0
   25.7413  -22.3576  -15.4770 C   0  0  0  0  0  0  0  0  0  0  0  0
   26.7558  -22.3882  -16.4995 N   0  0  0  0  0  0  0  0  0  0  0  0
   21.0504  -20.1549  -13.7948 C   0  0  0  0  0  0  0  0  0  0  0  0
   20.6509  -19.5796  -12.7677 O   0  0  0  0  0  0  0  0  0  0  0  0
   20.3532  -21.3610  -14.1558 N   0  0  0  0  0  0  0  0  0  0  0  0
   19.3556  -21.9193  -13.2554 C   0  0  0  0  0  0  0  0  0  0  0  0
   18.7492  -23.1448  -13.8003 C   0  0  0  0  0  0  0  0  0  0  0  0
   19.0890  -23.5054  -14.9512 O   0  0  0  0  0  0  0  0  0  0  0  0
   17.8288  -23.8759  -13.0580 O   0  0  0  0  0  0  0  0  0  0  0  0
  2  1  1  0
  3  2  1  0
  4  3  2  0
  5  3  1  0
  6  5  1  0
  6  7  1  1
  8  7  1  0
  9  8  1  0
 10  9  1  0
 11 10  1  0
 12  6  1  0
 12 14  1  0
 13 12  2  0
 15 14  1  0
 15 16  1  0
 16 18  1  0
 17 16  2  0
M  END
$$$$
