GKG.pdb
     RDKit          3D

 18 17  0  0  1  0  0  0  0  0999 V2000
   25.7180  -22.1428  -14.4866 N   0  0  0  0  0  0  0  0  0  0  0  0
   25.0880  -20.9727  -13.9457 C   0  0  0  0  0  0  0  0  0  0  0  0
   23.8019  -21.2726  -13.2712 C   0  0  0  0  0  0  0  0  0  0  0  0
   23.4108  -22.4707  -13.3095 O   0  0  0  0  0  0  0  0  0  0  0  0
   23.0171  -20.3099  -12.6076 N   0  0  0  0  0  0  0  0  0  0  0  0
   21.7948  -20.7338  -11.9163 C   0  0  1  0  0  0  0  0  0  0  0  0
   21.6328  -19.9280  -10.6529 C   0  0  0  0  0  0  0  0  0  0  0  0
   20.5657  -20.4680   -9.7805 C   0  0  0  0  0  0  0  0  0  0  0  0
   21.0909  -21.5778   -8.8631 C   0  0  0  0  0  0  0  0  0  0  0  0
   19.8770  -22.1088   -8.1215 C   0  0  0  0  0  0  0  0  0  0  0  0
   20.1366  -23.3638   -7.4634 N   0  0  0  0  0  0  0  0  0  0  0  0
   20.6257  -20.5720  -12.7845 C   0  0  0  0  0  0  0  0  0  0  0  0
   20.3923  -19.4910  -13.3522 O   0  0  0  0  0  0  0  0  0  0  0  0
   19.6860  -21.6331  -13.0343 N   0  0  0  0  0  0  0  0  0  0  0  0
   18.5387  -21.3976  -13.8980 C   0  0  0  0  0  0  0  0  0  0  0  0
   17.2887  -21.2801  -13.1299 C   0  0  0  0  0  0  0  0  0  0  0  0
   17.2165  -21.8796  -12.0320 O   0  0  0  0  0  0  0  0  0  0  0  0
   16.2242  -20.5265  -13.6113 O   0  0  0  0  0  0  0  0  0  0  0  0
  2  1  1  0
  3  2  1  0
  4  3  2  0
  5  3  1  0
  6  5  1  0
  6  7  1  1
  8  7  1  0
  9  8  1  0
 10  9  1  0
 11 10  1  0
 12  6  1  0
 12 14  1  0
 13 12  2  0
 15 14  1  0
 15 16  1  0
 16 18  1  0
 17 16  2  0
M  END
$$$$
