GKG.pdb
     RDKit          3D

 18 17  0  0  1  0  0  0  0  0999 V2000
   22.5055  -17.1426  -16.4938 N   0  0  0  0  0  0  0  0  0  0  0  0
   23.7406  -17.3880  -15.8060 C   0  0  0  0  0  0  0  0  0  0  0  0
   23.7019  -18.6165  -14.9765 C   0  0  0  0  0  0  0  0  0  0  0  0
   22.8278  -18.6568  -14.0687 O   0  0  0  0  0  0  0  0  0  0  0  0
   24.5709  -19.7113  -15.1488 N   0  0  0  0  0  0  0  0  0  0  0  0
   24.5064  -20.8333  -14.2063 C   0  0  1  0  0  0  0  0  0  0  0  0
   25.0234  -22.0788  -14.8795 C   0  0  0  0  0  0  0  0  0  0  0  0
   24.2113  -23.2707  -14.5456 C   0  0  0  0  0  0  0  0  0  0  0  0
   24.7628  -24.5368  -15.2103 C   0  0  0  0  0  0  0  0  0  0  0  0
   23.7809  -25.6433  -14.8683 C   0  0  0  0  0  0  0  0  0  0  0  0
   24.1346  -26.9025  -15.4723 N   0  0  0  0  0  0  0  0  0  0  0  0
   25.2818  -20.5405  -12.9981 C   0  0  0  0  0  0  0  0  0  0  0  0
   26.4126  -20.0289  -13.0693 O   0  0  0  0  0  0  0  0  0  0  0  0
   24.7966  -20.8199  -11.6723 N   0  0  0  0  0  0  0  0  0  0  0  0
   25.6281  -20.5178  -10.5169 C   0  0  0  0  0  0  0  0  0  0  0  0
   24.9378  -20.8148   -9.2513 C   0  0  0  0  0  0  0  0  0  0  0  0
   23.7342  -21.1590   -9.3067 O   0  0  0  0  0  0  0  0  0  0  0  0
   25.6040  -20.7153   -8.0352 O   0  0  0  0  0  0  0  0  0  0  0  0
  2  1  1  0
  3  2  1  0
  4  3  2  0
  5  3  1  0
  6  5  1  0
  6  7  1  6
  8  7  1  0
  9  8  1  0
 10  9  1  0
 11 10  1  0
 12  6  1  0
 12 14  1  0
 13 12  2  0
 15 14  1  0
 15 16  1  0
 16 18  1  0
 17 16  2  0
M  END
$$$$
