GKG.pdb
     RDKit          3D

 18 17  0  0  1  0  0  0  0  0999 V2000
   25.6793  -23.3675  -13.0389 N   0  0  0  0  0  0  0  0  0  0  0  0
   25.3857  -21.9651  -13.1138 C   0  0  0  0  0  0  0  0  0  0  0  0
   23.9303  -21.6816  -13.1055 C   0  0  0  0  0  0  0  0  0  0  0  0
   23.2185  -22.3623  -13.8929 O   0  0  0  0  0  0  0  0  0  0  0  0
   23.3206  -20.7148  -12.2827 N   0  0  0  0  0  0  0  0  0  0  0  0
   21.8746  -20.4921  -12.3884 C   0  0  1  0  0  0  0  0  0  0  0  0
   21.3301  -20.1092  -11.0362 C   0  0  0  0  0  0  0  0  0  0  0  0
   21.3963  -21.2298  -10.0711 C   0  0  0  0  0  0  0  0  0  0  0  0
   20.0353  -21.4974   -9.4189 C   0  0  0  0  0  0  0  0  0  0  0  0
   20.2657  -22.6293   -8.4335 C   0  0  0  0  0  0  0  0  0  0  0  0
   19.0454  -23.0809   -7.8152 N   0  0  0  0  0  0  0  0  0  0  0  0
   21.5816  -19.4503  -13.3762 C   0  0  0  0  0  0  0  0  0  0  0  0
   22.2069  -18.3760  -13.3809 O   0  0  0  0  0  0  0  0  0  0  0  0
   20.5693  -19.5972  -14.3886 N   0  0  0  0  0  0  0  0  0  0  0  0
   20.3165  -18.5117  -15.3244 C   0  0  0  0  0  0  0  0  0  0  0  0
   20.7220  -18.8634  -16.6950 C   0  0  0  0  0  0  0  0  0  0  0  0
   21.1493  -20.0232  -16.9007 O   0  0  0  0  0  0  0  0  0  0  0  0
   20.6321  -17.9347  -17.7256 O   0  0  0  0  0  0  0  0  0  0  0  0
  2  1  1  0
  3  2  1  0
  4  3  2  0
  5  3  1  0
  6  5  1  0
  6  7  1  1
  8  7  1  0
  9  8  1  0
 10  9  1  0
 11 10  1  0
 12  6  1  0
 12 14  1  0
 13 12  2  0
 15 14  1  0
 15 16  1  0
 16 18  1  0
 17 16  2  0
M  END
$$$$
