GKG.pdb
     RDKit          3D

 18 17  0  0  1  0  0  0  0  0999 V2000
   21.0119  -12.1133  -17.9039 N   0  0  0  0  0  0  0  0  0  0  0  0
   21.0643  -10.6924  -18.0958 C   0  0  0  0  0  0  0  0  0  0  0  0
   21.8511   -9.9997  -17.0471 C   0  0  0  0  0  0  0  0  0  0  0  0
   21.3683  -10.0074  -15.8823 O   0  0  0  0  0  0  0  0  0  0  0  0
   23.0787   -9.3510  -17.2825 N   0  0  0  0  0  0  0  0  0  0  0  0
   23.7872   -8.7274  -16.1597 C   0  0  1  0  0  0  0  0  0  0  0  0
   25.2715   -8.9166  -16.3413 C   0  0  0  0  0  0  0  0  0  0  0  0
   25.6824  -10.3245  -16.1401 C   0  0  0  0  0  0  0  0  0  0  0  0
   27.1978  -10.4995  -16.2888 C   0  0  0  0  0  0  0  0  0  0  0  0
   27.4666  -11.9766  -16.0621 C   0  0  0  0  0  0  0  0  0  0  0  0
   28.8603  -12.3129  -16.2034 N   0  0  0  0  0  0  0  0  0  0  0  0
   23.4567   -7.3031  -16.0652 C   0  0  0  0  0  0  0  0  0  0  0  0
   23.3373   -6.6027  -17.0853 O   0  0  0  0  0  0  0  0  0  0  0  0
   23.2519   -6.6310  -14.8092 N   0  0  0  0  0  0  0  0  0  0  0  0
   22.8891   -5.2218  -14.7914 C   0  0  0  0  0  0  0  0  0  0  0  0
   21.4351   -5.0310  -14.6650 C   0  0  0  0  0  0  0  0  0  0  0  0
   20.7027   -6.0455  -14.7311 O   0  0  0  0  0  0  0  0  0  0  0  0
   20.8958   -3.7634  -14.4782 O   0  0  0  0  0  0  0  0  0  0  0  0
  2  1  1  0
  3  2  1  0
  4  3  2  0
  5  3  1  0
  6  5  1  0
  6  7  1  6
  8  7  1  0
  9  8  1  0
 10  9  1  0
 11 10  1  0
 12  6  1  0
 12 14  1  0
 13 12  2  0
 15 14  1  0
 15 16  1  0
 16 18  1  0
 17 16  2  0
M  END
$$$$
