GKG.pdb
     RDKit          3D

 18 17  0  0  1  0  0  0  0  0999 V2000
   18.6163   -9.1507  -13.1343 N   0  0  0  0  0  0  0  0  0  0  0  0
   17.9812   -9.6565  -11.9513 C   0  0  0  0  0  0  0  0  0  0  0  0
   17.0682   -8.6710  -11.3235 C   0  0  0  0  0  0  0  0  0  0  0  0
   16.4223   -7.9223  -12.1057 O   0  0  0  0  0  0  0  0  0  0  0  0
   16.8923   -8.5345   -9.9329 N   0  0  0  0  0  0  0  0  0  0  0  0
   15.8403   -7.6463   -9.4269 C   0  0  1  0  0  0  0  0  0  0  0  0
   15.2595   -8.2314   -8.1651 C   0  0  0  0  0  0  0  0  0  0  0  0
   13.9292   -7.6642   -7.8488 C   0  0  0  0  0  0  0  0  0  0  0  0
   12.7951   -8.5627   -8.3542 C   0  0  0  0  0  0  0  0  0  0  0  0
   11.5072   -7.8775   -7.9331 C   0  0  0  0  0  0  0  0  0  0  0  0
   10.3338   -8.5736   -8.3956 N   0  0  0  0  0  0  0  0  0  0  0  0
   16.3716   -6.3041   -9.1759 C   0  0  0  0  0  0  0  0  0  0  0  0
   17.2983   -6.1213   -8.3677 O   0  0  0  0  0  0  0  0  0  0  0  0
   15.8664   -5.1288   -9.8351 N   0  0  0  0  0  0  0  0  0  0  0  0
   16.3540   -3.8136   -9.4475 C   0  0  0  0  0  0  0  0  0  0  0  0
   15.8083   -2.7507  -10.3071 C   0  0  0  0  0  0  0  0  0  0  0  0
   15.1084   -3.0921  -11.2888 O   0  0  0  0  0  0  0  0  0  0  0  0
   16.0640   -1.4117  -10.0348 O   0  0  0  0  0  0  0  0  0  0  0  0
  2  1  1  0
  3  2  1  0
  4  3  2  0
  5  3  1  0
  6  5  1  0
  6  7  1  1
  8  7  1  0
  9  8  1  0
 10  9  1  0
 11 10  1  0
 12  6  1  0
 12 14  1  0
 13 12  2  0
 15 14  1  0
 15 16  1  0
 16 18  1  0
 17 16  2  0
M  END
$$$$
