GKG.pdb
     RDKit          3D

 18 17  0  0  1  0  0  0  0  0999 V2000
   28.2603  -22.1225  -16.7098 N   0  0  0  0  0  0  0  0  0  0  0  0
   28.0524  -21.0499  -15.7799 C   0  0  0  0  0  0  0  0  0  0  0  0
   26.9664  -21.3323  -14.8106 C   0  0  0  0  0  0  0  0  0  0  0  0
   26.1855  -22.2795  -15.0986 O   0  0  0  0  0  0  0  0  0  0  0  0
   26.7699  -20.6131  -13.6158 N   0  0  0  0  0  0  0  0  0  0  0  0
   25.5825  -20.8886  -12.8000 C   0  0  1  0  0  0  0  0  0  0  0  0
   25.7820  -20.3137  -11.4210 C   0  0  0  0  0  0  0  0  0  0  0  0
   24.6287  -20.5830  -10.5328 C   0  0  0  0  0  0  0  0  0  0  0  0
   25.0764  -20.8873   -9.0989 C   0  0  0  0  0  0  0  0  0  0  0  0
   23.7995  -21.0772   -8.2997 C   0  0  0  0  0  0  0  0  0  0  0  0
   24.0528  -21.3197   -6.9024 N   0  0  0  0  0  0  0  0  0  0  0  0
   24.3825  -20.3257  -13.4246 C   0  0  0  0  0  0  0  0  0  0  0  0
   24.3793  -19.1700  -13.8827 O   0  0  0  0  0  0  0  0  0  0  0  0
   23.1499  -21.0582  -13.5478 N   0  0  0  0  0  0  0  0  0  0  0  0
   22.0265  -20.4724  -14.2639 C   0  0  0  0  0  0  0  0  0  0  0  0
   20.8393  -21.3417  -14.2274 C   0  0  0  0  0  0  0  0  0  0  0  0
   20.9406  -22.4932  -14.7110 O   0  0  0  0  0  0  0  0  0  0  0  0
   19.6452  -20.8951  -13.6729 O   0  0  0  0  0  0  0  0  0  0  0  0
  2  1  1  0
  3  2  1  0
  4  3  2  0
  5  3  1  0
  6  5  1  0
  6  7  1  1
  8  7  1  0
  9  8  1  0
 10  9  1  0
 11 10  1  0
 12  6  1  0
 12 14  1  0
 13 12  2  0
 15 14  1  0
 15 16  1  0
 16 18  1  0
 17 16  2  0
M  END
$$$$
