GKG.pdb
     RDKit          3D

 18 17  0  0  1  0  0  0  0  0999 V2000
   26.1925  -19.8901   -8.7977 N   0  0  0  0  0  0  0  0  0  0  0  0
   26.0263  -20.9685   -9.7294 C   0  0  0  0  0  0  0  0  0  0  0  0
   25.6518  -20.5026  -11.0864 C   0  0  0  0  0  0  0  0  0  0  0  0
   25.5554  -19.2558  -11.2482 O   0  0  0  0  0  0  0  0  0  0  0  0
   25.4053  -21.3622  -12.1744 N   0  0  0  0  0  0  0  0  0  0  0  0
   25.0598  -20.7870  -13.4788 C   0  0  1  0  0  0  0  0  0  0  0  0
   25.6318  -21.6532  -14.5716 C   0  0  0  0  0  0  0  0  0  0  0  0
   26.9944  -21.2277  -14.9641 C   0  0  0  0  0  0  0  0  0  0  0  0
   26.9595  -20.1253  -16.0283 C   0  0  0  0  0  0  0  0  0  0  0  0
   28.4110  -19.8180  -16.3514 C   0  0  0  0  0  0  0  0  0  0  0  0
   28.5511  -18.7272  -17.2820 N   0  0  0  0  0  0  0  0  0  0  0  0
   23.6067  -20.6666  -13.6236 C   0  0  0  0  0  0  0  0  0  0  0  0
   22.8495  -21.5956  -13.2936 O   0  0  0  0  0  0  0  0  0  0  0  0
   22.9696  -19.4874  -14.1478 N   0  0  0  0  0  0  0  0  0  0  0  0
   21.5175  -19.3913  -14.1581 C   0  0  0  0  0  0  0  0  0  0  0  0
   20.9602  -19.6473  -15.4961 C   0  0  0  0  0  0  0  0  0  0  0  0
   20.7438  -20.8373  -15.8233 O   0  0  0  0  0  0  0  0  0  0  0  0
   20.6841  -18.5987  -16.3661 O   0  0  0  0  0  0  0  0  0  0  0  0
  2  1  1  0
  3  2  1  0
  4  3  2  0
  5  3  1  0
  6  5  1  0
  6  7  1  6
  8  7  1  0
  9  8  1  0
 10  9  1  0
 11 10  1  0
 12  6  1  0
 12 14  1  0
 13 12  2  0
 15 14  1  0
 15 16  1  0
 16 18  1  0
 17 16  2  0
M  END
$$$$
