GKG.pdb
     RDKit          3D

 18 17  0  0  1  0  0  0  0  0999 V2000
   24.4166  -11.5867  -15.2219 N   0  0  0  0  0  0  0  0  0  0  0  0
   24.7469  -10.4472  -16.0288 C   0  0  0  0  0  0  0  0  0  0  0  0
   23.7341   -9.3678  -15.9406 C   0  0  0  0  0  0  0  0  0  0  0  0
   23.9271   -8.3527  -16.6631 O   0  0  0  0  0  0  0  0  0  0  0  0
   22.5973   -9.4200  -15.1109 N   0  0  0  0  0  0  0  0  0  0  0  0
   21.5653   -8.3860  -15.2427 C   0  0  1  0  0  0  0  0  0  0  0  0
   20.2047   -9.0221  -15.1157 C   0  0  0  0  0  0  0  0  0  0  0  0
   19.6637   -9.4468  -16.4266 C   0  0  0  0  0  0  0  0  0  0  0  0
   18.2859  -10.1032  -16.2855 C   0  0  0  0  0  0  0  0  0  0  0  0
   17.9299  -10.6165  -17.6694 C   0  0  0  0  0  0  0  0  0  0  0  0
   16.6701  -11.3149  -17.6928 N   0  0  0  0  0  0  0  0  0  0  0  0
   21.7437   -7.3435  -14.2287 C   0  0  0  0  0  0  0  0  0  0  0  0
   21.8853   -7.6332  -13.0281 O   0  0  0  0  0  0  0  0  0  0  0  0
   21.7667   -5.9403  -14.5475 N   0  0  0  0  0  0  0  0  0  0  0  0
   22.0363   -4.9635  -13.5030 C   0  0  0  0  0  0  0  0  0  0  0  0
   22.0573   -3.5891  -14.0294 C   0  0  0  0  0  0  0  0  0  0  0  0
   21.8420   -3.4265  -15.2530 O   0  0  0  0  0  0  0  0  0  0  0  0
   22.3083   -2.5084  -13.1916 O   0  0  0  0  0  0  0  0  0  0  0  0
  2  1  1  0
  3  2  1  0
  4  3  2  0
  5  3  1  0
  6  5  1  0
  6  7  1  1
  8  7  1  0
  9  8  1  0
 10  9  1  0
 11 10  1  0
 12  6  1  0
 12 14  1  0
 13 12  2  0
 15 14  1  0
 15 16  1  0
 16 18  1  0
 17 16  2  0
M  END
$$$$
