GKG.pdb
     RDKit          3D

 18 17  0  0  1  0  0  0  0  0999 V2000
   22.9432  -17.0830  -15.7802 N   0  0  0  0  0  0  0  0  0  0  0  0
   21.6848  -16.8803  -15.1214 C   0  0  0  0  0  0  0  0  0  0  0  0
   20.9045  -15.7626  -15.7049 C   0  0  0  0  0  0  0  0  0  0  0  0
   21.0966  -15.5180  -16.9268 O   0  0  0  0  0  0  0  0  0  0  0  0
   19.9837  -14.9817  -14.9799 N   0  0  0  0  0  0  0  0  0  0  0  0
   19.1467  -14.0119  -15.6944 C   0  0  1  0  0  0  0  0  0  0  0  0
   17.7448  -14.0633  -15.1433 C   0  0  0  0  0  0  0  0  0  0  0  0
   17.0714  -15.3450  -15.4523 C   0  0  0  0  0  0  0  0  0  0  0  0
   15.6135  -15.3478  -14.9793 C   0  0  0  0  0  0  0  0  0  0  0  0
   15.0727  -16.7256  -15.3181 C   0  0  0  0  0  0  0  0  0  0  0  0
   13.6660  -16.8523  -15.0345 N   0  0  0  0  0  0  0  0  0  0  0  0
   19.6996  -12.6605  -15.5717 C   0  0  0  0  0  0  0  0  0  0  0  0
   20.3095  -12.3069  -14.5478 O   0  0  0  0  0  0  0  0  0  0  0  0
   19.5767  -11.6697  -16.6082 N   0  0  0  0  0  0  0  0  0  0  0  0
   20.0472  -10.3127  -16.3741 C   0  0  0  0  0  0  0  0  0  0  0  0
   19.8105   -9.4416  -17.5367 C   0  0  0  0  0  0  0  0  0  0  0  0
   19.2982   -9.9543  -18.5588 O   0  0  0  0  0  0  0  0  0  0  0  0
   20.1463   -8.0932  -17.4975 O   0  0  0  0  0  0  0  0  0  0  0  0
  2  1  1  0
  3  2  1  0
  4  3  2  0
  5  3  1  0
  6  5  1  0
  6  7  1  1
  8  7  1  0
  9  8  1  0
 10  9  1  0
 11 10  1  0
 12  6  1  0
 12 14  1  0
 13 12  2  0
 15 14  1  0
 15 16  1  0
 16 18  1  0
 17 16  2  0
M  END
$$$$
