GKG.pdb
     RDKit          3D

 18 17  0  0  1  0  0  0  0  0999 V2000
   26.3001  -32.7074   -9.4222 N   0  0  0  0  0  0  0  0  0  0  0  0
   25.1239  -33.4149   -9.0044 C   0  0  0  0  0  0  0  0  0  0  0  0
   24.7999  -33.1965   -7.5739 C   0  0  0  0  0  0  0  0  0  0  0  0
   25.5242  -32.3737   -6.9508 O   0  0  0  0  0  0  0  0  0  0  0  0
   23.7505  -33.8462   -6.8957 N   0  0  0  0  0  0  0  0  0  0  0  0
   23.5378  -33.5696   -5.4709 C   0  0  1  0  0  0  0  0  0  0  0  0
   22.0601  -33.4375   -5.2051 C   0  0  0  0  0  0  0  0  0  0  0  0
   21.7792  -32.5726   -4.0369 C   0  0  0  0  0  0  0  0  0  0  0  0
   20.6105  -33.1085   -3.2027 C   0  0  0  0  0  0  0  0  0  0  0  0
   20.4455  -32.1340   -2.0501 C   0  0  0  0  0  0  0  0  0  0  0  0
   19.4134  -32.5367   -1.1291 N   0  0  0  0  0  0  0  0  0  0  0  0
   24.1174  -34.6317   -4.6446 C   0  0  0  0  0  0  0  0  0  0  0  0
   23.9575  -35.8300   -4.9343 O   0  0  0  0  0  0  0  0  0  0  0  0
   24.8962  -34.3651   -3.4641 N   0  0  0  0  0  0  0  0  0  0  0  0
   26.1890  -35.0095   -3.2872 C   0  0  0  0  0  0  0  0  0  0  0  0
   26.8561  -34.5707   -2.0507 C   0  0  0  0  0  0  0  0  0  0  0  0
   26.3021  -33.6751   -1.3716 O   0  0  0  0  0  0  0  0  0  0  0  0
   28.0627  -35.1348   -1.6526 O   0  0  0  0  0  0  0  0  0  0  0  0
  2  1  1  0
  3  2  1  0
  4  3  2  0
  5  3  1  0
  6  5  1  0
  6  7  1  6
  8  7  1  0
  9  8  1  0
 10  9  1  0
 11 10  1  0
 12  6  1  0
 12 14  1  0
 13 12  2  0
 15 14  1  0
 15 16  1  0
 16 18  1  0
 17 16  2  0
M  END
$$$$
