GKG.pdb
     RDKit          3D

 18 17  0  0  1  0  0  0  0  0999 V2000
   21.1166  -21.6022  -11.7632 N   0  0  0  0  0  0  0  0  0  0  0  0
   21.3498  -21.7213  -13.1739 C   0  0  0  0  0  0  0  0  0  0  0  0
   21.9390  -20.4953  -13.7642 C   0  0  0  0  0  0  0  0  0  0  0  0
   21.5258  -19.3948  -13.3081 O   0  0  0  0  0  0  0  0  0  0  0  0
   22.9117  -20.5003  -14.7826 N   0  0  0  0  0  0  0  0  0  0  0  0
   23.4689  -19.2258  -15.2483 C   0  0  1  0  0  0  0  0  0  0  0  0
   24.7560  -19.4862  -15.9881 C   0  0  0  0  0  0  0  0  0  0  0  0
   25.7637  -20.1552  -15.1346 C   0  0  0  0  0  0  0  0  0  0  0  0
   27.0944  -20.3449  -15.8711 C   0  0  0  0  0  0  0  0  0  0  0  0
   27.5568  -21.7507  -15.5318 C   0  0  0  0  0  0  0  0  0  0  0  0
   28.8222  -22.0778  -16.1378 N   0  0  0  0  0  0  0  0  0  0  0  0
   22.5120  -18.5255  -16.1091 C   0  0  0  0  0  0  0  0  0  0  0  0
   21.7681  -19.1513  -16.8839 O   0  0  0  0  0  0  0  0  0  0  0  0
   22.3710  -17.0933  -16.1159 N   0  0  0  0  0  0  0  0  0  0  0  0
   21.3586  -16.4681  -16.9538 C   0  0  0  0  0  0  0  0  0  0  0  0
   20.1479  -16.1271  -16.1894 C   0  0  0  0  0  0  0  0  0  0  0  0
   20.0310  -16.5996  -15.0347 O   0  0  0  0  0  0  0  0  0  0  0  0
   19.1675  -15.3065  -16.7353 O   0  0  0  0  0  0  0  0  0  0  0  0
  2  1  1  0
  3  2  1  0
  4  3  2  0
  5  3  1  0
  6  5  1  0
  6  7  1  6
  8  7  1  0
  9  8  1  0
 10  9  1  0
 11 10  1  0
 12  6  1  0
 12 14  1  0
 13 12  2  0
 15 14  1  0
 15 16  1  0
 16 18  1  0
 17 16  2  0
M  END
$$$$
