GKG.pdb
     RDKit          3D

 18 17  0  0  1  0  0  0  0  0999 V2000
   16.0378  -12.8109  -14.7248 N   0  0  0  0  0  0  0  0  0  0  0  0
   16.1917  -11.4604  -15.1845 C   0  0  0  0  0  0  0  0  0  0  0  0
   17.6024  -11.0041  -15.1645 C   0  0  0  0  0  0  0  0  0  0  0  0
   18.2625  -11.2575  -14.1206 O   0  0  0  0  0  0  0  0  0  0  0  0
   18.2242  -10.3196  -16.2268 N   0  0  0  0  0  0  0  0  0  0  0  0
   19.5912   -9.8169  -16.0534 C   0  0  1  0  0  0  0  0  0  0  0  0
   20.3993  -10.1384  -17.2844 C   0  0  0  0  0  0  0  0  0  0  0  0
   20.7286  -11.5789  -17.3743 C   0  0  0  0  0  0  0  0  0  0  0  0
   21.5890  -11.8880  -18.6045 C   0  0  0  0  0  0  0  0  0  0  0  0
   21.8669  -13.3797  -18.5490 C   0  0  0  0  0  0  0  0  0  0  0  0
   22.4926  -13.8705  -19.7503 N   0  0  0  0  0  0  0  0  0  0  0  0
   19.5847   -8.3732  -15.8034 C   0  0  0  0  0  0  0  0  0  0  0  0
   18.6990   -7.6430  -16.2807 O   0  0  0  0  0  0  0  0  0  0  0  0
   20.5839   -7.7150  -15.0037 N   0  0  0  0  0  0  0  0  0  0  0  0
   20.5136   -6.2766  -14.7944 C   0  0  0  0  0  0  0  0  0  0  0  0
   21.5152   -5.8143  -13.8199 C   0  0  0  0  0  0  0  0  0  0  0  0
   21.4353   -6.2473  -12.6468 O   0  0  0  0  0  0  0  0  0  0  0  0
   22.5165   -4.9253  -14.1938 O   0  0  0  0  0  0  0  0  0  0  0  0
  2  1  1  0
  3  2  1  0
  4  3  2  0
  5  3  1  0
  6  5  1  0
  6  7  1  6
  8  7  1  0
  9  8  1  0
 10  9  1  0
 11 10  1  0
 12  6  1  0
 12 14  1  0
 13 12  2  0
 15 14  1  0
 15 16  1  0
 16 18  1  0
 17 16  2  0
M  END
$$$$
