GKG.pdb
     RDKit          3D

 18 17  0  0  1  0  0  0  0  0999 V2000
   14.7013  -11.6576  -11.3437 N   0  0  0  0  0  0  0  0  0  0  0  0
   15.6547  -11.1301  -10.4102 C   0  0  0  0  0  0  0  0  0  0  0  0
   15.9491   -9.6949  -10.6390 C   0  0  0  0  0  0  0  0  0  0  0  0
   15.4416   -9.1720  -11.6681 O   0  0  0  0  0  0  0  0  0  0  0  0
   16.7468   -8.9084   -9.7855 N   0  0  0  0  0  0  0  0  0  0  0  0
   17.0162   -7.5111  -10.1415 C   0  0  1  0  0  0  0  0  0  0  0  0
   16.4977   -6.6108   -9.0496 C   0  0  0  0  0  0  0  0  0  0  0  0
   15.0182   -6.5820   -9.0067 C   0  0  0  0  0  0  0  0  0  0  0  0
   14.5005   -5.5693   -7.9792 C   0  0  0  0  0  0  0  0  0  0  0  0
   12.9939   -5.5285   -8.1635 C   0  0  0  0  0  0  0  0  0  0  0  0
   12.3505   -4.6137   -7.2554 N   0  0  0  0  0  0  0  0  0  0  0  0
   18.4506   -7.2965  -10.3491 C   0  0  0  0  0  0  0  0  0  0  0  0
   19.2351   -7.2264   -9.3873 O   0  0  0  0  0  0  0  0  0  0  0  0
   19.0377   -7.1549  -11.6555 N   0  0  0  0  0  0  0  0  0  0  0  0
   20.4704   -6.9360  -11.7870 C   0  0  0  0  0  0  0  0  0  0  0  0
   20.7708   -5.7085  -12.5416 C   0  0  0  0  0  0  0  0  0  0  0  0
   19.8076   -5.0011  -12.9183 O   0  0  0  0  0  0  0  0  0  0  0  0
   22.0835   -5.3491  -12.8252 O   0  0  0  0  0  0  0  0  0  0  0  0
  2  1  1  0
  3  2  1  0
  4  3  2  0
  5  3  1  0
  6  5  1  0
  6  7  1  1
  8  7  1  0
  9  8  1  0
 10  9  1  0
 11 10  1  0
 12  6  1  0
 12 14  1  0
 13 12  2  0
 15 14  1  0
 15 16  1  0
 16 18  1  0
 17 16  2  0
M  END
$$$$
