GKG.pdb
     RDKit          3D

 18 17  0  0  1  0  0  0  0  0999 V2000
   24.4176  -18.2109  -18.5406 N   0  0  0  0  0  0  0  0  0  0  0  0
   24.2933  -17.8506  -17.1573 C   0  0  0  0  0  0  0  0  0  0  0  0
   24.7255  -18.9332  -16.2408 C   0  0  0  0  0  0  0  0  0  0  0  0
   24.1402  -20.0433  -16.3634 O   0  0  0  0  0  0  0  0  0  0  0  0
   25.7310  -18.7855  -15.2659 N   0  0  0  0  0  0  0  0  0  0  0  0
   26.0067  -19.8946  -14.3463 C   0  0  1  0  0  0  0  0  0  0  0  0
   27.4216  -19.7805  -13.8394 C   0  0  0  0  0  0  0  0  0  0  0  0
   28.4147  -20.1626  -14.8686 C   0  0  0  0  0  0  0  0  0  0  0  0
   28.2454  -21.6218  -15.3057 C   0  0  0  0  0  0  0  0  0  0  0  0
   29.3501  -21.8810  -16.3145 C   0  0  0  0  0  0  0  0  0  0  0  0
   29.3076  -23.2178  -16.8496 N   0  0  0  0  0  0  0  0  0  0  0  0
   25.0573  -19.8907  -13.2303 C   0  0  0  0  0  0  0  0  0  0  0  0
   24.7816  -18.8402  -12.6256 O   0  0  0  0  0  0  0  0  0  0  0  0
   24.3921  -21.0800  -12.7673 N   0  0  0  0  0  0  0  0  0  0  0  0
   23.4459  -20.9992  -11.6645 C   0  0  0  0  0  0  0  0  0  0  0  0
   22.0622  -21.2281  -12.1110 C   0  0  0  0  0  0  0  0  0  0  0  0
   21.8626  -21.4033  -13.3356 O   0  0  0  0  0  0  0  0  0  0  0  0
   21.0129  -21.2483  -11.1994 O   0  0  0  0  0  0  0  0  0  0  0  0
  2  1  1  0
  3  2  1  0
  4  3  2  0
  5  3  1  0
  6  5  1  0
  6  7  1  1
  8  7  1  0
  9  8  1  0
 10  9  1  0
 11 10  1  0
 12  6  1  0
 12 14  1  0
 13 12  2  0
 15 14  1  0
 15 16  1  0
 16 18  1  0
 17 16  2  0
M  END
$$$$
