GKG.pdb
     RDKit          3D

 18 17  0  0  1  0  0  0  0  0999 V2000
   25.8032  -24.2144  -15.4806 N   0  0  0  0  0  0  0  0  0  0  0  0
   25.5938  -23.0173  -14.7178 C   0  0  0  0  0  0  0  0  0  0  0  0
   24.2557  -22.4194  -14.9431 C   0  0  0  0  0  0  0  0  0  0  0  0
   23.6540  -22.7639  -15.9962 O   0  0  0  0  0  0  0  0  0  0  0  0
   23.6407  -21.5097  -14.0614 N   0  0  0  0  0  0  0  0  0  0  0  0
   22.2673  -21.0692  -14.3284 C   0  0  1  0  0  0  0  0  0  0  0  0
   21.5055  -21.0004  -13.0296 C   0  0  0  0  0  0  0  0  0  0  0  0
   20.1049  -21.4555  -13.1804 C   0  0  0  0  0  0  0  0  0  0  0  0
   19.8126  -22.6863  -12.3151 C   0  0  0  0  0  0  0  0  0  0  0  0
   18.3894  -23.0968  -12.6492 C   0  0  0  0  0  0  0  0  0  0  0  0
   17.9881  -24.3025  -11.9707 N   0  0  0  0  0  0  0  0  0  0  0  0
   22.2620  -19.7664  -14.9989 C   0  0  0  0  0  0  0  0  0  0  0  0
   22.9135  -18.8091  -14.5469 O   0  0  0  0  0  0  0  0  0  0  0  0
   21.5164  -19.5114  -16.2032 N   0  0  0  0  0  0  0  0  0  0  0  0
   21.6007  -18.2087  -16.8464 C   0  0  0  0  0  0  0  0  0  0  0  0
   20.5536  -17.2917  -16.3677 C   0  0  0  0  0  0  0  0  0  0  0  0
   20.4752  -16.1611  -16.9022 O   0  0  0  0  0  0  0  0  0  0  0  0
   19.6814  -17.6721  -15.3542 O   0  0  0  0  0  0  0  0  0  0  0  0
  2  1  1  0
  3  2  1  0
  4  3  2  0
  5  3  1  0
  6  5  1  0
  6  7  1  1
  8  7  1  0
  9  8  1  0
 10  9  1  0
 11 10  1  0
 12  6  1  0
 12 14  1  0
 13 12  2  0
 15 14  1  0
 15 16  1  0
 16 18  1  0
 17 16  2  0
M  END
$$$$
