VML.pdb
     RDKit          3D

 24 23  0  0  1  0  0  0  0  0999 V2000
   28.4597  -18.7382  -16.7277 C   0  0  0  0  0  0  0  0  0  0  0  0
   27.3883  -19.4505  -15.9309 C   0  0  2  0  0  0  0  0  0  0  0  0
   26.4813  -18.4120  -15.3236 C   0  0  0  0  0  0  0  0  0  0  0  0
   28.0484  -20.3228  -14.8693 C   0  0  2  0  0  0  0  0  0  0  0  0
   28.7934  -21.3339  -15.5506 N   0  0  0  0  0  0  0  0  0  0  0  0
   27.0560  -20.8646  -13.9213 C   0  0  0  0  0  0  0  0  0  0  0  0
   26.3203  -21.8145  -14.2901 O   0  0  0  0  0  0  0  0  0  0  0  0
   27.4576  -20.2484   -7.4344 C   0  0  0  0  0  0  0  0  0  0  0  0
   25.6558  -20.4398   -7.6446 S   0  0  0  0  0  0  0  0  0  0  0  0
   25.2695  -21.0839   -9.3140 C   0  0  0  0  0  0  0  0  0  0  0  0
   26.2007  -20.4771  -10.3198 C   0  0  0  0  0  0  0  0  0  0  0  0
   25.8985  -20.9918  -11.7124 C   0  0  2  0  0  0  0  0  0  0  0  0
   26.8986  -20.3632  -12.6226 N   0  0  0  0  0  0  0  0  0  0  0  0
   24.5945  -20.5242  -12.1880 C   0  0  0  0  0  0  0  0  0  0  0  0
   24.3752  -19.2840  -12.4232 O   0  0  0  0  0  0  0  0  0  0  0  0
   23.2815  -22.4524  -15.9475 C   0  0  0  0  0  0  0  0  0  0  0  0
   22.2961  -22.4707  -14.7562 C   0  0  2  0  0  0  0  0  0  0  0  0
   20.9977  -23.0611  -15.2655 C   0  0  0  0  0  0  0  0  0  0  0  0
   22.0940  -21.0217  -14.4030 C   0  0  0  0  0  0  0  0  0  0  0  0
   22.1974  -20.8023  -12.9349 C   0  0  2  0  0  0  0  0  0  0  0  0
   23.4662  -21.3672  -12.4382 N   0  0  0  0  0  0  0  0  0  0  0  0
   21.0735  -21.2940  -12.1395 C   0  0  0  0  0  0  0  0  0  0  0  0
   19.7781  -20.8152  -12.4048 O   0  0  0  0  0  0  0  0  0  0  0  0
   21.1966  -22.1263  -11.2254 O   0  0  0  0  0  0  0  0  0  0  0  0
  2  1  1  1
  3  2  1  0
  4  5  1  6
  4  6  1  0
  4  2  1  0
  6  7  2  0
  9  8  1  0
 10  9  1  0
 11 10  1  0
 12 11  1  1
 12 14  1  0
 13  6  1  0
 13 12  1  0
 14 21  1  0
 14 15  2  0
 17 16  1  6
 17 19  1  0
 18 17  1  0
 20 19  1  6
 20 22  1  0
 21 20  1  0
 22 24  2  0
 22 23  1  0
M  END
$$$$
