VML.pdb
     RDKit          3D

 24 23  0  0  1  0  0  0  0  0999 V2000
   18.1015  -12.4360  -18.0327 C   0  0  0  0  0  0  0  0  0  0  0  0
   17.3640  -11.1181  -17.9363 C   0  0  2  0  0  0  0  0  0  0  0  0
   16.2805  -11.1045  -18.9831 C   0  0  0  0  0  0  0  0  0  0  0  0
   18.3536   -9.9739  -18.1242 C   0  0  2  0  0  0  0  0  0  0  0  0
   19.5839  -10.5435  -18.5750 N   0  0  0  0  0  0  0  0  0  0  0  0
   18.4948   -9.1736  -16.8925 C   0  0  0  0  0  0  0  0  0  0  0  0
   17.4848   -8.5831  -16.4336 O   0  0  0  0  0  0  0  0  0  0  0  0
   23.1826   -9.9442  -12.3664 C   0  0  0  0  0  0  0  0  0  0  0  0
   21.7372   -9.2458  -11.5002 S   0  0  0  0  0  0  0  0  0  0  0  0
   20.6927   -8.2916  -12.6618 C   0  0  0  0  0  0  0  0  0  0  0  0
   20.5866   -9.0225  -13.9662 C   0  0  0  0  0  0  0  0  0  0  0  0
   19.7673   -8.2284  -14.9632 C   0  0  2  0  0  0  0  0  0  0  0  0
   19.7117   -9.0438  -16.2105 N   0  0  0  0  0  0  0  0  0  0  0  0
   20.4403   -6.9844  -15.3435 C   0  0  0  0  0  0  0  0  0  0  0  0
   21.4811   -6.9899  -16.0908 O   0  0  0  0  0  0  0  0  0  0  0  0
   17.5032   -3.9779  -15.9765 C   0  0  0  0  0  0  0  0  0  0  0  0
   18.7055   -3.1018  -15.5552 C   0  0  2  0  0  0  0  0  0  0  0  0
   18.4224   -1.6972  -16.0459 C   0  0  0  0  0  0  0  0  0  0  0  0
   19.8793   -3.6763  -16.3019 C   0  0  0  0  0  0  0  0  0  0  0  0
   20.7531   -4.4784  -15.4033 C   0  0  2  0  0  0  0  0  0  0  0  0
   20.0242   -5.6755  -14.9435 N   0  0  0  0  0  0  0  0  0  0  0  0
   21.3229   -3.7591  -14.2651 C   0  0  0  0  0  0  0  0  0  0  0  0
   22.2375   -2.7159  -14.4954 O   0  0  0  0  0  0  0  0  0  0  0  0
   21.0416   -4.0189  -13.0833 O   0  0  0  0  0  0  0  0  0  0  0  0
  2  1  1  6
  3  2  1  0
  4  5  1  1
  4  6  1  0
  4  2  1  0
  6  7  2  0
  9  8  1  0
 10  9  1  0
 11 10  1  0
 12 11  1  1
 12 14  1  0
 13  6  1  0
 13 12  1  0
 14 21  1  0
 14 15  2  0
 17 16  1  6
 17 19  1  0
 18 17  1  0
 20 19  1  1
 20 22  1  0
 21 20  1  0
 22 24  2  0
 22 23  1  0
M  END
$$$$
