VML.pdb
     RDKit          3D

 24 23  0  0  1  0  0  0  0  0999 V2000
   22.9926  -18.8175  -13.1411 C   0  0  0  0  0  0  0  0  0  0  0  0
   23.5795  -19.8288  -14.1018 C   0  0  2  0  0  0  0  0  0  0  0  0
   22.4643  -20.3708  -14.9578 C   0  0  0  0  0  0  0  0  0  0  0  0
   24.2768  -20.9285  -13.3093 C   0  0  2  0  0  0  0  0  0  0  0  0
   23.2663  -21.6547  -12.6071 N   0  0  0  0  0  0  0  0  0  0  0  0
   25.3233  -20.3780  -12.4266 C   0  0  0  0  0  0  0  0  0  0  0  0
   26.2224  -19.6571  -12.9280 O   0  0  0  0  0  0  0  0  0  0  0  0
   26.6159  -17.3930   -6.2693 C   0  0  0  0  0  0  0  0  0  0  0  0
   26.3595  -19.1988   -6.2488 S   0  0  0  0  0  0  0  0  0  0  0  0
   26.9535  -19.9489   -7.8094 C   0  0  0  0  0  0  0  0  0  0  0  0
   25.9506  -19.7147   -8.8986 C   0  0  0  0  0  0  0  0  0  0  0  0
   26.5107  -20.1291  -10.2441 C   0  0  2  0  0  0  0  0  0  0  0  0
   25.3572  -20.6259  -11.0481 N   0  0  0  0  0  0  0  0  0  0  0  0
   27.4177  -21.2726  -10.1207 C   0  0  0  0  0  0  0  0  0  0  0  0
   27.0307  -22.3787   -9.6026 O   0  0  0  0  0  0  0  0  0  0  0  0
   33.5221  -22.2103  -10.4207 C   0  0  0  0  0  0  0  0  0  0  0  0
   32.2044  -22.6227   -9.7248 C   0  0  2  0  0  0  0  0  0  0  0  0
   32.0297  -24.1095   -9.9547 C   0  0  0  0  0  0  0  0  0  0  0  0
   31.1302  -21.8635  -10.4562 C   0  0  0  0  0  0  0  0  0  0  0  0
   29.8091  -22.0152   -9.7884 C   0  0  2  0  0  0  0  0  0  0  0  0
   28.7813  -21.2835  -10.5526 N   0  0  0  0  0  0  0  0  0  0  0  0
   29.7642  -21.6341   -8.3777 C   0  0  0  0  0  0  0  0  0  0  0  0
   30.0426  -22.5986   -7.3927 O   0  0  0  0  0  0  0  0  0  0  0  0
   29.4897  -20.4865   -7.9890 O   0  0  0  0  0  0  0  0  0  0  0  0
  2  1  1  1
  3  2  1  0
  4  5  1  1
  4  6  1  0
  4  2  1  0
  6  7  2  0
  9  8  1  0
 10  9  1  0
 11 10  1  0
 12 11  1  1
 12 14  1  0
 13  6  1  0
 13 12  1  0
 14 21  1  0
 14 15  2  0
 17 16  1  6
 17 19  1  0
 18 17  1  0
 20 19  1  6
 20 22  1  0
 21 20  1  0
 22 24  2  0
 22 23  1  0
M  END
$$$$
