VML.pdb
     RDKit          3D

 24 23  0  0  1  0  0  0  0  0999 V2000
   17.3953  -12.3515  -21.2671 C   0  0  0  0  0  0  0  0  0  0  0  0
   17.2963  -11.5670  -19.9768 C   0  0  2  0  0  0  0  0  0  0  0  0
   17.3033  -10.0986  -20.3141 C   0  0  0  0  0  0  0  0  0  0  0  0
   18.4576  -11.9491  -19.0664 C   0  0  2  0  0  0  0  0  0  0  0  0
   18.3300  -13.3417  -18.7735 N   0  0  0  0  0  0  0  0  0  0  0  0
   18.5024  -11.0986  -17.8614 C   0  0  0  0  0  0  0  0  0  0  0  0
   17.6866  -11.3205  -16.9315 O   0  0  0  0  0  0  0  0  0  0  0  0
   23.0075  -10.4706  -13.6883 C   0  0  0  0  0  0  0  0  0  0  0  0
   22.7157   -8.7000  -14.0155 S   0  0  0  0  0  0  0  0  0  0  0  0
   21.0504   -8.4460  -14.7319 C   0  0  0  0  0  0  0  0  0  0  0  0
   20.8821   -9.3119  -15.9439 C   0  0  0  0  0  0  0  0  0  0  0  0
   19.4476   -9.2833  -16.4309 C   0  0  2  0  0  0  0  0  0  0  0  0
   19.4192  -10.0501  -17.7096 N   0  0  0  0  0  0  0  0  0  0  0  0
   19.0260   -7.9259  -16.7841 C   0  0  0  0  0  0  0  0  0  0  0  0
   19.5408   -7.3046  -17.7794 O   0  0  0  0  0  0  0  0  0  0  0  0
   14.4785   -3.9836  -16.7493 C   0  0  0  0  0  0  0  0  0  0  0  0
   16.0182   -4.0816  -16.8521 C   0  0  2  0  0  0  0  0  0  0  0  0
   16.3924   -3.6917  -18.2670 C   0  0  0  0  0  0  0  0  0  0  0  0
   16.3260   -5.5373  -16.6256 C   0  0  0  0  0  0  0  0  0  0  0  0
   17.7831   -5.7572  -16.4188 C   0  0  2  0  0  0  0  0  0  0  0  0
   18.0279   -7.1737  -16.0881 N   0  0  0  0  0  0  0  0  0  0  0  0
   18.4227   -4.8853  -15.4348 C   0  0  0  0  0  0  0  0  0  0  0  0
   19.1612   -3.7724  -15.8751 O   0  0  0  0  0  0  0  0  0  0  0  0
   18.3511   -5.0720  -14.2087 O   0  0  0  0  0  0  0  0  0  0  0  0
  2  1  1  6
  3  2  1  0
  4  5  1  1
  4  6  1  0
  4  2  1  0
  6  7  2  0
  9  8  1  0
 10  9  1  0
 11 10  1  0
 12 11  1  6
 12 14  1  0
 13  6  1  0
 13 12  1  0
 14 21  1  0
 14 15  2  0
 17 16  1  6
 17 19  1  0
 18 17  1  0
 20 19  1  1
 20 22  1  0
 21 20  1  0
 22 24  2  0
 22 23  1  0
M  END
$$$$
