VML.pdb
     RDKit          3D

 24 23  0  0  1  0  0  0  0  0999 V2000
   29.1290  -19.9389  -16.1135 C   0  0  0  0  0  0  0  0  0  0  0  0
   28.2898  -20.8010  -15.1956 C   0  0  2  0  0  0  0  0  0  0  0  0
   27.9918  -22.0965  -15.9048 C   0  0  0  0  0  0  0  0  0  0  0  0
   27.0176  -20.0482  -14.8236 C   0  0  2  0  0  0  0  0  0  0  0  0
   27.3948  -18.7103  -14.4929 N   0  0  0  0  0  0  0  0  0  0  0  0
   26.2803  -20.7330  -13.7444 C   0  0  0  0  0  0  0  0  0  0  0  0
   25.8126  -21.8791  -13.9617 O   0  0  0  0  0  0  0  0  0  0  0  0
   26.0040  -19.3859   -7.2397 C   0  0  0  0  0  0  0  0  0  0  0  0
   27.4324  -20.2135   -8.0156 S   0  0  0  0  0  0  0  0  0  0  0  0
   26.9481  -20.9661   -9.6124 C   0  0  0  0  0  0  0  0  0  0  0  0
   25.6872  -20.3278  -10.1123 C   0  0  0  0  0  0  0  0  0  0  0  0
   25.2908  -20.9006  -11.4579 C   0  0  2  0  0  0  0  0  0  0  0  0
   26.0787  -20.1575  -12.4831 N   0  0  0  0  0  0  0  0  0  0  0  0
   23.8876  -20.6203  -11.7701 C   0  0  0  0  0  0  0  0  0  0  0  0
   23.4851  -19.4309  -12.0252 O   0  0  0  0  0  0  0  0  0  0  0  0
   20.5837  -22.5561  -15.9788 C   0  0  0  0  0  0  0  0  0  0  0  0
   20.4249  -21.6881  -14.7092 C   0  0  2  0  0  0  0  0  0  0  0  0
   20.3370  -20.2471  -15.1670 C   0  0  0  0  0  0  0  0  0  0  0  0
   21.6990  -21.9014  -13.9368 C   0  0  0  0  0  0  0  0  0  0  0  0
   21.5995  -21.3408  -12.5620 C   0  0  2  0  0  0  0  0  0  0  0  0
   22.8515  -21.6049  -11.8280 N   0  0  0  0  0  0  0  0  0  0  0  0
   20.4461  -21.7818  -11.7793 C   0  0  0  0  0  0  0  0  0  0  0  0
   20.6003  -22.8272  -10.8514 O   0  0  0  0  0  0  0  0  0  0  0  0
   19.3155  -21.2781  -11.8865 O   0  0  0  0  0  0  0  0  0  0  0  0
  2  1  1  6
  3  2  1  0
  4  5  1  1
  4  6  1  0
  4  2  1  0
  6  7  2  0
  9  8  1  0
 10  9  1  0
 11 10  1  0
 12 11  1  1
 12 14  1  0
 13  6  1  0
 13 12  1  0
 14 21  1  0
 14 15  2  0
 17 16  1  6
 17 19  1  0
 18 17  1  0
 20 19  1  6
 20 22  1  0
 21 20  1  0
 22 24  2  0
 22 23  1  0
M  END
$$$$
