VML.pdb
     RDKit          3D

 24 23  0  0  1  0  0  0  0  0999 V2000
   25.7836  -19.1760  -15.0182 C   0  0  0  0  0  0  0  0  0  0  0  0
   27.2671  -19.0131  -14.7675 C   0  0  2  0  0  0  0  0  0  0  0  0
   28.0006  -19.3321  -16.0443 C   0  0  0  0  0  0  0  0  0  0  0  0
   27.6867  -19.9295  -13.6239 C   0  0  2  0  0  0  0  0  0  0  0  0
   27.4547  -21.2742  -14.0475 N   0  0  0  0  0  0  0  0  0  0  0  0
   26.9913  -19.5819  -12.3697 C   0  0  0  0  0  0  0  0  0  0  0  0
   27.0354  -18.3943  -11.9606 O   0  0  0  0  0  0  0  0  0  0  0  0
   21.2927  -21.4751  -11.0601 C   0  0  0  0  0  0  0  0  0  0  0  0
   21.7318  -21.1415   -9.3213 S   0  0  0  0  0  0  0  0  0  0  0  0
   23.3927  -20.3795   -9.2139 C   0  0  0  0  0  0  0  0  0  0  0  0
   24.1906  -20.7282  -10.4341 C   0  0  0  0  0  0  0  0  0  0  0  0
   25.5592  -20.0798  -10.3858 C   0  0  2  0  0  0  0  0  0  0  0  0
   26.2813  -20.5231  -11.6129 N   0  0  0  0  0  0  0  0  0  0  0  0
   26.3549  -20.5848   -9.2646 C   0  0  0  0  0  0  0  0  0  0  0  0
   26.9075  -21.7401   -9.3051 O   0  0  0  0  0  0  0  0  0  0  0  0
   28.2514  -19.6774   -4.2410 C   0  0  0  0  0  0  0  0  0  0  0  0
   29.1922  -20.2054   -5.3486 C   0  0  2  0  0  0  0  0  0  0  0  0
   30.5281  -19.5178   -5.1587 C   0  0  0  0  0  0  0  0  0  0  0  0
   28.5620  -19.7492   -6.6370 C   0  0  0  0  0  0  0  0  0  0  0  0
   27.3166  -20.5092   -6.9299 C   0  0  2  0  0  0  0  0  0  0  0  0
   26.5989  -19.8708   -8.0493 N   0  0  0  0  0  0  0  0  0  0  0  0
   26.4164  -20.7127   -5.7960 C   0  0  0  0  0  0  0  0  0  0  0  0
   26.6575  -21.7736   -4.9048 O   0  0  0  0  0  0  0  0  0  0  0  0
   25.4320  -19.9901   -5.5678 O   0  0  0  0  0  0  0  0  0  0  0  0
  2  1  1  6
  3  2  1  0
  4  5  1  6
  4  6  1  0
  4  2  1  0
  6  7  2  0
  9  8  1  0
 10  9  1  0
 11 10  1  0
 12 11  1  6
 12 14  1  0
 13  6  1  0
 13 12  1  0
 14 21  1  0
 14 15  2  0
 17 16  1  1
 17 19  1  0
 18 17  1  0
 20 19  1  1
 20 22  1  0
 21 20  1  0
 22 24  2  0
 22 23  1  0
M  END
$$$$
