VML.pdb
     RDKit          3D

 24 23  0  0  1  0  0  0  0  0999 V2000
   14.1998  -24.9976   -2.2019 C   0  0  0  0  0  0  0  0  0  0  0  0
   13.1991  -23.9224   -2.5664 C   0  0  2  0  0  0  0  0  0  0  0  0
   13.1599  -23.8019   -4.0677 C   0  0  0  0  0  0  0  0  0  0  0  0
   13.6035  -22.6130   -1.8990 C   0  0  2  0  0  0  0  0  0  0  0  0
   14.7721  -22.1358   -2.5685 N   0  0  0  0  0  0  0  0  0  0  0  0
   13.7890  -22.7821   -0.4449 C   0  0  0  0  0  0  0  0  0  0  0  0
   12.8246  -23.1978    0.2454 O   0  0  0  0  0  0  0  0  0  0  0  0
   18.0261  -26.1407    1.4322 C   0  0  0  0  0  0  0  0  0  0  0  0
   16.5309  -26.4891    2.4173 S   0  0  0  0  0  0  0  0  0  0  0  0
   15.3562  -25.0887    2.3172 C   0  0  0  0  0  0  0  0  0  0  0  0
   16.0784  -23.8514    1.8763 C   0  0  0  0  0  0  0  0  0  0  0  0
   15.1082  -22.7052    1.6738 C   0  0  2  0  0  0  0  0  0  0  0  0
   14.9993  -22.4979    0.2010 N   0  0  0  0  0  0  0  0  0  0  0  0
   15.6419  -21.4482    2.2033 C   0  0  0  0  0  0  0  0  0  0  0  0
   16.5164  -20.7697    1.5579 O   0  0  0  0  0  0  0  0  0  0  0  0
   16.6350  -17.3100    2.3597 C   0  0  0  0  0  0  0  0  0  0  0  0
   15.1948  -17.8547    2.2184 C   0  0  2  0  0  0  0  0  0  0  0  0
   14.2929  -16.6620    1.9780 C   0  0  0  0  0  0  0  0  0  0  0  0
   14.8836  -18.4683    3.5570 C   0  0  0  0  0  0  0  0  0  0  0  0
   15.8303  -19.5695    3.8815 C   0  0  2  0  0  0  0  0  0  0  0  0
   15.2577  -20.8582    3.4485 N   0  0  0  0  0  0  0  0  0  0  0  0
   16.2608  -19.6453    5.2767 C   0  0  0  0  0  0  0  0  0  0  0  0
   15.9592  -20.7933    6.0309 O   0  0  0  0  0  0  0  0  0  0  0  0
   16.8899  -18.7385    5.8471 O   0  0  0  0  0  0  0  0  0  0  0  0
  2  1  1  6
  3  2  1  0
  4  5  1  6
  4  6  1  0
  4  2  1  0
  6  7  2  0
  9  8  1  0
 10  9  1  0
 11 10  1  0
 12 11  1  6
 12 14  1  0
 13  6  1  0
 13 12  1  0
 14 21  1  0
 14 15  2  0
 17 16  1  1
 17 19  1  0
 18 17  1  0
 20 19  1  1
 20 22  1  0
 21 20  1  0
 22 24  2  0
 22 23  1  0
M  END
$$$$
