VML.pdb
     RDKit          3D

 24 23  0  0  1  0  0  0  0  0999 V2000
   25.3817  -23.5213  -19.3344 C   0  0  0  0  0  0  0  0  0  0  0  0
   25.9147  -23.6869  -17.9278 C   0  0  2  0  0  0  0  0  0  0  0  0
   24.8665  -24.3888  -17.1041 C   0  0  0  0  0  0  0  0  0  0  0  0
   26.2647  -22.3166  -17.3589 C   0  0  2  0  0  0  0  0  0  0  0  0
   27.2020  -21.7109  -18.2511 N   0  0  0  0  0  0  0  0  0  0  0  0
   26.7567  -22.4170  -15.9715 C   0  0  0  0  0  0  0  0  0  0  0  0
   27.3638  -23.4588  -15.6170 O   0  0  0  0  0  0  0  0  0  0  0  0
   31.6642  -21.0190  -12.1600 C   0  0  0  0  0  0  0  0  0  0  0  0
   30.3095  -19.8272  -11.8919 S   0  0  0  0  0  0  0  0  0  0  0  0
   28.6860  -20.6646  -12.0088 C   0  0  0  0  0  0  0  0  0  0  0  0
   28.1876  -20.6098  -13.4215 C   0  0  0  0  0  0  0  0  0  0  0  0
   27.0574  -21.5968  -13.6323 C   0  0  2  0  0  0  0  0  0  0  0  0
   26.5752  -21.3964  -15.0291 N   0  0  0  0  0  0  0  0  0  0  0  0
   25.9081  -21.2896  -12.7780 C   0  0  0  0  0  0  0  0  0  0  0  0
   24.8203  -20.8202  -13.2659 O   0  0  0  0  0  0  0  0  0  0  0  0
   27.2339  -20.9446   -8.6087 C   0  0  0  0  0  0  0  0  0  0  0  0
   25.8417  -20.2736   -8.6550 C   0  0  2  0  0  0  0  0  0  0  0  0
   25.4874  -19.8920   -7.2328 C   0  0  0  0  0  0  0  0  0  0  0  0
   24.9116  -21.3527   -9.1406 C   0  0  0  0  0  0  0  0  0  0  0  0
   24.6364  -21.2160  -10.5966 C   0  0  2  0  0  0  0  0  0  0  0  0
   25.8711  -21.4767  -11.3603 N   0  0  0  0  0  0  0  0  0  0  0  0
   24.0368  -19.9490  -11.0124 C   0  0  0  0  0  0  0  0  0  0  0  0
   22.6685  -19.7233  -10.7791 O   0  0  0  0  0  0  0  0  0  0  0  0
   24.6764  -19.0417  -11.5701 O   0  0  0  0  0  0  0  0  0  0  0  0
  2  1  1  6
  3  2  1  0
  4  5  1  6
  4  6  1  0
  4  2  1  0
  6  7  2  0
  9  8  1  0
 10  9  1  0
 11 10  1  0
 12 11  1  1
 12 14  1  0
 13  6  1  0
 13 12  1  0
 14 21  1  0
 14 15  2  0
 17 16  1  1
 17 19  1  0
 18 17  1  0
 20 19  1  1
 20 22  1  0
 21 20  1  0
 22 24  2  0
 22 23  1  0
M  END
$$$$
