VML.pdb
     RDKit          3D

 24 23  0  0  1  0  0  0  0  0999 V2000
   27.9219  -17.6509  -14.5934 C   0  0  0  0  0  0  0  0  0  0  0  0
   28.1690  -19.1422  -14.6638 C   0  0  2  0  0  0  0  0  0  0  0  0
   28.8495  -19.4478  -15.9728 C   0  0  0  0  0  0  0  0  0  0  0  0
   26.8413  -19.8783  -14.5252 C   0  0  2  0  0  0  0  0  0  0  0  0
   26.0681  -19.5868  -15.6907 N   0  0  0  0  0  0  0  0  0  0  0  0
   26.1577  -19.5275  -13.2655 C   0  0  0  0  0  0  0  0  0  0  0  0
   25.6948  -18.3670  -13.1293 O   0  0  0  0  0  0  0  0  0  0  0  0
   21.3378  -22.5102  -11.9377 C   0  0  0  0  0  0  0  0  0  0  0  0
   21.2503  -20.7010  -12.1534 S   0  0  0  0  0  0  0  0  0  0  0  0
   22.9294  -19.9721  -12.1451 C   0  0  0  0  0  0  0  0  0  0  0  0
   23.8224  -20.7659  -11.2399 C   0  0  0  0  0  0  0  0  0  0  0  0
   25.1512  -20.0645  -11.0443 C   0  0  2  0  0  0  0  0  0  0  0  0
   26.0022  -20.4366  -12.2109 N   0  0  0  0  0  0  0  0  0  0  0  0
   25.8611  -20.5741   -9.8690 C   0  0  0  0  0  0  0  0  0  0  0  0
   26.2663  -21.7881   -9.8082 O   0  0  0  0  0  0  0  0  0  0  0  0
   28.3928  -18.8001   -4.5443 C   0  0  0  0  0  0  0  0  0  0  0  0
   27.8941  -20.0132   -5.3630 C   0  0  2  0  0  0  0  0  0  0  0  0
   29.0905  -20.9126   -5.5939 C   0  0  0  0  0  0  0  0  0  0  0  0
   27.4340  -19.4298   -6.6720 C   0  0  0  0  0  0  0  0  0  0  0  0
   26.7303  -20.4459   -7.5006 C   0  0  2  0  0  0  0  0  0  0  0  0
   26.1739  -19.8026   -8.7057 N   0  0  0  0  0  0  0  0  0  0  0  0
   25.6987  -21.2208   -6.8130 C   0  0  0  0  0  0  0  0  0  0  0  0
   24.3461  -21.0071   -7.1336 O   0  0  0  0  0  0  0  0  0  0  0  0
   25.9502  -22.0739   -5.9457 O   0  0  0  0  0  0  0  0  0  0  0  0
  2  1  1  6
  3  2  1  0
  4  5  1  6
  4  6  1  0
  4  2  1  0
  6  7  2  0
  9  8  1  0
 10  9  1  0
 11 10  1  0
 12 11  1  6
 12 14  1  0
 13  6  1  0
 13 12  1  0
 14 21  1  0
 14 15  2  0
 17 16  1  1
 17 19  1  0
 18 17  1  0
 20 19  1  1
 20 22  1  0
 21 20  1  0
 22 24  2  0
 22 23  1  0
M  END
$$$$
