VML.pdb
     RDKit          3D

 24 23  0  0  1  0  0  0  0  0999 V2000
   22.6095  -19.1999  -15.5994 C   0  0  0  0  0  0  0  0  0  0  0  0
   22.8067  -20.2760  -14.5538 C   0  0  2  0  0  0  0  0  0  0  0  0
   22.5469  -21.6136  -15.1966 C   0  0  0  0  0  0  0  0  0  0  0  0
   21.8687  -20.0145  -13.3810 C   0  0  2  0  0  0  0  0  0  0  0  0
   21.8851  -18.6086  -13.1266 N   0  0  0  0  0  0  0  0  0  0  0  0
   22.2342  -20.8272  -12.2049 C   0  0  0  0  0  0  0  0  0  0  0  0
   22.2278  -22.0798  -12.3073 O   0  0  0  0  0  0  0  0  0  0  0  0
   25.8562  -20.0056   -6.2572 C   0  0  0  0  0  0  0  0  0  0  0  0
   26.3032  -19.7746   -8.0105 S   0  0  0  0  0  0  0  0  0  0  0  0
   25.2170  -20.7804   -9.0873 C   0  0  0  0  0  0  0  0  0  0  0  0
   23.7880  -20.3737   -8.8879 C   0  0  0  0  0  0  0  0  0  0  0  0
   22.8732  -21.1506   -9.8128 C   0  0  2  0  0  0  0  0  0  0  0  0
   22.5894  -20.2595  -10.9743 N   0  0  0  0  0  0  0  0  0  0  0  0
   21.5709  -21.4052   -9.1928 C   0  0  0  0  0  0  0  0  0  0  0  0
   20.6722  -20.4941   -9.1294 O   0  0  0  0  0  0  0  0  0  0  0  0
   17.2070  -25.2416   -9.3626 C   0  0  0  0  0  0  0  0  0  0  0  0
   17.6246  -23.9247   -8.6683 C   0  0  2  0  0  0  0  0  0  0  0  0
   16.7201  -22.8355   -9.2060 C   0  0  0  0  0  0  0  0  0  0  0  0
   19.0393  -23.6835   -9.1221 C   0  0  0  0  0  0  0  0  0  0  0  0
   19.7892  -22.8540   -8.1404 C   0  0  2  0  0  0  0  0  0  0  0  0
   21.1706  -22.6517   -8.6164 N   0  0  0  0  0  0  0  0  0  0  0  0
   19.7905  -23.3466   -6.7638 C   0  0  0  0  0  0  0  0  0  0  0  0
   18.5713  -23.4718   -6.0742 O   0  0  0  0  0  0  0  0  0  0  0  0
   20.8246  -23.6681   -6.1549 O   0  0  0  0  0  0  0  0  0  0  0  0
  2  1  1  6
  3  2  1  0
  4  5  1  1
  4  6  1  0
  4  2  1  0
  6  7  2  0
  9  8  1  0
 10  9  1  0
 11 10  1  0
 12 11  1  1
 12 14  1  0
 13  6  1  0
 13 12  1  0
 14 21  1  0
 14 15  2  0
 17 16  1  6
 17 19  1  0
 18 17  1  0
 20 19  1  6
 20 22  1  0
 21 20  1  0
 22 24  2  0
 22 23  1  0
M  END
$$$$
