VML.pdb
     RDKit          3D

 24 23  0  0  1  0  0  0  0  0999 V2000
   17.9271  -14.9314  -18.9951 C   0  0  0  0  0  0  0  0  0  0  0  0
   18.6844  -14.2632  -17.8681 C   0  0  2  0  0  0  0  0  0  0  0  0
   17.9152  -14.4754  -16.5901 C   0  0  0  0  0  0  0  0  0  0  0  0
   18.8605  -12.7836  -18.1894 C   0  0  2  0  0  0  0  0  0  0  0  0
   19.1871  -12.6841  -19.5768 N   0  0  0  0  0  0  0  0  0  0  0  0
   19.8600  -12.1537  -17.3054 C   0  0  0  0  0  0  0  0  0  0  0  0
   19.6781  -12.1885  -16.0623 O   0  0  0  0  0  0  0  0  0  0  0  0
   26.7962  -10.4708  -15.2576 C   0  0  0  0  0  0  0  0  0  0  0  0
   25.6055  -11.1195  -16.4777 S   0  0  0  0  0  0  0  0  0  0  0  0
   24.2452   -9.9240  -16.7448 C   0  0  0  0  0  0  0  0  0  0  0  0
   23.2008  -10.5337  -17.6306 C   0  0  0  0  0  0  0  0  0  0  0  0
   21.9610  -10.8888  -16.8352 C   0  0  2  0  0  0  0  0  0  0  0  0
   21.0074  -11.5161  -17.7949 N   0  0  0  0  0  0  0  0  0  0  0  0
   21.2788   -9.6917  -16.3383 C   0  0  0  0  0  0  0  0  0  0  0  0
   20.5491   -8.9718  -17.1070 O   0  0  0  0  0  0  0  0  0  0  0  0
   18.1015   -8.3875  -13.6378 C   0  0  0  0  0  0  0  0  0  0  0  0
   19.3449   -8.8996  -12.8747 C   0  0  2  0  0  0  0  0  0  0  0  0
   19.0071   -8.8559  -11.3990 C   0  0  0  0  0  0  0  0  0  0  0  0
   20.4236   -7.8957  -13.1813 C   0  0  0  0  0  0  0  0  0  0  0  0
   20.7755   -7.9030  -14.6271 C   0  0  2  0  0  0  0  0  0  0  0  0
   21.3443   -9.2143  -14.9915 N   0  0  0  0  0  0  0  0  0  0  0  0
   21.6559   -6.8235  -15.0709 C   0  0  0  0  0  0  0  0  0  0  0  0
   21.1296   -5.5311  -15.2460 O   0  0  0  0  0  0  0  0  0  0  0  0
   22.8653   -6.9824  -15.3070 O   0  0  0  0  0  0  0  0  0  0  0  0
  2  1  1  6
  3  2  1  0
  4  5  1  6
  4  6  1  0
  4  2  1  0
  6  7  2  0
  9  8  1  0
 10  9  1  0
 11 10  1  0
 12 11  1  6
 12 14  1  0
 13  6  1  0
 13 12  1  0
 14 21  1  0
 14 15  2  0
 17 16  1  6
 17 19  1  0
 18 17  1  0
 20 19  1  1
 20 22  1  0
 21 20  1  0
 22 24  2  0
 22 23  1  0
M  END
$$$$
