VML.pdb
     RDKit          3D

 24 23  0  0  1  0  0  0  0  0999 V2000
   26.2723  -18.9828  -15.8617 C   0  0  0  0  0  0  0  0  0  0  0  0
   27.5407  -18.7737  -15.0633 C   0  0  2  0  0  0  0  0  0  0  0  0
   28.5324  -18.0453  -15.9328 C   0  0  0  0  0  0  0  0  0  0  0  0
   28.0718  -20.1256  -14.6010 C   0  0  2  0  0  0  0  0  0  0  0  0
   28.3199  -20.9090  -15.7699 N   0  0  0  0  0  0  0  0  0  0  0  0
   27.1492  -20.7715  -13.6476 C   0  0  0  0  0  0  0  0  0  0  0  0
   26.3981  -21.6915  -14.0587 O   0  0  0  0  0  0  0  0  0  0  0  0
   26.3730  -19.1178   -7.1406 C   0  0  0  0  0  0  0  0  0  0  0  0
   26.0542  -20.9072   -7.2951 S   0  0  0  0  0  0  0  0  0  0  0  0
   25.5289  -21.3204   -8.9993 C   0  0  0  0  0  0  0  0  0  0  0  0
   26.4751  -20.7043   -9.9852 C   0  0  0  0  0  0  0  0  0  0  0  0
   26.1072  -21.0964  -11.4017 C   0  0  2  0  0  0  0  0  0  0  0  0
   27.0749  -20.4012  -12.2984 N   0  0  0  0  0  0  0  0  0  0  0  0
   24.7897  -20.5792  -11.7786 C   0  0  0  0  0  0  0  0  0  0  0  0
   24.5915  -19.3265  -11.9609 O   0  0  0  0  0  0  0  0  0  0  0  0
   19.8568  -21.8014  -13.8029 C   0  0  0  0  0  0  0  0  0  0  0  0
   20.8873  -20.8978  -14.5188 C   0  0  2  0  0  0  0  0  0  0  0  0
   20.8269  -21.2402  -15.9928 C   0  0  0  0  0  0  0  0  0  0  0  0
   22.2192  -21.3117  -13.9529 C   0  0  0  0  0  0  0  0  0  0  0  0
   22.4000  -20.8038  -12.5660 C   0  0  2  0  0  0  0  0  0  0  0  0
   23.6244  -21.3834  -11.9823 N   0  0  0  0  0  0  0  0  0  0  0  0
   21.2641  -20.9981  -11.6662 C   0  0  0  0  0  0  0  0  0  0  0  0
   20.2227  -20.0530  -11.6549 O   0  0  0  0  0  0  0  0  0  0  0  0
   21.1613  -21.9676  -10.8962 O   0  0  0  0  0  0  0  0  0  0  0  0
  2  1  1  6
  3  2  1  0
  4  5  1  6
  4  6  1  0
  4  2  1  0
  6  7  2  0
  9  8  1  0
 10  9  1  0
 11 10  1  0
 12 11  1  1
 12 14  1  0
 13  6  1  0
 13 12  1  0
 14 21  1  0
 14 15  2  0
 17 16  1  1
 17 19  1  0
 18 17  1  0
 20 19  1  6
 20 22  1  0
 21 20  1  0
 22 24  2  0
 22 23  1  0
M  END
$$$$
