VML.pdb
     RDKit          3D

 24 23  0  0  1  0  0  0  0  0999 V2000
   22.2094  -15.2556  -17.8492 C   0  0  0  0  0  0  0  0  0  0  0  0
   20.9945  -14.6432  -18.5118 C   0  0  2  0  0  0  0  0  0  0  0  0
   20.6954  -15.4237  -19.7654 C   0  0  0  0  0  0  0  0  0  0  0  0
   21.2706  -13.1734  -18.8067 C   0  0  2  0  0  0  0  0  0  0  0  0
   22.2751  -13.1231  -19.8214 N   0  0  0  0  0  0  0  0  0  0  0  0
   21.6369  -12.4360  -17.5822 C   0  0  0  0  0  0  0  0  0  0  0  0
   20.8847  -12.5149  -16.5785 O   0  0  0  0  0  0  0  0  0  0  0  0
   27.7579  -13.1710  -14.8589 C   0  0  0  0  0  0  0  0  0  0  0  0
   26.9689  -11.6850  -15.5634 S   0  0  0  0  0  0  0  0  0  0  0  0
   25.1554  -11.9105  -15.6688 C   0  0  0  0  0  0  0  0  0  0  0  0
   24.5129  -10.6406  -16.1395 C   0  0  0  0  0  0  0  0  0  0  0  0
   23.0138  -10.8140  -16.2751 C   0  0  2  0  0  0  0  0  0  0  0  0
   22.7922  -11.6487  -17.4908 N   0  0  0  0  0  0  0  0  0  0  0  0
   22.3474   -9.5398  -16.5536 C   0  0  0  0  0  0  0  0  0  0  0  0
   22.4661   -8.9587  -17.6894 O   0  0  0  0  0  0  0  0  0  0  0  0
   17.5482   -6.6127  -17.2063 C   0  0  0  0  0  0  0  0  0  0  0  0
   19.0409   -6.3133  -16.9365 C   0  0  2  0  0  0  0  0  0  0  0  0
   19.6253   -5.7804  -18.2281 C   0  0  0  0  0  0  0  0  0  0  0  0
   19.6489   -7.6522  -16.6154 C   0  0  0  0  0  0  0  0  0  0  0  0
   20.9775   -7.5014  -15.9625 C   0  0  2  0  0  0  0  0  0  0  0  0
   21.5182   -8.8322  -15.6273 N   0  0  0  0  0  0  0  0  0  0  0  0
   21.0131   -6.6263  -14.7918 C   0  0  0  0  0  0  0  0  0  0  0  0
   21.2579   -7.1806  -13.5227 O   0  0  0  0  0  0  0  0  0  0  0  0
   20.8370   -5.3980  -14.8521 O   0  0  0  0  0  0  0  0  0  0  0  0
  2  1  1  6
  3  2  1  0
  4  5  1  6
  4  6  1  0
  4  2  1  0
  6  7  2  0
  9  8  1  0
 10  9  1  0
 11 10  1  0
 12 11  1  6
 12 14  1  0
 13  6  1  0
 13 12  1  0
 14 21  1  0
 14 15  2  0
 17 16  1  6
 17 19  1  0
 18 17  1  0
 20 19  1  1
 20 22  1  0
 21 20  1  0
 22 24  2  0
 22 23  1  0
M  END
$$$$
