VML.pdb
     RDKit          3D

 24 23  0  0  1  0  0  0  0  0999 V2000
   29.2706  -32.4572  -16.3539 C   0  0  0  0  0  0  0  0  0  0  0  0
   27.8270  -32.4910  -15.9010 C   0  0  2  0  0  0  0  0  0  0  0  0
   27.7811  -32.1296  -14.4391 C   0  0  0  0  0  0  0  0  0  0  0  0
   27.2503  -33.8772  -16.1647 C   0  0  2  0  0  0  0  0  0  0  0  0
   26.7798  -33.8941  -17.5137 N   0  0  0  0  0  0  0  0  0  0  0  0
   26.2113  -34.2271  -15.1772 C   0  0  0  0  0  0  0  0  0  0  0  0
   25.0030  -34.0786  -15.4894 O   0  0  0  0  0  0  0  0  0  0  0  0
   24.7467  -39.5906  -14.0930 C   0  0  0  0  0  0  0  0  0  0  0  0
   23.3947  -38.4786  -14.6057 S   0  0  0  0  0  0  0  0  0  0  0  0
   23.7226  -36.7680  -14.0425 C   0  0  0  0  0  0  0  0  0  0  0  0
   25.1324  -36.6594  -13.5447 C   0  0  0  0  0  0  0  0  0  0  0  0
   25.4202  -35.2582  -13.0450 C   0  0  2  0  0  0  0  0  0  0  0  0
   26.5158  -34.7199  -13.9016 N   0  0  0  0  0  0  0  0  0  0  0  0
   25.9637  -35.2727  -11.6850 C   0  0  0  0  0  0  0  0  0  0  0  0
   27.1704  -35.6350  -11.4521 O   0  0  0  0  0  0  0  0  0  0  0  0
   26.7407  -32.2425   -8.6650 C   0  0  0  0  0  0  0  0  0  0  0  0
   25.2465  -32.6293   -8.7559 C   0  0  2  0  0  0  0  0  0  0  0  0
   24.4940  -31.7105   -7.8160 C   0  0  0  0  0  0  0  0  0  0  0  0
   25.1845  -34.0438   -8.2451 C   0  0  0  0  0  0  0  0  0  0  0  0
   25.8601  -34.9865   -9.1773 C   0  0  2  0  0  0  0  0  0  0  0  0
   25.2383  -34.8940  -10.5117 N   0  0  0  0  0  0  0  0  0  0  0  0
   25.9199  -36.3795   -8.7374 C   0  0  0  0  0  0  0  0  0  0  0  0
   26.8909  -36.7652   -7.7960 O   0  0  0  0  0  0  0  0  0  0  0  0
   25.1489  -37.2604   -9.1533 O   0  0  0  0  0  0  0  0  0  0  0  0
  2  1  1  1
  3  2  1  0
  4  5  1  6
  4  6  1  0
  4  2  1  0
  6  7  2  0
  9  8  1  0
 10  9  1  0
 11 10  1  0
 12 11  1  6
 12 14  1  0
 13  6  1  0
 13 12  1  0
 14 21  1  0
 14 15  2  0
 17 16  1  1
 17 19  1  0
 18 17  1  0
 20 19  1  1
 20 22  1  0
 21 20  1  0
 22 24  2  0
 22 23  1  0
M  END
$$$$
