VML.pdb
     RDKit          3D

 24 23  0  0  1  0  0  0  0  0999 V2000
   28.2504  -18.3748  -16.9106 C   0  0  0  0  0  0  0  0  0  0  0  0
   27.1674  -19.0001  -16.0585 C   0  0  2  0  0  0  0  0  0  0  0  0
   26.5410  -17.9169  -15.2193 C   0  0  0  0  0  0  0  0  0  0  0  0
   27.7767  -20.1047  -15.2028 C   0  0  2  0  0  0  0  0  0  0  0  0
   28.2985  -21.0943  -16.0916 N   0  0  0  0  0  0  0  0  0  0  0  0
   26.7991  -20.6416  -14.2368 C   0  0  0  0  0  0  0  0  0  0  0  0
   25.9467  -21.4745  -14.6357 O   0  0  0  0  0  0  0  0  0  0  0  0
   26.5843  -19.2469   -7.6566 C   0  0  0  0  0  0  0  0  0  0  0  0
   25.9447  -20.9416   -7.8718 S   0  0  0  0  0  0  0  0  0  0  0  0
   25.2834  -21.1676   -9.5637 C   0  0  0  0  0  0  0  0  0  0  0  0
   26.2688  -20.6484  -10.5669 C   0  0  0  0  0  0  0  0  0  0  0  0
   25.7531  -20.8430  -11.9783 C   0  0  2  0  0  0  0  0  0  0  0  0
   26.7808  -20.2607  -12.8887 N   0  0  0  0  0  0  0  0  0  0  0  0
   24.5364  -20.0641  -12.2193 C   0  0  0  0  0  0  0  0  0  0  0  0
   24.5824  -18.9065  -12.7666 O   0  0  0  0  0  0  0  0  0  0  0  0
   22.2951  -20.8988  -16.5554 C   0  0  0  0  0  0  0  0  0  0  0  0
   21.5336  -21.0390  -15.2171 C   0  0  2  0  0  0  0  0  0  0  0  0
   20.6837  -19.7953  -15.0598 C   0  0  0  0  0  0  0  0  0  0  0  0
   22.6088  -21.0589  -14.1641 C   0  0  0  0  0  0  0  0  0  0  0  0
   22.1325  -20.4514  -12.8919 C   0  0  2  0  0  0  0  0  0  0  0  0
   23.2128  -20.4938  -11.8883 N   0  0  0  0  0  0  0  0  0  0  0  0
   20.9016  -21.0163  -12.3412 C   0  0  0  0  0  0  0  0  0  0  0  0
   20.9200  -22.3132  -11.7976 O   0  0  0  0  0  0  0  0  0  0  0  0
   19.8190  -20.4071  -12.3238 O   0  0  0  0  0  0  0  0  0  0  0  0
  2  1  1  1
  3  2  1  0
  4  5  1  6
  4  6  1  0
  4  2  1  0
  6  7  2  0
  9  8  1  0
 10  9  1  0
 11 10  1  0
 12 11  1  1
 12 14  1  0
 13  6  1  0
 13 12  1  0
 14 21  1  0
 14 15  2  0
 17 16  1  6
 17 19  1  0
 18 17  1  0
 20 19  1  6
 20 22  1  0
 21 20  1  0
 22 24  2  0
 22 23  1  0
M  END
$$$$
