WYV.pdb
     RDKit          3D

 34 36  0  0  1  0  0  0  0  0999 V2000
   25.3158  -18.7411   -8.0846 N   0  0  0  0  0  0  0  0  0  0  0  0
   26.1966  -19.7570   -8.6386 C   0  0  1  0  0  0  0  0  0  0  0  0
   25.9056  -21.0880   -7.9511 C   0  0  0  0  0  0  0  0  0  0  0  0
   26.2114  -21.0816   -6.5208 C   0  0  0  0  0  0  0  0  0  0  0  0
   25.4231  -21.5071   -5.4678 C   0  0  0  0  0  0  0  0  0  0  0  0
   26.1017  -21.3129   -4.3328 N   0  0  0  0  0  0  0  0  0  0  0  0
   27.3059  -20.7782   -4.5745 C   0  0  0  0  0  0  0  0  0  0  0  0
   28.3366  -20.4111   -3.7240 C   0  0  0  0  0  0  0  0  0  0  0  0
   29.4883  -19.8739   -4.2802 C   0  0  0  0  0  0  0  0  0  0  0  0
   29.5865  -19.7179   -5.6324 C   0  0  0  0  0  0  0  0  0  0  0  0
   28.5505  -20.0877   -6.4762 C   0  0  0  0  0  0  0  0  0  0  0  0
   27.3944  -20.6249   -5.9431 C   0  0  0  0  0  0  0  0  0  0  0  0
   25.8023  -19.9858  -10.0747 C   0  0  0  0  0  0  0  0  0  0  0  0
   24.5913  -19.9306  -10.4200 O   0  0  0  0  0  0  0  0  0  0  0  0
   28.1185  -18.1428  -18.4556 O   0  0  0  0  0  0  0  0  0  0  0  0
   28.0941  -18.4689  -17.0927 C   0  0  0  0  0  0  0  0  0  0  0  0
   28.4656  -19.7282  -16.6848 C   0  0  0  0  0  0  0  0  0  0  0  0
   28.4566  -20.0943  -15.3418 C   0  0  0  0  0  0  0  0  0  0  0  0
   28.0654  -19.1671  -14.4046 C   0  0  0  0  0  0  0  0  0  0  0  0
   28.0347  -19.5287  -12.9705 C   0  0  0  0  0  0  0  0  0  0  0  0
   26.6880  -19.8975  -12.4468 C   0  0  2  0  0  0  0  0  0  0  0  0
   26.7710  -20.2658  -11.0682 N   0  0  0  0  0  0  0  0  0  0  0  0
   25.8737  -20.7390  -13.3162 C   0  0  0  0  0  0  0  0  0  0  0  0
   26.1297  -21.9660  -13.3861 O   0  0  0  0  0  0  0  0  0  0  0  0
   27.6800  -17.8719  -14.7898 C   0  0  0  0  0  0  0  0  0  0  0  0
   27.7045  -17.5560  -16.1279 C   0  0  0  0  0  0  0  0  0  0  0  0
   22.4645  -21.6472  -13.0932 C   0  0  0  0  0  0  0  0  0  0  0  0
   22.6320  -21.2389  -14.5318 C   0  0  1  0  0  0  0  0  0  0  0  0
   21.9874  -19.8888  -14.6957 C   0  0  0  0  0  0  0  0  0  0  0  0
   24.0626  -21.1619  -14.9288 C   0  0  2  0  0  0  0  0  0  0  0  0
   24.8046  -20.2386  -14.0950 N   0  0  0  0  0  0  0  0  0  0  0  0
   24.2755  -20.8716  -16.3833 C   0  0  0  0  0  0  0  0  0  0  0  0
   24.1010  -21.8717  -17.3437 O   0  0  0  0  0  0  0  0  0  0  0  0
   24.6127  -19.7520  -16.8235 O   0  0  0  0  0  0  0  0  0  0  0  0
  2  1  1  1
  3  4  1  0
  3  2  1  0
  4  5  2  0
  6  5  1  0
  7  6  1  0
  8  7  2  0
  9  8  1  0
 10  9  2  0
 10 11  1  0
 11 12  2  0
 12  7  1  0
 12  4  1  0
 13 14  2  0
 13  2  1  0
 15 16  1  0
 16 17  2  0
 17 18  1  0
 19 20  1  0
 19 18  2  0
 21 20  1  6
 21 22  1  0
 22 13  1  0
 23 21  1  0
 24 23  2  0
 25 19  1  0
 26 25  2  0
 26 16  1  0
 28 27  1  1
 28 30  1  0
 28 29  1  0
 30 31  1  1
 31 23  1  0
 32 33  1  0
 32 30  1  0
 34 32  2  0
M  END
$$$$
