WYV.pdb
     RDKit          3D

 34 36  0  0  1  0  0  0  0  0999 V2000
   23.8282  -19.7787   -8.8951 N   0  0  0  0  0  0  0  0  0  0  0  0
   25.2297  -19.7841   -9.2831 C   0  0  1  0  0  0  0  0  0  0  0  0
   25.9082  -20.9997   -8.6579 C   0  0  0  0  0  0  0  0  0  0  0  0
   26.1841  -20.8402   -7.2304 C   0  0  0  0  0  0  0  0  0  0  0  0
   25.4208  -21.2498   -6.1528 C   0  0  0  0  0  0  0  0  0  0  0  0
   26.0551  -20.8925   -5.0318 N   0  0  0  0  0  0  0  0  0  0  0  0
   27.2057  -20.2639   -5.3063 C   0  0  0  0  0  0  0  0  0  0  0  0
   28.1789  -19.7248   -4.4800 C   0  0  0  0  0  0  0  0  0  0  0  0
   29.2831  -19.1259   -5.0685 C   0  0  0  0  0  0  0  0  0  0  0  0
   29.3918  -19.0777   -6.4280 C   0  0  0  0  0  0  0  0  0  0  0  0
   28.4135  -19.6193   -7.2474 C   0  0  0  0  0  0  0  0  0  0  0  0
   27.3053  -20.2207   -6.6820 C   0  0  0  0  0  0  0  0  0  0  0  0
   25.3038  -20.0383  -10.7664 C   0  0  0  0  0  0  0  0  0  0  0  0
   24.3208  -20.5371  -11.3777 O   0  0  0  0  0  0  0  0  0  0  0  0
   28.1767  -16.5404  -18.4250 O   0  0  0  0  0  0  0  0  0  0  0  0
   28.0523  -17.0026  -17.1077 C   0  0  0  0  0  0  0  0  0  0  0  0
   28.7769  -18.0960  -16.6960 C   0  0  0  0  0  0  0  0  0  0  0  0
   28.6841  -18.5880  -15.3971 C   0  0  0  0  0  0  0  0  0  0  0  0
   27.8445  -17.9587  -14.5083 C   0  0  0  0  0  0  0  0  0  0  0  0
   27.7156  -18.4639  -13.1239 C   0  0  0  0  0  0  0  0  0  0  0  0
   26.5017  -19.2923  -12.8705 C   0  0  2  0  0  0  0  0  0  0  0  0
   26.4678  -19.7268  -11.5092 N   0  0  0  0  0  0  0  0  0  0  0  0
   26.1759  -20.2773  -13.8955 C   0  0  0  0  0  0  0  0  0  0  0  0
   26.7746  -21.3808  -13.8886 O   0  0  0  0  0  0  0  0  0  0  0  0
   27.0908  -16.8390  -14.8987 C   0  0  0  0  0  0  0  0  0  0  0  0
   27.2148  -16.3891  -16.1921 C   0  0  0  0  0  0  0  0  0  0  0  0
   23.1115  -22.1537  -14.9786 C   0  0  0  0  0  0  0  0  0  0  0  0
   23.6711  -21.4346  -16.1763 C   0  0  1  0  0  0  0  0  0  0  0  0
   22.8187  -20.2165  -16.4102 C   0  0  0  0  0  0  0  0  0  0  0  0
   25.0854  -21.0241  -15.9721 C   0  0  2  0  0  0  0  0  0  0  0  0
   25.2157  -20.0496  -14.9084 N   0  0  0  0  0  0  0  0  0  0  0  0
   25.7703  -20.5596  -17.2213 C   0  0  0  0  0  0  0  0  0  0  0  0
   26.6577  -21.3972  -17.9023 O   0  0  0  0  0  0  0  0  0  0  0  0
   25.6009  -19.4283  -17.7236 O   0  0  0  0  0  0  0  0  0  0  0  0
  2  1  1  1
  3  4  1  0
  3  2  1  0
  4  5  2  0
  6  5  1  0
  7  6  1  0
  8  7  2  0
  9  8  1  0
 10  9  2  0
 10 11  1  0
 11 12  2  0
 12  7  1  0
 12  4  1  0
 13 14  2  0
 13  2  1  0
 15 16  1  0
 16 17  2  0
 17 18  1  0
 19 20  1  0
 19 18  2  0
 21 20  1  6
 21 22  1  0
 22 13  1  0
 23 21  1  0
 24 23  2  0
 25 19  1  0
 26 25  2  0
 26 16  1  0
 28 27  1  1
 28 30  1  0
 28 29  1  0
 30 31  1  1
 31 23  1  0
 32 33  1  0
 32 30  1  0
 34 32  2  0
M  END
$$$$
