WYV.pdb
     RDKit          3D

 34 36  0  0  1  0  0  0  0  0999 V2000
   26.9488  -22.5823  -12.9597 N   0  0  0  0  0  0  0  0  0  0  0  0
   26.1285  -21.8732  -11.9906 C   0  0  1  0  0  0  0  0  0  0  0  0
   26.7271  -20.4886  -11.7595 C   0  0  0  0  0  0  0  0  0  0  0  0
   27.8267  -20.4851  -10.7951 C   0  0  0  0  0  0  0  0  0  0  0  0
   29.1860  -20.5608  -11.0358 C   0  0  0  0  0  0  0  0  0  0  0  0
   29.8209  -20.5281   -9.8601 N   0  0  0  0  0  0  0  0  0  0  0  0
   28.9531  -20.4340   -8.8440 C   0  0  0  0  0  0  0  0  0  0  0  0
   29.1456  -20.3689   -7.4732 C   0  0  0  0  0  0  0  0  0  0  0  0
   28.0287  -20.2724   -6.6561 C   0  0  0  0  0  0  0  0  0  0  0  0
   26.7797  -20.2437   -7.2054 C   0  0  0  0  0  0  0  0  0  0  0  0
   26.5960  -20.3093   -8.5780 C   0  0  0  0  0  0  0  0  0  0  0  0
   27.6949  -20.4058   -9.4102 C   0  0  0  0  0  0  0  0  0  0  0  0
   24.7888  -21.5987  -12.6230 C   0  0  0  0  0  0  0  0  0  0  0  0
   24.6735  -21.5509  -13.8773 O   0  0  0  0  0  0  0  0  0  0  0  0
   15.9181  -20.8601  -12.8859 O   0  0  0  0  0  0  0  0  0  0  0  0
   17.2526  -21.0047  -12.4826 C   0  0  0  0  0  0  0  0  0  0  0  0
   17.8908  -19.9655  -11.8478 C   0  0  0  0  0  0  0  0  0  0  0  0
   19.2150  -20.0663  -11.4302 C   0  0  0  0  0  0  0  0  0  0  0  0
   19.8956  -21.2386  -11.6616 C   0  0  0  0  0  0  0  0  0  0  0  0
   21.3071  -21.3731  -11.2396 C   0  0  0  0  0  0  0  0  0  0  0  0
   22.3070  -21.1821  -12.3294 C   0  0  2  0  0  0  0  0  0  0  0  0
   23.6319  -21.3894  -11.8347 N   0  0  0  0  0  0  0  0  0  0  0  0
   22.0902  -20.0324  -13.2001 C   0  0  0  0  0  0  0  0  0  0  0  0
   22.3452  -18.8836  -12.7628 O   0  0  0  0  0  0  0  0  0  0  0  0
   19.2711  -22.3186  -12.3080 C   0  0  0  0  0  0  0  0  0  0  0  0
   17.9620  -22.1727  -12.7029 C   0  0  0  0  0  0  0  0  0  0  0  0
   23.6905  -18.8147  -16.0695 C   0  0  0  0  0  0  0  0  0  0  0  0
   22.2360  -18.8177  -16.4556 C   0  0  1  0  0  0  0  0  0  0  0  0
   22.0152  -19.9895  -17.3737 C   0  0  0  0  0  0  0  0  0  0  0  0
   21.3433  -18.9337  -15.2724 C   0  0  2  0  0  0  0  0  0  0  0  0
   21.5986  -20.1457  -14.5212 N   0  0  0  0  0  0  0  0  0  0  0  0
   19.8866  -18.7902  -15.5931 C   0  0  0  0  0  0  0  0  0  0  0  0
   19.3855  -17.5951  -16.1162 O   0  0  0  0  0  0  0  0  0  0  0  0
   19.0471  -19.6991  -15.4205 O   0  0  0  0  0  0  0  0  0  0  0  0
  2  1  1  6
  3  4  1  0
  3  2  1  0
  4  5  2  0
  6  5  1  0
  7  6  1  0
  8  7  2  0
  9  8  1  0
 10  9  2  0
 10 11  1  0
 11 12  2  0
 12  7  1  0
 12  4  1  0
 13 14  2  0
 13  2  1  0
 15 16  1  0
 16 17  2  0
 17 18  1  0
 19 20  1  0
 19 18  2  0
 21 20  1  1
 21 22  1  0
 22 13  1  0
 23 21  1  0
 24 23  2  0
 25 19  1  0
 26 25  2  0
 26 16  1  0
 28 27  1  1
 28 30  1  0
 28 29  1  0
 30 31  1  6
 31 23  1  0
 32 33  1  0
 32 30  1  0
 34 32  2  0
M  END
$$$$
