WYV.pdb
     RDKit          3D

 34 36  0  0  1  0  0  0  0  0999 V2000
   10.4902  -15.5120  -30.4303 N   0  0  0  0  0  0  0  0  0  0  0  0
   10.8148  -14.9960  -31.7506 C   0  0  1  0  0  0  0  0  0  0  0  0
   10.7638  -16.1451  -32.7536 C   0  0  0  0  0  0  0  0  0  0  0  0
   10.5097  -17.4454  -32.1341 C   0  0  0  0  0  0  0  0  0  0  0  0
   11.3803  -18.2444  -31.4163 C   0  0  0  0  0  0  0  0  0  0  0  0
   10.7232  -19.3461  -31.0409 N   0  0  0  0  0  0  0  0  0  0  0  0
    9.4551  -19.3237  -31.4721 C   0  0  0  0  0  0  0  0  0  0  0  0
    8.4177  -20.2307  -31.3254 C   0  0  0  0  0  0  0  0  0  0  0  0
    7.1904  -19.9237  -31.8945 C   0  0  0  0  0  0  0  0  0  0  0  0
    7.0268  -18.7540  -32.5780 C   0  0  0  0  0  0  0  0  0  0  0  0
    8.0699  -17.8520  -32.7202 C   0  0  0  0  0  0  0  0  0  0  0  0
    9.3008  -18.1380  -32.1611 C   0  0  0  0  0  0  0  0  0  0  0  0
    9.7013  -14.0768  -32.1808 C   0  0  0  0  0  0  0  0  0  0  0  0
    8.5104  -14.3169  -31.8445 O   0  0  0  0  0  0  0  0  0  0  0  0
    7.7452  -17.3140  -37.2528 O   0  0  0  0  0  0  0  0  0  0  0  0
    8.6737  -16.5471  -36.5356 C   0  0  0  0  0  0  0  0  0  0  0  0
    8.4795  -15.1932  -36.3969 C   0  0  0  0  0  0  0  0  0  0  0  0
    9.3760  -14.3942  -35.6928 C   0  0  0  0  0  0  0  0  0  0  0  0
   10.4817  -14.9812  -35.1238 C   0  0  0  0  0  0  0  0  0  0  0  0
   11.4586  -14.1575  -34.3785 C   0  0  0  0  0  0  0  0  0  0  0  0
   10.9628  -12.8099  -33.9759 C   0  0  2  0  0  0  0  0  0  0  0  0
    9.9576  -12.9277  -32.9666 N   0  0  0  0  0  0  0  0  0  0  0  0
   10.7121  -11.8711  -35.0635 C   0  0  0  0  0  0  0  0  0  0  0  0
   11.4094  -11.9485  -36.1046 O   0  0  0  0  0  0  0  0  0  0  0  0
   10.7081  -16.3624  -35.2480 C   0  0  0  0  0  0  0  0  0  0  0  0
    9.7954  -17.1113  -35.9529 C   0  0  0  0  0  0  0  0  0  0  0  0
   11.7115  -10.7377  -36.9456 C   0  0  0  0  0  0  0  0  0  0  0  0
   10.6485   -9.6732  -36.9067 C   0  0  1  0  0  0  0  0  0  0  0  0
    9.6084  -10.0365  -37.9320 C   0  0  0  0  0  0  0  0  0  0  0  0
   10.0138   -9.5649  -35.5667 C   0  0  2  0  0  0  0  0  0  0  0  0
    9.7189  -10.8662  -35.0030 N   0  0  0  0  0  0  0  0  0  0  0  0
    8.8099   -8.6733  -35.5341 C   0  0  0  0  0  0  0  0  0  0  0  0
    7.6922   -8.9544  -36.3245 O   0  0  0  0  0  0  0  0  0  0  0  0
    8.7251   -7.6506  -34.8216 O   0  0  0  0  0  0  0  0  0  0  0  0
  2  1  1  1
  3  4  1  0
  3  2  1  0
  4  5  2  0
  6  5  1  0
  7  6  1  0
  8  7  2  0
  9  8  1  0
 10  9  2  0
 10 11  1  0
 11 12  2  0
 12  7  1  0
 12  4  1  0
 13 14  2  0
 13  2  1  0
 15 16  1  0
 16 17  2  0
 17 18  1  0
 19 20  1  0
 19 18  2  0
 21 20  1  6
 21 22  1  0
 22 13  1  0
 23 21  1  0
 24 23  2  0
 25 19  1  0
 26 25  2  0
 26 16  1  0
 28 27  1  1
 28 30  1  0
 28 29  1  0
 30 31  1  6
 31 23  1  0
 32 33  1  0
 32 30  1  0
 34 32  2  0
M  END
$$$$
