WYV.pdb
     RDKit          3D

 34 36  0  0  1  0  0  0  0  0999 V2000
   28.9362  -22.6674  -17.1731 N   0  0  0  0  0  0  0  0  0  0  0  0
   28.3571  -21.4393  -16.6524 C   0  0  1  0  0  0  0  0  0  0  0  0
   27.8801  -20.5854  -17.8239 C   0  0  0  0  0  0  0  0  0  0  0  0
   28.9676  -19.9071  -18.5285 C   0  0  0  0  0  0  0  0  0  0  0  0
   29.6123  -20.2873  -19.6910 C   0  0  0  0  0  0  0  0  0  0  0  0
   30.5449  -19.3714  -19.9701 N   0  0  0  0  0  0  0  0  0  0  0  0
   30.5560  -18.3966  -19.0514 C   0  0  0  0  0  0  0  0  0  0  0  0
   31.3350  -17.2570  -18.9290 C   0  0  0  0  0  0  0  0  0  0  0  0
   31.1078  -16.4181  -17.8478 C   0  0  0  0  0  0  0  0  0  0  0  0
   30.1378  -16.7228  -16.9376 C   0  0  0  0  0  0  0  0  0  0  0  0
   29.3629  -17.8650  -17.0674 C   0  0  0  0  0  0  0  0  0  0  0  0
   29.5725  -18.7145  -18.1370 C   0  0  0  0  0  0  0  0  0  0  0  0
   27.0939  -21.7945  -15.9121 C   0  0  0  0  0  0  0  0  0  0  0  0
   26.3995  -22.7826  -16.2733 O   0  0  0  0  0  0  0  0  0  0  0  0
   20.8570  -21.6167   -9.5929 O   0  0  0  0  0  0  0  0  0  0  0  0
   22.0252  -21.4600  -10.3514 C   0  0  0  0  0  0  0  0  0  0  0  0
   22.6930  -22.5690  -10.8144 C   0  0  0  0  0  0  0  0  0  0  0  0
   23.8562  -22.4591  -11.5713 C   0  0  0  0  0  0  0  0  0  0  0  0
   24.3435  -21.2060  -11.8597 C   0  0  0  0  0  0  0  0  0  0  0  0
   25.5833  -21.0561  -12.6527 C   0  0  0  0  0  0  0  0  0  0  0  0
   25.4022  -21.1844  -14.1274 C   0  0  2  0  0  0  0  0  0  0  0  0
   26.6548  -21.0369  -14.7999 N   0  0  0  0  0  0  0  0  0  0  0  0
   24.2532  -20.4862  -14.6924 C   0  0  0  0  0  0  0  0  0  0  0  0
   24.3095  -19.2399  -14.8327 O   0  0  0  0  0  0  0  0  0  0  0  0
   23.6837  -20.0534  -11.4009 C   0  0  0  0  0  0  0  0  0  0  0  0
   22.5385  -20.2112  -10.6564 C   0  0  0  0  0  0  0  0  0  0  0  0
   22.6971  -20.0252  -17.7567 C   0  0  0  0  0  0  0  0  0  0  0  0
   21.5608  -20.4523  -16.8674 C   0  0  1  0  0  0  0  0  0  0  0  0
   21.2362  -21.8825  -17.2055 C   0  0  0  0  0  0  0  0  0  0  0  0
   21.9076  -20.3451  -15.4257 C   0  0  2  0  0  0  0  0  0  0  0  0
   23.0669  -21.1458  -15.0891 N   0  0  0  0  0  0  0  0  0  0  0  0
   20.7631  -20.6312  -14.5018 C   0  0  0  0  0  0  0  0  0  0  0  0
   19.6694  -19.7642  -14.4308 O   0  0  0  0  0  0  0  0  0  0  0  0
   20.7095  -21.6318  -13.7556 O   0  0  0  0  0  0  0  0  0  0  0  0
  2  1  1  6
  3  4  1  0
  3  2  1  0
  4  5  2  0
  6  5  1  0
  7  6  1  0
  8  7  2  0
  9  8  1  0
 10  9  2  0
 10 11  1  0
 11 12  2  0
 12  7  1  0
 12  4  1  0
 13 14  2  0
 13  2  1  0
 15 16  1  0
 16 17  2  0
 17 18  1  0
 19 20  1  0
 19 18  2  0
 21 20  1  1
 21 22  1  0
 22 13  1  0
 23 21  1  0
 24 23  2  0
 25 19  1  0
 26 25  2  0
 26 16  1  0
 28 27  1  6
 28 30  1  0
 28 29  1  0
 30 31  1  1
 31 23  1  0
 32 33  1  0
 32 30  1  0
 34 32  2  0
M  END
$$$$
