WYV.pdb
     RDKit          3D

 34 36  0  0  1  0  0  0  0  0999 V2000
   19.1646  -20.8507  -14.7143 N   0  0  0  0  0  0  0  0  0  0  0  0
   19.1479  -22.3044  -14.6811 C   0  0  1  0  0  0  0  0  0  0  0  0
   20.3901  -22.8268  -15.3974 C   0  0  0  0  0  0  0  0  0  0  0  0
   20.3477  -22.6356  -16.8469 C   0  0  0  0  0  0  0  0  0  0  0  0
   20.2076  -21.4585  -17.5584 C   0  0  0  0  0  0  0  0  0  0  0  0
   20.2174  -21.7545  -18.8618 N   0  0  0  0  0  0  0  0  0  0  0  0
   20.3572  -23.0722  -19.0576 C   0  0  0  0  0  0  0  0  0  0  0  0
   20.4208  -23.8280  -20.2175 C   0  0  0  0  0  0  0  0  0  0  0  0
   20.5736  -25.2017  -20.0997 C   0  0  0  0  0  0  0  0  0  0  0  0
   20.6574  -25.7773  -18.8652 C   0  0  0  0  0  0  0  0  0  0  0  0
   20.5928  -25.0139  -17.7098 C   0  0  0  0  0  0  0  0  0  0  0  0
   20.4408  -23.6437  -17.8043 C   0  0  0  0  0  0  0  0  0  0  0  0
   19.3313  -22.7421  -13.2511 C   0  0  0  0  0  0  0  0  0  0  0  0
   19.8139  -21.9491  -12.3983 O   0  0  0  0  0  0  0  0  0  0  0  0
   17.8667  -24.9523   -5.1452 O   0  0  0  0  0  0  0  0  0  0  0  0
   17.9557  -24.5966   -6.4980 C   0  0  0  0  0  0  0  0  0  0  0  0
   19.1294  -24.0788   -6.9924 C   0  0  0  0  0  0  0  0  0  0  0  0
   19.2616  -23.7128   -8.3290 C   0  0  0  0  0  0  0  0  0  0  0  0
   18.1864  -23.8767   -9.1706 C   0  0  0  0  0  0  0  0  0  0  0  0
   18.2917  -23.4873  -10.5938 C   0  0  0  0  0  0  0  0  0  0  0  0
   18.9334  -24.5048  -11.4752 C   0  0  2  0  0  0  0  0  0  0  0  0
   18.9698  -24.0436  -12.8276 N   0  0  0  0  0  0  0  0  0  0  0  0
   18.5305  -25.8884  -11.2509 C   0  0  0  0  0  0  0  0  0  0  0  0
   17.4161  -26.2733  -11.6821 O   0  0  0  0  0  0  0  0  0  0  0  0
   16.9735  -24.4032   -8.6954 C   0  0  0  0  0  0  0  0  0  0  0  0
   16.8898  -24.7503   -7.3675 C   0  0  0  0  0  0  0  0  0  0  0  0
   21.3117  -28.9603  -10.1266 C   0  0  0  0  0  0  0  0  0  0  0  0
   20.1629  -29.0489  -11.0945 C   0  0  1  0  0  0  0  0  0  0  0  0
   19.7594  -30.4960  -11.1848 C   0  0  0  0  0  0  0  0  0  0  0  0
   19.0001  -28.2313  -10.6592 C   0  0  2  0  0  0  0  0  0  0  0  0
   19.3354  -26.8254  -10.5624 N   0  0  0  0  0  0  0  0  0  0  0  0
   18.3480  -28.7219   -9.4025 C   0  0  0  0  0  0  0  0  0  0  0  0
   18.3698  -27.9488   -8.2385 O   0  0  0  0  0  0  0  0  0  0  0  0
   17.7592  -29.8200   -9.3115 O   0  0  0  0  0  0  0  0  0  0  0  0
  2  1  1  1
  3  4  1  0
  3  2  1  0
  4  5  2  0
  6  5  1  0
  7  6  1  0
  8  7  2  0
  9  8  1  0
 10  9  2  0
 10 11  1  0
 11 12  2  0
 12  7  1  0
 12  4  1  0
 13 14  2  0
 13  2  1  0
 15 16  1  0
 16 17  2  0
 17 18  1  0
 19 20  1  0
 19 18  2  0
 21 20  1  1
 21 22  1  0
 22 13  1  0
 23 21  1  0
 24 23  2  0
 25 19  1  0
 26 25  2  0
 26 16  1  0
 28 27  1  1
 28 30  1  0
 28 29  1  0
 30 31  1  1
 31 23  1  0
 32 33  1  0
 32 30  1  0
 34 32  2  0
M  END
$$$$
