WYV.pdb
     RDKit          3D

 34 36  0  0  1  0  0  0  0  0999 V2000
   27.1530  -21.6169  -16.5063 N   0  0  0  0  0  0  0  0  0  0  0  0
   26.9390  -20.5079  -15.5903 C   0  0  1  0  0  0  0  0  0  0  0  0
   25.5514  -19.9241  -15.8408 C   0  0  0  0  0  0  0  0  0  0  0  0
   25.4479  -19.1953  -17.1047 C   0  0  0  0  0  0  0  0  0  0  0  0
   24.9603  -19.6396  -18.3198 C   0  0  0  0  0  0  0  0  0  0  0  0
   25.0591  -18.6392  -19.2006 N   0  0  0  0  0  0  0  0  0  0  0  0
   25.5889  -17.5468  -18.6347 C   0  0  0  0  0  0  0  0  0  0  0  0
   25.8747  -16.2917  -19.1481 C   0  0  0  0  0  0  0  0  0  0  0  0
   26.4310  -15.3454  -18.2999 C   0  0  0  0  0  0  0  0  0  0  0  0
   26.6837  -15.6596  -16.9962 C   0  0  0  0  0  0  0  0  0  0  0  0
   26.3948  -16.9177  -16.4905 C   0  0  0  0  0  0  0  0  0  0  0  0
   25.8403  -17.8754  -17.3181 C   0  0  0  0  0  0  0  0  0  0  0  0
   26.8619  -21.0638  -14.1921 C   0  0  0  0  0  0  0  0  0  0  0  0
   26.3666  -22.2045  -13.9857 O   0  0  0  0  0  0  0  0  0  0  0  0
   32.9266  -23.0149  -11.5428 O   0  0  0  0  0  0  0  0  0  0  0  0
   31.7347  -22.2957  -11.3795 C   0  0  0  0  0  0  0  0  0  0  0  0
   31.1327  -22.2425  -10.1447 C   0  0  0  0  0  0  0  0  0  0  0  0
   29.9489  -21.5398   -9.9379 C   0  0  0  0  0  0  0  0  0  0  0  0
   29.3730  -20.8840  -11.0006 C   0  0  0  0  0  0  0  0  0  0  0  0
   28.1094  -20.1374  -10.8156 C   0  0  0  0  0  0  0  0  0  0  0  0
   26.9957  -20.5604  -11.7126 C   0  0  2  0  0  0  0  0  0  0  0  0
   27.3396  -20.3290  -13.0805 N   0  0  0  0  0  0  0  0  0  0  0  0
   25.6537  -20.1801  -11.2866 C   0  0  0  0  0  0  0  0  0  0  0  0
   25.0875  -19.2146  -11.8552 O   0  0  0  0  0  0  0  0  0  0  0  0
   29.9641  -20.9195  -12.2749 C   0  0  0  0  0  0  0  0  0  0  0  0
   31.1329  -21.6268  -12.4313 C   0  0  0  0  0  0  0  0  0  0  0  0
   23.3290  -20.2678  -12.4728 C   0  0  0  0  0  0  0  0  0  0  0  0
   22.7128  -20.7692  -11.1947 C   0  0  1  0  0  0  0  0  0  0  0  0
   22.5186  -22.2545  -11.3397 C   0  0  0  0  0  0  0  0  0  0  0  0
   23.5701  -20.4895  -10.0128 C   0  0  2  0  0  0  0  0  0  0  0  0
   24.9534  -20.8455  -10.2538 N   0  0  0  0  0  0  0  0  0  0  0  0
   23.0669  -21.0972   -8.7389 C   0  0  0  0  0  0  0  0  0  0  0  0
   23.8582  -21.9921   -8.0138 O   0  0  0  0  0  0  0  0  0  0  0  0
   21.9420  -20.8537   -8.2530 O   0  0  0  0  0  0  0  0  0  0  0  0
  2  1  1  6
  3  4  1  0
  3  2  1  0
  4  5  2  0
  6  5  1  0
  7  6  1  0
  8  7  2  0
  9  8  1  0
 10  9  2  0
 10 11  1  0
 11 12  2  0
 12  7  1  0
 12  4  1  0
 13 14  2  0
 13  2  1  0
 15 16  1  0
 16 17  2  0
 17 18  1  0
 19 20  1  0
 19 18  2  0
 21 20  1  1
 21 22  1  0
 22 13  1  0
 23 21  1  0
 24 23  2  0
 25 19  1  0
 26 25  2  0
 26 16  1  0
 28 27  1  6
 28 30  1  0
 28 29  1  0
 30 31  1  6
 31 23  1  0
 32 33  1  0
 32 30  1  0
 34 32  2  0
M  END
$$$$
