WYV.pdb
     RDKit          3D

 34 36  0  0  1  0  0  0  0  0999 V2000
   28.5686  -20.4834  -17.1936 N   0  0  0  0  0  0  0  0  0  0  0  0
   27.8946  -19.5892  -16.2658 C   0  0  1  0  0  0  0  0  0  0  0  0
   26.8600  -18.7719  -17.0344 C   0  0  0  0  0  0  0  0  0  0  0  0
   27.4463  -17.6916  -17.8272 C   0  0  0  0  0  0  0  0  0  0  0  0
   27.6578  -17.6398  -19.1925 C   0  0  0  0  0  0  0  0  0  0  0  0
   28.2212  -16.4633  -19.4836 N   0  0  0  0  0  0  0  0  0  0  0  0
   28.3971  -15.7248  -18.3800 C   0  0  0  0  0  0  0  0  0  0  0  0
   28.9325  -14.4600  -18.1954 C   0  0  0  0  0  0  0  0  0  0  0  0
   28.9806  -13.9478  -16.9071 C   0  0  0  0  0  0  0  0  0  0  0  0
   28.5084  -14.6846  -15.8600 C   0  0  0  0  0  0  0  0  0  0  0  0
   27.9744  -15.9493  -16.0533 C   0  0  0  0  0  0  0  0  0  0  0  0
   27.9168  -16.4786  -17.3285 C   0  0  0  0  0  0  0  0  0  0  0  0
   27.0769  -20.4277  -15.3179 C   0  0  0  0  0  0  0  0  0  0  0  0
   26.5325  -21.4926  -15.7160 O   0  0  0  0  0  0  0  0  0  0  0  0
   22.8303  -22.4023   -7.7256 O   0  0  0  0  0  0  0  0  0  0  0  0
   23.6752  -21.8624   -8.7050 C   0  0  0  0  0  0  0  0  0  0  0  0
   24.9524  -22.3501   -8.8497 C   0  0  0  0  0  0  0  0  0  0  0  0
   25.8243  -21.8434   -9.8093 C   0  0  0  0  0  0  0  0  0  0  0  0
   25.3898  -20.8295  -10.6304 C   0  0  0  0  0  0  0  0  0  0  0  0
   26.2961  -20.2624  -11.6529 C   0  0  0  0  0  0  0  0  0  0  0  0
   25.9373  -20.5963  -13.0614 C   0  0  2  0  0  0  0  0  0  0  0  0
   26.8988  -20.0482  -13.9659 N   0  0  0  0  0  0  0  0  0  0  0  0
   24.5294  -20.4509  -13.4129 C   0  0  0  0  0  0  0  0  0  0  0  0
   24.0789  -19.3036  -13.6512 O   0  0  0  0  0  0  0  0  0  0  0  0
   24.0902  -20.3098  -10.5073 C   0  0  0  0  0  0  0  0  0  0  0  0
   23.2646  -20.8415   -9.5447 C   0  0  0  0  0  0  0  0  0  0  0  0
   20.7064  -22.6638  -15.2228 C   0  0  0  0  0  0  0  0  0  0  0  0
   21.9401  -21.8020  -15.2173 C   0  0  1  0  0  0  0  0  0  0  0  0
   21.6879  -20.6472  -16.1488 C   0  0  0  0  0  0  0  0  0  0  0  0
   22.2581  -21.2889  -13.8587 C   0  0  2  0  0  0  0  0  0  0  0  0
   23.6367  -21.5447  -13.4949 N   0  0  0  0  0  0  0  0  0  0  0  0
   21.3180  -21.7647  -12.7933 C   0  0  0  0  0  0  0  0  0  0  0  0
   19.9625  -21.4276  -12.8352 O   0  0  0  0  0  0  0  0  0  0  0  0
   21.6696  -22.4723  -11.8256 O   0  0  0  0  0  0  0  0  0  0  0  0
  2  1  1  6
  3  4  1  0
  3  2  1  0
  4  5  2  0
  6  5  1  0
  7  6  1  0
  8  7  2  0
  9  8  1  0
 10  9  2  0
 10 11  1  0
 11 12  2  0
 12  7  1  0
 12  4  1  0
 13 14  2  0
 13  2  1  0
 15 16  1  0
 16 17  2  0
 17 18  1  0
 19 20  1  0
 19 18  2  0
 21 20  1  1
 21 22  1  0
 22 13  1  0
 23 21  1  0
 24 23  2  0
 25 19  1  0
 26 25  2  0
 26 16  1  0
 28 27  1  1
 28 30  1  0
 28 29  1  0
 30 31  1  1
 31 23  1  0
 32 33  1  0
 32 30  1  0
 34 32  2  0
M  END
$$$$
