WYV.pdb
     RDKit          3D

 34 36  0  0  1  0  0  0  0  0999 V2000
   28.1479  -19.7049   -9.9918 N   0  0  0  0  0  0  0  0  0  0  0  0
   27.0069  -20.5198   -9.6059 C   0  0  1  0  0  0  0  0  0  0  0  0
   26.3690  -19.9136   -8.3591 C   0  0  0  0  0  0  0  0  0  0  0  0
   27.3441  -19.3694   -7.4144 C   0  0  0  0  0  0  0  0  0  0  0  0
   27.9310  -18.1177   -7.4050 C   0  0  0  0  0  0  0  0  0  0  0  0
   28.7638  -18.0546   -6.3615 N   0  0  0  0  0  0  0  0  0  0  0  0
   28.7631  -19.2029   -5.6718 C   0  0  0  0  0  0  0  0  0  0  0  0
   29.4544  -19.5942   -4.5363 C   0  0  0  0  0  0  0  0  0  0  0  0
   29.2397  -20.8730   -4.0435 C   0  0  0  0  0  0  0  0  0  0  0  0
   28.3663  -21.7111   -4.6737 C   0  0  0  0  0  0  0  0  0  0  0  0
   27.6786  -21.3119   -5.8094 C   0  0  0  0  0  0  0  0  0  0  0  0
   27.8777  -20.0422   -6.3170 C   0  0  0  0  0  0  0  0  0  0  0  0
   25.9499  -20.3794  -10.6705 C   0  0  0  0  0  0  0  0  0  0  0  0
   25.4599  -19.2490  -10.9374 O   0  0  0  0  0  0  0  0  0  0  0  0
   28.9965  -20.1033  -16.9322 O   0  0  0  0  0  0  0  0  0  0  0  0
   28.0267  -20.6720  -16.0953 C   0  0  0  0  0  0  0  0  0  0  0  0
   26.6928  -20.4711  -16.3604 C   0  0  0  0  0  0  0  0  0  0  0  0
   25.6968  -21.0175  -15.5558 C   0  0  0  0  0  0  0  0  0  0  0  0
   26.0643  -21.7770  -14.4699 C   0  0  0  0  0  0  0  0  0  0  0  0
   25.0298  -22.3625  -13.5893 C   0  0  0  0  0  0  0  0  0  0  0  0
   24.5640  -21.4680  -12.4906 C   0  0  2  0  0  0  0  0  0  0  0  0
   25.4817  -21.5015  -11.3953 N   0  0  0  0  0  0  0  0  0  0  0  0
   23.1418  -21.5335  -12.1741 C   0  0  0  0  0  0  0  0  0  0  0  0
   22.7590  -22.3015  -11.2578 O   0  0  0  0  0  0  0  0  0  0  0  0
   27.4192  -22.0005  -14.1725 C   0  0  0  0  0  0  0  0  0  0  0  0
   28.3677  -21.4403  -14.9955 C   0  0  0  0  0  0  0  0  0  0  0  0
   20.2309  -18.6944  -13.4913 C   0  0  0  0  0  0  0  0  0  0  0  0
   20.1786  -19.5149  -12.2309 C   0  0  1  0  0  0  0  0  0  0  0  0
   18.7307  -19.6611  -11.8474 C   0  0  0  0  0  0  0  0  0  0  0  0
   20.7864  -20.8594  -12.4129 C   0  0  2  0  0  0  0  0  0  0  0  0
   22.1630  -20.7734  -12.8554 N   0  0  0  0  0  0  0  0  0  0  0  0
   19.9891  -21.7733  -13.2929 C   0  0  0  0  0  0  0  0  0  0  0  0
   18.7801  -22.3158  -12.8493 O   0  0  0  0  0  0  0  0  0  0  0  0
   20.3389  -22.1027  -14.4462 O   0  0  0  0  0  0  0  0  0  0  0  0
  2  1  1  6
  3  4  1  0
  3  2  1  0
  4  5  2  0
  6  5  1  0
  7  6  1  0
  8  7  2  0
  9  8  1  0
 10  9  2  0
 10 11  1  0
 11 12  2  0
 12  7  1  0
 12  4  1  0
 13 14  2  0
 13  2  1  0
 15 16  1  0
 16 17  2  0
 17 18  1  0
 19 20  1  0
 19 18  2  0
 21 20  1  6
 21 22  1  0
 22 13  1  0
 23 21  1  0
 24 23  2  0
 25 19  1  0
 26 25  2  0
 26 16  1  0
 28 27  1  6
 28 30  1  0
 28 29  1  0
 30 31  1  6
 31 23  1  0
 32 33  1  0
 32 30  1  0
 34 32  2  0
M  END
$$$$
