WYV.pdb
     RDKit          3D

 34 36  0  0  1  0  0  0  0  0999 V2000
   26.0919  -22.1918  -13.2765 N   0  0  0  0  0  0  0  0  0  0  0  0
   26.6322  -21.0389  -12.5739 C   0  0  1  0  0  0  0  0  0  0  0  0
   25.6504  -19.8781  -12.7062 C   0  0  0  0  0  0  0  0  0  0  0  0
   25.5931  -19.3174  -14.0559 C   0  0  0  0  0  0  0  0  0  0  0  0
   24.4830  -19.0758  -14.8437 C   0  0  0  0  0  0  0  0  0  0  0  0
   24.8987  -18.5604  -16.0047 N   0  0  0  0  0  0  0  0  0  0  0  0
   26.2330  -18.4451  -16.0327 C   0  0  0  0  0  0  0  0  0  0  0  0
   27.0948  -17.9705  -17.0086 C   0  0  0  0  0  0  0  0  0  0  0  0
   28.4562  -17.9740  -16.7420 C   0  0  0  0  0  0  0  0  0  0  0  0
   28.9173  -18.4367  -15.5438 C   0  0  0  0  0  0  0  0  0  0  0  0
   28.0483  -18.9099  -14.5728 C   0  0  0  0  0  0  0  0  0  0  0  0
   26.6883  -18.9153  -14.8177 C   0  0  0  0  0  0  0  0  0  0  0  0
   26.6425  -21.3514  -11.1000 C   0  0  0  0  0  0  0  0  0  0  0  0
   25.7715  -22.1158  -10.6041 O   0  0  0  0  0  0  0  0  0  0  0  0
   28.8332  -19.5602   -2.6279 O   0  0  0  0  0  0  0  0  0  0  0  0
   28.8212  -19.7045   -4.0220 C   0  0  0  0  0  0  0  0  0  0  0  0
   29.3320  -20.8449   -4.5952 C   0  0  0  0  0  0  0  0  0  0  0  0
   29.3397  -21.0296   -5.9750 C   0  0  0  0  0  0  0  0  0  0  0  0
   28.8209  -20.0419   -6.7789 C   0  0  0  0  0  0  0  0  0  0  0  0
   28.8243  -20.2035   -8.2494 C   0  0  0  0  0  0  0  0  0  0  0  0
   27.6072  -20.8580   -8.8098 C   0  0  2  0  0  0  0  0  0  0  0  0
   27.6216  -20.8019  -10.2379 N   0  0  0  0  0  0  0  0  0  0  0  0
   26.3494  -20.5460   -8.1407 C   0  0  0  0  0  0  0  0  0  0  0  0
   25.8608  -19.3972   -8.2726 O   0  0  0  0  0  0  0  0  0  0  0  0
   28.2916  -18.8648   -6.2233 C   0  0  0  0  0  0  0  0  0  0  0  0
   28.3059  -18.7266   -4.8553 C   0  0  0  0  0  0  0  0  0  0  0  0
   23.3943  -23.3174   -6.8227 C   0  0  0  0  0  0  0  0  0  0  0  0
   23.2534  -21.8609   -7.1734 C   0  0  1  0  0  0  0  0  0  0  0  0
   21.9949  -21.3587   -6.5183 C   0  0  0  0  0  0  0  0  0  0  0  0
   24.4147  -21.0582   -6.7074 C   0  0  2  0  0  0  0  0  0  0  0  0
   25.6485  -21.4775   -7.3400 N   0  0  0  0  0  0  0  0  0  0  0  0
   24.5591  -21.0057   -5.2169 C   0  0  0  0  0  0  0  0  0  0  0  0
   23.5683  -20.4203   -4.4241 O   0  0  0  0  0  0  0  0  0  0  0  0
   25.5431  -21.4665   -4.6002 O   0  0  0  0  0  0  0  0  0  0  0  0
  2  1  1  6
  3  4  1  0
  3  2  1  0
  4  5  2  0
  6  5  1  0
  7  6  1  0
  8  7  2  0
  9  8  1  0
 10  9  2  0
 10 11  1  0
 11 12  2  0
 12  7  1  0
 12  4  1  0
 13 14  2  0
 13  2  1  0
 15 16  1  0
 16 17  2  0
 17 18  1  0
 19 20  1  0
 19 18  2  0
 21 20  1  1
 21 22  1  0
 22 13  1  0
 23 21  1  0
 24 23  2  0
 25 19  1  0
 26 25  2  0
 26 16  1  0
 28 27  1  1
 28 30  1  0
 28 29  1  0
 30 31  1  6
 31 23  1  0
 32 33  1  0
 32 30  1  0
 34 32  2  0
M  END
$$$$
