WYV.pdb
     RDKit          3D

 34 36  0  0  1  0  0  0  0  0999 V2000
   25.6754  -19.2979   -9.7703 N   0  0  0  0  0  0  0  0  0  0  0  0
   26.7435  -20.2750   -9.9085 C   0  0  1  0  0  0  0  0  0  0  0  0
   26.8203  -21.1036   -8.6293 C   0  0  0  0  0  0  0  0  0  0  0  0
   27.0742  -20.3018   -7.4327 C   0  0  0  0  0  0  0  0  0  0  0  0
   26.6152  -19.0332   -7.1305 C   0  0  0  0  0  0  0  0  0  0  0  0
   27.0985  -18.6883   -5.9330 N   0  0  0  0  0  0  0  0  0  0  0  0
   27.8585  -19.6641   -5.4187 C   0  0  0  0  0  0  0  0  0  0  0  0
   28.5534  -19.7553   -4.2232 C   0  0  0  0  0  0  0  0  0  0  0  0
   29.2648  -20.9174   -3.9630 C   0  0  0  0  0  0  0  0  0  0  0  0
   29.2693  -21.9348   -4.8725 C   0  0  0  0  0  0  0  0  0  0  0  0
   28.5715  -21.8355   -6.0663 C   0  0  0  0  0  0  0  0  0  0  0  0
   27.8562  -20.6866   -6.3455 C   0  0  0  0  0  0  0  0  0  0  0  0
   26.3379  -21.2650  -10.9694 C   0  0  0  0  0  0  0  0  0  0  0  0
   26.0223  -22.4440  -10.6542 O   0  0  0  0  0  0  0  0  0  0  0  0
   19.9515  -22.5302   -9.8532 O   0  0  0  0  0  0  0  0  0  0  0  0
   21.0123  -21.8337  -10.4481 C   0  0  0  0  0  0  0  0  0  0  0  0
   21.7359  -20.9290   -9.7078 C   0  0  0  0  0  0  0  0  0  0  0  0
   22.7973  -20.2160  -10.2584 C   0  0  0  0  0  0  0  0  0  0  0  0
   23.1249  -20.4277  -11.5770 C   0  0  0  0  0  0  0  0  0  0  0  0
   24.2406  -19.6777  -12.1944 C   0  0  0  0  0  0  0  0  0  0  0  0
   25.1377  -20.4930  -13.0629 C   0  0  2  0  0  0  0  0  0  0  0  0
   26.2989  -20.9033  -12.3374 N   0  0  0  0  0  0  0  0  0  0  0  0
   25.3374  -19.9956  -14.4193 C   0  0  0  0  0  0  0  0  0  0  0  0
   24.3378  -19.6295  -15.0846 O   0  0  0  0  0  0  0  0  0  0  0  0
   22.4044  -21.3456  -12.3598 C   0  0  0  0  0  0  0  0  0  0  0  0
   21.3638  -22.0264  -11.7729 C   0  0  0  0  0  0  0  0  0  0  0  0
   29.3298  -19.3937  -16.0423 C   0  0  0  0  0  0  0  0  0  0  0  0
   28.4206  -18.3444  -15.4619 C   0  0  1  0  0  0  0  0  0  0  0  0
   28.7520  -17.0388  -16.1332 C   0  0  0  0  0  0  0  0  0  0  0  0
   26.9853  -18.6671  -15.6760 C   0  0  2  0  0  0  0  0  0  0  0  0
   26.6097  -19.9084  -15.0306 N   0  0  0  0  0  0  0  0  0  0  0  0
   26.5671  -18.6548  -17.1148 C   0  0  0  0  0  0  0  0  0  0  0  0
   26.7624  -17.5190  -17.9050 O   0  0  0  0  0  0  0  0  0  0  0  0
   26.0323  -19.6274  -17.6884 O   0  0  0  0  0  0  0  0  0  0  0  0
  2  1  1  1
  3  4  1  0
  3  2  1  0
  4  5  2  0
  6  5  1  0
  7  6  1  0
  8  7  2  0
  9  8  1  0
 10  9  2  0
 10 11  1  0
 11 12  2  0
 12  7  1  0
 12  4  1  0
 13 14  2  0
 13  2  1  0
 15 16  1  0
 16 17  2  0
 17 18  1  0
 19 20  1  0
 19 18  2  0
 21 20  1  1
 21 22  1  0
 22 13  1  0
 23 21  1  0
 24 23  2  0
 25 19  1  0
 26 25  2  0
 26 16  1  0
 28 27  1  6
 28 30  1  0
 28 29  1  0
 30 31  1  6
 31 23  1  0
 32 33  1  0
 32 30  1  0
 34 32  2  0
M  END
$$$$
