WYV.pdb
     RDKit          3D

 34 36  0  0  1  0  0  0  0  0999 V2000
   27.7184  -19.1165  -17.7527 N   0  0  0  0  0  0  0  0  0  0  0  0
   27.0829  -18.3696  -16.6789 C   0  0  1  0  0  0  0  0  0  0  0  0
   26.0525  -17.4201  -17.2835 C   0  0  0  0  0  0  0  0  0  0  0  0
   26.6467  -16.2325  -17.8963 C   0  0  0  0  0  0  0  0  0  0  0  0
   26.7982  -15.9380  -19.2386 C   0  0  0  0  0  0  0  0  0  0  0  0
   27.3965  -14.7471  -19.3401 N   0  0  0  0  0  0  0  0  0  0  0  0
   27.6528  -14.2298  -18.1314 C   0  0  0  0  0  0  0  0  0  0  0  0
   28.2483  -13.0385  -17.7483 C   0  0  0  0  0  0  0  0  0  0  0  0
   28.3760  -12.7733  -16.3926 C   0  0  0  0  0  0  0  0  0  0  0  0
   27.9213  -13.6739  -15.4736 C   0  0  0  0  0  0  0  0  0  0  0  0
   27.3268  -14.8635  -15.8654 C   0  0  0  0  0  0  0  0  0  0  0  0
   27.1896  -15.1476  -17.2107 C   0  0  0  0  0  0  0  0  0  0  0  0
   26.2650  -19.3332  -15.8587 C   0  0  0  0  0  0  0  0  0  0  0  0
   25.8125  -20.3886  -16.3785 O   0  0  0  0  0  0  0  0  0  0  0  0
   22.5789  -22.7784   -8.5100 O   0  0  0  0  0  0  0  0  0  0  0  0
   23.3047  -22.0109   -9.4312 C   0  0  0  0  0  0  0  0  0  0  0  0
   24.5536  -22.4240   -9.8308 C   0  0  0  0  0  0  0  0  0  0  0  0
   25.3084  -21.6926  -10.7437 C   0  0  0  0  0  0  0  0  0  0  0  0
   24.7847  -20.5285  -11.2550 C   0  0  0  0  0  0  0  0  0  0  0  0
   25.5665  -19.7233  -12.2188 C   0  0  0  0  0  0  0  0  0  0  0  0
   25.1663  -19.8926  -13.6453 C   0  0  2  0  0  0  0  0  0  0  0  0
   25.9845  -19.0841  -14.4938 N   0  0  0  0  0  0  0  0  0  0  0  0
   23.7320  -19.9006  -13.9092 C   0  0  0  0  0  0  0  0  0  0  0  0
   23.1073  -18.8118  -13.8997 O   0  0  0  0  0  0  0  0  0  0  0  0
   23.5111  -20.0799  -10.8663 C   0  0  0  0  0  0  0  0  0  0  0  0
   22.8025  -20.8352   -9.9618 C   0  0  0  0  0  0  0  0  0  0  0  0
   21.7837  -20.7059  -16.7625 C   0  0  0  0  0  0  0  0  0  0  0  0
   21.1022  -21.4490  -15.6455 C   0  0  1  0  0  0  0  0  0  0  0  0
   21.4168  -22.9106  -15.8181 C   0  0  0  0  0  0  0  0  0  0  0  0
   21.5621  -20.9927  -14.3074 C   0  0  2  0  0  0  0  0  0  0  0  0
   23.0015  -21.0826  -14.1725 N   0  0  0  0  0  0  0  0  0  0  0  0
   20.8662  -21.6648  -13.1632 C   0  0  0  0  0  0  0  0  0  0  0  0
   19.5919  -21.2544  -12.7626 O   0  0  0  0  0  0  0  0  0  0  0  0
   21.3612  -22.6076  -12.5097 O   0  0  0  0  0  0  0  0  0  0  0  0
  2  1  1  6
  3  4  1  0
  3  2  1  0
  4  5  2  0
  6  5  1  0
  7  6  1  0
  8  7  2  0
  9  8  1  0
 10  9  2  0
 10 11  1  0
 11 12  2  0
 12  7  1  0
 12  4  1  0
 13 14  2  0
 13  2  1  0
 15 16  1  0
 16 17  2  0
 17 18  1  0
 19 20  1  0
 19 18  2  0
 21 20  1  1
 21 22  1  0
 22 13  1  0
 23 21  1  0
 24 23  2  0
 25 19  1  0
 26 25  2  0
 26 16  1  0
 28 27  1  6
 28 30  1  0
 28 29  1  0
 30 31  1  1
 31 23  1  0
 32 33  1  0
 32 30  1  0
 34 32  2  0
M  END
$$$$
