WYV.pdb
     RDKit          3D

 34 36  0  0  1  0  0  0  0  0999 V2000
   24.8216  -18.8304  -16.9871 N   0  0  0  0  0  0  0  0  0  0  0  0
   25.4770  -18.6603  -15.7001 C   0  0  1  0  0  0  0  0  0  0  0  0
   25.6317  -17.1680  -15.4207 C   0  0  0  0  0  0  0  0  0  0  0  0
   26.5687  -16.5022  -16.3251 C   0  0  0  0  0  0  0  0  0  0  0  0
   26.3903  -15.3375  -17.0483 C   0  0  0  0  0  0  0  0  0  0  0  0
   27.5071  -15.1024  -17.7439 N   0  0  0  0  0  0  0  0  0  0  0  0
   28.4246  -16.0527  -17.5217 C   0  0  0  0  0  0  0  0  0  0  0  0
   29.7089  -16.2241  -18.0132 C   0  0  0  0  0  0  0  0  0  0  0  0
   30.4332  -17.3289  -17.5898 C   0  0  0  0  0  0  0  0  0  0  0  0
   29.8792  -18.2143  -16.7114 C   0  0  0  0  0  0  0  0  0  0  0  0
   28.5936  -18.0355  -16.2245 C   0  0  0  0  0  0  0  0  0  0  0  0
   27.8546  -16.9417  -16.6332 C   0  0  0  0  0  0  0  0  0  0  0  0
   24.5356  -19.1441  -14.6278 C   0  0  0  0  0  0  0  0  0  0  0  0
   23.6909  -18.3588  -14.1191 O   0  0  0  0  0  0  0  0  0  0  0  0
   18.7344  -20.4663  -16.9830 O   0  0  0  0  0  0  0  0  0  0  0  0
   19.7822  -20.8807  -16.1495 C   0  0  0  0  0  0  0  0  0  0  0  0
   19.6058  -20.8951  -14.7861 C   0  0  0  0  0  0  0  0  0  0  0  0
   20.6193  -21.2997  -13.9218 C   0  0  0  0  0  0  0  0  0  0  0  0
   21.8249  -21.6942  -14.4525 C   0  0  0  0  0  0  0  0  0  0  0  0
   22.9254  -22.1193  -13.5599 C   0  0  0  0  0  0  0  0  0  0  0  0
   23.8061  -21.0146  -13.0825 C   0  0  2  0  0  0  0  0  0  0  0  0
   24.5715  -20.4815  -14.1656 N   0  0  0  0  0  0  0  0  0  0  0  0
   24.5037  -21.2531  -11.8241 C   0  0  0  0  0  0  0  0  0  0  0  0
   25.3555  -22.1735  -11.7676 O   0  0  0  0  0  0  0  0  0  0  0  0
   22.0362  -21.6905  -15.8416 C   0  0  0  0  0  0  0  0  0  0  0  0
   21.0061  -21.2825  -16.6561 C   0  0  0  0  0  0  0  0  0  0  0  0
   26.3948  -20.1618   -7.5603 C   0  0  0  0  0  0  0  0  0  0  0  0
   25.7449  -19.7803   -8.8628 C   0  0  1  0  0  0  0  0  0  0  0  0
   26.8431  -19.4175   -9.8258 C   0  0  0  0  0  0  0  0  0  0  0  0
   24.9301  -20.8883   -9.4273 C   0  0  2  0  0  0  0  0  0  0  0  0
   24.2641  -20.4976  -10.6529 N   0  0  0  0  0  0  0  0  0  0  0  0
   23.9645  -21.4910   -8.4527 C   0  0  0  0  0  0  0  0  0  0  0  0
   22.5886  -21.4510   -8.6941 O   0  0  0  0  0  0  0  0  0  0  0  0
   24.3115  -22.0521   -7.3918 O   0  0  0  0  0  0  0  0  0  0  0  0
  2  1  1  6
  3  4  1  0
  3  2  1  0
  4  5  2  0
  6  5  1  0
  7  6  1  0
  8  7  2  0
  9  8  1  0
 10  9  2  0
 10 11  1  0
 11 12  2  0
 12  7  1  0
 12  4  1  0
 13 14  2  0
 13  2  1  0
 15 16  1  0
 16 17  2  0
 17 18  1  0
 19 20  1  0
 19 18  2  0
 21 20  1  6
 21 22  1  0
 22 13  1  0
 23 21  1  0
 24 23  2  0
 25 19  1  0
 26 25  2  0
 26 16  1  0
 28 27  1  1
 28 30  1  0
 28 29  1  0
 30 31  1  6
 31 23  1  0
 32 33  1  0
 32 30  1  0
 34 32  2  0
M  END
$$$$
