WYV.pdb
     RDKit          3D

 34 36  0  0  1  0  0  0  0  0999 V2000
   27.5111  -19.4341  -11.4874 N   0  0  0  0  0  0  0  0  0  0  0  0
   26.8208  -20.7139  -11.5088 C   0  0  1  0  0  0  0  0  0  0  0  0
   26.4318  -21.0865  -10.0809 C   0  0  0  0  0  0  0  0  0  0  0  0
   27.5131  -20.8925   -9.1153 C   0  0  0  0  0  0  0  0  0  0  0  0
   27.5251  -20.1037   -7.9799 C   0  0  0  0  0  0  0  0  0  0  0  0
   28.7227  -20.2258   -7.3991 N   0  0  0  0  0  0  0  0  0  0  0  0
   29.5130  -21.0577   -8.0900 C   0  0  0  0  0  0  0  0  0  0  0  0
   30.8143  -21.4821   -7.8734 C   0  0  0  0  0  0  0  0  0  0  0  0
   31.3771  -22.3673   -8.7813 C   0  0  0  0  0  0  0  0  0  0  0  0
   30.6532  -22.7986   -9.8547 C   0  0  0  0  0  0  0  0  0  0  0  0
   29.3518  -22.3691  -10.0641 C   0  0  0  0  0  0  0  0  0  0  0  0
   28.7719  -21.4874   -9.1720 C   0  0  0  0  0  0  0  0  0  0  0  0
   25.5040  -20.5238  -12.2157 C   0  0  0  0  0  0  0  0  0  0  0  0
   24.7209  -19.5993  -11.8675 O   0  0  0  0  0  0  0  0  0  0  0  0
   26.6329  -26.5125  -16.5543 O   0  0  0  0  0  0  0  0  0  0  0  0
   26.0605  -25.2589  -16.2989 C   0  0  0  0  0  0  0  0  0  0  0  0
   24.7247  -25.1687  -15.9867 C   0  0  0  0  0  0  0  0  0  0  0  0
   24.1157  -23.9444  -15.7255 C   0  0  0  0  0  0  0  0  0  0  0  0
   24.8764  -22.8002  -15.7825 C   0  0  0  0  0  0  0  0  0  0  0  0
   24.2563  -21.4829  -15.5207 C   0  0  0  0  0  0  0  0  0  0  0  0
   23.9423  -21.2128  -14.0880 C   0  0  2  0  0  0  0  0  0  0  0  0
   25.1120  -21.3689  -13.2815 N   0  0  0  0  0  0  0  0  0  0  0  0
   22.7016  -21.7924  -13.5864 C   0  0  0  0  0  0  0  0  0  0  0  0
   22.7399  -22.9141  -13.0239 O   0  0  0  0  0  0  0  0  0  0  0  0
   26.2441  -22.8595  -16.0988 C   0  0  0  0  0  0  0  0  0  0  0  0
   26.8019  -24.0911  -16.3496 C   0  0  0  0  0  0  0  0  0  0  0  0
   20.3685  -20.3223  -11.1710 C   0  0  0  0  0  0  0  0  0  0  0  0
   19.5086  -20.9076  -12.2584 C   0  0  1  0  0  0  0  0  0  0  0  0
   18.9445  -19.7612  -13.0537 C   0  0  0  0  0  0  0  0  0  0  0  0
   20.2779  -21.8089  -13.1561 C   0  0  2  0  0  0  0  0  0  0  0  0
   21.4461  -21.1527  -13.7066 N   0  0  0  0  0  0  0  0  0  0  0  0
   19.4526  -22.4431  -14.2340 C   0  0  0  0  0  0  0  0  0  0  0  0
   18.3717  -23.2684  -13.9128 O   0  0  0  0  0  0  0  0  0  0  0  0
   19.6671  -22.2831  -15.4543 O   0  0  0  0  0  0  0  0  0  0  0  0
  2  1  1  1
  3  4  1  0
  3  2  1  0
  4  5  2  0
  6  5  1  0
  7  6  1  0
  8  7  2  0
  9  8  1  0
 10  9  2  0
 10 11  1  0
 11 12  2  0
 12  7  1  0
 12  4  1  0
 13 14  2  0
 13  2  1  0
 15 16  1  0
 16 17  2  0
 17 18  1  0
 19 20  1  0
 19 18  2  0
 21 20  1  6
 21 22  1  0
 22 13  1  0
 23 21  1  0
 24 23  2  0
 25 19  1  0
 26 25  2  0
 26 16  1  0
 28 27  1  1
 28 30  1  0
 28 29  1  0
 30 31  1  6
 31 23  1  0
 32 33  1  0
 32 30  1  0
 34 32  2  0
M  END
$$$$
