WYV.pdb
     RDKit          3D

 34 36  0  0  1  0  0  0  0  0999 V2000
   24.8244  -20.2885  -19.4502 N   0  0  0  0  0  0  0  0  0  0  0  0
   24.2689  -19.3882  -18.4523 C   0  0  1  0  0  0  0  0  0  0  0  0
   22.9011  -18.9088  -18.9299 C   0  0  0  0  0  0  0  0  0  0  0  0
   22.9715  -17.9988  -20.0728 C   0  0  0  0  0  0  0  0  0  0  0  0
   23.4433  -16.6998  -20.1141 C   0  0  0  0  0  0  0  0  0  0  0  0
   23.3145  -16.2482  -21.3654 N   0  0  0  0  0  0  0  0  0  0  0  0
   22.7797  -17.1812  -22.1640 C   0  0  0  0  0  0  0  0  0  0  0  0
   22.4671  -17.1669  -23.5140 C   0  0  0  0  0  0  0  0  0  0  0  0
   21.9130  -18.3093  -24.0729 C   0  0  0  0  0  0  0  0  0  0  0  0
   21.6884  -19.4100  -23.2981 C   0  0  0  0  0  0  0  0  0  0  0  0
   22.0040  -19.4160  -21.9481 C   0  0  0  0  0  0  0  0  0  0  0  0
   22.5568  -18.2886  -21.3712 C   0  0  0  0  0  0  0  0  0  0  0  0
   23.9701  -20.1906  -17.2126 C   0  0  0  0  0  0  0  0  0  0  0  0
   23.4325  -21.3272  -17.3028 O   0  0  0  0  0  0  0  0  0  0  0  0
   24.1273  -22.2478   -8.5445 O   0  0  0  0  0  0  0  0  0  0  0  0
   24.2568  -21.6084   -9.7850 C   0  0  0  0  0  0  0  0  0  0  0  0
   25.2863  -21.9547  -10.6278 C   0  0  0  0  0  0  0  0  0  0  0  0
   25.4519  -21.3457  -11.8687 C   0  0  0  0  0  0  0  0  0  0  0  0
   24.5587  -20.3740  -12.2547 C   0  0  0  0  0  0  0  0  0  0  0  0
   24.7138  -19.7005  -13.5626 C   0  0  0  0  0  0  0  0  0  0  0  0
   23.9534  -20.3260  -14.6827 C   0  0  2  0  0  0  0  0  0  0  0  0
   24.2820  -19.6966  -15.9232 N   0  0  0  0  0  0  0  0  0  0  0  0
   22.5444  -20.5987  -14.4235 C   0  0  0  0  0  0  0  0  0  0  0  0
   21.7260  -19.6473  -14.4574 O   0  0  0  0  0  0  0  0  0  0  0  0
   23.4961  -19.9981  -11.4157 C   0  0  0  0  0  0  0  0  0  0  0  0
   23.3729  -20.6270  -10.1991 C   0  0  0  0  0  0  0  0  0  0  0  0
   20.0734  -22.4461  -16.1700 C   0  0  0  0  0  0  0  0  0  0  0  0
   19.9368  -22.9219  -14.7489 C   0  0  1  0  0  0  0  0  0  0  0  0
   20.5156  -24.3094  -14.6800 C   0  0  0  0  0  0  0  0  0  0  0  0
   20.6478  -22.0348  -13.7909 C   0  0  2  0  0  0  0  0  0  0  0  0
   22.0490  -21.8900  -14.1284 N   0  0  0  0  0  0  0  0  0  0  0  0
   20.4725  -22.4256  -12.3550 C   0  0  0  0  0  0  0  0  0  0  0  0
   21.5708  -22.8082  -11.5804 O   0  0  0  0  0  0  0  0  0  0  0  0
   19.3684  -22.4361  -11.7704 O   0  0  0  0  0  0  0  0  0  0  0  0
  2  1  1  6
  3  4  1  0
  3  2  1  0
  4  5  2  0
  6  5  1  0
  7  6  1  0
  8  7  2  0
  9  8  1  0
 10  9  2  0
 10 11  1  0
 11 12  2  0
 12  7  1  0
 12  4  1  0
 13 14  2  0
 13  2  1  0
 15 16  1  0
 16 17  2  0
 17 18  1  0
 19 20  1  0
 19 18  2  0
 21 20  1  1
 21 22  1  0
 22 13  1  0
 23 21  1  0
 24 23  2  0
 25 19  1  0
 26 25  2  0
 26 16  1  0
 28 27  1  6
 28 30  1  0
 28 29  1  0
 30 31  1  6
 31 23  1  0
 32 33  1  0
 32 30  1  0
 34 32  2  0
M  END
$$$$
