WYV.pdb
     RDKit          3D

 34 36  0  0  1  0  0  0  0  0999 V2000
   22.3146  -21.2888  -11.5016 N   0  0  0  0  0  0  0  0  0  0  0  0
   23.4023  -20.3569  -11.7531 C   0  0  1  0  0  0  0  0  0  0  0  0
   24.7014  -20.9656  -11.2329 C   0  0  0  0  0  0  0  0  0  0  0  0
   24.8028  -20.9572   -9.7738 C   0  0  0  0  0  0  0  0  0  0  0  0
   23.8983  -21.4335   -8.8429 C   0  0  0  0  0  0  0  0  0  0  0  0
   24.3999  -21.2152   -7.6234 N   0  0  0  0  0  0  0  0  0  0  0  0
   25.5960  -20.6162   -7.6922 C   0  0  0  0  0  0  0  0  0  0  0  0
   26.4764  -20.2042   -6.7045 C   0  0  0  0  0  0  0  0  0  0  0  0
   27.6647  -19.6023   -7.0921 C   0  0  0  0  0  0  0  0  0  0  0  0
   27.9431  -19.4283   -8.4167 C   0  0  0  0  0  0  0  0  0  0  0  0
   27.0567  -19.8433   -9.3986 C   0  0  0  0  0  0  0  0  0  0  0  0
   25.8673  -20.4451   -9.0345 C   0  0  0  0  0  0  0  0  0  0  0  0
   23.6049  -20.2650  -13.2433 C   0  0  0  0  0  0  0  0  0  0  0  0
   23.4706  -21.2868  -13.9692 O   0  0  0  0  0  0  0  0  0  0  0  0
   18.1592  -16.8154  -15.4417 O   0  0  0  0  0  0  0  0  0  0  0  0
   19.5452  -17.0108  -15.5153 C   0  0  0  0  0  0  0  0  0  0  0  0
   20.3983  -15.9906  -15.1669 C   0  0  0  0  0  0  0  0  0  0  0  0
   21.7810  -16.1416  -15.2247 C   0  0  0  0  0  0  0  0  0  0  0  0
   22.2995  -17.3452  -15.6414 C   0  0  0  0  0  0  0  0  0  0  0  0
   23.7645  -17.5336  -15.7240 C   0  0  0  0  0  0  0  0  0  0  0  0
   24.2523  -18.8608  -15.2503 C   0  0  2  0  0  0  0  0  0  0  0  0
   23.9477  -19.0406  -13.8654 N   0  0  0  0  0  0  0  0  0  0  0  0
   25.5855  -19.2475  -15.6977 C   0  0  0  0  0  0  0  0  0  0  0  0
   25.9079  -19.0409  -16.8933 O   0  0  0  0  0  0  0  0  0  0  0  0
   21.4538  -18.4070  -16.0042 C   0  0  0  0  0  0  0  0  0  0  0  0
   20.0946  -18.2112  -15.9315 C   0  0  0  0  0  0  0  0  0  0  0  0
   28.7731  -18.6223  -13.5453 C   0  0  0  0  0  0  0  0  0  0  0  0
   28.9043  -19.9261  -14.2851 C   0  0  1  0  0  0  0  0  0  0  0  0
   28.7447  -21.0339  -13.2790 C   0  0  0  0  0  0  0  0  0  0  0  0
   27.8804  -20.0689  -15.3534 C   0  0  2  0  0  0  0  0  0  0  0  0
   26.5401  -19.8529  -14.8480 N   0  0  0  0  0  0  0  0  0  0  0  0
   27.9724  -21.3554  -16.1162 C   0  0  0  0  0  0  0  0  0  0  0  0
   29.0785  -21.6274  -16.9258 O   0  0  0  0  0  0  0  0  0  0  0  0
   27.0953  -22.2444  -16.0822 O   0  0  0  0  0  0  0  0  0  0  0  0
  2  1  1  6
  3  4  1  0
  3  2  1  0
  4  5  2  0
  6  5  1  0
  7  6  1  0
  8  7  2  0
  9  8  1  0
 10  9  2  0
 10 11  1  0
 11 12  2  0
 12  7  1  0
 12  4  1  0
 13 14  2  0
 13  2  1  0
 15 16  1  0
 16 17  2  0
 17 18  1  0
 19 20  1  0
 19 18  2  0
 21 20  1  1
 21 22  1  0
 22 13  1  0
 23 21  1  0
 24 23  2  0
 25 19  1  0
 26 25  2  0
 26 16  1  0
 28 27  1  1
 28 30  1  0
 28 29  1  0
 30 31  1  1
 31 23  1  0
 32 33  1  0
 32 30  1  0
 34 32  2  0
M  END
$$$$
