WYV.pdb
     RDKit          3D

 34 36  0  0  1  0  0  0  0  0999 V2000
   21.0967  -23.1066  -16.6425 N   0  0  0  0  0  0  0  0  0  0  0  0
   21.5250  -23.8192  -15.4493 C   0  0  1  0  0  0  0  0  0  0  0  0
   22.7858  -23.1535  -14.9052 C   0  0  0  0  0  0  0  0  0  0  0  0
   23.9120  -23.1937  -15.8376 C   0  0  0  0  0  0  0  0  0  0  0  0
   24.5191  -22.1450  -16.5033 C   0  0  0  0  0  0  0  0  0  0  0  0
   25.5060  -22.6427  -17.2548 N   0  0  0  0  0  0  0  0  0  0  0  0
   25.5894  -23.9733  -17.1247 C   0  0  0  0  0  0  0  0  0  0  0  0
   26.4433  -24.9017  -17.6984 C   0  0  0  0  0  0  0  0  0  0  0  0
   26.2836  -26.2381  -17.3620 C   0  0  0  0  0  0  0  0  0  0  0  0
   25.3051  -26.6109  -16.4869 C   0  0  0  0  0  0  0  0  0  0  0  0
   24.4548  -25.6756  -15.9175 C   0  0  0  0  0  0  0  0  0  0  0  0
   24.5965  -24.3391  -16.2387 C   0  0  0  0  0  0  0  0  0  0  0  0
   20.4927  -23.5957  -14.3748 C   0  0  0  0  0  0  0  0  0  0  0  0
   20.1485  -22.4261  -14.0546 O   0  0  0  0  0  0  0  0  0  0  0  0
   15.6978  -21.4588  -17.4752 O   0  0  0  0  0  0  0  0  0  0  0  0
   16.1443  -22.3226  -16.4657 C   0  0  0  0  0  0  0  0  0  0  0  0
   16.7992  -23.4841  -16.8007 C   0  0  0  0  0  0  0  0  0  0  0  0
   17.2596  -24.3700  -15.8306 C   0  0  0  0  0  0  0  0  0  0  0  0
   17.0509  -24.0687  -14.5052 C   0  0  0  0  0  0  0  0  0  0  0  0
   17.5187  -24.9949  -13.4509 C   0  0  0  0  0  0  0  0  0  0  0  0
   18.7912  -24.5935  -12.7848 C   0  0  2  0  0  0  0  0  0  0  0  0
   19.8848  -24.6819  -13.7008 N   0  0  0  0  0  0  0  0  0  0  0  0
   19.0007  -25.1180  -11.4402 C   0  0  0  0  0  0  0  0  0  0  0  0
   19.7496  -26.1138  -11.2873 O   0  0  0  0  0  0  0  0  0  0  0  0
   16.3849  -22.8894  -14.1308 C   0  0  0  0  0  0  0  0  0  0  0  0
   15.9477  -22.0449  -15.1240 C   0  0  0  0  0  0  0  0  0  0  0  0
   16.9794  -23.7497   -7.8597 C   0  0  0  0  0  0  0  0  0  0  0  0
   18.4124  -24.2084   -7.8848 C   0  0  1  0  0  0  0  0  0  0  0  0
   18.6931  -24.8838   -6.5695 C   0  0  0  0  0  0  0  0  0  0  0  0
   18.6774  -25.1550   -9.0001 C   0  0  2  0  0  0  0  0  0  0  0  0
   18.3943  -24.5607  -10.2905 N   0  0  0  0  0  0  0  0  0  0  0  0
   17.9924  -26.4791   -8.8499 C   0  0  0  0  0  0  0  0  0  0  0  0
   18.5513  -27.4861   -8.0584 O   0  0  0  0  0  0  0  0  0  0  0  0
   16.9097  -26.7650   -9.4040 O   0  0  0  0  0  0  0  0  0  0  0  0
  2  1  1  6
  3  4  1  0
  3  2  1  0
  4  5  2  0
  6  5  1  0
  7  6  1  0
  8  7  2  0
  9  8  1  0
 10  9  2  0
 10 11  1  0
 11 12  2  0
 12  7  1  0
 12  4  1  0
 13 14  2  0
 13  2  1  0
 15 16  1  0
 16 17  2  0
 17 18  1  0
 19 20  1  0
 19 18  2  0
 21 20  1  6
 21 22  1  0
 22 13  1  0
 23 21  1  0
 24 23  2  0
 25 19  1  0
 26 25  2  0
 26 16  1  0
 28 27  1  1
 28 30  1  0
 28 29  1  0
 30 31  1  6
 31 23  1  0
 32 33  1  0
 32 30  1  0
 34 32  2  0
M  END
$$$$
