WDC.pdb
     RDKit          3D

 29 30  0  0  1  0  0  0  0  0999 V2000
    6.8073  -17.5515   23.4275 N   0  0  0  0  0  0  0  0  0  0  0  0
    7.9210  -16.6598   23.4650 C   0  0  1  0  0  0  0  0  0  0  0  0
    8.2544  -16.1388   24.8497 C   0  0  0  0  0  0  0  0  0  0  0  0
    7.1786  -15.2545   25.3681 C   0  0  0  0  0  0  0  0  0  0  0  0
    6.0014  -15.6374   26.0037 C   0  0  0  0  0  0  0  0  0  0  0  0
    5.2808  -14.5442   26.2893 N   0  0  0  0  0  0  0  0  0  0  0  0
    5.9208  -13.4209   25.8726 C   0  0  0  0  0  0  0  0  0  0  0  0
    5.6140  -12.0802   25.9320 C   0  0  0  0  0  0  0  0  0  0  0  0
    6.4647  -11.1323   25.4282 C   0  0  0  0  0  0  0  0  0  0  0  0
    7.6442  -11.5496   24.8558 C   0  0  0  0  0  0  0  0  0  0  0  0
    7.9433  -12.8958   24.8005 C   0  0  0  0  0  0  0  0  0  0  0  0
    7.1077  -13.8798   25.2980 C   0  0  0  0  0  0  0  0  0  0  0  0
    9.1568  -17.2866   22.8708 C   0  0  0  0  0  0  0  0  0  0  0  0
    9.2132  -18.5584   22.8843 O   0  0  0  0  0  0  0  0  0  0  0  0
   10.2117  -16.5316   22.3194 N   0  0  0  0  0  0  0  0  0  0  0  0
   11.5273  -17.1971   22.2395 C   0  0  1  0  0  0  0  0  0  0  0  0
   12.3436  -16.2357   21.3745 C   0  0  0  0  0  0  0  0  0  0  0  0
   12.0645  -16.2613   19.9630 C   0  0  0  0  0  0  0  0  0  0  0  0
   11.8176  -17.3002   19.3293 O   0  0  0  0  0  0  0  0  0  0  0  0
   12.1546  -17.2392   23.5734 C   0  0  0  0  0  0  0  0  0  0  0  0
   13.3445  -17.6087   23.6668 O   0  0  0  0  0  0  0  0  0  0  0  0
   12.0743  -15.0386   19.2729 O   0  0  0  0  0  0  0  0  0  0  0  0
   11.5096  -16.8853   24.7895 N   0  0  0  0  0  0  0  0  0  0  0  0
   12.2152  -17.0312   26.0391 C   0  0  1  0  0  0  0  0  0  0  0  0
   11.6679  -16.0394   27.0726 C   0  0  0  0  0  0  0  0  0  0  0  0
    9.9462  -16.4117   27.4615 S   0  0  0  0  0  0  0  0  0  0  0  0
   12.1985  -18.4045   26.5738 C   0  0  0  0  0  0  0  0  0  0  0  0
   13.0237  -18.8371   27.5843 O   0  0  0  0  0  0  0  0  0  0  0  0
   11.3944  -19.2396   26.0936 O   0  0  0  0  0  0  0  0  0  0  0  0
  2  1  1  1
  2  3  1  0
  2 13  1  0
  3  4  1  0
  4 12  1  0
  5  4  2  0
  5  6  1  0
  6  7  1  0
  7  8  1  0
  8  9  2  0
 10  9  1  0
 11 10  2  0
 12  7  2  0
 12 11  1  0
 13 15  1  0
 13 14  2  0
 15 16  1  0
 16 20  1  0
 16 17  1  6
 17 18  1  0
 18 22  1  0
 19 18  2  0
 20 21  2  0
 23 20  1  0
 23 24  1  0
 24 27  1  0
 24 25  1  1
 26 25  1  0
 27 28  1  0
 29 27  2  0
M  END
$$$$
