WDC.pdb
     RDKit          3D

 29 30  0  0  1  0  0  0  0  0999 V2000
    6.7076  -17.5654   24.2697 N   0  0  0  0  0  0  0  0  0  0  0  0
    7.7789  -16.6252   24.1998 C   0  0  1  0  0  0  0  0  0  0  0  0
    8.0498  -15.8929   25.4999 C   0  0  0  0  0  0  0  0  0  0  0  0
    6.9914  -14.8900   25.7861 C   0  0  0  0  0  0  0  0  0  0  0  0
    5.6905  -15.1321   26.2171 C   0  0  0  0  0  0  0  0  0  0  0  0
    5.0408  -13.9654   26.3294 N   0  0  0  0  0  0  0  0  0  0  0  0
    5.8488  -12.9275   25.9908 C   0  0  0  0  0  0  0  0  0  0  0  0
    5.6677  -11.5636   25.9447 C   0  0  0  0  0  0  0  0  0  0  0  0
    6.6803  -10.7234   25.5645 C   0  0  0  0  0  0  0  0  0  0  0  0
    7.8950  -11.2740   25.2261 C   0  0  0  0  0  0  0  0  0  0  0  0
    8.0674  -12.6424   25.2751 C   0  0  0  0  0  0  0  0  0  0  0  0
    7.0670  -13.5202   25.6532 C   0  0  0  0  0  0  0  0  0  0  0  0
    9.0576  -17.2716   23.7304 C   0  0  0  0  0  0  0  0  0  0  0  0
    9.2297  -18.4919   24.0498 O   0  0  0  0  0  0  0  0  0  0  0  0
   10.0311  -16.5881   22.9741 N   0  0  0  0  0  0  0  0  0  0  0  0
   11.4152  -17.0930   23.0705 C   0  0  1  0  0  0  0  0  0  0  0  0
   12.1591  -16.2484   22.0348 C   0  0  0  0  0  0  0  0  0  0  0  0
   13.4654  -16.7177   21.6552 C   0  0  0  0  0  0  0  0  0  0  0  0
   13.9797  -17.7562   22.1010 O   0  0  0  0  0  0  0  0  0  0  0  0
   11.9792  -16.7733   24.3949 C   0  0  0  0  0  0  0  0  0  0  0  0
   12.8173  -15.8511   24.4849 O   0  0  0  0  0  0  0  0  0  0  0  0
   14.1908  -15.9518   20.7287 O   0  0  0  0  0  0  0  0  0  0  0  0
   11.6425  -17.4363   25.6063 N   0  0  0  0  0  0  0  0  0  0  0  0
   12.2761  -17.0348   26.8383 C   0  0  1  0  0  0  0  0  0  0  0  0
   12.1858  -15.5132   27.0062 C   0  0  0  0  0  0  0  0  0  0  0  0
   11.3296  -15.0923   28.5372 S   0  0  0  0  0  0  0  0  0  0  0  0
   11.7485  -17.7235   28.0296 C   0  0  0  0  0  0  0  0  0  0  0  0
   12.3669  -17.7017   29.2569 O   0  0  0  0  0  0  0  0  0  0  0  0
   10.6773  -18.3710   27.9392 O   0  0  0  0  0  0  0  0  0  0  0  0
  2  1  1  1
  2  3  1  0
  2 13  1  0
  3  4  1  0
  4 12  1  0
  5  4  2  0
  5  6  1  0
  6  7  1  0
  7  8  1  0
  8  9  2  0
 10  9  1  0
 11 10  2  0
 12  7  2  0
 12 11  1  0
 13 15  1  0
 13 14  2  0
 15 16  1  0
 16 20  1  0
 16 17  1  6
 17 18  1  0
 18 22  1  0
 19 18  2  0
 20 21  2  0
 23 20  1  0
 23 24  1  0
 24 27  1  0
 24 25  1  1
 26 25  1  0
 27 28  1  0
 29 27  2  0
M  END
$$$$
