WDC.pdb
     RDKit          3D

 29 30  0  0  1  0  0  0  0  0999 V2000
    6.9346  -17.4043   24.3011 N   0  0  0  0  0  0  0  0  0  0  0  0
    8.0135  -16.4774   24.1844 C   0  0  1  0  0  0  0  0  0  0  0  0
    8.2842  -15.6762   25.4433 C   0  0  0  0  0  0  0  0  0  0  0  0
    7.1788  -14.7244   25.7265 C   0  0  0  0  0  0  0  0  0  0  0  0
    5.8747  -15.0303   26.1037 C   0  0  0  0  0  0  0  0  0  0  0  0
    5.1769  -13.8935   26.2330 N   0  0  0  0  0  0  0  0  0  0  0  0
    5.9550  -12.8146   25.9580 C   0  0  0  0  0  0  0  0  0  0  0  0
    5.7228  -11.4577   25.9520 C   0  0  0  0  0  0  0  0  0  0  0  0
    6.7142  -10.5672   25.6358 C   0  0  0  0  0  0  0  0  0  0  0  0
    7.9599  -11.0596   25.3211 C   0  0  0  0  0  0  0  0  0  0  0  0
    8.1835  -12.4214   25.3296 C   0  0  0  0  0  0  0  0  0  0  0  0
    7.2058  -13.3489   25.6429 C   0  0  0  0  0  0  0  0  0  0  0  0
    9.2893  -17.1583   23.7578 C   0  0  0  0  0  0  0  0  0  0  0  0
    9.4315  -18.3736   24.1094 O   0  0  0  0  0  0  0  0  0  0  0  0
   10.2910  -16.5113   23.0064 N   0  0  0  0  0  0  0  0  0  0  0  0
   11.6454  -17.0955   23.0722 C   0  0  1  0  0  0  0  0  0  0  0  0
   12.4202  -16.2774   22.0379 C   0  0  0  0  0  0  0  0  0  0  0  0
   13.7206  -16.7784   21.6793 C   0  0  0  0  0  0  0  0  0  0  0  0
   14.3961  -17.5229   22.4082 O   0  0  0  0  0  0  0  0  0  0  0  0
   12.2471  -16.8305   24.3921 C   0  0  0  0  0  0  0  0  0  0  0  0
   13.2673  -16.1120   24.4546 O   0  0  0  0  0  0  0  0  0  0  0  0
   14.2462  -16.3987   20.4340 O   0  0  0  0  0  0  0  0  0  0  0  0
   11.7544  -17.3304   25.6281 N   0  0  0  0  0  0  0  0  0  0  0  0
   12.4730  -17.0508   26.8471 C   0  0  1  0  0  0  0  0  0  0  0  0
   11.5436  -16.3783   27.8646 C   0  0  0  0  0  0  0  0  0  0  0  0
   10.9942  -14.7706   27.2585 S   0  0  0  0  0  0  0  0  0  0  0  0
   13.1244  -18.2337   27.4374 C   0  0  0  0  0  0  0  0  0  0  0  0
   13.8607  -18.1969   28.5973 O   0  0  0  0  0  0  0  0  0  0  0  0
   13.0127  -19.3447   26.8647 O   0  0  0  0  0  0  0  0  0  0  0  0
  2  1  1  1
  2  3  1  0
  2 13  1  0
  3  4  1  0
  4 12  1  0
  5  4  2  0
  5  6  1  0
  6  7  1  0
  7  8  1  0
  8  9  2  0
 10  9  1  0
 11 10  2  0
 12  7  2  0
 12 11  1  0
 13 15  1  0
 13 14  2  0
 15 16  1  0
 16 20  1  0
 16 17  1  6
 17 18  1  0
 18 22  1  0
 19 18  2  0
 20 21  2  0
 23 20  1  0
 23 24  1  0
 24 27  1  0
 24 25  1  1
 26 25  1  0
 27 28  1  0
 29 27  2  0
M  END
$$$$
