WDC.pdb
     RDKit          3D

 29 30  0  0  1  0  0  0  0  0999 V2000
    7.2497  -17.0899   23.6646 N   0  0  0  0  0  0  0  0  0  0  0  0
    8.3326  -16.1821   23.8644 C   0  0  1  0  0  0  0  0  0  0  0  0
    8.3538  -15.5310   25.2340 C   0  0  0  0  0  0  0  0  0  0  0  0
    7.1101  -14.7572   25.4840 C   0  0  0  0  0  0  0  0  0  0  0  0
    5.8166  -15.2535   25.6147 C   0  0  0  0  0  0  0  0  0  0  0  0
    4.9708  -14.2309   25.8015 N   0  0  0  0  0  0  0  0  0  0  0  0
    5.6365  -13.0470   25.8042 C   0  0  0  0  0  0  0  0  0  0  0  0
    5.2387  -11.7384   25.9599 C   0  0  0  0  0  0  0  0  0  0  0  0
    6.1433  -10.7105   25.9268 C   0  0  0  0  0  0  0  0  0  0  0  0
    7.4714  -11.0138   25.7333 C   0  0  0  0  0  0  0  0  0  0  0  0
    7.8610  -12.3287   25.5781 C   0  0  0  0  0  0  0  0  0  0  0  0
    6.9749  -13.3909   25.6050 C   0  0  0  0  0  0  0  0  0  0  0  0
    9.6656  -16.8425   23.6194 C   0  0  0  0  0  0  0  0  0  0  0  0
    9.6857  -18.1150   23.6533 O   0  0  0  0  0  0  0  0  0  0  0  0
   10.8463  -16.1170   23.3614 N   0  0  0  0  0  0  0  0  0  0  0  0
   12.0738  -16.9094   23.1487 C   0  0  1  0  0  0  0  0  0  0  0  0
   12.6281  -16.3354   21.8439 C   0  0  0  0  0  0  0  0  0  0  0  0
   13.8900  -16.8686   21.4031 C   0  0  0  0  0  0  0  0  0  0  0  0
   14.2494  -18.0401   21.6033 O   0  0  0  0  0  0  0  0  0  0  0  0
   13.0524  -16.6219   24.2137 C   0  0  0  0  0  0  0  0  0  0  0  0
   14.1116  -17.2834   24.2515 O   0  0  0  0  0  0  0  0  0  0  0  0
   14.7558  -16.0086   20.7089 O   0  0  0  0  0  0  0  0  0  0  0  0
   12.8930  -15.6333   25.2224 N   0  0  0  0  0  0  0  0  0  0  0  0
   12.5700  -16.0353   26.5695 C   0  0  1  0  0  0  0  0  0  0  0  0
   11.0636  -15.8895   26.8163 C   0  0  0  0  0  0  0  0  0  0  0  0
   10.7465  -14.6790   28.1157 S   0  0  0  0  0  0  0  0  0  0  0  0
   13.0252  -17.3953   26.9088 C   0  0  0  0  0  0  0  0  0  0  0  0
   13.6444  -17.7166   28.0930 O   0  0  0  0  0  0  0  0  0  0  0  0
   12.8473  -18.3248   26.0846 O   0  0  0  0  0  0  0  0  0  0  0  0
  2  1  1  1
  2  3  1  0
  2 13  1  0
  3  4  1  0
  4 12  1  0
  5  4  2  0
  5  6  1  0
  6  7  1  0
  7  8  1  0
  8  9  2  0
 10  9  1  0
 11 10  2  0
 12  7  2  0
 12 11  1  0
 13 15  1  0
 13 14  2  0
 15 16  1  0
 16 20  1  0
 16 17  1  6
 17 18  1  0
 18 22  1  0
 19 18  2  0
 20 21  2  0
 23 20  1  0
 23 24  1  0
 24 27  1  0
 24 25  1  6
 26 25  1  0
 27 28  1  0
 29 27  2  0
M  END
$$$$
