WDC.pdb
     RDKit          3D

 29 30  0  0  1  0  0  0  0  0999 V2000
    9.7498  -18.1619   19.3768 N   0  0  0  0  0  0  0  0  0  0  0  0
   10.2389  -16.9029   19.8378 C   0  0  1  0  0  0  0  0  0  0  0  0
    9.6920  -16.4795   21.1875 C   0  0  0  0  0  0  0  0  0  0  0  0
    8.5205  -15.5779   21.0374 C   0  0  0  0  0  0  0  0  0  0  0  0
    7.2079  -15.8238   21.4289 C   0  0  0  0  0  0  0  0  0  0  0  0
    6.4449  -14.7756   21.0898 N   0  0  0  0  0  0  0  0  0  0  0  0
    7.1861  -13.8156   20.4783 C   0  0  0  0  0  0  0  0  0  0  0  0
    6.8861  -12.5769   19.9579 C   0  0  0  0  0  0  0  0  0  0  0  0
    7.8527  -11.7904   19.3895 C   0  0  0  0  0  0  0  0  0  0  0  0
    9.1430  -12.2666   19.3482 C   0  0  0  0  0  0  0  0  0  0  0  0
    9.4344  -13.5097   19.8722 C   0  0  0  0  0  0  0  0  0  0  0  0
    8.4836  -14.3305   20.4523 C   0  0  0  0  0  0  0  0  0  0  0  0
   11.7454  -16.8773   19.8939 C   0  0  0  0  0  0  0  0  0  0  0  0
   12.3185  -17.9394   20.2993 O   0  0  0  0  0  0  0  0  0  0  0  0
   12.5088  -15.7523   19.5219 N   0  0  0  0  0  0  0  0  0  0  0  0
   13.9717  -15.8644   19.6868 C   0  0  1  0  0  0  0  0  0  0  0  0
   14.4870  -14.5763   19.0430 C   0  0  0  0  0  0  0  0  0  0  0  0
   15.8881  -14.5484   18.7159 C   0  0  0  0  0  0  0  0  0  0  0  0
   16.6606  -15.4994   18.9171 O   0  0  0  0  0  0  0  0  0  0  0  0
   14.3244  -15.8199   21.1179 C   0  0  0  0  0  0  0  0  0  0  0  0
   15.3681  -15.2253   21.4617 O   0  0  0  0  0  0  0  0  0  0  0  0
   16.4006  -13.3761   18.1375 O   0  0  0  0  0  0  0  0  0  0  0  0
   13.5615  -16.4056   22.1644 N   0  0  0  0  0  0  0  0  0  0  0  0
   14.1326  -16.5212   23.4839 C   0  0  1  0  0  0  0  0  0  0  0  0
   13.0234  -16.7275   24.5223 C   0  0  0  0  0  0  0  0  0  0  0  0
   11.6285  -15.6333   24.1887 S   0  0  0  0  0  0  0  0  0  0  0  0
   15.1566  -17.5750   23.5976 C   0  0  0  0  0  0  0  0  0  0  0  0
   15.0894  -18.7756   22.9319 O   0  0  0  0  0  0  0  0  0  0  0  0
   16.1520  -17.3852   24.3379 O   0  0  0  0  0  0  0  0  0  0  0  0
  2  1  1  1
  2  3  1  0
  2 13  1  0
  3  4  1  0
  4 12  1  0
  5  4  2  0
  5  6  1  0
  6  7  1  0
  7  8  1  0
  8  9  2  0
 10  9  1  0
 11 10  2  0
 12  7  2  0
 12 11  1  0
 13 15  1  0
 13 14  2  0
 15 16  1  0
 16 20  1  0
 16 17  1  6
 17 18  1  0
 18 22  1  0
 19 18  2  0
 20 21  2  0
 23 20  1  0
 23 24  1  0
 24 27  1  0
 24 25  1  1
 26 25  1  0
 27 28  1  0
 29 27  2  0
M  END
$$$$
