WDC.pdb
     RDKit          3D

 29 30  0  0  1  0  0  0  0  0999 V2000
    6.7570  -17.2592   23.2142 N   0  0  0  0  0  0  0  0  0  0  0  0
    7.9445  -16.4675   23.2194 C   0  0  1  0  0  0  0  0  0  0  0  0
    8.3510  -15.9648   24.5913 C   0  0  0  0  0  0  0  0  0  0  0  0
    7.3172  -15.0652   25.1656 C   0  0  0  0  0  0  0  0  0  0  0  0
    6.0467  -15.4137   25.6141 C   0  0  0  0  0  0  0  0  0  0  0  0
    5.4098  -14.3104   26.0300 N   0  0  0  0  0  0  0  0  0  0  0  0
    6.1973  -13.2134   25.8837 C   0  0  0  0  0  0  0  0  0  0  0  0
    6.0182  -11.8767   26.1599 C   0  0  0  0  0  0  0  0  0  0  0  0
    7.0064  -10.9605   25.9151 C   0  0  0  0  0  0  0  0  0  0  0  0
    8.1943  -11.4060   25.3824 C   0  0  0  0  0  0  0  0  0  0  0  0
    8.3648  -12.7479   25.1085 C   0  0  0  0  0  0  0  0  0  0  0  0
    7.3886  -13.7000   25.3421 C   0  0  0  0  0  0  0  0  0  0  0  0
    9.1084  -17.2050   22.6074 C   0  0  0  0  0  0  0  0  0  0  0  0
    9.1540  -18.4618   22.8053 O   0  0  0  0  0  0  0  0  0  0  0  0
   10.1093  -16.5656   21.8484 N   0  0  0  0  0  0  0  0  0  0  0  0
   11.4231  -17.2370   21.7911 C   0  0  1  0  0  0  0  0  0  0  0  0
   12.2165  -16.3518   20.8286 C   0  0  0  0  0  0  0  0  0  0  0  0
   11.7601  -16.3322   19.4641 C   0  0  0  0  0  0  0  0  0  0  0  0
   11.2960  -17.3246   18.8796 O   0  0  0  0  0  0  0  0  0  0  0  0
   12.0840  -17.1687   23.1075 C   0  0  0  0  0  0  0  0  0  0  0  0
   12.8762  -16.2296   23.3346 O   0  0  0  0  0  0  0  0  0  0  0  0
   11.8484  -15.1189   18.7631 O   0  0  0  0  0  0  0  0  0  0  0  0
   11.8917  -18.0979   24.1658 N   0  0  0  0  0  0  0  0  0  0  0  0
   12.7384  -18.0351   25.3319 C   0  0  1  0  0  0  0  0  0  0  0  0
   11.8823  -17.9880   26.6032 C   0  0  0  0  0  0  0  0  0  0  0  0
   10.6661  -16.6595   26.5019 S   0  0  0  0  0  0  0  0  0  0  0  0
   13.7263  -19.1261   25.4080 C   0  0  0  0  0  0  0  0  0  0  0  0
   13.7874  -20.1609   24.5056 O   0  0  0  0  0  0  0  0  0  0  0  0
   14.5661  -19.1287   26.3405 O   0  0  0  0  0  0  0  0  0  0  0  0
  2  1  1  1
  2  3  1  0
  2 13  1  0
  3  4  1  0
  4 12  1  0
  5  4  2  0
  5  6  1  0
  6  7  1  0
  7  8  1  0
  8  9  2  0
 10  9  1  0
 11 10  2  0
 12  7  2  0
 12 11  1  0
 13 15  1  0
 13 14  2  0
 15 16  1  0
 16 20  1  0
 16 17  1  6
 17 18  1  0
 18 22  1  0
 19 18  2  0
 20 21  2  0
 23 20  1  0
 23 24  1  0
 24 27  1  0
 24 25  1  1
 26 25  1  0
 27 28  1  0
 29 27  2  0
M  END
$$$$
