WDC.pdb
     RDKit          3D

 29 30  0  0  1  0  0  0  0  0999 V2000
    6.8551  -16.8835   25.4705 N   0  0  0  0  0  0  0  0  0  0  0  0
    7.3076  -16.4604   24.1848 C   0  0  1  0  0  0  0  0  0  0  0  0
    7.2751  -14.9585   23.9771 C   0  0  0  0  0  0  0  0  0  0  0  0
    7.0348  -14.2410   25.2559 C   0  0  0  0  0  0  0  0  0  0  0  0
    5.8245  -13.7502   25.7363 C   0  0  0  0  0  0  0  0  0  0  0  0
    6.0334  -13.1393   26.9106 N   0  0  0  0  0  0  0  0  0  0  0  0
    7.3459  -13.1922   27.2564 C   0  0  0  0  0  0  0  0  0  0  0  0
    8.0578  -12.7309   28.3406 C   0  0  0  0  0  0  0  0  0  0  0  0
    9.4086  -12.9332   28.4436 C   0  0  0  0  0  0  0  0  0  0  0  0
   10.0472  -13.6134   27.4324 C   0  0  0  0  0  0  0  0  0  0  0  0
    9.3254  -14.0720   26.3492 C   0  0  0  0  0  0  0  0  0  0  0  0
    7.9615  -13.8849   26.2121 C   0  0  0  0  0  0  0  0  0  0  0  0
    8.6989  -16.9618   23.8911 C   0  0  0  0  0  0  0  0  0  0  0  0
    9.2547  -17.6630   24.7968 O   0  0  0  0  0  0  0  0  0  0  0  0
    9.3755  -16.6877   22.6854 N   0  0  0  0  0  0  0  0  0  0  0  0
   10.6641  -17.3787   22.4806 C   0  0  1  0  0  0  0  0  0  0  0  0
   11.0336  -16.9933   21.0474 C   0  0  0  0  0  0  0  0  0  0  0  0
   12.1312  -17.7155   20.4604 C   0  0  0  0  0  0  0  0  0  0  0  0
   12.7545  -18.6154   21.0465 O   0  0  0  0  0  0  0  0  0  0  0  0
   11.6905  -16.8103   23.3740 C   0  0  0  0  0  0  0  0  0  0  0  0
   12.1391  -15.6709   23.1261 O   0  0  0  0  0  0  0  0  0  0  0  0
   12.5109  -17.3764   19.1519 O   0  0  0  0  0  0  0  0  0  0  0  0
   12.2239  -17.4596   24.5204 N   0  0  0  0  0  0  0  0  0  0  0  0
   13.2585  -16.8121   25.2892 C   0  0  1  0  0  0  0  0  0  0  0  0
   12.6581  -16.1702   26.5457 C   0  0  0  0  0  0  0  0  0  0  0  0
   11.8105  -17.4072   27.5485 S   0  0  0  0  0  0  0  0  0  0  0  0
   14.3803  -17.7004   25.6421 C   0  0  0  0  0  0  0  0  0  0  0  0
   14.4182  -19.0383   25.3296 O   0  0  0  0  0  0  0  0  0  0  0  0
   15.3641  -17.2287   26.2620 O   0  0  0  0  0  0  0  0  0  0  0  0
  2  1  1  1
  2  3  1  0
  2 13  1  0
  3  4  1  0
  4 12  1  0
  5  4  2  0
  5  6  1  0
  6  7  1  0
  7  8  1  0
  8  9  2  0
 10  9  1  0
 11 10  2  0
 12  7  2  0
 12 11  1  0
 13 15  1  0
 13 14  2  0
 15 16  1  0
 16 20  1  0
 16 17  1  6
 17 18  1  0
 18 22  1  0
 19 18  2  0
 20 21  2  0
 23 20  1  0
 23 24  1  0
 24 27  1  0
 24 25  1  1
 26 25  1  0
 27 28  1  0
 29 27  2  0
M  END
$$$$
