WDC.pdb
     RDKit          3D

 29 30  0  0  1  0  0  0  0  0999 V2000
   10.5871  -17.1159   19.7102 N   0  0  0  0  0  0  0  0  0  0  0  0
   11.2405  -15.8533   19.8348 C   0  0  1  0  0  0  0  0  0  0  0  0
   10.9679  -15.1383   21.1442 C   0  0  0  0  0  0  0  0  0  0  0  0
    9.5417  -14.7359   21.2537 C   0  0  0  0  0  0  0  0  0  0  0  0
    8.5619  -15.3037   22.0624 C   0  0  0  0  0  0  0  0  0  0  0  0
    7.3975  -14.6760   21.8480 N   0  0  0  0  0  0  0  0  0  0  0  0
    7.5408  -13.6950   20.9196 C   0  0  0  0  0  0  0  0  0  0  0  0
    6.6716  -12.7821   20.3660 C   0  0  0  0  0  0  0  0  0  0  0  0
    7.0927  -11.8753   19.4300 C   0  0  0  0  0  0  0  0  0  0  0  0
    8.4149  -11.8939   19.0494 C   0  0  0  0  0  0  0  0  0  0  0  0
    9.2789  -12.8127   19.6096 C   0  0  0  0  0  0  0  0  0  0  0  0
    8.8879  -13.7430   20.5561 C   0  0  0  0  0  0  0  0  0  0  0  0
   12.7317  -15.9770   19.6498 C   0  0  0  0  0  0  0  0  0  0  0  0
   13.2776  -17.0302   20.1121 O   0  0  0  0  0  0  0  0  0  0  0  0
   13.5092  -14.9962   19.0016 N   0  0  0  0  0  0  0  0  0  0  0  0
   14.9640  -15.2413   18.9420 C   0  0  1  0  0  0  0  0  0  0  0  0
   15.4564  -14.1431   17.9981 C   0  0  0  0  0  0  0  0  0  0  0  0
   16.8201  -14.2555   17.5527 C   0  0  0  0  0  0  0  0  0  0  0  0
   17.6008  -15.1385   17.9431 O   0  0  0  0  0  0  0  0  0  0  0  0
   15.5722  -14.9993   20.2634 C   0  0  0  0  0  0  0  0  0  0  0  0
   15.4983  -13.8547   20.7589 O   0  0  0  0  0  0  0  0  0  0  0  0
   17.2842  -13.3092   16.6251 O   0  0  0  0  0  0  0  0  0  0  0  0
   16.2483  -15.9780   21.0416 N   0  0  0  0  0  0  0  0  0  0  0  0
   16.7659  -15.6228   22.3402 C   0  0  1  0  0  0  0  0  0  0  0  0
   16.3229  -16.6545   23.3846 C   0  0  0  0  0  0  0  0  0  0  0  0
   14.5369  -16.5853   23.6289 S   0  0  0  0  0  0  0  0  0  0  0  0
   18.2288  -15.4465   22.3686 C   0  0  0  0  0  0  0  0  0  0  0  0
   18.9307  -15.0955   23.4970 O   0  0  0  0  0  0  0  0  0  0  0  0
   18.8880  -15.6217   21.3152 O   0  0  0  0  0  0  0  0  0  0  0  0
  2  1  1  1
  2  3  1  0
  2 13  1  0
  3  4  1  0
  4 12  1  0
  5  4  2  0
  5  6  1  0
  6  7  1  0
  7  8  1  0
  8  9  2  0
 10  9  1  0
 11 10  2  0
 12  7  2  0
 12 11  1  0
 13 15  1  0
 13 14  2  0
 15 16  1  0
 16 20  1  0
 16 17  1  6
 17 18  1  0
 18 22  1  0
 19 18  2  0
 20 21  2  0
 23 20  1  0
 23 24  1  0
 24 27  1  0
 24 25  1  1
 26 25  1  0
 27 28  1  0
 29 27  2  0
M  END
$$$$
