WDC.pdb
     RDKit          3D

 29 30  0  0  1  0  0  0  0  0999 V2000
    6.9816  -17.6195   23.7944 N   0  0  0  0  0  0  0  0  0  0  0  0
    7.9632  -16.8564   23.0937 C   0  0  1  0  0  0  0  0  0  0  0  0
    7.7693  -15.3554   23.1897 C   0  0  0  0  0  0  0  0  0  0  0  0
    7.0313  -14.9835   24.4246 C   0  0  0  0  0  0  0  0  0  0  0  0
    6.1337  -15.7681   25.1426 C   0  0  0  0  0  0  0  0  0  0  0  0
    5.6597  -15.0588   26.1761 N   0  0  0  0  0  0  0  0  0  0  0  0
    6.1996  -13.8126   26.1954 C   0  0  0  0  0  0  0  0  0  0  0  0
    6.0496  -12.7295   27.0319 C   0  0  0  0  0  0  0  0  0  0  0  0
    6.7391  -11.5652   26.8196 C   0  0  0  0  0  0  0  0  0  0  0  0
    7.5936  -11.4978   25.7433 C   0  0  0  0  0  0  0  0  0  0  0  0
    7.7375  -12.5885   24.9101 C   0  0  0  0  0  0  0  0  0  0  0  0
    7.0567  -13.7788   25.0938 C   0  0  0  0  0  0  0  0  0  0  0  0
    9.3606  -17.1961   23.5468 C   0  0  0  0  0  0  0  0  0  0  0  0
    9.4685  -18.1161   24.4201 O   0  0  0  0  0  0  0  0  0  0  0  0
   10.5086  -16.5485   23.0473 N   0  0  0  0  0  0  0  0  0  0  0  0
   11.8006  -16.9452   23.6418 C   0  0  1  0  0  0  0  0  0  0  0  0
   12.8192  -16.3902   22.6451 C   0  0  0  0  0  0  0  0  0  0  0  0
   12.7703  -16.9412   21.3166 C   0  0  0  0  0  0  0  0  0  0  0  0
   12.7066  -18.1582   21.0786 O   0  0  0  0  0  0  0  0  0  0  0  0
   12.0038  -16.2452   24.9237 C   0  0  0  0  0  0  0  0  0  0  0  0
   13.0269  -15.5431   25.0698 O   0  0  0  0  0  0  0  0  0  0  0  0
   12.7967  -16.0449   20.2363 O   0  0  0  0  0  0  0  0  0  0  0  0
   11.1153  -16.2986   26.0318 N   0  0  0  0  0  0  0  0  0  0  0  0
   11.5302  -15.7610   27.3044 C   0  0  1  0  0  0  0  0  0  0  0  0
   10.9694  -14.3455   27.4869 C   0  0  0  0  0  0  0  0  0  0  0  0
    9.1657  -14.3723   27.4956 S   0  0  0  0  0  0  0  0  0  0  0  0
   11.1773  -16.6142   28.4531 C   0  0  0  0  0  0  0  0  0  0  0  0
   11.5940  -16.3681   29.7395 O   0  0  0  0  0  0  0  0  0  0  0  0
   10.4581  -17.6256   28.2675 O   0  0  0  0  0  0  0  0  0  0  0  0
  2  1  1  1
  2  3  1  0
  2 13  1  0
  3  4  1  0
  4 12  1  0
  5  4  2  0
  5  6  1  0
  6  7  1  0
  7  8  1  0
  8  9  2  0
 10  9  1  0
 11 10  2  0
 12  7  2  0
 12 11  1  0
 13 15  1  0
 13 14  2  0
 15 16  1  0
 16 20  1  0
 16 17  1  6
 17 18  1  0
 18 22  1  0
 19 18  2  0
 20 21  2  0
 23 20  1  0
 23 24  1  0
 24 27  1  0
 24 25  1  1
 26 25  1  0
 27 28  1  0
 29 27  2  0
M  END
$$$$
