WDC.pdb
     RDKit          3D

 29 30  0  0  1  0  0  0  0  0999 V2000
    6.6014  -17.6386   24.2258 N   0  0  0  0  0  0  0  0  0  0  0  0
    7.7251  -16.7652   24.1198 C   0  0  1  0  0  0  0  0  0  0  0  0
    8.1225  -16.1017   25.4244 C   0  0  0  0  0  0  0  0  0  0  0  0
    7.1372  -15.0642   25.8253 C   0  0  0  0  0  0  0  0  0  0  0  0
    5.8593  -15.2643   26.3387 C   0  0  0  0  0  0  0  0  0  0  0  0
    5.2771  -14.0747   26.5434 N   0  0  0  0  0  0  0  0  0  0  0  0
    6.1095  -13.0616   26.1890 C   0  0  0  0  0  0  0  0  0  0  0  0
    5.9928  -11.6901   26.2100 C   0  0  0  0  0  0  0  0  0  0  0  0
    7.0165  -10.8821   25.7915 C   0  0  0  0  0  0  0  0  0  0  0  0
    8.1760  -11.4732   25.3452 C   0  0  0  0  0  0  0  0  0  0  0  0
    8.2840  -12.8489   25.3275 C   0  0  0  0  0  0  0  0  0  0  0  0
    7.2706  -13.6949   25.7415 C   0  0  0  0  0  0  0  0  0  0  0  0
    8.9279  -17.4719   23.5477 C   0  0  0  0  0  0  0  0  0  0  0  0
    9.0405  -18.7116   23.8144 O   0  0  0  0  0  0  0  0  0  0  0  0
    9.8944  -16.8225   22.7534 N   0  0  0  0  0  0  0  0  0  0  0  0
   11.2151  -17.4754   22.6565 C   0  0  1  0  0  0  0  0  0  0  0  0
   11.9613  -16.5888   21.6585 C   0  0  0  0  0  0  0  0  0  0  0  0
   11.7886  -16.9164   20.2679 C   0  0  0  0  0  0  0  0  0  0  0  0
   11.1633  -17.9119   19.8682 O   0  0  0  0  0  0  0  0  0  0  0  0
   11.9204  -17.3843   23.9483 C   0  0  0  0  0  0  0  0  0  0  0  0
   12.5930  -16.3608   24.1952 O   0  0  0  0  0  0  0  0  0  0  0  0
   12.3628  -16.0566   19.3181 O   0  0  0  0  0  0  0  0  0  0  0  0
   11.8988  -18.3811   24.9613 N   0  0  0  0  0  0  0  0  0  0  0  0
   12.5022  -18.1080   26.2427 C   0  0  1  0  0  0  0  0  0  0  0  0
   11.8888  -16.8434   26.8556 C   0  0  0  0  0  0  0  0  0  0  0  0
   10.2355  -17.1830   27.4924 S   0  0  0  0  0  0  0  0  0  0  0  0
   12.4254  -19.2362   27.1879 C   0  0  0  0  0  0  0  0  0  0  0  0
   13.0953  -19.2701   28.3876 O   0  0  0  0  0  0  0  0  0  0  0  0
   11.7150  -20.2298   26.9001 O   0  0  0  0  0  0  0  0  0  0  0  0
  2  1  1  1
  2  3  1  0
  2 13  1  0
  3  4  1  0
  4 12  1  0
  5  4  2  0
  5  6  1  0
  6  7  1  0
  7  8  1  0
  8  9  2  0
 10  9  1  0
 11 10  2  0
 12  7  2  0
 12 11  1  0
 13 15  1  0
 13 14  2  0
 15 16  1  0
 16 20  1  0
 16 17  1  6
 17 18  1  0
 18 22  1  0
 19 18  2  0
 20 21  2  0
 23 20  1  0
 23 24  1  0
 24 27  1  0
 24 25  1  1
 26 25  1  0
 27 28  1  0
 29 27  2  0
M  END
$$$$
