WDC.pdb
     RDKit          3D

 29 30  0  0  1  0  0  0  0  0999 V2000
    6.6517  -17.4848   23.6219 N   0  0  0  0  0  0  0  0  0  0  0  0
    7.6397  -16.7465   22.9039 C   0  0  1  0  0  0  0  0  0  0  0  0
    7.4330  -15.2442   22.9280 C   0  0  0  0  0  0  0  0  0  0  0  0
    6.9843  -14.7817   24.2668 C   0  0  0  0  0  0  0  0  0  0  0  0
    6.4471  -15.5537   25.2926 C   0  0  0  0  0  0  0  0  0  0  0  0
    6.1408  -14.7581   26.3266 N   0  0  0  0  0  0  0  0  0  0  0  0
    6.4483  -13.4645   26.0492 C   0  0  0  0  0  0  0  0  0  0  0  0
    6.3364  -12.2919   26.7615 C   0  0  0  0  0  0  0  0  0  0  0  0
    6.7408  -11.0955   26.2313 C   0  0  0  0  0  0  0  0  0  0  0  0
    7.2667  -11.0877   24.9599 C   0  0  0  0  0  0  0  0  0  0  0  0
    7.3749  -12.2682   24.2531 C   0  0  0  0  0  0  0  0  0  0  0  0
    6.9758  -13.4934   24.7568 C   0  0  0  0  0  0  0  0  0  0  0  0
    9.0314  -17.0537   23.3957 C   0  0  0  0  0  0  0  0  0  0  0  0
    9.1329  -17.9477   24.2964 O   0  0  0  0  0  0  0  0  0  0  0  0
   10.1811  -16.4041   22.9028 N   0  0  0  0  0  0  0  0  0  0  0  0
   11.4824  -16.9207   23.3714 C   0  0  1  0  0  0  0  0  0  0  0  0
   12.4742  -16.2769   22.4013 C   0  0  0  0  0  0  0  0  0  0  0  0
   13.8483  -16.6811   22.5395 C   0  0  0  0  0  0  0  0  0  0  0  0
   14.2466  -17.4815   23.4012 O   0  0  0  0  0  0  0  0  0  0  0  0
   11.7767  -16.4018   24.7200 C   0  0  0  0  0  0  0  0  0  0  0  0
   11.9048  -15.1687   24.8750 O   0  0  0  0  0  0  0  0  0  0  0  0
   14.7830  -16.1346   21.6456 O   0  0  0  0  0  0  0  0  0  0  0  0
   11.9280  -17.2004   25.8860 N   0  0  0  0  0  0  0  0  0  0  0  0
   11.7717  -16.5982   27.1874 C   0  0  1  0  0  0  0  0  0  0  0  0
   10.4277  -15.8646   27.2708 C   0  0  0  0  0  0  0  0  0  0  0  0
   10.2450  -15.0523   28.8712 S   0  0  0  0  0  0  0  0  0  0  0  0
   11.9171  -17.5496   28.3034 C   0  0  0  0  0  0  0  0  0  0  0  0
   12.1547  -17.1677   29.6022 O   0  0  0  0  0  0  0  0  0  0  0  0
   11.8223  -18.7801   28.0763 O   0  0  0  0  0  0  0  0  0  0  0  0
  2  1  1  1
  2  3  1  0
  2 13  1  0
  3  4  1  0
  4 12  1  0
  5  4  2  0
  5  6  1  0
  6  7  1  0
  7  8  1  0
  8  9  2  0
 10  9  1  0
 11 10  2  0
 12  7  2  0
 12 11  1  0
 13 15  1  0
 13 14  2  0
 15 16  1  0
 16 20  1  0
 16 17  1  6
 17 18  1  0
 18 22  1  0
 19 18  2  0
 20 21  2  0
 23 20  1  0
 23 24  1  0
 24 27  1  0
 24 25  1  6
 26 25  1  0
 27 28  1  0
 29 27  2  0
M  END
$$$$
