KPC.pdb
     RDKit          3D

 23 23  0  0  1  0  0  0  0  0999 V2000
   24.4238  -19.8714  -18.1080 N   0  0  0  0  0  0  0  0  0  0  0  0
   25.1042  -19.0403  -17.0772 C   0  0  1  0  0  0  0  0  0  0  0  0
   24.2202  -17.8842  -16.8424 C   0  0  0  0  0  0  0  0  0  0  0  0
   23.9317  -16.8898  -17.8773 C   0  0  0  0  0  0  0  0  0  0  0  0
   23.1416  -15.6818  -17.6432 C   0  0  0  0  0  0  0  0  0  0  0  0
   21.6878  -15.7457  -17.9255 C   0  0  0  0  0  0  0  0  0  0  0  0
   21.0723  -14.4140  -17.6072 N   0  0  0  0  0  0  0  0  0  0  0  0
   25.2887  -19.8911  -15.8994 C   0  0  0  0  0  0  0  0  0  0  0  0
   24.4188  -20.8029  -15.7025 O   0  0  0  0  0  0  0  0  0  0  0  0
   26.3584  -19.7584  -14.9854 N   0  0  0  0  0  0  0  0  0  0  0  0
   27.3766  -18.7686  -14.9646 C   0  0  0  0  0  0  0  0  0  0  0  0
   28.4248  -19.3043  -13.9946 C   0  0  0  0  0  0  0  0  0  0  0  0
   28.0680  -20.7819  -13.8508 C   0  0  0  0  0  0  0  0  0  0  0  0
   26.5586  -20.6429  -13.8676 C   0  0  1  0  0  0  0  0  0  0  0  0
   26.0700  -19.9478  -12.6489 C   0  0  0  0  0  0  0  0  0  0  0  0
   26.3012  -18.7365  -12.4608 O   0  0  0  0  0  0  0  0  0  0  0  0
   25.3243  -20.6591  -11.6686 N   0  0  0  0  0  0  0  0  0  0  0  0
   24.8744  -20.0895  -10.4263 C   0  0  1  0  0  0  0  0  0  0  0  0
   23.3778  -19.9723  -10.4348 C   0  0  0  0  0  0  0  0  0  0  0  0
   22.6878  -21.4152  -11.2625 S   0  0  0  0  0  0  0  0  0  0  0  0
   25.3315  -20.8845   -9.2617 C   0  0  0  0  0  0  0  0  0  0  0  0
   25.1008  -20.4250   -7.9833 O   0  0  0  0  0  0  0  0  0  0  0  0
   25.9277  -21.9748   -9.4485 O   0  0  0  0  0  0  0  0  0  0  0  0
  2  1  1  6
  3  2  1  0
  4  3  1  0
  5  6  1  0
  5  4  1  0
  7  6  1  0
  8 10  1  0
  8  2  1  0
  9  8  2  0
 10 11  1  0
 12 11  1  0
 13 14  1  0
 13 12  1  0
 14 10  1  0
 15 17  1  0
 14 15  1  1
 16 15  2  0
 18 17  1  0
 18 21  1  0
 18 19  1  6
 20 19  1  0
 21 22  1  0
 23 21  2  0
M  END
$$$$
