KPC.pdb
     RDKit          3D

 23 23  0  0  1  0  0  0  0  0999 V2000
   19.3226  -12.8538  -16.1585 N   0  0  0  0  0  0  0  0  0  0  0  0
   19.1192  -11.4266  -16.5299 C   0  0  1  0  0  0  0  0  0  0  0  0
   17.7093  -11.1259  -16.2215 C   0  0  0  0  0  0  0  0  0  0  0  0
   16.6465  -12.1258  -16.3385 C   0  0  0  0  0  0  0  0  0  0  0  0
   16.5561  -13.3156  -15.4932 C   0  0  0  0  0  0  0  0  0  0  0  0
   15.3633  -14.1816  -15.6502 C   0  0  0  0  0  0  0  0  0  0  0  0
   15.4785  -15.3427  -14.7056 N   0  0  0  0  0  0  0  0  0  0  0  0
   20.0753  -10.6428  -15.7447 C   0  0  0  0  0  0  0  0  0  0  0  0
   20.5881  -11.2102  -14.7238 O   0  0  0  0  0  0  0  0  0  0  0  0
   20.4531   -9.3159  -16.0506 N   0  0  0  0  0  0  0  0  0  0  0  0
   20.0104   -8.5044  -17.1289 C   0  0  0  0  0  0  0  0  0  0  0  0
   20.9810   -7.3282  -17.1589 C   0  0  0  0  0  0  0  0  0  0  0  0
   22.1568   -7.8031  -16.3084 C   0  0  0  0  0  0  0  0  0  0  0  0
   21.3702   -8.5492  -15.2489 C   0  0  1  0  0  0  0  0  0  0  0  0
   20.5698   -7.6144  -14.4168 C   0  0  0  0  0  0  0  0  0  0  0  0
   19.4108   -7.2899  -14.7448 O   0  0  0  0  0  0  0  0  0  0  0  0
   21.1173   -7.0697  -13.2225 N   0  0  0  0  0  0  0  0  0  0  0  0
   20.3601   -6.3192  -12.2562 C   0  0  1  0  0  0  0  0  0  0  0  0
   20.2654   -7.0938  -10.9739 C   0  0  0  0  0  0  0  0  0  0  0  0
   19.3228   -6.1282   -9.7812 S   0  0  0  0  0  0  0  0  0  0  0  0
   20.9502   -4.9805  -12.0178 C   0  0  0  0  0  0  0  0  0  0  0  0
   20.1325   -3.8747  -11.9333 O   0  0  0  0  0  0  0  0  0  0  0  0
   22.1951   -4.8627  -11.8941 O   0  0  0  0  0  0  0  0  0  0  0  0
  2  1  1  1
  3  2  1  0
  4  3  1  0
  5  6  1  0
  5  4  1  0
  7  6  1  0
  8 10  1  0
  8  2  1  0
  9  8  2  0
 10 11  1  0
 12 11  1  0
 13 14  1  0
 13 12  1  0
 14 10  1  0
 15 17  1  0
 14 15  1  1
 16 15  2  0
 18 17  1  0
 18 21  1  0
 18 19  1  1
 20 19  1  0
 21 22  1  0
 23 21  2  0
M  END
$$$$
