KPC.pdb
     RDKit          3D

 23 23  0  0  1  0  0  0  0  0999 V2000
   20.1852  -12.5732  -18.0140 N   0  0  0  0  0  0  0  0  0  0  0  0
   19.7050  -11.1878  -18.2715 C   0  0  1  0  0  0  0  0  0  0  0  0
   18.3084  -11.1503  -17.8012 C   0  0  0  0  0  0  0  0  0  0  0  0
   17.4038  -12.2945  -17.9264 C   0  0  0  0  0  0  0  0  0  0  0  0
   16.9181  -13.0725  -16.7875 C   0  0  0  0  0  0  0  0  0  0  0  0
   15.9605  -14.1700  -17.0627 C   0  0  0  0  0  0  0  0  0  0  0  0
   15.6843  -14.9057  -15.7836 N   0  0  0  0  0  0  0  0  0  0  0  0
   20.5982  -10.2858  -17.5409 C   0  0  0  0  0  0  0  0  0  0  0  0
   21.3198  -10.8031  -16.6250 O   0  0  0  0  0  0  0  0  0  0  0  0
   20.7016   -8.8987  -17.7906 N   0  0  0  0  0  0  0  0  0  0  0  0
   19.9119   -8.1034  -18.6629 C   0  0  0  0  0  0  0  0  0  0  0  0
   20.6708   -6.7861  -18.7877 C   0  0  0  0  0  0  0  0  0  0  0  0
   22.0659   -7.1173  -18.2625 C   0  0  0  0  0  0  0  0  0  0  0  0
   21.6584   -8.0458  -17.1357 C   0  0  1  0  0  0  0  0  0  0  0  0
   20.9443   -7.3068  -16.0629 C   0  0  0  0  0  0  0  0  0  0  0  0
   19.7393   -7.0058  -16.1791 O   0  0  0  0  0  0  0  0  0  0  0  0
   21.6296   -6.9274  -14.8758 N   0  0  0  0  0  0  0  0  0  0  0  0
   20.9959   -6.3151  -13.7383 C   0  0  1  0  0  0  0  0  0  0  0  0
   21.4204   -7.0184  -12.4819 C   0  0  0  0  0  0  0  0  0  0  0  0
   20.7504   -8.6899  -12.4982 S   0  0  0  0  0  0  0  0  0  0  0  0
   21.2989   -4.8664  -13.6563 C   0  0  0  0  0  0  0  0  0  0  0  0
   20.6181   -4.0720  -12.7596 O   0  0  0  0  0  0  0  0  0  0  0  0
   22.1767   -4.3712  -14.4069 O   0  0  0  0  0  0  0  0  0  0  0  0
  2  1  1  1
  3  2  1  0
  4  3  1  0
  5  6  1  0
  5  4  1  0
  7  6  1  0
  8 10  1  0
  8  2  1  0
  9  8  2  0
 10 11  1  0
 12 11  1  0
 13 14  1  0
 13 12  1  0
 14 10  1  0
 15 17  1  0
 14 15  1  1
 16 15  2  0
 18 17  1  0
 18 21  1  0
 18 19  1  1
 20 19  1  0
 21 22  1  0
 23 21  2  0
M  END
$$$$
