KPC.pdb
     RDKit          3D

 23 23  0  0  1  0  0  0  0  0999 V2000
   19.7528  -23.2339  -14.5075 N   0  0  0  0  0  0  0  0  0  0  0  0
   20.0557  -21.8582  -14.0261 C   0  0  1  0  0  0  0  0  0  0  0  0
   20.0491  -21.9348  -12.5539 C   0  0  0  0  0  0  0  0  0  0  0  0
   19.2097  -22.8817  -11.8178 C   0  0  0  0  0  0  0  0  0  0  0  0
   19.1869  -22.9811  -10.3591 C   0  0  0  0  0  0  0  0  0  0  0  0
   18.2793  -23.9837   -9.7522 C   0  0  0  0  0  0  0  0  0  0  0  0
   18.3889  -23.8963   -8.2576 N   0  0  0  0  0  0  0  0  0  0  0  0
   21.3543  -21.4863  -14.5920 C   0  0  0  0  0  0  0  0  0  0  0  0
   22.1461  -22.4384  -14.8976 O   0  0  0  0  0  0  0  0  0  0  0  0
   21.7704  -20.1539  -14.8130 N   0  0  0  0  0  0  0  0  0  0  0  0
   21.1429  -18.9558  -14.3797 C   0  0  0  0  0  0  0  0  0  0  0  0
   21.8229  -17.8466  -15.1759 C   0  0  0  0  0  0  0  0  0  0  0  0
   22.5274  -18.5895  -16.3087 C   0  0  0  0  0  0  0  0  0  0  0  0
   22.9728  -19.8080  -15.5246 C   0  0  1  0  0  0  0  0  0  0  0  0
   24.0058  -19.4507  -14.5185 C   0  0  0  0  0  0  0  0  0  0  0  0
   23.7323  -18.7210  -13.5444 O   0  0  0  0  0  0  0  0  0  0  0  0
   25.3349  -19.9394  -14.6514 N   0  0  0  0  0  0  0  0  0  0  0  0
   26.0854  -20.5391  -13.5803 C   0  0  1  0  0  0  0  0  0  0  0  0
   25.1759  -21.3810  -12.7333 C   0  0  0  0  0  0  0  0  0  0  0  0
   26.1642  -22.2369  -11.4948 S   0  0  0  0  0  0  0  0  0  0  0  0
   27.2207  -21.3440  -14.0906 C   0  0  0  0  0  0  0  0  0  0  0  0
   26.9915  -22.3610  -14.9915 O   0  0  0  0  0  0  0  0  0  0  0  0
   28.3875  -21.0929  -13.6971 O   0  0  0  0  0  0  0  0  0  0  0  0
  2  1  1  6
  3  2  1  0
  4  3  1  0
  5  6  1  0
  5  4  1  0
  7  6  1  0
  8 10  1  0
  8  2  1  0
  9  8  2  0
 10 11  1  0
 12 11  1  0
 13 14  1  0
 13 12  1  0
 14 10  1  0
 15 17  1  0
 14 15  1  1
 16 15  2  0
 18 17  1  0
 18 21  1  0
 18 19  1  6
 20 19  1  0
 21 22  1  0
 23 21  2  0
M  END
$$$$
