KPC.pdb
     RDKit          3D

 23 23  0  0  1  0  0  0  0  0999 V2000
   21.0274  -17.8122  -16.0709 N   0  0  0  0  0  0  0  0  0  0  0  0
   22.3213  -17.6187  -15.3605 C   0  0  1  0  0  0  0  0  0  0  0  0
   22.6604  -18.9283  -14.7749 C   0  0  0  0  0  0  0  0  0  0  0  0
   21.7296  -19.6785  -13.9298 C   0  0  0  0  0  0  0  0  0  0  0  0
   20.9060  -20.7851  -14.4148 C   0  0  0  0  0  0  0  0  0  0  0  0
   19.9651  -21.4133  -13.4569 C   0  0  0  0  0  0  0  0  0  0  0  0
   19.2691  -22.5557  -14.1381 N   0  0  0  0  0  0  0  0  0  0  0  0
   23.2870  -17.1497  -16.3567 C   0  0  0  0  0  0  0  0  0  0  0  0
   22.9873  -17.3315  -17.5832 O   0  0  0  0  0  0  0  0  0  0  0  0
   24.5109  -16.5189  -16.0387 N   0  0  0  0  0  0  0  0  0  0  0  0
   25.0651  -16.2772  -14.7536 C   0  0  0  0  0  0  0  0  0  0  0  0
   26.2003  -15.2876  -14.9956 C   0  0  0  0  0  0  0  0  0  0  0  0
   25.9200  -14.7455  -16.3952 C   0  0  0  0  0  0  0  0  0  0  0  0
   25.4317  -16.0316  -17.0319 C   0  0  1  0  0  0  0  0  0  0  0  0
   26.5320  -17.0224  -17.1521 C   0  0  0  0  0  0  0  0  0  0  0  0
   26.7926  -17.8129  -16.2229 O   0  0  0  0  0  0  0  0  0  0  0  0
   27.3127  -17.0859  -18.3393 N   0  0  0  0  0  0  0  0  0  0  0  0
   27.4782  -18.2737  -19.1342 C   0  0  1  0  0  0  0  0  0  0  0  0
   26.1331  -18.8148  -19.5234 C   0  0  0  0  0  0  0  0  0  0  0  0
   26.2928  -20.5760  -19.8640 S   0  0  0  0  0  0  0  0  0  0  0  0
   28.3081  -18.0178  -20.3355 C   0  0  0  0  0  0  0  0  0  0  0  0
   29.4382  -18.7726  -20.5630 O   0  0  0  0  0  0  0  0  0  0  0  0
   27.9747  -17.1122  -21.1403 O   0  0  0  0  0  0  0  0  0  0  0  0
  2  1  1  6
  3  2  1  0
  4  3  1  0
  5  6  1  0
  5  4  1  0
  7  6  1  0
  8 10  1  0
  8  2  1  0
  9  8  2  0
 10 11  1  0
 12 11  1  0
 13 14  1  0
 13 12  1  0
 14 10  1  0
 15 17  1  0
 14 15  1  1
 16 15  2  0
 18 17  1  0
 18 21  1  0
 18 19  1  6
 20 19  1  0
 21 22  1  0
 23 21  2  0
M  END
$$$$
