KPC.pdb
     RDKit          3D

 23 23  0  0  1  0  0  0  0  0999 V2000
   26.0783  -31.2017  -19.5759 N   0  0  0  0  0  0  0  0  0  0  0  0
   26.3042  -31.2607  -18.1057 C   0  0  1  0  0  0  0  0  0  0  0  0
   24.9957  -30.9864  -17.4846 C   0  0  0  0  0  0  0  0  0  0  0  0
   24.4714  -29.6297  -17.3180 C   0  0  0  0  0  0  0  0  0  0  0  0
   24.0951  -28.7632  -18.4341 C   0  0  0  0  0  0  0  0  0  0  0  0
   23.5435  -27.4259  -18.1108 C   0  0  0  0  0  0  0  0  0  0  0  0
   23.1938  -26.7225  -19.3901 N   0  0  0  0  0  0  0  0  0  0  0  0
   26.8299  -32.5953  -17.8098 C   0  0  0  0  0  0  0  0  0  0  0  0
   26.6122  -33.5075  -18.6744 O   0  0  0  0  0  0  0  0  0  0  0  0
   27.5513  -32.9216  -16.6392 N   0  0  0  0  0  0  0  0  0  0  0  0
   27.7496  -32.1247  -15.4805 C   0  0  0  0  0  0  0  0  0  0  0  0
   28.8601  -32.8275  -14.7063 C   0  0  0  0  0  0  0  0  0  0  0  0
   29.4749  -33.7777  -15.7313 C   0  0  0  0  0  0  0  0  0  0  0  0
   28.1983  -34.1912  -16.4363 C   0  0  1  0  0  0  0  0  0  0  0  0
   27.3308  -35.0024  -15.5438 C   0  0  0  0  0  0  0  0  0  0  0  0
   26.6107  -34.4628  -14.6798 O   0  0  0  0  0  0  0  0  0  0  0  0
   27.3075  -36.4196  -15.6616 N   0  0  0  0  0  0  0  0  0  0  0  0
   26.5344  -37.2875  -14.8135 C   0  0  1  0  0  0  0  0  0  0  0  0
   25.6969  -38.2052  -15.6561 C   0  0  0  0  0  0  0  0  0  0  0  0
   24.8055  -39.3348  -14.5732 S   0  0  0  0  0  0  0  0  0  0  0  0
   27.3974  -38.0637  -13.8916 C   0  0  0  0  0  0  0  0  0  0  0  0
   26.9774  -38.3116  -12.6029 O   0  0  0  0  0  0  0  0  0  0  0  0
   28.5089  -38.4915  -14.2924 O   0  0  0  0  0  0  0  0  0  0  0  0
  2  1  1  6
  3  2  1  0
  4  3  1  0
  5  6  1  0
  5  4  1  0
  7  6  1  0
  8 10  1  0
  8  2  1  0
  9  8  2  0
 10 11  1  0
 12 11  1  0
 13 14  1  0
 13 12  1  0
 14 10  1  0
 15 17  1  0
 14 15  1  1
 16 15  2  0
 18 17  1  0
 18 21  1  0
 18 19  1  6
 20 19  1  0
 21 22  1  0
 23 21  2  0
M  END
$$$$
