KPC.pdb
     RDKit          3D

 23 23  0  0  1  0  0  0  0  0999 V2000
   22.9749  -15.5383  -17.3463 N   0  0  0  0  0  0  0  0  0  0  0  0
   23.4245  -16.4848  -16.2888 C   0  0  1  0  0  0  0  0  0  0  0  0
   22.4252  -17.5683  -16.2649 C   0  0  0  0  0  0  0  0  0  0  0  0
   21.6348  -17.9374  -17.4407 C   0  0  0  0  0  0  0  0  0  0  0  0
   20.3887  -17.2734  -17.8209 C   0  0  0  0  0  0  0  0  0  0  0  0
   19.1159  -17.9112  -17.4080 C   0  0  0  0  0  0  0  0  0  0  0  0
   17.9708  -17.0948  -17.9332 N   0  0  0  0  0  0  0  0  0  0  0  0
   24.7692  -16.9301  -16.6609 C   0  0  0  0  0  0  0  0  0  0  0  0
   25.1404  -16.7088  -17.8610 O   0  0  0  0  0  0  0  0  0  0  0  0
   25.6613  -17.5806  -15.7787 N   0  0  0  0  0  0  0  0  0  0  0  0
   25.4450  -17.9438  -14.4229 C   0  0  0  0  0  0  0  0  0  0  0  0
   26.8286  -18.2944  -13.8851 C   0  0  0  0  0  0  0  0  0  0  0  0
   27.7832  -17.7004  -14.9182 C   0  0  0  0  0  0  0  0  0  0  0  0
   26.9783  -18.0157  -16.1634 C   0  0  1  0  0  0  0  0  0  0  0  0
   26.9169  -19.4800  -16.4064 C   0  0  0  0  0  0  0  0  0  0  0  0
   25.9749  -20.1682  -15.9645 O   0  0  0  0  0  0  0  0  0  0  0  0
   27.9404  -20.1260  -17.1533 N   0  0  0  0  0  0  0  0  0  0  0  0
   27.9048  -21.5110  -17.5415 C   0  0  1  0  0  0  0  0  0  0  0  0
   28.8845  -21.7513  -18.6532 C   0  0  0  0  0  0  0  0  0  0  0  0
   28.8431  -23.4965  -19.0957 S   0  0  0  0  0  0  0  0  0  0  0  0
   28.1822  -22.4087  -16.3949 C   0  0  0  0  0  0  0  0  0  0  0  0
   27.5653  -23.6386  -16.3207 O   0  0  0  0  0  0  0  0  0  0  0  0
   28.9799  -22.0412  -15.4962 O   0  0  0  0  0  0  0  0  0  0  0  0
  2  1  1  6
  3  2  1  0
  4  3  1  0
  5  6  1  0
  5  4  1  0
  7  6  1  0
  8 10  1  0
  8  2  1  0
  9  8  2  0
 10 11  1  0
 12 11  1  0
 13 14  1  0
 13 12  1  0
 14 10  1  0
 15 17  1  0
 14 15  1  1
 16 15  2  0
 18 17  1  0
 18 21  1  0
 18 19  1  6
 20 19  1  0
 21 22  1  0
 23 21  2  0
M  END
$$$$
