KPC.pdb
     RDKit          3D

 23 23  0  0  1  0  0  0  0  0999 V2000
   23.0354  -21.5671  -17.3377 N   0  0  0  0  0  0  0  0  0  0  0  0
   23.8394  -20.4532  -16.7641 C   0  0  1  0  0  0  0  0  0  0  0  0
   22.8854  -19.3610  -16.4993 C   0  0  0  0  0  0  0  0  0  0  0  0
   22.5986  -18.3106  -17.4779 C   0  0  0  0  0  0  0  0  0  0  0  0
   22.8164  -18.4610  -18.9161 C   0  0  0  0  0  0  0  0  0  0  0  0
   22.5849  -17.2748  -19.7743 C   0  0  0  0  0  0  0  0  0  0  0  0
   21.4500  -16.4757  -19.2025 N   0  0  0  0  0  0  0  0  0  0  0  0
   24.4890  -20.9746  -15.5594 C   0  0  0  0  0  0  0  0  0  0  0  0
   23.8999  -21.9288  -14.9516 O   0  0  0  0  0  0  0  0  0  0  0  0
   25.7104  -20.4862  -15.0429 N   0  0  0  0  0  0  0  0  0  0  0  0
   26.5010  -19.4114  -15.5293 C   0  0  0  0  0  0  0  0  0  0  0  0
   27.8391  -19.5522  -14.8108 C   0  0  0  0  0  0  0  0  0  0  0  0
   27.8082  -20.9746  -14.2566 C   0  0  0  0  0  0  0  0  0  0  0  0
   26.3439  -21.0236  -13.8675 C   0  0  1  0  0  0  0  0  0  0  0  0
   26.0574  -20.1013  -12.7386 C   0  0  0  0  0  0  0  0  0  0  0  0
   25.5374  -18.9844  -12.9344 O   0  0  0  0  0  0  0  0  0  0  0  0
   26.3743  -20.4807  -11.4051 N   0  0  0  0  0  0  0  0  0  0  0  0
   25.5068  -20.2672  -10.2772 C   0  0  1  0  0  0  0  0  0  0  0  0
   24.1931  -20.9553  -10.5105 C   0  0  0  0  0  0  0  0  0  0  0  0
   23.1424  -20.7033   -9.0698 S   0  0  0  0  0  0  0  0  0  0  0  0
   26.1259  -20.7337   -9.0137 C   0  0  0  0  0  0  0  0  0  0  0  0
   26.2475  -19.8685   -7.9482 O   0  0  0  0  0  0  0  0  0  0  0  0
   26.5368  -21.9177   -8.9226 O   0  0  0  0  0  0  0  0  0  0  0  0
  2  1  1  1
  3  2  1  0
  4  3  1  0
  5  6  1  0
  5  4  1  0
  7  6  1  0
  8 10  1  0
  8  2  1  0
  9  8  2  0
 10 11  1  0
 12 11  1  0
 13 14  1  0
 13 12  1  0
 14 10  1  0
 15 17  1  0
 14 15  1  1
 16 15  2  0
 18 17  1  0
 18 21  1  0
 18 19  1  6
 20 19  1  0
 21 22  1  0
 23 21  2  0
M  END
$$$$
