KPC.pdb
     RDKit          3D

 23 23  0  0  1  0  0  0  0  0999 V2000
   20.3634  -19.6151  -13.2705 N   0  0  0  0  0  0  0  0  0  0  0  0
   21.1114  -20.2286  -12.1389 C   0  0  1  0  0  0  0  0  0  0  0  0
   20.6611  -21.6307  -12.0701 C   0  0  0  0  0  0  0  0  0  0  0  0
   20.2242  -22.3770  -13.2513 C   0  0  0  0  0  0  0  0  0  0  0  0
   21.1334  -23.1194  -14.1234 C   0  0  0  0  0  0  0  0  0  0  0  0
   20.5540  -23.7826  -15.3157 C   0  0  0  0  0  0  0  0  0  0  0  0
   19.2013  -24.3275  -14.9592 N   0  0  0  0  0  0  0  0  0  0  0  0
   22.5366  -20.0805  -12.4418 C   0  0  0  0  0  0  0  0  0  0  0  0
   22.8379  -19.5091  -13.5416 O   0  0  0  0  0  0  0  0  0  0  0  0
   23.5772  -20.5290  -11.5973 N   0  0  0  0  0  0  0  0  0  0  0  0
   23.4738  -21.3199  -10.4222 C   0  0  0  0  0  0  0  0  0  0  0  0
   24.8397  -21.2081   -9.7526 C   0  0  0  0  0  0  0  0  0  0  0  0
   25.4853  -20.0062  -10.4383 C   0  0  0  0  0  0  0  0  0  0  0  0
   24.9688  -20.2542  -11.8417 C   0  0  1  0  0  0  0  0  0  0  0  0
   25.5743  -21.4776  -12.4281 C   0  0  0  0  0  0  0  0  0  0  0  0
   25.2528  -22.6133  -12.0246 O   0  0  0  0  0  0  0  0  0  0  0  0
   26.5388  -21.3720  -13.4680 N   0  0  0  0  0  0  0  0  0  0  0  0
   26.4670  -22.0917  -14.7118 C   0  0  1  0  0  0  0  0  0  0  0  0
   25.1213  -21.8806  -15.3427 C   0  0  0  0  0  0  0  0  0  0  0  0
   25.0530  -22.8054  -16.8865 S   0  0  0  0  0  0  0  0  0  0  0  0
   27.5503  -21.6902  -15.6405 C   0  0  0  0  0  0  0  0  0  0  0  0
   28.3048  -22.6540  -16.2733 O   0  0  0  0  0  0  0  0  0  0  0  0
   27.7739  -20.4706  -15.8450 O   0  0  0  0  0  0  0  0  0  0  0  0
  2  1  1  6
  3  2  1  0
  4  3  1  0
  5  6  1  0
  5  4  1  0
  7  6  1  0
  8 10  1  0
  8  2  1  0
  9  8  2  0
 10 11  1  0
 12 11  1  0
 13 14  1  0
 13 12  1  0
 14 10  1  0
 15 17  1  0
 14 15  1  1
 16 15  2  0
 18 17  1  0
 18 21  1  0
 18 19  1  6
 20 19  1  0
 21 22  1  0
 23 21  2  0
M  END
$$$$
