KPC.pdb
     RDKit          3D

 23 23  0  0  1  0  0  0  0  0999 V2000
   27.2701  -23.4149  -16.3233 N   0  0  0  0  0  0  0  0  0  0  0  0
   27.2899  -22.3724  -15.2607 C   0  0  1  0  0  0  0  0  0  0  0  0
   27.5227  -21.0927  -15.9546 C   0  0  0  0  0  0  0  0  0  0  0  0
   26.7250  -20.6634  -17.1046 C   0  0  0  0  0  0  0  0  0  0  0  0
   25.4776  -19.9090  -16.9898 C   0  0  0  0  0  0  0  0  0  0  0  0
   24.7000  -19.6734  -18.2296 C   0  0  0  0  0  0  0  0  0  0  0  0
   23.4754  -18.8741  -17.8903 N   0  0  0  0  0  0  0  0  0  0  0  0
   25.9997  -22.4440  -14.5713 C   0  0  0  0  0  0  0  0  0  0  0  0
   25.1065  -23.1913  -15.0916 O   0  0  0  0  0  0  0  0  0  0  0  0
   25.6959  -21.7420  -13.3830 N   0  0  0  0  0  0  0  0  0  0  0  0
   26.4717  -20.7487  -12.7284 C   0  0  0  0  0  0  0  0  0  0  0  0
   25.8340  -20.5972  -11.3511 C   0  0  0  0  0  0  0  0  0  0  0  0
   24.9639  -21.8443  -11.2124 C   0  0  0  0  0  0  0  0  0  0  0  0
   24.4743  -21.9272  -12.6447 C   0  0  1  0  0  0  0  0  0  0  0  0
   23.5734  -20.7917  -12.9705 C   0  0  0  0  0  0  0  0  0  0  0  0
   24.0282  -19.7039  -13.3778 O   0  0  0  0  0  0  0  0  0  0  0  0
   22.1656  -20.9284  -12.8218 N   0  0  0  0  0  0  0  0  0  0  0  0
   21.2165  -20.7041  -13.8797 C   0  0  1  0  0  0  0  0  0  0  0  0
   21.5420  -21.5879  -15.0486 C   0  0  0  0  0  0  0  0  0  0  0  0
   20.2842  -21.3588  -16.3170 S   0  0  0  0  0  0  0  0  0  0  0  0
   19.8242  -20.9295  -13.4236 C   0  0  0  0  0  0  0  0  0  0  0  0
   19.4997  -22.0904  -12.7560 O   0  0  0  0  0  0  0  0  0  0  0  0
   18.9472  -20.0584  -13.6493 O   0  0  0  0  0  0  0  0  0  0  0  0
  2  1  1  6
  3  2  1  0
  4  3  1  0
  5  6  1  0
  5  4  1  0
  7  6  1  0
  8 10  1  0
  8  2  1  0
  9  8  2  0
 10 11  1  0
 12 11  1  0
 13 14  1  0
 13 12  1  0
 14 10  1  0
 15 17  1  0
 14 15  1  6
 16 15  2  0
 18 17  1  0
 18 21  1  0
 18 19  1  6
 20 19  1  0
 21 22  1  0
 23 21  2  0
M  END
$$$$
