KPC.pdb
     RDKit          3D

 23 23  0  0  1  0  0  0  0  0999 V2000
   23.6657  -15.4419  -17.1993 N   0  0  0  0  0  0  0  0  0  0  0  0
   24.1128  -14.1249  -17.7304 C   0  0  1  0  0  0  0  0  0  0  0  0
   23.4456  -13.9681  -19.0355 C   0  0  0  0  0  0  0  0  0  0  0  0
   23.5273  -14.9812  -20.0891 C   0  0  0  0  0  0  0  0  0  0  0  0
   24.7845  -15.4327  -20.6840 C   0  0  0  0  0  0  0  0  0  0  0  0
   24.7079  -16.4223  -21.7849 C   0  0  0  0  0  0  0  0  0  0  0  0
   26.1011  -16.8200  -22.1782 N   0  0  0  0  0  0  0  0  0  0  0  0
   23.7242  -13.1148  -16.7436 C   0  0  0  0  0  0  0  0  0  0  0  0
   22.6471  -13.3255  -16.0936 O   0  0  0  0  0  0  0  0  0  0  0  0
   24.4639  -11.9403  -16.4780 N   0  0  0  0  0  0  0  0  0  0  0  0
   25.5999  -11.4439  -17.1708 C   0  0  0  0  0  0  0  0  0  0  0  0
   26.1709  -10.3599  -16.2622 C   0  0  0  0  0  0  0  0  0  0  0  0
   25.5037  -10.6244  -14.9145 C   0  0  0  0  0  0  0  0  0  0  0  0
   24.1315  -11.0166  -15.4254 C   0  0  1  0  0  0  0  0  0  0  0  0
   23.4377   -9.8578  -16.0441 C   0  0  0  0  0  0  0  0  0  0  0  0
   23.6990   -9.4965  -17.2091 O   0  0  0  0  0  0  0  0  0  0  0  0
   22.4557   -9.1357  -15.3112 N   0  0  0  0  0  0  0  0  0  0  0  0
   21.5080   -8.2309  -15.9057 C   0  0  1  0  0  0  0  0  0  0  0  0
   20.1164   -8.6067  -15.4865 C   0  0  0  0  0  0  0  0  0  0  0  0
   18.9751   -7.3373  -16.0602 S   0  0  0  0  0  0  0  0  0  0  0  0
   21.7997   -6.8214  -15.5515 C   0  0  0  0  0  0  0  0  0  0  0  0
   21.6563   -5.8313  -16.4991 O   0  0  0  0  0  0  0  0  0  0  0  0
   22.1768   -6.5381  -14.3868 O   0  0  0  0  0  0  0  0  0  0  0  0
  2  1  1  1
  3  2  1  0
  4  3  1  0
  5  6  1  0
  5  4  1  0
  7  6  1  0
  8 10  1  0
  8  2  1  0
  9  8  2  0
 10 11  1  0
 12 11  1  0
 13 14  1  0
 13 12  1  0
 14 10  1  0
 15 17  1  0
 14 15  1  6
 16 15  2  0
 18 17  1  0
 18 21  1  0
 18 19  1  1
 20 19  1  0
 21 22  1  0
 23 21  2  0
M  END
$$$$
