KPC.pdb
     RDKit          3D

 23 23  0  0  1  0  0  0  0  0999 V2000
   24.3271  -19.8908  -18.6467 N   0  0  0  0  0  0  0  0  0  0  0  0
   25.4240  -19.3330  -17.8089 C   0  0  1  0  0  0  0  0  0  0  0  0
   25.1088  -17.9041  -17.6299 C   0  0  0  0  0  0  0  0  0  0  0  0
   23.7711  -17.4313  -17.2691 C   0  0  0  0  0  0  0  0  0  0  0  0
   23.0977  -16.3176  -17.9357 C   0  0  0  0  0  0  0  0  0  0  0  0
   21.7726  -15.9044  -17.4152 C   0  0  0  0  0  0  0  0  0  0  0  0
   21.3363  -14.6593  -18.1313 N   0  0  0  0  0  0  0  0  0  0  0  0
   25.4340  -20.0963  -16.5589 C   0  0  0  0  0  0  0  0  0  0  0  0
   24.3741  -20.7434  -16.2678 O   0  0  0  0  0  0  0  0  0  0  0  0
   26.5341  -20.1530  -15.6736 N   0  0  0  0  0  0  0  0  0  0  0  0
   27.7658  -19.4512  -15.7592 C   0  0  0  0  0  0  0  0  0  0  0  0
   28.6816  -20.1418  -14.7537 C   0  0  0  0  0  0  0  0  0  0  0  0
   27.9751  -21.4643  -14.4646 C   0  0  0  0  0  0  0  0  0  0  0  0
   26.5475  -20.9547  -14.4783 C   0  0  1  0  0  0  0  0  0  0  0  0
   26.2886  -20.0525  -13.3267 C   0  0  0  0  0  0  0  0  0  0  0  0
   26.1510  -18.8233  -13.4887 O   0  0  0  0  0  0  0  0  0  0  0  0
   26.1927  -20.5809  -12.0098 N   0  0  0  0  0  0  0  0  0  0  0  0
   25.1686  -20.2175  -11.0667 C   0  0  1  0  0  0  0  0  0  0  0  0
   23.8158  -20.4962  -11.6549 C   0  0  0  0  0  0  0  0  0  0  0  0
   22.5549  -20.0219  -10.4598 S   0  0  0  0  0  0  0  0  0  0  0  0
   25.3355  -20.9272   -9.7761 C   0  0  0  0  0  0  0  0  0  0  0  0
   25.4351  -20.2083   -8.6048 O   0  0  0  0  0  0  0  0  0  0  0  0
   25.3853  -22.1827   -9.7587 O   0  0  0  0  0  0  0  0  0  0  0  0
  2  1  1  6
  3  2  1  0
  4  3  1  0
  5  6  1  0
  5  4  1  0
  7  6  1  0
  8 10  1  0
  8  2  1  0
  9  8  2  0
 10 11  1  0
 12 11  1  0
 13 14  1  0
 13 12  1  0
 14 10  1  0
 15 17  1  0
 14 15  1  1
 16 15  2  0
 18 17  1  0
 18 21  1  0
 18 19  1  6
 20 19  1  0
 21 22  1  0
 23 21  2  0
M  END
$$$$
