KPC.pdb
     RDKit          3D

 23 23  0  0  1  0  0  0  0  0999 V2000
   26.9722  -28.2093  -19.2655 N   0  0  0  0  0  0  0  0  0  0  0  0
   28.1768  -27.5869  -18.6510 C   0  0  1  0  0  0  0  0  0  0  0  0
   27.9201  -27.5568  -17.1996 C   0  0  0  0  0  0  0  0  0  0  0  0
   27.1887  -26.4670  -16.5512 C   0  0  0  0  0  0  0  0  0  0  0  0
   25.7786  -26.1739  -16.8039 C   0  0  0  0  0  0  0  0  0  0  0  0
   25.1820  -25.0106  -16.1052 C   0  0  0  0  0  0  0  0  0  0  0  0
   23.7555  -24.8579  -16.5471 N   0  0  0  0  0  0  0  0  0  0  0  0
   29.3235  -28.4152  -19.0305 C   0  0  0  0  0  0  0  0  0  0  0  0
   29.0693  -29.5627  -19.5262 O   0  0  0  0  0  0  0  0  0  0  0  0
   30.6718  -28.0197  -18.8793 N   0  0  0  0  0  0  0  0  0  0  0  0
   31.1815  -26.8870  -18.1907 C   0  0  0  0  0  0  0  0  0  0  0  0
   32.6362  -26.7786  -18.6365 C   0  0  0  0  0  0  0  0  0  0  0  0
   32.7040  -27.6629  -19.8795 C   0  0  0  0  0  0  0  0  0  0  0  0
   31.7806  -28.7691  -19.4089 C   0  0  1  0  0  0  0  0  0  0  0  0
   32.3859  -29.5328  -18.2875 C   0  0  0  0  0  0  0  0  0  0  0  0
   32.0084  -29.3595  -17.1113 O   0  0  0  0  0  0  0  0  0  0  0  0
   33.4146  -30.4821  -18.5399 N   0  0  0  0  0  0  0  0  0  0  0  0
   33.4262  -31.8199  -18.0102 C   0  0  1  0  0  0  0  0  0  0  0  0
   32.1778  -32.5414  -18.4280 C   0  0  0  0  0  0  0  0  0  0  0  0
   32.6083  -34.2302  -18.8816 S   0  0  0  0  0  0  0  0  0  0  0  0
   34.6323  -32.5680  -18.4379 C   0  0  0  0  0  0  0  0  0  0  0  0
   34.9865  -33.7297  -17.7871 O   0  0  0  0  0  0  0  0  0  0  0  0
   35.3252  -32.1367  -19.3934 O   0  0  0  0  0  0  0  0  0  0  0  0
  2  1  1  6
  3  2  1  0
  4  3  1  0
  5  6  1  0
  5  4  1  0
  7  6  1  0
  8 10  1  0
  8  2  1  0
  9  8  2  0
 10 11  1  0
 12 11  1  0
 13 14  1  0
 13 12  1  0
 14 10  1  0
 15 17  1  0
 14 15  1  1
 16 15  2  0
 18 17  1  0
 18 21  1  0
 18 19  1  6
 20 19  1  0
 21 22  1  0
 23 21  2  0
M  END
$$$$
