CYC.pdb
     RDKit          3D

 25 25  0  0  1  0  0  0  0  0999 V2000
   10.0517  -16.0714   19.3677 N   0  0  0  0  0  0  0  0  0  0  0  0
    9.1998  -16.5605   20.4351 C   0  0  1  0  0  0  0  0  0  0  0  0
    9.0005  -18.0401   20.2889 C   0  0  0  0  0  0  0  0  0  0  0  0
    7.4339  -18.4115   19.5084 S   0  0  0  0  0  0  0  0  0  0  0  0
    9.7784  -16.2792   21.7567 C   0  0  0  0  0  0  0  0  0  0  0  0
   11.0518  -16.1811   21.8091 O   0  0  0  0  0  0  0  0  0  0  0  0
   10.7015  -14.8171   30.3781 O   0  0  0  0  0  0  0  0  0  0  0  0
   10.1990  -14.9322   29.0794 C   0  0  0  0  0  0  0  0  0  0  0  0
   10.4072  -13.9093   28.1981 C   0  0  0  0  0  0  0  0  0  0  0  0
    9.9129  -14.0134   26.9071 C   0  0  0  0  0  0  0  0  0  0  0  0
    9.2195  -15.1365   26.5185 C   0  0  0  0  0  0  0  0  0  0  0  0
    8.6784  -15.2856   25.1709 C   0  0  0  0  0  0  0  0  0  0  0  0
    9.6211  -15.8669   24.1694 C   0  0  2  0  0  0  0  0  0  0  0  0
    8.9887  -16.1252   22.9089 N   0  0  0  0  0  0  0  0  0  0  0  0
   10.0701  -17.2102   24.6974 C   0  0  0  0  0  0  0  0  0  0  0  0
    9.3047  -18.2029   24.6991 O   0  0  0  0  0  0  0  0  0  0  0  0
    9.0298  -16.1472   27.4358 C   0  0  0  0  0  0  0  0  0  0  0  0
    9.5142  -16.0582   28.7196 C   0  0  0  0  0  0  0  0  0  0  0  0
   11.3776  -17.3967   25.2116 N   0  0  0  0  0  0  0  0  0  0  0  0
   11.8813  -18.6444   25.6943 C   0  0  1  0  0  0  0  0  0  0  0  0
   13.1809  -19.0639   25.0645 C   0  0  0  0  0  0  0  0  0  0  0  0
   13.0067  -18.9005   23.2630 S   0  0  0  0  0  0  0  0  0  0  0  0
   12.0522  -18.6368   27.1689 C   0  0  0  0  0  0  0  0  0  0  0  0
   12.4576  -19.8100   27.8150 O   0  0  0  0  0  0  0  0  0  0  0  0
   11.8462  -17.6204   27.8470 O   0  0  0  0  0  0  0  0  0  0  0  0
  2  1  1  6
  2  3  1  0
  3  4  1  0
  5  6  2  0
  5  2  1  0
  7  8  1  0
  8 18  2  0
  8  9  1  0
  9 10  2  0
 10 11  1  0
 11 12  1  0
 13 12  1  1
 13 15  1  0
 13 14  1  0
 14  5  1  0
 15 19  1  0
 16 15  2  0
 17 11  2  0
 18 17  1  0
 19 20  1  0
 20 23  1  0
 21 22  1  0
 20 21  1  6
 23 25  2  0
 23 24  1  0
M  END
$$$$
