CYC.pdb
     RDKit          3D

 25 25  0  0  1  0  0  0  0  0999 V2000
   11.4186  -17.0402   19.5434 N   0  0  0  0  0  0  0  0  0  0  0  0
   10.2763  -17.4619   20.3318 C   0  0  1  0  0  0  0  0  0  0  0  0
   10.4608  -18.8833   20.7743 C   0  0  0  0  0  0  0  0  0  0  0  0
   10.2112  -20.0242   19.4188 S   0  0  0  0  0  0  0  0  0  0  0  0
   10.0938  -16.6076   21.5139 C   0  0  0  0  0  0  0  0  0  0  0  0
   11.1598  -16.1689   22.0666 O   0  0  0  0  0  0  0  0  0  0  0  0
    6.6256  -11.5309   27.7855 O   0  0  0  0  0  0  0  0  0  0  0  0
    6.8113  -12.3523   26.6705 C   0  0  0  0  0  0  0  0  0  0  0  0
    7.5823  -11.8990   25.6378 C   0  0  0  0  0  0  0  0  0  0  0  0
    7.7728  -12.7060   24.5268 C   0  0  0  0  0  0  0  0  0  0  0  0
    7.1904  -13.9511   24.4661 C   0  0  0  0  0  0  0  0  0  0  0  0
    7.3614  -14.8313   23.3142 C   0  0  0  0  0  0  0  0  0  0  0  0
    8.7197  -15.4354   23.1732 C   0  0  2  0  0  0  0  0  0  0  0  0
    8.8243  -16.2829   22.0216 N   0  0  0  0  0  0  0  0  0  0  0  0
    8.9449  -16.3268   24.3730 C   0  0  0  0  0  0  0  0  0  0  0  0
    8.2864  -17.3802   24.5397 O   0  0  0  0  0  0  0  0  0  0  0  0
    6.4197  -14.3734   25.5275 C   0  0  0  0  0  0  0  0  0  0  0  0
    6.2218  -13.5841   26.6360 C   0  0  0  0  0  0  0  0  0  0  0  0
    9.9125  -16.0026   25.3566 N   0  0  0  0  0  0  0  0  0  0  0  0
   10.2211  -16.8267   26.4831 C   0  0  1  0  0  0  0  0  0  0  0  0
   11.6788  -17.1761   26.6041 C   0  0  0  0  0  0  0  0  0  0  0  0
   12.1598  -18.0903   25.1090 S   0  0  0  0  0  0  0  0  0  0  0  0
    9.7767  -16.2080   27.7573 C   0  0  0  0  0  0  0  0  0  0  0  0
    9.2136  -14.9272   27.7339 O   0  0  0  0  0  0  0  0  0  0  0  0
    9.8894  -16.7928   28.8438 O   0  0  0  0  0  0  0  0  0  0  0  0
  2  1  1  1
  2  3  1  0
  3  4  1  0
  5  6  2  0
  5  2  1  0
  7  8  1  0
  8 18  2  0
  8  9  1  0
  9 10  2  0
 10 11  1  0
 11 12  1  0
 13 12  1  1
 13 15  1  0
 13 14  1  0
 14  5  1  0
 15 19  1  0
 16 15  2  0
 17 11  2  0
 18 17  1  0
 19 20  1  0
 20 23  1  0
 21 22  1  0
 20 21  1  1
 23 25  2  0
 23 24  1  0
M  END
$$$$
