CYC.pdb
     RDKit          3D

 25 25  0  0  1  0  0  0  0  0999 V2000
    9.9443  -16.3807   19.7533 N   0  0  0  0  0  0  0  0  0  0  0  0
    8.9224  -16.4038   20.7827 C   0  0  1  0  0  0  0  0  0  0  0  0
    8.2010  -17.7187   20.7534 C   0  0  0  0  0  0  0  0  0  0  0  0
    7.2589  -17.9103   19.2443 S   0  0  0  0  0  0  0  0  0  0  0  0
    9.5002  -16.1994   22.1187 C   0  0  0  0  0  0  0  0  0  0  0  0
   10.7396  -16.4835   22.2501 O   0  0  0  0  0  0  0  0  0  0  0  0
   10.5867  -14.2349   30.6022 O   0  0  0  0  0  0  0  0  0  0  0  0
   10.0669  -14.3645   29.3118 C   0  0  0  0  0  0  0  0  0  0  0  0
    9.1826  -15.3736   29.0547 C   0  0  0  0  0  0  0  0  0  0  0  0
    8.6609  -15.5111   27.7776 C   0  0  0  0  0  0  0  0  0  0  0  0
    9.0311  -14.6391   26.7798 C   0  0  0  0  0  0  0  0  0  0  0  0
    8.5096  -14.7501   25.4208 C   0  0  0  0  0  0  0  0  0  0  0  0
    9.3866  -15.4868   24.4628 C   0  0  2  0  0  0  0  0  0  0  0  0
    8.7447  -15.7199   23.2022 N   0  0  0  0  0  0  0  0  0  0  0  0
    9.6576  -16.8508   25.0551 C   0  0  0  0  0  0  0  0  0  0  0  0
   10.4801  -17.0088   25.9876 O   0  0  0  0  0  0  0  0  0  0  0  0
    9.9254  -13.6339   27.0777 C   0  0  0  0  0  0  0  0  0  0  0  0
   10.4511  -13.4851   28.3395 C   0  0  0  0  0  0  0  0  0  0  0  0
    8.9891  -18.0050   24.5756 N   0  0  0  0  0  0  0  0  0  0  0  0
    9.1363  -19.3110   25.1376 C   0  0  1  0  0  0  0  0  0  0  0  0
    7.8341  -20.0243   25.3762 C   0  0  0  0  0  0  0  0  0  0  0  0
    6.5429  -19.1595   24.4343 S   0  0  0  0  0  0  0  0  0  0  0  0
   10.0025  -20.1776   24.2994 C   0  0  0  0  0  0  0  0  0  0  0  0
   10.3320  -21.4588   24.7559 O   0  0  0  0  0  0  0  0  0  0  0  0
   10.4439  -19.8001   23.2050 O   0  0  0  0  0  0  0  0  0  0  0  0
  2  1  1  6
  2  3  1  0
  3  4  1  0
  5  6  2  0
  5  2  1  0
  7  8  1  0
  8 18  2  0
  8  9  1  0
  9 10  2  0
 10 11  1  0
 11 12  1  0
 13 12  1  1
 13 15  1  0
 13 14  1  0
 14  5  1  0
 15 19  1  0
 16 15  2  0
 17 11  2  0
 18 17  1  0
 19 20  1  0
 20 23  1  0
 21 22  1  0
 20 21  1  6
 23 25  2  0
 23 24  1  0
M  END
$$$$
