CYC.pdb
     RDKit          3D

 25 25  0  0  1  0  0  0  0  0999 V2000
    8.0899  -12.7196   19.2748 N   0  0  0  0  0  0  0  0  0  0  0  0
    7.6143  -13.8645   20.0281 C   0  0  1  0  0  0  0  0  0  0  0  0
    7.8187  -15.1184   19.2304 C   0  0  0  0  0  0  0  0  0  0  0  0
    6.6868  -15.2009   17.8471 S   0  0  0  0  0  0  0  0  0  0  0  0
    8.3146  -13.9906   21.3142 C   0  0  0  0  0  0  0  0  0  0  0  0
    9.5628  -13.7149   21.3097 O   0  0  0  0  0  0  0  0  0  0  0  0
   10.1186  -14.7498   29.8670 O   0  0  0  0  0  0  0  0  0  0  0  0
    9.4745  -14.6285   28.6330 C   0  0  0  0  0  0  0  0  0  0  0  0
    9.4630  -13.4121   28.0111 C   0  0  0  0  0  0  0  0  0  0  0  0
    8.8267  -13.2809   26.7865 C   0  0  0  0  0  0  0  0  0  0  0  0
    8.2130  -14.3660   26.2042 C   0  0  0  0  0  0  0  0  0  0  0  0
    7.5283  -14.2714   24.9184 C   0  0  0  0  0  0  0  0  0  0  0  0
    8.3994  -14.4590   23.7203 C   0  0  2  0  0  0  0  0  0  0  0  0
    7.6623  -14.3920   22.4924 N   0  0  0  0  0  0  0  0  0  0  0  0
    8.9715  -15.8563   23.7914 C   0  0  0  0  0  0  0  0  0  0  0  0
    8.2609  -16.8670   23.5801 O   0  0  0  0  0  0  0  0  0  0  0  0
    8.2458  -15.5765   26.8619 C   0  0  0  0  0  0  0  0  0  0  0  0
    8.8731  -15.7218   28.0769 C   0  0  0  0  0  0  0  0  0  0  0  0
   10.3373  -16.0751   24.1007 N   0  0  0  0  0  0  0  0  0  0  0  0
   10.9523  -17.3643   24.1572 C   0  0  1  0  0  0  0  0  0  0  0  0
   11.9593  -17.6095   23.0676 C   0  0  0  0  0  0  0  0  0  0  0  0
   12.9906  -16.1210   22.9150 S   0  0  0  0  0  0  0  0  0  0  0  0
   11.6063  -17.6064   25.4677 C   0  0  0  0  0  0  0  0  0  0  0  0
   12.1973  -18.8503   25.7159 O   0  0  0  0  0  0  0  0  0  0  0  0
   11.6450  -16.7383   26.3509 O   0  0  0  0  0  0  0  0  0  0  0  0
  2  1  1  6
  2  3  1  0
  3  4  1  0
  5  6  2  0
  5  2  1  0
  7  8  1  0
  8 18  2  0
  8  9  1  0
  9 10  2  0
 10 11  1  0
 11 12  1  0
 13 12  1  1
 13 15  1  0
 13 14  1  0
 14  5  1  0
 15 19  1  0
 16 15  2  0
 17 11  2  0
 18 17  1  0
 19 20  1  0
 20 23  1  0
 21 22  1  0
 20 21  1  6
 23 25  2  0
 23 24  1  0
M  END
$$$$
