CYC.pdb
     RDKit          3D

 25 25  0  0  1  0  0  0  0  0999 V2000
   10.8852  -16.4103   18.9960 N   0  0  0  0  0  0  0  0  0  0  0  0
    9.8119  -16.9290   19.8228 C   0  0  1  0  0  0  0  0  0  0  0  0
   10.0333  -18.3892   20.0860 C   0  0  0  0  0  0  0  0  0  0  0  0
    8.6228  -19.1234   20.9063 S   0  0  0  0  0  0  0  0  0  0  0  0
    9.7269  -16.2145   21.1044 C   0  0  0  0  0  0  0  0  0  0  0  0
   10.8340  -15.9886   21.7023 O   0  0  0  0  0  0  0  0  0  0  0  0
    6.7719  -11.9001   28.1691 O   0  0  0  0  0  0  0  0  0  0  0  0
    6.8752  -12.5383   26.9304 C   0  0  0  0  0  0  0  0  0  0  0  0
    7.5705  -11.9243   25.9274 C   0  0  0  0  0  0  0  0  0  0  0  0
    7.6791  -12.5490   24.6946 C   0  0  0  0  0  0  0  0  0  0  0  0
    7.0917  -13.7753   24.4845 C   0  0  0  0  0  0  0  0  0  0  0  0
    7.1776  -14.4661   23.2014 C   0  0  0  0  0  0  0  0  0  0  0  0
    8.4940  -15.1100   22.9143 C   0  0  2  0  0  0  0  0  0  0  0  0
    8.5037  -15.7971   21.6560 N   0  0  0  0  0  0  0  0  0  0  0  0
    8.7211  -16.1660   23.9716 C   0  0  0  0  0  0  0  0  0  0  0  0
    8.0667  -17.2350   23.9815 O   0  0  0  0  0  0  0  0  0  0  0  0
    6.3988  -14.3632   25.5205 C   0  0  0  0  0  0  0  0  0  0  0  0
    6.2827  -13.7557   26.7486 C   0  0  0  0  0  0  0  0  0  0  0  0
    9.6859  -15.9851   24.9940 N   0  0  0  0  0  0  0  0  0  0  0  0
   10.0526  -16.9915   25.9406 C   0  0  1  0  0  0  0  0  0  0  0  0
   11.5267  -17.2865   25.9792 C   0  0  0  0  0  0  0  0  0  0  0  0
   12.4039  -15.7162   26.2384 S   0  0  0  0  0  0  0  0  0  0  0  0
    9.6040  -16.6473   27.3132 C   0  0  0  0  0  0  0  0  0  0  0  0
    9.7911  -17.5742   28.3448 O   0  0  0  0  0  0  0  0  0  0  0  0
    9.0675  -15.5614   27.5741 O   0  0  0  0  0  0  0  0  0  0  0  0
  2  1  1  6
  2  3  1  0
  3  4  1  0
  5  6  2  0
  5  2  1  0
  7  8  1  0
  8 18  2  0
  8  9  1  0
  9 10  2  0
 10 11  1  0
 11 12  1  0
 13 12  1  1
 13 15  1  0
 13 14  1  0
 14  5  1  0
 15 19  1  0
 16 15  2  0
 17 11  2  0
 18 17  1  0
 19 20  1  0
 20 23  1  0
 21 22  1  0
 20 21  1  1
 23 25  2  0
 23 24  1  0
M  END
$$$$
