CYC.pdb
     RDKit          3D

 25 25  0  0  1  0  0  0  0  0999 V2000
    7.7128  -13.5579   19.5890 N   0  0  0  0  0  0  0  0  0  0  0  0
    7.5747  -14.8167   20.2968 C   0  0  1  0  0  0  0  0  0  0  0  0
    7.9247  -15.9543   19.3837 C   0  0  0  0  0  0  0  0  0  0  0  0
    7.6943  -17.5330   20.1936 S   0  0  0  0  0  0  0  0  0  0  0  0
    8.4416  -14.8648   21.4828 C   0  0  0  0  0  0  0  0  0  0  0  0
    9.6142  -14.3739   21.3484 O   0  0  0  0  0  0  0  0  0  0  0  0
    5.8611  -10.6200   26.9820 O   0  0  0  0  0  0  0  0  0  0  0  0
    6.4135  -11.8179   26.5214 C   0  0  0  0  0  0  0  0  0  0  0  0
    5.6793  -12.9655   26.6234 C   0  0  0  0  0  0  0  0  0  0  0  0
    6.2180  -14.1595   26.1694 C   0  0  0  0  0  0  0  0  0  0  0  0
    7.4800  -14.1870   25.6219 C   0  0  0  0  0  0  0  0  0  0  0  0
    8.0870  -15.4224   25.1356 C   0  0  0  0  0  0  0  0  0  0  0  0
    8.8556  -15.2931   23.8620 C   0  0  2  0  0  0  0  0  0  0  0  0
    8.0197  -15.4177   22.7039 N   0  0  0  0  0  0  0  0  0  0  0  0
    9.8303  -16.4469   23.8029 C   0  0  0  0  0  0  0  0  0  0  0  0
    9.4667  -17.5949   23.4552 O   0  0  0  0  0  0  0  0  0  0  0  0
    8.1897  -13.0090   25.5360 C   0  0  0  0  0  0  0  0  0  0  0  0
    7.6685  -11.8172   25.9820 C   0  0  0  0  0  0  0  0  0  0  0  0
   11.1959  -16.2718   24.1399 N   0  0  0  0  0  0  0  0  0  0  0  0
   12.1868  -17.2971   24.0386 C   0  0  1  0  0  0  0  0  0  0  0  0
   13.4139  -16.8878   23.2717 C   0  0  0  0  0  0  0  0  0  0  0  0
   14.0366  -15.3427   23.9978 S   0  0  0  0  0  0  0  0  0  0  0  0
   12.6076  -17.7913   25.3737 C   0  0  0  0  0  0  0  0  0  0  0  0
   11.9987  -17.2658   26.5189 O   0  0  0  0  0  0  0  0  0  0  0  0
   13.4839  -18.6572   25.5054 O   0  0  0  0  0  0  0  0  0  0  0  0
  2  1  1  6
  2  3  1  0
  3  4  1  0
  5  6  2  0
  5  2  1  0
  7  8  1  0
  8 18  2  0
  8  9  1  0
  9 10  2  0
 10 11  1  0
 11 12  1  0
 13 12  1  1
 13 15  1  0
 13 14  1  0
 14  5  1  0
 15 19  1  0
 16 15  2  0
 17 11  2  0
 18 17  1  0
 19 20  1  0
 20 23  1  0
 21 22  1  0
 20 21  1  1
 23 25  2  0
 23 24  1  0
M  END
$$$$
