CYC.pdb
     RDKit          3D

 25 25  0  0  1  0  0  0  0  0999 V2000
    7.7836  -13.8364   20.1733 N   0  0  0  0  0  0  0  0  0  0  0  0
    7.9076  -15.1575   20.7596 C   0  0  1  0  0  0  0  0  0  0  0  0
    8.7750  -16.0198   19.8910 C   0  0  0  0  0  0  0  0  0  0  0  0
    8.8951  -17.6833   20.5390 S   0  0  0  0  0  0  0  0  0  0  0  0
    8.4860  -15.0947   22.1094 C   0  0  0  0  0  0  0  0  0  0  0  0
    9.4459  -14.2673   22.2771 O   0  0  0  0  0  0  0  0  0  0  0  0
    6.3969  -10.2319   26.7960 O   0  0  0  0  0  0  0  0  0  0  0  0
    6.6932  -11.5613   26.4844 C   0  0  0  0  0  0  0  0  0  0  0  0
    7.8063  -12.1350   27.0307 C   0  0  0  0  0  0  0  0  0  0  0  0
    8.1094  -13.4535   26.7281 C   0  0  0  0  0  0  0  0  0  0  0  0
    7.2963  -14.1760   25.8855 C   0  0  0  0  0  0  0  0  0  0  0  0
    7.5804  -15.5649   25.5370 C   0  0  0  0  0  0  0  0  0  0  0  0
    8.6065  -15.7539   24.4687 C   0  0  2  0  0  0  0  0  0  0  0  0
    8.0215  -15.8944   23.1674 N   0  0  0  0  0  0  0  0  0  0  0  0
    9.3195  -17.0563   24.7519 C   0  0  0  0  0  0  0  0  0  0  0  0
    8.7464  -18.1618   24.6087 O   0  0  0  0  0  0  0  0  0  0  0  0
    6.1825  -13.5629   25.3541 C   0  0  0  0  0  0  0  0  0  0  0  0
    5.8691  -12.2561   25.6452 C   0  0  0  0  0  0  0  0  0  0  0  0
   10.6669  -17.0747   25.1913 N   0  0  0  0  0  0  0  0  0  0  0  0
   11.3794  -18.2608   25.5502 C   0  0  1  0  0  0  0  0  0  0  0  0
   12.8738  -18.1325   25.4425 C   0  0  0  0  0  0  0  0  0  0  0  0
   13.2536  -17.3484   23.8477 S   0  0  0  0  0  0  0  0  0  0  0  0
   11.0421  -18.7124   26.9236 C   0  0  0  0  0  0  0  0  0  0  0  0
   11.6519  -19.8648   27.4319 O   0  0  0  0  0  0  0  0  0  0  0  0
   10.2350  -18.0984   27.6354 O   0  0  0  0  0  0  0  0  0  0  0  0
  2  1  1  6
  2  3  1  0
  3  4  1  0
  5  6  2  0
  5  2  1  0
  7  8  1  0
  8 18  2  0
  8  9  1  0
  9 10  2  0
 10 11  1  0
 11 12  1  0
 13 12  1  1
 13 15  1  0
 13 14  1  0
 14  5  1  0
 15 19  1  0
 16 15  2  0
 17 11  2  0
 18 17  1  0
 19 20  1  0
 20 23  1  0
 21 22  1  0
 20 21  1  1
 23 25  2  0
 23 24  1  0
M  END
$$$$
