CYC.pdb
     RDKit          3D

 25 25  0  0  1  0  0  0  0  0999 V2000
    7.8327  -12.9809   19.8419 N   0  0  0  0  0  0  0  0  0  0  0  0
    7.2739  -13.9543   20.7610 C   0  0  1  0  0  0  0  0  0  0  0  0
    7.1339  -15.2804   20.0739 C   0  0  0  0  0  0  0  0  0  0  0  0
    6.3709  -16.4917   21.1471 S   0  0  0  0  0  0  0  0  0  0  0  0
    8.1183  -14.1147   21.9533 C   0  0  0  0  0  0  0  0  0  0  0  0
    9.3815  -14.0610   21.7651 O   0  0  0  0  0  0  0  0  0  0  0  0
   11.0545  -15.0454   30.1567 O   0  0  0  0  0  0  0  0  0  0  0  0
   10.2342  -14.8877   29.0366 C   0  0  0  0  0  0  0  0  0  0  0  0
    9.6330  -15.9900   28.4982 C   0  0  0  0  0  0  0  0  0  0  0  0
    8.8172  -15.8445   27.3868 C   0  0  0  0  0  0  0  0  0  0  0  0
    8.6159  -14.6015   26.8324 C   0  0  0  0  0  0  0  0  0  0  0  0
    7.7687  -14.4038   25.6601 C   0  0  0  0  0  0  0  0  0  0  0  0
    8.4646  -14.5323   24.3452 C   0  0  2  0  0  0  0  0  0  0  0  0
    7.5817  -14.3178   23.2362 N   0  0  0  0  0  0  0  0  0  0  0  0
    8.9487  -15.9593   24.2273 C   0  0  0  0  0  0  0  0  0  0  0  0
    8.1517  -16.9084   24.0397 O   0  0  0  0  0  0  0  0  0  0  0  0
    9.2394  -13.5134   27.4036 C   0  0  0  0  0  0  0  0  0  0  0  0
   10.0512  -13.6422   28.5059 C   0  0  0  0  0  0  0  0  0  0  0  0
   10.3265  -16.2772   24.3251 N   0  0  0  0  0  0  0  0  0  0  0  0
   10.8546  -17.6021   24.2304 C   0  0  1  0  0  0  0  0  0  0  0  0
   11.8439  -17.7876   23.1131 C   0  0  0  0  0  0  0  0  0  0  0  0
   12.4683  -19.4922   23.1974 S   0  0  0  0  0  0  0  0  0  0  0  0
   11.4902  -18.0345   25.5004 C   0  0  0  0  0  0  0  0  0  0  0  0
   11.7885  -19.3888   25.6877 O   0  0  0  0  0  0  0  0  0  0  0  0
   11.7655  -17.2306   26.4021 O   0  0  0  0  0  0  0  0  0  0  0  0
  2  1  1  6
  2  3  1  0
  3  4  1  0
  5  6  2  0
  5  2  1  0
  7  8  1  0
  8 18  2  0
  8  9  1  0
  9 10  2  0
 10 11  1  0
 11 12  1  0
 13 12  1  1
 13 15  1  0
 13 14  1  0
 14  5  1  0
 15 19  1  0
 16 15  2  0
 17 11  2  0
 18 17  1  0
 19 20  1  0
 20 23  1  0
 21 22  1  0
 20 21  1  6
 23 25  2  0
 23 24  1  0
M  END
$$$$
