CYC.pdb
     RDKit          3D

 25 25  0  0  1  0  0  0  0  0999 V2000
    6.1392  -19.0818   22.1163 N   0  0  0  0  0  0  0  0  0  0  0  0
    6.3481  -18.3196   23.3328 C   0  0  1  0  0  0  0  0  0  0  0  0
    6.5990  -19.2525   24.4803 C   0  0  0  0  0  0  0  0  0  0  0  0
    6.6331  -18.3730   26.0381 S   0  0  0  0  0  0  0  0  0  0  0  0
    7.4858  -17.3983   23.2015 C   0  0  0  0  0  0  0  0  0  0  0  0
    8.4585  -17.7982   22.4748 O   0  0  0  0  0  0  0  0  0  0  0  0
    7.2389  -13.3665   17.6483 O   0  0  0  0  0  0  0  0  0  0  0  0
    7.4688  -13.5016   19.0198 C   0  0  0  0  0  0  0  0  0  0  0  0
    6.4157  -13.7923   19.8401 C   0  0  0  0  0  0  0  0  0  0  0  0
    6.6329  -13.9285   21.2026 C   0  0  0  0  0  0  0  0  0  0  0  0
    7.8972  -13.7719   21.7222 C   0  0  0  0  0  0  0  0  0  0  0  0
    8.1697  -13.9024   23.1504 C   0  0  0  0  0  0  0  0  0  0  0  0
    8.6177  -15.2574   23.5897 C   0  0  2  0  0  0  0  0  0  0  0  0
    7.5181  -16.1441   23.8345 N   0  0  0  0  0  0  0  0  0  0  0  0
    9.3271  -15.0918   24.9142 C   0  0  0  0  0  0  0  0  0  0  0  0
    9.8725  -14.0097   25.2347 O   0  0  0  0  0  0  0  0  0  0  0  0
    8.9341  -13.4791   20.8631 C   0  0  0  0  0  0  0  0  0  0  0  0
    8.7339  -13.3412   19.5096 C   0  0  0  0  0  0  0  0  0  0  0  0
    9.4015  -16.1580   25.8450 N   0  0  0  0  0  0  0  0  0  0  0  0
    9.7988  -16.0074   27.2099 C   0  0  1  0  0  0  0  0  0  0  0  0
    8.9492  -15.0434   27.9912 C   0  0  0  0  0  0  0  0  0  0  0  0
    9.5515  -13.3634   27.6481 S   0  0  0  0  0  0  0  0  0  0  0  0
    9.8170  -17.3078   27.9257 C   0  0  0  0  0  0  0  0  0  0  0  0
   10.2522  -17.3489   29.2550 O   0  0  0  0  0  0  0  0  0  0  0  0
    9.4577  -18.3608   27.3805 O   0  0  0  0  0  0  0  0  0  0  0  0
  2  1  1  6
  2  3  1  0
  3  4  1  0
  5  6  2  0
  5  2  1  0
  7  8  1  0
  8 18  2  0
  8  9  1  0
  9 10  2  0
 10 11  1  0
 11 12  1  0
 13 12  1  1
 13 15  1  0
 13 14  1  0
 14  5  1  0
 15 19  1  0
 16 15  2  0
 17 11  2  0
 18 17  1  0
 19 20  1  0
 20 23  1  0
 21 22  1  0
 20 21  1  1
 23 25  2  0
 23 24  1  0
M  END
$$$$
