CYC.pdb
     RDKit          3D

 25 25  0  0  1  0  0  0  0  0999 V2000
    7.9022  -12.9623   19.7264 N   0  0  0  0  0  0  0  0  0  0  0  0
    7.4535  -14.0766   20.5397 C   0  0  1  0  0  0  0  0  0  0  0  0
    7.5616  -15.3524   19.7581 C   0  0  0  0  0  0  0  0  0  0  0  0
    6.9667  -16.7484   20.7062 S   0  0  0  0  0  0  0  0  0  0  0  0
    8.2456  -14.1963   21.7720 C   0  0  0  0  0  0  0  0  0  0  0  0
    9.4898  -13.9189   21.6757 O   0  0  0  0  0  0  0  0  0  0  0  0
   10.8071  -14.9084   30.1085 O   0  0  0  0  0  0  0  0  0  0  0  0
   10.0429  -14.8150   28.9424 C   0  0  0  0  0  0  0  0  0  0  0  0
    9.3797  -15.9233   28.4974 C   0  0  0  0  0  0  0  0  0  0  0  0
    8.6186  -15.8414   27.3415 C   0  0  0  0  0  0  0  0  0  0  0  0
    8.5331  -14.6549   26.6502 C   0  0  0  0  0  0  0  0  0  0  0  0
    7.7470  -14.5256   25.4270 C   0  0  0  0  0  0  0  0  0  0  0  0
    8.5151  -14.6965   24.1580 C   0  0  2  0  0  0  0  0  0  0  0  0
    7.6814  -14.5937   22.9962 N   0  0  0  0  0  0  0  0  0  0  0  0
    9.0724  -16.1016   24.1524 C   0  0  0  0  0  0  0  0  0  0  0  0
    8.3277  -17.1015   24.0234 O   0  0  0  0  0  0  0  0  0  0  0  0
    9.2163  -13.5587   27.1304 C   0  0  0  0  0  0  0  0  0  0  0  0
    9.9749  -13.6248   28.2754 C   0  0  0  0  0  0  0  0  0  0  0  0
   10.4624  -16.3402   24.2935 N   0  0  0  0  0  0  0  0  0  0  0  0
   11.0616  -17.6378   24.2723 C   0  0  1  0  0  0  0  0  0  0  0  0
   12.2577  -17.7442   23.3671 C   0  0  0  0  0  0  0  0  0  0  0  0
   11.7079  -17.3910   21.6713 S   0  0  0  0  0  0  0  0  0  0  0  0
   11.4570  -18.0850   25.6315 C   0  0  0  0  0  0  0  0  0  0  0  0
   12.0553  -19.3400   25.7898 O   0  0  0  0  0  0  0  0  0  0  0  0
   11.2730  -17.3788   26.6328 O   0  0  0  0  0  0  0  0  0  0  0  0
  2  1  1  6
  2  3  1  0
  3  4  1  0
  5  6  2  0
  5  2  1  0
  7  8  1  0
  8 18  2  0
  8  9  1  0
  9 10  2  0
 10 11  1  0
 11 12  1  0
 13 12  1  1
 13 15  1  0
 13 14  1  0
 14  5  1  0
 15 19  1  0
 16 15  2  0
 17 11  2  0
 18 17  1  0
 19 20  1  0
 20 23  1  0
 21 22  1  0
 20 21  1  6
 23 25  2  0
 23 24  1  0
M  END
$$$$
