CYC.pdb
     RDKit          3D

 25 25  0  0  1  0  0  0  0  0999 V2000
   10.3273  -18.2247   19.4655 N   0  0  0  0  0  0  0  0  0  0  0  0
   10.7138  -17.1344   20.3409 C   0  0  1  0  0  0  0  0  0  0  0  0
    9.8372  -15.9438   20.0874 C   0  0  0  0  0  0  0  0  0  0  0  0
   10.2202  -14.6035   21.2091 S   0  0  0  0  0  0  0  0  0  0  0  0
   10.6101  -17.5182   21.7559 C   0  0  0  0  0  0  0  0  0  0  0  0
    9.5435  -18.1330   22.1001 O   0  0  0  0  0  0  0  0  0  0  0  0
   11.9154  -23.9412   23.3951 O   0  0  0  0  0  0  0  0  0  0  0  0
   12.0683  -22.5826   23.6834 C   0  0  0  0  0  0  0  0  0  0  0  0
   12.6632  -21.7741   22.7567 C   0  0  0  0  0  0  0  0  0  0  0  0
   12.8199  -20.4246   23.0329 C   0  0  0  0  0  0  0  0  0  0  0  0
   12.3801  -19.9060   24.2289 C   0  0  0  0  0  0  0  0  0  0  0  0
   12.5287  -18.4925   24.5622 C   0  0  0  0  0  0  0  0  0  0  0  0
   11.4364  -17.6048   24.0636 C   0  0  2  0  0  0  0  0  0  0  0  0
   11.6187  -17.2313   22.6915 N   0  0  0  0  0  0  0  0  0  0  0  0
   11.4974  -16.3216   24.8602 C   0  0  0  0  0  0  0  0  0  0  0  0
   11.8335  -15.2365   24.3302 O   0  0  0  0  0  0  0  0  0  0  0  0
   11.7849  -20.7530   25.1384 C   0  0  0  0  0  0  0  0  0  0  0  0
   11.6226  -22.0935   24.8785 C   0  0  0  0  0  0  0  0  0  0  0  0
   11.1757  -16.2987   26.2403 N   0  0  0  0  0  0  0  0  0  0  0  0
   10.6719  -15.1521   26.9295 C   0  0  1  0  0  0  0  0  0  0  0  0
    9.4109  -14.5872   26.3361 C   0  0  0  0  0  0  0  0  0  0  0  0
    8.9756  -13.0906   27.2706 S   0  0  0  0  0  0  0  0  0  0  0  0
   10.4320  -15.4340   28.3671 C   0  0  0  0  0  0  0  0  0  0  0  0
   10.6167  -14.4105   29.3033 O   0  0  0  0  0  0  0  0  0  0  0  0
   10.0723  -16.5511   28.7645 O   0  0  0  0  0  0  0  0  0  0  0  0
  2  1  1  6
  2  3  1  0
  3  4  1  0
  5  6  2  0
  5  2  1  0
  7  8  1  0
  8 18  2  0
  8  9  1  0
  9 10  2  0
 10 11  1  0
 11 12  1  0
 13 12  1  1
 13 15  1  0
 13 14  1  0
 14  5  1  0
 15 19  1  0
 16 15  2  0
 17 11  2  0
 18 17  1  0
 19 20  1  0
 20 23  1  0
 21 22  1  0
 20 21  1  6
 23 25  2  0
 23 24  1  0
M  END
$$$$
