CYC.pdb
     RDKit          3D

 25 25  0  0  1  0  0  0  0  0999 V2000
   10.1239  -16.6440   18.5435 N   0  0  0  0  0  0  0  0  0  0  0  0
    8.8988  -16.7497   19.3131 C   0  0  1  0  0  0  0  0  0  0  0  0
    8.5345  -18.1937   19.4932 C   0  0  0  0  0  0  0  0  0  0  0  0
    8.2312  -18.9892   17.9195 S   0  0  0  0  0  0  0  0  0  0  0  0
    9.0366  -16.1179   20.6330 C   0  0  0  0  0  0  0  0  0  0  0  0
   10.2252  -15.8221   20.9988 O   0  0  0  0  0  0  0  0  0  0  0  0
    7.2589  -11.9220   28.1473 O   0  0  0  0  0  0  0  0  0  0  0  0
    7.1636  -12.5656   26.9108 C   0  0  0  0  0  0  0  0  0  0  0  0
    7.6802  -11.9511   25.8053 C   0  0  0  0  0  0  0  0  0  0  0  0
    7.5910  -12.5811   24.5736 C   0  0  0  0  0  0  0  0  0  0  0  0
    6.9876  -13.8130   24.4670 C   0  0  0  0  0  0  0  0  0  0  0  0
    6.8683  -14.5095   23.1896 C   0  0  0  0  0  0  0  0  0  0  0  0
    8.1275  -15.1367   22.6889 C   0  0  2  0  0  0  0  0  0  0  0  0
    7.9326  -15.8484   21.4596 N   0  0  0  0  0  0  0  0  0  0  0  0
    8.5556  -16.1676   23.7081 C   0  0  0  0  0  0  0  0  0  0  0  0
    7.8647  -17.1878   23.9383 O   0  0  0  0  0  0  0  0  0  0  0  0
    6.4785  -14.4010   25.6045 C   0  0  0  0  0  0  0  0  0  0  0  0
    6.5597  -13.7884   26.8329 C   0  0  0  0  0  0  0  0  0  0  0  0
    9.7581  -16.0175   24.4431 N   0  0  0  0  0  0  0  0  0  0  0  0
   10.2673  -16.9898   25.3588 C   0  0  1  0  0  0  0  0  0  0  0  0
   11.7687  -17.0658   25.3976 C   0  0  0  0  0  0  0  0  0  0  0  0
   12.3652  -17.2042   23.6866 S   0  0  0  0  0  0  0  0  0  0  0  0
    9.7705  -16.7610   26.7389 C   0  0  0  0  0  0  0  0  0  0  0  0
    8.9958  -15.6267   27.0060 O   0  0  0  0  0  0  0  0  0  0  0  0
   10.0217  -17.5460   27.6641 O   0  0  0  0  0  0  0  0  0  0  0  0
  2  1  1  1
  2  3  1  0
  3  4  1  0
  5  6  2  0
  5  2  1  0
  7  8  1  0
  8 18  2  0
  8  9  1  0
  9 10  2  0
 10 11  1  0
 11 12  1  0
 13 12  1  1
 13 15  1  0
 13 14  1  0
 14  5  1  0
 15 19  1  0
 16 15  2  0
 17 11  2  0
 18 17  1  0
 19 20  1  0
 20 23  1  0
 21 22  1  0
 20 21  1  1
 23 25  2  0
 23 24  1  0
M  END
$$$$
