CYC.pdb
     RDKit          3D

 25 25  0  0  1  0  0  0  0  0999 V2000
   13.1457  -17.7300   17.3758 N   0  0  0  0  0  0  0  0  0  0  0  0
   13.9517  -18.5712   18.2402 C   0  0  1  0  0  0  0  0  0  0  0  0
   14.9789  -19.3004   17.4258 C   0  0  0  0  0  0  0  0  0  0  0  0
   14.2107  -20.4285   16.2688 S   0  0  0  0  0  0  0  0  0  0  0  0
   14.6296  -17.7821   19.2786 C   0  0  0  0  0  0  0  0  0  0  0  0
   14.6314  -16.5140   19.1165 O   0  0  0  0  0  0  0  0  0  0  0  0
   10.1738  -16.8927   24.6486 O   0  0  0  0  0  0  0  0  0  0  0  0
   11.4589  -17.1970   24.1922 C   0  0  0  0  0  0  0  0  0  0  0  0
   12.4140  -16.2204   24.2097 C   0  0  0  0  0  0  0  0  0  0  0  0
   13.6923  -16.5118   23.7591 C   0  0  0  0  0  0  0  0  0  0  0  0
   13.9946  -17.7727   23.2989 C   0  0  0  0  0  0  0  0  0  0  0  0
   15.3258  -18.1213   22.8116 C   0  0  0  0  0  0  0  0  0  0  0  0
   15.6845  -17.5478   21.4804 C   0  0  2  0  0  0  0  0  0  0  0  0
   15.2473  -18.3741   20.3933 N   0  0  0  0  0  0  0  0  0  0  0  0
   17.1932  -17.5072   21.3971 C   0  0  0  0  0  0  0  0  0  0  0  0
   17.8303  -18.2948   20.6589 O   0  0  0  0  0  0  0  0  0  0  0  0
   13.0046  -18.7312   23.2968 C   0  0  0  0  0  0  0  0  0  0  0  0
   11.7324  -18.4570   23.7407 C   0  0  0  0  0  0  0  0  0  0  0  0
   17.9450  -16.5737   22.1536 N   0  0  0  0  0  0  0  0  0  0  0  0
   19.1819  -16.0006   21.7235 C   0  0  1  0  0  0  0  0  0  0  0  0
   19.0873  -15.2443   20.4271 C   0  0  0  0  0  0  0  0  0  0  0  0
   20.7771  -14.9581   19.8230 S   0  0  0  0  0  0  0  0  0  0  0  0
   19.7608  -15.1016   22.7532 C   0  0  0  0  0  0  0  0  0  0  0  0
   21.1191  -15.2131   23.0706 O   0  0  0  0  0  0  0  0  0  0  0  0
   19.0761  -14.2533   23.3419 O   0  0  0  0  0  0  0  0  0  0  0  0
  2  1  1  6
  2  3  1  0
  3  4  1  0
  5  6  2  0
  5  2  1  0
  7  8  1  0
  8 18  2  0
  8  9  1  0
  9 10  2  0
 10 11  1  0
 11 12  1  0
 13 12  1  1
 13 15  1  0
 13 14  1  0
 14  5  1  0
 15 19  1  0
 16 15  2  0
 17 11  2  0
 18 17  1  0
 19 20  1  0
 20 23  1  0
 21 22  1  0
 20 21  1  6
 23 25  2  0
 23 24  1  0
M  END
$$$$
