CYC.pdb
     RDKit          3D

 25 25  0  0  1  0  0  0  0  0999 V2000
   10.4863  -16.5004   18.6252 N   0  0  0  0  0  0  0  0  0  0  0  0
    9.5117  -17.0460   19.5510 C   0  0  1  0  0  0  0  0  0  0  0  0
    9.8135  -18.4918   19.8131 C   0  0  0  0  0  0  0  0  0  0  0  0
    8.5092  -19.2670   20.7614 S   0  0  0  0  0  0  0  0  0  0  0  0
    9.5118  -16.3136   20.8254 C   0  0  0  0  0  0  0  0  0  0  0  0
   10.6447  -15.8828   21.2319 O   0  0  0  0  0  0  0  0  0  0  0  0
    7.0665  -11.7947   27.9168 O   0  0  0  0  0  0  0  0  0  0  0  0
    7.0713  -12.5161   26.7201 C   0  0  0  0  0  0  0  0  0  0  0  0
    6.4545  -13.7345   26.6814 C   0  0  0  0  0  0  0  0  0  0  0  0
    6.4535  -14.4584   25.4992 C   0  0  0  0  0  0  0  0  0  0  0  0
    7.0683  -13.9537   24.3765 C   0  0  0  0  0  0  0  0  0  0  0  0
    7.0947  -14.6841   23.1128 C   0  0  0  0  0  0  0  0  0  0  0  0
    8.4033  -15.3183   22.7737 C   0  0  2  0  0  0  0  0  0  0  0  0
    8.3398  -16.0920   21.5685 N   0  0  0  0  0  0  0  0  0  0  0  0
    8.7344  -16.2921   23.8814 C   0  0  0  0  0  0  0  0  0  0  0  0
    8.0336  -17.3101   24.0903 O   0  0  0  0  0  0  0  0  0  0  0  0
    7.6798  -12.7213   24.4547 C   0  0  0  0  0  0  0  0  0  0  0  0
    7.6889  -11.9917   25.6202 C   0  0  0  0  0  0  0  0  0  0  0  0
    9.8534  -16.0885   24.7271 N   0  0  0  0  0  0  0  0  0  0  0  0
   10.2587  -16.9941   25.7562 C   0  0  1  0  0  0  0  0  0  0  0  0
   11.7496  -17.1195   25.9080 C   0  0  0  0  0  0  0  0  0  0  0  0
   12.4423  -17.5473   24.2833 S   0  0  0  0  0  0  0  0  0  0  0  0
    9.6793  -16.6276   27.0730 C   0  0  0  0  0  0  0  0  0  0  0  0
    9.9059  -17.4611   28.1740 O   0  0  0  0  0  0  0  0  0  0  0  0
    8.9994  -15.6034   27.2273 O   0  0  0  0  0  0  0  0  0  0  0  0
  2  1  1  6
  2  3  1  0
  3  4  1  0
  5  6  2  0
  5  2  1  0
  7  8  1  0
  8 18  2  0
  8  9  1  0
  9 10  2  0
 10 11  1  0
 11 12  1  0
 13 12  1  1
 13 15  1  0
 13 14  1  0
 14  5  1  0
 15 19  1  0
 16 15  2  0
 17 11  2  0
 18 17  1  0
 19 20  1  0
 20 23  1  0
 21 22  1  0
 20 21  1  1
 23 25  2  0
 23 24  1  0
M  END
$$$$
