CYC.pdb
     RDKit          3D

 25 25  0  0  1  0  0  0  0  0999 V2000
    6.0857  -20.1460   24.5363 N   0  0  0  0  0  0  0  0  0  0  0  0
    7.2112  -19.3121   24.9136 C   0  0  1  0  0  0  0  0  0  0  0  0
    8.4425  -19.7588   24.1823 C   0  0  0  0  0  0  0  0  0  0  0  0
    8.5174  -19.0500   22.5412 S   0  0  0  0  0  0  0  0  0  0  0  0
    6.9568  -17.8964   24.6116 C   0  0  0  0  0  0  0  0  0  0  0  0
    5.9762  -17.6507   23.8291 O   0  0  0  0  0  0  0  0  0  0  0  0
   11.0525  -15.2230   30.0789 O   0  0  0  0  0  0  0  0  0  0  0  0
   10.0899  -15.0859   29.0755 C   0  0  0  0  0  0  0  0  0  0  0  0
    9.2247  -16.1178   28.8454 C   0  0  0  0  0  0  0  0  0  0  0  0
    8.2658  -15.9921   27.8521 C   0  0  0  0  0  0  0  0  0  0  0  0
    8.1876  -14.8388   27.1059 C   0  0  0  0  0  0  0  0  0  0  0  0
    7.1966  -14.6660   26.0480 C   0  0  0  0  0  0  0  0  0  0  0  0
    7.4195  -15.4975   24.8278 C   0  0  2  0  0  0  0  0  0  0  0  0
    7.7399  -16.8585   25.1447 N   0  0  0  0  0  0  0  0  0  0  0  0
    8.6274  -14.9367   24.1129 C   0  0  0  0  0  0  0  0  0  0  0  0
    9.2493  -13.9432   24.5571 O   0  0  0  0  0  0  0  0  0  0  0  0
    9.0777  -13.8199   27.3674 C   0  0  0  0  0  0  0  0  0  0  0  0
   10.0340  -13.9301   28.3494 C   0  0  0  0  0  0  0  0  0  0  0  0
    9.1025  -15.5161   22.9098 N   0  0  0  0  0  0  0  0  0  0  0  0
   10.4714  -15.5057   22.4982 C   0  0  1  0  0  0  0  0  0  0  0  0
   11.4243  -16.0421   23.5306 C   0  0  0  0  0  0  0  0  0  0  0  0
   13.0794  -16.1067   22.7828 S   0  0  0  0  0  0  0  0  0  0  0  0
   10.6729  -16.2575   21.2341 C   0  0  0  0  0  0  0  0  0  0  0  0
   11.7421  -15.9142   20.3990 O   0  0  0  0  0  0  0  0  0  0  0  0
    9.9212  -17.1822   20.8948 O   0  0  0  0  0  0  0  0  0  0  0  0
  2  1  1  6
  2  3  1  0
  3  4  1  0
  5  6  2  0
  5  2  1  0
  7  8  1  0
  8 18  2  0
  8  9  1  0
  9 10  2  0
 10 11  1  0
 11 12  1  0
 13 12  1  1
 13 15  1  0
 13 14  1  0
 14  5  1  0
 15 19  1  0
 16 15  2  0
 17 11  2  0
 18 17  1  0
 19 20  1  0
 20 23  1  0
 21 22  1  0
 20 21  1  1
 23 25  2  0
 23 24  1  0
M  END
$$$$
