LEL.pdb
     RDKit          3D

 26 25  0  0  1  0  0  0  0  0999 V2000
    7.3931  -11.7674   19.3857 C   0  0  0  0  0  0  0  0  0  0  0  0
    7.9808  -13.1494   19.3517 C   0  0  1  0  0  0  0  0  0  0  0  0
    9.4637  -13.1493   19.0853 C   0  0  0  0  0  0  0  0  0  0  0  0
    7.6807  -13.8536   20.6817 C   0  0  0  0  0  0  0  0  0  0  0  0
    8.1920  -15.2671   20.5310 C   0  0  2  0  0  0  0  0  0  0  0  0
    7.4722  -15.9737   19.5181 N   0  0  0  0  0  0  0  0  0  0  0  0
    8.2377  -16.0051   21.8019 C   0  0  0  0  0  0  0  0  0  0  0  0
    7.2332  -16.4527   22.3883 O   0  0  0  0  0  0  0  0  0  0  0  0
    9.5055  -16.2230   22.4013 N   0  0  0  0  0  0  0  0  0  0  0  0
    9.6589  -16.9255   23.6932 C   0  0  1  0  0  0  0  0  0  0  0  0
   10.9103  -17.7295   23.5622 C   0  0  0  0  0  0  0  0  0  0  0  0
   11.1865  -18.5719   24.7469 C   0  0  0  0  0  0  0  0  0  0  0  0
   12.4949  -19.3056   24.5228 C   0  0  0  0  0  0  0  0  0  0  0  0
   12.5244  -20.5357   24.6885 O   0  0  0  0  0  0  0  0  0  0  0  0
    9.7930  -15.8940   24.7258 C   0  0  0  0  0  0  0  0  0  0  0  0
   10.7200  -15.0457   24.6661 O   0  0  0  0  0  0  0  0  0  0  0  0
   13.6478  -18.6447   24.1413 O   0  0  0  0  0  0  0  0  0  0  0  0
    6.2286  -12.3995   26.0865 C   0  0  0  0  0  0  0  0  0  0  0  0
    7.5407  -13.1161   25.9069 C   0  0  1  0  0  0  0  0  0  0  0  0
    8.6721  -12.0782   25.8194 C   0  0  0  0  0  0  0  0  0  0  0  0
    7.8743  -14.0113   27.0375 C   0  0  0  0  0  0  0  0  0  0  0  0
    9.1039  -14.8497   26.9018 C   0  0  2  0  0  0  0  0  0  0  0  0
    8.8931  -15.8112   25.8067 N   0  0  0  0  0  0  0  0  0  0  0  0
    9.5734  -15.5189   28.0976 C   0  0  0  0  0  0  0  0  0  0  0  0
    9.5012  -16.7580   28.2297 O   0  0  0  0  0  0  0  0  0  0  0  0
   10.1263  -14.7950   29.1460 O   0  0  0  0  0  0  0  0  0  0  0  0
  2  1  1  1
  2  3  1  0
  4  5  1  0
  4  2  1  0
  5  6  1  6
  7  5  1  0
  8  7  2  0
  9  7  1  0
 10  9  1  0
 10 11  1  6
 11 12  1  0
 12 13  1  0
 13 14  2  0
 13 17  1  0
 15 16  2  0
 15 10  1  0
 19 18  1  1
 19 21  1  0
 20 19  1  0
 22 21  1  1
 22 23  1  0
 23 15  1  0
 24 22  1  0
 25 24  2  0
 26 24  1  0
M  END
$$$$
