LEL.pdb
     RDKit          3D

 26 25  0  0  1  0  0  0  0  0999 V2000
    7.4651  -11.7937   19.3309 C   0  0  0  0  0  0  0  0  0  0  0  0
    8.1287  -13.1403   19.2775 C   0  0  1  0  0  0  0  0  0  0  0  0
    9.6300  -13.0505   19.1871 C   0  0  0  0  0  0  0  0  0  0  0  0
    7.7191  -13.9494   20.5154 C   0  0  0  0  0  0  0  0  0  0  0  0
    8.3784  -15.3006   20.3686 C   0  0  2  0  0  0  0  0  0  0  0  0
    7.7601  -16.0696   19.3344 N   0  0  0  0  0  0  0  0  0  0  0  0
    8.4711  -16.0407   21.6358 C   0  0  0  0  0  0  0  0  0  0  0  0
    7.5033  -16.5860   22.2007 O   0  0  0  0  0  0  0  0  0  0  0  0
    9.7428  -16.1419   22.2574 N   0  0  0  0  0  0  0  0  0  0  0  0
    9.9477  -16.8778   23.5233 C   0  0  1  0  0  0  0  0  0  0  0  0
   11.2874  -17.5245   23.3947 C   0  0  0  0  0  0  0  0  0  0  0  0
   11.5919  -18.4558   24.5034 C   0  0  0  0  0  0  0  0  0  0  0  0
   12.9710  -19.0444   24.2741 C   0  0  0  0  0  0  0  0  0  0  0  0
   13.3538  -19.9693   25.0085 O   0  0  0  0  0  0  0  0  0  0  0  0
    9.9361  -15.8839   24.6005 C   0  0  0  0  0  0  0  0  0  0  0  0
   10.7355  -14.9127   24.5837 O   0  0  0  0  0  0  0  0  0  0  0  0
   13.8070  -18.5807   23.2755 O   0  0  0  0  0  0  0  0  0  0  0  0
    5.6330  -13.3875   26.2114 C   0  0  0  0  0  0  0  0  0  0  0  0
    7.0969  -13.6599   25.9873 C   0  0  1  0  0  0  0  0  0  0  0  0
    7.8640  -12.3270   26.0032 C   0  0  0  0  0  0  0  0  0  0  0  0
    7.6991  -14.5070   27.0412 C   0  0  0  0  0  0  0  0  0  0  0  0
    9.0818  -15.0180   26.7962 C   0  0  2  0  0  0  0  0  0  0  0  0
    9.0331  -15.9751   25.6783 N   0  0  0  0  0  0  0  0  0  0  0  0
    9.7809  -15.5817   27.9327 C   0  0  0  0  0  0  0  0  0  0  0  0
    9.9828  -16.8090   28.0385 O   0  0  0  0  0  0  0  0  0  0  0  0
   10.2550  -14.7653   28.9512 O   0  0  0  0  0  0  0  0  0  0  0  0
  2  1  1  1
  2  3  1  0
  4  5  1  0
  4  2  1  0
  5  6  1  6
  7  5  1  0
  8  7  2  0
  9  7  1  0
 10  9  1  0
 10 11  1  6
 11 12  1  0
 12 13  1  0
 13 14  2  0
 13 17  1  0
 15 16  2  0
 15 10  1  0
 19 18  1  1
 19 21  1  0
 20 19  1  0
 22 21  1  1
 22 23  1  0
 23 15  1  0
 24 22  1  0
 25 24  2  0
 26 24  1  0
M  END
$$$$
