LEL.pdb
     RDKit          3D

 26 25  0  0  1  0  0  0  0  0999 V2000
    6.8258  -12.6079   17.7852 C   0  0  0  0  0  0  0  0  0  0  0  0
    8.0321  -13.1485   18.4988 C   0  0  1  0  0  0  0  0  0  0  0  0
    8.9916  -12.0690   18.9282 C   0  0  0  0  0  0  0  0  0  0  0  0
    7.5709  -13.9628   19.7149 C   0  0  0  0  0  0  0  0  0  0  0  0
    8.8221  -14.2988   20.4920 C   0  0  2  0  0  0  0  0  0  0  0  0
    9.8236  -14.8642   19.6430 N   0  0  0  0  0  0  0  0  0  0  0  0
    8.5621  -15.1277   21.6783 C   0  0  0  0  0  0  0  0  0  0  0  0
    7.5312  -15.0505   22.3742 O   0  0  0  0  0  0  0  0  0  0  0  0
    9.5465  -16.0771   22.0570 N   0  0  0  0  0  0  0  0  0  0  0  0
    9.3587  -16.9983   23.1982 C   0  0  1  0  0  0  0  0  0  0  0  0
   10.3867  -18.0664   23.0202 C   0  0  0  0  0  0  0  0  0  0  0  0
   10.3282  -19.1098   24.0676 C   0  0  0  0  0  0  0  0  0  0  0  0
   11.4253  -20.1228   23.8016 C   0  0  0  0  0  0  0  0  0  0  0  0
   12.6079  -19.7703   23.9389 O   0  0  0  0  0  0  0  0  0  0  0  0
    9.6017  -16.2216   24.4172 C   0  0  0  0  0  0  0  0  0  0  0  0
   10.7187  -15.6790   24.6181 O   0  0  0  0  0  0  0  0  0  0  0  0
   11.1447  -21.4195   23.4128 O   0  0  0  0  0  0  0  0  0  0  0  0
    5.7205  -13.0203   26.4045 C   0  0  0  0  0  0  0  0  0  0  0  0
    7.0919  -13.5303   26.0484 C   0  0  1  0  0  0  0  0  0  0  0  0
    8.0908  -12.3620   26.0979 C   0  0  0  0  0  0  0  0  0  0  0  0
    7.5937  -14.5561   26.9900 C   0  0  0  0  0  0  0  0  0  0  0  0
    8.8539  -15.2661   26.6146 C   0  0  2  0  0  0  0  0  0  0  0  0
    8.6008  -16.0497   25.3939 N   0  0  0  0  0  0  0  0  0  0  0  0
    9.4728  -16.0836   27.6378 C   0  0  0  0  0  0  0  0  0  0  0  0
    9.4213  -17.3304   27.6045 O   0  0  0  0  0  0  0  0  0  0  0  0
   10.1517  -15.4996   28.6992 O   0  0  0  0  0  0  0  0  0  0  0  0
  2  1  1  1
  2  3  1  0
  4  5  1  0
  4  2  1  0
  5  6  1  6
  7  5  1  0
  8  7  2  0
  9  7  1  0
 10  9  1  0
 10 11  1  6
 11 12  1  0
 12 13  1  0
 13 14  2  0
 13 17  1  0
 15 16  2  0
 15 10  1  0
 19 18  1  1
 19 21  1  0
 20 19  1  0
 22 21  1  1
 22 23  1  0
 23 15  1  0
 24 22  1  0
 25 24  2  0
 26 24  1  0
M  END
$$$$
