LEL.pdb
     RDKit          3D

 26 25  0  0  1  0  0  0  0  0999 V2000
    7.0556  -11.9004   20.0560 C   0  0  0  0  0  0  0  0  0  0  0  0
    7.5977  -13.2234   19.5948 C   0  0  1  0  0  0  0  0  0  0  0  0
    8.5048  -13.0999   18.3982 C   0  0  0  0  0  0  0  0  0  0  0  0
    8.3421  -13.8920   20.7582 C   0  0  0  0  0  0  0  0  0  0  0  0
    8.1741  -15.3804   20.5616 C   0  0  2  0  0  0  0  0  0  0  0  0
    6.9432  -15.6803   19.8996 N   0  0  0  0  0  0  0  0  0  0  0  0
    8.3436  -16.1513   21.8022 C   0  0  0  0  0  0  0  0  0  0  0  0
    7.4003  -16.5830   22.4928 O   0  0  0  0  0  0  0  0  0  0  0  0
    9.6649  -16.4224   22.2435 N   0  0  0  0  0  0  0  0  0  0  0  0
    9.9449  -17.1744   23.4853 C   0  0  1  0  0  0  0  0  0  0  0  0
   11.2729  -17.8211   23.2674 C   0  0  0  0  0  0  0  0  0  0  0  0
   11.7297  -18.6164   24.4286 C   0  0  0  0  0  0  0  0  0  0  0  0
   13.0696  -19.2406   24.0889 C   0  0  0  0  0  0  0  0  0  0  0  0
   14.0166  -18.4945   23.7923 O   0  0  0  0  0  0  0  0  0  0  0  0
   10.0009  -16.1941   24.5736 C   0  0  0  0  0  0  0  0  0  0  0  0
   10.7500  -15.1870   24.4895 O   0  0  0  0  0  0  0  0  0  0  0  0
   13.2625  -20.6096   24.1009 O   0  0  0  0  0  0  0  0  0  0  0  0
    6.7289  -12.7622   25.8175 C   0  0  0  0  0  0  0  0  0  0  0  0
    8.0638  -13.4582   25.8513 C   0  0  1  0  0  0  0  0  0  0  0  0
    9.1571  -12.4316   26.1915 C   0  0  0  0  0  0  0  0  0  0  0  0
    8.1419  -14.5170   26.8826 C   0  0  0  0  0  0  0  0  0  0  0  0
    9.3486  -15.3984   26.8631 C   0  0  2  0  0  0  0  0  0  0  0  0
    9.2199  -16.3387   25.7373 N   0  0  0  0  0  0  0  0  0  0  0  0
    9.6663  -16.0982   28.0909 C   0  0  0  0  0  0  0  0  0  0  0  0
    9.9104  -15.4879   29.1520 O   0  0  0  0  0  0  0  0  0  0  0  0
    9.7084  -17.4859   28.1269 O   0  0  0  0  0  0  0  0  0  0  0  0
  2  1  1  1
  2  3  1  0
  4  5  1  0
  4  2  1  0
  5  6  1  1
  7  5  1  0
  8  7  2  0
  9  7  1  0
 10  9  1  0
 10 11  1  6
 11 12  1  0
 12 13  1  0
 13 14  2  0
 13 17  1  0
 15 16  2  0
 15 10  1  0
 19 18  1  1
 19 21  1  0
 20 19  1  0
 22 21  1  1
 22 23  1  0
 23 15  1  0
 24 22  1  0
 25 24  2  0
 26 24  1  0
M  END
$$$$
