LEL.pdb
     RDKit          3D

 26 25  0  0  1  0  0  0  0  0999 V2000
    6.7631  -12.6141   17.9233 C   0  0  0  0  0  0  0  0  0  0  0  0
    8.0179  -13.0948   18.5950 C   0  0  1  0  0  0  0  0  0  0  0  0
    8.8268  -11.9747   19.1960 C   0  0  0  0  0  0  0  0  0  0  0  0
    7.6463  -14.1196   19.6749 C   0  0  0  0  0  0  0  0  0  0  0  0
    8.8627  -14.2533   20.5606 C   0  0  2  0  0  0  0  0  0  0  0  0
   10.0212  -14.6054   19.8008 N   0  0  0  0  0  0  0  0  0  0  0  0
    8.6503  -15.1523   21.7046 C   0  0  0  0  0  0  0  0  0  0  0  0
    7.5745  -15.2533   22.3256 O   0  0  0  0  0  0  0  0  0  0  0  0
    9.7383  -15.9576   22.1308 N   0  0  0  0  0  0  0  0  0  0  0  0
    9.6309  -16.8921   23.2716 C   0  0  1  0  0  0  0  0  0  0  0  0
   10.7740  -17.8403   23.1175 C   0  0  0  0  0  0  0  0  0  0  0  0
   10.5008  -18.9280   22.1523 C   0  0  0  0  0  0  0  0  0  0  0  0
   11.7292  -19.8131   22.0623 C   0  0  0  0  0  0  0  0  0  0  0  0
   11.5771  -21.0453   22.0606 O   0  0  0  0  0  0  0  0  0  0  0  0
    9.7626  -16.0913   24.4921 C   0  0  0  0  0  0  0  0  0  0  0  0
   10.7230  -15.2909   24.6317 O   0  0  0  0  0  0  0  0  0  0  0  0
   13.0052  -19.2869   21.9826 O   0  0  0  0  0  0  0  0  0  0  0  0
    5.9196  -13.0153   26.4880 C   0  0  0  0  0  0  0  0  0  0  0  0
    7.3172  -13.5183   26.2406 C   0  0  1  0  0  0  0  0  0  0  0  0
    8.3223  -12.4229   26.6341 C   0  0  0  0  0  0  0  0  0  0  0  0
    7.6566  -14.7130   27.0459 C   0  0  0  0  0  0  0  0  0  0  0  0
    8.9657  -15.3755   26.7622 C   0  0  2  0  0  0  0  0  0  0  0  0
    8.8236  -16.1823   25.5387 N   0  0  0  0  0  0  0  0  0  0  0  0
    9.5489  -16.1557   27.8343 C   0  0  0  0  0  0  0  0  0  0  0  0
    9.8899  -15.6356   28.9165 O   0  0  0  0  0  0  0  0  0  0  0  0
    9.7479  -17.5227   27.6907 O   0  0  0  0  0  0  0  0  0  0  0  0
  2  1  1  1
  2  3  1  0
  4  5  1  0
  4  2  1  0
  5  6  1  6
  7  5  1  0
  8  7  2  0
  9  7  1  0
 10  9  1  0
 10 11  1  6
 11 12  1  0
 12 13  1  0
 13 14  2  0
 13 17  1  0
 15 16  2  0
 15 10  1  0
 19 18  1  1
 19 21  1  0
 20 19  1  0
 22 21  1  1
 22 23  1  0
 23 15  1  0
 24 22  1  0
 25 24  2  0
 26 24  1  0
M  END
$$$$
