LEL.pdb
     RDKit          3D

 26 25  0  0  1  0  0  0  0  0999 V2000
    5.8699  -11.7912   26.4284 C   0  0  0  0  0  0  0  0  0  0  0  0
    6.0524  -12.7912   25.3223 C   0  0  1  0  0  0  0  0  0  0  0  0
    6.7579  -12.2151   24.1221 C   0  0  0  0  0  0  0  0  0  0  0  0
    6.8272  -14.0001   25.8635 C   0  0  0  0  0  0  0  0  0  0  0  0
    6.6912  -15.0847   24.8208 C   0  0  2  0  0  0  0  0  0  0  0  0
    5.3896  -15.6746   24.8528 N   0  0  0  0  0  0  0  0  0  0  0  0
    7.7622  -16.0900   24.8877 C   0  0  0  0  0  0  0  0  0  0  0  0
    7.8262  -16.9888   25.7487 O   0  0  0  0  0  0  0  0  0  0  0  0
    8.7898  -16.0356   23.9105 N   0  0  0  0  0  0  0  0  0  0  0  0
    9.9542  -16.9464   23.9362 C   0  0  1  0  0  0  0  0  0  0  0  0
   10.7382  -16.6239   22.7071 C   0  0  0  0  0  0  0  0  0  0  0  0
   11.9700  -17.4329   22.5745 C   0  0  0  0  0  0  0  0  0  0  0  0
   12.1751  -17.7631   21.1084 C   0  0  0  0  0  0  0  0  0  0  0  0
   11.8558  -16.9179   20.2568 O   0  0  0  0  0  0  0  0  0  0  0  0
   10.7130  -16.6337   25.1505 C   0  0  0  0  0  0  0  0  0  0  0  0
   11.3899  -15.5762   25.2274 O   0  0  0  0  0  0  0  0  0  0  0  0
   12.7047  -18.9725   20.6984 O   0  0  0  0  0  0  0  0  0  0  0  0
    9.5715  -14.1536   28.9141 C   0  0  0  0  0  0  0  0  0  0  0  0
   10.4615  -14.9189   27.9707 C   0  0  1  0  0  0  0  0  0  0  0  0
   11.8544  -14.2672   27.9543 C   0  0  0  0  0  0  0  0  0  0  0  0
   10.6592  -16.3296   28.3730 C   0  0  0  0  0  0  0  0  0  0  0  0
   11.4917  -17.1837   27.4726 C   0  0  2  0  0  0  0  0  0  0  0  0
   10.7053  -17.4934   26.2668 N   0  0  0  0  0  0  0  0  0  0  0  0
   12.0535  -18.3875   28.0498 C   0  0  0  0  0  0  0  0  0  0  0  0
   12.8633  -18.3464   28.9988 O   0  0  0  0  0  0  0  0  0  0  0  0
   11.7040  -19.6396   27.5611 O   0  0  0  0  0  0  0  0  0  0  0  0
  2  1  1  1
  2  3  1  0
  4  5  1  0
  4  2  1  0
  5  6  1  1
  7  5  1  0
  8  7  2  0
  9  7  1  0
 10  9  1  0
 10 11  1  6
 11 12  1  0
 12 13  1  0
 13 14  2  0
 13 17  1  0
 15 16  2  0
 15 10  1  0
 19 18  1  1
 19 21  1  0
 20 19  1  0
 22 21  1  1
 22 23  1  0
 23 15  1  0
 24 22  1  0
 25 24  2  0
 26 24  1  0
M  END
$$$$
