LEL.pdb
     RDKit          3D

 26 25  0  0  1  0  0  0  0  0999 V2000
    6.8493  -12.9333   18.1457 C   0  0  0  0  0  0  0  0  0  0  0  0
    8.1011  -13.4646   18.7838 C   0  0  1  0  0  0  0  0  0  0  0  0
    9.0144  -12.3737   19.2798 C   0  0  0  0  0  0  0  0  0  0  0  0
    7.7163  -14.3999   19.9378 C   0  0  0  0  0  0  0  0  0  0  0  0
    8.9646  -14.5712   20.7711 C   0  0  2  0  0  0  0  0  0  0  0  0
   10.0178  -15.1682   20.0109 N   0  0  0  0  0  0  0  0  0  0  0  0
    8.7225  -15.2751   22.0392 C   0  0  0  0  0  0  0  0  0  0  0  0
    7.6955  -15.1374   22.7316 O   0  0  0  0  0  0  0  0  0  0  0  0
    9.7206  -16.1692   22.5066 N   0  0  0  0  0  0  0  0  0  0  0  0
    9.5690  -16.9375   23.7607 C   0  0  1  0  0  0  0  0  0  0  0  0
   10.6553  -17.9616   23.7331 C   0  0  0  0  0  0  0  0  0  0  0  0
   10.3656  -19.0918   22.8231 C   0  0  0  0  0  0  0  0  0  0  0  0
   11.6716  -19.7831   22.4812 C   0  0  0  0  0  0  0  0  0  0  0  0
   11.7139  -20.5153   21.4794 O   0  0  0  0  0  0  0  0  0  0  0  0
    9.7550  -15.9919   24.8650 C   0  0  0  0  0  0  0  0  0  0  0  0
   10.8211  -15.3323   24.9697 O   0  0  0  0  0  0  0  0  0  0  0  0
   12.8085  -19.6200   23.2508 O   0  0  0  0  0  0  0  0  0  0  0  0
    6.2770  -12.3504   26.2698 C   0  0  0  0  0  0  0  0  0  0  0  0
    7.5910  -13.0697   26.1168 C   0  0  1  0  0  0  0  0  0  0  0  0
    8.7329  -12.0399   26.1379 C   0  0  0  0  0  0  0  0  0  0  0  0
    7.8626  -14.0250   27.2144 C   0  0  0  0  0  0  0  0  0  0  0  0
    9.0100  -14.9645   27.0306 C   0  0  2  0  0  0  0  0  0  0  0  0
    8.7538  -15.7837   25.8342 N   0  0  0  0  0  0  0  0  0  0  0  0
    9.3618  -15.7955   28.1637 C   0  0  0  0  0  0  0  0  0  0  0  0
    9.7744  -15.3065   29.2355 O   0  0  0  0  0  0  0  0  0  0  0  0
    9.2486  -17.1778   28.0930 O   0  0  0  0  0  0  0  0  0  0  0  0
  2  1  1  1
  2  3  1  0
  4  5  1  0
  4  2  1  0
  5  6  1  6
  7  5  1  0
  8  7  2  0
  9  7  1  0
 10  9  1  0
 10 11  1  1
 11 12  1  0
 12 13  1  0
 13 14  2  0
 13 17  1  0
 15 16  2  0
 15 10  1  0
 19 18  1  1
 19 21  1  0
 20 19  1  0
 22 21  1  1
 22 23  1  0
 23 15  1  0
 24 22  1  0
 25 24  2  0
 26 24  1  0
M  END
$$$$
