LEL.pdb
     RDKit          3D

 26 25  0  0  1  0  0  0  0  0999 V2000
    6.9192  -12.3801   18.4869 C   0  0  0  0  0  0  0  0  0  0  0  0
    8.1105  -13.2589   18.7422 C   0  0  1  0  0  0  0  0  0  0  0  0
    9.3435  -12.4796   19.1198 C   0  0  0  0  0  0  0  0  0  0  0  0
    7.7614  -14.2669   19.8454 C   0  0  0  0  0  0  0  0  0  0  0  0
    9.0533  -14.5533   20.5741 C   0  0  2  0  0  0  0  0  0  0  0  0
    9.9929  -15.2145   19.7236 N   0  0  0  0  0  0  0  0  0  0  0  0
    8.8556  -15.2630   21.8466 C   0  0  0  0  0  0  0  0  0  0  0  0
    7.8778  -15.0908   22.5999 O   0  0  0  0  0  0  0  0  0  0  0  0
    9.8396  -16.2049   22.2447 N   0  0  0  0  0  0  0  0  0  0  0  0
    9.6773  -17.0606   23.4394 C   0  0  1  0  0  0  0  0  0  0  0  0
   10.8031  -18.0398   23.3828 C   0  0  0  0  0  0  0  0  0  0  0  0
   10.7228  -19.0791   24.4329 C   0  0  0  0  0  0  0  0  0  0  0  0
   11.9012  -20.0203   24.2715 C   0  0  0  0  0  0  0  0  0  0  0  0
   11.6791  -21.2163   24.0231 O   0  0  0  0  0  0  0  0  0  0  0  0
    9.7900  -16.1849   24.6093 C   0  0  0  0  0  0  0  0  0  0  0  0
   10.8660  -15.5815   24.8555 O   0  0  0  0  0  0  0  0  0  0  0  0
   13.2074  -19.5839   24.3930 O   0  0  0  0  0  0  0  0  0  0  0  0
    6.0571  -12.6193   25.9507 C   0  0  0  0  0  0  0  0  0  0  0  0
    7.3964  -13.2949   25.8186 C   0  0  1  0  0  0  0  0  0  0  0  0
    8.5072  -12.2429   25.9747 C   0  0  0  0  0  0  0  0  0  0  0  0
    7.6357  -14.3205   26.8587 C   0  0  0  0  0  0  0  0  0  0  0  0
    8.8541  -15.1723   26.7068 C   0  0  2  0  0  0  0  0  0  0  0  0
    8.7060  -15.9830   25.4865 N   0  0  0  0  0  0  0  0  0  0  0  0
    9.2183  -15.9993   27.8389 C   0  0  0  0  0  0  0  0  0  0  0  0
    9.6415  -15.5064   28.9048 O   0  0  0  0  0  0  0  0  0  0  0  0
    9.1054  -17.3819   27.7740 O   0  0  0  0  0  0  0  0  0  0  0  0
  2  1  1  1
  2  3  1  0
  4  5  1  0
  4  2  1  0
  5  6  1  6
  7  5  1  0
  8  7  2  0
  9  7  1  0
 10  9  1  0
 10 11  1  1
 11 12  1  0
 12 13  1  0
 13 14  2  0
 13 17  1  0
 15 16  2  0
 15 10  1  0
 19 18  1  1
 19 21  1  0
 20 19  1  0
 22 21  1  1
 22 23  1  0
 23 15  1  0
 24 22  1  0
 25 24  2  0
 26 24  1  0
M  END
$$$$
