LEL.pdb
     RDKit          3D

 26 25  0  0  1  0  0  0  0  0999 V2000
    6.6716  -12.7771   18.0154 C   0  0  0  0  0  0  0  0  0  0  0  0
    7.9474  -13.4209   18.4788 C   0  0  1  0  0  0  0  0  0  0  0  0
    9.0920  -12.4465   18.5809 C   0  0  0  0  0  0  0  0  0  0  0  0
    7.7031  -14.0965   19.8348 C   0  0  0  0  0  0  0  0  0  0  0  0
    9.0301  -14.6838   20.2543 C   0  0  2  0  0  0  0  0  0  0  0  0
    9.6432  -15.4000   19.1798 N   0  0  0  0  0  0  0  0  0  0  0  0
    8.9459  -15.4855   21.4840 C   0  0  0  0  0  0  0  0  0  0  0  0
    7.9525  -15.5119   22.2361 O   0  0  0  0  0  0  0  0  0  0  0  0
   10.0661  -16.2810   21.8394 N   0  0  0  0  0  0  0  0  0  0  0  0
   10.0927  -17.1057   23.0663 C   0  0  1  0  0  0  0  0  0  0  0  0
   11.3324  -17.9316   22.9631 C   0  0  0  0  0  0  0  0  0  0  0  0
   11.5900  -18.7465   24.1710 C   0  0  0  0  0  0  0  0  0  0  0  0
   12.8669  -19.5365   23.9568 C   0  0  0  0  0  0  0  0  0  0  0  0
   13.4178  -19.4888   22.8452 O   0  0  0  0  0  0  0  0  0  0  0  0
   10.1611  -16.1800   24.2006 C   0  0  0  0  0  0  0  0  0  0  0  0
   10.7904  -15.0950   24.1039 O   0  0  0  0  0  0  0  0  0  0  0  0
   13.4294  -20.3032   24.9604 O   0  0  0  0  0  0  0  0  0  0  0  0
    6.4350  -12.8513   26.5715 C   0  0  0  0  0  0  0  0  0  0  0  0
    7.8623  -13.3098   26.4291 C   0  0  1  0  0  0  0  0  0  0  0  0
    8.5958  -13.0905   27.7628 C   0  0  0  0  0  0  0  0  0  0  0  0
    7.9817  -14.7508   26.1126 C   0  0  0  0  0  0  0  0  0  0  0  0
    9.2861  -15.4101   26.4237 C   0  0  2  0  0  0  0  0  0  0  0  0
    9.5244  -16.4652   25.4247 N   0  0  0  0  0  0  0  0  0  0  0  0
    9.4558  -15.9202   27.7688 C   0  0  0  0  0  0  0  0  0  0  0  0
   10.2675  -15.4106   28.5684 O   0  0  0  0  0  0  0  0  0  0  0  0
    8.7113  -17.0037   28.2166 O   0  0  0  0  0  0  0  0  0  0  0  0
  2  1  1  1
  2  3  1  0
  4  5  1  0
  4  2  1  0
  5  6  1  6
  7  5  1  0
  8  7  2  0
  9  7  1  0
 10  9  1  0
 10 11  1  6
 11 12  1  0
 12 13  1  0
 13 14  2  0
 13 17  1  0
 15 16  2  0
 15 10  1  0
 19 18  1  1
 19 21  1  0
 20 19  1  0
 22 21  1  1
 22 23  1  0
 23 15  1  0
 24 22  1  0
 25 24  2  0
 26 24  1  0
M  END
$$$$
