LEL.pdb
     RDKit          3D

 26 25  0  0  1  0  0  0  0  0999 V2000
    7.6170  -11.8336   18.9700 C   0  0  0  0  0  0  0  0  0  0  0  0
    8.1059  -13.2535   19.0097 C   0  0  1  0  0  0  0  0  0  0  0  0
    9.6035  -13.3613   18.8852 C   0  0  0  0  0  0  0  0  0  0  0  0
    7.6334  -13.9090   20.3143 C   0  0  0  0  0  0  0  0  0  0  0  0
    8.1588  -15.3250   20.2847 C   0  0  2  0  0  0  0  0  0  0  0  0
    7.4129  -16.1360   19.3742 N   0  0  0  0  0  0  0  0  0  0  0  0
    8.2610  -15.9329   21.6197 C   0  0  0  0  0  0  0  0  0  0  0  0
    7.2812  -16.2591   22.3174 O   0  0  0  0  0  0  0  0  0  0  0  0
    9.5570  -16.1640   22.1498 N   0  0  0  0  0  0  0  0  0  0  0  0
    9.7735  -16.8830   23.4234 C   0  0  1  0  0  0  0  0  0  0  0  0
   11.0792  -17.5895   23.2639 C   0  0  0  0  0  0  0  0  0  0  0  0
   11.4026  -18.4772   24.4027 C   0  0  0  0  0  0  0  0  0  0  0  0
   12.6997  -19.2014   24.0968 C   0  0  0  0  0  0  0  0  0  0  0  0
   12.9704  -20.2331   24.7322 O   0  0  0  0  0  0  0  0  0  0  0  0
    9.8412  -15.8685   24.4792 C   0  0  0  0  0  0  0  0  0  0  0  0
   10.6381  -14.8997   24.3854 O   0  0  0  0  0  0  0  0  0  0  0  0
   13.5825  -18.7455   23.1354 O   0  0  0  0  0  0  0  0  0  0  0  0
    5.7796  -13.1809   26.2813 C   0  0  0  0  0  0  0  0  0  0  0  0
    7.2284  -13.4956   26.0175 C   0  0  1  0  0  0  0  0  0  0  0  0
    8.0415  -12.1909   26.0592 C   0  0  0  0  0  0  0  0  0  0  0  0
    7.8219  -14.3965   27.0308 C   0  0  0  0  0  0  0  0  0  0  0  0
    9.1662  -14.9732   26.7249 C   0  0  2  0  0  0  0  0  0  0  0  0
    9.0191  -15.9369   25.6214 N   0  0  0  0  0  0  0  0  0  0  0  0
    9.8933  -15.5586   27.8325 C   0  0  0  0  0  0  0  0  0  0  0  0
   10.2656  -14.8764   28.8093 O   0  0  0  0  0  0  0  0  0  0  0  0
   10.2014  -16.9127   27.8433 O   0  0  0  0  0  0  0  0  0  0  0  0
  2  1  1  1
  2  3  1  0
  4  5  1  0
  4  2  1  0
  5  6  1  6
  7  5  1  0
  8  7  2  0
  9  7  1  0
 10  9  1  0
 10 11  1  6
 11 12  1  0
 12 13  1  0
 13 14  2  0
 13 17  1  0
 15 16  2  0
 15 10  1  0
 19 18  1  1
 19 21  1  0
 20 19  1  0
 22 21  1  1
 22 23  1  0
 23 15  1  0
 24 22  1  0
 25 24  2  0
 26 24  1  0
M  END
$$$$
