LEL.pdb
     RDKit          3D

 26 25  0  0  1  0  0  0  0  0999 V2000
    7.3494  -11.7913   19.5405 C   0  0  0  0  0  0  0  0  0  0  0  0
    7.9921  -13.1361   19.3534 C   0  0  1  0  0  0  0  0  0  0  0  0
    9.4309  -13.0423   18.9159 C   0  0  0  0  0  0  0  0  0  0  0  0
    7.8866  -13.9278   20.6637 C   0  0  0  0  0  0  0  0  0  0  0  0
    8.4236  -15.3074   20.3630 C   0  0  2  0  0  0  0  0  0  0  0  0
    7.6359  -15.9649   19.3678 N   0  0  0  0  0  0  0  0  0  0  0  0
    8.6065  -16.1326   21.5662 C   0  0  0  0  0  0  0  0  0  0  0  0
    7.6784  -16.7022   22.1724 O   0  0  0  0  0  0  0  0  0  0  0  0
    9.9230  -16.2924   22.0714 N   0  0  0  0  0  0  0  0  0  0  0  0
   10.2060  -17.0294   23.3215 C   0  0  1  0  0  0  0  0  0  0  0  0
   11.5965  -17.5516   23.1690 C   0  0  0  0  0  0  0  0  0  0  0  0
   12.0560  -18.3317   24.3393 C   0  0  0  0  0  0  0  0  0  0  0  0
   12.5152  -19.6955   23.8599 C   0  0  0  0  0  0  0  0  0  0  0  0
   12.0071  -20.7080   24.3681 O   0  0  0  0  0  0  0  0  0  0  0  0
   10.1173  -16.0597   24.4171 C   0  0  0  0  0  0  0  0  0  0  0  0
   10.9827  -15.1554   24.5428 O   0  0  0  0  0  0  0  0  0  0  0  0
   13.4782  -19.8395   22.8785 O   0  0  0  0  0  0  0  0  0  0  0  0
    5.9687  -13.0708   25.8046 C   0  0  0  0  0  0  0  0  0  0  0  0
    7.3748  -13.5883   25.6537 C   0  0  1  0  0  0  0  0  0  0  0  0
    8.3604  -12.4187   25.8141 C   0  0  0  0  0  0  0  0  0  0  0  0
    7.7386  -14.5918   26.6791 C   0  0  0  0  0  0  0  0  0  0  0  0
    9.0782  -15.2414   26.5504 C   0  0  2  0  0  0  0  0  0  0  0  0
    9.0661  -16.1002   25.3544 N   0  0  0  0  0  0  0  0  0  0  0  0
    9.5664  -15.9663   27.7057 C   0  0  0  0  0  0  0  0  0  0  0  0
    9.5134  -17.2116   27.7718 O   0  0  0  0  0  0  0  0  0  0  0  0
   10.1162  -15.2910   28.7875 O   0  0  0  0  0  0  0  0  0  0  0  0
  2  1  1  1
  2  3  1  0
  4  5  1  0
  4  2  1  0
  5  6  1  6
  7  5  1  0
  8  7  2  0
  9  7  1  0
 10  9  1  0
 10 11  1  6
 11 12  1  0
 12 13  1  0
 13 14  2  0
 13 17  1  0
 15 16  2  0
 15 10  1  0
 19 18  1  1
 19 21  1  0
 20 19  1  0
 22 21  1  1
 22 23  1  0
 23 15  1  0
 24 22  1  0
 25 24  2  0
 26 24  1  0
M  END
$$$$
