LEL.pdb
     RDKit          3D

 26 25  0  0  1  0  0  0  0  0999 V2000
    7.3921  -11.6459   19.2509 C   0  0  0  0  0  0  0  0  0  0  0  0
    8.1773  -12.9175   19.0990 C   0  0  1  0  0  0  0  0  0  0  0  0
    9.6661  -12.6873   19.0727 C   0  0  0  0  0  0  0  0  0  0  0  0
    7.8083  -13.8730   20.2416 C   0  0  0  0  0  0  0  0  0  0  0  0
    8.6166  -15.1287   20.0140 C   0  0  2  0  0  0  0  0  0  0  0  0
    8.2036  -15.8025   18.8229 N   0  0  0  0  0  0  0  0  0  0  0  0
    8.6403  -16.0220   21.1817 C   0  0  0  0  0  0  0  0  0  0  0  0
    7.7126  -16.7945   21.4913 O   0  0  0  0  0  0  0  0  0  0  0  0
    9.7919  -16.0053   22.0108 N   0  0  0  0  0  0  0  0  0  0  0  0
    9.9380  -16.8997   23.1790 C   0  0  1  0  0  0  0  0  0  0  0  0
   11.2572  -17.5757   22.9993 C   0  0  0  0  0  0  0  0  0  0  0  0
   11.5047  -18.6414   23.9955 C   0  0  0  0  0  0  0  0  0  0  0  0
   12.8486  -19.2782   23.6973 C   0  0  0  0  0  0  0  0  0  0  0  0
   13.2521  -20.1916   24.4350 O   0  0  0  0  0  0  0  0  0  0  0  0
    9.9331  -16.0475   24.3714 C   0  0  0  0  0  0  0  0  0  0  0  0
   10.8361  -15.1896   24.5484 O   0  0  0  0  0  0  0  0  0  0  0  0
   13.6306  -18.8706   22.6325 O   0  0  0  0  0  0  0  0  0  0  0  0
    5.9765  -13.1903   26.2971 C   0  0  0  0  0  0  0  0  0  0  0  0
    7.3735  -13.6918   26.0433 C   0  0  1  0  0  0  0  0  0  0  0  0
    8.3686  -12.5405   26.2654 C   0  0  0  0  0  0  0  0  0  0  0  0
    7.7759  -14.7817   26.9604 C   0  0  0  0  0  0  0  0  0  0  0  0
    9.0567  -15.4889   26.6563 C   0  0  2  0  0  0  0  0  0  0  0  0
    8.9231  -16.1518   25.3483 N   0  0  0  0  0  0  0  0  0  0  0  0
    9.5472  -16.4121   27.6589 C   0  0  0  0  0  0  0  0  0  0  0  0
    9.4826  -17.6488   27.5025 O   0  0  0  0  0  0  0  0  0  0  0  0
   10.1125  -15.9451   28.8384 O   0  0  0  0  0  0  0  0  0  0  0  0
  2  1  1  1
  2  3  1  0
  4  5  1  0
  4  2  1  0
  5  6  1  6
  7  5  1  0
  8  7  2  0
  9  7  1  0
 10  9  1  0
 10 11  1  6
 11 12  1  0
 12 13  1  0
 13 14  2  0
 13 17  1  0
 15 16  2  0
 15 10  1  0
 19 18  1  1
 19 21  1  0
 20 19  1  0
 22 21  1  1
 22 23  1  0
 23 15  1  0
 24 22  1  0
 25 24  2  0
 26 24  1  0
M  END
$$$$
