LEL.pdb
     RDKit          3D

 26 25  0  0  1  0  0  0  0  0999 V2000
    6.7016  -12.6160   18.0849 C   0  0  0  0  0  0  0  0  0  0  0  0
    7.9541  -13.1834   18.6901 C   0  0  1  0  0  0  0  0  0  0  0  0
    8.9356  -12.1202   19.1099 C   0  0  0  0  0  0  0  0  0  0  0  0
    7.5765  -14.0609   19.8910 C   0  0  0  0  0  0  0  0  0  0  0  0
    8.8675  -14.3491   20.6205 C   0  0  2  0  0  0  0  0  0  0  0  0
    9.8290  -14.9550   19.7534 N   0  0  0  0  0  0  0  0  0  0  0  0
    8.6735  -15.1141   21.8611 C   0  0  0  0  0  0  0  0  0  0  0  0
    7.7190  -14.9470   22.6448 O   0  0  0  0  0  0  0  0  0  0  0  0
    9.6330  -16.1068   22.1894 N   0  0  0  0  0  0  0  0  0  0  0  0
    9.5089  -16.9596   23.3907 C   0  0  1  0  0  0  0  0  0  0  0  0
   10.5533  -18.0158   23.2379 C   0  0  0  0  0  0  0  0  0  0  0  0
   10.4969  -19.0466   24.2980 C   0  0  0  0  0  0  0  0  0  0  0  0
   11.6290  -20.0309   24.0746 C   0  0  0  0  0  0  0  0  0  0  0  0
   12.7688  -19.7261   24.4613 O   0  0  0  0  0  0  0  0  0  0  0  0
    9.7800  -16.1048   24.5500 C   0  0  0  0  0  0  0  0  0  0  0  0
   10.8120  -15.3863   24.5877 O   0  0  0  0  0  0  0  0  0  0  0  0
   11.4261  -21.2504   23.4558 O   0  0  0  0  0  0  0  0  0  0  0  0
    5.9684  -13.0429   26.5534 C   0  0  0  0  0  0  0  0  0  0  0  0
    7.3510  -13.5206   26.1960 C   0  0  1  0  0  0  0  0  0  0  0  0
    8.3070  -12.3163   26.1678 C   0  0  0  0  0  0  0  0  0  0  0  0
    7.9071  -14.4793   27.1771 C   0  0  0  0  0  0  0  0  0  0  0  0
    9.1736  -15.1786   26.8027 C   0  0  2  0  0  0  0  0  0  0  0  0
    8.8998  -16.0513   25.6488 N   0  0  0  0  0  0  0  0  0  0  0  0
    9.8536  -15.9061   27.8547 C   0  0  0  0  0  0  0  0  0  0  0  0
    9.8792  -17.1538   27.8814 O   0  0  0  0  0  0  0  0  0  0  0  0
   10.5070  -15.2308   28.8773 O   0  0  0  0  0  0  0  0  0  0  0  0
  2  1  1  1
  2  3  1  0
  4  5  1  0
  4  2  1  0
  5  6  1  6
  7  5  1  0
  8  7  2  0
  9  7  1  0
 10  9  1  0
 10 11  1  6
 11 12  1  0
 12 13  1  0
 13 14  2  0
 13 17  1  0
 15 16  2  0
 15 10  1  0
 19 18  1  1
 19 21  1  0
 20 19  1  0
 22 21  1  1
 22 23  1  0
 23 15  1  0
 24 22  1  0
 25 24  2  0
 26 24  1  0
M  END
$$$$
