LEL.pdb
     RDKit          3D

 26 25  0  0  1  0  0  0  0  0999 V2000
    7.2537  -12.7944   17.8371 C   0  0  0  0  0  0  0  0  0  0  0  0
    8.1651  -13.7548   18.5467 C   0  0  1  0  0  0  0  0  0  0  0  0
    9.3941  -13.0893   19.1094 C   0  0  0  0  0  0  0  0  0  0  0  0
    7.3815  -14.4546   19.6652 C   0  0  0  0  0  0  0  0  0  0  0  0
    8.4124  -15.1336   20.5361 C   0  0  2  0  0  0  0  0  0  0  0  0
    8.8970  -16.3326   19.9271 N   0  0  0  0  0  0  0  0  0  0  0  0
    7.9513  -15.3540   21.9148 C   0  0  0  0  0  0  0  0  0  0  0  0
    7.3381  -14.5063   22.5921 O   0  0  0  0  0  0  0  0  0  0  0  0
    8.2203  -16.6115   22.5149 N   0  0  0  0  0  0  0  0  0  0  0  0
    7.6768  -16.9890   23.8371 C   0  0  1  0  0  0  0  0  0  0  0  0
    7.9955  -18.4388   23.9986 C   0  0  0  0  0  0  0  0  0  0  0  0
    7.5418  -18.9929   25.2934 C   0  0  0  0  0  0  0  0  0  0  0  0
    7.0464  -20.4082   25.0655 C   0  0  0  0  0  0  0  0  0  0  0  0
    6.0408  -20.7942   25.6830 O   0  0  0  0  0  0  0  0  0  0  0  0
    8.3773  -16.1744   24.8340 C   0  0  0  0  0  0  0  0  0  0  0  0
    9.6324  -16.0898   24.8237 O   0  0  0  0  0  0  0  0  0  0  0  0
    7.6812  -21.2737   24.1942 O   0  0  0  0  0  0  0  0  0  0  0  0
    7.6131  -12.2693   25.1918 C   0  0  0  0  0  0  0  0  0  0  0  0
    7.6230  -12.2360   26.6972 C   0  0  1  0  0  0  0  0  0  0  0  0
    6.4359  -11.3910   27.1888 C   0  0  0  0  0  0  0  0  0  0  0  0
    7.4715  -13.5750   27.3097 C   0  0  0  0  0  0  0  0  0  0  0  0
    8.3902  -14.6511   26.8290 C   0  0  2  0  0  0  0  0  0  0  0  0
    7.6770  -15.4576   25.8246 N   0  0  0  0  0  0  0  0  0  0  0  0
    8.9933  -15.4951   27.8402 C   0  0  0  0  0  0  0  0  0  0  0  0
    8.5955  -16.6598   28.0480 O   0  0  0  0  0  0  0  0  0  0  0  0
   10.0457  -15.0302   28.6179 O   0  0  0  0  0  0  0  0  0  0  0  0
  2  1  1  1
  2  3  1  0
  4  5  1  0
  4  2  1  0
  5  6  1  6
  7  5  1  0
  8  7  2  0
  9  7  1  0
 10  9  1  0
 10 11  1  1
 11 12  1  0
 12 13  1  0
 13 14  2  0
 13 17  1  0
 15 16  2  0
 15 10  1  0
 19 18  1  6
 19 21  1  0
 20 19  1  0
 22 21  1  1
 22 23  1  0
 23 15  1  0
 24 22  1  0
 25 24  2  0
 26 24  1  0
M  END
$$$$
