LWM.pdb
     RDKit          3D

 31 32  0  0  1  0  0  0  0  0999 V2000
    7.4636  -12.7090   17.6541 C   0  0  0  0  0  0  0  0  0  0  0  0
    8.2648  -13.8611   18.1830 C   0  0  1  0  0  0  0  0  0  0  0  0
    9.6088  -13.8754   17.5044 C   0  0  0  0  0  0  0  0  0  0  0  0
    8.3666  -13.8764   19.6769 C   0  0  0  0  0  0  0  0  0  0  0  0
    9.1979  -15.0405   20.1243 C   0  0  2  0  0  0  0  0  0  0  0  0
    8.6960  -16.2918   19.5908 N   0  0  0  0  0  0  0  0  0  0  0  0
    9.3911  -15.0840   21.5822 C   0  0  0  0  0  0  0  0  0  0  0  0
    9.9299  -14.0908   22.1320 O   0  0  0  0  0  0  0  0  0  0  0  0
    9.0124  -16.1692   22.4183 N   0  0  0  0  0  0  0  0  0  0  0  0
    8.9465  -16.0556   23.8383 C   0  0  1  0  0  0  0  0  0  0  0  0
    7.6882  -16.7444   24.3146 C   0  0  0  0  0  0  0  0  0  0  0  0
    6.7570  -15.7745   24.9822 C   0  0  0  0  0  0  0  0  0  0  0  0
    5.4764  -16.0112   25.4374 C   0  0  0  0  0  0  0  0  0  0  0  0
    4.9777  -14.8830   25.9732 N   0  0  0  0  0  0  0  0  0  0  0  0
    5.8814  -13.8847   25.8962 C   0  0  0  0  0  0  0  0  0  0  0  0
    5.8581  -12.5646   26.2942 C   0  0  0  0  0  0  0  0  0  0  0  0
    6.9653  -11.7762   26.0729 C   0  0  0  0  0  0  0  0  0  0  0  0
    8.0722  -12.3455   25.4521 C   0  0  0  0  0  0  0  0  0  0  0  0
    8.0965  -13.6651   25.0538 C   0  0  0  0  0  0  0  0  0  0  0  0
    6.9931  -14.4453   25.2760 C   0  0  0  0  0  0  0  0  0  0  0  0
   10.1631  -16.5057   24.5311 C   0  0  0  0  0  0  0  0  0  0  0  0
   11.0647  -17.1302   23.8758 O   0  0  0  0  0  0  0  0  0  0  0  0
   10.5332  -15.5039   30.3765 C   0  0  0  0  0  0  0  0  0  0  0  0
   11.2762  -14.0745   29.5250 S   0  0  0  0  0  0  0  0  0  0  0  0
   11.7500  -14.6444   27.8518 C   0  0  0  0  0  0  0  0  0  0  0  0
   11.8915  -16.1504   27.8710 C   0  0  0  0  0  0  0  0  0  0  0  0
   11.6913  -16.7343   26.4853 C   0  0  2  0  0  0  0  0  0  0  0  0
   10.4328  -16.2999   25.9112 N   0  0  0  0  0  0  0  0  0  0  0  0
   11.6214  -18.2129   26.6351 C   0  0  0  0  0  0  0  0  0  0  0  0
   12.7358  -18.9756   26.9632 O   0  0  0  0  0  0  0  0  0  0  0  0
   10.5462  -18.8444   26.4713 O   0  0  0  0  0  0  0  0  0  0  0  0
  2  1  1  1
  2  3  1  0
  4  2  1  0
  5  4  1  0
  5  6  1  1
  7  8  2  0
  7  5  1  0
  9  7  1  0
 10  9  1  0
 10 11  1  1
 12 11  1  0
 12 13  2  0
 14 13  1  0
 15 20  2  0
 15 14  1  0
 16 15  1  0
 17 18  1  0
 17 16  2  0
 18 19  2  0
 19 20  1  0
 20 12  1  0
 21 10  1  0
 21 28  1  0
 22 21  2  0
 23 24  1  0
 25 24  1  0
 25 26  1  0
 27 26  1  1
 27 28  1  0
 27 29  1  0
 29 31  2  0
 29 30  1  0
M  END
$$$$
