LWM.pdb
     RDKit          3D

 31 32  0  0  1  0  0  0  0  0999 V2000
    7.1656  -12.6905   17.5927 C   0  0  0  0  0  0  0  0  0  0  0  0
    7.9165  -13.8948   18.0772 C   0  0  1  0  0  0  0  0  0  0  0  0
    9.1388  -14.0877   17.2192 C   0  0  0  0  0  0  0  0  0  0  0  0
    8.2336  -13.8471   19.5399 C   0  0  0  0  0  0  0  0  0  0  0  0
    8.9081  -15.1172   19.9621 C   0  0  2  0  0  0  0  0  0  0  0  0
    8.1704  -16.2855   19.5224 N   0  0  0  0  0  0  0  0  0  0  0  0
    9.2205  -15.1534   21.3994 C   0  0  0  0  0  0  0  0  0  0  0  0
   10.0606  -14.3280   21.8376 O   0  0  0  0  0  0  0  0  0  0  0  0
    8.6411  -16.0552   22.3327 N   0  0  0  0  0  0  0  0  0  0  0  0
    8.8236  -15.9228   23.7408 C   0  0  1  0  0  0  0  0  0  0  0  0
    7.6877  -16.6349   24.4388 C   0  0  0  0  0  0  0  0  0  0  0  0
    6.7740  -15.6603   25.1233 C   0  0  0  0  0  0  0  0  0  0  0  0
    5.5519  -15.9177   25.7092 C   0  0  0  0  0  0  0  0  0  0  0  0
    5.0490  -14.7765   26.2125 N   0  0  0  0  0  0  0  0  0  0  0  0
    5.8932  -13.7491   25.9865 C   0  0  0  0  0  0  0  0  0  0  0  0
    5.8417  -12.4063   26.2964 C   0  0  0  0  0  0  0  0  0  0  0  0
    6.8857  -11.5898   25.9221 C   0  0  0  0  0  0  0  0  0  0  0  0
    7.9590  -12.1546   25.2413 C   0  0  0  0  0  0  0  0  0  0  0  0
    8.0114  -13.4967   24.9310 C   0  0  0  0  0  0  0  0  0  0  0  0
    6.9710  -14.3050   25.3052 C   0  0  0  0  0  0  0  0  0  0  0  0
   10.1548  -16.3331   24.2123 C   0  0  0  0  0  0  0  0  0  0  0  0
   10.8808  -17.0800   23.4724 O   0  0  0  0  0  0  0  0  0  0  0  0
   10.4866  -13.7923   29.1672 C   0  0  0  0  0  0  0  0  0  0  0  0
   11.3756  -15.2875   29.7092 S   0  0  0  0  0  0  0  0  0  0  0  0
   11.3265  -16.4671   28.3110 C   0  0  0  0  0  0  0  0  0  0  0  0
   12.3542  -16.0484   27.2830 C   0  0  0  0  0  0  0  0  0  0  0  0
   11.9750  -16.5438   25.9002 C   0  0  2  0  0  0  0  0  0  0  0  0
   10.7234  -15.9592   25.4600 N   0  0  0  0  0  0  0  0  0  0  0  0
   11.7653  -18.0134   25.9998 C   0  0  0  0  0  0  0  0  0  0  0  0
   12.8257  -18.9055   26.1037 O   0  0  0  0  0  0  0  0  0  0  0  0
   10.6139  -18.5192   25.9945 O   0  0  0  0  0  0  0  0  0  0  0  0
  2  1  1  6
  2  3  1  0
  4  2  1  0
  5  4  1  0
  5  6  1  1
  7  8  2  0
  7  5  1  0
  9  7  1  0
 10  9  1  0
 10 11  1  1
 12 11  1  0
 12 13  2  0
 14 13  1  0
 15 20  2  0
 15 14  1  0
 16 15  1  0
 17 18  1  0
 17 16  2  0
 18 19  2  0
 19 20  1  0
 20 12  1  0
 21 10  1  0
 21 28  1  0
 22 21  2  0
 23 24  1  0
 25 24  1  0
 25 26  1  0
 27 26  1  1
 27 28  1  0
 27 29  1  0
 29 31  2  0
 29 30  1  0
M  END
$$$$
