LWM.pdb
     RDKit          3D

 31 32  0  0  1  0  0  0  0  0999 V2000
    7.4695  -12.6136   17.9149 C   0  0  0  0  0  0  0  0  0  0  0  0
    8.0785  -13.8920   18.4087 C   0  0  1  0  0  0  0  0  0  0  0  0
    9.0025  -14.4348   17.3510 C   0  0  0  0  0  0  0  0  0  0  0  0
    8.7398  -13.7563   19.7454 C   0  0  0  0  0  0  0  0  0  0  0  0
    9.1841  -15.1000   20.2387 C   0  0  2  0  0  0  0  0  0  0  0  0
    8.2719  -16.1489   19.8261 N   0  0  0  0  0  0  0  0  0  0  0  0
    9.4549  -15.1222   21.6846 C   0  0  0  0  0  0  0  0  0  0  0  0
   10.1977  -14.2248   22.1558 O   0  0  0  0  0  0  0  0  0  0  0  0
    8.9372  -16.0861   22.5919 N   0  0  0  0  0  0  0  0  0  0  0  0
    9.1067  -15.9781   24.0037 C   0  0  1  0  0  0  0  0  0  0  0  0
    7.9316  -16.6479   24.6784 C   0  0  0  0  0  0  0  0  0  0  0  0
    6.9925  -15.6348   25.2659 C   0  0  0  0  0  0  0  0  0  0  0  0
    5.6999  -15.8366   25.7039 C   0  0  0  0  0  0  0  0  0  0  0  0
    5.1973  -14.6760   26.1609 N   0  0  0  0  0  0  0  0  0  0  0  0
    6.1099  -13.6894   26.0469 C   0  0  0  0  0  0  0  0  0  0  0  0
    6.0871  -12.3481   26.3663 C   0  0  0  0  0  0  0  0  0  0  0  0
    7.2050  -11.5808   26.1254 C   0  0  0  0  0  0  0  0  0  0  0  0
    8.3217  -12.1922   25.5653 C   0  0  0  0  0  0  0  0  0  0  0  0
    8.3455  -13.5330   25.2457 C   0  0  0  0  0  0  0  0  0  0  0  0
    7.2315  -14.2922   25.4870 C   0  0  0  0  0  0  0  0  0  0  0  0
   10.4124  -16.4518   24.4871 C   0  0  0  0  0  0  0  0  0  0  0  0
   11.1026  -17.2428   23.7590 O   0  0  0  0  0  0  0  0  0  0  0  0
   10.5401  -13.6961   28.8327 C   0  0  0  0  0  0  0  0  0  0  0  0
   11.3271  -15.0766   29.7242 S   0  0  0  0  0  0  0  0  0  0  0  0
   11.3543  -16.5003   28.5748 C   0  0  0  0  0  0  0  0  0  0  0  0
   12.5235  -16.3410   27.6283 C   0  0  0  0  0  0  0  0  0  0  0  0
   12.1587  -16.8004   26.2293 C   0  0  2  0  0  0  0  0  0  0  0  0
   10.9928  -16.0948   25.7343 N   0  0  0  0  0  0  0  0  0  0  0  0
   11.7986  -18.2413   26.3175 C   0  0  0  0  0  0  0  0  0  0  0  0
   12.0234  -19.1244   25.2685 O   0  0  0  0  0  0  0  0  0  0  0  0
   11.2717  -18.7295   27.3498 O   0  0  0  0  0  0  0  0  0  0  0  0
  2  1  1  6
  2  3  1  0
  4  2  1  0
  5  4  1  0
  5  6  1  1
  7  8  2  0
  7  5  1  0
  9  7  1  0
 10  9  1  0
 10 11  1  1
 12 11  1  0
 12 13  2  0
 14 13  1  0
 15 20  2  0
 15 14  1  0
 16 15  1  0
 17 18  1  0
 17 16  2  0
 18 19  2  0
 19 20  1  0
 20 12  1  0
 21 10  1  0
 21 28  1  0
 22 21  2  0
 23 24  1  0
 25 24  1  0
 25 26  1  0
 27 26  1  1
 27 28  1  0
 27 29  1  0
 29 31  2  0
 29 30  1  0
M  END
$$$$
