LWM.pdb
     RDKit          3D

 31 32  0  0  1  0  0  0  0  0999 V2000
    7.9265  -12.5649   17.5784 C   0  0  0  0  0  0  0  0  0  0  0  0
    8.3288  -13.9253   18.0646 C   0  0  1  0  0  0  0  0  0  0  0  0
    7.9844  -14.9437   17.0102 C   0  0  0  0  0  0  0  0  0  0  0  0
    9.7593  -14.0001   18.5010 C   0  0  0  0  0  0  0  0  0  0  0  0
   10.0066  -15.2821   19.2369 C   0  0  2  0  0  0  0  0  0  0  0  0
    9.2669  -16.3843   18.6535 N   0  0  0  0  0  0  0  0  0  0  0  0
    9.7942  -15.1635   20.6880 C   0  0  0  0  0  0  0  0  0  0  0  0
   10.4786  -14.3152   21.3133 O   0  0  0  0  0  0  0  0  0  0  0  0
    8.8694  -15.9394   21.4383 N   0  0  0  0  0  0  0  0  0  0  0  0
    8.6129  -15.7005   22.8206 C   0  0  1  0  0  0  0  0  0  0  0  0
    7.1800  -16.0824   23.1133 C   0  0  0  0  0  0  0  0  0  0  0  0
    6.7127  -15.4869   24.4096 C   0  0  0  0  0  0  0  0  0  0  0  0
    6.2432  -16.1522   25.5232 C   0  0  0  0  0  0  0  0  0  0  0  0
    5.9251  -15.2581   26.4761 N   0  0  0  0  0  0  0  0  0  0  0  0
    6.1644  -14.0031   26.0439 C   0  0  0  0  0  0  0  0  0  0  0  0
    6.0094  -12.7635   26.6281 C   0  0  0  0  0  0  0  0  0  0  0  0
    6.3513  -11.6366   25.9142 C   0  0  0  0  0  0  0  0  0  0  0  0
    6.8429  -11.7929   24.6225 C   0  0  0  0  0  0  0  0  0  0  0  0
    6.9981  -13.0315   24.0376 C   0  0  0  0  0  0  0  0  0  0  0  0
    6.6569  -14.1494   24.7513 C   0  0  0  0  0  0  0  0  0  0  0  0
    9.5869  -16.3278   23.7265 C   0  0  0  0  0  0  0  0  0  0  0  0
   10.3617  -17.2408   23.2812 O   0  0  0  0  0  0  0  0  0  0  0  0
   11.6482  -14.2916   30.1642 C   0  0  0  0  0  0  0  0  0  0  0  0
   10.4755  -13.8527   28.8405 S   0  0  0  0  0  0  0  0  0  0  0  0
   11.1190  -14.5962   27.2971 C   0  0  0  0  0  0  0  0  0  0  0  0
   10.8096  -16.0769   27.3027 C   0  0  0  0  0  0  0  0  0  0  0  0
   10.7809  -16.6330   25.8916 C   0  0  2  0  0  0  0  0  0  0  0  0
    9.7472  -15.9961   25.0991 N   0  0  0  0  0  0  0  0  0  0  0  0
   10.4336  -18.0762   25.9928 C   0  0  0  0  0  0  0  0  0  0  0  0
    9.2062  -18.5720   25.5698 O   0  0  0  0  0  0  0  0  0  0  0  0
   11.2378  -18.9185   26.4676 O   0  0  0  0  0  0  0  0  0  0  0  0
  2  1  1  6
  2  3  1  0
  4  2  1  0
  5  4  1  0
  5  6  1  6
  7  8  2  0
  7  5  1  0
  9  7  1  0
 10  9  1  0
 10 11  1  1
 12 11  1  0
 12 13  2  0
 14 13  1  0
 15 20  2  0
 15 14  1  0
 16 15  1  0
 17 18  1  0
 17 16  2  0
 18 19  2  0
 19 20  1  0
 20 12  1  0
 21 10  1  0
 21 28  1  0
 22 21  2  0
 23 24  1  0
 25 24  1  0
 25 26  1  0
 27 26  1  1
 27 28  1  0
 27 29  1  0
 29 31  2  0
 29 30  1  0
M  END
$$$$
