LWM.pdb
     RDKit          3D

 31 32  0  0  1  0  0  0  0  0999 V2000
    9.4246  -12.4991   18.4875 C   0  0  0  0  0  0  0  0  0  0  0  0
    8.2764  -13.4096   18.8062 C   0  0  1  0  0  0  0  0  0  0  0  0
    7.0146  -12.8281   18.2257 C   0  0  0  0  0  0  0  0  0  0  0  0
    8.5103  -14.8280   18.3870 C   0  0  0  0  0  0  0  0  0  0  0  0
    9.6046  -15.4348   19.2120 C   0  0  2  0  0  0  0  0  0  0  0  0
    9.8051  -16.8337   18.8878 N   0  0  0  0  0  0  0  0  0  0  0  0
    9.4312  -15.2078   20.6554 C   0  0  0  0  0  0  0  0  0  0  0  0
    9.8458  -14.1215   21.1319 O   0  0  0  0  0  0  0  0  0  0  0  0
    8.8276  -16.1286   21.5543 N   0  0  0  0  0  0  0  0  0  0  0  0
    8.6485  -15.8414   22.9396 C   0  0  1  0  0  0  0  0  0  0  0  0
    7.1924  -16.0514   23.2864 C   0  0  0  0  0  0  0  0  0  0  0  0
    6.8956  -15.5957   24.6856 C   0  0  0  0  0  0  0  0  0  0  0  0
    6.4435  -16.3573   25.7432 C   0  0  0  0  0  0  0  0  0  0  0  0
    6.3008  -15.5750   26.8277 N   0  0  0  0  0  0  0  0  0  0  0  0
    6.6426  -14.3025   26.5395 C   0  0  0  0  0  0  0  0  0  0  0  0
    6.6710  -13.1453   27.2892 C   0  0  0  0  0  0  0  0  0  0  0  0
    7.0784  -11.9707   26.6969 C   0  0  0  0  0  0  0  0  0  0  0  0
    7.4481  -11.9966   25.3563 C   0  0  0  0  0  0  0  0  0  0  0  0
    7.4200  -13.1527   24.6060 C   0  0  0  0  0  0  0  0  0  0  0  0
    7.0142  -14.3186   25.1992 C   0  0  0  0  0  0  0  0  0  0  0  0
    9.5752  -16.5631   23.8245 C   0  0  0  0  0  0  0  0  0  0  0  0
    9.2429  -17.7087   24.2823 O   0  0  0  0  0  0  0  0  0  0  0  0
    9.7613  -13.1493   28.7952 C   0  0  0  0  0  0  0  0  0  0  0  0
    9.4939  -14.9290   29.0795 S   0  0  0  0  0  0  0  0  0  0  0  0
   10.6713  -15.8193   27.9978 C   0  0  0  0  0  0  0  0  0  0  0  0
   10.2485  -15.6316   26.5576 C   0  0  0  0  0  0  0  0  0  0  0  0
   11.2794  -16.2105   25.6071 C   0  0  2  0  0  0  0  0  0  0  0  0
   10.8501  -16.0821   24.2282 N   0  0  0  0  0  0  0  0  0  0  0  0
   11.3856  -17.6647   25.9031 C   0  0  0  0  0  0  0  0  0  0  0  0
   10.9162  -18.6335   25.0244 O   0  0  0  0  0  0  0  0  0  0  0  0
   11.9072  -18.0870   26.9667 O   0  0  0  0  0  0  0  0  0  0  0  0
  2  1  1  6
  2  3  1  0
  4  2  1  0
  5  4  1  0
  5  6  1  1
  7  8  2  0
  7  5  1  0
  9  7  1  0
 10  9  1  0
 10 11  1  1
 12 11  1  0
 12 13  2  0
 14 13  1  0
 15 20  2  0
 15 14  1  0
 16 15  1  0
 17 18  1  0
 17 16  2  0
 18 19  2  0
 19 20  1  0
 20 12  1  0
 21 10  1  0
 21 28  1  0
 22 21  2  0
 23 24  1  0
 25 24  1  0
 25 26  1  0
 27 26  1  1
 27 28  1  0
 27 29  1  0
 29 31  2  0
 29 30  1  0
M  END
$$$$
