LWM.pdb
     RDKit          3D

 31 32  0  0  1  0  0  0  0  0999 V2000
   10.1049  -19.1034   16.1512 C   0  0  0  0  0  0  0  0  0  0  0  0
   10.3875  -19.6932   17.5007 C   0  0  1  0  0  0  0  0  0  0  0  0
   11.2060  -20.9449   17.3265 C   0  0  0  0  0  0  0  0  0  0  0  0
   11.0077  -18.7201   18.4551 C   0  0  0  0  0  0  0  0  0  0  0  0
   10.6905  -19.1105   19.8669 C   0  0  2  0  0  0  0  0  0  0  0  0
    9.5362  -19.9855   19.9328 N   0  0  0  0  0  0  0  0  0  0  0  0
   10.5778  -17.9562   20.7723 C   0  0  0  0  0  0  0  0  0  0  0  0
   11.5378  -17.1463   20.8118 O   0  0  0  0  0  0  0  0  0  0  0  0
    9.4603  -17.6877   21.6085 N   0  0  0  0  0  0  0  0  0  0  0  0
    9.4037  -16.5531   22.4707 C   0  0  1  0  0  0  0  0  0  0  0  0
    7.9858  -16.0295   22.4784 C   0  0  0  0  0  0  0  0  0  0  0  0
    7.9216  -14.6429   23.0498 C   0  0  0  0  0  0  0  0  0  0  0  0
    8.4857  -13.4925   22.5384 C   0  0  0  0  0  0  0  0  0  0  0  0
    8.1993  -12.4572   23.3477 N   0  0  0  0  0  0  0  0  0  0  0  0
    7.4565  -12.8690   24.3954 C   0  0  0  0  0  0  0  0  0  0  0  0
    6.9171  -12.2104   25.4803 C   0  0  0  0  0  0  0  0  0  0  0  0
    6.1868  -12.9237   26.4046 C   0  0  0  0  0  0  0  0  0  0  0  0
    6.0201  -14.2904   26.2071 C   0  0  0  0  0  0  0  0  0  0  0  0
    6.5589  -14.9498   25.1230 C   0  0  0  0  0  0  0  0  0  0  0  0
    7.2845  -14.2363   24.2063 C   0  0  0  0  0  0  0  0  0  0  0  0
    9.9498  -16.7956   23.8145 C   0  0  0  0  0  0  0  0  0  0  0  0
    9.6641  -17.8827   24.4220 O   0  0  0  0  0  0  0  0  0  0  0  0
    9.6661  -12.7900   28.2273 C   0  0  0  0  0  0  0  0  0  0  0  0
   10.5421  -13.9667   29.3082 S   0  0  0  0  0  0  0  0  0  0  0  0
   11.0232  -15.3882   28.2609 C   0  0  0  0  0  0  0  0  0  0  0  0
   10.7076  -15.0604   26.8183 C   0  0  0  0  0  0  0  0  0  0  0  0
   11.1718  -16.1695   25.8932 C   0  0  2  0  0  0  0  0  0  0  0  0
   10.7954  -15.8972   24.5198 N   0  0  0  0  0  0  0  0  0  0  0  0
   10.4668  -17.4129   26.3061 C   0  0  0  0  0  0  0  0  0  0  0  0
    9.1250  -17.6316   26.0181 O   0  0  0  0  0  0  0  0  0  0  0  0
   11.0545  -18.3280   26.9377 O   0  0  0  0  0  0  0  0  0  0  0  0
  2  1  1  6
  2  3  1  0
  4  2  1  0
  5  4  1  0
  5  6  1  6
  7  8  2  0
  7  5  1  0
  9  7  1  0
 10  9  1  0
 10 11  1  1
 12 11  1  0
 12 13  2  0
 14 13  1  0
 15 20  2  0
 15 14  1  0
 16 15  1  0
 17 18  1  0
 17 16  2  0
 18 19  2  0
 19 20  1  0
 20 12  1  0
 21 10  1  0
 21 28  1  0
 22 21  2  0
 23 24  1  0
 25 24  1  0
 25 26  1  0
 27 26  1  1
 27 28  1  0
 27 29  1  0
 29 31  2  0
 29 30  1  0
M  END
$$$$
