LWM.pdb
     RDKit          3D

 31 32  0  0  1  0  0  0  0  0999 V2000
    7.1279  -12.3877   19.0013 C   0  0  0  0  0  0  0  0  0  0  0  0
    7.6455  -13.7570   19.3270 C   0  0  1  0  0  0  0  0  0  0  0  0
    8.4807  -14.2514   18.1757 C   0  0  0  0  0  0  0  0  0  0  0  0
    8.3651  -13.8225   20.6386 C   0  0  0  0  0  0  0  0  0  0  0  0
    8.7349  -15.2406   20.9525 C   0  0  2  0  0  0  0  0  0  0  0  0
    7.6658  -16.1593   20.6125 N   0  0  0  0  0  0  0  0  0  0  0  0
    9.2165  -15.4186   22.3313 C   0  0  0  0  0  0  0  0  0  0  0  0
   10.1527  -14.6788   22.7253 O   0  0  0  0  0  0  0  0  0  0  0  0
    8.7003  -16.3682   23.2544 N   0  0  0  0  0  0  0  0  0  0  0  0
    9.1223  -16.4213   24.6155 C   0  0  1  0  0  0  0  0  0  0  0  0
    7.9200  -16.7340   25.4765 C   0  0  0  0  0  0  0  0  0  0  0  0
    7.0910  -15.5062   25.7188 C   0  0  0  0  0  0  0  0  0  0  0  0
    5.7460  -15.3327   25.4660 C   0  0  0  0  0  0  0  0  0  0  0  0
    5.3819  -14.0879   25.8219 N   0  0  0  0  0  0  0  0  0  0  0  0
    6.4399  -13.4085   26.3099 C   0  0  0  0  0  0  0  0  0  0  0  0
    6.5886  -12.1277   26.7990 C   0  0  0  0  0  0  0  0  0  0  0  0
    7.8276  -11.7146   27.2356 C   0  0  0  0  0  0  0  0  0  0  0  0
    8.8888  -12.6111   27.1660 C   0  0  0  0  0  0  0  0  0  0  0  0
    8.7413  -13.8916   26.6773 C   0  0  0  0  0  0  0  0  0  0  0  0
    7.5072  -14.2981   26.2442 C   0  0  0  0  0  0  0  0  0  0  0  0
   10.2655  -17.3156   24.8525 C   0  0  0  0  0  0  0  0  0  0  0  0
   10.2348  -18.5088   24.3968 O   0  0  0  0  0  0  0  0  0  0  0  0
   15.8023  -14.9716   22.6140 C   0  0  0  0  0  0  0  0  0  0  0  0
   15.7089  -15.8688   24.1971 S   0  0  0  0  0  0  0  0  0  0  0  0
   14.0331  -16.5975   24.2930 C   0  0  0  0  0  0  0  0  0  0  0  0
   13.8674  -17.2648   25.6404 C   0  0  0  0  0  0  0  0  0  0  0  0
   12.5053  -17.9219   25.7594 C   0  0  2  0  0  0  0  0  0  0  0  0
   11.4403  -16.9569   25.5674 N   0  0  0  0  0  0  0  0  0  0  0  0
   12.3855  -18.4414   27.1484 C   0  0  0  0  0  0  0  0  0  0  0  0
   13.1534  -19.5044   27.6083 O   0  0  0  0  0  0  0  0  0  0  0  0
   11.5804  -17.9409   27.9749 O   0  0  0  0  0  0  0  0  0  0  0  0
  2  1  1  6
  2  3  1  0
  4  2  1  0
  5  4  1  0
  5  6  1  1
  7  8  2  0
  7  5  1  0
  9  7  1  0
 10  9  1  0
 10 11  1  1
 12 11  1  0
 12 13  2  0
 14 13  1  0
 15 20  2  0
 15 14  1  0
 16 15  1  0
 17 18  1  0
 17 16  2  0
 18 19  2  0
 19 20  1  0
 20 12  1  0
 21 10  1  0
 21 28  1  0
 22 21  2  0
 23 24  1  0
 25 24  1  0
 25 26  1  0
 27 26  1  1
 27 28  1  0
 27 29  1  0
 29 31  2  0
 29 30  1  0
M  END
$$$$
