LWM.pdb
     RDKit          3D

 31 32  0  0  1  0  0  0  0  0999 V2000
    8.6861  -11.9105   19.0692 C   0  0  0  0  0  0  0  0  0  0  0  0
    8.5922  -13.3982   19.2340 C   0  0  1  0  0  0  0  0  0  0  0  0
    7.3950  -13.9007   18.4715 C   0  0  0  0  0  0  0  0  0  0  0  0
    9.8558  -14.1158   18.8727 C   0  0  0  0  0  0  0  0  0  0  0  0
    9.8880  -15.4632   19.5284 C   0  0  2  0  0  0  0  0  0  0  0  0
    8.9148  -16.3652   18.9438 N   0  0  0  0  0  0  0  0  0  0  0  0
    9.7852  -15.3930   20.9944 C   0  0  0  0  0  0  0  0  0  0  0  0
   10.5864  -14.6401   21.6029 O   0  0  0  0  0  0  0  0  0  0  0  0
    8.8440  -16.1157   21.7768 N   0  0  0  0  0  0  0  0  0  0  0  0
    8.6650  -15.8794   23.1717 C   0  0  1  0  0  0  0  0  0  0  0  0
    7.3153  -16.4242   23.5791 C   0  0  0  0  0  0  0  0  0  0  0  0
    6.7138  -15.6121   24.6891 C   0  0  0  0  0  0  0  0  0  0  0  0
    5.9739  -16.0658   25.7614 C   0  0  0  0  0  0  0  0  0  0  0  0
    5.6173  -15.0222   26.5311 N   0  0  0  0  0  0  0  0  0  0  0  0
    6.0929  -13.8708   26.0142 C   0  0  0  0  0  0  0  0  0  0  0  0
    6.0055  -12.5546   26.4164 C   0  0  0  0  0  0  0  0  0  0  0  0
    6.6130  -11.5785   25.6583 C   0  0  0  0  0  0  0  0  0  0  0  0
    7.2959  -11.9601   24.5083 C   0  0  0  0  0  0  0  0  0  0  0  0
    7.3839  -13.2755   24.1054 C   0  0  0  0  0  0  0  0  0  0  0  0
    6.7782  -14.2429   24.8624 C   0  0  0  0  0  0  0  0  0  0  0  0
    9.7734  -16.3652   24.0074 C   0  0  0  0  0  0  0  0  0  0  0  0
   10.4751  -17.3550   23.6071 O   0  0  0  0  0  0  0  0  0  0  0  0
   11.1828  -14.5702   30.7386 C   0  0  0  0  0  0  0  0  0  0  0  0
   10.4966  -13.9291   29.1772 S   0  0  0  0  0  0  0  0  0  0  0  0
   10.2942  -15.3647   28.0605 C   0  0  0  0  0  0  0  0  0  0  0  0
   11.5559  -15.5282   27.2423 C   0  0  0  0  0  0  0  0  0  0  0  0
   11.2892  -16.3328   25.9842 C   0  0  2  0  0  0  0  0  0  0  0  0
   10.1446  -15.8118   25.2627 N   0  0  0  0  0  0  0  0  0  0  0  0
   10.9503  -17.7177   26.4094 C   0  0  0  0  0  0  0  0  0  0  0  0
   11.8993  -18.5781   26.9481 O   0  0  0  0  0  0  0  0  0  0  0  0
    9.7844  -18.1765   26.3008 O   0  0  0  0  0  0  0  0  0  0  0  0
  2  1  1  6
  2  3  1  0
  4  2  1  0
  5  4  1  0
  5  6  1  6
  7  8  2  0
  7  5  1  0
  9  7  1  0
 10  9  1  0
 10 11  1  1
 12 11  1  0
 12 13  2  0
 14 13  1  0
 15 20  2  0
 15 14  1  0
 16 15  1  0
 17 18  1  0
 17 16  2  0
 18 19  2  0
 19 20  1  0
 20 12  1  0
 21 10  1  0
 21 28  1  0
 22 21  2  0
 23 24  1  0
 25 24  1  0
 25 26  1  0
 27 26  1  1
 27 28  1  0
 27 29  1  0
 29 31  2  0
 29 30  1  0
M  END
$$$$
