LWM.pdb
     RDKit          3D

 31 32  0  0  1  0  0  0  0  0999 V2000
    8.7202  -12.0354   18.6941 C   0  0  0  0  0  0  0  0  0  0  0  0
    8.8076  -13.4291   19.2408 C   0  0  1  0  0  0  0  0  0  0  0  0
    7.6029  -14.2098   18.7865 C   0  0  0  0  0  0  0  0  0  0  0  0
   10.1001  -14.1129   18.9177 C   0  0  0  0  0  0  0  0  0  0  0  0
   10.1571  -15.4506   19.5912 C   0  0  2  0  0  0  0  0  0  0  0  0
    9.2612  -16.4029   18.9645 N   0  0  0  0  0  0  0  0  0  0  0  0
    9.9684  -15.3705   21.0481 C   0  0  0  0  0  0  0  0  0  0  0  0
   10.7741  -14.6652   21.7058 O   0  0  0  0  0  0  0  0  0  0  0  0
    8.9391  -16.0335   21.7701 N   0  0  0  0  0  0  0  0  0  0  0  0
    8.7439  -15.8480   23.1706 C   0  0  1  0  0  0  0  0  0  0  0  0
    7.3142  -16.2068   23.5051 C   0  0  0  0  0  0  0  0  0  0  0  0
    6.8861  -15.5822   24.8013 C   0  0  0  0  0  0  0  0  0  0  0  0
    6.4327  -16.2212   25.9367 C   0  0  0  0  0  0  0  0  0  0  0  0
    6.1502  -15.3063   26.8810 N   0  0  0  0  0  0  0  0  0  0  0  0
    6.3981  -14.0626   26.4217 C   0  0  0  0  0  0  0  0  0  0  0  0
    6.2752  -12.8111   26.9878 C   0  0  0  0  0  0  0  0  0  0  0  0
    6.6171  -11.7018   26.2467 C   0  0  0  0  0  0  0  0  0  0  0  0
    7.0762  -11.8875   24.9470 C   0  0  0  0  0  0  0  0  0  0  0  0
    7.1994  -13.1381   24.3802 C   0  0  0  0  0  0  0  0  0  0  0  0
    6.8582  -14.2384   25.1209 C   0  0  0  0  0  0  0  0  0  0  0  0
    9.7362  -16.5373   24.0090 C   0  0  0  0  0  0  0  0  0  0  0  0
   10.2928  -17.6028   23.5763 O   0  0  0  0  0  0  0  0  0  0  0  0
   10.4508  -13.9962   29.9328 C   0  0  0  0  0  0  0  0  0  0  0  0
   11.6913  -13.6844   28.6351 S   0  0  0  0  0  0  0  0  0  0  0  0
   11.1306  -14.5816   27.1420 C   0  0  0  0  0  0  0  0  0  0  0  0
   11.7557  -15.9591   27.1369 C   0  0  0  0  0  0  0  0  0  0  0  0
   11.2023  -16.8045   26.0054 C   0  0  2  0  0  0  0  0  0  0  0  0
   10.1438  -16.1078   25.3009 N   0  0  0  0  0  0  0  0  0  0  0  0
   10.6005  -18.0204   26.6162 C   0  0  0  0  0  0  0  0  0  0  0  0
   11.3770  -19.0243   27.1822 O   0  0  0  0  0  0  0  0  0  0  0  0
    9.3558  -18.1974   26.6491 O   0  0  0  0  0  0  0  0  0  0  0  0
  2  1  1  6
  2  3  1  0
  4  2  1  0
  5  4  1  0
  5  6  1  6
  7  8  2  0
  7  5  1  0
  9  7  1  0
 10  9  1  0
 10 11  1  1
 12 11  1  0
 12 13  2  0
 14 13  1  0
 15 20  2  0
 15 14  1  0
 16 15  1  0
 17 18  1  0
 17 16  2  0
 18 19  2  0
 19 20  1  0
 20 12  1  0
 21 10  1  0
 21 28  1  0
 22 21  2  0
 23 24  1  0
 25 24  1  0
 25 26  1  0
 27 26  1  1
 27 28  1  0
 27 29  1  0
 29 31  2  0
 29 30  1  0
M  END
$$$$
