LWM.pdb
     RDKit          3D

 31 32  0  0  1  0  0  0  0  0999 V2000
    7.3307  -12.7535   17.5868 C   0  0  0  0  0  0  0  0  0  0  0  0
    8.0081  -13.9955   18.0844 C   0  0  1  0  0  0  0  0  0  0  0  0
    8.9946  -14.4641   17.0478 C   0  0  0  0  0  0  0  0  0  0  0  0
    8.6218  -13.8335   19.4407 C   0  0  0  0  0  0  0  0  0  0  0  0
    9.1710  -15.1441   19.9171 C   0  0  2  0  0  0  0  0  0  0  0  0
    8.3644  -16.2591   19.4604 N   0  0  0  0  0  0  0  0  0  0  0  0
    9.4094  -15.1754   21.3686 C   0  0  0  0  0  0  0  0  0  0  0  0
   10.1737  -14.3053   21.8561 O   0  0  0  0  0  0  0  0  0  0  0  0
    8.8377  -16.1197   22.2640 N   0  0  0  0  0  0  0  0  0  0  0  0
    8.9017  -15.9683   23.6806 C   0  0  1  0  0  0  0  0  0  0  0  0
    7.7087  -16.6684   24.2900 C   0  0  0  0  0  0  0  0  0  0  0  0
    6.8288  -15.7009   25.0270 C   0  0  0  0  0  0  0  0  0  0  0  0
    5.6037  -15.9500   25.6103 C   0  0  0  0  0  0  0  0  0  0  0  0
    5.1381  -14.8196   26.1706 N   0  0  0  0  0  0  0  0  0  0  0  0
    6.0104  -13.8076   25.9858 C   0  0  0  0  0  0  0  0  0  0  0  0
    6.0006  -12.4799   26.3585 C   0  0  0  0  0  0  0  0  0  0  0  0
    7.0654  -11.6773   26.0142 C   0  0  0  0  0  0  0  0  0  0  0  0
    8.1169  -12.2404   25.2988 C   0  0  0  0  0  0  0  0  0  0  0  0
    8.1277  -13.5674   24.9257 C   0  0  0  0  0  0  0  0  0  0  0  0
    7.0667  -14.3619   25.2704 C   0  0  0  0  0  0  0  0  0  0  0  0
   10.1871  -16.3752   24.2679 C   0  0  0  0  0  0  0  0  0  0  0  0
   10.9531  -17.1645   23.6178 O   0  0  0  0  0  0  0  0  0  0  0  0
   11.3406  -13.2993   28.9588 C   0  0  0  0  0  0  0  0  0  0  0  0
   11.3360  -14.9237   29.7843 S   0  0  0  0  0  0  0  0  0  0  0  0
   11.2514  -16.1871   28.4631 C   0  0  0  0  0  0  0  0  0  0  0  0
   12.2614  -15.8409   27.3915 C   0  0  0  0  0  0  0  0  0  0  0  0
   11.9016  -16.4960   26.0714 C   0  0  2  0  0  0  0  0  0  0  0  0
   10.6680  -15.9531   25.5369 N   0  0  0  0  0  0  0  0  0  0  0  0
   11.6671  -17.9397   26.3443 C   0  0  0  0  0  0  0  0  0  0  0  0
   10.3885  -18.4783   26.4237 O   0  0  0  0  0  0  0  0  0  0  0  0
   12.6188  -18.7436   26.5167 O   0  0  0  0  0  0  0  0  0  0  0  0
  2  1  1  6
  2  3  1  0
  4  2  1  0
  5  4  1  0
  5  6  1  1
  7  8  2  0
  7  5  1  0
  9  7  1  0
 10  9  1  0
 10 11  1  1
 12 11  1  0
 12 13  2  0
 14 13  1  0
 15 20  2  0
 15 14  1  0
 16 15  1  0
 17 18  1  0
 17 16  2  0
 18 19  2  0
 19 20  1  0
 20 12  1  0
 21 10  1  0
 21 28  1  0
 22 21  2  0
 23 24  1  0
 25 24  1  0
 25 26  1  0
 27 26  1  1
 27 28  1  0
 27 29  1  0
 29 31  2  0
 29 30  1  0
M  END
$$$$
