LWM.pdb
     RDKit          3D

 31 32  0  0  1  0  0  0  0  0999 V2000
    8.2521  -12.4771   17.7377 C   0  0  0  0  0  0  0  0  0  0  0  0
    8.5665  -13.8368   18.2867 C   0  0  1  0  0  0  0  0  0  0  0  0
    7.9058  -14.8784   17.4230 C   0  0  0  0  0  0  0  0  0  0  0  0
   10.0330  -14.0777   18.4702 C   0  0  0  0  0  0  0  0  0  0  0  0
   10.2534  -15.3234   19.2739 C   0  0  2  0  0  0  0  0  0  0  0  0
    9.5515  -16.4574   18.7050 N   0  0  0  0  0  0  0  0  0  0  0  0
    9.9692  -15.1427   20.7061 C   0  0  0  0  0  0  0  0  0  0  0  0
   10.6495  -14.2948   21.3364 O   0  0  0  0  0  0  0  0  0  0  0  0
    8.9790  -15.8580   21.4329 N   0  0  0  0  0  0  0  0  0  0  0  0
    8.6071  -15.5117   22.7654 C   0  0  1  0  0  0  0  0  0  0  0  0
    7.1499  -15.8625   22.9608 C   0  0  0  0  0  0  0  0  0  0  0  0
    6.6562  -15.4058   24.3028 C   0  0  0  0  0  0  0  0  0  0  0  0
    6.1793  -16.1850   25.3365 C   0  0  0  0  0  0  0  0  0  0  0  0
    5.8357  -15.3949   26.3692 N   0  0  0  0  0  0  0  0  0  0  0  0
    6.0647  -14.1001   26.0689 C   0  0  0  0  0  0  0  0  0  0  0  0
    5.8850  -12.9274   26.7719 C   0  0  0  0  0  0  0  0  0  0  0  0
    6.2223  -11.7305   26.1800 C   0  0  0  0  0  0  0  0  0  0  0  0
    6.7346  -11.7505   24.8871 C   0  0  0  0  0  0  0  0  0  0  0  0
    6.9146  -12.9222   24.1834 C   0  0  0  0  0  0  0  0  0  0  0  0
    6.5778  -14.1101   24.7760 C   0  0  0  0  0  0  0  0  0  0  0  0
    9.4918  -16.0721   23.7978 C   0  0  0  0  0  0  0  0  0  0  0  0
   10.4211  -16.8803   23.4578 O   0  0  0  0  0  0  0  0  0  0  0  0
   12.4508  -13.6370   30.0757 C   0  0  0  0  0  0  0  0  0  0  0  0
   11.1852  -14.9426   29.9592 S   0  0  0  0  0  0  0  0  0  0  0  0
   11.4538  -15.7975   28.3636 C   0  0  0  0  0  0  0  0  0  0  0  0
   10.2727  -15.5245   27.4588 C   0  0  0  0  0  0  0  0  0  0  0  0
   10.5002  -16.1045   26.0757 C   0  0  2  0  0  0  0  0  0  0  0  0
    9.4008  -15.7837   25.1865 N   0  0  0  0  0  0  0  0  0  0  0  0
   10.5354  -17.5851   26.2181 C   0  0  0  0  0  0  0  0  0  0  0  0
    9.4006  -18.3245   26.5289 O   0  0  0  0  0  0  0  0  0  0  0  0
   11.5982  -18.2396   26.0632 O   0  0  0  0  0  0  0  0  0  0  0  0
  2  1  1  6
  2  3  1  0
  4  2  1  0
  5  4  1  0
  5  6  1  6
  7  8  2  0
  7  5  1  0
  9  7  1  0
 10  9  1  0
 10 11  1  1
 12 11  1  0
 12 13  2  0
 14 13  1  0
 15 20  2  0
 15 14  1  0
 16 15  1  0
 17 18  1  0
 17 16  2  0
 18 19  2  0
 19 20  1  0
 20 12  1  0
 21 10  1  0
 21 28  1  0
 22 21  2  0
 23 24  1  0
 25 24  1  0
 25 26  1  0
 27 26  1  1
 27 28  1  0
 27 29  1  0
 29 31  2  0
 29 30  1  0
M  END
$$$$
