LWM.pdb
     RDKit          3D

 31 32  0  0  1  0  0  0  0  0999 V2000
    7.5564  -12.7277   18.2674 C   0  0  0  0  0  0  0  0  0  0  0  0
    8.2023  -13.9933   18.7471 C   0  0  1  0  0  0  0  0  0  0  0  0
    8.8508  -14.6858   17.5778 C   0  0  0  0  0  0  0  0  0  0  0  0
    9.1427  -13.7817   19.8931 C   0  0  0  0  0  0  0  0  0  0  0  0
    9.5740  -15.1023   20.4555 C   0  0  2  0  0  0  0  0  0  0  0  0
    8.7942  -16.1960   19.9093 N   0  0  0  0  0  0  0  0  0  0  0  0
    9.6153  -15.1162   21.9262 C   0  0  0  0  0  0  0  0  0  0  0  0
   10.2874  -14.2244   22.5023 O   0  0  0  0  0  0  0  0  0  0  0  0
    8.9493  -16.0664   22.7471 N   0  0  0  0  0  0  0  0  0  0  0  0
    9.0092  -16.0240   24.1713 C   0  0  1  0  0  0  0  0  0  0  0  0
    7.7302  -16.6130   24.7208 C   0  0  0  0  0  0  0  0  0  0  0  0
    6.8284  -15.5428   25.2639 C   0  0  0  0  0  0  0  0  0  0  0  0
    5.5449  -15.6867   25.7486 C   0  0  0  0  0  0  0  0  0  0  0  0
    5.0787  -14.4875   26.1401 N   0  0  0  0  0  0  0  0  0  0  0  0
    6.0074  -13.5310   25.9361 C   0  0  0  0  0  0  0  0  0  0  0  0
    6.0206  -12.1712   26.1655 C   0  0  0  0  0  0  0  0  0  0  0  0
    7.1465  -11.4463   25.8441 C   0  0  0  0  0  0  0  0  0  0  0  0
    8.2346  -12.1179   25.2967 C   0  0  0  0  0  0  0  0  0  0  0  0
    8.2224  -13.4771   25.0670 C   0  0  0  0  0  0  0  0  0  0  0  0
    7.1005  -14.1940   25.3882 C   0  0  0  0  0  0  0  0  0  0  0  0
   10.2259  -16.6262   24.7367 C   0  0  0  0  0  0  0  0  0  0  0  0
   11.0945  -17.1408   23.9537 O   0  0  0  0  0  0  0  0  0  0  0  0
   10.8323  -14.2723   29.8289 C   0  0  0  0  0  0  0  0  0  0  0  0
   11.3086  -14.3156   28.0707 S   0  0  0  0  0  0  0  0  0  0  0  0
   12.6866  -15.5110   27.9263 C   0  0  0  0  0  0  0  0  0  0  0  0
   12.1222  -16.9138   27.9691 C   0  0  0  0  0  0  0  0  0  0  0  0
   11.7177  -17.3810   26.5836 C   0  0  2  0  0  0  0  0  0  0  0  0
   10.5304  -16.6877   26.1235 N   0  0  0  0  0  0  0  0  0  0  0  0
   11.3737  -18.8248   26.6875 C   0  0  0  0  0  0  0  0  0  0  0  0
   12.3479  -19.8148   26.7333 O   0  0  0  0  0  0  0  0  0  0  0  0
   10.1805  -19.2186   26.7389 O   0  0  0  0  0  0  0  0  0  0  0  0
  2  1  1  6
  2  3  1  0
  4  2  1  0
  5  4  1  0
  5  6  1  1
  7  8  2  0
  7  5  1  0
  9  7  1  0
 10  9  1  0
 10 11  1  1
 12 11  1  0
 12 13  2  0
 14 13  1  0
 15 20  2  0
 15 14  1  0
 16 15  1  0
 17 18  1  0
 17 16  2  0
 18 19  2  0
 19 20  1  0
 20 12  1  0
 21 10  1  0
 21 28  1  0
 22 21  2  0
 23 24  1  0
 25 24  1  0
 25 26  1  0
 27 26  1  1
 27 28  1  0
 27 29  1  0
 29 31  2  0
 29 30  1  0
M  END
$$$$
