LWM.pdb
     RDKit          3D

 31 32  0  0  1  0  0  0  0  0999 V2000
    8.0204  -13.0459   16.3215 C   0  0  0  0  0  0  0  0  0  0  0  0
    8.5877  -14.2546   17.0042 C   0  0  1  0  0  0  0  0  0  0  0  0
    9.4879  -14.9832   16.0419 C   0  0  0  0  0  0  0  0  0  0  0  0
    9.2591  -13.9404   18.3053 C   0  0  0  0  0  0  0  0  0  0  0  0
    9.6524  -15.2084   19.0010 C   0  0  2  0  0  0  0  0  0  0  0  0
    8.9512  -16.3554   18.4578 N   0  0  0  0  0  0  0  0  0  0  0  0
    9.5429  -15.1198   20.4655 C   0  0  0  0  0  0  0  0  0  0  0  0
   10.2628  -14.2769   21.0573 O   0  0  0  0  0  0  0  0  0  0  0  0
    8.6804  -15.9191   21.2639 N   0  0  0  0  0  0  0  0  0  0  0  0
    8.5026  -15.6943   22.6609 C   0  0  1  0  0  0  0  0  0  0  0  0
    7.0373  -15.8656   22.9895 C   0  0  0  0  0  0  0  0  0  0  0  0
    6.7419  -15.4348   24.3969 C   0  0  0  0  0  0  0  0  0  0  0  0
    6.4128  -16.2335   25.4724 C   0  0  0  0  0  0  0  0  0  0  0  0
    6.2238  -15.4636   26.5587 N   0  0  0  0  0  0  0  0  0  0  0  0
    6.4146  -14.1635   26.2543 C   0  0  0  0  0  0  0  0  0  0  0  0
    6.3430  -13.0048   26.9987 C   0  0  0  0  0  0  0  0  0  0  0  0
    6.5990  -11.7971   26.3884 C   0  0  0  0  0  0  0  0  0  0  0  0
    6.9221  -11.7923   25.0355 C   0  0  0  0  0  0  0  0  0  0  0  0
    6.9939  -12.9500   24.2906 C   0  0  0  0  0  0  0  0  0  0  0  0
    6.7385  -14.1488   24.9017 C   0  0  0  0  0  0  0  0  0  0  0  0
    9.3953  -16.4937   23.5134 C   0  0  0  0  0  0  0  0  0  0  0  0
    9.6881  -17.6890   23.1699 O   0  0  0  0  0  0  0  0  0  0  0  0
    9.5991  -13.8717   29.2774 C   0  0  0  0  0  0  0  0  0  0  0  0
   10.7449  -15.1448   28.6559 S   0  0  0  0  0  0  0  0  0  0  0  0
   10.9918  -14.8085   26.8741 C   0  0  0  0  0  0  0  0  0  0  0  0
   11.8601  -15.8994   26.2873 C   0  0  0  0  0  0  0  0  0  0  0  0
   11.0653  -16.7783   25.3401 C   0  0  2  0  0  0  0  0  0  0  0  0
    9.9803  -16.0382   24.7259 N   0  0  0  0  0  0  0  0  0  0  0  0
   10.4544  -17.8643   26.1531 C   0  0  0  0  0  0  0  0  0  0  0  0
   11.2235  -18.8195   26.8068 O   0  0  0  0  0  0  0  0  0  0  0  0
    9.2084  -17.9692   26.2876 O   0  0  0  0  0  0  0  0  0  0  0  0
  2  1  1  6
  2  3  1  0
  4  2  1  0
  5  4  1  0
  5  6  1  6
  7  8  2  0
  7  5  1  0
  9  7  1  0
 10  9  1  0
 10 11  1  1
 12 11  1  0
 12 13  2  0
 14 13  1  0
 15 20  2  0
 15 14  1  0
 16 15  1  0
 17 18  1  0
 17 16  2  0
 18 19  2  0
 19 20  1  0
 20 12  1  0
 21 10  1  0
 21 28  1  0
 22 21  2  0
 23 24  1  0
 25 24  1  0
 25 26  1  0
 27 26  1  1
 27 28  1  0
 27 29  1  0
 29 31  2  0
 29 30  1  0
M  END
$$$$
