ANP.pdb
     RDKit          3D

 21 21  0  0  1  0  0  0  0  0999 V2000
   21.4289  -12.1541  -19.0843 C   0  0  0  0  0  0  0  0  0  0  0  0
   22.3156  -11.3097  -18.1758 C   0  0  2  0  0  0  0  0  0  0  0  0
   22.7759  -12.0819  -17.0477 N   0  0  0  0  0  0  0  0  0  0  0  0
   21.5245  -10.1301  -17.7047 C   0  0  0  0  0  0  0  0  0  0  0  0
   21.1638   -9.2364  -18.5115 O   0  0  0  0  0  0  0  0  0  0  0  0
   18.6601   -6.8529  -15.1979 N   0  0  0  0  0  0  0  0  0  0  0  0
   18.4323   -8.1556  -14.6614 C   0  0  0  0  0  0  0  0  0  0  0  0
   17.4342   -8.4109  -13.9213 O   0  0  0  0  0  0  0  0  0  0  0  0
   19.3622   -9.2560  -14.9560 C   0  0  0  0  0  0  0  0  0  0  0  0
   20.4761   -8.8145  -15.9010 C   0  0  2  0  0  0  0  0  0  0  0  0
   21.1571   -9.9809  -16.3414 N   0  0  0  0  0  0  0  0  0  0  0  0
   21.2726   -7.7775  -15.2513 C   0  0  0  0  0  0  0  0  0  0  0  0
   22.1758   -8.2514  -14.4638 O   0  0  0  0  0  0  0  0  0  0  0  0
   21.1771   -6.3837  -15.3753 N   0  0  0  0  0  0  0  0  0  0  0  0
   20.2789   -5.4834  -16.0488 C   0  0  0  0  0  0  0  0  0  0  0  0
   21.3067   -4.7239  -16.9029 C   0  0  0  0  0  0  0  0  0  0  0  0
   22.2929   -4.3344  -15.7924 C   0  0  0  0  0  0  0  0  0  0  0  0
   22.1020   -5.4239  -14.7404 C   0  0  1  0  0  0  0  0  0  0  0  0
   21.5422   -4.9201  -13.4855 C   0  0  0  0  0  0  0  0  0  0  0  0
   20.3457   -5.1042  -13.1719 O   0  0  0  0  0  0  0  0  0  0  0  0
   22.3551   -4.2184  -12.6175 O   0  0  0  0  0  0  0  0  0  0  0  0
  2  4  1  0
  2  1  1  6
  3  2  1  0
  4  5  2  0
  7  6  1  0
  8  7  2  0
  9  7  1  0
 10  9  1  1
 11 10  1  0
 11  4  1  0
 12 14  1  0
 12 10  1  0
 13 12  2  0
 14 18  1  0
 15 16  1  0
 15 14  1  0
 16 17  1  0
 17 18  1  0
 18 19  1  1
 19 20  2  0
 19 21  1  0
M  END
$$$$
