ANP.pdb
     RDKit          3D

 21 21  0  0  1  0  0  0  0  0999 V2000
   27.0287  -20.2081  -13.8213 C   0  0  0  0  0  0  0  0  0  0  0  0
   27.4881  -21.0760  -12.6549 C   0  0  2  0  0  0  0  0  0  0  0  0
   26.8568  -22.3721  -12.7011 N   0  0  0  0  0  0  0  0  0  0  0  0
   27.1389  -20.3777  -11.3784 C   0  0  0  0  0  0  0  0  0  0  0  0
   27.4823  -19.1840  -11.1857 O   0  0  0  0  0  0  0  0  0  0  0  0
   23.2660  -21.2806  -10.5203 N   0  0  0  0  0  0  0  0  0  0  0  0
   23.7745  -20.3611   -9.5545 C   0  0  0  0  0  0  0  0  0  0  0  0
   23.3547  -19.1665   -9.4798 O   0  0  0  0  0  0  0  0  0  0  0  0
   24.8154  -20.7790   -8.6035 C   0  0  0  0  0  0  0  0  0  0  0  0
   26.2105  -20.4013   -9.0934 C   0  0  2  0  0  0  0  0  0  0  0  0
   26.4137  -21.0338  -10.3491 N   0  0  0  0  0  0  0  0  0  0  0  0
   27.1803  -20.6784   -8.0377 C   0  0  0  0  0  0  0  0  0  0  0  0
   27.8053  -21.7930   -8.2039 O   0  0  0  0  0  0  0  0  0  0  0  0
   27.5008  -19.9091   -6.9095 N   0  0  0  0  0  0  0  0  0  0  0  0
   27.0644  -18.6409   -6.3880 C   0  0  0  0  0  0  0  0  0  0  0  0
   28.4295  -17.9388   -6.3093 C   0  0  0  0  0  0  0  0  0  0  0  0
   29.1991  -19.0092   -5.5224 C   0  0  0  0  0  0  0  0  0  0  0  0
   28.4793  -20.3075   -5.8783 C   0  0  1  0  0  0  0  0  0  0  0  0
   27.8035  -20.9224   -4.7350 C   0  0  0  0  0  0  0  0  0  0  0  0
   26.5571  -20.9491   -4.6372 O   0  0  0  0  0  0  0  0  0  0  0  0
   28.5601  -21.4917   -3.7301 O   0  0  0  0  0  0  0  0  0  0  0  0
  2  4  1  0
  2  1  1  6
  3  2  1  0
  4  5  2  0
  7  6  1  0
  8  7  2  0
  9  7  1  0
 10  9  1  1
 11 10  1  0
 11  4  1  0
 12 14  1  0
 12 10  1  0
 13 12  2  0
 14 18  1  0
 15 16  1  0
 15 14  1  0
 16 17  1  0
 17 18  1  0
 18 19  1  1
 19 20  2  0
 19 21  1  0
M  END
$$$$
