ANP.pdb
     RDKit          3D

 21 21  0  0  1  0  0  0  0  0999 V2000
   20.4863  -12.2757  -17.8006 C   0  0  0  0  0  0  0  0  0  0  0  0
   20.2378  -11.7068  -16.4080 C   0  0  2  0  0  0  0  0  0  0  0  0
   19.1740  -12.4207  -15.7453 N   0  0  0  0  0  0  0  0  0  0  0  0
   19.8811  -10.2599  -16.5439 C   0  0  0  0  0  0  0  0  0  0  0  0
   19.0098   -9.8891  -17.3705 O   0  0  0  0  0  0  0  0  0  0  0  0
   18.5854   -5.5643  -15.7715 N   0  0  0  0  0  0  0  0  0  0  0  0
   17.9114   -6.6946  -15.2193 C   0  0  0  0  0  0  0  0  0  0  0  0
   16.7288   -6.6155  -14.7675 O   0  0  0  0  0  0  0  0  0  0  0  0
   18.5789   -8.0035  -15.1577 C   0  0  0  0  0  0  0  0  0  0  0  0
   19.9975   -7.9393  -15.7166 C   0  0  2  0  0  0  0  0  0  0  0  0
   20.5092   -9.2641  -15.7504 N   0  0  0  0  0  0  0  0  0  0  0  0
   20.7617   -6.9435  -14.9706 C   0  0  0  0  0  0  0  0  0  0  0  0
   21.0443   -7.3171  -13.7701 O   0  0  0  0  0  0  0  0  0  0  0  0
   21.2071   -5.6801  -15.3858 N   0  0  0  0  0  0  0  0  0  0  0  0
   20.9228   -4.8203  -16.5042 C   0  0  0  0  0  0  0  0  0  0  0  0
   22.3532   -4.6576  -17.0429 C   0  0  0  0  0  0  0  0  0  0  0  0
   23.0467   -4.2284  -15.7421 C   0  0  0  0  0  0  0  0  0  0  0  0
   22.1861   -4.8565  -14.6489 C   0  0  1  0  0  0  0  0  0  0  0  0
   21.5039   -3.8667  -13.8141 C   0  0  0  0  0  0  0  0  0  0  0  0
   22.1239   -3.1375  -13.0093 O   0  0  0  0  0  0  0  0  0  0  0  0
   20.1335   -3.7298  -13.9132 O   0  0  0  0  0  0  0  0  0  0  0  0
  2  4  1  0
  2  1  1  6
  3  2  1  0
  4  5  2  0
  7  6  1  0
  8  7  2  0
  9  7  1  0
 10  9  1  1
 11 10  1  0
 11  4  1  0
 12 14  1  0
 12 10  1  0
 13 12  2  0
 14 18  1  0
 15 16  1  0
 15 14  1  0
 16 17  1  0
 17 18  1  0
 18 19  1  6
 19 20  2  0
 19 21  1  0
M  END
$$$$
