ANP.pdb
     RDKit          3D

 21 21  0  0  1  0  0  0  0  0999 V2000
   18.9298  -12.9841  -15.3164 C   0  0  0  0  0  0  0  0  0  0  0  0
   17.6706  -12.1249  -15.3434 C   0  0  2  0  0  0  0  0  0  0  0  0
   16.7042  -12.6614  -16.2702 N   0  0  0  0  0  0  0  0  0  0  0  0
   18.0536  -10.7353  -15.7449 C   0  0  0  0  0  0  0  0  0  0  0  0
   18.5927  -10.5151  -16.8587 O   0  0  0  0  0  0  0  0  0  0  0  0
   15.8791   -7.0372  -17.0428 N   0  0  0  0  0  0  0  0  0  0  0  0
   15.9496   -7.5543  -15.7145 C   0  0  0  0  0  0  0  0  0  0  0  0
   14.9926   -8.2068  -15.1972 O   0  0  0  0  0  0  0  0  0  0  0  0
   17.1522   -7.3425  -14.8952 C   0  0  0  0  0  0  0  0  0  0  0  0
   18.2611   -8.3263  -15.2575 C   0  0  2  0  0  0  0  0  0  0  0  0
   17.8232   -9.6264  -14.8885 N   0  0  0  0  0  0  0  0  0  0  0  0
   19.5221   -7.8569  -14.6906 C   0  0  0  0  0  0  0  0  0  0  0  0
   19.7835   -8.3737  -13.5394 O   0  0  0  0  0  0  0  0  0  0  0  0
   20.4461   -6.9475  -15.2258 N   0  0  0  0  0  0  0  0  0  0  0  0
   20.4563   -6.0570  -16.3562 C   0  0  0  0  0  0  0  0  0  0  0  0
   21.7213   -6.5810  -17.0546 C   0  0  0  0  0  0  0  0  0  0  0  0
   22.6888   -6.5213  -15.8640 C   0  0  0  0  0  0  0  0  0  0  0  0
   21.7772   -6.6733  -14.6490 C   0  0  1  0  0  0  0  0  0  0  0  0
   21.7384   -5.4776  -13.8059 C   0  0  0  0  0  0  0  0  0  0  0  0
   20.7794   -4.6756  -13.8362 O   0  0  0  0  0  0  0  0  0  0  0  0
   22.7905   -5.2216  -12.9491 O   0  0  0  0  0  0  0  0  0  0  0  0
  2  4  1  0
  2  1  1  6
  3  2  1  0
  4  5  2  0
  7  6  1  0
  8  7  2  0
  9  7  1  0
 10  9  1  1
 11 10  1  0
 11  4  1  0
 12 14  1  0
 12 10  1  0
 13 12  2  0
 14 18  1  0
 15 16  1  0
 15 14  1  0
 16 17  1  0
 17 18  1  0
 18 19  1  6
 19 20  2  0
 19 21  1  0
M  END
$$$$
