ANP.pdb
     RDKit          3D

 21 21  0  0  1  0  0  0  0  0999 V2000
   18.7155  -12.2230  -18.9649 C   0  0  0  0  0  0  0  0  0  0  0  0
   19.6354  -11.8193  -17.8179 C   0  0  2  0  0  0  0  0  0  0  0  0
   19.6269  -12.8192  -16.7782 N   0  0  0  0  0  0  0  0  0  0  0  0
   19.1667  -10.5064  -17.2741 C   0  0  0  0  0  0  0  0  0  0  0  0
   17.9451  -10.2106  -17.2765 O   0  0  0  0  0  0  0  0  0  0  0  0
   20.9283   -9.4358  -14.0519 N   0  0  0  0  0  0  0  0  0  0  0  0
   19.5458   -9.1289  -13.8749 C   0  0  0  0  0  0  0  0  0  0  0  0
   18.9653   -9.2710  -12.7560 O   0  0  0  0  0  0  0  0  0  0  0  0
   18.7427   -8.6312  -15.0016 C   0  0  0  0  0  0  0  0  0  0  0  0
   19.6102   -8.3218  -16.2185 C   0  0  2  0  0  0  0  0  0  0  0  0
   20.0781   -9.5572  -16.7411 N   0  0  0  0  0  0  0  0  0  0  0  0
   20.6127   -7.3257  -15.8514 C   0  0  0  0  0  0  0  0  0  0  0  0
   21.8124   -7.7959  -15.8369 O   0  0  0  0  0  0  0  0  0  0  0  0
   20.4349   -5.9732  -15.5253 N   0  0  0  0  0  0  0  0  0  0  0  0
   19.2969   -5.1357  -15.2523 C   0  0  0  0  0  0  0  0  0  0  0  0
   19.5389   -4.0578  -16.3211 C   0  0  0  0  0  0  0  0  0  0  0  0
   20.9977   -3.7171  -15.9851 C   0  0  0  0  0  0  0  0  0  0  0  0
   21.5352   -5.0026  -15.3615 C   0  0  1  0  0  0  0  0  0  0  0  0
   21.8862   -4.8534  -13.9485 C   0  0  0  0  0  0  0  0  0  0  0  0
   21.1926   -5.3542  -13.0364 O   0  0  0  0  0  0  0  0  0  0  0  0
   23.0164   -4.1381  -13.6059 O   0  0  0  0  0  0  0  0  0  0  0  0
  2  4  1  0
  2  1  1  6
  3  2  1  0
  4  5  2  0
  7  6  1  0
  8  7  2  0
  9  7  1  0
 10  9  1  1
 11 10  1  0
 11  4  1  0
 12 14  1  0
 12 10  1  0
 13 12  2  0
 14 18  1  0
 15 16  1  0
 15 14  1  0
 16 17  1  0
 17 18  1  0
 18 19  1  1
 19 20  2  0
 19 21  1  0
M  END
$$$$
