ANP.pdb
     RDKit          3D

 21 21  0  0  1  0  0  0  0  0999 V2000
   20.5133  -12.8739  -15.6179 C   0  0  0  0  0  0  0  0  0  0  0  0
   19.2170  -12.3216  -16.2003 C   0  0  2  0  0  0  0  0  0  0  0  0
   18.9147  -12.9490  -17.4635 N   0  0  0  0  0  0  0  0  0  0  0  0
   19.3707  -10.8443  -16.3822 C   0  0  0  0  0  0  0  0  0  0  0  0
   20.0565  -10.3827  -17.3289 O   0  0  0  0  0  0  0  0  0  0  0  0
   15.3870   -8.8148  -15.3153 N   0  0  0  0  0  0  0  0  0  0  0  0
   16.5024   -8.1806  -15.9401 C   0  0  0  0  0  0  0  0  0  0  0  0
   16.5120   -7.9087  -17.1790 O   0  0  0  0  0  0  0  0  0  0  0  0
   17.6906   -7.8183  -15.1531 C   0  0  0  0  0  0  0  0  0  0  0  0
   18.9430   -8.5229  -15.6669 C   0  0  2  0  0  0  0  0  0  0  0  0
   18.7523   -9.9206  -15.4989 N   0  0  0  0  0  0  0  0  0  0  0  0
   20.1194   -7.9260  -15.0410 C   0  0  0  0  0  0  0  0  0  0  0  0
   20.5246   -8.5737  -14.0033 O   0  0  0  0  0  0  0  0  0  0  0  0
   20.8329   -6.7786  -15.4174 N   0  0  0  0  0  0  0  0  0  0  0  0
   20.6972   -5.7945  -16.4586 C   0  0  0  0  0  0  0  0  0  0  0  0
   22.0869   -5.9395  -17.0991 C   0  0  0  0  0  0  0  0  0  0  0  0
   22.9452   -5.7876  -15.8351 C   0  0  0  0  0  0  0  0  0  0  0  0
   22.0281   -6.2711  -14.7147 C   0  0  1  0  0  0  0  0  0  0  0  0
   21.6627   -5.2121  -13.7730 C   0  0  0  0  0  0  0  0  0  0  0  0
   20.5816   -4.5899  -13.8615 O   0  0  0  0  0  0  0  0  0  0  0  0
   22.5349   -4.8849  -12.7538 O   0  0  0  0  0  0  0  0  0  0  0  0
  2  4  1  0
  2  1  1  6
  3  2  1  0
  4  5  2  0
  7  6  1  0
  8  7  2  0
  9  7  1  0
 10  9  1  1
 11 10  1  0
 11  4  1  0
 12 14  1  0
 12 10  1  0
 13 12  2  0
 14 18  1  0
 15 16  1  0
 15 14  1  0
 16 17  1  0
 17 18  1  0
 18 19  1  1
 19 20  2  0
 19 21  1  0
M  END
$$$$
