ANP.pdb
     RDKit          3D

 21 21  0  0  1  0  0  0  0  0999 V2000
   23.1670  -20.3575   -9.8215 C   0  0  0  0  0  0  0  0  0  0  0  0
   24.2433  -20.6267  -10.8673 C   0  0  2  0  0  0  0  0  0  0  0  0
   23.7924  -21.6052  -11.8265 N   0  0  0  0  0  0  0  0  0  0  0  0
   25.4713  -21.1184  -10.1678 C   0  0  0  0  0  0  0  0  0  0  0  0
   25.4509  -22.1923   -9.5150 O   0  0  0  0  0  0  0  0  0  0  0  0
   28.5000  -21.5821  -11.8823 N   0  0  0  0  0  0  0  0  0  0  0  0
   29.3404  -20.6056  -11.2683 C   0  0  0  0  0  0  0  0  0  0  0  0
   30.3665  -20.1414  -11.8520 O   0  0  0  0  0  0  0  0  0  0  0  0
   29.0357  -20.1015   -9.9209 C   0  0  0  0  0  0  0  0  0  0  0  0
   27.7685  -20.7365   -9.3551 C   0  0  2  0  0  0  0  0  0  0  0  0
   26.6920  -20.3949  -10.2169 N   0  0  0  0  0  0  0  0  0  0  0  0
   27.6402  -20.3763   -7.9459 C   0  0  0  0  0  0  0  0  0  0  0  0
   26.4749  -19.9160   -7.6448 O   0  0  0  0  0  0  0  0  0  0  0  0
   28.5940  -20.4666   -6.9216 N   0  0  0  0  0  0  0  0  0  0  0  0
   29.9972  -20.7809   -6.8655 C   0  0  0  0  0  0  0  0  0  0  0  0
   29.9348  -21.9500   -5.8696 C   0  0  0  0  0  0  0  0  0  0  0  0
   29.1290  -21.2668   -4.7555 C   0  0  0  0  0  0  0  0  0  0  0  0
   28.3136  -20.2093   -5.4950 C   0  0  1  0  0  0  0  0  0  0  0  0
   28.6850  -18.8404   -5.1344 C   0  0  0  0  0  0  0  0  0  0  0  0
   29.3332  -18.1031   -5.9090 O   0  0  0  0  0  0  0  0  0  0  0  0
   28.3117  -18.3423   -3.9019 O   0  0  0  0  0  0  0  0  0  0  0  0
  2  4  1  0
  2  1  1  1
  3  2  1  0
  4  5  2  0
  7  6  1  0
  8  7  2  0
  9  7  1  0
 10  9  1  6
 11 10  1  0
 11  4  1  0
 12 14  1  0
 12 10  1  0
 13 12  2  0
 14 18  1  0
 15 16  1  0
 15 14  1  0
 16 17  1  0
 17 18  1  0
 18 19  1  1
 19 20  2  0
 19 21  1  0
M  END
$$$$
