ANP.pdb
     RDKit          3D

 21 21  0  0  1  0  0  0  0  0999 V2000
   15.8436  -13.6324  -16.2381 C   0  0  0  0  0  0  0  0  0  0  0  0
   17.0227  -12.6762  -16.3798 C   0  0  2  0  0  0  0  0  0  0  0  0
   18.2044  -13.2247  -15.7606 N   0  0  0  0  0  0  0  0  0  0  0  0
   16.6588  -11.3761  -15.7345 C   0  0  0  0  0  0  0  0  0  0  0  0
   15.7476  -10.6552  -16.2139 O   0  0  0  0  0  0  0  0  0  0  0  0
   15.8938   -7.7220  -12.3120 N   0  0  0  0  0  0  0  0  0  0  0  0
   16.6547   -8.7451  -11.6706 C   0  0  0  0  0  0  0  0  0  0  0  0
   16.8035   -8.7805  -10.4114 O   0  0  0  0  0  0  0  0  0  0  0  0
   17.2973   -9.8038  -12.4634 C   0  0  0  0  0  0  0  0  0  0  0  0
   16.9271   -9.7048  -13.9406 C   0  0  2  0  0  0  0  0  0  0  0  0
   17.3245  -10.9158  -14.5680 N   0  0  0  0  0  0  0  0  0  0  0  0
   17.4608   -8.4599  -14.4859 C   0  0  0  0  0  0  0  0  0  0  0  0
   18.7144   -8.5303  -14.7758 O   0  0  0  0  0  0  0  0  0  0  0  0
   16.8006   -7.2453  -14.7224 N   0  0  0  0  0  0  0  0  0  0  0  0
   15.4715   -6.7485  -14.4825 C   0  0  0  0  0  0  0  0  0  0  0  0
   15.1089   -6.3479  -15.9215 C   0  0  0  0  0  0  0  0  0  0  0  0
   16.3384   -5.4861  -16.2423 C   0  0  0  0  0  0  0  0  0  0  0  0
   17.4283   -6.0609  -15.3412 C   0  0  1  0  0  0  0  0  0  0  0  0
   17.8812   -5.1208  -14.3149 C   0  0  0  0  0  0  0  0  0  0  0  0
   18.4982   -4.0718  -14.6023 O   0  0  0  0  0  0  0  0  0  0  0  0
   17.6226   -5.3958  -12.9867 O   0  0  0  0  0  0  0  0  0  0  0  0
  2  4  1  0
  2  1  1  1
  3  2  1  0
  4  5  2  0
  7  6  1  0
  8  7  2  0
  9  7  1  0
 10  9  1  1
 11 10  1  0
 11  4  1  0
 12 14  1  0
 12 10  1  0
 13 12  2  0
 14 18  1  0
 15 16  1  0
 15 14  1  0
 16 17  1  0
 17 18  1  0
 18 19  1  1
 19 20  2  0
 19 21  1  0
M  END
$$$$
