ANP.pdb
     RDKit          3D

 21 21  0  0  1  0  0  0  0  0999 V2000
   26.0519  -13.7063  -15.7521 C   0  0  0  0  0  0  0  0  0  0  0  0
   24.8292  -14.2970  -16.4454 C   0  0  2  0  0  0  0  0  0  0  0  0
   25.2150  -15.0358  -17.6227 N   0  0  0  0  0  0  0  0  0  0  0  0
   23.9087  -13.1776  -16.8179 C   0  0  0  0  0  0  0  0  0  0  0  0
   24.2388  -12.3411  -17.6960 O   0  0  0  0  0  0  0  0  0  0  0  0
   20.6372  -13.8886  -18.1228 N   0  0  0  0  0  0  0  0  0  0  0  0
   19.8309  -13.3556  -17.0727 C   0  0  0  0  0  0  0  0  0  0  0  0
   18.6401  -13.7464  -16.8773 O   0  0  0  0  0  0  0  0  0  0  0  0
   20.3661  -12.3227  -16.1732 C   0  0  0  0  0  0  0  0  0  0  0  0
   21.7947  -11.9365  -16.5458 C   0  0  2  0  0  0  0  0  0  0  0  0
   22.6410  -13.0231  -16.1974 N   0  0  0  0  0  0  0  0  0  0  0  0
   22.1047  -10.6322  -15.9673 C   0  0  0  0  0  0  0  0  0  0  0  0
   22.8685  -10.7058  -14.9320 O   0  0  0  0  0  0  0  0  0  0  0  0
   21.6880   -9.3598  -16.3852 N   0  0  0  0  0  0  0  0  0  0  0  0
   20.8026   -8.8659  -17.4064 C   0  0  0  0  0  0  0  0  0  0  0  0
   21.7887   -7.9479  -18.1462 C   0  0  0  0  0  0  0  0  0  0  0  0
   22.3038   -7.1406  -16.9461 C   0  0  0  0  0  0  0  0  0  0  0  0
   22.1263   -8.0930  -15.7663 C   0  0  1  0  0  0  0  0  0  0  0  0
   21.1389   -7.6250  -14.7928 C   0  0  0  0  0  0  0  0  0  0  0  0
   19.9813   -8.0957  -14.7436 O   0  0  0  0  0  0  0  0  0  0  0  0
   21.4902   -6.6330  -13.8989 O   0  0  0  0  0  0  0  0  0  0  0  0
  2  4  1  0
  2  1  1  6
  3  2  1  0
  4  5  2  0
  7  6  1  0
  8  7  2  0
  9  7  1  0
 10  9  1  1
 11 10  1  0
 11  4  1  0
 12 14  1  0
 12 10  1  0
 13 12  2  0
 14 18  1  0
 15 16  1  0
 15 14  1  0
 16 17  1  0
 17 18  1  0
 18 19  1  1
 19 20  2  0
 19 21  1  0
M  END
$$$$
