ANP.pdb
     RDKit          3D

 21 21  0  0  1  0  0  0  0  0999 V2000
   19.4962  -18.5994  -14.8252 C   0  0  0  0  0  0  0  0  0  0  0  0
   20.4611  -19.5641  -15.5057 C   0  0  2  0  0  0  0  0  0  0  0  0
   20.0629  -20.9318  -15.2793 N   0  0  0  0  0  0  0  0  0  0  0  0
   21.8328  -19.3288  -14.9558 C   0  0  0  0  0  0  0  0  0  0  0  0
   22.3575  -18.1878  -15.0077 O   0  0  0  0  0  0  0  0  0  0  0  0
   22.2658  -21.7286  -11.2978 N   0  0  0  0  0  0  0  0  0  0  0  0
   23.3158  -20.8218  -11.6327 C   0  0  0  0  0  0  0  0  0  0  0  0
   23.5217  -19.7600  -10.9700 O   0  0  0  0  0  0  0  0  0  0  0  0
   24.2029  -21.0972  -12.7727 C   0  0  0  0  0  0  0  0  0  0  0  0
   23.9230  -20.1594  -13.9436 C   0  0  2  0  0  0  0  0  0  0  0  0
   22.5828  -20.3776  -14.3613 N   0  0  0  0  0  0  0  0  0  0  0  0
   24.9727  -20.3182  -14.9461 C   0  0  0  0  0  0  0  0  0  0  0  0
   24.5644  -20.9049  -16.0184 O   0  0  0  0  0  0  0  0  0  0  0  0
   26.3177  -19.9256  -14.8854 N   0  0  0  0  0  0  0  0  0  0  0  0
   27.1619  -19.3469  -13.8738 C   0  0  0  0  0  0  0  0  0  0  0  0
   27.6250  -18.0988  -14.6422 C   0  0  0  0  0  0  0  0  0  0  0  0
   28.1137  -18.7822  -15.9274 C   0  0  0  0  0  0  0  0  0  0  0  0
   27.2766  -20.0566  -16.0004 C   0  0  1  0  0  0  0  0  0  0  0  0
   28.0724  -21.2765  -15.8566 C   0  0  0  0  0  0  0  0  0  0  0  0
   28.0553  -21.9599  -14.8095 O   0  0  0  0  0  0  0  0  0  0  0  0
   28.8689  -21.6901  -16.9059 O   0  0  0  0  0  0  0  0  0  0  0  0
  2  4  1  0
  2  1  1  1
  3  2  1  0
  4  5  2  0
  7  6  1  0
  8  7  2  0
  9  7  1  0
 10  9  1  1
 11 10  1  0
 11  4  1  0
 12 14  1  0
 12 10  1  0
 13 12  2  0
 14 18  1  0
 15 16  1  0
 15 14  1  0
 16 17  1  0
 17 18  1  0
 18 19  1  1
 19 20  2  0
 19 21  1  0
M  END
$$$$
