ANP.pdb
     RDKit          3D

 21 21  0  0  1  0  0  0  0  0999 V2000
   26.8999  -20.8688  -13.7114 C   0  0  0  0  0  0  0  0  0  0  0  0
   27.2658  -21.6274  -12.4405 C   0  0  2  0  0  0  0  0  0  0  0  0
   26.4891  -22.8374  -12.3246 N   0  0  0  0  0  0  0  0  0  0  0  0
   27.0097  -20.7360  -11.2662 C   0  0  0  0  0  0  0  0  0  0  0  0
   27.4968  -19.5782  -11.2217 O   0  0  0  0  0  0  0  0  0  0  0  0
   24.1462  -19.4963  -10.7415 N   0  0  0  0  0  0  0  0  0  0  0  0
   23.7049  -19.9831   -9.4746 C   0  0  0  0  0  0  0  0  0  0  0  0
   22.4774  -20.0061   -9.1555 O   0  0  0  0  0  0  0  0  0  0  0  0
   24.6755  -20.4799   -8.4879 C   0  0  0  0  0  0  0  0  0  0  0  0
   26.1084  -20.3654   -9.0004 C   0  0  2  0  0  0  0  0  0  0  0  0
   26.2141  -21.1637  -10.1707 N   0  0  0  0  0  0  0  0  0  0  0  0
   27.0327  -20.6519   -7.9069 C   0  0  0  0  0  0  0  0  0  0  0  0
   27.4699  -21.8641   -7.9178 O   0  0  0  0  0  0  0  0  0  0  0  0
   27.4836  -19.8016   -6.8867 N   0  0  0  0  0  0  0  0  0  0  0  0
   27.2647  -18.4211   -6.5446 C   0  0  0  0  0  0  0  0  0  0  0  0
   28.7268  -17.9469   -6.5410 C   0  0  0  0  0  0  0  0  0  0  0  0
   29.3174  -19.0137   -5.6080 C   0  0  0  0  0  0  0  0  0  0  0  0
   28.3921  -20.2130   -5.7981 C   0  0  1  0  0  0  0  0  0  0  0  0
   27.6340  -20.5512   -4.5928 C   0  0  0  0  0  0  0  0  0  0  0  0
   28.1857  -21.0137   -3.5702 O   0  0  0  0  0  0  0  0  0  0  0  0
   26.2671  -20.3565   -4.5785 O   0  0  0  0  0  0  0  0  0  0  0  0
  2  4  1  0
  2  1  1  6
  3  2  1  0
  4  5  2  0
  7  6  1  0
  8  7  2  0
  9  7  1  0
 10  9  1  1
 11 10  1  0
 11  4  1  0
 12 14  1  0
 12 10  1  0
 13 12  2  0
 14 18  1  0
 15 16  1  0
 15 14  1  0
 16 17  1  0
 17 18  1  0
 18 19  1  1
 19 20  2  0
 19 21  1  0
M  END
$$$$
