ANP.pdb
     RDKit          3D

 21 21  0  0  1  0  0  0  0  0999 V2000
   19.3151  -11.5384  -18.7954 C   0  0  0  0  0  0  0  0  0  0  0  0
   20.5872  -10.7996  -18.3945 C   0  0  2  0  0  0  0  0  0  0  0  0
   21.5167  -11.6935  -17.7484 N   0  0  0  0  0  0  0  0  0  0  0  0
   20.2157   -9.6846  -17.4683 C   0  0  0  0  0  0  0  0  0  0  0  0
   19.5014   -8.7305  -17.8673 O   0  0  0  0  0  0  0  0  0  0  0  0
   19.1229   -7.0083  -13.3102 N   0  0  0  0  0  0  0  0  0  0  0  0
   19.7788   -8.1913  -12.8551 C   0  0  0  0  0  0  0  0  0  0  0  0
   19.8523   -8.4857  -11.6235 O   0  0  0  0  0  0  0  0  0  0  0  0
   20.3973   -9.1171  -13.8158 C   0  0  0  0  0  0  0  0  0  0  0  0
   20.2701   -8.6093  -15.2492 C   0  0  2  0  0  0  0  0  0  0  0  0
   20.6536   -9.6661  -16.1178 N   0  0  0  0  0  0  0  0  0  0  0  0
   20.9876   -7.3438  -15.3747 C   0  0  0  0  0  0  0  0  0  0  0  0
   22.2473   -7.4958  -15.5994 O   0  0  0  0  0  0  0  0  0  0  0  0
   20.4914   -6.0351  -15.2833 N   0  0  0  0  0  0  0  0  0  0  0  0
   19.2020   -5.4544  -15.0166 C   0  0  0  0  0  0  0  0  0  0  0  0
   19.0614   -4.6040  -16.2893 C   0  0  0  0  0  0  0  0  0  0  0  0
   20.4039   -3.8618  -16.2254 C   0  0  0  0  0  0  0  0  0  0  0  0
   21.3099   -4.8183  -15.4543 C   0  0  1  0  0  0  0  0  0  0  0  0
   21.7296   -4.2914  -14.1551 C   0  0  0  0  0  0  0  0  0  0  0  0
   22.5158   -3.3241  -14.0543 O   0  0  0  0  0  0  0  0  0  0  0  0
   21.2465   -4.8766  -13.0015 O   0  0  0  0  0  0  0  0  0  0  0  0
  2  4  1  0
  2  1  1  1
  3  2  1  0
  4  5  2  0
  7  6  1  0
  8  7  2  0
  9  7  1  0
 10  9  1  1
 11 10  1  0
 11  4  1  0
 12 14  1  0
 12 10  1  0
 13 12  2  0
 14 18  1  0
 15 16  1  0
 15 14  1  0
 16 17  1  0
 17 18  1  0
 18 19  1  1
 19 20  2  0
 19 21  1  0
M  END
$$$$
