ANP.pdb
     RDKit          3D

 21 21  0  0  1  0  0  0  0  0999 V2000
   12.4887  -11.0616  -13.3348 C   0  0  0  0  0  0  0  0  0  0  0  0
   13.9664  -11.3982  -13.5012 C   0  0  2  0  0  0  0  0  0  0  0  0
   14.3772  -12.3912  -12.5390 N   0  0  0  0  0  0  0  0  0  0  0  0
   14.7616  -10.1438  -13.3189 C   0  0  0  0  0  0  0  0  0  0  0  0
   14.5911   -9.1598  -14.0821 O   0  0  0  0  0  0  0  0  0  0  0  0
   15.6409   -6.6620  -10.6257 N   0  0  0  0  0  0  0  0  0  0  0  0
   16.4619   -7.6239   -9.9642 C   0  0  0  0  0  0  0  0  0  0  0  0
   16.7583   -7.5207   -8.7352 O   0  0  0  0  0  0  0  0  0  0  0  0
   16.9955   -8.7800  -10.6998 C   0  0  0  0  0  0  0  0  0  0  0  0
   16.4755   -8.8241  -12.1339 C   0  0  2  0  0  0  0  0  0  0  0  0
   15.7282  -10.0227  -12.2860 N   0  0  0  0  0  0  0  0  0  0  0  0
   17.5881   -8.6056  -13.0539 C   0  0  0  0  0  0  0  0  0  0  0  0
   18.2085   -9.6913  -13.3654 O   0  0  0  0  0  0  0  0  0  0  0  0
   18.0452   -7.4050  -13.6166 N   0  0  0  0  0  0  0  0  0  0  0  0
   17.5849   -6.0415  -13.6123 C   0  0  0  0  0  0  0  0  0  0  0  0
   17.4810   -5.8255  -15.1305 C   0  0  0  0  0  0  0  0  0  0  0  0
   18.8886   -6.2900  -15.5308 C   0  0  0  0  0  0  0  0  0  0  0  0
   19.2698   -7.2782  -14.4315 C   0  0  1  0  0  0  0  0  0  0  0  0
   20.3915   -6.8206  -13.6104 C   0  0  0  0  0  0  0  0  0  0  0  0
   21.5609   -6.7752  -14.0511 O   0  0  0  0  0  0  0  0  0  0  0  0
   20.1576   -6.4262  -12.3080 O   0  0  0  0  0  0  0  0  0  0  0  0
  2  4  1  0
  2  1  1  1
  3  2  1  0
  4  5  2  0
  7  6  1  0
  8  7  2  0
  9  7  1  0
 10  9  1  1
 11 10  1  0
 11  4  1  0
 12 14  1  0
 12 10  1  0
 13 12  2  0
 14 18  1  0
 15 16  1  0
 15 14  1  0
 16 17  1  0
 17 18  1  0
 18 19  1  1
 19 20  2  0
 19 21  1  0
M  END
$$$$
