TDI.pdb
     RDKit          3D

 24 23  0  0  1  0  0  0  0  0999 V2000
    8.3965  -12.7220   18.9667 C   0  0  0  0  0  0  0  0  0  0  0  0
    8.5054  -13.4071   20.2961 C   0  0  1  0  0  0  0  0  0  0  0  0
    7.7433  -12.7542   21.2331 O   0  0  0  0  0  0  0  0  0  0  0  0
    8.1269  -14.8704   20.1461 C   0  0  2  0  0  0  0  0  0  0  0  0
    6.8149  -15.0223   19.5808 N   0  0  0  0  0  0  0  0  0  0  0  0
    8.2778  -15.6042   21.4288 C   0  0  0  0  0  0  0  0  0  0  0  0
    7.2634  -15.7666   22.1548 O   0  0  0  0  0  0  0  0  0  0  0  0
    9.5132  -16.1383   21.8875 N   0  0  0  0  0  0  0  0  0  0  0  0
    9.6518  -16.7316   23.1927 C   0  0  1  0  0  0  0  0  0  0  0  0
   10.6832  -17.8197   23.1705 C   0  0  0  0  0  0  0  0  0  0  0  0
   10.4573  -18.8319   22.1327 C   0  0  0  0  0  0  0  0  0  0  0  0
    9.3883  -19.4942   22.1874 O   0  0  0  0  0  0  0  0  0  0  0  0
    9.8983  -15.7226   24.2505 C   0  0  0  0  0  0  0  0  0  0  0  0
   10.9460  -15.0321   24.1648 O   0  0  0  0  0  0  0  0  0  0  0  0
   11.3258  -19.1076   21.1094 O   0  0  0  0  0  0  0  0  0  0  0  0
    6.2783  -12.3021   26.2614 C   0  0  0  0  0  0  0  0  0  0  0  0
    7.4969  -13.0174   25.7290 C   0  0  0  0  0  0  0  0  0  0  0  0
    8.1352  -13.7990   26.8522 C   0  0  2  0  0  0  0  0  0  0  0  0
    8.6340  -12.7883   27.8660 C   0  0  0  0  0  0  0  0  0  0  0  0
    9.3260  -14.5982   26.3955 C   0  0  2  0  0  0  0  0  0  0  0  0
    9.0018  -15.5197   25.3347 N   0  0  0  0  0  0  0  0  0  0  0  0
    9.8134  -15.3766   27.5598 C   0  0  0  0  0  0  0  0  0  0  0  0
    9.5084  -16.6042   27.7036 O   0  0  0  0  0  0  0  0  0  0  0  0
   10.6152  -14.7613   28.5102 O   0  0  0  0  0  0  0  0  0  0  0  0
  2  1  1  6
  2  4  1  0
  2  3  1  0
  4  5  1  1
  6  8  1  0
  6  4  1  0
  7  6  2  0
  9  8  1  0
  9 13  1  0
  9 10  1  6
 11 15  1  0
 11 10  1  0
 12 11  2  0
 13 21  1  0
 14 13  2  0
 17 16  1  0
 18 17  1  0
 18 19  1  1
 20 18  1  0
 20 22  1  0
 20 21  1  6
 22 23  2  0
 22 24  1  0
M  END
$$$$
