TDI.pdb
     RDKit          3D

 24 23  0  0  1  0  0  0  0  0999 V2000
   10.6132  -18.5779   19.3111 C   0  0  0  0  0  0  0  0  0  0  0  0
   10.0313  -17.9809   20.5576 C   0  0  1  0  0  0  0  0  0  0  0  0
   10.3920  -16.6607   20.6674 O   0  0  0  0  0  0  0  0  0  0  0  0
    8.5258  -18.1816   20.5620 C   0  0  2  0  0  0  0  0  0  0  0  0
    7.9148  -17.6292   19.3850 N   0  0  0  0  0  0  0  0  0  0  0  0
    7.9131  -17.6641   21.8124 C   0  0  0  0  0  0  0  0  0  0  0  0
    7.2016  -16.6284   21.7529 O   0  0  0  0  0  0  0  0  0  0  0  0
    8.0858  -18.2771   23.0838 N   0  0  0  0  0  0  0  0  0  0  0  0
    7.5539  -17.6973   24.2904 C   0  0  1  0  0  0  0  0  0  0  0  0
    7.3460  -18.7524   25.3352 C   0  0  0  0  0  0  0  0  0  0  0  0
    6.4471  -19.8340   24.9173 C   0  0  0  0  0  0  0  0  0  0  0  0
    5.3415  -19.5097   24.4102 O   0  0  0  0  0  0  0  0  0  0  0  0
    8.3649  -16.5549   24.7755 C   0  0  0  0  0  0  0  0  0  0  0  0
    9.6164  -16.6557   24.7021 O   0  0  0  0  0  0  0  0  0  0  0  0
    6.7245  -21.1702   25.0393 O   0  0  0  0  0  0  0  0  0  0  0  0
    6.0772  -11.8402   27.2574 C   0  0  0  0  0  0  0  0  0  0  0  0
    6.7692  -13.1682   27.0625 C   0  0  0  0  0  0  0  0  0  0  0  0
    7.8203  -13.0193   25.9887 C   0  0  2  0  0  0  0  0  0  0  0  0
    7.0909  -12.7107   24.6961 C   0  0  0  0  0  0  0  0  0  0  0  0
    8.6035  -14.2855   25.7680 C   0  0  2  0  0  0  0  0  0  0  0  0
    7.7783  -15.3754   25.3093 N   0  0  0  0  0  0  0  0  0  0  0  0
    9.2063  -14.6689   27.0675 C   0  0  0  0  0  0  0  0  0  0  0  0
   10.0761  -13.9302   27.6318 O   0  0  0  0  0  0  0  0  0  0  0  0
    8.8191  -15.8508   27.6821 O   0  0  0  0  0  0  0  0  0  0  0  0
  2  1  1  6
  2  4  1  0
  2  3  1  0
  4  5  1  6
  6  8  1  0
  6  4  1  0
  7  6  2  0
  9  8  1  0
  9 13  1  0
  9 10  1  1
 11 15  1  0
 11 10  1  0
 12 11  2  0
 13 21  1  0
 14 13  2  0
 17 16  1  0
 18 17  1  0
 18 19  1  6
 20 18  1  0
 20 22  1  0
 20 21  1  1
 22 23  2  0
 22 24  1  0
M  END
$$$$
