TDI.pdb
     RDKit          3D

 24 23  0  0  1  0  0  0  0  0999 V2000
    8.7067  -12.5003   18.1830 C   0  0  0  0  0  0  0  0  0  0  0  0
    8.8320  -13.2556   19.4723 C   0  0  1  0  0  0  0  0  0  0  0  0
    8.5759  -12.4274   20.5371 O   0  0  0  0  0  0  0  0  0  0  0  0
    7.9212  -14.4707   19.4400 C   0  0  2  0  0  0  0  0  0  0  0  0
    6.5672  -14.1088   19.1248 N   0  0  0  0  0  0  0  0  0  0  0  0
    8.0182  -15.2551   20.6976 C   0  0  0  0  0  0  0  0  0  0  0  0
    7.0157  -15.3078   21.4556 O   0  0  0  0  0  0  0  0  0  0  0  0
    9.1889  -15.9561   21.0978 N   0  0  0  0  0  0  0  0  0  0  0  0
    9.2639  -16.6676   22.3481 C   0  0  1  0  0  0  0  0  0  0  0  0
   10.3006  -17.7486   22.2782 C   0  0  0  0  0  0  0  0  0  0  0  0
   10.5204  -18.4447   23.5508 C   0  0  0  0  0  0  0  0  0  0  0  0
   11.6819  -18.4203   24.0354 O   0  0  0  0  0  0  0  0  0  0  0  0
    9.4510  -15.7607   23.5058 C   0  0  0  0  0  0  0  0  0  0  0  0
   10.5284  -15.1153   23.5726 O   0  0  0  0  0  0  0  0  0  0  0  0
    9.5530  -19.1188   24.2488 O   0  0  0  0  0  0  0  0  0  0  0  0
    6.6954  -11.7055   26.9191 C   0  0  0  0  0  0  0  0  0  0  0  0
    7.7900  -12.7457   26.9189 C   0  0  0  0  0  0  0  0  0  0  0  0
    7.5886  -13.6679   25.7404 C   0  0  2  0  0  0  0  0  0  0  0  0
    6.2912  -14.4144   25.9801 C   0  0  0  0  0  0  0  0  0  0  0  0
    8.6801  -14.6971   25.6193 C   0  0  2  0  0  0  0  0  0  0  0  0
    8.4668  -15.6051   24.5195 N   0  0  0  0  0  0  0  0  0  0  0  0
    8.6951  -15.4809   26.8780 C   0  0  0  0  0  0  0  0  0  0  0  0
    8.2790  -16.6836   26.9081 O   0  0  0  0  0  0  0  0  0  0  0  0
    9.1695  -14.8983   28.0443 O   0  0  0  0  0  0  0  0  0  0  0  0
  2  1  1  6
  2  4  1  0
  2  3  1  0
  4  5  1  1
  6  8  1  0
  6  4  1  0
  7  6  2  0
  9  8  1  0
  9 13  1  0
  9 10  1  6
 11 15  1  0
 11 10  1  0
 12 11  2  0
 13 21  1  0
 14 13  2  0
 17 16  1  0
 18 17  1  0
 18 19  1  1
 20 18  1  0
 20 22  1  0
 20 21  1  6
 22 23  2  0
 22 24  1  0
M  END
$$$$
