TDI.pdb
     RDKit          3D

 24 23  0  0  1  0  0  0  0  0999 V2000
    8.5196  -13.8423   17.9920 C   0  0  0  0  0  0  0  0  0  0  0  0
    8.5458  -14.1654   19.4561 C   0  0  1  0  0  0  0  0  0  0  0  0
    7.9267  -13.1728   20.1747 O   0  0  0  0  0  0  0  0  0  0  0  0
    7.9251  -15.5325   19.6858 C   0  0  2  0  0  0  0  0  0  0  0  0
    6.5943  -15.6062   19.1496 N   0  0  0  0  0  0  0  0  0  0  0  0
    7.9789  -15.9189   21.1191 C   0  0  0  0  0  0  0  0  0  0  0  0
    6.9339  -15.8167   21.8120 O   0  0  0  0  0  0  0  0  0  0  0  0
    9.1534  -16.4019   21.7588 N   0  0  0  0  0  0  0  0  0  0  0  0
    9.1566  -16.8176   23.1380 C   0  0  1  0  0  0  0  0  0  0  0  0
   10.0172  -18.0317   23.3207 C   0  0  0  0  0  0  0  0  0  0  0  0
   10.1220  -18.4821   24.7131 C   0  0  0  0  0  0  0  0  0  0  0  0
    9.0612  -18.5403   25.3882 O   0  0  0  0  0  0  0  0  0  0  0  0
    9.5105  -15.7134   24.0618 C   0  0  0  0  0  0  0  0  0  0  0  0
   10.6171  -15.1412   23.8893 O   0  0  0  0  0  0  0  0  0  0  0  0
   11.2906  -18.8436   25.3304 O   0  0  0  0  0  0  0  0  0  0  0  0
    5.7360  -12.5724   26.9831 C   0  0  0  0  0  0  0  0  0  0  0  0
    6.6389  -13.7153   26.5844 C   0  0  0  0  0  0  0  0  0  0  0  0
    7.9461  -13.1530   26.0794 C   0  0  2  0  0  0  0  0  0  0  0  0
    7.6907  -12.6299   24.6797 C   0  0  0  0  0  0  0  0  0  0  0  0
    9.0230  -14.1993   25.9755 C   0  0  2  0  0  0  0  0  0  0  0  0
    8.6513  -15.2941   25.1136 N   0  0  0  0  0  0  0  0  0  0  0  0
    9.2573  -14.7346   27.3384 C   0  0  0  0  0  0  0  0  0  0  0  0
    8.9875  -15.9455   27.6241 O   0  0  0  0  0  0  0  0  0  0  0  0
    9.7789  -13.9061   28.3214 O   0  0  0  0  0  0  0  0  0  0  0  0
  2  1  1  6
  2  4  1  0
  2  3  1  0
  4  5  1  1
  6  8  1  0
  6  4  1  0
  7  6  2  0
  9  8  1  0
  9 13  1  0
  9 10  1  6
 11 15  1  0
 11 10  1  0
 12 11  2  0
 13 21  1  0
 14 13  2  0
 17 16  1  0
 18 17  1  0
 18 19  1  6
 20 18  1  0
 20 22  1  0
 20 21  1  6
 22 23  2  0
 22 24  1  0
M  END
$$$$
