TDI.pdb
     RDKit          3D

 24 23  0  0  1  0  0  0  0  0999 V2000
   10.8260  -16.8502   18.8606 C   0  0  0  0  0  0  0  0  0  0  0  0
   10.3827  -16.6935   20.2845 C   0  0  1  0  0  0  0  0  0  0  0  0
   10.4518  -15.3757   20.6633 O   0  0  0  0  0  0  0  0  0  0  0  0
    8.9921  -17.2813   20.4512 C   0  0  2  0  0  0  0  0  0  0  0  0
    8.0647  -16.7224   19.5070 N   0  0  0  0  0  0  0  0  0  0  0  0
    8.5151  -17.1574   21.8526 C   0  0  0  0  0  0  0  0  0  0  0  0
    7.4927  -16.4619   22.0835 O   0  0  0  0  0  0  0  0  0  0  0  0
    9.1529  -17.7851   22.9577 N   0  0  0  0  0  0  0  0  0  0  0  0
    8.6834  -17.6147   24.3088 C   0  0  1  0  0  0  0  0  0  0  0  0
    8.8790  -18.8747   25.0977 C   0  0  0  0  0  0  0  0  0  0  0  0
    8.5597  -18.7392   26.5233 C   0  0  0  0  0  0  0  0  0  0  0  0
    7.4556  -18.2161   26.8261 O   0  0  0  0  0  0  0  0  0  0  0  0
    9.2709  -16.4233   24.9669 C   0  0  0  0  0  0  0  0  0  0  0  0
   10.5217  -16.2959   24.9329 O   0  0  0  0  0  0  0  0  0  0  0  0
    9.3765  -19.1409   27.5474 O   0  0  0  0  0  0  0  0  0  0  0  0
    6.1406  -11.8886   26.6215 C   0  0  0  0  0  0  0  0  0  0  0  0
    6.8968  -13.1874   26.7675 C   0  0  0  0  0  0  0  0  0  0  0  0
    8.2420  -13.0486   26.0960 C   0  0  2  0  0  0  0  0  0  0  0  0
    7.9786  -12.8429   24.6174 C   0  0  0  0  0  0  0  0  0  0  0  0
    9.0854  -14.2879   26.2311 C   0  0  2  0  0  0  0  0  0  0  0  0
    8.4755  -15.4432   25.6205 N   0  0  0  0  0  0  0  0  0  0  0  0
    9.2530  -14.5571   27.6797 C   0  0  0  0  0  0  0  0  0  0  0  0
    8.7696  -15.6070   28.2132 O   0  0  0  0  0  0  0  0  0  0  0  0
    9.9473  -13.6530   28.4704 O   0  0  0  0  0  0  0  0  0  0  0  0
  2  1  1  6
  2  4  1  0
  2  3  1  0
  4  5  1  6
  6  8  1  0
  6  4  1  0
  7  6  2  0
  9  8  1  0
  9 13  1  0
  9 10  1  1
 11 15  1  0
 11 10  1  0
 12 11  2  0
 13 21  1  0
 14 13  2  0
 17 16  1  0
 18 17  1  0
 18 19  1  6
 20 18  1  0
 20 22  1  0
 20 21  1  6
 22 23  2  0
 22 24  1  0
M  END
$$$$
