TDI.pdb
     RDKit          3D

 24 23  0  0  1  0  0  0  0  0999 V2000
    9.2300  -12.6241   20.4315 C   0  0  0  0  0  0  0  0  0  0  0  0
    8.1047  -13.1263   19.5770 C   0  0  1  0  0  0  0  0  0  0  0  0
    8.0444  -12.4174   18.4028 O   0  0  0  0  0  0  0  0  0  0  0  0
    8.2634  -14.6204   19.3545 C   0  0  2  0  0  0  0  0  0  0  0  0
    7.2604  -15.1320   18.4624 N   0  0  0  0  0  0  0  0  0  0  0  0
    8.3040  -15.3595   20.6424 C   0  0  0  0  0  0  0  0  0  0  0  0
    7.2236  -15.5749   21.2496 O   0  0  0  0  0  0  0  0  0  0  0  0
    9.5039  -15.8418   21.2337 N   0  0  0  0  0  0  0  0  0  0  0  0
    9.5174  -16.4761   22.5269 C   0  0  1  0  0  0  0  0  0  0  0  0
   10.5525  -17.5599   22.5718 C   0  0  0  0  0  0  0  0  0  0  0  0
   10.4379  -18.5370   21.4833 C   0  0  0  0  0  0  0  0  0  0  0  0
    9.4863  -19.3592   21.5361 O   0  0  0  0  0  0  0  0  0  0  0  0
    9.6530  -15.5007   23.6351 C   0  0  0  0  0  0  0  0  0  0  0  0
   10.6458  -14.7289   23.6142 O   0  0  0  0  0  0  0  0  0  0  0  0
   11.2917  -18.6184   20.4147 O   0  0  0  0  0  0  0  0  0  0  0  0
    6.0699  -12.1298   25.5628 C   0  0  0  0  0  0  0  0  0  0  0  0
    7.3089  -12.8668   25.1134 C   0  0  0  0  0  0  0  0  0  0  0  0
    7.7892  -13.7494   26.2405 C   0  0  2  0  0  0  0  0  0  0  0  0
    8.2396  -12.8312   27.3594 C   0  0  0  0  0  0  0  0  0  0  0  0
    8.9738  -14.5916   25.8498 C   0  0  2  0  0  0  0  0  0  0  0  0
    8.7114  -15.4168   24.6967 N   0  0  0  0  0  0  0  0  0  0  0  0
    9.2894  -15.4764   26.9972 C   0  0  0  0  0  0  0  0  0  0  0  0
    8.7638  -16.6312   27.1005 O   0  0  0  0  0  0  0  0  0  0  0  0
   10.1713  -15.0429   27.9765 O   0  0  0  0  0  0  0  0  0  0  0  0
  2  1  1  1
  2  4  1  0
  2  3  1  0
  4  5  1  6
  6  8  1  0
  6  4  1  0
  7  6  2  0
  9  8  1  0
  9 13  1  0
  9 10  1  6
 11 15  1  0
 11 10  1  0
 12 11  2  0
 13 21  1  0
 14 13  2  0
 17 16  1  0
 18 17  1  0
 18 19  1  1
 20 18  1  0
 20 22  1  0
 20 21  1  6
 22 23  2  0
 22 24  1  0
M  END
$$$$
