TDI.pdb
     RDKit          3D

 24 23  0  0  1  0  0  0  0  0999 V2000
    8.1457  -12.4213   18.4566 C   0  0  0  0  0  0  0  0  0  0  0  0
    8.1391  -13.3684   19.6191 C   0  0  1  0  0  0  0  0  0  0  0  0
    6.8504  -13.6284   20.0151 O   0  0  0  0  0  0  0  0  0  0  0  0
    8.9073  -14.6267   19.2537 C   0  0  2  0  0  0  0  0  0  0  0  0
    8.4390  -15.1928   18.0192 N   0  0  0  0  0  0  0  0  0  0  0  0
    8.8972  -15.6109   20.3662 C   0  0  0  0  0  0  0  0  0  0  0  0
    8.6077  -16.8082   20.1111 O   0  0  0  0  0  0  0  0  0  0  0  0
    9.1986  -15.2751   21.7147 N   0  0  0  0  0  0  0  0  0  0  0  0
    9.1736  -16.2550   22.7703 C   0  0  1  0  0  0  0  0  0  0  0  0
   10.0146  -17.4422   22.4077 C   0  0  0  0  0  0  0  0  0  0  0  0
   10.1178  -18.4454   23.4732 C   0  0  0  0  0  0  0  0  0  0  0  0
   11.2567  -18.9239   23.7149 O   0  0  0  0  0  0  0  0  0  0  0  0
    9.5272  -15.6767   24.0887 C   0  0  0  0  0  0  0  0  0  0  0  0
   10.7473  -15.5064   24.3423 O   0  0  0  0  0  0  0  0  0  0  0  0
    9.0643  -18.8983   24.2232 O   0  0  0  0  0  0  0  0  0  0  0  0
    5.8329  -12.3007   26.5866 C   0  0  0  0  0  0  0  0  0  0  0  0
    6.5874  -13.5935   26.3874 C   0  0  0  0  0  0  0  0  0  0  0  0
    8.0675  -13.2965   26.3561 C   0  0  2  0  0  0  0  0  0  0  0  0
    8.3206  -12.4408   25.1306 C   0  0  0  0  0  0  0  0  0  0  0  0
    8.9031  -14.5401   26.2127 C   0  0  2  0  0  0  0  0  0  0  0  0
    8.5456  -15.3177   25.0521 N   0  0  0  0  0  0  0  0  0  0  0  0
    8.6776  -15.3703   27.4206 C   0  0  0  0  0  0  0  0  0  0  0  0
    8.1128  -16.5083   27.3397 O   0  0  0  0  0  0  0  0  0  0  0  0
    9.0871  -14.9033   28.6611 O   0  0  0  0  0  0  0  0  0  0  0  0
  2  1  1  6
  2  4  1  0
  2  3  1  0
  4  5  1  6
  6  8  1  0
  6  4  1  0
  7  6  2  0
  9  8  1  0
  9 13  1  0
  9 10  1  6
 11 15  1  0
 11 10  1  0
 12 11  2  0
 13 21  1  0
 14 13  2  0
 17 16  1  0
 18 17  1  0
 18 19  1  6
 20 18  1  0
 20 22  1  0
 20 21  1  6
 22 23  2  0
 22 24  1  0
M  END
$$$$
