TDI.pdb
     RDKit          3D

 24 23  0  0  1  0  0  0  0  0999 V2000
    8.7631  -12.7533   17.9964 C   0  0  0  0  0  0  0  0  0  0  0  0
    8.8217  -13.3854   19.3549 C   0  0  1  0  0  0  0  0  0  0  0  0
    8.6211  -12.4399   20.3299 O   0  0  0  0  0  0  0  0  0  0  0  0
    7.8220  -14.5266   19.4277 C   0  0  2  0  0  0  0  0  0  0  0  0
    6.4972  -14.0924   19.0811 N   0  0  0  0  0  0  0  0  0  0  0  0
    7.8670  -15.2039   20.7490 C   0  0  0  0  0  0  0  0  0  0  0  0
    6.9225  -15.0136   21.5579 O   0  0  0  0  0  0  0  0  0  0  0  0
    8.9250  -16.0623   21.1560 N   0  0  0  0  0  0  0  0  0  0  0  0
    8.9413  -16.6948   22.4501 C   0  0  1  0  0  0  0  0  0  0  0  0
    9.8992  -17.8483   22.4612 C   0  0  0  0  0  0  0  0  0  0  0  0
   10.0401  -18.4914   23.7723 C   0  0  0  0  0  0  0  0  0  0  0  0
    8.9930  -18.6785   24.4452 O   0  0  0  0  0  0  0  0  0  0  0  0
    9.1849  -15.7301   23.5492 C   0  0  0  0  0  0  0  0  0  0  0  0
   10.2410  -15.0487   23.5034 O   0  0  0  0  0  0  0  0  0  0  0  0
   11.2287  -18.9026   24.3160 O   0  0  0  0  0  0  0  0  0  0  0  0
    6.5799  -11.4616   26.7337 C   0  0  0  0  0  0  0  0  0  0  0  0
    7.7060  -12.4676   26.7524 C   0  0  0  0  0  0  0  0  0  0  0  0
    7.4662  -13.4908   25.6683 C   0  0  2  0  0  0  0  0  0  0  0  0
    6.1443  -14.1639   25.9806 C   0  0  0  0  0  0  0  0  0  0  0  0
    8.5199  -14.5653   25.6452 C   0  0  2  0  0  0  0  0  0  0  0  0
    8.2766  -15.5590   24.6290 N   0  0  0  0  0  0  0  0  0  0  0  0
    8.5032  -15.2344   26.9685 C   0  0  0  0  0  0  0  0  0  0  0  0
    8.0535  -16.4180   27.1007 O   0  0  0  0  0  0  0  0  0  0  0  0
    8.9844  -14.5636   28.0834 O   0  0  0  0  0  0  0  0  0  0  0  0
  2  1  1  6
  2  4  1  0
  2  3  1  0
  4  5  1  1
  6  8  1  0
  6  4  1  0
  7  6  2  0
  9  8  1  0
  9 13  1  0
  9 10  1  6
 11 15  1  0
 11 10  1  0
 12 11  2  0
 13 21  1  0
 14 13  2  0
 17 16  1  0
 18 17  1  0
 18 19  1  1
 20 18  1  0
 20 22  1  0
 20 21  1  6
 22 23  2  0
 22 24  1  0
M  END
$$$$
