DYD.pdb
     RDKit          3D

 29 29  0  0  1  0  0  0  0  0999 V2000
   22.0383  -22.3888  -13.1495 N   0  0  0  0  0  0  0  0  0  0  0  0
   21.8352  -20.9692  -13.1865 C   0  0  1  0  0  0  0  0  0  0  0  0
   21.1189  -20.5218  -11.9150 C   0  0  0  0  0  0  0  0  0  0  0  0
   19.7993  -21.1900  -11.8103 C   0  0  0  0  0  0  0  0  0  0  0  0
   19.4439  -22.0062  -12.6812 O   0  0  0  0  0  0  0  0  0  0  0  0
   23.1297  -20.2358  -13.2305 C   0  0  0  0  0  0  0  0  0  0  0  0
   23.1109  -18.9785  -13.2595 O   0  0  0  0  0  0  0  0  0  0  0  0
   18.9940  -20.8759  -10.7264 O   0  0  0  0  0  0  0  0  0  0  0  0
   25.1856  -20.0114   -6.9102 O   0  0  0  0  0  0  0  0  0  0  0  0
   25.5085  -20.2952   -8.2337 C   0  0  0  0  0  0  0  0  0  0  0  0
   25.5283  -21.5929   -8.7000 C   0  0  0  0  0  0  0  0  0  0  0  0
   25.8577  -21.8109  -10.0287 C   0  0  0  0  0  0  0  0  0  0  0  0
   26.1576  -20.7659  -10.8636 C   0  0  0  0  0  0  0  0  0  0  0  0
   26.5063  -21.0264  -12.2580 C   0  0  0  0  0  0  0  0  0  0  0  0
   25.6379  -20.2763  -13.2536 C   0  0  2  0  0  0  0  0  0  0  0  0
   24.3498  -20.9641  -13.2389 N   0  0  0  0  0  0  0  0  0  0  0  0
   26.2161  -20.3611  -14.6026 C   0  0  0  0  0  0  0  0  0  0  0  0
   26.3219  -21.4934  -15.1760 O   0  0  0  0  0  0  0  0  0  0  0  0
   26.1372  -19.4671  -10.3946 C   0  0  0  0  0  0  0  0  0  0  0  0
   25.8130  -19.2478   -9.0858 C   0  0  0  0  0  0  0  0  0  0  0  0
   26.6783  -19.2359  -15.3334 N   0  0  0  0  0  0  0  0  0  0  0  0
   26.4933  -19.1787  -16.7900 C   0  0  1  0  0  0  0  0  0  0  0  0
   25.0256  -19.2604  -17.0398 C   0  0  0  0  0  0  0  0  0  0  0  0
   24.5910  -19.1366  -18.4272 C   0  0  0  0  0  0  0  0  0  0  0  0
   23.4583  -19.4174  -18.8147 O   0  0  0  0  0  0  0  0  0  0  0  0
   27.1133  -17.9286  -17.3064 C   0  0  0  0  0  0  0  0  0  0  0  0
   27.7425  -17.9223  -18.4186 O   0  0  0  0  0  0  0  0  0  0  0  0
   25.4968  -18.6717  -19.4022 O   0  0  0  0  0  0  0  0  0  0  0  0
   27.0581  -16.7267  -16.6510 O   0  0  0  0  0  0  0  0  0  0  0  0
  2  1  1  1
  2  3  1  0
  4  3  1  0
  4  8  1  0
  5  4  2  0
  6  2  1  0
  6  7  2  0
  9 10  1  0
 10 20  2  0
 10 11  1  0
 11 12  2  0
 12 13  1  0
 13 14  1  0
 15 14  1  1
 15 16  1  0
 16  6  1  0
 17 15  1  0
 18 17  2  0
 19 13  2  0
 20 19  1  0
 21 17  1  0
 22 21  1  0
 22 23  1  1
 23 24  1  0
 24 28  1  0
 24 25  2  0
 26 22  1  0
 27 26  2  0
 29 26  1  0
M  END
$$$$
