DYD.pdb
     RDKit          3D

 29 29  0  0  1  0  0  0  0  0999 V2000
   21.3675  -22.5144  -13.3177 N   0  0  0  0  0  0  0  0  0  0  0  0
   21.3635  -21.0844  -13.4315 C   0  0  1  0  0  0  0  0  0  0  0  0
   20.7423  -20.4734  -12.1783 C   0  0  0  0  0  0  0  0  0  0  0  0
   19.3243  -20.8899  -12.0563 C   0  0  0  0  0  0  0  0  0  0  0  0
   18.4727  -20.0841  -11.6362 O   0  0  0  0  0  0  0  0  0  0  0  0
   22.7465  -20.5432  -13.5326 C   0  0  0  0  0  0  0  0  0  0  0  0
   22.9082  -19.2959  -13.5360 O   0  0  0  0  0  0  0  0  0  0  0  0
   18.9920  -22.1854  -12.4211 O   0  0  0  0  0  0  0  0  0  0  0  0
   25.3855  -19.6906   -7.4593 O   0  0  0  0  0  0  0  0  0  0  0  0
   25.5618  -20.1791   -8.7504 C   0  0  0  0  0  0  0  0  0  0  0  0
   26.6155  -19.7580   -9.5341 C   0  0  0  0  0  0  0  0  0  0  0  0
   26.7370  -20.2815  -10.8118 C   0  0  0  0  0  0  0  0  0  0  0  0
   25.8347  -21.1958  -11.2902 C   0  0  0  0  0  0  0  0  0  0  0  0
   25.9851  -21.7265  -12.6429 C   0  0  0  0  0  0  0  0  0  0  0  0
   25.2178  -20.9422  -13.6939 C   0  0  2  0  0  0  0  0  0  0  0  0
   23.8463  -21.4384  -13.6224 N   0  0  0  0  0  0  0  0  0  0  0  0
   25.7612  -21.2137  -15.0326 C   0  0  0  0  0  0  0  0  0  0  0  0
   25.5495  -22.3414  -15.5851 O   0  0  0  0  0  0  0  0  0  0  0  0
   24.7802  -21.6162  -10.5037 C   0  0  0  0  0  0  0  0  0  0  0  0
   24.6568  -21.1028   -9.2438 C   0  0  0  0  0  0  0  0  0  0  0  0
   26.5282  -20.2790  -15.7756 N   0  0  0  0  0  0  0  0  0  0  0  0
   26.4525  -20.2670  -17.2430 C   0  0  1  0  0  0  0  0  0  0  0  0
   25.0221  -20.0394  -17.5972 C   0  0  0  0  0  0  0  0  0  0  0  0
   24.7053  -19.9624  -19.0194 C   0  0  0  0  0  0  0  0  0  0  0  0
   25.1608  -20.7332  -19.8623 O   0  0  0  0  0  0  0  0  0  0  0  0
   27.3664  -19.2152  -17.7648 C   0  0  0  0  0  0  0  0  0  0  0  0
   27.3625  -18.0392  -17.2648 O   0  0  0  0  0  0  0  0  0  0  0  0
   23.8311  -18.9594  -19.4852 O   0  0  0  0  0  0  0  0  0  0  0  0
   28.2546  -19.4203  -18.7876 O   0  0  0  0  0  0  0  0  0  0  0  0
  2  1  1  1
  2  3  1  0
  4  3  1  0
  4  8  1  0
  5  4  2  0
  6  2  1  0
  6  7  2  0
  9 10  1  0
 10 20  2  0
 10 11  1  0
 11 12  2  0
 12 13  1  0
 13 14  1  0
 15 14  1  1
 15 16  1  0
 16  6  1  0
 17 15  1  0
 18 17  2  0
 19 13  2  0
 20 19  1  0
 21 17  1  0
 22 21  1  0
 22 23  1  1
 23 24  1  0
 24 28  1  0
 24 25  2  0
 26 22  1  0
 27 26  2  0
 29 26  1  0
M  END
$$$$
