DYD.pdb
     RDKit          3D

 29 29  0  0  1  0  0  0  0  0999 V2000
   15.6970  -11.0757  -17.2301 N   0  0  0  0  0  0  0  0  0  0  0  0
   16.3061  -10.3410  -16.1590 C   0  0  1  0  0  0  0  0  0  0  0  0
   17.5333  -11.0955  -15.6545 C   0  0  0  0  0  0  0  0  0  0  0  0
   17.1220  -12.3650  -15.0077 C   0  0  0  0  0  0  0  0  0  0  0  0
   17.4417  -13.4554  -15.5172 O   0  0  0  0  0  0  0  0  0  0  0  0
   16.7808   -9.0064  -16.6162 C   0  0  0  0  0  0  0  0  0  0  0  0
   17.3668   -8.9214  -17.7259 O   0  0  0  0  0  0  0  0  0  0  0  0
   16.3826  -12.2903  -13.8374 O   0  0  0  0  0  0  0  0  0  0  0  0
   12.2522   -5.7271  -20.2839 O   0  0  0  0  0  0  0  0  0  0  0  0
   13.1392   -5.7229  -19.2116 C   0  0  0  0  0  0  0  0  0  0  0  0
   13.0098   -6.6244  -18.1761 C   0  0  0  0  0  0  0  0  0  0  0  0
   13.9249   -6.5698  -17.1363 C   0  0  0  0  0  0  0  0  0  0  0  0
   14.9359   -5.6441  -17.1321 C   0  0  0  0  0  0  0  0  0  0  0  0
   15.8826   -5.6067  -16.0202 C   0  0  0  0  0  0  0  0  0  0  0  0
   17.0612   -6.5500  -16.1915 C   0  0  2  0  0  0  0  0  0  0  0  0
   16.5645   -7.8655  -15.7974 N   0  0  0  0  0  0  0  0  0  0  0  0
   18.1619   -6.1610  -15.2980 C   0  0  0  0  0  0  0  0  0  0  0  0
   18.0524   -6.3427  -14.0422 O   0  0  0  0  0  0  0  0  0  0  0  0
   15.0637   -4.7423  -18.1701 C   0  0  0  0  0  0  0  0  0  0  0  0
   14.1640   -4.7927  -19.1969 C   0  0  0  0  0  0  0  0  0  0  0  0
   19.3752   -5.5798  -15.7499 N   0  0  0  0  0  0  0  0  0  0  0  0
   20.4684   -5.3287  -14.8008 C   0  0  1  0  0  0  0  0  0  0  0  0
   20.8749   -6.6548  -14.2536 C   0  0  0  0  0  0  0  0  0  0  0  0
   22.0100   -6.6632  -13.3367 C   0  0  0  0  0  0  0  0  0  0  0  0
   22.5632   -5.6444  -12.9268 O   0  0  0  0  0  0  0  0  0  0  0  0
   21.5675   -4.6176  -15.5079 C   0  0  0  0  0  0  0  0  0  0  0  0
   22.1826   -5.1697  -16.4824 O   0  0  0  0  0  0  0  0  0  0  0  0
   22.5248   -7.8923  -12.8766 O   0  0  0  0  0  0  0  0  0  0  0  0
   21.9903   -3.3562  -15.1800 O   0  0  0  0  0  0  0  0  0  0  0  0
  2  1  1  6
  2  3  1  0
  4  3  1  0
  4  8  1  0
  5  4  2  0
  6  2  1  0
  6  7  2  0
  9 10  1  0
 10 20  2  0
 10 11  1  0
 11 12  2  0
 12 13  1  0
 13 14  1  0
 15 14  1  1
 15 16  1  0
 16  6  1  0
 17 15  1  0
 18 17  2  0
 19 13  2  0
 20 19  1  0
 21 17  1  0
 22 21  1  0
 22 23  1  6
 23 24  1  0
 24 28  1  0
 24 25  2  0
 26 22  1  0
 27 26  2  0
 29 26  1  0
M  END
$$$$
