DYD.pdb
     RDKit          3D

 29 29  0  0  1  0  0  0  0  0999 V2000
   22.0628  -13.0901  -16.3320 N   0  0  0  0  0  0  0  0  0  0  0  0
   22.2363  -13.1437  -17.7550 C   0  0  1  0  0  0  0  0  0  0  0  0
   21.7263  -14.4823  -18.2822 C   0  0  0  0  0  0  0  0  0  0  0  0
   22.5473  -15.5913  -17.7389 C   0  0  0  0  0  0  0  0  0  0  0  0
   22.8530  -15.6060  -16.5318 O   0  0  0  0  0  0  0  0  0  0  0  0
   21.4463  -12.0838  -18.4392 C   0  0  0  0  0  0  0  0  0  0  0  0
   21.6427  -11.8805  -19.6649 O   0  0  0  0  0  0  0  0  0  0  0  0
   22.9521  -16.5901  -18.6109 O   0  0  0  0  0  0  0  0  0  0  0  0
   15.8870  -13.3569  -14.3758 O   0  0  0  0  0  0  0  0  0  0  0  0
   16.5218  -12.7440  -15.4519 C   0  0  0  0  0  0  0  0  0  0  0  0
   17.2514  -13.4796  -16.3621 C   0  0  0  0  0  0  0  0  0  0  0  0
   17.8605  -12.8112  -17.4127 C   0  0  0  0  0  0  0  0  0  0  0  0
   17.7441  -11.4522  -17.5486 C   0  0  0  0  0  0  0  0  0  0  0  0
   18.4014  -10.7740  -18.6630 C   0  0  0  0  0  0  0  0  0  0  0  0
   19.7725  -10.2194  -18.3155 C   0  0  2  0  0  0  0  0  0  0  0  0
   20.4948  -11.3299  -17.7009 N   0  0  0  0  0  0  0  0  0  0  0  0
   19.6499   -9.1244  -17.3423 C   0  0  0  0  0  0  0  0  0  0  0  0
   19.9146   -9.3359  -16.1147 O   0  0  0  0  0  0  0  0  0  0  0  0
   17.0130  -10.7175  -16.6359 C   0  0  0  0  0  0  0  0  0  0  0  0
   16.4110  -11.3723  -15.5991 C   0  0  0  0  0  0  0  0  0  0  0  0
   19.2454   -7.8080  -17.6849 N   0  0  0  0  0  0  0  0  0  0  0  0
   19.0983   -6.7881  -16.6375 C   0  0  1  0  0  0  0  0  0  0  0  0
   19.3036   -5.4654  -17.2945 C   0  0  0  0  0  0  0  0  0  0  0  0
   19.1266   -4.2846  -16.4557 C   0  0  0  0  0  0  0  0  0  0  0  0
   19.1743   -3.1320  -16.8816 O   0  0  0  0  0  0  0  0  0  0  0  0
   17.7590   -6.9343  -16.0062 C   0  0  0  0  0  0  0  0  0  0  0  0
   16.7848   -7.4503  -16.6522 O   0  0  0  0  0  0  0  0  0  0  0  0
   18.8857   -4.4402  -15.0754 O   0  0  0  0  0  0  0  0  0  0  0  0
   17.4766   -6.5408  -14.7245 O   0  0  0  0  0  0  0  0  0  0  0  0
  2  1  1  1
  2  3  1  0
  4  3  1  0
  4  8  1  0
  5  4  2  0
  6  2  1  0
  6  7  2  0
  9 10  1  0
 10 20  2  0
 10 11  1  0
 11 12  2  0
 12 13  1  0
 13 14  1  0
 15 14  1  1
 15 16  1  0
 16  6  1  0
 17 15  1  0
 18 17  2  0
 19 13  2  0
 20 19  1  0
 21 17  1  0
 22 21  1  0
 22 23  1  6
 23 24  1  0
 24 28  1  0
 24 25  2  0
 26 22  1  0
 27 26  2  0
 29 26  1  0
M  END
$$$$
