DYD.pdb
     RDKit          3D

 29 29  0  0  1  0  0  0  0  0999 V2000
   19.7096  -14.1827  -17.6093 N   0  0  0  0  0  0  0  0  0  0  0  0
   19.7681  -12.8533  -18.1450 C   0  0  1  0  0  0  0  0  0  0  0  0
   18.5424  -12.5996  -19.0187 C   0  0  0  0  0  0  0  0  0  0  0  0
   18.5415  -13.5242  -20.1780 C   0  0  0  0  0  0  0  0  0  0  0  0
   19.4948  -13.5188  -20.9793 O   0  0  0  0  0  0  0  0  0  0  0  0
   19.7440  -11.8300  -17.0643 C   0  0  0  0  0  0  0  0  0  0  0  0
   18.9245  -11.9679  -16.1201 O   0  0  0  0  0  0  0  0  0  0  0  0
   17.4593  -14.3770  -20.3305 O   0  0  0  0  0  0  0  0  0  0  0  0
   22.4651   -4.4752  -12.9483 O   0  0  0  0  0  0  0  0  0  0  0  0
   22.3416   -5.6648  -13.6597 C   0  0  0  0  0  0  0  0  0  0  0  0
   22.0753   -6.8555  -13.0167 C   0  0  0  0  0  0  0  0  0  0  0  0
   21.9639   -8.0067  -13.7807 C   0  0  0  0  0  0  0  0  0  0  0  0
   22.1139   -7.9687  -15.1427 C   0  0  0  0  0  0  0  0  0  0  0  0
   21.9963   -9.1989  -15.9216 C   0  0  0  0  0  0  0  0  0  0  0  0
   20.5608   -9.6432  -16.1457 C   0  0  2  0  0  0  0  0  0  0  0  0
   20.6391  -10.7279  -17.1203 N   0  0  0  0  0  0  0  0  0  0  0  0
   19.7666   -8.5423  -16.7100 C   0  0  0  0  0  0  0  0  0  0  0  0
   19.9747   -8.1603  -17.9070 O   0  0  0  0  0  0  0  0  0  0  0  0
   22.3805   -6.7753  -15.7846 C   0  0  0  0  0  0  0  0  0  0  0  0
   22.4911   -5.6384  -15.0354 C   0  0  0  0  0  0  0  0  0  0  0  0
   18.7531   -7.8545  -15.9933 N   0  0  0  0  0  0  0  0  0  0  0  0
   18.0089   -6.7633  -16.6371 C   0  0  1  0  0  0  0  0  0  0  0  0
   16.5608   -7.0893  -16.4953 C   0  0  0  0  0  0  0  0  0  0  0  0
   15.6152   -6.0779  -16.9558 C   0  0  0  0  0  0  0  0  0  0  0  0
   15.7501   -5.4434  -18.0004 O   0  0  0  0  0  0  0  0  0  0  0  0
   18.3914   -5.4754  -15.9977 C   0  0  0  0  0  0  0  0  0  0  0  0
   18.7974   -5.4422  -14.7865 O   0  0  0  0  0  0  0  0  0  0  0  0
   14.4727   -5.7888  -16.1822 O   0  0  0  0  0  0  0  0  0  0  0  0
   18.3406   -4.2652  -16.6380 O   0  0  0  0  0  0  0  0  0  0  0  0
  2  1  1  1
  2  3  1  0
  4  3  1  0
  4  8  1  0
  5  4  2  0
  6  2  1  0
  6  7  2  0
  9 10  1  0
 10 20  2  0
 10 11  1  0
 11 12  2  0
 12 13  1  0
 13 14  1  0
 15 14  1  6
 15 16  1  0
 16  6  1  0
 17 15  1  0
 18 17  2  0
 19 13  2  0
 20 19  1  0
 21 17  1  0
 22 21  1  0
 22 23  1  1
 23 24  1  0
 24 28  1  0
 24 25  2  0
 26 22  1  0
 27 26  2  0
 29 26  1  0
M  END
$$$$
