DYD.pdb
     RDKit          3D

 29 29  0  0  1  0  0  0  0  0999 V2000
   28.2942  -23.6082  -17.8110 N   0  0  0  0  0  0  0  0  0  0  0  0
   28.1726  -22.3568  -17.1204 C   0  0  1  0  0  0  0  0  0  0  0  0
   27.8132  -21.2564  -18.1154 C   0  0  0  0  0  0  0  0  0  0  0  0
   28.9365  -21.0329  -19.0573 C   0  0  0  0  0  0  0  0  0  0  0  0
   30.0606  -20.7197  -18.6225 O   0  0  0  0  0  0  0  0  0  0  0  0
   27.0792  -22.3967  -16.1112 C   0  0  0  0  0  0  0  0  0  0  0  0
   26.2141  -23.3060  -16.1937 O   0  0  0  0  0  0  0  0  0  0  0  0
   28.6898  -21.1837  -20.4132 O   0  0  0  0  0  0  0  0  0  0  0  0
   23.1002  -20.6209   -8.4621 O   0  0  0  0  0  0  0  0  0  0  0  0
   23.9334  -20.6283   -9.5766 C   0  0  0  0  0  0  0  0  0  0  0  0
   23.4921  -20.1682  -10.7994 C   0  0  0  0  0  0  0  0  0  0  0  0
   24.3696  -20.2014  -11.8720 C   0  0  0  0  0  0  0  0  0  0  0  0
   25.6462  -20.6791  -11.7266 C   0  0  0  0  0  0  0  0  0  0  0  0
   26.5474  -20.7069  -12.8759 C   0  0  0  0  0  0  0  0  0  0  0  0
   25.9669  -21.4151  -14.0883 C   0  0  2  0  0  0  0  0  0  0  0  0
   27.0350  -21.4157  -15.0843 N   0  0  0  0  0  0  0  0  0  0  0  0
   24.8154  -20.6680  -14.6146 C   0  0  0  0  0  0  0  0  0  0  0  0
   25.0004  -19.7279  -15.4536 O   0  0  0  0  0  0  0  0  0  0  0  0
   26.0862  -21.1393  -10.5011 C   0  0  0  0  0  0  0  0  0  0  0  0
   25.2245  -21.1083   -9.4414 C   0  0  0  0  0  0  0  0  0  0  0  0
   23.4709  -20.9287  -14.2425 N   0  0  0  0  0  0  0  0  0  0  0  0
   22.3706  -20.2421  -14.9331 C   0  0  1  0  0  0  0  0  0  0  0  0
   22.3962  -20.7072  -16.3495 C   0  0  0  0  0  0  0  0  0  0  0  0
   21.3117  -20.2443  -17.2090 C   0  0  0  0  0  0  0  0  0  0  0  0
   21.3711  -19.2235  -17.8920 O   0  0  0  0  0  0  0  0  0  0  0  0
   21.0947  -20.5489  -14.2319 C   0  0  0  0  0  0  0  0  0  0  0  0
   20.9716  -21.6124  -13.5344 O   0  0  0  0  0  0  0  0  0  0  0  0
   20.1157  -20.9868  -17.2826 O   0  0  0  0  0  0  0  0  0  0  0  0
   19.9896  -19.7402  -14.2778 O   0  0  0  0  0  0  0  0  0  0  0  0
  2  1  1  6
  2  3  1  0
  4  3  1  0
  4  8  1  0
  5  4  2  0
  6  2  1  0
  6  7  2  0
  9 10  1  0
 10 20  2  0
 10 11  1  0
 11 12  2  0
 12 13  1  0
 13 14  1  0
 15 14  1  1
 15 16  1  0
 16  6  1  0
 17 15  1  0
 18 17  2  0
 19 13  2  0
 20 19  1  0
 21 17  1  0
 22 21  1  0
 22 23  1  6
 23 24  1  0
 24 28  1  0
 24 25  2  0
 26 22  1  0
 27 26  2  0
 29 26  1  0
M  END
$$$$
