DYD.pdb
     RDKit          3D

 29 29  0  0  1  0  0  0  0  0999 V2000
   20.9477  -14.4050  -16.8561 N   0  0  0  0  0  0  0  0  0  0  0  0
   21.2041  -13.0889  -16.3462 C   0  0  1  0  0  0  0  0  0  0  0  0
   22.3502  -12.4520  -17.1276 C   0  0  0  0  0  0  0  0  0  0  0  0
   23.6339  -13.1053  -16.7746 C   0  0  0  0  0  0  0  0  0  0  0  0
   23.8349  -14.2933  -17.0891 O   0  0  0  0  0  0  0  0  0  0  0  0
   20.0224  -12.2001  -16.5167 C   0  0  0  0  0  0  0  0  0  0  0  0
   19.3899  -12.2380  -17.6033 O   0  0  0  0  0  0  0  0  0  0  0  0
   24.5812  -12.3555  -16.0946 O   0  0  0  0  0  0  0  0  0  0  0  0
   14.1842  -15.1888  -15.8884 O   0  0  0  0  0  0  0  0  0  0  0  0
   14.9934  -14.1098  -15.5456 C   0  0  0  0  0  0  0  0  0  0  0  0
   14.6480  -12.8209  -15.8940 C   0  0  0  0  0  0  0  0  0  0  0  0
   15.4955  -11.7884  -15.5237 C   0  0  0  0  0  0  0  0  0  0  0  0
   16.6504  -12.0365  -14.8282 C   0  0  0  0  0  0  0  0  0  0  0  0
   17.5270  -10.9289  -14.4559 C   0  0  0  0  0  0  0  0  0  0  0  0
   18.4547  -10.4837  -15.5738 C   0  0  2  0  0  0  0  0  0  0  0  0
   19.6359  -11.3344  -15.4583 N   0  0  0  0  0  0  0  0  0  0  0  0
   18.8488   -9.0803  -15.3832 C   0  0  0  0  0  0  0  0  0  0  0  0
   19.6421   -8.7684  -14.4370 O   0  0  0  0  0  0  0  0  0  0  0  0
   16.9944  -13.3279  -14.4803 C   0  0  0  0  0  0  0  0  0  0  0  0
   16.1619  -14.3484  -14.8432 C   0  0  0  0  0  0  0  0  0  0  0  0
   18.3940   -8.0161  -16.2045 N   0  0  0  0  0  0  0  0  0  0  0  0
   18.8562   -6.6442  -15.9531 C   0  0  1  0  0  0  0  0  0  0  0  0
   18.9283   -5.9658  -17.2790 C   0  0  0  0  0  0  0  0  0  0  0  0
   19.2876   -4.5516  -17.2708 C   0  0  0  0  0  0  0  0  0  0  0  0
   19.5728   -3.9263  -16.2512 O   0  0  0  0  0  0  0  0  0  0  0  0
   17.9205   -5.9864  -15.0015 C   0  0  0  0  0  0  0  0  0  0  0  0
   18.2126   -4.8619  -14.4697 O   0  0  0  0  0  0  0  0  0  0  0  0
   19.3188   -3.8337  -18.4836 O   0  0  0  0  0  0  0  0  0  0  0  0
   16.7122   -6.5182  -14.6348 O   0  0  0  0  0  0  0  0  0  0  0  0
  2  1  1  6
  2  3  1  0
  4  3  1  0
  4  8  1  0
  5  4  2  0
  6  2  1  0
  6  7  2  0
  9 10  1  0
 10 20  2  0
 10 11  1  0
 11 12  2  0
 12 13  1  0
 13 14  1  0
 15 14  1  1
 15 16  1  0
 16  6  1  0
 17 15  1  0
 18 17  2  0
 19 13  2  0
 20 19  1  0
 21 17  1  0
 22 21  1  0
 22 23  1  6
 23 24  1  0
 24 28  1  0
 24 25  2  0
 26 22  1  0
 27 26  2  0
 29 26  1  0
M  END
$$$$
