DYD.pdb
     RDKit          3D

 29 29  0  0  1  0  0  0  0  0999 V2000
   28.2190  -21.0541  -17.0133 N   0  0  0  0  0  0  0  0  0  0  0  0
   27.7131  -22.3949  -16.9489 C   0  0  1  0  0  0  0  0  0  0  0  0
   28.8737  -23.3718  -16.7802 C   0  0  0  0  0  0  0  0  0  0  0  0
   29.8939  -23.1391  -17.8310 C   0  0  0  0  0  0  0  0  0  0  0  0
   30.9301  -23.8294  -17.8564 O   0  0  0  0  0  0  0  0  0  0  0  0
   26.8195  -22.5829  -15.7734 C   0  0  0  0  0  0  0  0  0  0  0  0
   26.4250  -23.7442  -15.4943 O   0  0  0  0  0  0  0  0  0  0  0  0
   29.6524  -22.1429  -18.7644 O   0  0  0  0  0  0  0  0  0  0  0  0
   22.8178  -20.4381   -8.2250 O   0  0  0  0  0  0  0  0  0  0  0  0
   23.5553  -20.4313   -9.4051 C   0  0  0  0  0  0  0  0  0  0  0  0
   23.0298  -19.9152  -10.5710 C   0  0  0  0  0  0  0  0  0  0  0  0
   23.8140  -19.9371  -11.7138 C   0  0  0  0  0  0  0  0  0  0  0  0
   25.0816  -20.4582  -11.6917 C   0  0  0  0  0  0  0  0  0  0  0  0
   25.8831  -20.4727  -12.9128 C   0  0  0  0  0  0  0  0  0  0  0  0
   25.5207  -21.5987  -13.8662 C   0  0  2  0  0  0  0  0  0  0  0  0
   26.4335  -21.4571  -14.9973 N   0  0  0  0  0  0  0  0  0  0  0  0
   24.1373  -21.4437  -14.3388 C   0  0  0  0  0  0  0  0  0  0  0  0
   23.8361  -20.4752  -15.1089 O   0  0  0  0  0  0  0  0  0  0  0  0
   25.6060  -20.9745  -10.5230 C   0  0  0  0  0  0  0  0  0  0  0  0
   24.8365  -20.9548   -9.3944 C   0  0  0  0  0  0  0  0  0  0  0  0
   23.0816  -22.3244  -13.9868 N   0  0  0  0  0  0  0  0  0  0  0  0
   21.7224  -22.0804  -14.4889 C   0  0  1  0  0  0  0  0  0  0  0  0
   21.1819  -23.4004  -14.9234 C   0  0  0  0  0  0  0  0  0  0  0  0
   19.8231  -23.4072  -15.4550 C   0  0  0  0  0  0  0  0  0  0  0  0
   18.8360  -23.0610  -14.8085 O   0  0  0  0  0  0  0  0  0  0  0  0
   20.9195  -21.4362  -13.4146 C   0  0  0  0  0  0  0  0  0  0  0  0
   21.0113  -21.8324  -12.2033 O   0  0  0  0  0  0  0  0  0  0  0  0
   19.5957  -23.8289  -16.7808 O   0  0  0  0  0  0  0  0  0  0  0  0
   20.0489  -20.4013  -13.6343 O   0  0  0  0  0  0  0  0  0  0  0  0
  2  1  1  1
  2  3  1  0
  4  3  1  0
  4  8  1  0
  5  4  2  0
  6  2  1  0
  6  7  2  0
  9 10  1  0
 10 20  2  0
 10 11  1  0
 11 12  2  0
 12 13  1  0
 13 14  1  0
 15 14  1  1
 15 16  1  0
 16  6  1  0
 17 15  1  0
 18 17  2  0
 19 13  2  0
 20 19  1  0
 21 17  1  0
 22 21  1  0
 22 23  1  1
 23 24  1  0
 24 28  1  0
 24 25  2  0
 26 22  1  0
 27 26  2  0
 29 26  1  0
M  END
$$$$
