DYD.pdb
     RDKit          3D

 29 29  0  0  1  0  0  0  0  0999 V2000
   22.9427  -11.9249  -19.1548 N   0  0  0  0  0  0  0  0  0  0  0  0
   22.1953  -12.1360  -17.9487 C   0  0  1  0  0  0  0  0  0  0  0  0
   22.7292  -13.3696  -17.2256 C   0  0  0  0  0  0  0  0  0  0  0  0
   22.2733  -14.6018  -17.9134 C   0  0  0  0  0  0  0  0  0  0  0  0
   21.5352  -14.5199  -18.9131 O   0  0  0  0  0  0  0  0  0  0  0  0
   22.3436  -10.9905  -17.0098 C   0  0  0  0  0  0  0  0  0  0  0  0
   21.8159  -11.0708  -15.8709 O   0  0  0  0  0  0  0  0  0  0  0  0
   22.6932  -15.8229  -17.4090 O   0  0  0  0  0  0  0  0  0  0  0  0
   28.6904  -11.9973  -15.8653 O   0  0  0  0  0  0  0  0  0  0  0  0
   27.6862  -11.0551  -16.0659 C   0  0  0  0  0  0  0  0  0  0  0  0
   26.9087  -10.6081  -15.0182 C   0  0  0  0  0  0  0  0  0  0  0  0
   25.9242   -9.6686  -15.2820 C   0  0  0  0  0  0  0  0  0  0  0  0
   25.7236   -9.1920  -16.5515 C   0  0  0  0  0  0  0  0  0  0  0  0
   24.6749   -8.2060  -16.8005 C   0  0  0  0  0  0  0  0  0  0  0  0
   23.2752   -8.7169  -16.5038 C   0  0  2  0  0  0  0  0  0  0  0  0
   23.0717   -9.8396  -17.4152 N   0  0  0  0  0  0  0  0  0  0  0  0
   22.2787   -7.6747  -16.7902 C   0  0  0  0  0  0  0  0  0  0  0  0
   22.1954   -7.1834  -17.9622 O   0  0  0  0  0  0  0  0  0  0  0  0
   26.5034   -9.6409  -17.5992 C   0  0  0  0  0  0  0  0  0  0  0  0
   27.4748  -10.5667  -17.3435 C   0  0  0  0  0  0  0  0  0  0  0  0
   21.3752   -7.1621  -15.8234 N   0  0  0  0  0  0  0  0  0  0  0  0
   20.3593   -6.1760  -16.2164 C   0  0  1  0  0  0  0  0  0  0  0  0
   19.0931   -6.9306  -16.4418 C   0  0  0  0  0  0  0  0  0  0  0  0
   17.8881   -6.1361  -16.6555 C   0  0  0  0  0  0  0  0  0  0  0  0
   17.8947   -4.9998  -17.1254 O   0  0  0  0  0  0  0  0  0  0  0  0
   20.2515   -5.1432  -15.1509 C   0  0  0  0  0  0  0  0  0  0  0  0
   19.4738   -4.1389  -15.2903 O   0  0  0  0  0  0  0  0  0  0  0  0
   16.6300   -6.6730  -16.3144 O   0  0  0  0  0  0  0  0  0  0  0  0
   20.9543   -5.1886  -13.9756 O   0  0  0  0  0  0  0  0  0  0  0  0
  2  1  1  6
  2  3  1  0
  4  3  1  0
  4  8  1  0
  5  4  2  0
  6  2  1  0
  6  7  2  0
  9 10  1  0
 10 20  2  0
 10 11  1  0
 11 12  2  0
 12 13  1  0
 13 14  1  0
 15 14  1  6
 15 16  1  0
 16  6  1  0
 17 15  1  0
 18 17  2  0
 19 13  2  0
 20 19  1  0
 21 17  1  0
 22 21  1  0
 22 23  1  1
 23 24  1  0
 24 28  1  0
 24 25  2  0
 26 22  1  0
 27 26  2  0
 29 26  1  0
M  END
$$$$
