DYD.pdb
     RDKit          3D

 29 29  0  0  1  0  0  0  0  0999 V2000
   41.3526  -12.0109  -11.4219 N   0  0  0  0  0  0  0  0  0  0  0  0
   41.6225  -10.6629  -11.0125 C   0  0  1  0  0  0  0  0  0  0  0  0
   42.0510   -9.8370  -12.2226 C   0  0  0  0  0  0  0  0  0  0  0  0
   43.3155  -10.3712  -12.7835 C   0  0  0  0  0  0  0  0  0  0  0  0
   43.3328  -10.8531  -13.9316 O   0  0  0  0  0  0  0  0  0  0  0  0
   40.4062  -10.0097  -10.4562 C   0  0  0  0  0  0  0  0  0  0  0  0
   39.3152  -10.1442  -11.0676 O   0  0  0  0  0  0  0  0  0  0  0  0
   44.4540  -10.3135  -11.9945 O   0  0  0  0  0  0  0  0  0  0  0  0
   43.4191  -10.1774   -4.0633 O   0  0  0  0  0  0  0  0  0  0  0  0
   42.3184   -9.9523   -4.8844 C   0  0  0  0  0  0  0  0  0  0  0  0
   41.5731   -8.7970   -4.7764 C   0  0  0  0  0  0  0  0  0  0  0  0
   40.4880   -8.6310   -5.6228 C   0  0  0  0  0  0  0  0  0  0  0  0
   40.1588   -9.5887   -6.5466 C   0  0  0  0  0  0  0  0  0  0  0  0
   39.0065   -9.3889   -7.4219 C   0  0  0  0  0  0  0  0  0  0  0  0
   39.3273   -8.6026   -8.6817 C   0  0  2  0  0  0  0  0  0  0  0  0
   40.5009   -9.2544   -9.2564 N   0  0  0  0  0  0  0  0  0  0  0  0
   39.6630   -7.2115   -8.3449 C   0  0  0  0  0  0  0  0  0  0  0  0
   40.8831   -6.8636   -8.2345 O   0  0  0  0  0  0  0  0  0  0  0  0
   40.9065  -10.7449   -6.6531 C   0  0  0  0  0  0  0  0  0  0  0  0
   41.9768  -10.9125   -5.8209 C   0  0  0  0  0  0  0  0  0  0  0  0
   38.6937   -6.1979   -8.1279 N   0  0  0  0  0  0  0  0  0  0  0  0
   39.1207   -4.8186   -7.8557 C   0  0  1  0  0  0  0  0  0  0  0  0
   38.1274   -3.9236   -8.5159 C   0  0  0  0  0  0  0  0  0  0  0  0
   38.1406   -3.8964   -9.9747 C   0  0  0  0  0  0  0  0  0  0  0  0
   39.0730   -4.3182  -10.6564 O   0  0  0  0  0  0  0  0  0  0  0  0
   39.2082   -4.6221   -6.3835 C   0  0  0  0  0  0  0  0  0  0  0  0
   38.3811   -5.1968   -5.5971 O   0  0  0  0  0  0  0  0  0  0  0  0
   37.0373   -3.3630  -10.6716 O   0  0  0  0  0  0  0  0  0  0  0  0
   40.1527   -3.8362   -5.7771 O   0  0  0  0  0  0  0  0  0  0  0  0
  2  1  1  6
  2  3  1  0
  4  3  1  0
  4  8  1  0
  5  4  2  0
  6  2  1  0
  6  7  2  0
  9 10  1  0
 10 20  2  0
 10 11  1  0
 11 12  2  0
 12 13  1  0
 13 14  1  0
 15 14  1  1
 15 16  1  0
 16  6  1  0
 17 15  1  0
 18 17  2  0
 19 13  2  0
 20 19  1  0
 21 17  1  0
 22 21  1  0
 22 23  1  1
 23 24  1  0
 24 28  1  0
 24 25  2  0
 26 22  1  0
 27 26  2  0
 29 26  1  0
M  END
$$$$
