DYD.pdb
     RDKit          3D

 29 29  0  0  1  0  0  0  0  0999 V2000
   19.5602  -14.6069  -16.9532 N   0  0  0  0  0  0  0  0  0  0  0  0
   18.9537  -13.3107  -16.8542 C   0  0  1  0  0  0  0  0  0  0  0  0
   18.3165  -13.1481  -15.4768 C   0  0  0  0  0  0  0  0  0  0  0  0
   17.1205  -14.0172  -15.3617 C   0  0  0  0  0  0  0  0  0  0  0  0
   16.4020  -14.2225  -16.3580 O   0  0  0  0  0  0  0  0  0  0  0  0
   19.9639  -12.2260  -16.9905 C   0  0  0  0  0  0  0  0  0  0  0  0
   21.0989  -12.3892  -16.4735 O   0  0  0  0  0  0  0  0  0  0  0  0
   16.8404  -14.5800  -14.1262 O   0  0  0  0  0  0  0  0  0  0  0  0
   22.7016  -13.1734  -22.9945 O   0  0  0  0  0  0  0  0  0  0  0  0
   22.1715  -12.2598  -22.0885 C   0  0  0  0  0  0  0  0  0  0  0  0
   22.9506  -11.2586  -21.5476 C   0  0  0  0  0  0  0  0  0  0  0  0
   22.3646  -10.3794  -20.6505 C   0  0  0  0  0  0  0  0  0  0  0  0
   21.0433  -10.4974  -20.3053 C   0  0  0  0  0  0  0  0  0  0  0  0
   20.4540   -9.5593  -19.3531 C   0  0  0  0  0  0  0  0  0  0  0  0
   20.6151   -9.9816  -17.9026 C   0  0  2  0  0  0  0  0  0  0  0  0
   19.6290  -11.0386  -17.6955 N   0  0  0  0  0  0  0  0  0  0  0  0
   20.3137   -8.8565  -17.0057 C   0  0  0  0  0  0  0  0  0  0  0  0
   19.1041   -8.5101  -16.8090 O   0  0  0  0  0  0  0  0  0  0  0  0
   20.2648  -11.5007  -20.8482 C   0  0  0  0  0  0  0  0  0  0  0  0
   20.8384  -12.3693  -21.7329 C   0  0  0  0  0  0  0  0  0  0  0  0
   21.3060   -8.1066  -16.3224 N   0  0  0  0  0  0  0  0  0  0  0  0
   20.9132   -6.9968  -15.4431 C   0  0  1  0  0  0  0  0  0  0  0  0
   22.1064   -6.6635  -14.6134 C   0  0  0  0  0  0  0  0  0  0  0  0
   21.9691   -5.5396  -13.6931 C   0  0  0  0  0  0  0  0  0  0  0  0
   20.9074   -4.9558  -13.4830 O   0  0  0  0  0  0  0  0  0  0  0  0
   20.4386   -5.8623  -16.2807 C   0  0  0  0  0  0  0  0  0  0  0  0
   21.0780   -5.5125  -17.3302 O   0  0  0  0  0  0  0  0  0  0  0  0
   23.0983   -5.0729  -12.9898 O   0  0  0  0  0  0  0  0  0  0  0  0
   19.3151   -5.1298  -16.0007 O   0  0  0  0  0  0  0  0  0  0  0  0
  2  1  1  1
  2  3  1  0
  4  3  1  0
  4  8  1  0
  5  4  2  0
  6  2  1  0
  6  7  2  0
  9 10  1  0
 10 20  2  0
 10 11  1  0
 11 12  2  0
 12 13  1  0
 13 14  1  0
 15 14  1  6
 15 16  1  0
 16  6  1  0
 17 15  1  0
 18 17  2  0
 19 13  2  0
 20 19  1  0
 21 17  1  0
 22 21  1  0
 22 23  1  6
 23 24  1  0
 24 28  1  0
 24 25  2  0
 26 22  1  0
 27 26  2  0
 29 26  1  0
M  END
$$$$
