DYD.pdb
     RDKit          3D

 29 29  0  0  1  0  0  0  0  0999 V2000
   16.0778  -11.1198  -17.5615 N   0  0  0  0  0  0  0  0  0  0  0  0
   15.9919  -10.1882  -16.4741 C   0  0  1  0  0  0  0  0  0  0  0  0
   16.4759  -10.8556  -15.1895 C   0  0  0  0  0  0  0  0  0  0  0  0
   15.5048  -11.8881  -14.7534 C   0  0  0  0  0  0  0  0  0  0  0  0
   15.6185  -13.0602  -15.1583 O   0  0  0  0  0  0  0  0  0  0  0  0
   16.8681   -9.0064  -16.7001 C   0  0  0  0  0  0  0  0  0  0  0  0
   18.0180   -9.1892  -17.1759 O   0  0  0  0  0  0  0  0  0  0  0  0
   14.4867  -11.5036  -13.8946 O   0  0  0  0  0  0  0  0  0  0  0  0
   18.7687   -0.3611  -17.0318 O   0  0  0  0  0  0  0  0  0  0  0  0
   18.1513   -1.6029  -16.9169 C   0  0  0  0  0  0  0  0  0  0  0  0
   17.8858   -2.3726  -18.0300 C   0  0  0  0  0  0  0  0  0  0  0  0
   17.2687   -3.6007  -17.8502 C   0  0  0  0  0  0  0  0  0  0  0  0
   16.9280   -4.0445  -16.5988 C   0  0  0  0  0  0  0  0  0  0  0  0
   16.2738   -5.3409  -16.4403 C   0  0  0  0  0  0  0  0  0  0  0  0
   17.2116   -6.5227  -16.6190 C   0  0  2  0  0  0  0  0  0  0  0  0
   16.3924   -7.7071  -16.3767 N   0  0  0  0  0  0  0  0  0  0  0  0
   18.2940   -6.4717  -15.6254 C   0  0  0  0  0  0  0  0  0  0  0  0
   18.0317   -6.6591  -14.3934 O   0  0  0  0  0  0  0  0  0  0  0  0
   17.1949   -3.2722  -15.4855 C   0  0  0  0  0  0  0  0  0  0  0  0
   17.8030   -2.0612  -15.6582 C   0  0  0  0  0  0  0  0  0  0  0  0
   19.6520   -6.2212  -15.9524 N   0  0  0  0  0  0  0  0  0  0  0  0
   20.6702   -6.1936  -14.8934 C   0  0  1  0  0  0  0  0  0  0  0  0
   21.3818   -7.5028  -14.9479 C   0  0  0  0  0  0  0  0  0  0  0  0
   22.5320   -7.6587  -14.0637 C   0  0  0  0  0  0  0  0  0  0  0  0
   22.9256   -6.7826  -13.2958 O   0  0  0  0  0  0  0  0  0  0  0  0
   21.5636   -5.0243  -15.1133 C   0  0  0  0  0  0  0  0  0  0  0  0
   21.8037   -4.5981  -16.2938 O   0  0  0  0  0  0  0  0  0  0  0  0
   23.2535   -8.8697  -14.0660 O   0  0  0  0  0  0  0  0  0  0  0  0
   22.1768   -4.3360  -14.0997 O   0  0  0  0  0  0  0  0  0  0  0  0
  2  1  1  6
  2  3  1  0
  4  3  1  0
  4  8  1  0
  5  4  2  0
  6  2  1  0
  6  7  2  0
  9 10  1  0
 10 20  2  0
 10 11  1  0
 11 12  2  0
 12 13  1  0
 13 14  1  0
 15 14  1  1
 15 16  1  0
 16  6  1  0
 17 15  1  0
 18 17  2  0
 19 13  2  0
 20 19  1  0
 21 17  1  0
 22 21  1  0
 22 23  1  6
 23 24  1  0
 24 28  1  0
 24 25  2  0
 26 22  1  0
 27 26  2  0
 29 26  1  0
M  END
$$$$
