DYD.pdb
     RDKit          3D

 29 29  0  0  1  0  0  0  0  0999 V2000
   23.5931   -8.7808  -16.9586 N   0  0  0  0  0  0  0  0  0  0  0  0
   22.8911   -8.2998  -18.1135 C   0  0  1  0  0  0  0  0  0  0  0  0
   22.7061   -9.4401  -19.1112 C   0  0  0  0  0  0  0  0  0  0  0  0
   24.0261   -9.9346  -19.5718 C   0  0  0  0  0  0  0  0  0  0  0  0
   24.2028  -11.1526  -19.7620 O   0  0  0  0  0  0  0  0  0  0  0  0
   21.5293   -7.8146  -17.7589 C   0  0  0  0  0  0  0  0  0  0  0  0
   20.7808   -7.3917  -18.6770 O   0  0  0  0  0  0  0  0  0  0  0  0
   25.0342   -9.0056  -19.7780 O   0  0  0  0  0  0  0  0  0  0  0  0
   16.7394  -12.9153  -15.8361 O   0  0  0  0  0  0  0  0  0  0  0  0
   17.4103  -11.7327  -15.5397 C   0  0  0  0  0  0  0  0  0  0  0  0
   17.9184  -11.4983  -14.2792 C   0  0  0  0  0  0  0  0  0  0  0  0
   18.5766  -10.3009  -14.0461 C   0  0  0  0  0  0  0  0  0  0  0  0
   18.7219   -9.3685  -15.0404 C   0  0  0  0  0  0  0  0  0  0  0  0
   19.4159   -8.1132  -14.7642 C   0  0  0  0  0  0  0  0  0  0  0  0
   19.7909   -7.3362  -16.0148 C   0  0  2  0  0  0  0  0  0  0  0  0
   21.1060   -7.8387  -16.4027 N   0  0  0  0  0  0  0  0  0  0  0  0
   19.8909   -5.9006  -15.7144 C   0  0  0  0  0  0  0  0  0  0  0  0
   20.9901   -5.4179  -15.2893 O   0  0  0  0  0  0  0  0  0  0  0  0
   18.2124   -9.6053  -16.3020 C   0  0  0  0  0  0  0  0  0  0  0  0
   17.5630  -10.7842  -16.5360 C   0  0  0  0  0  0  0  0  0  0  0  0
   18.8164   -4.9868  -15.8700 N   0  0  0  0  0  0  0  0  0  0  0  0
   19.0168   -3.5602  -15.5808 C   0  0  1  0  0  0  0  0  0  0  0  0
   20.1024   -3.0869  -16.4867 C   0  0  0  0  0  0  0  0  0  0  0  0
   20.3413   -1.6480  -16.5243 C   0  0  0  0  0  0  0  0  0  0  0  0
   20.6349   -1.0318  -17.5471 O   0  0  0  0  0  0  0  0  0  0  0  0
   17.7280   -2.8427  -15.7756 C   0  0  0  0  0  0  0  0  0  0  0  0
   16.9690   -3.1195  -16.7656 O   0  0  0  0  0  0  0  0  0  0  0  0
   20.2373   -0.8932  -15.3381 O   0  0  0  0  0  0  0  0  0  0  0  0
   17.2701   -1.8623  -14.9350 O   0  0  0  0  0  0  0  0  0  0  0  0
  2  1  1  1
  2  3  1  0
  4  3  1  0
  4  8  1  0
  5  4  2  0
  6  2  1  0
  6  7  2  0
  9 10  1  0
 10 20  2  0
 10 11  1  0
 11 12  2  0
 12 13  1  0
 13 14  1  0
 15 14  1  1
 15 16  1  0
 16  6  1  0
 17 15  1  0
 18 17  2  0
 19 13  2  0
 20 19  1  0
 21 17  1  0
 22 21  1  0
 22 23  1  6
 23 24  1  0
 24 28  1  0
 24 25  2  0
 26 22  1  0
 27 26  2  0
 29 26  1  0
M  END
$$$$
