DYD.pdb
     RDKit          3D

 29 29  0  0  1  0  0  0  0  0999 V2000
   27.8495  -21.9073  -16.9158 N   0  0  0  0  0  0  0  0  0  0  0  0
   26.5660  -22.5282  -17.0732 C   0  0  1  0  0  0  0  0  0  0  0  0
   26.7505  -23.9916  -17.4662 C   0  0  0  0  0  0  0  0  0  0  0  0
   27.5669  -24.0898  -18.7002 C   0  0  0  0  0  0  0  0  0  0  0  0
   27.6329  -23.1224  -19.4817 O   0  0  0  0  0  0  0  0  0  0  0  0
   25.7980  -22.5199  -15.7981 C   0  0  0  0  0  0  0  0  0  0  0  0
   24.8086  -23.2882  -15.6839 O   0  0  0  0  0  0  0  0  0  0  0  0
   28.2398  -25.2772  -18.9436 O   0  0  0  0  0  0  0  0  0  0  0  0
   24.0813  -20.2222   -7.4356 O   0  0  0  0  0  0  0  0  0  0  0  0
   24.6854  -20.4075   -8.6755 C   0  0  0  0  0  0  0  0  0  0  0  0
   25.9633  -19.9508   -8.9210 C   0  0  0  0  0  0  0  0  0  0  0  0
   26.5103  -20.1659  -10.1764 C   0  0  0  0  0  0  0  0  0  0  0  0
   25.8029  -20.8161  -11.1540 C   0  0  0  0  0  0  0  0  0  0  0  0
   26.4031  -21.0239  -12.4695 C   0  0  0  0  0  0  0  0  0  0  0  0
   25.4364  -21.5848  -13.4986 C   0  0  2  0  0  0  0  0  0  0  0  0
   26.1941  -21.6520  -14.7451 N   0  0  0  0  0  0  0  0  0  0  0  0
   24.2938  -20.6768  -13.6756 C   0  0  0  0  0  0  0  0  0  0  0  0
   24.4590  -19.5581  -14.2614 O   0  0  0  0  0  0  0  0  0  0  0  0
   24.5233  -21.2726  -10.9060 C   0  0  0  0  0  0  0  0  0  0  0  0
   23.9805  -21.0627   -9.6701 C   0  0  0  0  0  0  0  0  0  0  0  0
   22.9796  -20.9680  -13.2262 N   0  0  0  0  0  0  0  0  0  0  0  0
   21.8698  -20.0670  -13.5664 C   0  0  1  0  0  0  0  0  0  0  0  0
   21.7727  -20.0483  -15.0542 C   0  0  0  0  0  0  0  0  0  0  0  0
   20.6505  -19.3121  -15.6266 C   0  0  0  0  0  0  0  0  0  0  0  0
   19.5049  -19.7546  -15.6885 O   0  0  0  0  0  0  0  0  0  0  0  0
   20.6321  -20.5523  -12.8982 C   0  0  0  0  0  0  0  0  0  0  0  0
   19.7182  -19.7336  -12.5413 O   0  0  0  0  0  0  0  0  0  0  0  0
   20.8585  -18.0182  -16.1462 O   0  0  0  0  0  0  0  0  0  0  0  0
   20.3846  -21.8716  -12.6240 O   0  0  0  0  0  0  0  0  0  0  0  0
  2  1  1  1
  2  3  1  0
  4  3  1  0
  4  8  1  0
  5  4  2  0
  6  2  1  0
  6  7  2  0
  9 10  1  0
 10 20  2  0
 10 11  1  0
 11 12  2  0
 12 13  1  0
 13 14  1  0
 15 14  1  1
 15 16  1  0
 16  6  1  0
 17 15  1  0
 18 17  2  0
 19 13  2  0
 20 19  1  0
 21 17  1  0
 22 21  1  0
 22 23  1  6
 23 24  1  0
 24 28  1  0
 24 25  2  0
 26 22  1  0
 27 26  2  0
 29 26  1  0
M  END
$$$$
