DPS.pdb
     RDKit          3D

 22 22  0  0  1  0  0  0  0  0999 V2000
    9.2196  -15.5849   21.0601 N   0  0  0  0  0  0  0  0  0  0  0  0
    8.2286  -15.6579   22.1447 C   0  0  1  0  0  0  0  0  0  0  0  0
    7.7739  -17.1239   22.0875 C   0  0  0  0  0  0  0  0  0  0  0  0
    7.1178  -17.3118   20.7683 C   0  0  0  0  0  0  0  0  0  0  0  0
    5.8903  -17.1006   20.5734 O   0  0  0  0  0  0  0  0  0  0  0  0
    8.8479  -15.3359   23.4614 C   0  0  0  0  0  0  0  0  0  0  0  0
    9.8372  -16.0278   23.7706 O   0  0  0  0  0  0  0  0  0  0  0  0
    7.8744  -17.7387   19.6893 O   0  0  0  0  0  0  0  0  0  0  0  0
    8.3735  -14.3319   24.3123 N   0  0  0  0  0  0  0  0  0  0  0  0
    7.8743  -13.0090   23.8160 C   0  0  0  0  0  0  0  0  0  0  0  0
    6.5275  -13.0053   24.4928 C   0  0  0  0  0  0  0  0  0  0  0  0
    6.6946  -13.8644   25.7532 C   0  0  0  0  0  0  0  0  0  0  0  0
    8.2074  -14.1483   25.7064 C   0  0  1  0  0  0  0  0  0  0  0  0
    8.6003  -15.1623   26.6466 C   0  0  0  0  0  0  0  0  0  0  0  0
    7.9438  -16.1558   26.9481 O   0  0  0  0  0  0  0  0  0  0  0  0
   12.6012  -15.5631   27.5009 O   0  0  0  0  0  0  0  0  0  0  0  0
   11.6715  -16.5978   27.6954 C   0  0  0  0  0  0  0  0  0  0  0  0
   10.3632  -16.0078   28.2396 C   0  0  2  0  0  0  0  0  0  0  0  0
    9.8844  -15.0183   27.3103 N   0  0  0  0  0  0  0  0  0  0  0  0
   10.5787  -15.4915   29.5881 C   0  0  0  0  0  0  0  0  0  0  0  0
   10.9652  -16.2519   30.5018 O   0  0  0  0  0  0  0  0  0  0  0  0
   10.3623  -14.1613   29.8834 O   0  0  0  0  0  0  0  0  0  0  0  0
  2  1  1  6
  2  6  1  0
  2  3  1  0
  3  4  1  0
  4  5  2  0
  4  8  1  0
  6  7  2  0
  9  6  1  0
  9 13  1  0
 10  9  1  0
 11 10  1  0
 11 12  1  0
 12 13  1  0
 13 14  1  1
 14 15  2  0
 14 19  1  0
 16 17  1  0
 18 17  1  6
 18 20  1  0
 19 18  1  0
 20 22  1  0
 21 20  2  0
M  END
$$$$
