DPS.pdb
     RDKit          3D

 22 22  0  0  1  0  0  0  0  0999 V2000
    8.6238  -14.9425   20.8675 N   0  0  0  0  0  0  0  0  0  0  0  0
    7.7089  -14.9962   22.0180 C   0  0  1  0  0  0  0  0  0  0  0  0
    6.9351  -16.3001   21.7724 C   0  0  0  0  0  0  0  0  0  0  0  0
    6.5223  -16.2843   20.3458 C   0  0  0  0  0  0  0  0  0  0  0  0
    7.2754  -16.6587   19.4067 O   0  0  0  0  0  0  0  0  0  0  0  0
    8.4627  -15.0498   23.3025 C   0  0  0  0  0  0  0  0  0  0  0  0
    9.3464  -15.9260   23.3678 O   0  0  0  0  0  0  0  0  0  0  0  0
    5.2532  -15.8404   20.0120 O   0  0  0  0  0  0  0  0  0  0  0  0
    8.2175  -14.1887   24.3775 N   0  0  0  0  0  0  0  0  0  0  0  0
    7.9948  -12.7163   24.2104 C   0  0  0  0  0  0  0  0  0  0  0  0
    6.6874  -12.5982   24.9510 C   0  0  0  0  0  0  0  0  0  0  0  0
    6.6914  -13.7338   25.9830 C   0  0  0  0  0  0  0  0  0  0  0  0
    8.1124  -14.2935   25.7856 C   0  0  1  0  0  0  0  0  0  0  0  0
    8.3011  -15.5497   26.4585 C   0  0  0  0  0  0  0  0  0  0  0  0
    7.4296  -16.3890   26.6710 O   0  0  0  0  0  0  0  0  0  0  0  0
   11.9760  -17.2774   26.3760 O   0  0  0  0  0  0  0  0  0  0  0  0
   10.7911  -17.9769   26.6572 C   0  0  0  0  0  0  0  0  0  0  0  0
    9.9109  -17.1298   27.5865 C   0  0  2  0  0  0  0  0  0  0  0  0
    9.6331  -15.8751   26.9379 N   0  0  0  0  0  0  0  0  0  0  0  0
   10.5604  -16.9879   28.8863 C   0  0  0  0  0  0  0  0  0  0  0  0
   10.8794  -15.8574   29.3134 O   0  0  0  0  0  0  0  0  0  0  0  0
   10.8353  -18.0909   29.6681 O   0  0  0  0  0  0  0  0  0  0  0  0
  2  1  1  6
  2  6  1  0
  2  3  1  0
  3  4  1  0
  4  5  2  0
  4  8  1  0
  6  7  2  0
  9  6  1  0
  9 13  1  0
 10  9  1  0
 11 10  1  0
 11 12  1  0
 12 13  1  0
 13 14  1  6
 14 15  2  0
 14 19  1  0
 16 17  1  0
 18 17  1  6
 18 20  1  0
 19 18  1  0
 20 22  1  0
 21 20  2  0
M  END
$$$$
