DPS.pdb
     RDKit          3D

 22 22  0  0  1  0  0  0  0  0999 V2000
   10.3342  -15.7933   15.5998 N   0  0  0  0  0  0  0  0  0  0  0  0
    9.1360  -15.6785   16.4454 C   0  0  1  0  0  0  0  0  0  0  0  0
    8.3937  -16.9920   16.1579 C   0  0  0  0  0  0  0  0  0  0  0  0
    7.9987  -16.9498   14.7268 C   0  0  0  0  0  0  0  0  0  0  0  0
    8.7102  -17.4263   13.8016 O   0  0  0  0  0  0  0  0  0  0  0  0
    9.5028  -15.5699   17.8857 C   0  0  0  0  0  0  0  0  0  0  0  0
   10.2061  -16.4978   18.3299 O   0  0  0  0  0  0  0  0  0  0  0  0
    6.7948  -16.3631   14.3726 O   0  0  0  0  0  0  0  0  0  0  0  0
    9.1004  -14.5110   18.7067 N   0  0  0  0  0  0  0  0  0  0  0  0
    8.9517  -13.1045   18.2117 C   0  0  0  0  0  0  0  0  0  0  0  0
    7.5400  -12.8485   18.6737 C   0  0  0  0  0  0  0  0  0  0  0  0
    7.3338  -13.7519   19.8968 C   0  0  0  0  0  0  0  0  0  0  0  0
    8.7511  -14.3297   20.0668 C   0  0  1  0  0  0  0  0  0  0  0  0
    8.7851  -15.4225   21.0002 C   0  0  0  0  0  0  0  0  0  0  0  0
    7.9075  -16.2694   21.1473 O   0  0  0  0  0  0  0  0  0  0  0  0
   12.4464  -16.2587   22.8760 O   0  0  0  0  0  0  0  0  0  0  0  0
   11.4849  -17.2530   22.6326 C   0  0  0  0  0  0  0  0  0  0  0  0
   10.0819  -16.6488   22.7820 C   0  0  2  0  0  0  0  0  0  0  0  0
    9.9520  -15.5552   21.8550 N   0  0  0  0  0  0  0  0  0  0  0  0
    9.8543  -16.2695   24.1734 C   0  0  0  0  0  0  0  0  0  0  0  0
    9.6938  -15.0693   24.4832 O   0  0  0  0  0  0  0  0  0  0  0  0
    9.8114  -17.2206   25.1718 O   0  0  0  0  0  0  0  0  0  0  0  0
  2  1  1  6
  2  6  1  0
  2  3  1  0
  3  4  1  0
  4  5  2  0
  4  8  1  0
  6  7  2  0
  9  6  1  0
  9 13  1  0
 10  9  1  0
 11 10  1  0
 11 12  1  0
 12 13  1  0
 13 14  1  1
 14 15  2  0
 14 19  1  0
 16 17  1  0
 18 17  1  1
 18 20  1  0
 19 18  1  0
 20 22  1  0
 21 20  2  0
M  END
$$$$
