DPS.pdb
     RDKit          3D

 22 22  0  0  1  0  0  0  0  0999 V2000
    8.8926  -17.1237   16.3014 N   0  0  0  0  0  0  0  0  0  0  0  0
    8.1347  -17.0094   17.5569 C   0  0  1  0  0  0  0  0  0  0  0  0
    7.6959  -18.4579   17.8186 C   0  0  0  0  0  0  0  0  0  0  0  0
    6.7502  -18.8160   16.7308 C   0  0  0  0  0  0  0  0  0  0  0  0
    7.1244  -19.2526   15.6089 O   0  0  0  0  0  0  0  0  0  0  0  0
    8.9963  -16.4988   18.6605 C   0  0  0  0  0  0  0  0  0  0  0  0
   10.0726  -17.1055   18.8232 O   0  0  0  0  0  0  0  0  0  0  0  0
    5.3886  -18.6701   16.9405 O   0  0  0  0  0  0  0  0  0  0  0  0
    8.6472  -15.4151   19.4736 N   0  0  0  0  0  0  0  0  0  0  0  0
    8.0131  -14.1658   18.9419 C   0  0  0  0  0  0  0  0  0  0  0  0
    6.8149  -14.1123   19.8547 C   0  0  0  0  0  0  0  0  0  0  0  0
    7.2450  -14.8218   21.1455 C   0  0  0  0  0  0  0  0  0  0  0  0
    8.7334  -15.0801   20.8466 C   0  0  1  0  0  0  0  0  0  0  0  0
    9.3326  -15.9750   21.7989 C   0  0  0  0  0  0  0  0  0  0  0  0
    8.8736  -17.0573   22.1553 O   0  0  0  0  0  0  0  0  0  0  0  0
   13.2618  -16.6365   24.6517 O   0  0  0  0  0  0  0  0  0  0  0  0
   12.6377  -15.8585   23.6628 C   0  0  0  0  0  0  0  0  0  0  0  0
   11.2167  -16.3872   23.4239 C   0  0  2  0  0  0  0  0  0  0  0  0
   10.5930  -15.5835   22.4055 N   0  0  0  0  0  0  0  0  0  0  0  0
   10.4814  -16.4118   24.6850 C   0  0  0  0  0  0  0  0  0  0  0  0
    9.6759  -15.4980   24.9649 O   0  0  0  0  0  0  0  0  0  0  0  0
   10.6575  -17.4373   25.5910 O   0  0  0  0  0  0  0  0  0  0  0  0
  2  1  1  6
  2  6  1  0
  2  3  1  0
  3  4  1  0
  4  5  2  0
  4  8  1  0
  6  7  2  0
  9  6  1  0
  9 13  1  0
 10  9  1  0
 11 10  1  0
 11 12  1  0
 12 13  1  0
 13 14  1  1
 14 15  2  0
 14 19  1  0
 16 17  1  0
 18 17  1  1
 18 20  1  0
 19 18  1  0
 20 22  1  0
 21 20  2  0
M  END
$$$$
