DPS.pdb
     RDKit          3D

 22 22  0  0  1  0  0  0  0  0999 V2000
    9.2863  -17.1610   16.7888 N   0  0  0  0  0  0  0  0  0  0  0  0
    8.3596  -16.5749   17.7693 C   0  0  1  0  0  0  0  0  0  0  0  0
    7.3797  -17.7269   18.0372 C   0  0  0  0  0  0  0  0  0  0  0  0
    7.0634  -18.3285   16.7167 C   0  0  0  0  0  0  0  0  0  0  0  0
    6.2361  -19.2681   16.5683 O   0  0  0  0  0  0  0  0  0  0  0  0
    9.0756  -16.1749   19.0136 C   0  0  0  0  0  0  0  0  0  0  0  0
    9.9310  -16.9840   19.4220 O   0  0  0  0  0  0  0  0  0  0  0  0
    7.6975  -17.8473   15.5829 O   0  0  0  0  0  0  0  0  0  0  0  0
    8.8262  -14.9801   19.6972 N   0  0  0  0  0  0  0  0  0  0  0  0
    8.7017  -13.6553   19.0079 C   0  0  0  0  0  0  0  0  0  0  0  0
    7.3664  -13.2331   19.5653 C   0  0  0  0  0  0  0  0  0  0  0  0
    7.2474  -13.9283   20.9281 C   0  0  0  0  0  0  0  0  0  0  0  0
    8.6406  -14.5747   21.0411 C   0  0  1  0  0  0  0  0  0  0  0  0
    8.7174  -15.5168   22.1242 C   0  0  0  0  0  0  0  0  0  0  0  0
    7.7947  -16.2161   22.5349 O   0  0  0  0  0  0  0  0  0  0  0  0
   12.3787  -17.0497   23.1081 O   0  0  0  0  0  0  0  0  0  0  0  0
   11.1711  -17.6757   23.4579 C   0  0  0  0  0  0  0  0  0  0  0  0
   10.1531  -16.6097   23.8861 C   0  0  2  0  0  0  0  0  0  0  0  0
    9.9901  -15.6710   22.8071 N   0  0  0  0  0  0  0  0  0  0  0  0
   10.5808  -15.9952   25.1396 C   0  0  0  0  0  0  0  0  0  0  0  0
   10.9233  -14.7936   25.1698 O   0  0  0  0  0  0  0  0  0  0  0  0
   10.6166  -16.7218   26.3119 O   0  0  0  0  0  0  0  0  0  0  0  0
  2  1  1  6
  2  6  1  0
  2  3  1  0
  3  4  1  0
  4  5  2  0
  4  8  1  0
  6  7  2  0
  9  6  1  0
  9 13  1  0
 10  9  1  0
 11 10  1  0
 11 12  1  0
 12 13  1  0
 13 14  1  1
 14 15  2  0
 14 19  1  0
 16 17  1  0
 18 17  1  6
 18 20  1  0
 19 18  1  0
 20 22  1  0
 21 20  2  0
M  END
$$$$
