DPS.pdb
     RDKit          3D

 22 22  0  0  1  0  0  0  0  0999 V2000
   10.0166  -15.4797   15.0123 N   0  0  0  0  0  0  0  0  0  0  0  0
    8.9896  -15.4278   16.0641 C   0  0  1  0  0  0  0  0  0  0  0  0
    8.3269  -16.8092   15.9564 C   0  0  0  0  0  0  0  0  0  0  0  0
    7.8400  -16.9366   14.5590 C   0  0  0  0  0  0  0  0  0  0  0  0
    6.8672  -16.2753   14.1057 O   0  0  0  0  0  0  0  0  0  0  0  0
    9.6046  -15.2275   17.4068 C   0  0  0  0  0  0  0  0  0  0  0  0
   10.6133  -15.9205   17.6417 O   0  0  0  0  0  0  0  0  0  0  0  0
    8.4723  -17.8189   13.6984 O   0  0  0  0  0  0  0  0  0  0  0  0
    9.1064  -14.3304   18.3576 N   0  0  0  0  0  0  0  0  0  0  0  0
    8.6895  -12.9310   18.0208 C   0  0  0  0  0  0  0  0  0  0  0  0
    7.2992  -12.9613   18.6022 C   0  0  0  0  0  0  0  0  0  0  0  0
    7.3469  -13.9925   19.7375 C   0  0  0  0  0  0  0  0  0  0  0  0
    8.8486  -14.3337   19.7499 C   0  0  1  0  0  0  0  0  0  0  0  0
    9.1387  -15.4840   20.5617 C   0  0  0  0  0  0  0  0  0  0  0  0
    8.4409  -16.4905   20.6575 O   0  0  0  0  0  0  0  0  0  0  0  0
   13.0368  -15.8971   22.1270 O   0  0  0  0  0  0  0  0  0  0  0  0
   12.1980  -16.9767   21.8051 C   0  0  0  0  0  0  0  0  0  0  0  0
   10.7469  -16.6098   22.1450 C   0  0  2  0  0  0  0  0  0  0  0  0
   10.3610  -15.4760   21.3466 N   0  0  0  0  0  0  0  0  0  0  0  0
   10.6186  -16.3871   23.5822 C   0  0  0  0  0  0  0  0  0  0  0  0
   10.8950  -17.2997   24.3903 O   0  0  0  0  0  0  0  0  0  0  0  0
   10.1922  -15.1725   24.0784 O   0  0  0  0  0  0  0  0  0  0  0  0
  2  1  1  6
  2  6  1  0
  2  3  1  0
  3  4  1  0
  4  5  2  0
  4  8  1  0
  6  7  2  0
  9  6  1  0
  9 13  1  0
 10  9  1  0
 11 10  1  0
 11 12  1  0
 12 13  1  0
 13 14  1  6
 14 15  2  0
 14 19  1  0
 16 17  1  0
 18 17  1  1
 18 20  1  0
 19 18  1  0
 20 22  1  0
 21 20  2  0
M  END
$$$$
