DPS.pdb
     RDKit          3D

 22 22  0  0  1  0  0  0  0  0999 V2000
    9.8903  -16.3798   15.7727 N   0  0  0  0  0  0  0  0  0  0  0  0
    8.8559  -15.9682   16.7342 C   0  0  1  0  0  0  0  0  0  0  0  0
    7.9264  -17.1904   16.7728 C   0  0  0  0  0  0  0  0  0  0  0  0
    7.5040  -17.4445   15.3718 C   0  0  0  0  0  0  0  0  0  0  0  0
    6.4028  -17.0495   14.9021 O   0  0  0  0  0  0  0  0  0  0  0  0
    9.4461  -15.6964   18.0754 C   0  0  0  0  0  0  0  0  0  0  0  0
   10.3529  -16.4749   18.4284 O   0  0  0  0  0  0  0  0  0  0  0  0
    8.3468  -18.1473   14.5263 O   0  0  0  0  0  0  0  0  0  0  0  0
    9.0314  -14.6471   18.9026 N   0  0  0  0  0  0  0  0  0  0  0  0
    8.7828  -13.2582   18.3978 C   0  0  0  0  0  0  0  0  0  0  0  0
    7.3854  -13.0691   18.9303 C   0  0  0  0  0  0  0  0  0  0  0  0
    7.2913  -13.9626   20.1742 C   0  0  0  0  0  0  0  0  0  0  0  0
    8.7442  -14.4627   20.2768 C   0  0  1  0  0  0  0  0  0  0  0  0
    8.8845  -15.5374   21.2212 C   0  0  0  0  0  0  0  0  0  0  0  0
    8.1627  -16.5288   21.2942 O   0  0  0  0  0  0  0  0  0  0  0  0
   12.2905  -15.5286   23.7555 O   0  0  0  0  0  0  0  0  0  0  0  0
   11.6983  -16.7216   23.3100 C   0  0  0  0  0  0  0  0  0  0  0  0
   10.1867  -16.5083   23.1505 C   0  0  2  0  0  0  0  0  0  0  0  0
    9.9700  -15.4641   22.1837 N   0  0  0  0  0  0  0  0  0  0  0  0
    9.5872  -16.2359   24.4536 C   0  0  0  0  0  0  0  0  0  0  0  0
    9.0387  -15.1358   24.6794 O   0  0  0  0  0  0  0  0  0  0  0  0
    9.6122  -17.1802   25.4592 O   0  0  0  0  0  0  0  0  0  0  0  0
  2  1  1  6
  2  6  1  0
  2  3  1  0
  3  4  1  0
  4  5  2  0
  4  8  1  0
  6  7  2  0
  9  6  1  0
  9 13  1  0
 10  9  1  0
 11 10  1  0
 11 12  1  0
 12 13  1  0
 13 14  1  1
 14 15  2  0
 14 19  1  0
 16 17  1  0
 18 17  1  1
 18 20  1  0
 19 18  1  0
 20 22  1  0
 21 20  2  0
M  END
$$$$
