DPS.pdb
     RDKit          3D

 22 22  0  0  1  0  0  0  0  0999 V2000
    8.8571  -15.1941   21.3676 N   0  0  0  0  0  0  0  0  0  0  0  0
    7.9182  -15.1694   22.4996 C   0  0  1  0  0  0  0  0  0  0  0  0
    7.3600  -16.6003   22.5057 C   0  0  0  0  0  0  0  0  0  0  0  0
    6.7185  -16.8092   21.1825 C   0  0  0  0  0  0  0  0  0  0  0  0
    5.7608  -16.1052   20.7626 O   0  0  0  0  0  0  0  0  0  0  0  0
    8.6227  -14.8595   23.7758 C   0  0  0  0  0  0  0  0  0  0  0  0
    9.6539  -15.5248   23.9926 O   0  0  0  0  0  0  0  0  0  0  0  0
    7.1808  -17.8210   20.3570 O   0  0  0  0  0  0  0  0  0  0  0  0
    8.1807  -13.8938   24.6864 N   0  0  0  0  0  0  0  0  0  0  0  0
    7.7461  -12.5203   24.2738 C   0  0  0  0  0  0  0  0  0  0  0  0
    6.3917  -12.5018   24.9348 C   0  0  0  0  0  0  0  0  0  0  0  0
    6.5041  -13.4487   26.1370 C   0  0  0  0  0  0  0  0  0  0  0  0
    8.0037  -13.7954   26.0878 C   0  0  1  0  0  0  0  0  0  0  0  0
    8.3394  -14.8856   26.9626 C   0  0  0  0  0  0  0  0  0  0  0  0
    7.5484  -15.6997   27.4324 O   0  0  0  0  0  0  0  0  0  0  0  0
   12.2824  -16.1999   27.1263 O   0  0  0  0  0  0  0  0  0  0  0  0
   11.1760  -16.9895   27.4798 C   0  0  0  0  0  0  0  0  0  0  0  0
   10.1470  -16.1199   28.2153 C   0  0  2  0  0  0  0  0  0  0  0  0
    9.7323  -15.0576   27.3369 N   0  0  0  0  0  0  0  0  0  0  0  0
   10.7103  -15.6517   29.4782 C   0  0  0  0  0  0  0  0  0  0  0  0
   10.8414  -14.4280   29.6967 O   0  0  0  0  0  0  0  0  0  0  0  0
   11.1082  -16.5429   30.4533 O   0  0  0  0  0  0  0  0  0  0  0  0
  2  1  1  6
  2  6  1  0
  2  3  1  0
  3  4  1  0
  4  5  2  0
  4  8  1  0
  6  7  2  0
  9  6  1  0
  9 13  1  0
 10  9  1  0
 11 10  1  0
 11 12  1  0
 12 13  1  0
 13 14  1  1
 14 15  2  0
 14 19  1  0
 16 17  1  0
 18 17  1  6
 18 20  1  0
 19 18  1  0
 20 22  1  0
 21 20  2  0
M  END
$$$$
