DPS.pdb
     RDKit          3D

 22 22  0  0  1  0  0  0  0  0999 V2000
   10.2148  -15.5480   15.3248 N   0  0  0  0  0  0  0  0  0  0  0  0
    9.1472  -15.4954   16.3353 C   0  0  1  0  0  0  0  0  0  0  0  0
    8.4821  -16.8728   16.1948 C   0  0  0  0  0  0  0  0  0  0  0  0
    7.9699  -16.9547   14.8031 C   0  0  0  0  0  0  0  0  0  0  0  0
    7.0596  -16.2042   14.3589 O   0  0  0  0  0  0  0  0  0  0  0  0
    9.7095  -15.3046   17.7022 C   0  0  0  0  0  0  0  0  0  0  0  0
   10.6627  -16.0512   17.9974 O   0  0  0  0  0  0  0  0  0  0  0  0
    8.5058  -17.8942   13.9375 O   0  0  0  0  0  0  0  0  0  0  0  0
    9.2220  -14.3605   18.6122 N   0  0  0  0  0  0  0  0  0  0  0  0
    8.8785  -12.9542   18.2251 C   0  0  0  0  0  0  0  0  0  0  0  0
    7.4707  -12.9077   18.7615 C   0  0  0  0  0  0  0  0  0  0  0  0
    7.4369  -13.9080   19.9247 C   0  0  0  0  0  0  0  0  0  0  0  0
    8.9208  -14.3138   19.9950 C   0  0  1  0  0  0  0  0  0  0  0  0
    9.1340  -15.4525   20.8461 C   0  0  0  0  0  0  0  0  0  0  0  0
    8.4445  -16.4688   20.8727 O   0  0  0  0  0  0  0  0  0  0  0  0
   12.7751  -15.6101   22.9875 O   0  0  0  0  0  0  0  0  0  0  0  0
   12.1428  -16.7546   22.4748 C   0  0  0  0  0  0  0  0  0  0  0  0
   10.6210  -16.5693   22.5496 C   0  0  2  0  0  0  0  0  0  0  0  0
   10.2595  -15.4188   21.7638 N   0  0  0  0  0  0  0  0  0  0  0  0
   10.2032  -16.4819   23.9458 C   0  0  0  0  0  0  0  0  0  0  0  0
    9.6783  -15.4357   24.3841 O   0  0  0  0  0  0  0  0  0  0  0  0
   10.3769  -17.5449   24.8080 O   0  0  0  0  0  0  0  0  0  0  0  0
  2  1  1  6
  2  6  1  0
  2  3  1  0
  3  4  1  0
  4  5  2  0
  4  8  1  0
  6  7  2  0
  9  6  1  0
  9 13  1  0
 10  9  1  0
 11 10  1  0
 11 12  1  0
 12 13  1  0
 13 14  1  6
 14 15  2  0
 14 19  1  0
 16 17  1  0
 18 17  1  1
 18 20  1  0
 19 18  1  0
 20 22  1  0
 21 20  2  0
M  END
$$$$
