DPS.pdb
     RDKit          3D

 22 22  0  0  1  0  0  0  0  0999 V2000
    9.2280  -15.7857   15.5598 N   0  0  0  0  0  0  0  0  0  0  0  0
    8.3359  -16.0865   16.6901 C   0  0  1  0  0  0  0  0  0  0  0  0
    7.9853  -17.5639   16.4587 C   0  0  0  0  0  0  0  0  0  0  0  0
    7.1312  -17.9794   17.6005 C   0  0  0  0  0  0  0  0  0  0  0  0
    6.1935  -17.2690   18.0534 O   0  0  0  0  0  0  0  0  0  0  0  0
    9.0349  -15.8952   17.9924 C   0  0  0  0  0  0  0  0  0  0  0  0
    9.8566  -16.7823   18.2937 O   0  0  0  0  0  0  0  0  0  0  0  0
    7.3611  -19.2023   18.2094 O   0  0  0  0  0  0  0  0  0  0  0  0
    8.8052  -14.8051   18.8385 N   0  0  0  0  0  0  0  0  0  0  0  0
    8.5060  -13.4268   18.3322 C   0  0  0  0  0  0  0  0  0  0  0  0
    7.2340  -13.1731   19.1000 C   0  0  0  0  0  0  0  0  0  0  0  0
    7.3435  -14.0199   20.3750 C   0  0  0  0  0  0  0  0  0  0  0  0
    8.7771  -14.5643   20.2335 C   0  0  1  0  0  0  0  0  0  0  0  0
    9.0579  -15.6101   21.1791 C   0  0  0  0  0  0  0  0  0  0  0  0
    8.2776  -16.4926   21.5273 O   0  0  0  0  0  0  0  0  0  0  0  0
   13.0066  -15.8608   22.7374 O   0  0  0  0  0  0  0  0  0  0  0  0
   12.2529  -17.0119   22.4553 C   0  0  0  0  0  0  0  0  0  0  0  0
   10.7643  -16.7096   22.6757 C   0  0  2  0  0  0  0  0  0  0  0  0
   10.3760  -15.6445   21.7886 N   0  0  0  0  0  0  0  0  0  0  0  0
   10.5244  -16.4166   24.0857 C   0  0  0  0  0  0  0  0  0  0  0  0
   10.1133  -15.2894   24.4360 O   0  0  0  0  0  0  0  0  0  0  0  0
   10.7444  -17.3707   25.0577 O   0  0  0  0  0  0  0  0  0  0  0  0
  2  1  1  6
  2  6  1  0
  2  3  1  0
  3  4  1  0
  4  5  2  0
  4  8  1  0
  6  7  2  0
  9  6  1  0
  9 13  1  0
 10  9  1  0
 11 10  1  0
 11 12  1  0
 12 13  1  0
 13 14  1  1
 14 15  2  0
 14 19  1  0
 16 17  1  0
 18 17  1  1
 18 20  1  0
 19 18  1  0
 20 22  1  0
 21 20  2  0
M  END
$$$$
