DPS.pdb
     RDKit          3D

 22 22  0  0  1  0  0  0  0  0999 V2000
    9.6451  -16.2149   15.5514 N   0  0  0  0  0  0  0  0  0  0  0  0
    8.6859  -15.7999   16.5865 C   0  0  1  0  0  0  0  0  0  0  0  0
    7.7389  -17.0062   16.6713 C   0  0  0  0  0  0  0  0  0  0  0  0
    7.2980  -17.2958   15.2829 C   0  0  0  0  0  0  0  0  0  0  0  0
    7.0343  -16.3944   14.4420 O   0  0  0  0  0  0  0  0  0  0  0  0
    9.3704  -15.5585   17.8882 C   0  0  0  0  0  0  0  0  0  0  0  0
   10.3410  -16.3025   18.1281 O   0  0  0  0  0  0  0  0  0  0  0  0
    7.1645  -18.6128   14.8746 O   0  0  0  0  0  0  0  0  0  0  0  0
    8.9735  -14.5722   18.7974 N   0  0  0  0  0  0  0  0  0  0  0  0
    8.6333  -13.1718   18.3867 C   0  0  0  0  0  0  0  0  0  0  0  0
    7.2709  -13.0722   19.0239 C   0  0  0  0  0  0  0  0  0  0  0  0
    7.3021  -14.0312   20.2214 C   0  0  0  0  0  0  0  0  0  0  0  0
    8.7777  -14.4710   20.1961 C   0  0  1  0  0  0  0  0  0  0  0  0
    9.0286  -15.5852   21.0693 C   0  0  0  0  0  0  0  0  0  0  0  0
    8.3128  -16.5756   21.1942 O   0  0  0  0  0  0  0  0  0  0  0  0
   12.7992  -15.8273   23.0358 O   0  0  0  0  0  0  0  0  0  0  0  0
   12.0553  -16.9499   22.6373 C   0  0  0  0  0  0  0  0  0  0  0  0
   10.5582  -16.6405   22.7743 C   0  0  2  0  0  0  0  0  0  0  0  0
   10.2301  -15.5571   21.8851 N   0  0  0  0  0  0  0  0  0  0  0  0
   10.2367  -16.3706   24.1726 C   0  0  0  0  0  0  0  0  0  0  0  0
   10.4228  -17.2468   25.0444 O   0  0  0  0  0  0  0  0  0  0  0  0
    9.7233  -15.1506   24.5617 O   0  0  0  0  0  0  0  0  0  0  0  0
  2  1  1  6
  2  6  1  0
  2  3  1  0
  3  4  1  0
  4  5  2  0
  4  8  1  0
  6  7  2  0
  9  6  1  0
  9 13  1  0
 10  9  1  0
 11 10  1  0
 11 12  1  0
 12 13  1  0
 13 14  1  1
 14 15  2  0
 14 19  1  0
 16 17  1  0
 18 17  1  1
 18 20  1  0
 19 18  1  0
 20 22  1  0
 21 20  2  0
M  END
$$$$
