DPS.pdb
     RDKit          3D

 22 22  0  0  1  0  0  0  0  0999 V2000
    9.3734  -17.8805   17.5097 N   0  0  0  0  0  0  0  0  0  0  0  0
    8.3810  -17.1407   18.3045 C   0  0  1  0  0  0  0  0  0  0  0  0
    7.4368  -18.2531   18.7845 C   0  0  0  0  0  0  0  0  0  0  0  0
    6.8343  -18.8511   17.5658 C   0  0  0  0  0  0  0  0  0  0  0  0
    5.7969  -18.3935   17.0148 O   0  0  0  0  0  0  0  0  0  0  0  0
    9.0240  -16.4449   19.4549 C   0  0  0  0  0  0  0  0  0  0  0  0
    9.8527  -17.1216   20.0938 O   0  0  0  0  0  0  0  0  0  0  0  0
    7.4264  -19.9649   16.9932 O   0  0  0  0  0  0  0  0  0  0  0  0
    8.7373  -15.1241   19.8158 N   0  0  0  0  0  0  0  0  0  0  0  0
    8.6144  -14.0128   18.8180 C   0  0  0  0  0  0  0  0  0  0  0  0
    7.2572  -13.4949   19.2199 C   0  0  0  0  0  0  0  0  0  0  0  0
    7.1077  -13.8352   20.7086 C   0  0  0  0  0  0  0  0  0  0  0  0
    8.5060  -14.4042   21.0130 C   0  0  1  0  0  0  0  0  0  0  0  0
    8.5639  -15.0486   22.2966 C   0  0  0  0  0  0  0  0  0  0  0  0
    7.6151  -15.2206   23.0578 O   0  0  0  0  0  0  0  0  0  0  0  0
   10.7196  -18.2356   23.0785 O   0  0  0  0  0  0  0  0  0  0  0  0
    9.7358  -17.6689   23.9051 C   0  0  0  0  0  0  0  0  0  0  0  0
    9.9982  -16.1632   24.0462 C   0  0  2  0  0  0  0  0  0  0  0  0
    9.8491  -15.5482   22.7533 N   0  0  0  0  0  0  0  0  0  0  0  0
   11.3085  -15.9459   24.6524 C   0  0  0  0  0  0  0  0  0  0  0  0
   11.5235  -16.2925   25.8339 O   0  0  0  0  0  0  0  0  0  0  0  0
   12.3328  -15.3570   23.9401 O   0  0  0  0  0  0  0  0  0  0  0  0
  2  1  1  6
  2  6  1  0
  2  3  1  0
  3  4  1  0
  4  5  2  0
  4  8  1  0
  6  7  2  0
  9  6  1  0
  9 13  1  0
 10  9  1  0
 11 10  1  0
 11 12  1  0
 12 13  1  0
 13 14  1  1
 14 15  2  0
 14 19  1  0
 16 17  1  0
 18 17  1  6
 18 20  1  0
 19 18  1  0
 20 22  1  0
 21 20  2  0
M  END
$$$$
