DPS.pdb
     RDKit          3D

 22 22  0  0  1  0  0  0  0  0999 V2000
   10.4076  -15.4886   15.5727 N   0  0  0  0  0  0  0  0  0  0  0  0
    9.2803  -15.2586   16.4892 C   0  0  1  0  0  0  0  0  0  0  0  0
    8.4016  -16.4973   16.2599 C   0  0  0  0  0  0  0  0  0  0  0  0
    8.0147  -16.4815   14.8260 C   0  0  0  0  0  0  0  0  0  0  0  0
    7.8115  -15.4187   14.1792 O   0  0  0  0  0  0  0  0  0  0  0  0
    9.7443  -15.1803   17.9032 C   0  0  0  0  0  0  0  0  0  0  0  0
   10.6242  -16.0026   18.2237 O   0  0  0  0  0  0  0  0  0  0  0  0
    7.8654  -17.6818   14.1506 O   0  0  0  0  0  0  0  0  0  0  0  0
    9.2452  -14.2579   18.8291 N   0  0  0  0  0  0  0  0  0  0  0  0
    8.9192  -12.8390   18.4741 C   0  0  0  0  0  0  0  0  0  0  0  0
    7.5013  -12.7968   18.9837 C   0  0  0  0  0  0  0  0  0  0  0  0
    7.4375  -13.8282   20.1180 C   0  0  0  0  0  0  0  0  0  0  0  0
    8.9169  -14.2468   20.2064 C   0  0  1  0  0  0  0  0  0  0  0  0
    9.1052  -15.4100   21.0298 C   0  0  0  0  0  0  0  0  0  0  0  0
    8.3170  -16.3454   21.1432 O   0  0  0  0  0  0  0  0  0  0  0  0
   12.9242  -16.0252   22.7147 O   0  0  0  0  0  0  0  0  0  0  0  0
   12.0697  -17.0854   22.3705 C   0  0  0  0  0  0  0  0  0  0  0  0
   10.6144  -16.6632   22.6147 C   0  0  2  0  0  0  0  0  0  0  0  0
   10.3297  -15.5076   21.8050 N   0  0  0  0  0  0  0  0  0  0  0  0
   10.3966  -16.4483   24.0423 C   0  0  0  0  0  0  0  0  0  0  0  0
   10.0813  -15.3171   24.4703 O   0  0  0  0  0  0  0  0  0  0  0  0
   10.5327  -17.4818   24.9460 O   0  0  0  0  0  0  0  0  0  0  0  0
  2  1  1  6
  2  6  1  0
  2  3  1  0
  3  4  1  0
  4  5  2  0
  4  8  1  0
  6  7  2  0
  9  6  1  0
  9 13  1  0
 10  9  1  0
 11 10  1  0
 11 12  1  0
 12 13  1  0
 13 14  1  6
 14 15  2  0
 14 19  1  0
 16 17  1  0
 18 17  1  1
 18 20  1  0
 19 18  1  0
 20 22  1  0
 21 20  2  0
M  END
$$$$
