QSW.pdb
     RDKit          3D

 30 31  0  0  1  0  0  0  0  0999 V2000
    8.9660  -11.8485   19.0845 N   0  0  0  0  0  0  0  0  0  0  0  0
    8.2901  -12.8376   18.3420 C   0  0  0  0  0  0  0  0  0  0  0  0
    8.7703  -13.2118   17.2349 O   0  0  0  0  0  0  0  0  0  0  0  0
    7.0213  -13.4677   18.8186 C   0  0  0  0  0  0  0  0  0  0  0  0
    7.3356  -14.1259   20.1306 C   0  0  0  0  0  0  0  0  0  0  0  0
    8.5316  -15.0603   20.0904 C   0  0  2  0  0  0  0  0  0  0  0  0
    8.2536  -16.0555   19.0343 N   0  0  0  0  0  0  0  0  0  0  0  0
    8.5731  -15.8066   21.3762 C   0  0  0  0  0  0  0  0  0  0  0  0
    7.5274  -15.8600   22.0869 O   0  0  0  0  0  0  0  0  0  0  0  0
   12.0604  -17.5577   22.3775 O   0  0  0  0  0  0  0  0  0  0  0  0
   10.9780  -18.3156   22.8176 C   0  0  0  0  0  0  0  0  0  0  0  0
    9.7951  -17.3490   22.9632 C   0  0  2  0  0  0  0  0  0  0  0  0
    9.7215  -16.4649   21.8479 N   0  0  0  0  0  0  0  0  0  0  0  0
    9.9859  -16.6862   24.2591 C   0  0  0  0  0  0  0  0  0  0  0  0
   10.6565  -15.5862   24.1846 O   0  0  0  0  0  0  0  0  0  0  0  0
    9.5024  -17.1523   25.5023 N   0  0  0  0  0  0  0  0  0  0  0  0
    9.9462  -16.5053   26.7090 C   0  0  1  0  0  0  0  0  0  0  0  0
    8.7874  -15.9803   27.5173 C   0  0  0  0  0  0  0  0  0  0  0  0
    7.8162  -15.1642   26.7843 C   0  0  0  0  0  0  0  0  0  0  0  0
    6.7668  -15.7415   26.0419 C   0  0  0  0  0  0  0  0  0  0  0  0
    6.0313  -14.7505   25.5156 N   0  0  0  0  0  0  0  0  0  0  0  0
    6.5267  -13.5598   25.8629 C   0  0  0  0  0  0  0  0  0  0  0  0
    6.1376  -12.2767   25.5740 C   0  0  0  0  0  0  0  0  0  0  0  0
    6.8900  -11.2531   26.0944 C   0  0  0  0  0  0  0  0  0  0  0  0
    7.9995  -11.4319   26.8785 C   0  0  0  0  0  0  0  0  0  0  0  0
    8.3649  -12.7490   27.1506 C   0  0  0  0  0  0  0  0  0  0  0  0
    7.6288  -13.8239   26.6446 C   0  0  0  0  0  0  0  0  0  0  0  0
   10.8809  -17.3511   27.4508 C   0  0  0  0  0  0  0  0  0  0  0  0
   11.1621  -18.5502   27.1452 O   0  0  0  0  0  0  0  0  0  0  0  0
   11.5406  -16.8592   28.5746 O   0  0  0  0  0  0  0  0  0  0  0  0
  2  1  1  0
  3  2  2  0
  4  2  1  0
  5  6  1  0
  5  4  1  0
  6  8  1  0
  6  7  1  6
  8  9  2  0
 10 11  1  0
 12 11  1  6
 12 14  1  0
 13  8  1  0
 13 12  1  0
 14 15  2  0
 16 17  1  0
 16 14  1  0
 17 28  1  0
 17 18  1  1
 19 18  1  0
 20 19  2  0
 21 22  1  0
 21 20  1  0
 22 27  2  0
 23 22  1  0
 23 24  2  0
 24 25  1  0
 25 26  2  0
 27 19  1  0
 27 26  1  0
 28 29  2  0
 28 30  1  0
M  END
$$$$
