QSW.pdb
     RDKit          3D

 30 31  0  0  1  0  0  0  0  0999 V2000
    8.2827  -13.6364   15.1832 N   0  0  0  0  0  0  0  0  0  0  0  0
    8.0358  -14.4247   16.3252 C   0  0  0  0  0  0  0  0  0  0  0  0
    8.5567  -15.5730   16.4049 O   0  0  0  0  0  0  0  0  0  0  0  0
    7.1794  -13.9500   17.4546 C   0  0  0  0  0  0  0  0  0  0  0  0
    8.0245  -13.0154   18.2705 C   0  0  0  0  0  0  0  0  0  0  0  0
    9.2164  -13.6748   18.9411 C   0  0  2  0  0  0  0  0  0  0  0  0
    9.6897  -14.7277   18.0189 N   0  0  0  0  0  0  0  0  0  0  0  0
    8.7284  -14.3688   20.1626 C   0  0  0  0  0  0  0  0  0  0  0  0
    8.2482  -13.6785   21.1082 O   0  0  0  0  0  0  0  0  0  0  0  0
    9.5300  -18.4087   20.8149 O   0  0  0  0  0  0  0  0  0  0  0  0
    8.2386  -17.9999   21.1387 C   0  0  0  0  0  0  0  0  0  0  0  0
    8.3192  -16.5010   21.4576 C   0  0  2  0  0  0  0  0  0  0  0  0
    8.7694  -15.7642   20.3239 N   0  0  0  0  0  0  0  0  0  0  0  0
    9.1838  -16.3962   22.6393 C   0  0  0  0  0  0  0  0  0  0  0  0
   10.4268  -16.1967   22.3559 O   0  0  0  0  0  0  0  0  0  0  0  0
    8.7576  -16.4898   23.9833 N   0  0  0  0  0  0  0  0  0  0  0  0
    9.7380  -16.3963   25.0330 C   0  0  1  0  0  0  0  0  0  0  0  0
    9.4968  -15.1976   25.9144 C   0  0  0  0  0  0  0  0  0  0  0  0
    8.1384  -14.6496   25.8881 C   0  0  0  0  0  0  0  0  0  0  0  0
    7.0063  -15.4710   25.7165 C   0  0  0  0  0  0  0  0  0  0  0  0
    5.9135  -14.6944   25.7685 N   0  0  0  0  0  0  0  0  0  0  0  0
    6.2513  -13.4171   25.9637 C   0  0  0  0  0  0  0  0  0  0  0  0
    5.5065  -12.2711   26.0787 C   0  0  0  0  0  0  0  0  0  0  0  0
    6.1825  -11.0915   26.2691 C   0  0  0  0  0  0  0  0  0  0  0  0
    7.5466  -10.9877   26.3496 C   0  0  0  0  0  0  0  0  0  0  0  0
    8.2701  -12.1725   26.2279 C   0  0  0  0  0  0  0  0  0  0  0  0
    7.6260  -13.3977   26.0348 C   0  0  0  0  0  0  0  0  0  0  0  0
    9.8744  -17.6665   25.7453 C   0  0  0  0  0  0  0  0  0  0  0  0
    9.0836  -18.6507   25.6164 O   0  0  0  0  0  0  0  0  0  0  0  0
   10.9271  -17.8690   26.6345 O   0  0  0  0  0  0  0  0  0  0  0  0
  2  1  1  0
  3  2  2  0
  4  2  1  0
  5  6  1  0
  5  4  1  0
  6  8  1  0
  6  7  1  6
  8  9  2  0
 10 11  1  0
 12 11  1  6
 12 14  1  0
 13  8  1  0
 13 12  1  0
 14 15  2  0
 16 17  1  0
 16 14  1  0
 17 28  1  0
 17 18  1  1
 19 18  1  0
 20 19  2  0
 21 22  1  0
 21 20  1  0
 22 27  2  0
 23 22  1  0
 23 24  2  0
 24 25  1  0
 25 26  2  0
 27 19  1  0
 27 26  1  0
 28 29  2  0
 28 30  1  0
M  END
$$$$
