QSW.pdb
     RDKit          3D

 30 31  0  0  1  0  0  0  0  0999 V2000
    9.2982  -11.8746   18.2735 N   0  0  0  0  0  0  0  0  0  0  0  0
    8.5201  -12.8807   17.6661 C   0  0  0  0  0  0  0  0  0  0  0  0
    8.9416  -13.4315   16.6100 O   0  0  0  0  0  0  0  0  0  0  0  0
    7.2092  -13.3267   18.2288 C   0  0  0  0  0  0  0  0  0  0  0  0
    7.4976  -13.9005   19.5856 C   0  0  0  0  0  0  0  0  0  0  0  0
    8.5948  -14.9499   19.6000 C   0  0  2  0  0  0  0  0  0  0  0  0
    8.2568  -15.9275   18.5449 N   0  0  0  0  0  0  0  0  0  0  0  0
    8.5150  -15.6781   20.8943 C   0  0  0  0  0  0  0  0  0  0  0  0
    7.7302  -15.2500   21.7900 O   0  0  0  0  0  0  0  0  0  0  0  0
   11.1914  -18.7205   21.8013 O   0  0  0  0  0  0  0  0  0  0  0  0
    9.8673  -18.9884   22.1397 C   0  0  0  0  0  0  0  0  0  0  0  0
    9.1851  -17.6306   22.3536 C   0  0  2  0  0  0  0  0  0  0  0  0
    9.2694  -16.8292   21.1782 N   0  0  0  0  0  0  0  0  0  0  0  0
    9.8280  -17.0497   23.5387 C   0  0  0  0  0  0  0  0  0  0  0  0
   10.6688  -16.1102   23.2638 O   0  0  0  0  0  0  0  0  0  0  0  0
    9.5888  -17.4332   24.8774 N   0  0  0  0  0  0  0  0  0  0  0  0
   10.2775  -16.7399   25.9342 C   0  0  1  0  0  0  0  0  0  0  0  0
    9.9394  -15.2711   25.9487 C   0  0  0  0  0  0  0  0  0  0  0  0
    8.5250  -14.9441   26.1450 C   0  0  0  0  0  0  0  0  0  0  0  0
    7.5161  -15.9254   26.0746 C   0  0  0  0  0  0  0  0  0  0  0  0
    6.3384  -15.3344   26.3275 N   0  0  0  0  0  0  0  0  0  0  0  0
    6.5055  -14.0300   26.5603 C   0  0  0  0  0  0  0  0  0  0  0  0
    5.6220  -13.0225   26.8529 C   0  0  0  0  0  0  0  0  0  0  0  0
    6.1338  -11.7608   27.0283 C   0  0  0  0  0  0  0  0  0  0  0  0
    7.4639  -11.4465   26.9287 C   0  0  0  0  0  0  0  0  0  0  0  0
    8.3316  -12.4953   26.6298 C   0  0  0  0  0  0  0  0  0  0  0  0
    7.8574  -13.7969   26.4444 C   0  0  0  0  0  0  0  0  0  0  0  0
   10.1064  -17.4235   27.2159 C   0  0  0  0  0  0  0  0  0  0  0  0
    9.3743  -18.4448   27.3930 O   0  0  0  0  0  0  0  0  0  0  0  0
   10.7712  -16.9707   28.3530 O   0  0  0  0  0  0  0  0  0  0  0  0
  2  1  1  0
  3  2  2  0
  4  2  1  0
  5  6  1  0
  5  4  1  0
  6  8  1  0
  6  7  1  6
  8  9  2  0
 10 11  1  0
 12 11  1  6
 12 14  1  0
 13  8  1  0
 13 12  1  0
 14 15  2  0
 16 17  1  0
 16 14  1  0
 17 28  1  0
 17 18  1  1
 19 18  1  0
 20 19  2  0
 21 22  1  0
 21 20  1  0
 22 27  2  0
 23 22  1  0
 23 24  2  0
 24 25  1  0
 25 26  2  0
 27 19  1  0
 27 26  1  0
 28 29  2  0
 28 30  1  0
M  END
$$$$
