QSW.pdb
     RDKit          3D

 30 31  0  0  1  0  0  0  0  0999 V2000
    7.1502  -14.9383   15.6413 N   0  0  0  0  0  0  0  0  0  0  0  0
    8.0953  -13.9817   16.0636 C   0  0  0  0  0  0  0  0  0  0  0  0
    9.2301  -13.9508   15.5088 O   0  0  0  0  0  0  0  0  0  0  0  0
    7.8036  -12.9934   17.1464 C   0  0  0  0  0  0  0  0  0  0  0  0
    7.6397  -13.7813   18.4136 C   0  0  0  0  0  0  0  0  0  0  0  0
    8.8920  -13.8571   19.2688 C   0  0  2  0  0  0  0  0  0  0  0  0
    9.9532  -14.4260   18.4126 N   0  0  0  0  0  0  0  0  0  0  0  0
    8.6468  -14.8449   20.3532 C   0  0  0  0  0  0  0  0  0  0  0  0
    7.7564  -14.5966   21.2174 O   0  0  0  0  0  0  0  0  0  0  0  0
   11.4037  -17.8528   21.0248 O   0  0  0  0  0  0  0  0  0  0  0  0
   10.0855  -18.2478   21.2396 C   0  0  0  0  0  0  0  0  0  0  0  0
    9.2910  -16.9735   21.5552 C   0  0  2  0  0  0  0  0  0  0  0  0
    9.3556  -16.0527   20.4695 N   0  0  0  0  0  0  0  0  0  0  0  0
    9.8414  -16.4698   22.8195 C   0  0  0  0  0  0  0  0  0  0  0  0
   10.6345  -15.4623   22.6744 O   0  0  0  0  0  0  0  0  0  0  0  0
    9.5645  -16.9892   24.1041 N   0  0  0  0  0  0  0  0  0  0  0  0
   10.1209  -16.3305   25.2565 C   0  0  1  0  0  0  0  0  0  0  0  0
    9.7955  -14.8588   25.2672 C   0  0  0  0  0  0  0  0  0  0  0  0
    8.3831  -14.5192   25.4569 C   0  0  0  0  0  0  0  0  0  0  0  0
    7.3577  -15.4701   25.2825 C   0  0  0  0  0  0  0  0  0  0  0  0
    6.1856  -14.8771   25.5557 N   0  0  0  0  0  0  0  0  0  0  0  0
    6.3717  -13.5999   25.8990 C   0  0  0  0  0  0  0  0  0  0  0  0
    5.5006  -12.6014   26.2528 C   0  0  0  0  0  0  0  0  0  0  0  0
    6.0318  -11.3694   26.5433 C   0  0  0  0  0  0  0  0  0  0  0  0
    7.3698  -11.0759   26.5009 C   0  0  0  0  0  0  0  0  0  0  0  0
    8.2244  -12.1148   26.1369 C   0  0  0  0  0  0  0  0  0  0  0  0
    7.7303  -13.3866   25.8341 C   0  0  0  0  0  0  0  0  0  0  0  0
    9.7851  -17.0440   26.4884 C   0  0  0  0  0  0  0  0  0  0  0  0
   10.1204  -16.6650   27.6521 O   0  0  0  0  0  0  0  0  0  0  0  0
    9.0445  -18.2229   26.4432 O   0  0  0  0  0  0  0  0  0  0  0  0
  2  1  1  0
  3  2  2  0
  4  2  1  0
  5  6  1  0
  5  4  1  0
  6  8  1  0
  6  7  1  6
  8  9  2  0
 10 11  1  0
 12 11  1  6
 12 14  1  0
 13  8  1  0
 13 12  1  0
 14 15  2  0
 16 17  1  0
 16 14  1  0
 17 28  1  0
 17 18  1  1
 19 18  1  0
 20 19  2  0
 21 22  1  0
 21 20  1  0
 22 27  2  0
 23 22  1  0
 23 24  2  0
 24 25  1  0
 25 26  2  0
 27 19  1  0
 27 26  1  0
 28 29  2  0
 28 30  1  0
M  END
$$$$
