QSW.pdb
     RDKit          3D

 30 31  0  0  1  0  0  0  0  0999 V2000
    7.0063  -15.4168   15.5330 N   0  0  0  0  0  0  0  0  0  0  0  0
    7.5864  -14.1430   15.6987 C   0  0  0  0  0  0  0  0  0  0  0  0
    7.1349  -13.1696   15.0316 O   0  0  0  0  0  0  0  0  0  0  0  0
    8.7193  -13.8969   16.6421 C   0  0  0  0  0  0  0  0  0  0  0  0
    8.1356  -13.9047   18.0250 C   0  0  0  0  0  0  0  0  0  0  0  0
    9.1575  -13.7392   19.1356 C   0  0  2  0  0  0  0  0  0  0  0  0
   10.4369  -14.2611   18.6124 N   0  0  0  0  0  0  0  0  0  0  0  0
    8.7626  -14.6316   20.2579 C   0  0  0  0  0  0  0  0  0  0  0  0
    7.6817  -14.3991   20.8735 O   0  0  0  0  0  0  0  0  0  0  0  0
   10.9775  -17.9592   20.8752 O   0  0  0  0  0  0  0  0  0  0  0  0
    9.6588  -18.0833   21.3059 C   0  0  0  0  0  0  0  0  0  0  0  0
    9.1864  -16.6737   21.6865 C   0  0  2  0  0  0  0  0  0  0  0  0
    9.5312  -15.7320   20.6740 N   0  0  0  0  0  0  0  0  0  0  0  0
    9.7778  -16.4027   23.0025 C   0  0  0  0  0  0  0  0  0  0  0  0
   10.9374  -15.8396   22.9434 O   0  0  0  0  0  0  0  0  0  0  0  0
    9.1839  -16.6994   24.2499 N   0  0  0  0  0  0  0  0  0  0  0  0
    9.9826  -16.5986   25.4430 C   0  0  1  0  0  0  0  0  0  0  0  0
    9.6559  -15.3538   26.2276 C   0  0  0  0  0  0  0  0  0  0  0  0
    8.2909  -14.8439   26.0757 C   0  0  0  0  0  0  0  0  0  0  0  0
    7.2035  -15.6958   25.7969 C   0  0  0  0  0  0  0  0  0  0  0  0
    6.0890  -14.9504   25.7483 N   0  0  0  0  0  0  0  0  0  0  0  0
    6.3707  -13.6652   25.9773 C   0  0  0  0  0  0  0  0  0  0  0  0
    5.5863  -12.5411   26.0250 C   0  0  0  0  0  0  0  0  0  0  0  0
    6.2078  -11.3441   26.2807 C   0  0  0  0  0  0  0  0  0  0  0  0
    7.5548  -11.2024   26.4887 C   0  0  0  0  0  0  0  0  0  0  0  0
    8.3199  -12.3658   26.4323 C   0  0  0  0  0  0  0  0  0  0  0  0
    7.7317  -13.6076   26.1769 C   0  0  0  0  0  0  0  0  0  0  0  0
    9.9419  -17.8406   26.2144 C   0  0  0  0  0  0  0  0  0  0  0  0
    9.1367  -18.7965   25.9946 O   0  0  0  0  0  0  0  0  0  0  0  0
   10.8266  -18.0464   27.2704 O   0  0  0  0  0  0  0  0  0  0  0  0
  2  1  1  0
  3  2  2  0
  4  2  1  0
  5  6  1  0
  5  4  1  0
  6  8  1  0
  6  7  1  6
  8  9  2  0
 10 11  1  0
 12 11  1  6
 12 14  1  0
 13  8  1  0
 13 12  1  0
 14 15  2  0
 16 17  1  0
 16 14  1  0
 17 28  1  0
 17 18  1  1
 19 18  1  0
 20 19  2  0
 21 22  1  0
 21 20  1  0
 22 27  2  0
 23 22  1  0
 23 24  2  0
 24 25  1  0
 25 26  2  0
 27 19  1  0
 27 26  1  0
 28 29  2  0
 28 30  1  0
M  END
$$$$
