QSW.pdb
     RDKit          3D

 30 31  0  0  1  0  0  0  0  0999 V2000
    8.7991  -11.8297   18.5140 N   0  0  0  0  0  0  0  0  0  0  0  0
    8.1913  -13.0065   18.0320 C   0  0  0  0  0  0  0  0  0  0  0  0
    8.0800  -13.1755   16.7848 O   0  0  0  0  0  0  0  0  0  0  0  0
    7.6738  -14.0709   18.9450 C   0  0  0  0  0  0  0  0  0  0  0  0
    8.8600  -14.6125   19.6885 C   0  0  0  0  0  0  0  0  0  0  0  0
    9.0034  -16.1225   19.6215 C   0  0  2  0  0  0  0  0  0  0  0  0
    7.8543  -16.6206   18.8377 N   0  0  0  0  0  0  0  0  0  0  0  0
    8.8420  -16.6593   20.9990 C   0  0  0  0  0  0  0  0  0  0  0  0
    7.6786  -16.7476   21.4891 O   0  0  0  0  0  0  0  0  0  0  0  0
   12.0952  -18.3241   22.6901 O   0  0  0  0  0  0  0  0  0  0  0  0
   10.8933  -18.8748   23.1282 C   0  0  0  0  0  0  0  0  0  0  0  0
    9.8424  -17.7598   23.0432 C   0  0  2  0  0  0  0  0  0  0  0  0
    9.9222  -17.0809   21.7928 N   0  0  0  0  0  0  0  0  0  0  0  0
   10.0744  -16.9102   24.2177 C   0  0  0  0  0  0  0  0  0  0  0  0
   10.8728  -15.9218   23.9925 O   0  0  0  0  0  0  0  0  0  0  0  0
    9.5045  -17.0987   25.4969 N   0  0  0  0  0  0  0  0  0  0  0  0
   10.0080  -16.3289   26.6039 C   0  0  1  0  0  0  0  0  0  0  0  0
    8.8903  -15.7562   27.4373 C   0  0  0  0  0  0  0  0  0  0  0  0
    7.8206  -15.0848   26.6949 C   0  0  0  0  0  0  0  0  0  0  0  0
    6.7256  -15.7930   26.1608 C   0  0  0  0  0  0  0  0  0  0  0  0
    5.9041  -14.9115   25.5708 N   0  0  0  0  0  0  0  0  0  0  0  0
    6.3854  -13.6706   25.6817 C   0  0  0  0  0  0  0  0  0  0  0  0
    5.9206  -12.4564   25.2451 C   0  0  0  0  0  0  0  0  0  0  0  0
    6.6811  -11.3482   25.5246 C   0  0  0  0  0  0  0  0  0  0  0  0
    7.8690  -11.3790   26.2072 C   0  0  0  0  0  0  0  0  0  0  0  0
    8.3098  -12.6300   26.6347 C   0  0  0  0  0  0  0  0  0  0  0  0
    7.5690  -13.7864   26.3754 C   0  0  0  0  0  0  0  0  0  0  0  0
   11.0148  -17.0776   27.3557 C   0  0  0  0  0  0  0  0  0  0  0  0
   11.3267  -18.2870   27.1308 O   0  0  0  0  0  0  0  0  0  0  0  0
   11.7146  -16.4725   28.3969 O   0  0  0  0  0  0  0  0  0  0  0  0
  2  1  1  0
  3  2  2  0
  4  2  1  0
  5  6  1  0
  5  4  1  0
  6  8  1  0
  6  7  1  6
  8  9  2  0
 10 11  1  0
 12 11  1  6
 12 14  1  0
 13  8  1  0
 13 12  1  0
 14 15  2  0
 16 17  1  0
 16 14  1  0
 17 28  1  0
 17 18  1  1
 19 18  1  0
 20 19  2  0
 21 22  1  0
 21 20  1  0
 22 27  2  0
 23 22  1  0
 23 24  2  0
 24 25  1  0
 25 26  2  0
 27 19  1  0
 27 26  1  0
 28 29  2  0
 28 30  1  0
M  END
$$$$
