QSW.pdb
     RDKit          3D

 30 31  0  0  1  0  0  0  0  0999 V2000
    7.8061  -12.8828   16.2965 N   0  0  0  0  0  0  0  0  0  0  0  0
    7.6402  -14.2519   16.5871 C   0  0  0  0  0  0  0  0  0  0  0  0
    7.4887  -15.0692   15.6355 O   0  0  0  0  0  0  0  0  0  0  0  0
    7.6408  -14.7782   17.9861 C   0  0  0  0  0  0  0  0  0  0  0  0
    7.7776  -13.5889   18.8918 C   0  0  0  0  0  0  0  0  0  0  0  0
    8.9662  -13.6545   19.8342 C   0  0  2  0  0  0  0  0  0  0  0  0
   10.1104  -14.1413   19.0362 N   0  0  0  0  0  0  0  0  0  0  0  0
    8.6849  -14.6998   20.8539 C   0  0  0  0  0  0  0  0  0  0  0  0
    7.6038  -14.6405   21.5090 O   0  0  0  0  0  0  0  0  0  0  0  0
   11.4859  -17.6434   21.5353 O   0  0  0  0  0  0  0  0  0  0  0  0
   10.1660  -18.0523   21.7093 C   0  0  0  0  0  0  0  0  0  0  0  0
    9.3641  -16.7996   22.0869 C   0  0  2  0  0  0  0  0  0  0  0  0
    9.5622  -15.7622   21.1301 N   0  0  0  0  0  0  0  0  0  0  0  0
    9.7827  -16.4615   23.4528 C   0  0  0  0  0  0  0  0  0  0  0  0
   10.7497  -15.6085   23.5021 O   0  0  0  0  0  0  0  0  0  0  0  0
    9.2184  -16.9801   24.6399 N   0  0  0  0  0  0  0  0  0  0  0  0
    9.7821  -16.5923   25.9063 C   0  0  1  0  0  0  0  0  0  0  0  0
    8.7112  -16.2534   26.9114 C   0  0  0  0  0  0  0  0  0  0  0  0
    7.6608  -15.3460   26.4429 C   0  0  0  0  0  0  0  0  0  0  0  0
    6.4749  -15.8220   25.8487 C   0  0  0  0  0  0  0  0  0  0  0  0
    5.6997  -14.7665   25.5570 N   0  0  0  0  0  0  0  0  0  0  0  0
    6.2962  -13.6282   25.9203 C   0  0  0  0  0  0  0  0  0  0  0  0
    5.9152  -12.3140   25.8266 C   0  0  0  0  0  0  0  0  0  0  0  0
    6.7881  -11.3651   26.2979 C   0  0  0  0  0  0  0  0  0  0  0  0
    8.0096  -11.6468   26.8515 C   0  0  0  0  0  0  0  0  0  0  0  0
    8.3631  -12.9926   26.9297 C   0  0  0  0  0  0  0  0  0  0  0  0
    7.5066  -13.9944   26.4647 C   0  0  0  0  0  0  0  0  0  0  0  0
   10.7719  -17.5660   26.3662 C   0  0  0  0  0  0  0  0  0  0  0  0
   10.9742  -18.6953   25.8239 O   0  0  0  0  0  0  0  0  0  0  0  0
   11.5795  -17.2874   27.4663 O   0  0  0  0  0  0  0  0  0  0  0  0
  2  1  1  0
  3  2  2  0
  4  2  1  0
  5  6  1  0
  5  4  1  0
  6  8  1  0
  6  7  1  6
  8  9  2  0
 10 11  1  0
 12 11  1  6
 12 14  1  0
 13  8  1  0
 13 12  1  0
 14 15  2  0
 16 17  1  0
 16 14  1  0
 17 28  1  0
 17 18  1  1
 19 18  1  0
 20 19  2  0
 21 22  1  0
 21 20  1  0
 22 27  2  0
 23 22  1  0
 23 24  2  0
 24 25  1  0
 25 26  2  0
 27 19  1  0
 27 26  1  0
 28 29  2  0
 28 30  1  0
M  END
$$$$
