QSW.pdb
     RDKit          3D

 30 31  0  0  1  0  0  0  0  0999 V2000
    9.8330  -13.0813   18.0685 N   0  0  0  0  0  0  0  0  0  0  0  0
    8.5564  -13.0149   17.4748 C   0  0  0  0  0  0  0  0  0  0  0  0
    8.3873  -12.2829   16.4590 O   0  0  0  0  0  0  0  0  0  0  0  0
    7.3887  -13.7850   18.0015 C   0  0  0  0  0  0  0  0  0  0  0  0
    7.8803  -14.5439   19.1997 C   0  0  0  0  0  0  0  0  0  0  0  0
    8.7217  -15.7628   18.8655 C   0  0  2  0  0  0  0  0  0  0  0  0
    7.8658  -16.6577   18.0596 N   0  0  0  0  0  0  0  0  0  0  0  0
    9.0106  -16.4818   20.1348 C   0  0  0  0  0  0  0  0  0  0  0  0
    8.0755  -16.6468   20.9713 O   0  0  0  0  0  0  0  0  0  0  0  0
   12.9577  -17.2006   21.3178 O   0  0  0  0  0  0  0  0  0  0  0  0
   12.0531  -18.2235   21.5917 C   0  0  0  0  0  0  0  0  0  0  0  0
   10.6697  -17.5686   21.7023 C   0  0  2  0  0  0  0  0  0  0  0  0
   10.2780  -16.9958   20.4576 N   0  0  0  0  0  0  0  0  0  0  0  0
   10.7748  -16.6121   22.8110 C   0  0  0  0  0  0  0  0  0  0  0  0
   10.9592  -15.3936   22.4282 O   0  0  0  0  0  0  0  0  0  0  0  0
   10.6853  -16.9298   24.1849 N   0  0  0  0  0  0  0  0  0  0  0  0
    9.8683  -16.1075   25.0381 C   0  0  1  0  0  0  0  0  0  0  0  0
    8.5103  -15.8564   24.4342 C   0  0  0  0  0  0  0  0  0  0  0  0
    7.5779  -15.0848   25.2596 C   0  0  0  0  0  0  0  0  0  0  0  0
    6.4573  -15.6796   25.8730 C   0  0  0  0  0  0  0  0  0  0  0  0
    5.8186  -14.7371   26.5828 N   0  0  0  0  0  0  0  0  0  0  0  0
    6.4447  -13.5621   26.4776 C   0  0  0  0  0  0  0  0  0  0  0  0
    6.1797  -12.3231   27.0029 C   0  0  0  0  0  0  0  0  0  0  0  0
    7.0385  -11.3012   26.6823 C   0  0  0  0  0  0  0  0  0  0  0  0
    8.1365  -11.4401   25.8742 C   0  0  0  0  0  0  0  0  0  0  0  0
    8.3737  -12.7129   25.3585 C   0  0  0  0  0  0  0  0  0  0  0  0
    7.5284  -13.7848   25.6582 C   0  0  0  0  0  0  0  0  0  0  0  0
    9.8474  -16.6213   26.4074 C   0  0  0  0  0  0  0  0  0  0  0  0
    9.7162  -17.8460   26.7129 O   0  0  0  0  0  0  0  0  0  0  0  0
    9.9814  -15.7550   27.4898 O   0  0  0  0  0  0  0  0  0  0  0  0
  2  1  1  0
  3  2  2  0
  4  2  1  0
  5  6  1  0
  5  4  1  0
  6  8  1  0
  6  7  1  6
  8  9  2  0
 10 11  1  0
 12 11  1  6
 12 14  1  0
 13  8  1  0
 13 12  1  0
 14 15  2  0
 16 17  1  0
 16 14  1  0
 17 28  1  0
 17 18  1  6
 19 18  1  0
 20 19  2  0
 21 22  1  0
 21 20  1  0
 22 27  2  0
 23 22  1  0
 23 24  2  0
 24 25  1  0
 25 26  2  0
 27 19  1  0
 27 26  1  0
 28 29  2  0
 28 30  1  0
M  END
$$$$
