QSW.pdb
     RDKit          3D

 30 31  0  0  1  0  0  0  0  0999 V2000
   12.6413  -17.6077   16.1772 N   0  0  0  0  0  0  0  0  0  0  0  0
   11.5765  -18.5304   16.1388 C   0  0  0  0  0  0  0  0  0  0  0  0
   11.3695  -19.1878   15.0799 O   0  0  0  0  0  0  0  0  0  0  0  0
   10.6796  -18.7655   17.3112 C   0  0  0  0  0  0  0  0  0  0  0  0
   11.2780  -18.0164   18.4663 C   0  0  0  0  0  0  0  0  0  0  0  0
   10.4887  -18.1262   19.7586 C   0  0  2  0  0  0  0  0  0  0  0  0
    9.2181  -18.8002   19.4204 N   0  0  0  0  0  0  0  0  0  0  0  0
   10.1350  -16.7499   20.1974 C   0  0  0  0  0  0  0  0  0  0  0  0
   10.9114  -15.7950   19.9027 O   0  0  0  0  0  0  0  0  0  0  0  0
    6.4965  -16.0794   21.8361 O   0  0  0  0  0  0  0  0  0  0  0  0
    7.1544  -14.9125   21.4554 C   0  0  0  0  0  0  0  0  0  0  0  0
    8.6578  -15.2056   21.5478 C   0  0  2  0  0  0  0  0  0  0  0  0
    8.9720  -16.4490   20.9264 N   0  0  0  0  0  0  0  0  0  0  0  0
    8.9852  -15.1348   22.9772 C   0  0  0  0  0  0  0  0  0  0  0  0
    8.9128  -13.9431   23.4668 O   0  0  0  0  0  0  0  0  0  0  0  0
    9.3461  -16.2290   23.7952 N   0  0  0  0  0  0  0  0  0  0  0  0
    9.9748  -15.9722   25.0642 C   0  0  1  0  0  0  0  0  0  0  0  0
    8.9866  -16.0466   26.1999 C   0  0  0  0  0  0  0  0  0  0  0  0
    7.8126  -15.1783   26.0816 C   0  0  0  0  0  0  0  0  0  0  0  0
    6.5159  -15.6987   25.8976 C   0  0  0  0  0  0  0  0  0  0  0  0
    5.6538  -14.6714   25.8586 N   0  0  0  0  0  0  0  0  0  0  0  0
    6.2968  -13.5101   26.0054 C   0  0  0  0  0  0  0  0  0  0  0  0
    5.8625  -12.2093   26.0274 C   0  0  0  0  0  0  0  0  0  0  0  0
    6.8080  -11.2274   26.1905 C   0  0  0  0  0  0  0  0  0  0  0  0
    8.1506  -11.4639   26.3305 C   0  0  0  0  0  0  0  0  0  0  0  0
    8.5547  -12.7974   26.3028 C   0  0  0  0  0  0  0  0  0  0  0  0
    7.6287  -13.8315   26.1409 C   0  0  0  0  0  0  0  0  0  0  0  0
   11.1738  -16.7920   25.2371 C   0  0  0  0  0  0  0  0  0  0  0  0
   11.9427  -16.7363   26.2450 O   0  0  0  0  0  0  0  0  0  0  0  0
   11.5437  -17.7177   24.2642 O   0  0  0  0  0  0  0  0  0  0  0  0
  2  1  1  0
  3  2  2  0
  4  2  1  0
  5  6  1  0
  5  4  1  0
  6  8  1  0
  6  7  1  6
  8  9  2  0
 10 11  1  0
 12 11  1  1
 12 14  1  0
 13  8  1  0
 13 12  1  0
 14 15  2  0
 16 17  1  0
 16 14  1  0
 17 28  1  0
 17 18  1  1
 19 18  1  0
 20 19  2  0
 21 22  1  0
 21 20  1  0
 22 27  2  0
 23 22  1  0
 23 24  2  0
 24 25  1  0
 25 26  2  0
 27 19  1  0
 27 26  1  0
 28 29  2  0
 28 30  1  0
M  END
$$$$
