QSW.pdb
     RDKit          3D

 30 31  0  0  1  0  0  0  0  0999 V2000
    8.2779  -11.6140   19.4402 N   0  0  0  0  0  0  0  0  0  0  0  0
    8.8487  -12.7373   18.8085 C   0  0  0  0  0  0  0  0  0  0  0  0
   10.0417  -12.6723   18.3976 O   0  0  0  0  0  0  0  0  0  0  0  0
    8.0937  -14.0116   18.6083 C   0  0  0  0  0  0  0  0  0  0  0  0
    9.1184  -15.0967   18.4468 C   0  0  0  0  0  0  0  0  0  0  0  0
    8.5955  -16.4957   18.7193 C   0  0  2  0  0  0  0  0  0  0  0  0
    7.2752  -16.5875   18.0624 N   0  0  0  0  0  0  0  0  0  0  0  0
    8.3512  -16.6166   20.1813 C   0  0  0  0  0  0  0  0  0  0  0  0
    7.3697  -16.0015   20.6908 O   0  0  0  0  0  0  0  0  0  0  0  0
   10.4736  -19.4472   22.1956 O   0  0  0  0  0  0  0  0  0  0  0  0
    9.1707  -19.2268   22.6358 C   0  0  0  0  0  0  0  0  0  0  0  0
    8.8670  -17.7438   22.3846 C   0  0  2  0  0  0  0  0  0  0  0  0
    9.1579  -17.3872   21.0358 N   0  0  0  0  0  0  0  0  0  0  0  0
    9.6391  -17.0078   23.3931 C   0  0  0  0  0  0  0  0  0  0  0  0
   10.8188  -16.6676   22.9959 O   0  0  0  0  0  0  0  0  0  0  0  0
    9.1896  -16.6680   24.6889 N   0  0  0  0  0  0  0  0  0  0  0  0
   10.1453  -16.1960   25.6562 C   0  0  1  0  0  0  0  0  0  0  0  0
    9.5527  -15.1409   26.5547 C   0  0  0  0  0  0  0  0  0  0  0  0
    8.1630  -14.7717   26.2746 C   0  0  0  0  0  0  0  0  0  0  0  0
    7.1769  -15.7385   25.9937 C   0  0  0  0  0  0  0  0  0  0  0  0
    6.0080  -15.1047   25.8141 N   0  0  0  0  0  0  0  0  0  0  0  0
    6.1594  -13.7857   25.9588 C   0  0  0  0  0  0  0  0  0  0  0  0
    5.2785  -12.7385   25.8664 C   0  0  0  0  0  0  0  0  0  0  0  0
    5.7733  -11.4737   26.0667 C   0  0  0  0  0  0  0  0  0  0  0  0
    7.0845  -11.1934   26.3501 C   0  0  0  0  0  0  0  0  0  0  0  0
    7.9501  -12.2822   26.4356 C   0  0  0  0  0  0  0  0  0  0  0  0
    7.4923  -13.5883   26.2413 C   0  0  0  0  0  0  0  0  0  0  0  0
   10.7865  -17.3098   26.3546 C   0  0  0  0  0  0  0  0  0  0  0  0
   11.7645  -17.1885   27.1541 O   0  0  0  0  0  0  0  0  0  0  0  0
   10.3325  -18.6139   26.1726 O   0  0  0  0  0  0  0  0  0  0  0  0
  2  1  1  0
  3  2  2  0
  4  2  1  0
  5  6  1  0
  5  4  1  0
  6  8  1  0
  6  7  1  6
  8  9  2  0
 10 11  1  0
 12 11  1  6
 12 14  1  0
 13  8  1  0
 13 12  1  0
 14 15  2  0
 16 17  1  0
 16 14  1  0
 17 28  1  0
 17 18  1  1
 19 18  1  0
 20 19  2  0
 21 22  1  0
 21 20  1  0
 22 27  2  0
 23 22  1  0
 23 24  2  0
 24 25  1  0
 25 26  2  0
 27 19  1  0
 27 26  1  0
 28 29  2  0
 28 30  1  0
M  END
$$$$
