QSW.pdb
     RDKit          3D

 30 31  0  0  1  0  0  0  0  0999 V2000
   11.5163  -19.2275   16.4126 N   0  0  0  0  0  0  0  0  0  0  0  0
   10.3124  -19.8666   16.7715 C   0  0  0  0  0  0  0  0  0  0  0  0
    9.6394  -20.4570   15.8800 O   0  0  0  0  0  0  0  0  0  0  0  0
    9.8002  -19.8765   18.1757 C   0  0  0  0  0  0  0  0  0  0  0  0
   10.7159  -18.9935   18.9727 C   0  0  0  0  0  0  0  0  0  0  0  0
   10.3582  -18.8886   20.4445 C   0  0  2  0  0  0  0  0  0  0  0  0
    8.9236  -19.2248   20.5546 N   0  0  0  0  0  0  0  0  0  0  0  0
   10.4920  -17.4634   20.8478 C   0  0  0  0  0  0  0  0  0  0  0  0
   11.6290  -16.9121   20.7793 O   0  0  0  0  0  0  0  0  0  0  0  0
    7.1849  -15.6238   22.3482 O   0  0  0  0  0  0  0  0  0  0  0  0
    8.1375  -14.7027   21.9195 C   0  0  0  0  0  0  0  0  0  0  0  0
    9.4922  -15.4226   21.9553 C   0  0  2  0  0  0  0  0  0  0  0  0
    9.4127  -16.6870   21.3027 N   0  0  0  0  0  0  0  0  0  0  0  0
    9.8659  -15.4874   23.3734 C   0  0  0  0  0  0  0  0  0  0  0  0
   10.5005  -14.4439   23.7901 O   0  0  0  0  0  0  0  0  0  0  0  0
    9.5828  -16.5570   24.2524 N   0  0  0  0  0  0  0  0  0  0  0  0
   10.0974  -16.5094   25.5957 C   0  0  1  0  0  0  0  0  0  0  0  0
    9.5817  -15.3087   26.3468 C   0  0  0  0  0  0  0  0  0  0  0  0
    8.1762  -14.9665   26.1148 C   0  0  0  0  0  0  0  0  0  0  0  0
    7.2135  -15.9450   25.7962 C   0  0  0  0  0  0  0  0  0  0  0  0
    6.0231  -15.3379   25.6758 N   0  0  0  0  0  0  0  0  0  0  0  0
    6.1385  -14.0255   25.8947 C   0  0  0  0  0  0  0  0  0  0  0  0
    5.2256  -13.0021   25.8803 C   0  0  0  0  0  0  0  0  0  0  0  0
    5.6869  -11.7365   26.1451 C   0  0  0  0  0  0  0  0  0  0  0  0
    6.9948  -11.4332   26.4200 C   0  0  0  0  0  0  0  0  0  0  0  0
    7.8936  -12.4982   26.4254 C   0  0  0  0  0  0  0  0  0  0  0  0
    7.4705  -13.8042   26.1634 C   0  0  0  0  0  0  0  0  0  0  0  0
    9.9128  -17.7891   26.2795 C   0  0  0  0  0  0  0  0  0  0  0  0
    9.2085  -18.7463   25.8342 O   0  0  0  0  0  0  0  0  0  0  0  0
   10.5316  -18.0325   27.5034 O   0  0  0  0  0  0  0  0  0  0  0  0
  2  1  1  0
  3  2  2  0
  4  2  1  0
  5  6  1  0
  5  4  1  0
  6  8  1  0
  6  7  1  6
  8  9  2  0
 10 11  1  0
 12 11  1  1
 12 14  1  0
 13  8  1  0
 13 12  1  0
 14 15  2  0
 16 17  1  0
 16 14  1  0
 17 28  1  0
 17 18  1  1
 19 18  1  0
 20 19  2  0
 21 22  1  0
 21 20  1  0
 22 27  2  0
 23 22  1  0
 23 24  2  0
 24 25  1  0
 25 26  2  0
 27 19  1  0
 27 26  1  0
 28 29  2  0
 28 30  1  0
M  END
$$$$
