QSW.pdb
     RDKit          3D

 30 31  0  0  1  0  0  0  0  0999 V2000
    7.9079  -12.3402   17.2007 N   0  0  0  0  0  0  0  0  0  0  0  0
    7.9886  -13.6937   16.8156 C   0  0  0  0  0  0  0  0  0  0  0  0
    8.0305  -13.9824   15.5862 O   0  0  0  0  0  0  0  0  0  0  0  0
    8.0308  -14.8073   17.8116 C   0  0  0  0  0  0  0  0  0  0  0  0
    7.8006  -14.1868   19.1590 C   0  0  0  0  0  0  0  0  0  0  0  0
    9.0032  -14.2378   20.0843 C   0  0  2  0  0  0  0  0  0  0  0  0
   10.1191  -14.7983   19.2946 N   0  0  0  0  0  0  0  0  0  0  0  0
    8.7106  -15.2203   21.1618 C   0  0  0  0  0  0  0  0  0  0  0  0
    7.6071  -15.1439   21.7765 O   0  0  0  0  0  0  0  0  0  0  0  0
   11.5711  -17.9359   22.0365 O   0  0  0  0  0  0  0  0  0  0  0  0
   10.3072  -18.4253   22.3572 C   0  0  0  0  0  0  0  0  0  0  0  0
    9.4034  -17.2033   22.5684 C   0  0  2  0  0  0  0  0  0  0  0  0
    9.6010  -16.2411   21.5359 N   0  0  0  0  0  0  0  0  0  0  0  0
    9.7045  -16.7205   23.9216 C   0  0  0  0  0  0  0  0  0  0  0  0
   10.4660  -15.6789   23.9427 O   0  0  0  0  0  0  0  0  0  0  0  0
    9.2328  -17.2923   25.1246 N   0  0  0  0  0  0  0  0  0  0  0  0
    9.7467  -16.8028   26.3768 C   0  0  1  0  0  0  0  0  0  0  0  0
    8.6431  -16.3047   27.2745 C   0  0  0  0  0  0  0  0  0  0  0  0
    7.7130  -15.3473   26.6709 C   0  0  0  0  0  0  0  0  0  0  0  0
    6.6414  -15.7619   25.8549 C   0  0  0  0  0  0  0  0  0  0  0  0
    5.9539  -14.6723   25.4806 N   0  0  0  0  0  0  0  0  0  0  0  0
    6.5014  -13.5687   25.9964 C   0  0  0  0  0  0  0  0  0  0  0  0
    6.1722  -12.2408   25.8984 C   0  0  0  0  0  0  0  0  0  0  0  0
    6.9683  -11.3393   26.5604 C   0  0  0  0  0  0  0  0  0  0  0  0
    8.0654  -11.6807   27.3073 C   0  0  0  0  0  0  0  0  0  0  0  0
    8.3694  -13.0386   27.3836 C   0  0  0  0  0  0  0  0  0  0  0  0
    7.5873  -13.9937   26.7283 C   0  0  0  0  0  0  0  0  0  0  0  0
   10.6513  -17.7726   26.9937 C   0  0  0  0  0  0  0  0  0  0  0  0
   10.8575  -18.9443   26.5521 O   0  0  0  0  0  0  0  0  0  0  0  0
   11.3657  -17.4417   28.1428 O   0  0  0  0  0  0  0  0  0  0  0  0
  2  1  1  0
  3  2  2  0
  4  2  1  0
  5  6  1  0
  5  4  1  0
  6  8  1  0
  6  7  1  6
  8  9  2  0
 10 11  1  0
 12 11  1  6
 12 14  1  0
 13  8  1  0
 13 12  1  0
 14 15  2  0
 16 17  1  0
 16 14  1  0
 17 28  1  0
 17 18  1  1
 19 18  1  0
 20 19  2  0
 21 22  1  0
 21 20  1  0
 22 27  2  0
 23 22  1  0
 23 24  2  0
 24 25  1  0
 25 26  2  0
 27 19  1  0
 27 26  1  0
 28 29  2  0
 28 30  1  0
M  END
$$$$
