QSW.pdb
     RDKit          3D

 30 31  0  0  1  0  0  0  0  0999 V2000
    7.6697  -12.4482   17.4931 N   0  0  0  0  0  0  0  0  0  0  0  0
    7.9747  -13.3687   16.4702 C   0  0  0  0  0  0  0  0  0  0  0  0
    7.7003  -13.0719   15.2731 O   0  0  0  0  0  0  0  0  0  0  0  0
    8.6178  -14.6890   16.7483 C   0  0  0  0  0  0  0  0  0  0  0  0
    8.8623  -14.7439   18.2284 C   0  0  0  0  0  0  0  0  0  0  0  0
    9.4854  -16.0415   18.7112 C   0  0  2  0  0  0  0  0  0  0  0  0
    8.9962  -17.1049   17.8097 N   0  0  0  0  0  0  0  0  0  0  0  0
    8.9332  -16.3408   20.0593 C   0  0  0  0  0  0  0  0  0  0  0  0
    7.7902  -15.8925   20.3659 O   0  0  0  0  0  0  0  0  0  0  0  0
   10.4033  -19.4641   21.8831 O   0  0  0  0  0  0  0  0  0  0  0  0
    9.1632  -19.0743   22.3832 C   0  0  0  0  0  0  0  0  0  0  0  0
    9.1071  -17.5446   22.2754 C   0  0  2  0  0  0  0  0  0  0  0  0
    9.6176  -17.1049   21.0197 N   0  0  0  0  0  0  0  0  0  0  0  0
    9.8382  -17.0408   23.4445 C   0  0  0  0  0  0  0  0  0  0  0  0
   11.1048  -16.8991   23.2419 O   0  0  0  0  0  0  0  0  0  0  0  0
    9.2685  -16.7177   24.6965 N   0  0  0  0  0  0  0  0  0  0  0  0
   10.1399  -16.3934   25.7953 C   0  0  1  0  0  0  0  0  0  0  0  0
    9.6377  -15.2026   26.5709 C   0  0  0  0  0  0  0  0  0  0  0  0
    8.2824  -14.7533   26.2431 C   0  0  0  0  0  0  0  0  0  0  0  0
    7.2352  -15.6629   25.9939 C   0  0  0  0  0  0  0  0  0  0  0  0
    6.1173  -14.9600   25.7568 N   0  0  0  0  0  0  0  0  0  0  0  0
    6.3591  -13.6488   25.8342 C   0  0  0  0  0  0  0  0  0  0  0  0
    5.5561  -12.5493   25.6681 C   0  0  0  0  0  0  0  0  0  0  0  0
    6.1356  -11.3130   25.8109 C   0  0  0  0  0  0  0  0  0  0  0  0
    7.4584  -11.1098   26.1058 C   0  0  0  0  0  0  0  0  0  0  0  0
    8.2434  -12.2500   26.2669 C   0  0  0  0  0  0  0  0  0  0  0  0
    7.6977  -13.5296   26.1331 C   0  0  0  0  0  0  0  0  0  0  0  0
   10.4342  -17.5755   26.6049 C   0  0  0  0  0  0  0  0  0  0  0  0
   11.2833  -17.6072   27.5474 O   0  0  0  0  0  0  0  0  0  0  0  0
    9.7644  -18.7749   26.3746 O   0  0  0  0  0  0  0  0  0  0  0  0
  2  1  1  0
  3  2  2  0
  4  2  1  0
  5  6  1  0
  5  4  1  0
  6  8  1  0
  6  7  1  6
  8  9  2  0
 10 11  1  0
 12 11  1  6
 12 14  1  0
 13  8  1  0
 13 12  1  0
 14 15  2  0
 16 17  1  0
 16 14  1  0
 17 28  1  0
 17 18  1  1
 19 18  1  0
 20 19  2  0
 21 22  1  0
 21 20  1  0
 22 27  2  0
 23 22  1  0
 23 24  2  0
 24 25  1  0
 25 26  2  0
 27 19  1  0
 27 26  1  0
 28 29  2  0
 28 30  1  0
M  END
$$$$
