QSW.pdb
     RDKit          3D

 30 31  0  0  1  0  0  0  0  0999 V2000
    8.5576  -13.0608   15.0556 N   0  0  0  0  0  0  0  0  0  0  0  0
    7.8628  -13.7368   16.0787 C   0  0  0  0  0  0  0  0  0  0  0  0
    7.6260  -14.9712   15.9503 O   0  0  0  0  0  0  0  0  0  0  0  0
    7.3960  -13.0462   17.3194 C   0  0  0  0  0  0  0  0  0  0  0  0
    7.4459  -14.0641   18.4216 C   0  0  0  0  0  0  0  0  0  0  0  0
    8.7744  -14.1278   19.1539 C   0  0  2  0  0  0  0  0  0  0  0  0
    9.7198  -14.8182   18.2525 N   0  0  0  0  0  0  0  0  0  0  0  0
    8.6012  -15.0068   20.3409 C   0  0  0  0  0  0  0  0  0  0  0  0
    7.8478  -14.6227   21.2823 O   0  0  0  0  0  0  0  0  0  0  0  0
   11.0969  -18.2106   20.8728 O   0  0  0  0  0  0  0  0  0  0  0  0
    9.7901  -18.4937   21.2625 C   0  0  0  0  0  0  0  0  0  0  0  0
    9.1248  -17.1477   21.5793 C   0  0  2  0  0  0  0  0  0  0  0  0
    9.2331  -16.2550   20.4738 N   0  0  0  0  0  0  0  0  0  0  0  0
    9.7628  -16.6744   22.8138 C   0  0  0  0  0  0  0  0  0  0  0  0
   10.8543  -16.0160   22.6134 O   0  0  0  0  0  0  0  0  0  0  0  0
    9.2767  -16.8812   24.1244 N   0  0  0  0  0  0  0  0  0  0  0  0
   10.0772  -16.4501   25.2402 C   0  0  1  0  0  0  0  0  0  0  0  0
    9.8116  -15.0086   25.5914 C   0  0  0  0  0  0  0  0  0  0  0  0
    8.4021  -14.6373   25.7391 C   0  0  0  0  0  0  0  0  0  0  0  0
    7.3623  -15.5711   25.5582 C   0  0  0  0  0  0  0  0  0  0  0  0
    6.1961  -14.9496   25.7903 N   0  0  0  0  0  0  0  0  0  0  0  0
    6.3996  -13.6696   26.1125 C   0  0  0  0  0  0  0  0  0  0  0  0
    5.5404  -12.6470   26.4245 C   0  0  0  0  0  0  0  0  0  0  0  0
    6.0893  -11.4200   26.7035 C   0  0  0  0  0  0  0  0  0  0  0  0
    7.4335  -11.1540   26.6885 C   0  0  0  0  0  0  0  0  0  0  0  0
    8.2756  -12.2168   26.3667 C   0  0  0  0  0  0  0  0  0  0  0  0
    7.7634  -13.4845   26.0771 C   0  0  0  0  0  0  0  0  0  0  0  0
    9.9732  -17.3855   26.3598 C   0  0  0  0  0  0  0  0  0  0  0  0
   10.6208  -17.2803   27.4461 O   0  0  0  0  0  0  0  0  0  0  0  0
    9.1176  -18.4823   26.2878 O   0  0  0  0  0  0  0  0  0  0  0  0
  2  1  1  0
  3  2  2  0
  4  2  1  0
  5  6  1  0
  5  4  1  0
  6  8  1  0
  6  7  1  6
  8  9  2  0
 10 11  1  0
 12 11  1  6
 12 14  1  0
 13  8  1  0
 13 12  1  0
 14 15  2  0
 16 17  1  0
 16 14  1  0
 17 28  1  0
 17 18  1  1
 19 18  1  0
 20 19  2  0
 21 22  1  0
 21 20  1  0
 22 27  2  0
 23 22  1  0
 23 24  2  0
 24 25  1  0
 25 26  2  0
 27 19  1  0
 27 26  1  0
 28 29  2  0
 28 30  1  0
M  END
$$$$
