PEN.pdb
     RDKit          3D

 25 25  0  0  1  0  0  0  0  0999 V2000
    8.1334  -14.7706   18.7416 N   0  0  0  0  0  0  0  0  0  0  0  0
    6.9557  -13.9380   18.7391 C   0  0  0  0  0  0  0  0  0  0  0  0
    7.5880  -12.5562   18.9250 C   0  0  0  0  0  0  0  0  0  0  0  0
    8.6741  -12.8356   19.9460 C   0  0  0  0  0  0  0  0  0  0  0  0
    8.8894  -14.3084   19.8571 C   0  0  1  0  0  0  0  0  0  0  0  0
    8.4940  -14.9631   21.1511 C   0  0  0  0  0  0  0  0  0  0  0  0
    7.2507  -15.1758   21.3350 O   0  0  0  0  0  0  0  0  0  0  0  0
    9.3903  -15.3487   22.1554 N   0  0  0  0  0  0  0  0  0  0  0  0
    8.8826  -15.9234   23.3835 C   0  0  1  0  0  0  0  0  0  0  0  0
    9.4860  -17.2518   23.7157 C   0  0  0  0  0  0  0  0  0  0  0  0
   10.9839  -17.2905   23.6287 C   0  0  0  0  0  0  0  0  0  0  0  0
   11.4184  -18.6723   23.9678 C   0  0  0  0  0  0  0  0  0  0  0  0
   10.5728  -19.5792   24.2550 O   0  0  0  0  0  0  0  0  0  0  0  0
    9.2606  -14.9914   24.4990 C   0  0  0  0  0  0  0  0  0  0  0  0
   10.3435  -14.3945   24.4482 O   0  0  0  0  0  0  0  0  0  0  0  0
   12.7500  -19.0701   23.9964 O   0  0  0  0  0  0  0  0  0  0  0  0
    5.9692  -14.3065   26.5039 N   0  0  0  0  0  0  0  0  0  0  0  0
    6.5326  -13.0333   26.7296 C   0  0  0  0  0  0  0  0  0  0  0  0
    5.7263  -12.0666   26.8667 O   0  0  0  0  0  0  0  0  0  0  0  0
    7.9539  -12.7505   26.8169 C   0  0  0  0  0  0  0  0  0  0  0  0
    8.8870  -13.9024   26.6865 C   0  0  2  0  0  0  0  0  0  0  0  0
    8.4225  -14.7695   25.6086 N   0  0  0  0  0  0  0  0  0  0  0  0
    9.0622  -14.7190   27.8918 C   0  0  0  0  0  0  0  0  0  0  0  0
    8.9181  -16.0921   27.9611 O   0  0  0  0  0  0  0  0  0  0  0  0
    9.3706  -14.1476   28.9734 O   0  0  0  0  0  0  0  0  0  0  0  0
  2  1  1  0
  3  4  1  0
  3  2  1  0
  4  5  1  0
  5  1  1  0
  5  6  1  1
  7  6  2  0
  8  6  1  0
  9  8  1  0
  9 14  1  0
  9 10  1  1
 11 10  1  0
 12 11  1  0
 13 12  2  0
 14 15  2  0
 14 22  1  0
 16 12  1  0
 18 19  2  0
 18 17  1  0
 20 18  1  0
 21 20  1  1
 21 23  1  0
 22 21  1  0
 23 25  2  0
 23 24  1  0
M  END
$$$$
