PEN.pdb
     RDKit          3D

 25 25  0  0  1  0  0  0  0  0999 V2000
    9.2362  -13.8619   18.4736 N   0  0  0  0  0  0  0  0  0  0  0  0
    8.0145  -14.2291   17.8006 C   0  0  0  0  0  0  0  0  0  0  0  0
    7.0691  -13.1439   18.3225 C   0  0  0  0  0  0  0  0  0  0  0  0
    7.4742  -13.0399   19.7802 C   0  0  0  0  0  0  0  0  0  0  0  0
    8.8406  -13.6353   19.8234 C   0  0  1  0  0  0  0  0  0  0  0  0
    8.8275  -14.8883   20.6537 C   0  0  0  0  0  0  0  0  0  0  0  0
    7.8331  -15.0545   21.4337 O   0  0  0  0  0  0  0  0  0  0  0  0
    9.8237  -15.8719   20.6275 N   0  0  0  0  0  0  0  0  0  0  0  0
    9.7009  -17.0355   21.4801 C   0  0  1  0  0  0  0  0  0  0  0  0
   10.7075  -18.1023   21.1837 C   0  0  0  0  0  0  0  0  0  0  0  0
   10.5057  -19.3749   21.9535 C   0  0  0  0  0  0  0  0  0  0  0  0
   11.5310  -20.3481   21.4901 C   0  0  0  0  0  0  0  0  0  0  0  0
   11.2403  -21.5719   21.2954 O   0  0  0  0  0  0  0  0  0  0  0  0
    9.9601  -16.5829   22.8886 C   0  0  0  0  0  0  0  0  0  0  0  0
   10.9787  -15.9245   23.1349 O   0  0  0  0  0  0  0  0  0  0  0  0
   12.8543  -20.0040   21.2397 O   0  0  0  0  0  0  0  0  0  0  0  0
    6.5536  -18.4134   25.6932 N   0  0  0  0  0  0  0  0  0  0  0  0
    7.6723  -17.9316   26.4042 C   0  0  0  0  0  0  0  0  0  0  0  0
    8.1627  -18.6962   27.2865 O   0  0  0  0  0  0  0  0  0  0  0  0
    8.2987  -16.6376   26.2020 C   0  0  0  0  0  0  0  0  0  0  0  0
    9.4935  -16.5901   25.3162 C   0  0  2  0  0  0  0  0  0  0  0  0
    9.0808  -16.8816   23.9471 N   0  0  0  0  0  0  0  0  0  0  0  0
   10.5862  -17.5010   25.6720 C   0  0  0  0  0  0  0  0  0  0  0  0
   10.6935  -18.8214   25.2773 O   0  0  0  0  0  0  0  0  0  0  0  0
   11.5228  -17.0714   26.3999 O   0  0  0  0  0  0  0  0  0  0  0  0
  2  1  1  0
  3  4  1  0
  3  2  1  0
  4  5  1  0
  5  1  1  0
  5  6  1  1
  7  6  2  0
  8  6  1  0
  9  8  1  0
  9 14  1  0
  9 10  1  6
 11 10  1  0
 12 11  1  0
 13 12  2  0
 14 15  2  0
 14 22  1  0
 16 12  1  0
 18 19  2  0
 18 17  1  0
 20 18  1  0
 21 20  1  1
 21 23  1  0
 22 21  1  0
 23 25  2  0
 23 24  1  0
M  END
$$$$
