PEN.pdb
     RDKit          3D

 25 25  0  0  1  0  0  0  0  0999 V2000
    8.2502  -12.7687   19.3978 N   0  0  0  0  0  0  0  0  0  0  0  0
    8.2398  -12.6575   17.9598 C   0  0  0  0  0  0  0  0  0  0  0  0
    7.0064  -13.4990   17.6218 C   0  0  0  0  0  0  0  0  0  0  0  0
    7.1396  -14.6638   18.5838 C   0  0  0  0  0  0  0  0  0  0  0  0
    8.0568  -14.1583   19.6453 C   0  0  1  0  0  0  0  0  0  0  0  0
    9.3378  -14.9447   19.6328 C   0  0  0  0  0  0  0  0  0  0  0  0
    9.2373  -16.2141   19.6900 O   0  0  0  0  0  0  0  0  0  0  0  0
   10.6179  -14.3814   19.5642 N   0  0  0  0  0  0  0  0  0  0  0  0
   11.7811  -15.2372   19.6668 C   0  0  1  0  0  0  0  0  0  0  0  0
   13.0263  -14.6223   19.1095 C   0  0  0  0  0  0  0  0  0  0  0  0
   14.2443  -15.4941   19.2069 C   0  0  0  0  0  0  0  0  0  0  0  0
   15.3631  -14.7801   18.5348 C   0  0  0  0  0  0  0  0  0  0  0  0
   16.1701  -14.0483   19.1929 O   0  0  0  0  0  0  0  0  0  0  0  0
   12.0354  -15.4669   21.1292 C   0  0  0  0  0  0  0  0  0  0  0  0
   11.8535  -14.5394   21.9281 O   0  0  0  0  0  0  0  0  0  0  0  0
   15.6075  -14.8555   17.1685 O   0  0  0  0  0  0  0  0  0  0  0  0
   13.3739  -17.7454   25.7948 N   0  0  0  0  0  0  0  0  0  0  0  0
   12.6111  -18.5245   24.9002 C   0  0  0  0  0  0  0  0  0  0  0  0
   12.1626  -19.6247   25.3381 O   0  0  0  0  0  0  0  0  0  0  0  0
   12.3033  -18.1630   23.5282 C   0  0  0  0  0  0  0  0  0  0  0  0
   12.7738  -16.8339   23.0519 C   0  0  2  0  0  0  0  0  0  0  0  0
   12.4762  -16.7074   21.6289 N   0  0  0  0  0  0  0  0  0  0  0  0
   14.1995  -16.5546   23.2511 C   0  0  0  0  0  0  0  0  0  0  0  0
   14.7673  -16.0550   24.4082 O   0  0  0  0  0  0  0  0  0  0  0  0
   15.0009  -16.7790   22.3029 O   0  0  0  0  0  0  0  0  0  0  0  0
  2  1  1  0
  3  4  1  0
  3  2  1  0
  4  5  1  0
  5  1  1  0
  5  6  1  6
  7  6  2  0
  8  6  1  0
  9  8  1  0
  9 14  1  0
  9 10  1  1
 11 10  1  0
 12 11  1  0
 13 12  2  0
 14 15  2  0
 14 22  1  0
 16 12  1  0
 18 19  2  0
 18 17  1  0
 20 18  1  0
 21 20  1  6
 21 23  1  0
 22 21  1  0
 23 25  2  0
 23 24  1  0
M  END
$$$$
