PEN.pdb
     RDKit          3D

 25 25  0  0  1  0  0  0  0  0999 V2000
    9.2684  -13.8590   18.1144 N   0  0  0  0  0  0  0  0  0  0  0  0
    8.0969  -14.2614   17.3756 C   0  0  0  0  0  0  0  0  0  0  0  0
    7.0808  -13.2322   17.8775 C   0  0  0  0  0  0  0  0  0  0  0  0
    7.4127  -13.1481   19.3549 C   0  0  0  0  0  0  0  0  0  0  0  0
    8.8008  -13.6845   19.4489 C   0  0  1  0  0  0  0  0  0  0  0  0
    8.8051  -14.9579   20.2477 C   0  0  0  0  0  0  0  0  0  0  0  0
    7.9580  -15.0482   21.1959 O   0  0  0  0  0  0  0  0  0  0  0  0
    9.6682  -16.0371   20.0220 N   0  0  0  0  0  0  0  0  0  0  0  0
    9.6254  -17.1827   20.9063 C   0  0  1  0  0  0  0  0  0  0  0  0
   10.3832  -18.3650   20.3894 C   0  0  0  0  0  0  0  0  0  0  0  0
   10.2924  -19.5862   21.2574 C   0  0  0  0  0  0  0  0  0  0  0  0
   11.0370  -20.6788   20.5756 C   0  0  0  0  0  0  0  0  0  0  0  0
   12.2076  -20.4916   20.1123 O   0  0  0  0  0  0  0  0  0  0  0  0
   10.2902  -16.7772   22.1905 C   0  0  0  0  0  0  0  0  0  0  0  0
   11.3463  -16.1332   22.1482 O   0  0  0  0  0  0  0  0  0  0  0  0
   10.5239  -21.9582   20.3964 O   0  0  0  0  0  0  0  0  0  0  0  0
    7.1075  -15.3742   25.1322 N   0  0  0  0  0  0  0  0  0  0  0  0
    8.5038  -15.1920   25.2108 C   0  0  0  0  0  0  0  0  0  0  0  0
    8.9536  -14.0587   24.8691 O   0  0  0  0  0  0  0  0  0  0  0  0
    9.4555  -16.1963   25.6509 C   0  0  0  0  0  0  0  0  0  0  0  0
   10.4537  -16.6717   24.6549 C   0  0  2  0  0  0  0  0  0  0  0  0
    9.7528  -17.1044   23.4502 N   0  0  0  0  0  0  0  0  0  0  0  0
   11.3249  -17.7646   25.0987 C   0  0  0  0  0  0  0  0  0  0  0  0
   12.2821  -17.6774   26.0922 O   0  0  0  0  0  0  0  0  0  0  0  0
   11.2148  -18.8926   24.5447 O   0  0  0  0  0  0  0  0  0  0  0  0
  2  1  1  0
  3  4  1  0
  3  2  1  0
  4  5  1  0
  5  1  1  0
  5  6  1  6
  7  6  2  0
  8  6  1  0
  9  8  1  0
  9 14  1  0
  9 10  1  6
 11 10  1  0
 12 11  1  0
 13 12  2  0
 14 15  2  0
 14 22  1  0
 16 12  1  0
 18 19  2  0
 18 17  1  0
 20 18  1  0
 21 20  1  1
 21 23  1  0
 22 21  1  0
 23 25  2  0
 23 24  1  0
M  END
$$$$
