PEN.pdb
     RDKit          3D

 25 25  0  0  1  0  0  0  0  0999 V2000
    9.5245  -13.7962   19.1431 N   0  0  0  0  0  0  0  0  0  0  0  0
    8.4436  -14.3235   18.3470 C   0  0  0  0  0  0  0  0  0  0  0  0
    7.3602  -13.2755   18.6146 C   0  0  0  0  0  0  0  0  0  0  0  0
    7.5369  -13.0028   20.0959 C   0  0  0  0  0  0  0  0  0  0  0  0
    8.9189  -13.4776   20.3927 C   0  0  1  0  0  0  0  0  0  0  0  0
    8.8677  -14.6444   21.3391 C   0  0  0  0  0  0  0  0  0  0  0  0
    7.8856  -14.6878   22.1506 O   0  0  0  0  0  0  0  0  0  0  0  0
    9.8164  -15.6731   21.3876 N   0  0  0  0  0  0  0  0  0  0  0  0
    9.7132  -16.6919   22.4112 C   0  0  1  0  0  0  0  0  0  0  0  0
   10.5031  -17.9260   22.1075 C   0  0  0  0  0  0  0  0  0  0  0  0
   10.0369  -18.6764   20.8941 C   0  0  0  0  0  0  0  0  0  0  0  0
   11.0305  -19.7490   20.6195 C   0  0  0  0  0  0  0  0  0  0  0  0
   11.0178  -20.8436   21.2688 O   0  0  0  0  0  0  0  0  0  0  0  0
   10.2905  -16.1144   23.6718 C   0  0  0  0  0  0  0  0  0  0  0  0
   11.1206  -15.1998   23.5938 O   0  0  0  0  0  0  0  0  0  0  0  0
   12.0257  -19.6410   19.6551 O   0  0  0  0  0  0  0  0  0  0  0  0
    9.8147  -12.8473   28.0217 N   0  0  0  0  0  0  0  0  0  0  0  0
    9.7806  -14.2501   27.8797 C   0  0  0  0  0  0  0  0  0  0  0  0
   10.0602  -14.9365   28.9064 O   0  0  0  0  0  0  0  0  0  0  0  0
    9.4510  -14.9598   26.6568 C   0  0  0  0  0  0  0  0  0  0  0  0
   10.4630  -15.9151   26.1297 C   0  0  2  0  0  0  0  0  0  0  0  0
    9.9196  -16.5780   24.9486 N   0  0  0  0  0  0  0  0  0  0  0  0
   10.9153  -16.9459   27.0695 C   0  0  0  0  0  0  0  0  0  0  0  0
   11.8951  -16.7838   28.0310 O   0  0  0  0  0  0  0  0  0  0  0  0
   10.3833  -18.0888   27.0200 O   0  0  0  0  0  0  0  0  0  0  0  0
  2  1  1  0
  3  4  1  0
  3  2  1  0
  4  5  1  0
  5  1  1  0
  5  6  1  1
  7  6  2  0
  8  6  1  0
  9  8  1  0
  9 14  1  0
  9 10  1  6
 11 10  1  0
 12 11  1  0
 13 12  2  0
 14 15  2  0
 14 22  1  0
 16 12  1  0
 18 19  2  0
 18 17  1  0
 20 18  1  0
 21 20  1  1
 21 23  1  0
 22 21  1  0
 23 25  2  0
 23 24  1  0
M  END
$$$$
