PEN.pdb
     RDKit          3D

 25 25  0  0  1  0  0  0  0  0999 V2000
    7.4451  -14.5053   20.0109 N   0  0  0  0  0  0  0  0  0  0  0  0
    7.8233  -13.2945   20.6974 C   0  0  0  0  0  0  0  0  0  0  0  0
    7.7761  -12.2904   19.5427 C   0  0  0  0  0  0  0  0  0  0  0  0
    8.3838  -13.0843   18.4024 C   0  0  0  0  0  0  0  0  0  0  0  0
    8.2436  -14.5056   18.8310 C   0  0  1  0  0  0  0  0  0  0  0  0
    9.6021  -15.1151   19.0370 C   0  0  0  0  0  0  0  0  0  0  0  0
    9.7060  -16.3719   18.8507 O   0  0  0  0  0  0  0  0  0  0  0  0
   10.7460  -14.4022   19.4161 N   0  0  0  0  0  0  0  0  0  0  0  0
   12.0205  -15.0850   19.4920 C   0  0  1  0  0  0  0  0  0  0  0  0
   13.1698  -14.2609   19.0030 C   0  0  0  0  0  0  0  0  0  0  0  0
   14.4997  -14.9540   19.0663 C   0  0  0  0  0  0  0  0  0  0  0  0
   15.4066  -14.2756   18.1018 C   0  0  0  0  0  0  0  0  0  0  0  0
   16.1907  -13.3448   18.4745 O   0  0  0  0  0  0  0  0  0  0  0  0
   12.2856  -15.3700   20.9426 C   0  0  0  0  0  0  0  0  0  0  0  0
   12.1498  -14.4619   21.7724 O   0  0  0  0  0  0  0  0  0  0  0  0
   15.4663  -14.5984   16.7510 O   0  0  0  0  0  0  0  0  0  0  0  0
   11.5659  -18.9911   25.4413 N   0  0  0  0  0  0  0  0  0  0  0  0
   12.5882  -18.7204   24.5082 C   0  0  0  0  0  0  0  0  0  0  0  0
   13.7797  -18.9065   24.8942 O   0  0  0  0  0  0  0  0  0  0  0  0
   12.3792  -18.2497   23.1508 C   0  0  0  0  0  0  0  0  0  0  0  0
   12.8315  -16.8685   22.8314 C   0  0  2  0  0  0  0  0  0  0  0  0
   12.6855  -16.6413   21.3972 N   0  0  0  0  0  0  0  0  0  0  0  0
   14.2109  -16.5468   23.2108 C   0  0  0  0  0  0  0  0  0  0  0  0
   15.2905  -16.4927   22.3491 O   0  0  0  0  0  0  0  0  0  0  0  0
   14.4651  -16.2935   24.4203 O   0  0  0  0  0  0  0  0  0  0  0  0
  2  1  1  0
  3  4  1  0
  3  2  1  0
  4  5  1  0
  5  1  1  0
  5  6  1  1
  7  6  2  0
  8  6  1  0
  9  8  1  0
  9 14  1  0
  9 10  1  1
 11 10  1  0
 12 11  1  0
 13 12  2  0
 14 15  2  0
 14 22  1  0
 16 12  1  0
 18 19  2  0
 18 17  1  0
 20 18  1  0
 21 20  1  6
 21 23  1  0
 22 21  1  0
 23 25  2  0
 23 24  1  0
M  END
$$$$
