PEN.pdb
     RDKit          3D

 25 25  0  0  1  0  0  0  0  0999 V2000
    9.3606  -14.1837   19.2596 N   0  0  0  0  0  0  0  0  0  0  0  0
    8.1284  -14.4740   18.5684 C   0  0  0  0  0  0  0  0  0  0  0  0
    7.4214  -13.1202   18.6738 C   0  0  0  0  0  0  0  0  0  0  0  0
    7.7552  -12.6938   20.0904 C   0  0  0  0  0  0  0  0  0  0  0  0
    8.9489  -13.5131   20.4472 C   0  0  1  0  0  0  0  0  0  0  0  0
    8.6082  -14.4536   21.5692 C   0  0  0  0  0  0  0  0  0  0  0  0
    7.8815  -13.9925   22.5094 O   0  0  0  0  0  0  0  0  0  0  0  0
    9.0322  -15.7857   21.6486 N   0  0  0  0  0  0  0  0  0  0  0  0
    8.6265  -16.5981   22.7762 C   0  0  1  0  0  0  0  0  0  0  0  0
    8.7751  -18.0679   22.5378 C   0  0  0  0  0  0  0  0  0  0  0  0
   10.1159  -18.4754   22.0001 C   0  0  0  0  0  0  0  0  0  0  0  0
   10.0996  -19.9524   21.8236 C   0  0  0  0  0  0  0  0  0  0  0  0
   10.7963  -20.5178   20.9208 O   0  0  0  0  0  0  0  0  0  0  0  0
    9.5378  -16.2564   23.9202 C   0  0  0  0  0  0  0  0  0  0  0  0
   10.6702  -15.8179   23.6816 O   0  0  0  0  0  0  0  0  0  0  0  0
    9.3403  -20.8087   22.6125 O   0  0  0  0  0  0  0  0  0  0  0  0
    9.7585  -13.9475   29.3983 N   0  0  0  0  0  0  0  0  0  0  0  0
   10.3131  -14.3588   28.1685 C   0  0  0  0  0  0  0  0  0  0  0  0
   11.5732  -14.2968   28.0594 O   0  0  0  0  0  0  0  0  0  0  0  0
    9.5555  -14.8444   27.0292 C   0  0  0  0  0  0  0  0  0  0  0  0
   10.0816  -16.0434   26.3222 C   0  0  2  0  0  0  0  0  0  0  0  0
    9.1489  -16.4173   25.2639 N   0  0  0  0  0  0  0  0  0  0  0  0
   10.3233  -17.2218   27.1609 C   0  0  0  0  0  0  0  0  0  0  0  0
   11.4342  -17.4282   27.9571 O   0  0  0  0  0  0  0  0  0  0  0  0
    9.4614  -18.1430   27.1774 O   0  0  0  0  0  0  0  0  0  0  0  0
  2  1  1  0
  3  4  1  0
  3  2  1  0
  4  5  1  0
  5  1  1  0
  5  6  1  1
  7  6  2  0
  8  6  1  0
  9  8  1  0
  9 14  1  0
  9 10  1  6
 11 10  1  0
 12 11  1  0
 13 12  2  0
 14 15  2  0
 14 22  1  0
 16 12  1  0
 18 19  2  0
 18 17  1  0
 20 18  1  0
 21 20  1  1
 21 23  1  0
 22 21  1  0
 23 25  2  0
 23 24  1  0
M  END
$$$$
