PEN.pdb
     RDKit          3D

 25 25  0  0  1  0  0  0  0  0999 V2000
    9.4164  -14.0770   19.1172 N   0  0  0  0  0  0  0  0  0  0  0  0
    8.1467  -14.2119   18.4464 C   0  0  0  0  0  0  0  0  0  0  0  0
    7.6560  -12.7621   18.4795 C   0  0  0  0  0  0  0  0  0  0  0  0
    8.0667  -12.3164   19.8697 C   0  0  0  0  0  0  0  0  0  0  0  0
    9.1253  -13.2884   20.2674 C   0  0  1  0  0  0  0  0  0  0  0  0
    8.6574  -14.1041   21.4402 C   0  0  0  0  0  0  0  0  0  0  0  0
    8.1493  -13.4677   22.4209 O   0  0  0  0  0  0  0  0  0  0  0  0
    8.7431  -15.4991   21.5253 N   0  0  0  0  0  0  0  0  0  0  0  0
    8.2902  -16.1703   22.7255 C   0  0  1  0  0  0  0  0  0  0  0  0
    7.8935  -17.5954   22.4994 C   0  0  0  0  0  0  0  0  0  0  0  0
    6.7247  -17.7733   21.5747 C   0  0  0  0  0  0  0  0  0  0  0  0
    6.4884  -19.2344   21.4248 C   0  0  0  0  0  0  0  0  0  0  0  0
    5.7095  -19.8620   22.2118 O   0  0  0  0  0  0  0  0  0  0  0  0
    9.4469  -16.1955   23.6833 C   0  0  0  0  0  0  0  0  0  0  0  0
   10.4541  -15.5211   23.4336 O   0  0  0  0  0  0  0  0  0  0  0  0
    7.0858  -20.0085   20.4368 O   0  0  0  0  0  0  0  0  0  0  0  0
   10.6445  -14.9669   28.5754 N   0  0  0  0  0  0  0  0  0  0  0  0
    9.7118  -14.4707   27.6411 C   0  0  0  0  0  0  0  0  0  0  0  0
    9.1315  -13.3838   27.9332 O   0  0  0  0  0  0  0  0  0  0  0  0
    9.3709  -15.1057   26.3808 C   0  0  0  0  0  0  0  0  0  0  0  0
   10.0181  -16.4112   26.0787 C   0  0  2  0  0  0  0  0  0  0  0  0
    9.4279  -16.9633   24.8635 N   0  0  0  0  0  0  0  0  0  0  0  0
    9.9304  -17.4246   27.1350 C   0  0  0  0  0  0  0  0  0  0  0  0
   10.9291  -17.7318   28.0399 O   0  0  0  0  0  0  0  0  0  0  0  0
    8.8646  -18.0894   27.2522 O   0  0  0  0  0  0  0  0  0  0  0  0
  2  1  1  0
  3  4  1  0
  3  2  1  0
  4  5  1  0
  5  1  1  0
  5  6  1  1
  7  6  2  0
  8  6  1  0
  9  8  1  0
  9 14  1  0
  9 10  1  6
 11 10  1  0
 12 11  1  0
 13 12  2  0
 14 15  2  0
 14 22  1  0
 16 12  1  0
 18 19  2  0
 18 17  1  0
 20 18  1  0
 21 20  1  1
 21 23  1  0
 22 21  1  0
 23 25  2  0
 23 24  1  0
M  END
$$$$
