PEN.pdb
     RDKit          3D

 25 25  0  0  1  0  0  0  0  0999 V2000
    9.1974  -13.3846   17.8589 N   0  0  0  0  0  0  0  0  0  0  0  0
    7.9918  -13.9296   17.2846 C   0  0  0  0  0  0  0  0  0  0  0  0
    6.9408  -13.3491   18.2344 C   0  0  0  0  0  0  0  0  0  0  0  0
    7.6169  -13.4891   19.5847 C   0  0  0  0  0  0  0  0  0  0  0  0
    9.0645  -13.6299   19.2560 C   0  0  1  0  0  0  0  0  0  0  0  0
    9.5530  -14.9910   19.6660 C   0  0  0  0  0  0  0  0  0  0  0  0
    8.8148  -15.6531   20.4670 O   0  0  0  0  0  0  0  0  0  0  0  0
   10.7511  -15.5716   19.2322 N   0  0  0  0  0  0  0  0  0  0  0  0
   11.1558  -16.8560   19.7638 C   0  0  1  0  0  0  0  0  0  0  0  0
   12.1356  -17.5803   18.8951 C   0  0  0  0  0  0  0  0  0  0  0  0
   11.5172  -18.3036   17.7343 C   0  0  0  0  0  0  0  0  0  0  0  0
   12.6182  -18.7122   16.8210 C   0  0  0  0  0  0  0  0  0  0  0  0
   12.4106  -19.5097   15.8511 O   0  0  0  0  0  0  0  0  0  0  0  0
   11.8521  -16.5967   21.0690 C   0  0  0  0  0  0  0  0  0  0  0  0
   12.4510  -15.5262   21.2332 O   0  0  0  0  0  0  0  0  0  0  0  0
   13.9276  -18.2649   16.9535 O   0  0  0  0  0  0  0  0  0  0  0  0
   10.4270  -15.2092   24.2548 N   0  0  0  0  0  0  0  0  0  0  0  0
   10.5435  -16.4765   24.8628 C   0  0  0  0  0  0  0  0  0  0  0  0
    9.7352  -16.7375   25.8019 O   0  0  0  0  0  0  0  0  0  0  0  0
   11.5106  -17.4952   24.4958 C   0  0  0  0  0  0  0  0  0  0  0  0
   12.4587  -17.1698   23.3959 C   0  0  2  0  0  0  0  0  0  0  0  0
   11.8486  -17.5328   22.1209 N   0  0  0  0  0  0  0  0  0  0  0  0
   13.7735  -17.8140   23.4776 C   0  0  0  0  0  0  0  0  0  0  0  0
   14.9149  -17.2477   24.0135 O   0  0  0  0  0  0  0  0  0  0  0  0
   13.9051  -18.9854   23.0279 O   0  0  0  0  0  0  0  0  0  0  0  0
  2  1  1  0
  3  4  1  0
  3  2  1  0
  4  5  1  0
  5  1  1  0
  5  6  1  6
  7  6  2  0
  8  6  1  0
  9  8  1  0
  9 14  1  0
  9 10  1  6
 11 10  1  0
 12 11  1  0
 13 12  2  0
 14 15  2  0
 14 22  1  0
 16 12  1  0
 18 19  2  0
 18 17  1  0
 20 18  1  0
 21 20  1  1
 21 23  1  0
 22 21  1  0
 23 25  2  0
 23 24  1  0
M  END
$$$$
