PEN.pdb
     RDKit          3D

 25 25  0  0  1  0  0  0  0  0999 V2000
    8.4326  -15.0157   19.0934 N   0  0  0  0  0  0  0  0  0  0  0  0
    7.5125  -14.2865   19.9313 C   0  0  0  0  0  0  0  0  0  0  0  0
    7.4730  -12.9415   19.2012 C   0  0  0  0  0  0  0  0  0  0  0  0
    8.9266  -12.7426   18.8170 C   0  0  0  0  0  0  0  0  0  0  0  0
    9.5139  -14.1113   18.8871 C   0  0  1  0  0  0  0  0  0  0  0  0
   10.5490  -14.1696   19.9756 C   0  0  0  0  0  0  0  0  0  0  0  0
   11.5040  -13.3279   19.9108 O   0  0  0  0  0  0  0  0  0  0  0  0
   10.5335  -15.0770   21.0419 N   0  0  0  0  0  0  0  0  0  0  0  0
   11.6307  -15.0876   21.9865 C   0  0  1  0  0  0  0  0  0  0  0  0
   11.4141  -16.0116   23.1434 C   0  0  0  0  0  0  0  0  0  0  0  0
   10.2119  -15.6844   23.9803 C   0  0  0  0  0  0  0  0  0  0  0  0
   10.1917  -16.6311   25.1277 C   0  0  0  0  0  0  0  0  0  0  0  0
   11.1016  -16.6107   26.0174 O   0  0  0  0  0  0  0  0  0  0  0  0
   12.8408  -15.5946   21.2553 C   0  0  0  0  0  0  0  0  0  0  0  0
   12.7422  -16.6079   20.5517 O   0  0  0  0  0  0  0  0  0  0  0  0
    9.2006  -17.5882   25.3124 O   0  0  0  0  0  0  0  0  0  0  0  0
   14.7645  -13.1249   18.0896 N   0  0  0  0  0  0  0  0  0  0  0  0
   15.1162  -14.4096   18.5532 C   0  0  0  0  0  0  0  0  0  0  0  0
   14.7352  -15.3947   17.8546 O   0  0  0  0  0  0  0  0  0  0  0  0
   15.8760  -14.6852   19.7592 C   0  0  0  0  0  0  0  0  0  0  0  0
   15.2619  -15.6035   20.7563 C   0  0  2  0  0  0  0  0  0  0  0  0
   14.0924  -14.9553   21.3410 N   0  0  0  0  0  0  0  0  0  0  0  0
   16.1407  -16.0388   21.8466 C   0  0  0  0  0  0  0  0  0  0  0  0
   17.2601  -16.8376   21.7073 O   0  0  0  0  0  0  0  0  0  0  0  0
   15.8776  -15.6686   23.0236 O   0  0  0  0  0  0  0  0  0  0  0  0
  2  1  1  0
  3  4  1  0
  3  2  1  0
  4  5  1  0
  5  1  1  0
  5  6  1  1
  7  6  2  0
  8  6  1  0
  9  8  1  0
  9 14  1  0
  9 10  1  1
 11 10  1  0
 12 11  1  0
 13 12  2  0
 14 15  2  0
 14 22  1  0
 16 12  1  0
 18 19  2  0
 18 17  1  0
 20 18  1  0
 21 20  1  6
 21 23  1  0
 22 21  1  0
 23 25  2  0
 23 24  1  0
M  END
$$$$
