PEN.pdb
     RDKit          3D

 25 25  0  0  1  0  0  0  0  0999 V2000
    7.9535  -14.7732   19.0733 N   0  0  0  0  0  0  0  0  0  0  0  0
    6.7328  -14.0159   19.2019 C   0  0  0  0  0  0  0  0  0  0  0  0
    7.2944  -12.5980   19.3356 C   0  0  0  0  0  0  0  0  0  0  0  0
    8.4962  -12.8129   20.2353 C   0  0  0  0  0  0  0  0  0  0  0  0
    8.7918  -14.2689   20.1090 C   0  0  1  0  0  0  0  0  0  0  0  0
    8.5748  -14.9522   21.4302 C   0  0  0  0  0  0  0  0  0  0  0  0
    7.3977  -15.3752   21.6758 O   0  0  0  0  0  0  0  0  0  0  0  0
    9.5680  -15.1512   22.3970 N   0  0  0  0  0  0  0  0  0  0  0  0
    9.2735  -15.9468   23.5701 C   0  0  1  0  0  0  0  0  0  0  0  0
   10.2575  -17.0490   23.8069 C   0  0  0  0  0  0  0  0  0  0  0  0
   10.2805  -18.0993   22.7348 C   0  0  0  0  0  0  0  0  0  0  0  0
   11.6868  -18.5619   22.5887 C   0  0  0  0  0  0  0  0  0  0  0  0
   11.9583  -19.7737   22.3100 O   0  0  0  0  0  0  0  0  0  0  0  0
    9.3606  -15.0333   24.7592 C   0  0  0  0  0  0  0  0  0  0  0  0
   10.3002  -14.2317   24.8389 O   0  0  0  0  0  0  0  0  0  0  0  0
   12.7869  -17.7260   22.7417 O   0  0  0  0  0  0  0  0  0  0  0  0
    6.6657  -11.2426   26.6003 N   0  0  0  0  0  0  0  0  0  0  0  0
    6.7490  -12.6370   26.4059 C   0  0  0  0  0  0  0  0  0  0  0  0
    6.2827  -13.0927   25.3203 O   0  0  0  0  0  0  0  0  0  0  0  0
    7.3247  -13.5805   27.3473 C   0  0  0  0  0  0  0  0  0  0  0  0
    8.6159  -14.2170   26.9705 C   0  0  2  0  0  0  0  0  0  0  0  0
    8.4061  -15.0549   25.7941 N   0  0  0  0  0  0  0  0  0  0  0  0
    9.2504  -15.0333   28.0103 C   0  0  0  0  0  0  0  0  0  0  0  0
    9.8300  -14.5516   29.1692 O   0  0  0  0  0  0  0  0  0  0  0  0
    9.2862  -16.2857   27.8623 O   0  0  0  0  0  0  0  0  0  0  0  0
  2  1  1  0
  3  4  1  0
  3  2  1  0
  4  5  1  0
  5  1  1  0
  5  6  1  1
  7  6  2  0
  8  6  1  0
  9  8  1  0
  9 14  1  0
  9 10  1  1
 11 10  1  0
 12 11  1  0
 13 12  2  0
 14 15  2  0
 14 22  1  0
 16 12  1  0
 18 19  2  0
 18 17  1  0
 20 18  1  0
 21 20  1  1
 21 23  1  0
 22 21  1  0
 23 25  2  0
 23 24  1  0
M  END
$$$$
