SPS.pdb
     RDKit          3D

 20 20  0  0  1  0  0  0  0  0999 V2000
   20.4044  -10.1074  -18.8053 O   0  0  0  0  0  0  0  0  0  0  0  0
   19.3934  -11.0447  -18.5921 C   0  0  0  0  0  0  0  0  0  0  0  0
   19.7923  -11.8873  -17.4028 C   0  0  2  0  0  0  0  0  0  0  0  0
   18.8572  -12.9473  -17.2116 N   0  0  0  0  0  0  0  0  0  0  0  0
   20.0413  -11.0705  -16.1965 C   0  0  0  0  0  0  0  0  0  0  0  0
   19.0395  -10.6512  -15.5671 O   0  0  0  0  0  0  0  0  0  0  0  0
   21.3268  -10.7353  -15.7125 N   0  0  0  0  0  0  0  0  0  0  0  0
   22.5539  -11.2420  -16.2941 C   0  0  0  0  0  0  0  0  0  0  0  0
   23.6762  -10.7006  -15.4357 C   0  0  0  0  0  0  0  0  0  0  0  0
   23.0447  -10.2532  -14.1585 C   0  0  0  0  0  0  0  0  0  0  0  0
   21.6332   -9.8708  -14.6065 C   0  0  1  0  0  0  0  0  0  0  0  0
   21.6936   -8.4392  -15.0113 C   0  0  0  0  0  0  0  0  0  0  0  0
   22.1391   -8.1518  -16.1486 O   0  0  0  0  0  0  0  0  0  0  0  0
   19.7026   -4.1546  -14.7350 O   0  0  0  0  0  0  0  0  0  0  0  0
   19.7257   -5.4874  -14.3280 C   0  0  0  0  0  0  0  0  0  0  0  0
   21.1422   -6.0240  -14.5464 C   0  0  2  0  0  0  0  0  0  0  0  0
   21.2646   -7.3901  -14.1545 N   0  0  0  0  0  0  0  0  0  0  0  0
   22.1436   -5.1396  -13.9052 C   0  0  0  0  0  0  0  0  0  0  0  0
   22.5031   -5.4131  -12.7358 O   0  0  0  0  0  0  0  0  0  0  0  0
   22.7057   -4.0338  -14.5135 O   0  0  0  0  0  0  0  0  0  0  0  0
  2  1  1  0
  3  2  1  0
  3  4  1  1
  5  7  1  0
  5  3  1  0
  6  5  2  0
  7  8  1  0
  9  8  1  0
 10 11  1  0
 10  9  1  0
 11  7  1  0
 11 12  1  6
 12 17  1  0
 13 12  2  0
 16 15  1  1
 15 14  1  0
 16 18  1  0
 17 16  1  0
 18 20  1  0
 19 18  2  0
M  END
$$$$
