SPS.pdb
     RDKit          3D

 20 20  0  0  1  0  0  0  0  0999 V2000
   16.3335  -15.8037  -15.9332 O   0  0  0  0  0  0  0  0  0  0  0  0
   16.1081  -16.6257  -14.8288 C   0  0  0  0  0  0  0  0  0  0  0  0
   17.1132  -16.2503  -13.7646 C   0  0  2  0  0  0  0  0  0  0  0  0
   18.0102  -17.3336  -13.5272 N   0  0  0  0  0  0  0  0  0  0  0  0
   16.4665  -15.7176  -12.5471 C   0  0  0  0  0  0  0  0  0  0  0  0
   16.1586  -16.5404  -11.6506 O   0  0  0  0  0  0  0  0  0  0  0  0
   16.1759  -14.3507  -12.3322 N   0  0  0  0  0  0  0  0  0  0  0  0
   16.4800  -13.3108  -13.2951 C   0  0  0  0  0  0  0  0  0  0  0  0
   16.0775  -12.0071  -12.6411 C   0  0  0  0  0  0  0  0  0  0  0  0
   15.9493  -12.2957  -11.1814 C   0  0  0  0  0  0  0  0  0  0  0  0
   15.5547  -13.7733  -11.1724 C   0  0  1  0  0  0  0  0  0  0  0  0
   14.0683  -13.8123  -11.2521 C   0  0  0  0  0  0  0  0  0  0  0  0
   13.5204  -13.6843  -12.3737 O   0  0  0  0  0  0  0  0  0  0  0  0
   11.6673  -14.9087   -7.8988 O   0  0  0  0  0  0  0  0  0  0  0  0
   11.3611  -15.2717   -9.2090 C   0  0  0  0  0  0  0  0  0  0  0  0
   11.8344  -14.1482  -10.1339 C   0  0  2  0  0  0  0  0  0  0  0  0
   13.2516  -13.9892  -10.1029 N   0  0  0  0  0  0  0  0  0  0  0  0
   11.0987  -12.8926   -9.8543 C   0  0  0  0  0  0  0  0  0  0  0  0
    9.8553  -12.8941  -10.0147 O   0  0  0  0  0  0  0  0  0  0  0  0
   11.6952  -11.7213   -9.4285 O   0  0  0  0  0  0  0  0  0  0  0  0
  2  1  1  0
  3  2  1  0
  3  4  1  1
  5  7  1  0
  5  3  1  0
  6  5  2  0
  7  8  1  0
  9  8  1  0
 10 11  1  0
 10  9  1  0
 11  7  1  0
 11 12  1  6
 12 17  1  0
 13 12  2  0
 16 15  1  1
 15 14  1  0
 16 18  1  0
 17 16  1  0
 18 20  1  0
 19 18  2  0
M  END
$$$$
