SPS.pdb
     RDKit          3D

 20 20  0  0  1  0  0  0  0  0999 V2000
   16.4708   -9.8731  -17.6024 O   0  0  0  0  0  0  0  0  0  0  0  0
   17.8646   -9.9144  -17.5630 C   0  0  0  0  0  0  0  0  0  0  0  0
   18.2689  -10.4956  -16.2279 C   0  0  2  0  0  0  0  0  0  0  0  0
   17.1531  -11.1306  -15.6065 N   0  0  0  0  0  0  0  0  0  0  0  0
   18.9602   -9.5072  -15.3737 C   0  0  0  0  0  0  0  0  0  0  0  0
   18.3067   -9.0070  -14.4259 O   0  0  0  0  0  0  0  0  0  0  0  0
   20.3000   -9.0944  -15.5568 N   0  0  0  0  0  0  0  0  0  0  0  0
   21.1639   -9.6289  -16.5907 C   0  0  0  0  0  0  0  0  0  0  0  0
   22.5134   -8.9765  -16.3841 C   0  0  0  0  0  0  0  0  0  0  0  0
   22.4973   -8.4159  -15.0000 C   0  0  0  0  0  0  0  0  0  0  0  0
   21.0133   -8.1146  -14.7851 C   0  0  1  0  0  0  0  0  0  0  0  0
   20.7882   -6.7307  -15.2865 C   0  0  0  0  0  0  0  0  0  0  0  0
   20.6375   -6.5524  -16.5194 O   0  0  0  0  0  0  0  0  0  0  0  0
   19.0215   -2.4012  -14.3047 O   0  0  0  0  0  0  0  0  0  0  0  0
   19.3755   -3.6582  -13.8177 C   0  0  0  0  0  0  0  0  0  0  0  0
   20.3481   -4.2943  -14.8134 C   0  0  2  0  0  0  0  0  0  0  0  0
   20.7385   -5.6078  -14.4172 N   0  0  0  0  0  0  0  0  0  0  0  0
   21.4976   -3.3956  -15.0721 C   0  0  0  0  0  0  0  0  0  0  0  0
   22.4845   -3.4705  -14.3026 O   0  0  0  0  0  0  0  0  0  0  0  0
   21.5509   -2.4810  -16.1064 O   0  0  0  0  0  0  0  0  0  0  0  0
  2  1  1  0
  3  2  1  0
  3  4  1  1
  5  7  1  0
  5  3  1  0
  6  5  2  0
  7  8  1  0
  9  8  1  0
 10 11  1  0
 10  9  1  0
 11  7  1  0
 11 12  1  6
 12 17  1  0
 13 12  2  0
 16 15  1  1
 15 14  1  0
 16 18  1  0
 17 16  1  0
 18 20  1  0
 19 18  2  0
M  END
$$$$
