SPS.pdb
     RDKit          3D

 20 20  0  0  1  0  0  0  0  0999 V2000
   21.6096  -12.7473  -19.5944 O   0  0  0  0  0  0  0  0  0  0  0  0
   21.2484  -11.7148  -18.7286 C   0  0  0  0  0  0  0  0  0  0  0  0
   20.8255  -12.3405  -17.4196 C   0  0  2  0  0  0  0  0  0  0  0  0
   19.6464  -13.1218  -17.6029 N   0  0  0  0  0  0  0  0  0  0  0  0
   20.7344  -11.3478  -16.3285 C   0  0  0  0  0  0  0  0  0  0  0  0
   19.6186  -10.8075  -16.1321 O   0  0  0  0  0  0  0  0  0  0  0  0
   21.8170  -10.9726  -15.5000 N   0  0  0  0  0  0  0  0  0  0  0  0
   23.1284  -11.5851  -15.5771 C   0  0  0  0  0  0  0  0  0  0  0  0
   23.9509  -10.9477  -14.4786 C   0  0  0  0  0  0  0  0  0  0  0  0
   22.9757  -10.3045  -13.5482 C   0  0  0  0  0  0  0  0  0  0  0  0
   21.8111   -9.9621  -14.4786 C   0  0  1  0  0  0  0  0  0  0  0  0
   22.0948   -8.6068  -15.0264 C   0  0  0  0  0  0  0  0  0  0  0  0
   22.9409   -8.4925  -15.9459 O   0  0  0  0  0  0  0  0  0  0  0  0
   19.4050   -5.5538  -14.3381 O   0  0  0  0  0  0  0  0  0  0  0  0
   20.1891   -5.5559  -15.4903 C   0  0  0  0  0  0  0  0  0  0  0  0
   21.5544   -6.1472  -15.1321 C   0  0  2  0  0  0  0  0  0  0  0  0
   21.4407   -7.4416  -14.5436 N   0  0  0  0  0  0  0  0  0  0  0  0
   22.3384   -5.1970  -14.3083 C   0  0  0  0  0  0  0  0  0  0  0  0
   22.6039   -5.5259  -13.1280 O   0  0  0  0  0  0  0  0  0  0  0  0
   22.7952   -3.9730  -14.7577 O   0  0  0  0  0  0  0  0  0  0  0  0
  2  1  1  0
  3  2  1  0
  3  4  1  6
  5  7  1  0
  5  3  1  0
  6  5  2  0
  7  8  1  0
  9  8  1  0
 10 11  1  0
 10  9  1  0
 11  7  1  0
 11 12  1  6
 12 17  1  0
 13 12  2  0
 16 15  1  1
 15 14  1  0
 16 18  1  0
 17 16  1  0
 18 20  1  0
 19 18  2  0
M  END
$$$$
