SPS.pdb
     RDKit          3D

 20 20  0  0  1  0  0  0  0  0999 V2000
   18.9272   -7.6568  -18.0789 O   0  0  0  0  0  0  0  0  0  0  0  0
   20.0399   -8.3905  -17.6673 C   0  0  0  0  0  0  0  0  0  0  0  0
   19.9151   -8.6170  -16.1784 C   0  0  2  0  0  0  0  0  0  0  0  0
   18.8873   -9.5680  -15.9071 N   0  0  0  0  0  0  0  0  0  0  0  0
   19.7854   -7.3500  -15.4286 C   0  0  0  0  0  0  0  0  0  0  0  0
   18.6385   -7.0295  -15.0320 O   0  0  0  0  0  0  0  0  0  0  0  0
   20.8640   -6.4848  -15.1332 N   0  0  0  0  0  0  0  0  0  0  0  0
   22.2226   -6.7254  -15.5772 C   0  0  0  0  0  0  0  0  0  0  0  0
   23.0576   -5.6108  -14.9856 C   0  0  0  0  0  0  0  0  0  0  0  0
   22.2374   -5.0127  -13.8902 C   0  0  0  0  0  0  0  0  0  0  0  0
   20.8088   -5.2664  -14.3738 C   0  0  1  0  0  0  0  0  0  0  0  0
   20.4352   -4.0957  -15.2148 C   0  0  0  0  0  0  0  0  0  0  0  0
   20.8403   -4.0512  -16.4016 O   0  0  0  0  0  0  0  0  0  0  0  0
   17.5518   -1.4417  -13.8143 O   0  0  0  0  0  0  0  0  0  0  0  0
   17.6364   -1.6880  -15.1834 C   0  0  0  0  0  0  0  0  0  0  0  0
   19.1001   -1.9799  -15.5218 C   0  0  2  0  0  0  0  0  0  0  0  0
   19.6371   -3.0298  -14.7192 N   0  0  0  0  0  0  0  0  0  0  0  0
   19.9073   -0.7380  -15.4768 C   0  0  0  0  0  0  0  0  0  0  0  0
   20.8310   -0.6701  -14.6319 O   0  0  0  0  0  0  0  0  0  0  0  0
   19.7071    0.3489  -16.3060 O   0  0  0  0  0  0  0  0  0  0  0  0
  2  1  1  0
  3  2  1  0
  3  4  1  6
  5  7  1  0
  5  3  1  0
  6  5  2  0
  7  8  1  0
  9  8  1  0
 10 11  1  0
 10  9  1  0
 11  7  1  0
 11 12  1  6
 12 17  1  0
 13 12  2  0
 16 15  1  1
 15 14  1  0
 16 18  1  0
 17 16  1  0
 18 20  1  0
 19 18  2  0
M  END
$$$$
