SPS.pdb
     RDKit          3D

 20 20  0  0  1  0  0  0  0  0999 V2000
   11.3871  -22.2628   -7.5961 O   0  0  0  0  0  0  0  0  0  0  0  0
   11.1781  -23.5506   -7.1023 C   0  0  0  0  0  0  0  0  0  0  0  0
   12.5301  -24.1430   -6.7785 C   0  0  2  0  0  0  0  0  0  0  0  0
   12.8882  -25.1207   -7.7532 N   0  0  0  0  0  0  0  0  0  0  0  0
   12.6129  -24.6176   -5.3813 C   0  0  0  0  0  0  0  0  0  0  0  0
   12.2420  -25.7940   -5.1489 O   0  0  0  0  0  0  0  0  0  0  0  0
   13.0799  -23.8352   -4.3002 N   0  0  0  0  0  0  0  0  0  0  0  0
   13.5586  -22.4752   -4.4496 C   0  0  0  0  0  0  0  0  0  0  0  0
   14.0250  -22.0446   -3.0761 C   0  0  0  0  0  0  0  0  0  0  0  0
   14.1889  -23.2976   -2.2803 C   0  0  0  0  0  0  0  0  0  0  0  0
   13.1601  -24.2305   -2.9212 C   0  0  1  0  0  0  0  0  0  0  0  0
   11.8792  -24.0057   -2.1960 C   0  0  0  0  0  0  0  0  0  0  0  0
   11.0906  -23.1275   -2.6219 O   0  0  0  0  0  0  0  0  0  0  0  0
   11.1209  -26.0811    1.3053 O   0  0  0  0  0  0  0  0  0  0  0  0
    9.9958  -25.8931    0.5046 C   0  0  0  0  0  0  0  0  0  0  0  0
   10.2517  -24.6808   -0.3935 C   0  0  2  0  0  0  0  0  0  0  0  0
   11.5210  -24.7509   -1.0405 N   0  0  0  0  0  0  0  0  0  0  0  0
   10.0462  -23.4191    0.3561 C   0  0  0  0  0  0  0  0  0  0  0  0
   11.0446  -22.6878    0.5567 O   0  0  0  0  0  0  0  0  0  0  0  0
    8.8257  -22.9976    0.8475 O   0  0  0  0  0  0  0  0  0  0  0  0
  2  1  1  0
  3  2  1  0
  3  4  1  6
  5  7  1  0
  5  3  1  0
  6  5  2  0
  7  8  1  0
  9  8  1  0
 10 11  1  0
 10  9  1  0
 11  7  1  0
 11 12  1  1
 12 17  1  0
 13 12  2  0
 16 15  1  1
 15 14  1  0
 16 18  1  0
 17 16  1  0
 18 20  1  0
 19 18  2  0
M  END
$$$$
