SPS.pdb
     RDKit          3D

 20 20  0  0  1  0  0  0  0  0999 V2000
   21.9047  -10.3896  -19.3149 O   0  0  0  0  0  0  0  0  0  0  0  0
   20.8186  -11.2518  -19.1631 C   0  0  0  0  0  0  0  0  0  0  0  0
   20.9757  -11.9586  -17.8366 C   0  0  2  0  0  0  0  0  0  0  0  0
   19.9998  -12.9907  -17.7074 N   0  0  0  0  0  0  0  0  0  0  0  0
   21.0168  -11.0139  -16.7007 C   0  0  0  0  0  0  0  0  0  0  0  0
   19.9306  -10.4989  -16.3394 O   0  0  0  0  0  0  0  0  0  0  0  0
   22.1935  -10.6580  -16.0024 N   0  0  0  0  0  0  0  0  0  0  0  0
   23.4911  -11.2416  -16.2790 C   0  0  0  0  0  0  0  0  0  0  0  0
   24.4421  -10.6412  -15.2666 C   0  0  0  0  0  0  0  0  0  0  0  0
   23.5888  -10.0608  -14.1872 C   0  0  0  0  0  0  0  0  0  0  0  0
   22.3086   -9.6968  -14.9406 C   0  0  1  0  0  0  0  0  0  0  0  0
   22.5015   -8.3123  -15.4535 C   0  0  0  0  0  0  0  0  0  0  0  0
   23.2577   -8.1335  -16.4387 O   0  0  0  0  0  0  0  0  0  0  0  0
   19.6723   -5.4744  -14.6367 O   0  0  0  0  0  0  0  0  0  0  0  0
   20.4692   -5.3848  -15.7766 C   0  0  0  0  0  0  0  0  0  0  0  0
   21.8733   -5.8716  -15.4115 C   0  0  2  0  0  0  0  0  0  0  0  0
   21.8591   -7.1895  -14.8658 N   0  0  0  0  0  0  0  0  0  0  0  0
   22.5617   -4.8868  -14.5441 C   0  0  0  0  0  0  0  0  0  0  0  0
   22.8325   -5.2298  -13.3690 O   0  0  0  0  0  0  0  0  0  0  0  0
   22.9237   -3.6159  -14.9474 O   0  0  0  0  0  0  0  0  0  0  0  0
  2  1  1  0
  3  2  1  0
  3  4  1  1
  5  7  1  0
  5  3  1  0
  6  5  2  0
  7  8  1  0
  9  8  1  0
 10 11  1  0
 10  9  1  0
 11  7  1  0
 11 12  1  6
 12 17  1  0
 13 12  2  0
 16 15  1  1
 15 14  1  0
 16 18  1  0
 17 16  1  0
 18 20  1  0
 19 18  2  0
M  END
$$$$
