SPS.pdb
     RDKit          3D

 20 20  0  0  1  0  0  0  0  0999 V2000
   18.3919  -11.3891  -19.6082 O   0  0  0  0  0  0  0  0  0  0  0  0
   18.9578  -10.7606  -18.4988 C   0  0  0  0  0  0  0  0  0  0  0  0
   20.1877  -11.5452  -18.1046 C   0  0  2  0  0  0  0  0  0  0  0  0
   19.8129  -12.7724  -17.4817 N   0  0  0  0  0  0  0  0  0  0  0  0
   21.1430  -10.7327  -17.3227 C   0  0  0  0  0  0  0  0  0  0  0  0
   21.1120  -10.8495  -16.0734 O   0  0  0  0  0  0  0  0  0  0  0  0
   22.0811   -9.8400  -17.8904 N   0  0  0  0  0  0  0  0  0  0  0  0
   22.2850   -9.7010  -19.3187 C   0  0  0  0  0  0  0  0  0  0  0  0
   23.4156   -8.7089  -19.4833 C   0  0  0  0  0  0  0  0  0  0  0  0
   24.0976   -8.6311  -18.1570 C   0  0  0  0  0  0  0  0  0  0  0  0
   22.9613   -8.9505  -17.1843 C   0  0  1  0  0  0  0  0  0  0  0  0
   22.3077   -7.6524  -16.8601 C   0  0  0  0  0  0  0  0  0  0  0  0
   21.6174   -7.0872  -17.7424 O   0  0  0  0  0  0  0  0  0  0  0  0
   21.8145   -6.5603  -12.9020 O   0  0  0  0  0  0  0  0  0  0  0  0
   20.9178   -6.1413  -13.8831 C   0  0  0  0  0  0  0  0  0  0  0  0
   21.7088   -5.8832  -15.1675 C   0  0  2  0  0  0  0  0  0  0  0  0
   22.4396   -7.0339  -15.5877 N   0  0  0  0  0  0  0  0  0  0  0  0
   22.5522   -4.6725  -15.0308 C   0  0  0  0  0  0  0  0  0  0  0  0
   23.7958   -4.8137  -15.1032 O   0  0  0  0  0  0  0  0  0  0  0  0
   22.0559   -3.3990  -14.8286 O   0  0  0  0  0  0  0  0  0  0  0  0
  2  1  1  0
  3  2  1  0
  3  4  1  1
  5  7  1  0
  5  3  1  0
  6  5  2  0
  7  8  1  0
  9  8  1  0
 10 11  1  0
 10  9  1  0
 11  7  1  0
 11 12  1  6
 12 17  1  0
 13 12  2  0
 16 15  1  1
 15 14  1  0
 16 18  1  0
 17 16  1  0
 18 20  1  0
 19 18  2  0
M  END
$$$$
