SPS.pdb
     RDKit          3D

 20 20  0  0  1  0  0  0  0  0999 V2000
   19.3563  -10.0359  -18.3446 O   0  0  0  0  0  0  0  0  0  0  0  0
   19.8785  -11.3285  -18.2951 C   0  0  0  0  0  0  0  0  0  0  0  0
   19.6043  -11.8816  -16.9157 C   0  0  2  0  0  0  0  0  0  0  0  0
   18.2461  -12.3049  -16.8134 N   0  0  0  0  0  0  0  0  0  0  0  0
   20.0360  -10.9574  -15.8463 C   0  0  0  0  0  0  0  0  0  0  0  0
   19.1444  -10.2941  -15.2627 O   0  0  0  0  0  0  0  0  0  0  0  0
   21.3793  -10.7762  -15.4438 N   0  0  0  0  0  0  0  0  0  0  0  0
   22.4724  -11.5981  -15.9240 C   0  0  0  0  0  0  0  0  0  0  0  0
   23.7070  -11.1175  -15.1930 C   0  0  0  0  0  0  0  0  0  0  0  0
   23.2175  -10.3297  -14.0225 C   0  0  0  0  0  0  0  0  0  0  0  0
   21.8790   -9.7888  -14.5274 C   0  0  1  0  0  0  0  0  0  0  0  0
   22.1755   -8.4946  -15.2015 C   0  0  0  0  0  0  0  0  0  0  0  0
   22.4298   -8.4984  -16.4302 O   0  0  0  0  0  0  0  0  0  0  0  0
   20.3706   -4.5024  -16.0412 O   0  0  0  0  0  0  0  0  0  0  0  0
   20.4810   -5.7395  -15.4088 C   0  0  0  0  0  0  0  0  0  0  0  0
   21.9607   -5.9850  -15.1054 C   0  0  2  0  0  0  0  0  0  0  0  0
   22.1802   -7.2584  -14.5011 N   0  0  0  0  0  0  0  0  0  0  0  0
   22.5304   -4.8614  -14.3251 C   0  0  0  0  0  0  0  0  0  0  0  0
   22.4420   -4.9118  -13.0755 O   0  0  0  0  0  0  0  0  0  0  0  0
   23.1522   -3.7626  -14.8863 O   0  0  0  0  0  0  0  0  0  0  0  0
  2  1  1  0
  3  2  1  0
  3  4  1  6
  5  7  1  0
  5  3  1  0
  6  5  2  0
  7  8  1  0
  9  8  1  0
 10 11  1  0
 10  9  1  0
 11  7  1  0
 11 12  1  6
 12 17  1  0
 13 12  2  0
 16 15  1  1
 15 14  1  0
 16 18  1  0
 17 16  1  0
 18 20  1  0
 19 18  2  0
M  END
$$$$
