SPS.pdb
     RDKit          3D

 20 20  0  0  1  0  0  0  0  0999 V2000
   18.5729  -11.0251  -19.2579 O   0  0  0  0  0  0  0  0  0  0  0  0
   18.8540  -10.1916  -18.1752 C   0  0  0  0  0  0  0  0  0  0  0  0
   19.0433  -11.0678  -16.9586 C   0  0  2  0  0  0  0  0  0  0  0  0
   17.8607  -11.8237  -16.7046 N   0  0  0  0  0  0  0  0  0  0  0  0
   19.5417  -10.3073  -15.7934 C   0  0  0  0  0  0  0  0  0  0  0  0
   18.6875   -9.8448  -14.9984 O   0  0  0  0  0  0  0  0  0  0  0  0
   20.9089  -10.0709  -15.5217 N   0  0  0  0  0  0  0  0  0  0  0  0
   21.9861  -10.6140  -16.3252 C   0  0  0  0  0  0  0  0  0  0  0  0
   23.2688  -10.1827  -15.6482 C   0  0  0  0  0  0  0  0  0  0  0  0
   22.8903   -9.7693  -14.2640 C   0  0  0  0  0  0  0  0  0  0  0  0
   21.4512   -9.2851  -14.4480 C   0  0  1  0  0  0  0  0  0  0  0  0
   21.5348   -7.8396  -14.7952 C   0  0  0  0  0  0  0  0  0  0  0  0
   21.8066   -7.5175  -15.9771 O   0  0  0  0  0  0  0  0  0  0  0  0
   19.6483   -3.5859  -13.9998 O   0  0  0  0  0  0  0  0  0  0  0  0
   19.7884   -4.9119  -13.5942 C   0  0  0  0  0  0  0  0  0  0  0  0
   21.1124   -5.4395  -14.1514 C   0  0  2  0  0  0  0  0  0  0  0  0
   21.3175   -6.8152  -13.8350 N   0  0  0  0  0  0  0  0  0  0  0  0
   22.2395   -4.5702  -13.7391 C   0  0  0  0  0  0  0  0  0  0  0  0
   22.7691   -4.7874  -12.6236 O   0  0  0  0  0  0  0  0  0  0  0  0
   22.7435   -3.5365  -14.5048 O   0  0  0  0  0  0  0  0  0  0  0  0
  2  1  1  0
  3  2  1  0
  3  4  1  1
  5  7  1  0
  5  3  1  0
  6  5  2  0
  7  8  1  0
  9  8  1  0
 10 11  1  0
 10  9  1  0
 11  7  1  0
 11 12  1  6
 12 17  1  0
 13 12  2  0
 16 15  1  1
 15 14  1  0
 16 18  1  0
 17 16  1  0
 18 20  1  0
 19 18  2  0
M  END
$$$$
