SPS.pdb
     RDKit          3D

 20 20  0  0  1  0  0  0  0  0999 V2000
   12.9940   -7.6654  -10.5486 O   0  0  0  0  0  0  0  0  0  0  0  0
   14.3596   -7.5533  -10.2867 C   0  0  0  0  0  0  0  0  0  0  0  0
   14.9394   -8.9488  -10.2678 C   0  0  2  0  0  0  0  0  0  0  0  0
   14.6500   -9.5879   -9.0259 N   0  0  0  0  0  0  0  0  0  0  0  0
   16.3689   -8.9660  -10.6427 C   0  0  0  0  0  0  0  0  0  0  0  0
   17.2095   -8.9708   -9.7106 O   0  0  0  0  0  0  0  0  0  0  0  0
   16.8433   -8.9772  -11.9745 N   0  0  0  0  0  0  0  0  0  0  0  0
   15.9788   -9.1382  -13.1267 C   0  0  0  0  0  0  0  0  0  0  0  0
   16.8927   -9.1670  -14.3323 C   0  0  0  0  0  0  0  0  0  0  0  0
   18.2639   -9.4423  -13.8087 C   0  0  0  0  0  0  0  0  0  0  0  0
   18.2070   -8.8374  -12.4051 C   0  0  1  0  0  0  0  0  0  0  0  0
   18.6092   -7.4106  -12.5454 C   0  0  0  0  0  0  0  0  0  0  0  0
   18.0332   -6.7029  -13.4067 O   0  0  0  0  0  0  0  0  0  0  0  0
   20.5924   -5.4407   -9.4582 O   0  0  0  0  0  0  0  0  0  0  0  0
   19.7499   -4.7975  -10.3631 C   0  0  0  0  0  0  0  0  0  0  0  0
   19.9548   -5.4382  -11.7377 C   0  0  2  0  0  0  0  0  0  0  0  0
   19.6213   -6.8251  -11.7381 N   0  0  0  0  0  0  0  0  0  0  0  0
   21.3195   -5.1647  -12.2465 C   0  0  0  0  0  0  0  0  0  0  0  0
   22.0707   -6.1444  -12.4642 O   0  0  0  0  0  0  0  0  0  0  0  0
   21.8163   -3.8998  -12.4960 O   0  0  0  0  0  0  0  0  0  0  0  0
  2  1  1  0
  3  2  1  0
  3  4  1  1
  5  7  1  0
  5  3  1  0
  6  5  2  0
  7  8  1  0
  9  8  1  0
 10 11  1  0
 10  9  1  0
 11  7  1  0
 11 12  1  6
 12 17  1  0
 13 12  2  0
 16 15  1  1
 15 14  1  0
 16 18  1  0
 17 16  1  0
 18 20  1  0
 19 18  2  0
M  END
$$$$
