SPS.pdb
     RDKit          3D

 20 20  0  0  1  0  0  0  0  0999 V2000
   26.9346  -19.0383  -16.3693 O   0  0  0  0  0  0  0  0  0  0  0  0
   27.9776  -19.5036  -15.5683 C   0  0  0  0  0  0  0  0  0  0  0  0
   27.8037  -20.9963  -15.4097 C   0  0  2  0  0  0  0  0  0  0  0  0
   28.1140  -21.6632  -16.6317 N   0  0  0  0  0  0  0  0  0  0  0  0
   26.4856  -21.3489  -14.8416 C   0  0  0  0  0  0  0  0  0  0  0  0
   25.6214  -21.8050  -15.6295 O   0  0  0  0  0  0  0  0  0  0  0  0
   26.1413  -21.2052  -13.4778 N   0  0  0  0  0  0  0  0  0  0  0  0
   27.0475  -20.6731  -12.4795 C   0  0  0  0  0  0  0  0  0  0  0  0
   26.3128  -20.7640  -11.1598 C   0  0  0  0  0  0  0  0  0  0  0  0
   25.1869  -21.7211  -11.3751 C   0  0  0  0  0  0  0  0  0  0  0  0
   24.8874  -21.5459  -12.8647 C   0  0  1  0  0  0  0  0  0  0  0  0
   23.8929  -20.4423  -12.9668 C   0  0  0  0  0  0  0  0  0  0  0  0
   24.3062  -19.2735  -13.1611 O   0  0  0  0  0  0  0  0  0  0  0  0
   21.0071  -20.1740  -16.1339 O   0  0  0  0  0  0  0  0  0  0  0  0
   21.9425  -20.6953  -15.2419 C   0  0  0  0  0  0  0  0  0  0  0  0
   21.5295  -20.2808  -13.8279 C   0  0  2  0  0  0  0  0  0  0  0  0
   22.4949  -20.6682  -12.8518 N   0  0  0  0  0  0  0  0  0  0  0  0
   20.1612  -20.7586  -13.5189 C   0  0  0  0  0  0  0  0  0  0  0  0
   20.0014  -21.9851  -13.3142 O   0  0  0  0  0  0  0  0  0  0  0  0
   19.0513  -19.9394  -13.4421 O   0  0  0  0  0  0  0  0  0  0  0  0
  2  1  1  0
  3  2  1  0
  3  4  1  6
  5  7  1  0
  5  3  1  0
  6  5  2  0
  7  8  1  0
  9  8  1  0
 10 11  1  0
 10  9  1  0
 11  7  1  0
 11 12  1  1
 12 17  1  0
 13 12  2  0
 16 15  1  6
 15 14  1  0
 16 18  1  0
 17 16  1  0
 18 20  1  0
 19 18  2  0
M  END
$$$$
