SPS.pdb
     RDKit          3D

 20 20  0  0  1  0  0  0  0  0999 V2000
   26.1581  -37.1743   -4.4243 O   0  0  0  0  0  0  0  0  0  0  0  0
   25.9880  -36.3211   -5.5148 C   0  0  0  0  0  0  0  0  0  0  0  0
   27.1285  -35.3297   -5.5041 C   0  0  2  0  0  0  0  0  0  0  0  0
   28.3309  -35.9540   -5.9502 N   0  0  0  0  0  0  0  0  0  0  0  0
   27.2504  -34.6310   -4.2075 C   0  0  0  0  0  0  0  0  0  0  0  0
   28.2544  -34.8954   -3.5020 O   0  0  0  0  0  0  0  0  0  0  0  0
   26.3141  -33.6918   -3.7173 N   0  0  0  0  0  0  0  0  0  0  0  0
   25.0604  -33.3958   -4.3817 C   0  0  0  0  0  0  0  0  0  0  0  0
   24.4092  -32.2962   -3.5715 C   0  0  0  0  0  0  0  0  0  0  0  0
   25.4883  -31.7106   -2.7214 C   0  0  0  0  0  0  0  0  0  0  0  0
   26.4326  -32.8977   -2.5257 C   0  0  1  0  0  0  0  0  0  0  0  0
   25.9525  -33.6223   -1.3167 C   0  0  0  0  0  0  0  0  0  0  0  0
   25.0553  -34.4895   -1.4493 O   0  0  0  0  0  0  0  0  0  0  0  0
   26.6316  -34.6212    3.3894 O   0  0  0  0  0  0  0  0  0  0  0  0
   27.0560  -33.8423    2.3144 C   0  0  0  0  0  0  0  0  0  0  0  0
   26.0630  -34.0390    1.1668 C   0  0  2  0  0  0  0  0  0  0  0  0
   26.4753  -33.3650   -0.0208 N   0  0  0  0  0  0  0  0  0  0  0  0
   24.6893  -33.6835    1.5941 C   0  0  0  0  0  0  0  0  0  0  0  0
   24.2609  -32.5428    1.2990 O   0  0  0  0  0  0  0  0  0  0  0  0
   23.8512  -34.5282    2.2962 O   0  0  0  0  0  0  0  0  0  0  0  0
  2  1  1  0
  3  2  1  0
  3  4  1  1
  5  7  1  0
  5  3  1  0
  6  5  2  0
  7  8  1  0
  9  8  1  0
 10 11  1  0
 10  9  1  0
 11  7  1  0
 11 12  1  1
 12 17  1  0
 13 12  2  0
 16 15  1  1
 15 14  1  0
 16 18  1  0
 17 16  1  0
 18 20  1  0
 19 18  2  0
M  END
$$$$
