SPS.pdb
     RDKit          3D

 20 20  0  0  1  0  0  0  0  0999 V2000
   28.1533  -20.9321  -15.2198 O   0  0  0  0  0  0  0  0  0  0  0  0
   28.1318  -22.2337  -15.7214 C   0  0  0  0  0  0  0  0  0  0  0  0
   28.9915  -22.2609  -16.9639 C   0  0  2  0  0  0  0  0  0  0  0  0
   28.4162  -21.4437  -17.9816 N   0  0  0  0  0  0  0  0  0  0  0  0
   29.3074  -23.6385  -17.3958 C   0  0  0  0  0  0  0  0  0  0  0  0
   28.5924  -24.1383  -18.2982 O   0  0  0  0  0  0  0  0  0  0  0  0
   30.3560  -24.4210  -16.8597 N   0  0  0  0  0  0  0  0  0  0  0  0
   31.2355  -23.9586  -15.8044 C   0  0  0  0  0  0  0  0  0  0  0  0
   32.2453  -25.0648  -15.5894 C   0  0  0  0  0  0  0  0  0  0  0  0
   32.1725  -25.9360  -16.8001 C   0  0  0  0  0  0  0  0  0  0  0  0
   30.7213  -25.7553  -17.2479 C   0  0  1  0  0  0  0  0  0  0  0  0
   29.9270  -26.7883  -16.5274 C   0  0  0  0  0  0  0  0  0  0  0  0
   29.9521  -26.8026  -15.2729 O   0  0  0  0  0  0  0  0  0  0  0  0
   26.7843  -28.3916  -18.4159 O   0  0  0  0  0  0  0  0  0  0  0  0
   26.8003  -28.4585  -17.0239 C   0  0  0  0  0  0  0  0  0  0  0  0
   28.2489  -28.6684  -16.5773 C   0  0  2  0  0  0  0  0  0  0  0  0
   29.1433  -27.7561  -17.2115 N   0  0  0  0  0  0  0  0  0  0  0  0
   28.6481  -30.0864  -16.7386 C   0  0  0  0  0  0  0  0  0  0  0  0
   29.5287  -30.3537  -17.5900 O   0  0  0  0  0  0  0  0  0  0  0  0
   28.1123  -31.1316  -16.0112 O   0  0  0  0  0  0  0  0  0  0  0  0
  2  1  1  0
  3  2  1  0
  3  4  1  6
  5  7  1  0
  5  3  1  0
  6  5  2  0
  7  8  1  0
  9  8  1  0
 10 11  1  0
 10  9  1  0
 11  7  1  0
 11 12  1  1
 12 17  1  0
 13 12  2  0
 16 15  1  6
 15 14  1  0
 16 18  1  0
 17 16  1  0
 18 20  1  0
 19 18  2  0
M  END
$$$$
