SPS.pdb
     RDKit          3D

 20 20  0  0  1  0  0  0  0  0999 V2000
   16.1429   -8.6721  -15.8786 O   0  0  0  0  0  0  0  0  0  0  0  0
   16.0317   -9.9917  -15.4402 C   0  0  0  0  0  0  0  0  0  0  0  0
   17.0841  -10.8042  -16.1585 C   0  0  2  0  0  0  0  0  0  0  0  0
   16.8727  -12.1968  -15.9340 N   0  0  0  0  0  0  0  0  0  0  0  0
   18.4538  -10.3397  -15.8544 C   0  0  0  0  0  0  0  0  0  0  0  0
   18.9445  -10.6755  -14.7490 O   0  0  0  0  0  0  0  0  0  0  0  0
   19.2381   -9.5475  -16.7241 N   0  0  0  0  0  0  0  0  0  0  0  0
   18.8482   -9.2333  -18.0843 C   0  0  0  0  0  0  0  0  0  0  0  0
   19.9933   -8.4380  -18.6725 C   0  0  0  0  0  0  0  0  0  0  0  0
   21.1679   -8.6788  -17.7824 C   0  0  0  0  0  0  0  0  0  0  0  0
   20.5059   -8.9394  -16.4285 C   0  0  1  0  0  0  0  0  0  0  0  0
   20.3534   -7.6114  -15.7722 C   0  0  0  0  0  0  0  0  0  0  0  0
   19.3451   -6.9160  -16.0443 O   0  0  0  0  0  0  0  0  0  0  0  0
   21.4417   -6.9199  -12.0595 O   0  0  0  0  0  0  0  0  0  0  0  0
   21.9416   -5.8702  -12.8281 C   0  0  0  0  0  0  0  0  0  0  0  0
   21.1926   -5.8627  -14.1625 C   0  0  2  0  0  0  0  0  0  0  0  0
   21.3096   -7.1068  -14.8504 N   0  0  0  0  0  0  0  0  0  0  0  0
   21.5976   -4.6989  -14.9857 C   0  0  0  0  0  0  0  0  0  0  0  0
   22.3897   -4.9011  -15.9362 O   0  0  0  0  0  0  0  0  0  0  0  0
   21.1584   -3.4064  -14.7726 O   0  0  0  0  0  0  0  0  0  0  0  0
  2  1  1  0
  3  2  1  0
  3  4  1  1
  5  7  1  0
  5  3  1  0
  6  5  2  0
  7  8  1  0
  9  8  1  0
 10 11  1  0
 10  9  1  0
 11  7  1  0
 11 12  1  6
 12 17  1  0
 13 12  2  0
 16 15  1  1
 15 14  1  0
 16 18  1  0
 17 16  1  0
 18 20  1  0
 19 18  2  0
M  END
$$$$
