SYQ.pdb
     RDKit          3D

 28 28  0  0  1  0  0  0  0  0999 V2000
    8.5033  -16.8663   19.5469 O   0  0  0  0  0  0  0  0  0  0  0  0
    7.2240  -16.4967   19.9228 C   0  0  0  0  0  0  0  0  0  0  0  0
    7.2735  -15.0705   20.4268 C   0  0  2  0  0  0  0  0  0  0  0  0
    7.8276  -14.1854   19.4372 N   0  0  0  0  0  0  0  0  0  0  0  0
    8.1055  -14.9573   21.6586 C   0  0  0  0  0  0  0  0  0  0  0  0
    9.3045  -14.5350   21.5866 O   0  0  0  0  0  0  0  0  0  0  0  0
    6.2198  -10.1022   27.2455 O   0  0  0  0  0  0  0  0  0  0  0  0
    6.6049  -11.3584   26.7928 C   0  0  0  0  0  0  0  0  0  0  0  0
    7.9104  -11.7913   26.7758 C   0  0  0  0  0  0  0  0  0  0  0  0
    8.2468  -13.0485   26.3169 C   0  0  0  0  0  0  0  0  0  0  0  0
    7.2772  -13.9068   25.8615 C   0  0  0  0  0  0  0  0  0  0  0  0
    7.5254  -15.2569   25.3551 C   0  0  0  0  0  0  0  0  0  0  0  0
    8.4304  -15.2919   24.1466 C   0  0  2  0  0  0  0  0  0  0  0  0
    7.6194  -15.3055   22.9500 N   0  0  0  0  0  0  0  0  0  0  0  0
    9.1902  -16.5662   24.2143 C   0  0  0  0  0  0  0  0  0  0  0  0
    8.6368  -17.5910   23.7354 O   0  0  0  0  0  0  0  0  0  0  0  0
    5.9720  -13.4585   25.8847 C   0  0  0  0  0  0  0  0  0  0  0  0
    5.6219  -12.2056   26.3402 C   0  0  0  0  0  0  0  0  0  0  0  0
   15.5567  -20.0564   24.3283 N   0  0  0  0  0  0  0  0  0  0  0  0
   14.7196  -18.9667   23.8966 C   0  0  0  0  0  0  0  0  0  0  0  0
   15.2910  -18.0618   23.2776 O   0  0  0  0  0  0  0  0  0  0  0  0
   13.2900  -19.0535   24.2394 C   0  0  0  0  0  0  0  0  0  0  0  0
   12.5469  -17.7638   24.2241 C   0  0  0  0  0  0  0  0  0  0  0  0
   11.1779  -17.9064   24.7901 C   0  0  2  0  0  0  0  0  0  0  0  0
   10.4799  -16.6131   24.7947 N   0  0  0  0  0  0  0  0  0  0  0  0
   11.2313  -18.3811   26.1873 C   0  0  0  0  0  0  0  0  0  0  0  0
   10.9838  -17.5830   27.1444 O   0  0  0  0  0  0  0  0  0  0  0  0
   11.5444  -19.6876   26.4910 O   0  0  0  0  0  0  0  0  0  0  0  0
  1  2  1  0
  2  3  1  0
  3  4  1  6
  5  3  1  0
  6  5  2  0
  7  8  1  0
  8 18  2  0
  9 10  2  0
  9  8  1  0
 10 11  1  0
 11 12  1  0
 11 17  2  0
 13 12  1  1
 13 15  1  0
 13 14  1  0
 14  5  1  0
 15 16  2  0
 18 17  1  0
 19 20  1  0
 20 22  1  0
 21 20  2  0
 22 23  1  0
 24 23  1  1
 25 24  1  0
 25 15  1  0
 26 28  1  0
 26 24  1  0
 27 26  2  0
M  END
$$$$
