SYQ.pdb
     RDKit          3D

 28 28  0  0  1  0  0  0  0  0999 V2000
    5.8027  -17.2402   19.4410 O   0  0  0  0  0  0  0  0  0  0  0  0
    6.6196  -17.0190   20.5357 C   0  0  0  0  0  0  0  0  0  0  0  0
    6.5749  -15.5431   20.8675 C   0  0  2  0  0  0  0  0  0  0  0  0
    6.8246  -14.7374   19.7020 N   0  0  0  0  0  0  0  0  0  0  0  0
    7.5923  -15.1857   21.8969 C   0  0  0  0  0  0  0  0  0  0  0  0
    8.7885  -14.9195   21.5515 O   0  0  0  0  0  0  0  0  0  0  0  0
   11.0189  -15.0255   30.1056 O   0  0  0  0  0  0  0  0  0  0  0  0
   10.1905  -14.8743   29.0001 C   0  0  0  0  0  0  0  0  0  0  0  0
   10.0010  -13.6757   28.3525 C   0  0  0  0  0  0  0  0  0  0  0  0
    9.1679  -13.5722   27.2572 C   0  0  0  0  0  0  0  0  0  0  0  0
    8.5012  -14.6739   26.7822 C   0  0  0  0  0  0  0  0  0  0  0  0
    7.5971  -14.6733   25.6317 C   0  0  0  0  0  0  0  0  0  0  0  0
    8.2891  -14.9564   24.3196 C   0  0  2  0  0  0  0  0  0  0  0  0
    7.2918  -15.1235   23.2865 N   0  0  0  0  0  0  0  0  0  0  0  0
    9.0154  -16.2414   24.4843 C   0  0  0  0  0  0  0  0  0  0  0  0
    8.3584  -17.3000   24.3019 O   0  0  0  0  0  0  0  0  0  0  0  0
    8.7013  -15.8695   27.4421 C   0  0  0  0  0  0  0  0  0  0  0  0
    9.5303  -15.9871   28.5371 C   0  0  0  0  0  0  0  0  0  0  0  0
   12.6650  -17.1712   20.3757 N   0  0  0  0  0  0  0  0  0  0  0  0
   13.4105  -17.9604   21.3223 C   0  0  0  0  0  0  0  0  0  0  0  0
   14.4793  -18.4261   20.9108 O   0  0  0  0  0  0  0  0  0  0  0  0
   12.8192  -18.1219   22.6613 C   0  0  0  0  0  0  0  0  0  0  0  0
   11.7939  -17.1101   23.0364 C   0  0  0  0  0  0  0  0  0  0  0  0
   11.1877  -17.4016   24.3639 C   0  0  2  0  0  0  0  0  0  0  0  0
   10.3871  -16.2612   24.8316 N   0  0  0  0  0  0  0  0  0  0  0  0
   12.2318  -17.6498   25.3779 C   0  0  0  0  0  0  0  0  0  0  0  0
   12.6785  -16.6928   26.0844 O   0  0  0  0  0  0  0  0  0  0  0  0
   12.7446  -18.9109   25.5878 O   0  0  0  0  0  0  0  0  0  0  0  0
  1  2  1  0
  2  3  1  0
  3  4  1  6
  5  3  1  0
  6  5  2  0
  7  8  1  0
  8 18  2  0
  9 10  2  0
  9  8  1  0
 10 11  1  0
 11 12  1  0
 11 17  2  0
 13 12  1  1
 13 15  1  0
 13 14  1  0
 14  5  1  0
 15 16  2  0
 18 17  1  0
 19 20  1  0
 20 22  1  0
 21 20  2  0
 22 23  1  0
 24 23  1  6
 25 24  1  0
 25 15  1  0
 26 28  1  0
 26 24  1  0
 27 26  2  0
M  END
$$$$
