SYQ.pdb
     RDKit          3D

 28 28  0  0  1  0  0  0  0  0999 V2000
    9.8076  -18.9968   19.9469 O   0  0  0  0  0  0  0  0  0  0  0  0
    8.6179  -18.4731   19.4728 C   0  0  0  0  0  0  0  0  0  0  0  0
    8.8346  -17.0058   19.1719 C   0  0  2  0  0  0  0  0  0  0  0  0
    9.9665  -16.8115   18.3053 N   0  0  0  0  0  0  0  0  0  0  0  0
    9.0739  -16.2243   20.4187 C   0  0  0  0  0  0  0  0  0  0  0  0
   10.2530  -15.8594   20.7309 O   0  0  0  0  0  0  0  0  0  0  0  0
    7.1388  -11.8072   27.9296 O   0  0  0  0  0  0  0  0  0  0  0  0
    7.1130  -12.4418   26.6935 C   0  0  0  0  0  0  0  0  0  0  0  0
    7.6360  -11.8908   25.5469 C   0  0  0  0  0  0  0  0  0  0  0  0
    7.5880  -12.5580   24.3399 C   0  0  0  0  0  0  0  0  0  0  0  0
    7.0113  -13.8005   24.2528 C   0  0  0  0  0  0  0  0  0  0  0  0
    6.9082  -14.5912   23.0260 C   0  0  0  0  0  0  0  0  0  0  0  0
    8.2339  -15.1260   22.5389 C   0  0  2  0  0  0  0  0  0  0  0  0
    8.0257  -15.8520   21.3063 N   0  0  0  0  0  0  0  0  0  0  0  0
    8.7188  -16.0788   23.5698 C   0  0  0  0  0  0  0  0  0  0  0  0
    8.1613  -17.2070   23.6167 O   0  0  0  0  0  0  0  0  0  0  0  0
    6.4907  -14.3405   25.4115 C   0  0  0  0  0  0  0  0  0  0  0  0
    6.5319  -13.6853   26.6236 C   0  0  0  0  0  0  0  0  0  0  0  0
   14.4773  -17.1207   24.7948 N   0  0  0  0  0  0  0  0  0  0  0  0
   13.6435  -17.2484   23.6273 C   0  0  0  0  0  0  0  0  0  0  0  0
   14.2386  -17.4195   22.5573 O   0  0  0  0  0  0  0  0  0  0  0  0
   12.1888  -17.1606   23.8393 C   0  0  0  0  0  0  0  0  0  0  0  0
   11.7600  -16.8735   25.2356 C   0  0  0  0  0  0  0  0  0  0  0  0
   10.2799  -16.7672   25.3497 C   0  0  2  0  0  0  0  0  0  0  0  0
    9.7633  -15.7217   24.4552 N   0  0  0  0  0  0  0  0  0  0  0  0
    9.8813  -16.4046   26.7244 C   0  0  0  0  0  0  0  0  0  0  0  0
    9.4529  -15.2360   26.9796 O   0  0  0  0  0  0  0  0  0  0  0  0
    9.9584  -17.3118   27.7580 O   0  0  0  0  0  0  0  0  0  0  0  0
  1  2  1  0
  2  3  1  0
  3  4  1  6
  5  3  1  0
  6  5  2  0
  7  8  1  0
  8 18  2  0
  9 10  2  0
  9  8  1  0
 10 11  1  0
 11 12  1  0
 11 17  2  0
 13 12  1  1
 13 15  1  0
 13 14  1  0
 14  5  1  0
 15 16  2  0
 18 17  1  0
 19 20  1  0
 20 22  1  0
 21 20  2  0
 22 23  1  0
 24 23  1  1
 25 24  1  0
 25 15  1  0
 26 28  1  0
 26 24  1  0
 27 26  2  0
M  END
$$$$
