SYQ.pdb
     RDKit          3D

 28 28  0  0  1  0  0  0  0  0999 V2000
    8.2428  -17.1555   20.0452 O   0  0  0  0  0  0  0  0  0  0  0  0
    7.1195  -16.5024   20.5209 C   0  0  0  0  0  0  0  0  0  0  0  0
    7.4973  -15.0667   20.8150 C   0  0  2  0  0  0  0  0  0  0  0  0
    8.1387  -14.4525   19.6831 N   0  0  0  0  0  0  0  0  0  0  0  0
    8.4306  -14.9762   21.9741 C   0  0  0  0  0  0  0  0  0  0  0  0
    9.6830  -14.8527   21.7813 O   0  0  0  0  0  0  0  0  0  0  0  0
   11.0823  -14.6142   30.4703 O   0  0  0  0  0  0  0  0  0  0  0  0
   10.3405  -14.5979   29.2953 C   0  0  0  0  0  0  0  0  0  0  0  0
   10.0886  -13.4548   28.5730 C   0  0  0  0  0  0  0  0  0  0  0  0
    9.3460  -13.4860   27.4103 C   0  0  0  0  0  0  0  0  0  0  0  0
    8.8353  -14.6705   26.9411 C   0  0  0  0  0  0  0  0  0  0  0  0
    8.0372  -14.8137   25.7230 C   0  0  0  0  0  0  0  0  0  0  0  0
    8.8677  -14.9282   24.4669 C   0  0  2  0  0  0  0  0  0  0  0  0
    7.9859  -15.0216   23.3251 N   0  0  0  0  0  0  0  0  0  0  0  0
    9.6360  -16.1948   24.5725 C   0  0  0  0  0  0  0  0  0  0  0  0
    9.0142  -17.2649   24.3402 O   0  0  0  0  0  0  0  0  0  0  0  0
    9.0963  -15.8090   27.6764 C   0  0  0  0  0  0  0  0  0  0  0  0
    9.8363  -15.7923   28.8392 C   0  0  0  0  0  0  0  0  0  0  0  0
   14.4782  -16.1986   20.9882 N   0  0  0  0  0  0  0  0  0  0  0  0
   14.3401  -16.2960   22.4186 C   0  0  0  0  0  0  0  0  0  0  0  0
   15.1589  -15.6508   23.0833 O   0  0  0  0  0  0  0  0  0  0  0  0
   13.2487  -17.1466   22.9223 C   0  0  0  0  0  0  0  0  0  0  0  0
   13.1393  -17.2400   24.4040 C   0  0  0  0  0  0  0  0  0  0  0  0
   11.7345  -17.4606   24.8429 C   0  0  2  0  0  0  0  0  0  0  0  0
   11.0076  -16.1855   24.9203 N   0  0  0  0  0  0  0  0  0  0  0  0
   11.6912  -18.0724   26.1860 C   0  0  0  0  0  0  0  0  0  0  0  0
   12.2865  -19.1728   26.4078 O   0  0  0  0  0  0  0  0  0  0  0  0
   11.0149  -17.4747   27.2266 O   0  0  0  0  0  0  0  0  0  0  0  0
  1  2  1  0
  2  3  1  0
  3  4  1  6
  5  3  1  0
  6  5  2  0
  7  8  1  0
  8 18  2  0
  9 10  2  0
  9  8  1  0
 10 11  1  0
 11 12  1  0
 11 17  2  0
 13 12  1  1
 13 15  1  0
 13 14  1  0
 14  5  1  0
 15 16  2  0
 18 17  1  0
 19 20  1  0
 20 22  1  0
 21 20  2  0
 22 23  1  0
 24 23  1  1
 25 24  1  0
 25 15  1  0
 26 28  1  0
 26 24  1  0
 27 26  2  0
M  END
$$$$
