SYQ.pdb
     RDKit          3D

 28 28  0  0  1  0  0  0  0  0999 V2000
    6.5155  -15.4125   18.6923 O   0  0  0  0  0  0  0  0  0  0  0  0
    7.4793  -15.4551   19.6843 C   0  0  0  0  0  0  0  0  0  0  0  0
    7.4390  -14.1435   20.4383 C   0  0  2  0  0  0  0  0  0  0  0  0
    7.8634  -13.0490   19.6065 N   0  0  0  0  0  0  0  0  0  0  0  0
    8.3252  -14.1773   21.6366 C   0  0  0  0  0  0  0  0  0  0  0  0
    9.5753  -13.9675   21.5164 O   0  0  0  0  0  0  0  0  0  0  0  0
   10.8263  -14.8123   30.1301 O   0  0  0  0  0  0  0  0  0  0  0  0
   10.0782  -14.7803   28.9594 C   0  0  0  0  0  0  0  0  0  0  0  0
    9.4452  -15.8823   28.4334 C   0  0  0  0  0  0  0  0  0  0  0  0
    8.7121  -15.8039   27.2669 C   0  0  0  0  0  0  0  0  0  0  0  0
    8.5954  -14.6122   26.5959 C   0  0  0  0  0  0  0  0  0  0  0  0
    7.8445  -14.4206   25.3547 C   0  0  0  0  0  0  0  0  0  0  0  0
    8.6848  -14.5785   24.1099 C   0  0  2  0  0  0  0  0  0  0  0  0
    7.8369  -14.4391   22.9474 N   0  0  0  0  0  0  0  0  0  0  0  0
    9.2306  -15.9596   24.1311 C   0  0  0  0  0  0  0  0  0  0  0  0
    8.4591  -16.8876   23.7716 O   0  0  0  0  0  0  0  0  0  0  0  0
    9.2361  -13.5152   27.1357 C   0  0  0  0  0  0  0  0  0  0  0  0
    9.9714  -13.5794   28.2999 C   0  0  0  0  0  0  0  0  0  0  0  0
   12.5142  -20.7216   21.5243 N   0  0  0  0  0  0  0  0  0  0  0  0
   13.1126  -19.5038   22.0073 C   0  0  0  0  0  0  0  0  0  0  0  0
   13.9072  -18.9524   21.2371 O   0  0  0  0  0  0  0  0  0  0  0  0
   12.7137  -19.0580   23.3530 C   0  0  0  0  0  0  0  0  0  0  0  0
   12.1512  -17.6821   23.4328 C   0  0  0  0  0  0  0  0  0  0  0  0
   11.0560  -17.5887   24.4361 C   0  0  2  0  0  0  0  0  0  0  0  0
   10.5623  -16.2082   24.5399 N   0  0  0  0  0  0  0  0  0  0  0  0
   11.5324  -17.9861   25.7759 C   0  0  0  0  0  0  0  0  0  0  0  0
   11.1301  -19.0698   26.3031 O   0  0  0  0  0  0  0  0  0  0  0  0
   12.4184  -17.2049   26.4846 O   0  0  0  0  0  0  0  0  0  0  0  0
  1  2  1  0
  2  3  1  0
  3  4  1  6
  5  3  1  0
  6  5  2  0
  7  8  1  0
  8 18  2  0
  9 10  2  0
  9  8  1  0
 10 11  1  0
 11 12  1  0
 11 17  2  0
 13 12  1  1
 13 15  1  0
 13 14  1  0
 14  5  1  0
 15 16  2  0
 18 17  1  0
 19 20  1  0
 20 22  1  0
 21 20  2  0
 22 23  1  0
 24 23  1  6
 25 24  1  0
 25 15  1  0
 26 28  1  0
 26 24  1  0
 27 26  2  0
M  END
$$$$
