SYQ.pdb
     RDKit          3D

 28 28  0  0  1  0  0  0  0  0999 V2000
    8.5976  -18.0366   14.2563 O   0  0  0  0  0  0  0  0  0  0  0  0
    9.7390  -17.2613   14.1517 C   0  0  0  0  0  0  0  0  0  0  0  0
    9.3261  -15.8058   14.1887 C   0  0  2  0  0  0  0  0  0  0  0  0
   10.0529  -15.0314   13.2181 N   0  0  0  0  0  0  0  0  0  0  0  0
    9.5719  -15.2043   15.5304 C   0  0  0  0  0  0  0  0  0  0  0  0
   10.7591  -14.9405   15.9075 O   0  0  0  0  0  0  0  0  0  0  0  0
    7.6428  -12.6931   23.8421 O   0  0  0  0  0  0  0  0  0  0  0  0
    7.5932  -12.9475   22.4768 C   0  0  0  0  0  0  0  0  0  0  0  0
    7.8122  -11.9862   21.5177 C   0  0  0  0  0  0  0  0  0  0  0  0
    7.7527  -12.2846   20.1716 C   0  0  0  0  0  0  0  0  0  0  0  0
    7.4706  -13.5608   19.7525 C   0  0  0  0  0  0  0  0  0  0  0  0
    7.3837  -13.9823   18.3540 C   0  0  0  0  0  0  0  0  0  0  0  0
    8.7266  -14.2658   17.7240 C   0  0  2  0  0  0  0  0  0  0  0  0
    8.5217  -14.8994   16.4409 N   0  0  0  0  0  0  0  0  0  0  0  0
    9.4267  -15.2251   18.6158 C   0  0  0  0  0  0  0  0  0  0  0  0
    9.2648  -16.4515   18.3802 O   0  0  0  0  0  0  0  0  0  0  0  0
    7.2531  -14.5145   20.7262 C   0  0  0  0  0  0  0  0  0  0  0  0
    7.3095  -14.2304   22.0739 C   0  0  0  0  0  0  0  0  0  0  0  0
   14.9750  -15.2696   18.3035 N   0  0  0  0  0  0  0  0  0  0  0  0
   14.7637  -14.7527   19.6312 C   0  0  0  0  0  0  0  0  0  0  0  0
   15.7829  -14.4247   20.2494 O   0  0  0  0  0  0  0  0  0  0  0  0
   13.3691  -14.6750   20.0976 C   0  0  0  0  0  0  0  0  0  0  0  0
   12.4645  -15.7462   19.5974 C   0  0  0  0  0  0  0  0  0  0  0  0
   11.1528  -15.7367   20.3004 C   0  0  2  0  0  0  0  0  0  0  0  0
   10.2380  -14.7674   19.6811 N   0  0  0  0  0  0  0  0  0  0  0  0
   11.3150  -15.3451   21.7148 C   0  0  0  0  0  0  0  0  0  0  0  0
   11.9749  -16.0826   22.5117 O   0  0  0  0  0  0  0  0  0  0  0  0
   10.7649  -14.1817   22.2060 O   0  0  0  0  0  0  0  0  0  0  0  0
  1  2  1  0
  2  3  1  0
  3  4  1  6
  5  3  1  0
  6  5  2  0
  7  8  1  0
  8 18  2  0
  9 10  2  0
  9  8  1  0
 10 11  1  0
 11 12  1  0
 11 17  2  0
 13 12  1  1
 13 15  1  0
 13 14  1  0
 14  5  1  0
 15 16  2  0
 18 17  1  0
 19 20  1  0
 20 22  1  0
 21 20  2  0
 22 23  1  0
 24 23  1  6
 25 24  1  0
 25 15  1  0
 26 28  1  0
 26 24  1  0
 27 26  2  0
M  END
$$$$
