SYQ.pdb
     RDKit          3D

 28 28  0  0  1  0  0  0  0  0999 V2000
    8.5175  -18.6869   19.7424 O   0  0  0  0  0  0  0  0  0  0  0  0
    7.8714  -17.6615   19.0747 C   0  0  0  0  0  0  0  0  0  0  0  0
    8.7848  -16.4549   19.0653 C   0  0  2  0  0  0  0  0  0  0  0  0
   10.0525  -16.7636   18.4591 N   0  0  0  0  0  0  0  0  0  0  0  0
    9.0471  -15.9603   20.4470 C   0  0  0  0  0  0  0  0  0  0  0  0
   10.1863  -16.1385   20.9868 O   0  0  0  0  0  0  0  0  0  0  0  0
    7.1247  -12.2012   28.3526 O   0  0  0  0  0  0  0  0  0  0  0  0
    7.1849  -12.6111   27.0261 C   0  0  0  0  0  0  0  0  0  0  0  0
    8.3044  -12.4717   26.2392 C   0  0  0  0  0  0  0  0  0  0  0  0
    8.3188  -12.8936   24.9254 C   0  0  0  0  0  0  0  0  0  0  0  0
    7.2052  -13.4686   24.3658 C   0  0  0  0  0  0  0  0  0  0  0  0
    7.1146  -13.9486   22.9865 C   0  0  0  0  0  0  0  0  0  0  0  0
    8.2892  -14.7989   22.5646 C   0  0  2  0  0  0  0  0  0  0  0  0
    8.0651  -15.2792   21.2196 N   0  0  0  0  0  0  0  0  0  0  0  0
    8.3263  -15.9671   23.4810 C   0  0  0  0  0  0  0  0  0  0  0  0
    7.3802  -16.7938   23.3963 O   0  0  0  0  0  0  0  0  0  0  0  0
    6.0896  -13.6018   25.1675 C   0  0  0  0  0  0  0  0  0  0  0  0
    6.0613  -13.1848   26.4811 C   0  0  0  0  0  0  0  0  0  0  0  0
   11.7721  -20.3613   24.0667 N   0  0  0  0  0  0  0  0  0  0  0  0
   11.7121  -19.2164   23.1948 C   0  0  0  0  0  0  0  0  0  0  0  0
   12.5418  -19.1939   22.2786 O   0  0  0  0  0  0  0  0  0  0  0  0
   10.6780  -18.2109   23.4920 C   0  0  0  0  0  0  0  0  0  0  0  0
    9.8007  -18.5170   24.6550 C   0  0  0  0  0  0  0  0  0  0  0  0
    9.3119  -17.2791   25.3211 C   0  0  2  0  0  0  0  0  0  0  0  0
    9.3852  -16.1322   24.4050 N   0  0  0  0  0  0  0  0  0  0  0  0
   10.1388  -16.9525   26.5000 C   0  0  0  0  0  0  0  0  0  0  0  0
   10.2455  -17.7816   27.4568 O   0  0  0  0  0  0  0  0  0  0  0  0
   10.8132  -15.7552   26.5954 O   0  0  0  0  0  0  0  0  0  0  0  0
  1  2  1  0
  2  3  1  0
  3  4  1  1
  5  3  1  0
  6  5  2  0
  7  8  1  0
  8 18  2  0
  9 10  2  0
  9  8  1  0
 10 11  1  0
 11 12  1  0
 11 17  2  0
 13 12  1  1
 13 15  1  0
 13 14  1  0
 14  5  1  0
 15 16  2  0
 18 17  1  0
 19 20  1  0
 20 22  1  0
 21 20  2  0
 22 23  1  0
 24 23  1  6
 25 24  1  0
 25 15  1  0
 26 28  1  0
 26 24  1  0
 27 26  2  0
M  END
$$$$
