SYQ.pdb
     RDKit          3D

 28 28  0  0  1  0  0  0  0  0999 V2000
    9.8262  -18.0106   18.6123 O   0  0  0  0  0  0  0  0  0  0  0  0
   10.3306  -17.2214   19.6308 C   0  0  0  0  0  0  0  0  0  0  0  0
    9.7983  -17.7498   20.9452 C   0  0  2  0  0  0  0  0  0  0  0  0
    8.4460  -18.2219   20.8097 N   0  0  0  0  0  0  0  0  0  0  0  0
    9.8112  -16.6967   22.0003 C   0  0  0  0  0  0  0  0  0  0  0  0
   10.9161  -16.2293   22.4269 O   0  0  0  0  0  0  0  0  0  0  0  0
    6.3705  -10.6648   27.6431 O   0  0  0  0  0  0  0  0  0  0  0  0
    6.6209  -11.5722   26.6208 C   0  0  0  0  0  0  0  0  0  0  0  0
    7.5288  -11.3473   25.6124 C   0  0  0  0  0  0  0  0  0  0  0  0
    7.7451  -12.2779   24.6166 C   0  0  0  0  0  0  0  0  0  0  0  0
    7.0525  -13.4629   24.6078 C   0  0  0  0  0  0  0  0  0  0  0  0
    7.2054  -14.5142   23.6016 C   0  0  0  0  0  0  0  0  0  0  0  0
    8.6009  -15.0875   23.5343 C   0  0  2  0  0  0  0  0  0  0  0  0
    8.6212  -16.1686   22.5748 N   0  0  0  0  0  0  0  0  0  0  0  0
    8.9026  -15.6450   24.8774 C   0  0  0  0  0  0  0  0  0  0  0  0
    9.2464  -14.8300   25.7736 O   0  0  0  0  0  0  0  0  0  0  0  0
    6.1450  -13.6745   25.6260 C   0  0  0  0  0  0  0  0  0  0  0  0
    5.9190  -12.7538   26.6267 C   0  0  0  0  0  0  0  0  0  0  0  0
    6.3947  -20.5109   27.9044 N   0  0  0  0  0  0  0  0  0  0  0  0
    6.9024  -20.6644   26.5653 C   0  0  0  0  0  0  0  0  0  0  0  0
    6.6217  -21.7287   26.0022 O   0  0  0  0  0  0  0  0  0  0  0  0
    7.6923  -19.5456   26.0240 C   0  0  0  0  0  0  0  0  0  0  0  0
    7.8174  -18.3587   26.9136 C   0  0  0  0  0  0  0  0  0  0  0  0
    8.9557  -17.4862   26.5164 C   0  0  2  0  0  0  0  0  0  0  0  0
    8.8040  -17.0346   25.1260 N   0  0  0  0  0  0  0  0  0  0  0  0
   10.2359  -18.2166   26.6032 C   0  0  0  0  0  0  0  0  0  0  0  0
   10.6483  -18.6550   27.7222 O   0  0  0  0  0  0  0  0  0  0  0  0
   11.0105  -18.4444   25.4872 O   0  0  0  0  0  0  0  0  0  0  0  0
  1  2  1  0
  2  3  1  0
  3  4  1  6
  5  3  1  0
  6  5  2  0
  7  8  1  0
  8 18  2  0
  9 10  2  0
  9  8  1  0
 10 11  1  0
 11 12  1  0
 11 17  2  0
 13 12  1  1
 13 15  1  0
 13 14  1  0
 14  5  1  0
 15 16  2  0
 18 17  1  0
 19 20  1  0
 20 22  1  0
 21 20  2  0
 22 23  1  0
 24 23  1  6
 25 24  1  0
 25 15  1  0
 26 28  1  0
 26 24  1  0
 27 26  2  0
M  END
$$$$
