SYQ.pdb
     RDKit          3D

 28 28  0  0  1  0  0  0  0  0999 V2000
    9.6001  -20.7558   19.4759 O   0  0  0  0  0  0  0  0  0  0  0  0
    8.6930  -19.8396   18.9738 C   0  0  0  0  0  0  0  0  0  0  0  0
    9.4482  -18.5808   18.6056 C   0  0  2  0  0  0  0  0  0  0  0  0
   10.5098  -18.8610   17.6759 N   0  0  0  0  0  0  0  0  0  0  0  0
   10.0511  -17.9368   19.8074 C   0  0  0  0  0  0  0  0  0  0  0  0
   11.3093  -17.9825   19.9967 O   0  0  0  0  0  0  0  0  0  0  0  0
    7.3824  -11.7684   18.3569 O   0  0  0  0  0  0  0  0  0  0  0  0
    7.8024  -12.6485   19.3470 C   0  0  0  0  0  0  0  0  0  0  0  0
    9.0191  -12.5522   19.9812 C   0  0  0  0  0  0  0  0  0  0  0  0
    9.3947  -13.4497   20.9599 C   0  0  0  0  0  0  0  0  0  0  0  0
    8.5549  -14.4710   21.3283 C   0  0  0  0  0  0  0  0  0  0  0  0
    8.8550  -15.4736   22.3510 C   0  0  0  0  0  0  0  0  0  0  0  0
    9.8411  -16.5233   21.8968 C   0  0  2  0  0  0  0  0  0  0  0  0
    9.2749  -17.2530   20.7847 N   0  0  0  0  0  0  0  0  0  0  0  0
   10.0231  -17.4632   23.0322 C   0  0  0  0  0  0  0  0  0  0  0  0
    9.0469  -18.2012   23.3289 O   0  0  0  0  0  0  0  0  0  0  0  0
    7.3376  -14.5549   20.6833 C   0  0  0  0  0  0  0  0  0  0  0  0
    6.9497  -13.6654   19.7042 C   0  0  0  0  0  0  0  0  0  0  0  0
   13.8695  -21.1709   22.3059 N   0  0  0  0  0  0  0  0  0  0  0  0
   14.4904  -20.1949   23.1641 C   0  0  0  0  0  0  0  0  0  0  0  0
   15.7146  -20.3000   23.3009 O   0  0  0  0  0  0  0  0  0  0  0  0
   13.6033  -19.1915   23.7764 C   0  0  0  0  0  0  0  0  0  0  0  0
   12.2590  -19.6856   24.1821 C   0  0  0  0  0  0  0  0  0  0  0  0
   11.4092  -18.5933   24.7294 C   0  0  2  0  0  0  0  0  0  0  0  0
   11.2461  -17.5170   23.7419 N   0  0  0  0  0  0  0  0  0  0  0  0
   12.0260  -17.9965   25.9309 C   0  0  0  0  0  0  0  0  0  0  0  0
   12.1414  -18.6780   26.9970 O   0  0  0  0  0  0  0  0  0  0  0  0
   12.4914  -16.7000   25.9312 O   0  0  0  0  0  0  0  0  0  0  0  0
  1  2  1  0
  2  3  1  0
  3  4  1  6
  5  3  1  0
  6  5  2  0
  7  8  1  0
  8 18  2  0
  9 10  2  0
  9  8  1  0
 10 11  1  0
 11 12  1  0
 11 17  2  0
 13 12  1  1
 13 15  1  0
 13 14  1  0
 14  5  1  0
 15 16  2  0
 18 17  1  0
 19 20  1  0
 20 22  1  0
 21 20  2  0
 22 23  1  0
 24 23  1  6
 25 24  1  0
 25 15  1  0
 26 28  1  0
 26 24  1  0
 27 26  2  0
M  END
$$$$
