SYQ.pdb
     RDKit          3D

 28 28  0  0  1  0  0  0  0  0999 V2000
    9.7926  -18.8289   20.5255 O   0  0  0  0  0  0  0  0  0  0  0  0
    9.1257  -17.9489   19.6916 C   0  0  0  0  0  0  0  0  0  0  0  0
    9.8221  -16.6074   19.7670 C   0  0  2  0  0  0  0  0  0  0  0  0
   11.1976  -16.7087   19.3578 N   0  0  0  0  0  0  0  0  0  0  0  0
    9.7966  -16.0583   21.1528 C   0  0  0  0  0  0  0  0  0  0  0  0
   10.8119  -16.1825   21.9109 O   0  0  0  0  0  0  0  0  0  0  0  0
    6.6801  -11.6756   28.2753 O   0  0  0  0  0  0  0  0  0  0  0  0
    6.8848  -12.2341   27.0194 C   0  0  0  0  0  0  0  0  0  0  0  0
    7.8484  -11.7948   26.1417 C   0  0  0  0  0  0  0  0  0  0  0  0
    8.0159  -12.3802   24.9033 C   0  0  0  0  0  0  0  0  0  0  0  0
    7.2170  -13.4258   24.5129 C   0  0  0  0  0  0  0  0  0  0  0  0
    7.3107  -14.1154   23.2257 C   0  0  0  0  0  0  0  0  0  0  0  0
    8.5896  -14.8995   23.0522 C   0  0  2  0  0  0  0  0  0  0  0  0
    8.6662  -15.3824   21.6918 N   0  0  0  0  0  0  0  0  0  0  0  0
    8.5040  -16.0698   23.9625 C   0  0  0  0  0  0  0  0  0  0  0  0
    7.9281  -17.0993   23.5219 O   0  0  0  0  0  0  0  0  0  0  0  0
    6.2547  -13.8556   25.4040 C   0  0  0  0  0  0  0  0  0  0  0  0
    6.0764  -13.2802   26.6439 C   0  0  0  0  0  0  0  0  0  0  0  0
   12.5655  -19.0214   23.2376 N   0  0  0  0  0  0  0  0  0  0  0  0
   12.4295  -19.5490   24.5709 C   0  0  0  0  0  0  0  0  0  0  0  0
   13.2541  -20.4113   24.8950 O   0  0  0  0  0  0  0  0  0  0  0  0
   11.3323  -19.0062   25.3895 C   0  0  0  0  0  0  0  0  0  0  0  0
   10.7544  -17.7188   24.9156 C   0  0  0  0  0  0  0  0  0  0  0  0
    9.6530  -17.2476   25.7988 C   0  0  2  0  0  0  0  0  0  0  0  0
    9.0504  -16.0171   25.2668 N   0  0  0  0  0  0  0  0  0  0  0  0
   10.1568  -16.9398   27.1521 C   0  0  0  0  0  0  0  0  0  0  0  0
   10.1799  -17.8414   28.0471 O   0  0  0  0  0  0  0  0  0  0  0  0
   10.6137  -15.6824   27.4801 O   0  0  0  0  0  0  0  0  0  0  0  0
  1  2  1  0
  2  3  1  0
  3  4  1  1
  5  3  1  0
  6  5  2  0
  7  8  1  0
  8 18  2  0
  9 10  2  0
  9  8  1  0
 10 11  1  0
 11 12  1  0
 11 17  2  0
 13 12  1  6
 13 15  1  0
 13 14  1  0
 14  5  1  0
 15 16  2  0
 18 17  1  0
 19 20  1  0
 20 22  1  0
 21 20  2  0
 22 23  1  0
 24 23  1  6
 25 24  1  0
 25 15  1  0
 26 28  1  0
 26 24  1  0
 27 26  2  0
M  END
$$$$
