AKT.pdb
     RDKit          3D

 22 21  0  0  1  0  0  0  0  0999 V2000
    5.8952  -20.6243   21.4099 C   0  0  0  0  0  0  0  0  0  0  0  0
    6.5530  -19.5438   20.5839 C   0  0  2  0  0  0  0  0  0  0  0  0
    7.4715  -20.1888   19.6641 N   0  0  0  0  0  0  0  0  0  0  0  0
    7.3206  -18.5847   21.4357 C   0  0  0  0  0  0  0  0  0  0  0  0
    8.3509  -18.9360   22.0534 O   0  0  0  0  0  0  0  0  0  0  0  0
    6.9044  -17.2340   21.5740 N   0  0  0  0  0  0  0  0  0  0  0  0
    7.6031  -16.2231   22.3261 C   0  0  1  0  0  0  0  0  0  0  0  0
    7.4187  -14.8480   21.7543 C   0  0  0  0  0  0  0  0  0  0  0  0
    7.9059  -14.6303   20.3744 C   0  0  0  0  0  0  0  0  0  0  0  0
    7.6702  -13.2872   19.7768 C   0  0  0  0  0  0  0  0  0  0  0  0
    8.2327  -13.2250   18.3496 C   0  0  0  0  0  0  0  0  0  0  0  0
    7.9444  -11.9710   17.7164 N   0  0  0  0  0  0  0  0  0  0  0  0
    7.3991  -16.3075   23.7841 C   0  0  0  0  0  0  0  0  0  0  0  0
    6.2097  -16.2603   24.2567 O   0  0  0  0  0  0  0  0  0  0  0  0
    7.5770  -19.0181   27.3155 C   0  0  0  0  0  0  0  0  0  0  0  0
    7.5521  -18.3897   25.9271 C   0  0  1  0  0  0  0  0  0  0  0  0
    6.2344  -18.3031   25.5188 O   0  0  0  0  0  0  0  0  0  0  0  0
    8.1606  -17.0034   26.0542 C   0  0  2  0  0  0  0  0  0  0  0  0
    8.4397  -16.4433   24.7403 N   0  0  0  0  0  0  0  0  0  0  0  0
    9.4183  -17.0412   26.8225 C   0  0  0  0  0  0  0  0  0  0  0  0
   10.5050  -16.8435   26.2364 O   0  0  0  0  0  0  0  0  0  0  0  0
    9.4707  -17.2881   28.1863 O   0  0  0  0  0  0  0  0  0  0  0  0
  2  1  1  1
  2  3  1  0
  4  2  1  0
  4  5  2  0
  6  4  1  0
  7  6  1  0
  7 13  1  0
  7  8  1  6
  9 10  1  0
  9  8  1  0
 10 11  1  0
 11 12  1  0
 13 19  1  0
 13 14  2  0
 16 15  1  1
 16 17  1  0
 18 16  1  0
 18 19  1  6
 20 22  1  0
 20 18  1  0
 21 20  2  0
M  END
$$$$
