AKT.pdb
     RDKit          3D

 22 21  0  0  1  0  0  0  0  0999 V2000
    8.4853  -12.3118   19.5478 C   0  0  0  0  0  0  0  0  0  0  0  0
    8.2985  -13.8108   19.5334 C   0  0  2  0  0  0  0  0  0  0  0  0
    7.3880  -14.1320   18.4500 N   0  0  0  0  0  0  0  0  0  0  0  0
    7.7139  -14.3090   20.8159 C   0  0  0  0  0  0  0  0  0  0  0  0
    6.5103  -14.1226   21.1038 O   0  0  0  0  0  0  0  0  0  0  0  0
    8.5092  -15.0151   21.7569 N   0  0  0  0  0  0  0  0  0  0  0  0
    8.0319  -15.5646   23.0004 C   0  0  1  0  0  0  0  0  0  0  0  0
    8.2383  -17.0481   23.0926 C   0  0  0  0  0  0  0  0  0  0  0  0
    7.4042  -17.8921   22.2091 C   0  0  0  0  0  0  0  0  0  0  0  0
    7.5727  -19.3669   22.3247 C   0  0  0  0  0  0  0  0  0  0  0  0
    6.7538  -20.0901   21.2460 C   0  0  0  0  0  0  0  0  0  0  0  0
    6.8899  -21.5146   21.3380 N   0  0  0  0  0  0  0  0  0  0  0  0
    8.4628  -14.8155   24.1954 C   0  0  0  0  0  0  0  0  0  0  0  0
    9.6642  -14.3774   24.2639 O   0  0  0  0  0  0  0  0  0  0  0  0
    6.8127  -11.7220   25.7366 C   0  0  0  0  0  0  0  0  0  0  0  0
    7.0397  -12.7276   26.8593 C   0  0  1  0  0  0  0  0  0  0  0  0
    5.8559  -13.4089   27.0711 O   0  0  0  0  0  0  0  0  0  0  0  0
    8.1249  -13.6819   26.3904 C   0  0  2  0  0  0  0  0  0  0  0  0
    7.6343  -14.5263   25.3114 N   0  0  0  0  0  0  0  0  0  0  0  0
    8.5841  -14.5495   27.4903 C   0  0  0  0  0  0  0  0  0  0  0  0
    8.4446  -15.7886   27.3976 O   0  0  0  0  0  0  0  0  0  0  0  0
    9.1747  -14.0641   28.6476 O   0  0  0  0  0  0  0  0  0  0  0  0
  2  1  1  1
  2  3  1  0
  4  2  1  0
  4  5  2  0
  6  4  1  0
  7  6  1  0
  7 13  1  0
  7  8  1  1
  9 10  1  0
  9  8  1  0
 10 11  1  0
 11 12  1  0
 13 19  1  0
 13 14  2  0
 16 15  1  6
 16 17  1  0
 18 16  1  0
 18 19  1  6
 20 22  1  0
 20 18  1  0
 21 20  2  0
M  END
$$$$
