AKT.pdb
     RDKit          3D

 22 21  0  0  1  0  0  0  0  0999 V2000
   -1.6207  -26.0190   22.4656 C   0  0  0  0  0  0  0  0  0  0  0  0
   -1.3491  -25.3942   23.8139 C   0  0  2  0  0  0  0  0  0  0  0  0
   -0.3205  -26.1825   24.4669 N   0  0  0  0  0  0  0  0  0  0  0  0
   -2.5694  -25.3867   24.6774 C   0  0  0  0  0  0  0  0  0  0  0  0
   -3.5902  -24.7339   24.3641 O   0  0  0  0  0  0  0  0  0  0  0  0
   -2.6122  -26.1247   25.8899 N   0  0  0  0  0  0  0  0  0  0  0  0
   -3.7389  -26.1840   26.7860 C   0  0  1  0  0  0  0  0  0  0  0  0
   -3.8139  -27.4832   27.5334 C   0  0  0  0  0  0  0  0  0  0  0  0
   -4.0619  -28.7000   26.7292 C   0  0  0  0  0  0  0  0  0  0  0  0
   -4.1062  -29.9969   27.4591 C   0  0  0  0  0  0  0  0  0  0  0  0
   -4.2961  -31.1625   26.4780 C   0  0  0  0  0  0  0  0  0  0  0  0
   -4.4240  -32.4180   27.1590 N   0  0  0  0  0  0  0  0  0  0  0  0
   -3.9009  -24.9865   27.6312 C   0  0  0  0  0  0  0  0  0  0  0  0
   -2.9563  -24.6447   28.4256 O   0  0  0  0  0  0  0  0  0  0  0  0
   -3.5758  -21.6573   27.2774 C   0  0  0  0  0  0  0  0  0  0  0  0
   -4.9956  -21.7126   27.8290 C   0  0  1  0  0  0  0  0  0  0  0  0
   -5.8729  -21.6598   26.7622 O   0  0  0  0  0  0  0  0  0  0  0  0
   -5.1361  -23.0331   28.5670 C   0  0  2  0  0  0  0  0  0  0  0  0
   -5.0487  -24.1510   27.6393 N   0  0  0  0  0  0  0  0  0  0  0  0
   -6.4267  -23.1138   29.2752 C   0  0  0  0  0  0  0  0  0  0  0  0
   -7.2795  -23.9518   28.9091 O   0  0  0  0  0  0  0  0  0  0  0  0
   -6.7599  -22.2987   30.3467 O   0  0  0  0  0  0  0  0  0  0  0  0
  2  1  1  6
  2  3  1  0
  4  2  1  0
  4  5  2  0
  6  4  1  0
  7  6  1  0
  7 13  1  0
  7  8  1  1
  9 10  1  0
  9  8  1  0
 10 11  1  0
 11 12  1  0
 13 19  1  0
 13 14  2  0
 16 15  1  6
 16 17  1  0
 18 16  1  0
 18 19  1  6
 20 22  1  0
 20 18  1  0
 21 20  2  0
M  END
$$$$
