AKT.pdb
     RDKit          3D

 22 21  0  0  1  0  0  0  0  0999 V2000
    8.5782  -20.3003   19.1223 C   0  0  0  0  0  0  0  0  0  0  0  0
    7.3960  -21.1541   19.5168 C   0  0  2  0  0  0  0  0  0  0  0  0
    6.2385  -20.6696   18.7879 N   0  0  0  0  0  0  0  0  0  0  0  0
    7.1127  -21.0658   20.9819 C   0  0  0  0  0  0  0  0  0  0  0  0
    7.0823  -19.9660   21.5786 O   0  0  0  0  0  0  0  0  0  0  0  0
    6.8669  -22.2337   21.7514 N   0  0  0  0  0  0  0  0  0  0  0  0
    6.5731  -22.2518   23.1618 C   0  0  1  0  0  0  0  0  0  0  0  0
    5.6529  -23.3735   23.5451 C   0  0  0  0  0  0  0  0  0  0  0  0
    4.2224  -23.0337   23.7101 C   0  0  0  0  0  0  0  0  0  0  0  0
    3.2832  -24.1612   23.9618 C   0  0  0  0  0  0  0  0  0  0  0  0
    1.8474  -23.6419   24.1233 C   0  0  0  0  0  0  0  0  0  0  0  0
    0.9272  -24.7007   24.4211 N   0  0  0  0  0  0  0  0  0  0  0  0
    7.7598  -22.1167   24.0267 C   0  0  0  0  0  0  0  0  0  0  0  0
    8.7980  -22.8268   23.7857 O   0  0  0  0  0  0  0  0  0  0  0  0
   10.7609  -19.5789   26.8251 C   0  0  0  0  0  0  0  0  0  0  0  0
    9.5911  -19.6685   25.8521 C   0  0  1  0  0  0  0  0  0  0  0  0
   10.0513  -19.3249   24.5949 O   0  0  0  0  0  0  0  0  0  0  0  0
    9.1093  -21.1093   25.8656 C   0  0  2  0  0  0  0  0  0  0  0  0
    7.8558  -21.2379   25.1376 N   0  0  0  0  0  0  0  0  0  0  0  0
    8.9002  -21.5891   27.2438 C   0  0  0  0  0  0  0  0  0  0  0  0
    7.7622  -21.5148   27.7565 O   0  0  0  0  0  0  0  0  0  0  0  0
    9.9116  -22.1299   28.0238 O   0  0  0  0  0  0  0  0  0  0  0  0
  2  1  1  1
  2  3  1  0
  4  2  1  0
  4  5  2  0
  6  4  1  0
  7  6  1  0
  7 13  1  0
  7  8  1  1
  9 10  1  0
  9  8  1  0
 10 11  1  0
 11 12  1  0
 13 19  1  0
 13 14  2  0
 16 15  1  1
 16 17  1  0
 18 16  1  0
 18 19  1  6
 20 22  1  0
 20 18  1  0
 21 20  2  0
M  END
$$$$
