AKT.pdb
     RDKit          3D

 22 21  0  0  1  0  0  0  0  0999 V2000
    8.2627  -12.3596   19.4617 C   0  0  0  0  0  0  0  0  0  0  0  0
    8.1607  -13.8668   19.4731 C   0  0  2  0  0  0  0  0  0  0  0  0
    7.1658  -14.2496   18.4885 N   0  0  0  0  0  0  0  0  0  0  0  0
    7.7370  -14.3837   20.8102 C   0  0  0  0  0  0  0  0  0  0  0  0
    6.5305  -14.4416   21.1385 O   0  0  0  0  0  0  0  0  0  0  0  0
    8.6945  -14.8293   21.7595 N   0  0  0  0  0  0  0  0  0  0  0  0
    8.3856  -15.4788   23.0079 C   0  0  1  0  0  0  0  0  0  0  0  0
    8.9676  -16.8589   23.0997 C   0  0  0  0  0  0  0  0  0  0  0  0
    8.7329  -17.5975   24.3600 C   0  0  0  0  0  0  0  0  0  0  0  0
    9.2666  -18.9850   24.4413 C   0  0  0  0  0  0  0  0  0  0  0  0
    8.7725  -19.6795   25.7184 C   0  0  0  0  0  0  0  0  0  0  0  0
    9.3323  -20.9918   25.8630 N   0  0  0  0  0  0  0  0  0  0  0  0
    8.6196  -14.6401   24.1980 C   0  0  0  0  0  0  0  0  0  0  0  0
    9.7473  -14.0499   24.3399 O   0  0  0  0  0  0  0  0  0  0  0  0
    6.5305  -11.6948   25.6829 C   0  0  0  0  0  0  0  0  0  0  0  0
    6.7718  -12.7403   26.7654 C   0  0  1  0  0  0  0  0  0  0  0  0
    5.6578  -13.5560   26.8303 O   0  0  0  0  0  0  0  0  0  0  0  0
    7.9928  -13.5417   26.3470 C   0  0  2  0  0  0  0  0  0  0  0  0
    7.6722  -14.4208   25.2324 N   0  0  0  0  0  0  0  0  0  0  0  0
    8.4979  -14.3651   27.4608 C   0  0  0  0  0  0  0  0  0  0  0  0
    8.5061  -15.6107   27.3523 O   0  0  0  0  0  0  0  0  0  0  0  0
    8.9752  -13.8301   28.6481 O   0  0  0  0  0  0  0  0  0  0  0  0
  2  1  1  1
  2  3  1  0
  4  2  1  0
  4  5  2  0
  6  4  1  0
  7  6  1  0
  7 13  1  0
  7  8  1  1
  9 10  1  0
  9  8  1  0
 10 11  1  0
 11 12  1  0
 13 19  1  0
 13 14  2  0
 16 15  1  6
 16 17  1  0
 18 16  1  0
 18 19  1  6
 20 22  1  0
 20 18  1  0
 21 20  2  0
M  END
$$$$
