AKT.pdb
     RDKit          3D

 22 21  0  0  1  0  0  0  0  0999 V2000
   11.9539  -17.8015   18.1077 C   0  0  0  0  0  0  0  0  0  0  0  0
   11.0424  -18.9620   18.4314 C   0  0  2  0  0  0  0  0  0  0  0  0
   10.3515  -19.3347   17.2110 N   0  0  0  0  0  0  0  0  0  0  0  0
   10.0270  -18.5976   19.4662 C   0  0  0  0  0  0  0  0  0  0  0  0
    9.0252  -17.9019   19.1853 O   0  0  0  0  0  0  0  0  0  0  0  0
   10.1652  -19.0309   20.8115 N   0  0  0  0  0  0  0  0  0  0  0  0
    9.2837  -18.6731   21.8934 C   0  0  1  0  0  0  0  0  0  0  0  0
    9.3984  -19.6056   23.0636 C   0  0  0  0  0  0  0  0  0  0  0  0
    8.8944  -20.9829   22.8686 C   0  0  0  0  0  0  0  0  0  0  0  0
    8.9612  -21.9006   24.0391 C   0  0  0  0  0  0  0  0  0  0  0  0
    8.2893  -23.2419   23.7126 C   0  0  0  0  0  0  0  0  0  0  0  0
    8.3536  -24.1540   24.8173 N   0  0  0  0  0  0  0  0  0  0  0  0
    9.3172  -17.2427   22.2506 C   0  0  0  0  0  0  0  0  0  0  0  0
   10.4434  -16.6361   22.3130 O   0  0  0  0  0  0  0  0  0  0  0  0
    8.6464  -14.1903   20.6116 C   0  0  0  0  0  0  0  0  0  0  0  0
    7.7012  -14.1669   21.8072 C   0  0  1  0  0  0  0  0  0  0  0  0
    6.4840  -14.6817   21.4021 O   0  0  0  0  0  0  0  0  0  0  0  0
    8.3186  -15.0467   22.8810 C   0  0  2  0  0  0  0  0  0  0  0  0
    8.1727  -16.4535   22.5382 N   0  0  0  0  0  0  0  0  0  0  0  0
    7.6817  -14.8166   24.1905 C   0  0  0  0  0  0  0  0  0  0  0  0
    7.7518  -13.6861   24.7201 O   0  0  0  0  0  0  0  0  0  0  0  0
    6.9940  -15.7998   24.8863 O   0  0  0  0  0  0  0  0  0  0  0  0
  2  1  1  6
  2  3  1  0
  4  2  1  0
  4  5  2  0
  6  4  1  0
  7  6  1  0
  7 13  1  0
  7  8  1  1
  9 10  1  0
  9  8  1  0
 10 11  1  0
 11 12  1  0
 13 19  1  0
 13 14  2  0
 16 15  1  6
 16 17  1  0
 18 16  1  0
 18 19  1  6
 20 22  1  0
 20 18  1  0
 21 20  2  0
M  END
$$$$
