AKT.pdb
     RDKit          3D

 22 21  0  0  1  0  0  0  0  0999 V2000
    9.7631  -19.9537   18.2260 C   0  0  0  0  0  0  0  0  0  0  0  0
    8.4621  -19.1974   18.3585 C   0  0  2  0  0  0  0  0  0  0  0  0
    8.7217  -17.8098   18.0227 N   0  0  0  0  0  0  0  0  0  0  0  0
    7.9227  -19.2619   19.7512 C   0  0  0  0  0  0  0  0  0  0  0  0
    8.1332  -18.3468   20.5788 O   0  0  0  0  0  0  0  0  0  0  0  0
    7.1485  -20.3702   20.1855 N   0  0  0  0  0  0  0  0  0  0  0  0
    6.5142  -20.4857   21.4740 C   0  0  1  0  0  0  0  0  0  0  0  0
    5.3140  -21.3861   21.4477 C   0  0  0  0  0  0  0  0  0  0  0  0
    4.6269  -21.6168   22.7374 C   0  0  0  0  0  0  0  0  0  0  0  0
    3.4233  -22.4929   22.7165 C   0  0  0  0  0  0  0  0  0  0  0  0
    2.7222  -22.4799   24.0823 C   0  0  0  0  0  0  0  0  0  0  0  0
    1.6228  -23.3996   24.1267 N   0  0  0  0  0  0  0  0  0  0  0  0
    7.4481  -20.7501   22.5842 C   0  0  0  0  0  0  0  0  0  0  0  0
    8.2901  -21.7098   22.4831 O   0  0  0  0  0  0  0  0  0  0  0  0
   10.0809  -19.4734   26.4547 C   0  0  0  0  0  0  0  0  0  0  0  0
    9.2622  -19.0990   25.2247 C   0  0  1  0  0  0  0  0  0  0  0  0
   10.1387  -18.7281   24.2223 O   0  0  0  0  0  0  0  0  0  0  0  0
    8.4809  -20.3362   24.8157 C   0  0  2  0  0  0  0  0  0  0  0  0
    7.4986  -20.0078   23.7934 N   0  0  0  0  0  0  0  0  0  0  0  0
    7.7761  -20.9272   25.9678 C   0  0  0  0  0  0  0  0  0  0  0  0
    8.3919  -21.6940   26.7401 O   0  0  0  0  0  0  0  0  0  0  0  0
    6.4419  -20.6789   26.2537 O   0  0  0  0  0  0  0  0  0  0  0  0
  2  1  1  1
  2  3  1  0
  4  2  1  0
  4  5  2  0
  6  4  1  0
  7  6  1  0
  7 13  1  0
  7  8  1  6
  9 10  1  0
  9  8  1  0
 10 11  1  0
 11 12  1  0
 13 19  1  0
 13 14  2  0
 16 15  1  1
 16 17  1  0
 18 16  1  0
 18 19  1  6
 20 22  1  0
 20 18  1  0
 21 20  2  0
M  END
$$$$
