AKT.pdb
     RDKit          3D

 22 21  0  0  1  0  0  0  0  0999 V2000
    8.2605  -12.5958   19.6488 C   0  0  0  0  0  0  0  0  0  0  0  0
    8.0273  -14.0872   19.7074 C   0  0  2  0  0  0  0  0  0  0  0  0
    7.0138  -14.4148   18.7218 N   0  0  0  0  0  0  0  0  0  0  0  0
    7.5453  -14.5205   21.0544 C   0  0  0  0  0  0  0  0  0  0  0  0
    6.4185  -14.1877   21.4858 O   0  0  0  0  0  0  0  0  0  0  0  0
    8.3543  -15.3294   21.8957 N   0  0  0  0  0  0  0  0  0  0  0  0
    7.9947  -15.7689   23.2199 C   0  0  1  0  0  0  0  0  0  0  0  0
    8.3637  -17.2014   23.4724 C   0  0  0  0  0  0  0  0  0  0  0  0
    7.6761  -18.2206   22.6495 C   0  0  0  0  0  0  0  0  0  0  0  0
    8.0654  -19.6412   22.8660 C   0  0  0  0  0  0  0  0  0  0  0  0
    7.3665  -20.5537   21.8481 C   0  0  0  0  0  0  0  0  0  0  0  0
    7.7929  -21.9172   21.9725 N   0  0  0  0  0  0  0  0  0  0  0  0
    8.3950  -14.8399   24.2929 C   0  0  0  0  0  0  0  0  0  0  0  0
    9.4928  -14.1893   24.1847 O   0  0  0  0  0  0  0  0  0  0  0  0
    6.9859  -11.6963   25.5434 C   0  0  0  0  0  0  0  0  0  0  0  0
    7.0773  -12.5983   26.7686 C   0  0  1  0  0  0  0  0  0  0  0  0
    5.8427  -13.1900   26.9591 O   0  0  0  0  0  0  0  0  0  0  0  0
    8.1302  -13.6518   26.4691 C   0  0  2  0  0  0  0  0  0  0  0  0
    7.6440  -14.5942   25.4724 N   0  0  0  0  0  0  0  0  0  0  0  0
    8.4938  -14.4034   27.6842 C   0  0  0  0  0  0  0  0  0  0  0  0
    8.9538  -13.7917   28.6729 O   0  0  0  0  0  0  0  0  0  0  0  0
    8.3534  -15.7783   27.8000 O   0  0  0  0  0  0  0  0  0  0  0  0
  2  1  1  1
  2  3  1  0
  4  2  1  0
  4  5  2  0
  6  4  1  0
  7  6  1  0
  7 13  1  0
  7  8  1  1
  9 10  1  0
  9  8  1  0
 10 11  1  0
 11 12  1  0
 13 19  1  0
 13 14  2  0
 16 15  1  6
 16 17  1  0
 18 16  1  0
 18 19  1  6
 20 22  1  0
 20 18  1  0
 21 20  2  0
M  END
$$$$
