AKT.pdb
     RDKit          3D

 22 21  0  0  1  0  0  0  0  0999 V2000
    8.1589  -12.4321   19.6364 C   0  0  0  0  0  0  0  0  0  0  0  0
    8.1580  -13.9405   19.5525 C   0  0  2  0  0  0  0  0  0  0  0  0
    7.3432  -14.3188   18.4128 N   0  0  0  0  0  0  0  0  0  0  0  0
    7.5820  -14.5639   20.7830 C   0  0  0  0  0  0  0  0  0  0  0  0
    6.3472  -14.7087   20.9281 O   0  0  0  0  0  0  0  0  0  0  0  0
    8.4211  -15.0158   21.8358 N   0  0  0  0  0  0  0  0  0  0  0  0
    7.9615  -15.5706   23.0835 C   0  0  1  0  0  0  0  0  0  0  0  0
    8.2549  -17.0372   23.2056 C   0  0  0  0  0  0  0  0  0  0  0  0
    7.8518  -17.6935   24.4688 C   0  0  0  0  0  0  0  0  0  0  0  0
    8.0580  -19.1649   24.5634 C   0  0  0  0  0  0  0  0  0  0  0  0
    7.6027  -19.6869   25.9336 C   0  0  0  0  0  0  0  0  0  0  0  0
    7.6181  -21.1197   25.9910 N   0  0  0  0  0  0  0  0  0  0  0  0
    8.3314  -14.7759   24.2693 C   0  0  0  0  0  0  0  0  0  0  0  0
    9.5637  -14.4994   24.4819 O   0  0  0  0  0  0  0  0  0  0  0  0
    6.6178  -11.4596   25.6722 C   0  0  0  0  0  0  0  0  0  0  0  0
    6.7906  -12.4899   26.7821 C   0  0  1  0  0  0  0  0  0  0  0  0
    5.5903  -13.1572   26.9389 O   0  0  0  0  0  0  0  0  0  0  0  0
    7.8776  -13.4514   26.3326 C   0  0  2  0  0  0  0  0  0  0  0  0
    7.4106  -14.2724   25.2255 N   0  0  0  0  0  0  0  0  0  0  0  0
    8.2905  -14.3419   27.4326 C   0  0  0  0  0  0  0  0  0  0  0  0
    8.0774  -15.5708   27.3440 O   0  0  0  0  0  0  0  0  0  0  0  0
    8.9148  -13.8895   28.5855 O   0  0  0  0  0  0  0  0  0  0  0  0
  2  1  1  1
  2  3  1  0
  4  2  1  0
  4  5  2  0
  6  4  1  0
  7  6  1  0
  7 13  1  0
  7  8  1  1
  9 10  1  0
  9  8  1  0
 10 11  1  0
 11 12  1  0
 13 19  1  0
 13 14  2  0
 16 15  1  6
 16 17  1  0
 18 16  1  0
 18 19  1  6
 20 22  1  0
 20 18  1  0
 21 20  2  0
M  END
$$$$
