SNI.pdb
     RDKit          3D

 23 22  0  0  1  0  0  0  0  0999 V2000
   27.1169  -17.6897  -16.7019 O   0  0  0  0  0  0  0  0  0  0  0  0
   26.8897  -19.0110  -17.0271 C   0  0  0  0  0  0  0  0  0  0  0  0
   27.3382  -19.8951  -15.8822 C   0  0  2  0  0  0  0  0  0  0  0  0
   28.3124  -20.8707  -16.2725 N   0  0  0  0  0  0  0  0  0  0  0  0
   26.1805  -20.5943  -15.2683 C   0  0  0  0  0  0  0  0  0  0  0  0
   25.6912  -21.5809  -15.8918 O   0  0  0  0  0  0  0  0  0  0  0  0
   26.6679  -21.7215  -10.6843 N   0  0  0  0  0  0  0  0  0  0  0  0
   25.5886  -22.0734  -11.5963 C   0  0  0  0  0  0  0  0  0  0  0  0
   25.5447  -23.2782  -11.8861 O   0  0  0  0  0  0  0  0  0  0  0  0
   24.7381  -20.9851  -12.0252 C   0  0  0  0  0  0  0  0  0  0  0  0
   24.4285  -20.8414  -13.4892 C   0  0  2  0  0  0  0  0  0  0  0  0
   25.6511  -20.1725  -14.0401 N   0  0  0  0  0  0  0  0  0  0  0  0
   23.3630  -19.8317  -13.7600 C   0  0  0  0  0  0  0  0  0  0  0  0
   23.3436  -18.6955  -13.1568 O   0  0  0  0  0  0  0  0  0  0  0  0
   22.5020  -17.7615  -18.2407 C   0  0  0  0  0  0  0  0  0  0  0  0
   22.4923  -17.9829  -16.7219 C   0  0  0  0  0  0  0  0  0  0  0  0
   21.1848  -18.5378  -16.2630 C   0  0  2  0  0  0  0  0  0  0  0  0
   20.0989  -17.5282  -16.5386 C   0  0  0  0  0  0  0  0  0  0  0  0
   21.2713  -18.9822  -14.8413 C   0  0  2  0  0  0  0  0  0  0  0  0
   22.3108  -20.0214  -14.6803 N   0  0  0  0  0  0  0  0  0  0  0  0
   20.0235  -19.5691  -14.2994 C   0  0  0  0  0  0  0  0  0  0  0  0
   19.1416  -18.8512  -13.4675 O   0  0  0  0  0  0  0  0  0  0  0  0
   19.6674  -20.7475  -14.5454 O   0  0  0  0  0  0  0  0  0  0  0  0
  2  1  1  0
  3  4  1  6
  3  2  1  0
  5  3  1  0
  5  6  2  0
  7  8  1  0
  8 10  1  0
  8  9  2  0
 11 10  1  1
 11 12  1  0
 11 13  1  0
 12  5  1  0
 13 20  1  0
 13 14  2  0
 16 15  1  0
 17 16  1  0
 17 18  1  1
 19 17  1  0
 19 20  1  6
 21 22  1  0
 21 19  1  0
 23 21  2  0
M  END
$$$$
