SNI.pdb
     RDKit          3D

 23 22  0  0  1  0  0  0  0  0999 V2000
   14.7815  -12.2827  -16.0994 O   0  0  0  0  0  0  0  0  0  0  0  0
   15.9459  -11.5514  -16.2125 C   0  0  0  0  0  0  0  0  0  0  0  0
   16.2774  -11.3568  -17.6773 C   0  0  2  0  0  0  0  0  0  0  0  0
   16.8140  -12.5335  -18.2943 N   0  0  0  0  0  0  0  0  0  0  0  0
   17.2399  -10.2403  -17.8586 C   0  0  0  0  0  0  0  0  0  0  0  0
   18.1981  -10.4152  -18.6667 O   0  0  0  0  0  0  0  0  0  0  0  0
   16.9536   -4.2544  -17.6298 N   0  0  0  0  0  0  0  0  0  0  0  0
   17.8281   -5.3924  -17.3834 C   0  0  0  0  0  0  0  0  0  0  0  0
   19.0150   -5.0863  -17.1962 O   0  0  0  0  0  0  0  0  0  0  0  0
   17.1966   -6.6934  -17.3926 C   0  0  0  0  0  0  0  0  0  0  0  0
   18.0651   -7.9204  -17.3762 C   0  0  2  0  0  0  0  0  0  0  0  0
   17.0887   -9.0357  -17.1565 N   0  0  0  0  0  0  0  0  0  0  0  0
   18.9255   -8.0053  -16.1595 C   0  0  0  0  0  0  0  0  0  0  0  0
   18.4463   -8.3610  -15.0198 O   0  0  0  0  0  0  0  0  0  0  0  0
   23.6822  -10.6112  -13.9865 C   0  0  0  0  0  0  0  0  0  0  0  0
   22.8601   -9.3186  -13.8901 C   0  0  0  0  0  0  0  0  0  0  0  0
   21.9938   -9.1359  -15.0919 C   0  0  2  0  0  0  0  0  0  0  0  0
   22.8640   -9.0930  -16.3228 C   0  0  0  0  0  0  0  0  0  0  0  0
   21.1012   -7.9524  -14.9225 C   0  0  2  0  0  0  0  0  0  0  0  0
   20.3064   -7.7170  -16.1471 N   0  0  0  0  0  0  0  0  0  0  0  0
   21.8071   -6.6795  -14.6461 C   0  0  0  0  0  0  0  0  0  0  0  0
   21.8598   -5.6197  -15.5731 O   0  0  0  0  0  0  0  0  0  0  0  0
   22.4069   -6.4591  -13.5655 O   0  0  0  0  0  0  0  0  0  0  0  0
  2  1  1  0
  3  4  1  1
  3  2  1  0
  5  3  1  0
  5  6  2  0
  7  8  1  0
  8 10  1  0
  8  9  2  0
 11 10  1  1
 11 12  1  0
 11 13  1  0
 12  5  1  0
 13 20  1  0
 13 14  2  0
 16 15  1  0
 17 16  1  0
 17 18  1  6
 19 17  1  0
 19 20  1  6
 21 22  1  0
 21 19  1  0
 23 21  2  0
M  END
$$$$
