SNI.pdb
     RDKit          3D

 23 22  0  0  1  0  0  0  0  0999 V2000
   19.2026  -14.2998  -15.7421 O   0  0  0  0  0  0  0  0  0  0  0  0
   20.1747  -13.3836  -16.0869 C   0  0  0  0  0  0  0  0  0  0  0  0
   19.5236  -12.0520  -16.3972 C   0  0  2  0  0  0  0  0  0  0  0  0
   19.3969  -11.8011  -17.8023 N   0  0  0  0  0  0  0  0  0  0  0  0
   20.2818  -10.9348  -15.7784 C   0  0  0  0  0  0  0  0  0  0  0  0
   20.2738  -10.8470  -14.5159 O   0  0  0  0  0  0  0  0  0  0  0  0
   23.2548  -10.4478  -14.1551 N   0  0  0  0  0  0  0  0  0  0  0  0
   23.9323   -9.9987  -15.3633 C   0  0  0  0  0  0  0  0  0  0  0  0
   25.1012  -10.3996  -15.4658 O   0  0  0  0  0  0  0  0  0  0  0  0
   23.1571   -9.1639  -16.2543 C   0  0  0  0  0  0  0  0  0  0  0  0
   21.7195   -8.8831  -15.9160 C   0  0  2  0  0  0  0  0  0  0  0  0
   20.9809  -10.0115  -16.5692 N   0  0  0  0  0  0  0  0  0  0  0  0
   21.1779   -7.6905  -16.6319 C   0  0  0  0  0  0  0  0  0  0  0  0
   21.3750   -7.5144  -17.8910 O   0  0  0  0  0  0  0  0  0  0  0  0
   16.4464   -4.9428  -18.3952 C   0  0  0  0  0  0  0  0  0  0  0  0
   17.8558   -4.6354  -17.8709 C   0  0  0  0  0  0  0  0  0  0  0  0
   18.4408   -5.8135  -17.1650 C   0  0  2  0  0  0  0  0  0  0  0  0
   17.5651   -6.1659  -15.9888 C   0  0  0  0  0  0  0  0  0  0  0  0
   19.8708   -5.5639  -16.8200 C   0  0  2  0  0  0  0  0  0  0  0  0
   20.4163   -6.6768  -16.0135 N   0  0  0  0  0  0  0  0  0  0  0  0
   20.1111   -4.3341  -16.0296 C   0  0  0  0  0  0  0  0  0  0  0  0
   20.5841   -4.3606  -14.7027 O   0  0  0  0  0  0  0  0  0  0  0  0
   19.9092   -3.1837  -16.4897 O   0  0  0  0  0  0  0  0  0  0  0  0
  2  1  1  0
  3  4  1  6
  3  2  1  0
  5  3  1  0
  5  6  2  0
  7  8  1  0
  8 10  1  0
  8  9  2  0
 11 10  1  6
 11 12  1  0
 11 13  1  0
 12  5  1  0
 13 20  1  0
 13 14  2  0
 16 15  1  0
 17 16  1  0
 17 18  1  1
 19 17  1  0
 19 20  1  1
 21 22  1  0
 21 19  1  0
 23 21  2  0
M  END
$$$$
