SNI.pdb
     RDKit          3D

 23 22  0  0  1  0  0  0  0  0999 V2000
   15.3615  -11.2182  -16.3659 O   0  0  0  0  0  0  0  0  0  0  0  0
   16.1369  -10.2769  -15.7210 C   0  0  0  0  0  0  0  0  0  0  0  0
   17.5746  -10.7511  -15.6816 C   0  0  2  0  0  0  0  0  0  0  0  0
   17.7662  -11.8992  -14.8460 N   0  0  0  0  0  0  0  0  0  0  0  0
   18.4773   -9.6664  -15.2184 C   0  0  0  0  0  0  0  0  0  0  0  0
   18.3823   -9.2974  -14.0115 O   0  0  0  0  0  0  0  0  0  0  0  0
   21.7452   -9.3973  -13.7421 N   0  0  0  0  0  0  0  0  0  0  0  0
   22.4011   -9.1330  -15.0151 C   0  0  0  0  0  0  0  0  0  0  0  0
   23.5391   -9.6168  -15.1071 O   0  0  0  0  0  0  0  0  0  0  0  0
   21.6433   -8.3574  -15.9720 C   0  0  0  0  0  0  0  0  0  0  0  0
   20.2463   -7.9317  -15.6154 C   0  0  2  0  0  0  0  0  0  0  0  0
   19.4015   -9.0743  -16.0913 N   0  0  0  0  0  0  0  0  0  0  0  0
   19.7534   -6.7996  -16.4540 C   0  0  0  0  0  0  0  0  0  0  0  0
   19.9121   -6.7888  -17.7306 O   0  0  0  0  0  0  0  0  0  0  0  0
   15.0720   -5.4011  -17.9427 C   0  0  0  0  0  0  0  0  0  0  0  0
   16.6067   -5.3891  -17.9622 C   0  0  0  0  0  0  0  0  0  0  0  0
   17.1559   -4.5048  -16.8924 C   0  0  2  0  0  0  0  0  0  0  0  0
   16.6139   -3.1101  -17.0817 C   0  0  0  0  0  0  0  0  0  0  0  0
   18.6449   -4.5905  -16.8512 C   0  0  2  0  0  0  0  0  0  0  0  0
   19.0817   -5.6704  -15.9403 N   0  0  0  0  0  0  0  0  0  0  0  0
   19.3227   -3.3612  -16.3776 C   0  0  0  0  0  0  0  0  0  0  0  0
   19.7916   -3.2091  -15.0577 O   0  0  0  0  0  0  0  0  0  0  0  0
   19.5252   -2.3706  -17.1217 O   0  0  0  0  0  0  0  0  0  0  0  0
  2  1  1  0
  3  4  1  1
  3  2  1  0
  5  3  1  0
  5  6  2  0
  7  8  1  0
  8 10  1  0
  8  9  2  0
 11 10  1  6
 11 12  1  0
 11 13  1  0
 12  5  1  0
 13 20  1  0
 13 14  2  0
 16 15  1  0
 17 16  1  0
 17 18  1  6
 19 17  1  0
 19 20  1  1
 21 22  1  0
 21 19  1  0
 23 21  2  0
M  END
$$$$
