SNI.pdb
     RDKit          3D

 23 22  0  0  1  0  0  0  0  0999 V2000
   20.0901  -15.4013  -15.0102 O   0  0  0  0  0  0  0  0  0  0  0  0
   18.8457  -15.0623  -15.4998 C   0  0  0  0  0  0  0  0  0  0  0  0
   18.9286  -14.8787  -17.0008 C   0  0  2  0  0  0  0  0  0  0  0  0
   19.5669  -15.9747  -17.6677 N   0  0  0  0  0  0  0  0  0  0  0  0
   19.6498  -13.6259  -17.3419 C   0  0  0  0  0  0  0  0  0  0  0  0
   20.8099  -13.7311  -17.8365 O   0  0  0  0  0  0  0  0  0  0  0  0
   20.4119   -8.5487  -18.4728 N   0  0  0  0  0  0  0  0  0  0  0  0
   18.9925   -8.8477  -18.3448 C   0  0  0  0  0  0  0  0  0  0  0  0
   18.2479   -7.9044  -18.6505 O   0  0  0  0  0  0  0  0  0  0  0  0
   18.6618  -10.1791  -17.8872 C   0  0  0  0  0  0  0  0  0  0  0  0
   19.7786  -11.1291  -17.5551 C   0  0  2  0  0  0  0  0  0  0  0  0
   19.0619  -12.3718  -17.1218 N   0  0  0  0  0  0  0  0  0  0  0  0
   20.5210  -10.7418  -16.3195 C   0  0  0  0  0  0  0  0  0  0  0  0
   19.9862  -10.8423  -15.1537 O   0  0  0  0  0  0  0  0  0  0  0  0
   25.6447  -12.0973  -15.6019 C   0  0  0  0  0  0  0  0  0  0  0  0
   24.1610  -11.7540  -15.4103 C   0  0  0  0  0  0  0  0  0  0  0  0
   23.9735  -10.3022  -15.1182 C   0  0  2  0  0  0  0  0  0  0  0  0
   24.7743   -9.9404  -13.8924 C   0  0  0  0  0  0  0  0  0  0  0  0
   22.5225   -9.9656  -15.0319 C   0  0  2  0  0  0  0  0  0  0  0  0
   21.8426  -10.2485  -16.3142 N   0  0  0  0  0  0  0  0  0  0  0  0
   22.2339   -8.5454  -14.7243 C   0  0  0  0  0  0  0  0  0  0  0  0
   21.9594   -8.0880  -13.4202 O   0  0  0  0  0  0  0  0  0  0  0  0
   22.2146   -7.6523  -15.6064 O   0  0  0  0  0  0  0  0  0  0  0  0
  2  1  1  0
  3  4  1  6
  3  2  1  0
  5  3  1  0
  5  6  2  0
  7  8  1  0
  8 10  1  0
  8  9  2  0
 11 10  1  1
 11 12  1  0
 11 13  1  0
 12  5  1  0
 13 20  1  0
 13 14  2  0
 16 15  1  0
 17 16  1  0
 17 18  1  1
 19 17  1  0
 19 20  1  6
 21 22  1  0
 21 19  1  0
 23 21  2  0
M  END
$$$$
