SNI.pdb
     RDKit          3D

 23 22  0  0  1  0  0  0  0  0999 V2000
   29.4173  -22.0153  -16.7515 O   0  0  0  0  0  0  0  0  0  0  0  0
   28.6956  -21.0359  -16.1009 C   0  0  0  0  0  0  0  0  0  0  0  0
   27.5275  -21.6702  -15.3752 C   0  0  2  0  0  0  0  0  0  0  0  0
   26.5289  -22.1899  -16.2617 N   0  0  0  0  0  0  0  0  0  0  0  0
   26.8880  -20.6993  -14.4510 C   0  0  0  0  0  0  0  0  0  0  0  0
   26.6357  -19.5418  -14.8964 O   0  0  0  0  0  0  0  0  0  0  0  0
   22.9639  -19.4037  -11.5554 N   0  0  0  0  0  0  0  0  0  0  0  0
   22.9455  -20.3228  -12.6848 C   0  0  0  0  0  0  0  0  0  0  0  0
   21.8092  -20.5767  -13.1111 O   0  0  0  0  0  0  0  0  0  0  0  0
   24.2337  -20.7987  -13.1384 C   0  0  0  0  0  0  0  0  0  0  0  0
   25.4697  -20.3474  -12.4112 C   0  0  2  0  0  0  0  0  0  0  0  0
   26.5761  -21.0567  -13.1312 N   0  0  0  0  0  0  0  0  0  0  0  0
   25.5711  -20.9134  -11.0338 C   0  0  0  0  0  0  0  0  0  0  0  0
   25.5326  -22.1820  -10.8230 O   0  0  0  0  0  0  0  0  0  0  0  0
   28.7411  -18.9731   -7.0780 C   0  0  0  0  0  0  0  0  0  0  0  0
   27.9406  -19.9320   -7.9700 C   0  0  0  0  0  0  0  0  0  0  0  0
   26.5066  -19.9854   -7.5589 C   0  0  2  0  0  0  0  0  0  0  0  0
   26.4216  -20.4781   -6.1360 C   0  0  0  0  0  0  0  0  0  0  0  0
   25.7073  -20.7783   -8.5379 C   0  0  2  0  0  0  0  0  0  0  0  0
   25.7198  -20.1328   -9.8682 N   0  0  0  0  0  0  0  0  0  0  0  0
   24.2791  -20.9441   -8.1807 C   0  0  0  0  0  0  0  0  0  0  0  0
   23.8276  -21.9290   -7.2799 O   0  0  0  0  0  0  0  0  0  0  0  0
   23.3735  -20.2171   -8.6573 O   0  0  0  0  0  0  0  0  0  0  0  0
  2  1  1  0
  3  4  1  6
  3  2  1  0
  5  3  1  0
  5  6  2  0
  7  8  1  0
  8 10  1  0
  8  9  2  0
 11 10  1  6
 11 12  1  0
 11 13  1  0
 12  5  1  0
 13 20  1  0
 13 14  2  0
 16 15  1  0
 17 16  1  0
 17 18  1  1
 19 17  1  0
 19 20  1  6
 21 22  1  0
 21 19  1  0
 23 21  2  0
M  END
$$$$
