SNI.pdb
     RDKit          3D

 23 22  0  0  1  0  0  0  0  0999 V2000
   24.0791  -23.9483  -17.7204 O   0  0  0  0  0  0  0  0  0  0  0  0
   24.5630  -23.0745  -16.7688 C   0  0  0  0  0  0  0  0  0  0  0  0
   25.3232  -23.8504  -15.7136 C   0  0  2  0  0  0  0  0  0  0  0  0
   25.1629  -25.2692  -15.8334 N   0  0  0  0  0  0  0  0  0  0  0  0
   24.9075  -23.4356  -14.3494 C   0  0  0  0  0  0  0  0  0  0  0  0
   24.1124  -24.1936  -13.7209 O   0  0  0  0  0  0  0  0  0  0  0  0
   24.9974  -21.1461   -9.6912 N   0  0  0  0  0  0  0  0  0  0  0  0
   26.0344  -20.5587  -10.5280 C   0  0  0  0  0  0  0  0  0  0  0  0
   26.7982  -19.7922   -9.9226 O   0  0  0  0  0  0  0  0  0  0  0  0
   26.0238  -20.9478  -11.9209 C   0  0  0  0  0  0  0  0  0  0  0  0
   24.9165  -21.8355  -12.4166 C   0  0  2  0  0  0  0  0  0  0  0  0
   25.3820  -22.2445  -13.7810 N   0  0  0  0  0  0  0  0  0  0  0  0
   23.6627  -21.0843  -12.7191 C   0  0  0  0  0  0  0  0  0  0  0  0
   23.0300  -20.4353  -11.8060 O   0  0  0  0  0  0  0  0  0  0  0  0
   23.4865  -17.9946  -16.9258 C   0  0  0  0  0  0  0  0  0  0  0  0
   23.2276  -18.5756  -15.5289 C   0  0  0  0  0  0  0  0  0  0  0  0
   21.9993  -19.4236  -15.5132 C   0  0  2  0  0  0  0  0  0  0  0  0
   20.8059  -18.5658  -15.8515 C   0  0  0  0  0  0  0  0  0  0  0  0
   21.8856  -20.1618  -14.2216 C   0  0  2  0  0  0  0  0  0  0  0  0
   23.0740  -21.0132  -13.9992 N   0  0  0  0  0  0  0  0  0  0  0  0
   20.7154  -21.0655  -14.1263 C   0  0  0  0  0  0  0  0  0  0  0  0
   20.7246  -22.3810  -14.6310 O   0  0  0  0  0  0  0  0  0  0  0  0
   19.6352  -20.7195  -13.5885 O   0  0  0  0  0  0  0  0  0  0  0  0
  2  1  1  0
  3  4  1  6
  3  2  1  0
  5  3  1  0
  5  6  2  0
  7  8  1  0
  8 10  1  0
  8  9  2  0
 11 10  1  6
 11 12  1  0
 11 13  1  0
 12  5  1  0
 13 20  1  0
 13 14  2  0
 16 15  1  0
 17 16  1  0
 17 18  1  1
 19 17  1  0
 19 20  1  6
 21 22  1  0
 21 19  1  0
 23 21  2  0
M  END
$$$$
