SNI.pdb
     RDKit          3D

 23 22  0  0  1  0  0  0  0  0999 V2000
   16.9726   -7.5841  -19.0139 O   0  0  0  0  0  0  0  0  0  0  0  0
   17.8691   -8.3437  -19.7369 C   0  0  0  0  0  0  0  0  0  0  0  0
   18.1274   -9.6460  -19.0084 C   0  0  2  0  0  0  0  0  0  0  0  0
   16.9423  -10.4283  -18.8165 N   0  0  0  0  0  0  0  0  0  0  0  0
   18.7557   -9.3973  -17.6859 C   0  0  0  0  0  0  0  0  0  0  0  0
   17.9900   -9.2579  -16.6879 O   0  0  0  0  0  0  0  0  0  0  0  0
   22.5100   -8.9700  -14.0117 N   0  0  0  0  0  0  0  0  0  0  0  0
   22.7999   -9.9851  -15.0149 C   0  0  0  0  0  0  0  0  0  0  0  0
   23.7936  -10.6806  -14.7573 O   0  0  0  0  0  0  0  0  0  0  0  0
   21.9021  -10.0344  -16.1476 C   0  0  0  0  0  0  0  0  0  0  0  0
   20.7534   -9.0663  -16.2041 C   0  0  2  0  0  0  0  0  0  0  0  0
   20.1496   -9.3202  -17.5519 N   0  0  0  0  0  0  0  0  0  0  0  0
   21.1976   -7.6457  -16.3160 C   0  0  0  0  0  0  0  0  0  0  0  0
   21.8569   -7.2252  -17.3376 O   0  0  0  0  0  0  0  0  0  0  0  0
   18.5675   -3.5320  -17.2535 C   0  0  0  0  0  0  0  0  0  0  0  0
   19.7796   -4.4560  -17.0723 C   0  0  0  0  0  0  0  0  0  0  0  0
   20.3754   -4.3087  -15.7116 C   0  0  2  0  0  0  0  0  0  0  0  0
   20.7737   -2.8691  -15.5030 C   0  0  0  0  0  0  0  0  0  0  0  0
   21.4792   -5.2923  -15.5107 C   0  0  2  0  0  0  0  0  0  0  0  0
   20.9385   -6.6583  -15.3424 N   0  0  0  0  0  0  0  0  0  0  0  0
   22.3234   -5.0403  -14.3196 C   0  0  0  0  0  0  0  0  0  0  0  0
   23.5069   -4.2775  -14.3711 O   0  0  0  0  0  0  0  0  0  0  0  0
   22.0406   -5.4903  -13.1823 O   0  0  0  0  0  0  0  0  0  0  0  0
  2  1  1  0
  3  4  1  1
  3  2  1  0
  5  3  1  0
  5  6  2  0
  7  8  1  0
  8 10  1  0
  8  9  2  0
 11 10  1  6
 11 12  1  0
 11 13  1  0
 12  5  1  0
 13 20  1  0
 13 14  2  0
 16 15  1  0
 17 16  1  0
 17 18  1  6
 19 17  1  0
 19 20  1  1
 21 22  1  0
 21 19  1  0
 23 21  2  0
M  END
$$$$
