SNI.pdb
     RDKit          3D

 23 22  0  0  1  0  0  0  0  0999 V2000
   15.8692  -14.2137  -14.8623 O   0  0  0  0  0  0  0  0  0  0  0  0
   16.8654  -13.3193  -15.1954 C   0  0  0  0  0  0  0  0  0  0  0  0
   17.0668  -13.3267  -16.6963 C   0  0  2  0  0  0  0  0  0  0  0  0
   17.6019  -14.5623  -17.1865 N   0  0  0  0  0  0  0  0  0  0  0  0
   17.9616  -12.2181  -17.1160 C   0  0  0  0  0  0  0  0  0  0  0  0
   19.2019  -12.4588  -17.1887 O   0  0  0  0  0  0  0  0  0  0  0  0
   17.1963   -7.1450  -20.3403 N   0  0  0  0  0  0  0  0  0  0  0  0
   17.9747   -7.7583  -19.2734 C   0  0  0  0  0  0  0  0  0  0  0  0
   19.0008   -7.1308  -18.9717 O   0  0  0  0  0  0  0  0  0  0  0  0
   17.4475   -8.9900  -18.7289 C   0  0  0  0  0  0  0  0  0  0  0  0
   18.3608   -9.8790  -17.9316 C   0  0  2  0  0  0  0  0  0  0  0  0
   17.4458  -10.9499  -17.4203 N   0  0  0  0  0  0  0  0  0  0  0  0
   18.8381   -9.2383  -16.6708 C   0  0  0  0  0  0  0  0  0  0  0  0
   18.0692   -9.1124  -15.6471 O   0  0  0  0  0  0  0  0  0  0  0  0
   23.2574  -10.6670  -14.2955 C   0  0  0  0  0  0  0  0  0  0  0  0
   21.8591  -10.1268  -14.6256 C   0  0  0  0  0  0  0  0  0  0  0  0
   21.8701   -8.6404  -14.7618 C   0  0  2  0  0  0  0  0  0  0  0  0
   22.3862   -8.0336  -13.4812 C   0  0  0  0  0  0  0  0  0  0  0  0
   20.5304   -8.1408  -15.1883 C   0  0  2  0  0  0  0  0  0  0  0  0
   20.1414   -8.7305  -16.4874 N   0  0  0  0  0  0  0  0  0  0  0  0
   20.4458   -6.6726  -15.3675 C   0  0  0  0  0  0  0  0  0  0  0  0
   20.0299   -5.8017  -14.3409 O   0  0  0  0  0  0  0  0  0  0  0  0
   20.7394   -6.1046  -16.4478 O   0  0  0  0  0  0  0  0  0  0  0  0
  2  1  1  0
  3  4  1  1
  3  2  1  0
  5  3  1  0
  5  6  2  0
  7  8  1  0
  8 10  1  0
  8  9  2  0
 11 10  1  6
 11 12  1  0
 11 13  1  0
 12  5  1  0
 13 20  1  0
 13 14  2  0
 16 15  1  0
 17 16  1  0
 17 18  1  1
 19 17  1  0
 19 20  1  6
 21 22  1  0
 21 19  1  0
 23 21  2  0
M  END
$$$$
