SNI.pdb
     RDKit          3D

 23 22  0  0  1  0  0  0  0  0999 V2000
   21.4614  -14.0102  -19.0276 O   0  0  0  0  0  0  0  0  0  0  0  0
   22.6415  -14.1011  -19.7364 C   0  0  0  0  0  0  0  0  0  0  0  0
   23.7100  -14.7174  -18.8578 C   0  0  2  0  0  0  0  0  0  0  0  0
   23.3255  -15.9836  -18.3082 N   0  0  0  0  0  0  0  0  0  0  0  0
   24.0727  -13.8032  -17.7450 C   0  0  0  0  0  0  0  0  0  0  0  0
   23.7103  -14.1266  -16.5763 O   0  0  0  0  0  0  0  0  0  0  0  0
   26.5758  -10.1127  -15.0223 N   0  0  0  0  0  0  0  0  0  0  0  0
   27.3216  -10.5450  -16.1960 C   0  0  0  0  0  0  0  0  0  0  0  0
   28.4831  -10.1136  -16.2437 O   0  0  0  0  0  0  0  0  0  0  0  0
   26.6117  -11.4008  -17.1209 C   0  0  0  0  0  0  0  0  0  0  0  0
   25.1750  -11.7402  -16.8369 C   0  0  2  0  0  0  0  0  0  0  0  0
   24.7919  -12.6234  -17.9852 N   0  0  0  0  0  0  0  0  0  0  0  0
   24.2587  -10.5749  -17.0112 C   0  0  0  0  0  0  0  0  0  0  0  0
   24.0548  -10.0459  -18.1661 O   0  0  0  0  0  0  0  0  0  0  0  0
   18.8947   -8.9669  -17.3002 C   0  0  0  0  0  0  0  0  0  0  0  0
   20.2458   -8.3898  -16.8558 C   0  0  0  0  0  0  0  0  0  0  0  0
   21.2433   -9.4725  -16.6092 C   0  0  2  0  0  0  0  0  0  0  0  0
   20.6811  -10.4366  -15.5948 C   0  0  0  0  0  0  0  0  0  0  0  0
   22.5695   -8.8937  -16.2452 C   0  0  2  0  0  0  0  0  0  0  0  0
   23.5467   -9.9654  -15.9568 N   0  0  0  0  0  0  0  0  0  0  0  0
   22.5567   -8.0230  -15.0466 C   0  0  0  0  0  0  0  0  0  0  0  0
   22.0875   -6.6947  -15.0739 O   0  0  0  0  0  0  0  0  0  0  0  0
   22.9637   -8.4107  -13.9241 O   0  0  0  0  0  0  0  0  0  0  0  0
  2  1  1  0
  3  4  1  1
  3  2  1  0
  5  3  1  0
  5  6  2  0
  7  8  1  0
  8 10  1  0
  8  9  2  0
 11 10  1  6
 11 12  1  0
 11 13  1  0
 12  5  1  0
 13 20  1  0
 13 14  2  0
 16 15  1  0
 17 16  1  0
 17 18  1  1
 19 17  1  0
 19 20  1  1
 21 22  1  0
 21 19  1  0
 23 21  2  0
M  END
$$$$
