SNI.pdb
     RDKit          3D

 23 22  0  0  1  0  0  0  0  0999 V2000
   13.8542  -10.5515  -14.7187 O   0  0  0  0  0  0  0  0  0  0  0  0
   14.2094   -9.2288  -14.5525 C   0  0  0  0  0  0  0  0  0  0  0  0
   15.6948   -9.1383  -14.2715 C   0  0  2  0  0  0  0  0  0  0  0  0
   16.1696  -10.1812  -13.4111 N   0  0  0  0  0  0  0  0  0  0  0  0
   16.0406   -7.8260  -13.6682 C   0  0  0  0  0  0  0  0  0  0  0  0
   15.9363   -6.7973  -14.3981 O   0  0  0  0  0  0  0  0  0  0  0  0
   17.6740   -4.5220   -9.8291 N   0  0  0  0  0  0  0  0  0  0  0  0
   16.5495   -5.3706   -9.4605 C   0  0  0  0  0  0  0  0  0  0  0  0
   16.0291   -5.0760   -8.3742 O   0  0  0  0  0  0  0  0  0  0  0  0
   16.2078   -6.4167  -10.3988 C   0  0  0  0  0  0  0  0  0  0  0  0
   16.8368   -6.3990  -11.7640 C   0  0  2  0  0  0  0  0  0  0  0  0
   16.4674   -7.7341  -12.3354 N   0  0  0  0  0  0  0  0  0  0  0  0
   18.3269   -6.4734  -11.7168 C   0  0  0  0  0  0  0  0  0  0  0  0
   18.9357   -7.2687  -10.9093 O   0  0  0  0  0  0  0  0  0  0  0  0
   22.5488   -8.9161  -14.2044 C   0  0  0  0  0  0  0  0  0  0  0  0
   22.3054   -7.5947  -13.4625 C   0  0  0  0  0  0  0  0  0  0  0  0
   20.8492   -7.2751  -13.3875 C   0  0  2  0  0  0  0  0  0  0  0  0
   20.2790   -7.2509  -14.7835 C   0  0  0  0  0  0  0  0  0  0  0  0
   20.6241   -6.0251  -12.6046 C   0  0  2  0  0  0  0  0  0  0  0  0
   19.1823   -5.7046  -12.5337 N   0  0  0  0  0  0  0  0  0  0  0  0
   21.2808   -4.8194  -13.1615 C   0  0  0  0  0  0  0  0  0  0  0  0
   22.6493   -4.5411  -12.9740 O   0  0  0  0  0  0  0  0  0  0  0  0
   20.6613   -3.9633  -13.8390 O   0  0  0  0  0  0  0  0  0  0  0  0
  2  1  1  0
  3  4  1  1
  3  2  1  0
  5  3  1  0
  5  6  2  0
  7  8  1  0
  8 10  1  0
  8  9  2  0
 11 10  1  1
 11 12  1  0
 11 13  1  0
 12  5  1  0
 13 20  1  0
 13 14  2  0
 16 15  1  0
 17 16  1  0
 17 18  1  6
 19 17  1  0
 19 20  1  6
 21 22  1  0
 21 19  1  0
 23 21  2  0
M  END
$$$$
