LFW.pdb
     RDKit          3D

 34 36  0  0  1  0  0  0  0  0999 V2000
   27.1178  -19.1871  -19.0348 C   0  0  0  0  0  0  0  0  0  0  0  0
   27.6449  -20.3650  -18.2137 C   0  0  2  0  0  0  0  0  0  0  0  0
   27.8844  -21.5202  -19.1627 C   0  0  0  0  0  0  0  0  0  0  0  0
   26.6963  -20.7266  -17.1139 C   0  0  0  0  0  0  0  0  0  0  0  0
   27.3662  -21.6478  -16.1463 C   0  0  2  0  0  0  0  0  0  0  0  0
   27.6626  -22.9498  -16.6987 N   0  0  0  0  0  0  0  0  0  0  0  0
   26.5737  -21.8421  -14.9022 C   0  0  0  0  0  0  0  0  0  0  0  0
   25.5928  -22.6159  -14.8706 O   0  0  0  0  0  0  0  0  0  0  0  0
   26.9164  -21.1536  -13.7311 N   0  0  0  0  0  0  0  0  0  0  0  0
   26.1811  -21.3083  -12.4504 C   0  0  1  0  0  0  0  0  0  0  0  0
   27.1187  -20.7949  -11.4189 C   0  0  0  0  0  0  0  0  0  0  0  0
   26.6172  -20.5670  -10.0778 C   0  0  0  0  0  0  0  0  0  0  0  0
   26.1954  -21.5707   -9.2493 C   0  0  0  0  0  0  0  0  0  0  0  0
   25.7143  -21.3453   -7.9712 C   0  0  0  0  0  0  0  0  0  0  0  0
   25.6453  -20.0722   -7.4854 C   0  0  0  0  0  0  0  0  0  0  0  0
   26.0685  -19.0231   -8.3061 C   0  0  0  0  0  0  0  0  0  0  0  0
   26.5429  -19.2788   -9.5745 C   0  0  0  0  0  0  0  0  0  0  0  0
   24.9753  -20.4715  -12.5703 C   0  0  0  0  0  0  0  0  0  0  0  0
   25.0778  -19.3055  -13.0733 O   0  0  0  0  0  0  0  0  0  0  0  0
   23.6646  -20.8323  -12.1794 N   0  0  0  0  0  0  0  0  0  0  0  0
   22.4873  -20.1114  -12.6413 C   0  0  1  0  0  0  0  0  0  0  0  0
   22.5296  -19.9501  -14.1498 C   0  0  0  0  0  0  0  0  0  0  0  0
   21.3821  -19.1983  -14.6552 C   0  0  0  0  0  0  0  0  0  0  0  0
   20.7794  -18.1378  -14.0368 C   0  0  0  0  0  0  0  0  0  0  0  0
   19.7656  -17.7508  -14.8248 N   0  0  0  0  0  0  0  0  0  0  0  0
   19.7042  -18.5323  -15.9260 C   0  0  0  0  0  0  0  0  0  0  0  0
   18.8586  -18.5490  -17.0266 C   0  0  0  0  0  0  0  0  0  0  0  0
   19.0549  -19.4935  -18.0109 C   0  0  0  0  0  0  0  0  0  0  0  0
   20.0652  -20.4245  -17.9396 C   0  0  0  0  0  0  0  0  0  0  0  0
   20.9093  -20.4137  -16.8489 C   0  0  0  0  0  0  0  0  0  0  0  0
   20.7147  -19.4648  -15.8564 C   0  0  0  0  0  0  0  0  0  0  0  0
   21.2197  -20.7827  -12.2873 C   0  0  0  0  0  0  0  0  0  0  0  0
   21.0716  -22.0120  -12.1187 O   0  0  0  0  0  0  0  0  0  0  0  0
   20.1010  -19.9563  -12.1301 O   0  0  0  0  0  0  0  0  0  0  0  0
  2  3  1  6
  2  1  1  0
  4  2  1  0
  5  6  1  6
  5  4  1  0
  7  5  1  0
  8  7  2  0
  9  7  1  0
 10  9  1  0
 11 12  1  0
 10 11  1  1
 12 17  2  0
 13 14  2  0
 13 12  1  0
 14 15  1  0
 15 16  2  0
 17 16  1  0
 18 10  1  0
 18 20  1  0
 19 18  2  0
 21 20  1  0
 21 22  1  6
 22 23  1  0
 23 31  1  0
 24 23  2  0
 24 25  1  0
 25 26  1  0
 26 27  2  0
 27 28  1  0
 29 28  2  0
 30 29  1  0
 31 30  2  0
 31 26  1  0
 32 34  1  0
 32 21  1  0
 33 32  2  0
M  END
$$$$
