LFW.pdb
     RDKit          3D

 34 36  0  0  1  0  0  0  0  0999 V2000
   32.8294  -22.6318  -11.2339 C   0  0  0  0  0  0  0  0  0  0  0  0
   32.7097  -22.5397   -9.7119 C   0  0  2  0  0  0  0  0  0  0  0  0
   33.6477  -23.5653   -9.1110 C   0  0  0  0  0  0  0  0  0  0  0  0
   31.2950  -22.7407   -9.2663 C   0  0  0  0  0  0  0  0  0  0  0  0
   30.4322  -21.6439   -9.8015 C   0  0  2  0  0  0  0  0  0  0  0  0
   30.9511  -20.3208   -9.5399 N   0  0  0  0  0  0  0  0  0  0  0  0
   29.0405  -21.7073   -9.2791 C   0  0  0  0  0  0  0  0  0  0  0  0
   28.4728  -22.8015   -9.0732 O   0  0  0  0  0  0  0  0  0  0  0  0
   28.3338  -20.5289   -9.0058 N   0  0  0  0  0  0  0  0  0  0  0  0
   26.9232  -20.5137   -8.5422 C   0  0  1  0  0  0  0  0  0  0  0  0
   26.8682  -19.4053   -7.5547 C   0  0  0  0  0  0  0  0  0  0  0  0
   27.5292  -19.5820   -6.2764 C   0  0  0  0  0  0  0  0  0  0  0  0
   27.2073  -20.5746   -5.3915 C   0  0  0  0  0  0  0  0  0  0  0  0
   27.8403  -20.7351   -4.1711 C   0  0  0  0  0  0  0  0  0  0  0  0
   28.8370  -19.8786   -3.8042 C   0  0  0  0  0  0  0  0  0  0  0  0
   29.1906  -18.8530   -4.6854 C   0  0  0  0  0  0  0  0  0  0  0  0
   28.5422  -18.7185   -5.8940 C   0  0  0  0  0  0  0  0  0  0  0  0
   26.1062  -20.2354   -9.7353 C   0  0  0  0  0  0  0  0  0  0  0  0
   26.3770  -19.2142  -10.4473 O   0  0  0  0  0  0  0  0  0  0  0  0
   25.0156  -21.0067  -10.2007 N   0  0  0  0  0  0  0  0  0  0  0  0
   24.2479  -20.6382  -11.3814 C   0  0  1  0  0  0  0  0  0  0  0  0
   24.4035  -21.6955  -12.4590 C   0  0  0  0  0  0  0  0  0  0  0  0
   23.7142  -21.3274  -13.6946 C   0  0  0  0  0  0  0  0  0  0  0  0
   24.1818  -20.4700  -14.6520 C   0  0  0  0  0  0  0  0  0  0  0  0
   23.2427  -20.4012  -15.6069 N   0  0  0  0  0  0  0  0  0  0  0  0
   22.1915  -21.1884  -15.2870 C   0  0  0  0  0  0  0  0  0  0  0  0
   20.9893  -21.4640  -15.9237 C   0  0  0  0  0  0  0  0  0  0  0  0
   20.0976  -22.3313  -15.3304 C   0  0  0  0  0  0  0  0  0  0  0  0
   20.3596  -22.9362  -14.1229 C   0  0  0  0  0  0  0  0  0  0  0  0
   21.5522  -22.6671  -13.4845 C   0  0  0  0  0  0  0  0  0  0  0  0
   22.4519  -21.7947  -14.0786 C   0  0  0  0  0  0  0  0  0  0  0  0
   22.8057  -20.4715  -11.1073 C   0  0  0  0  0  0  0  0  0  0  0  0
   22.1503  -21.1087  -10.2552 O   0  0  0  0  0  0  0  0  0  0  0  0
   22.1333  -19.5137  -11.8751 O   0  0  0  0  0  0  0  0  0  0  0  0
  2  3  1  1
  2  1  1  0
  4  2  1  0
  5  6  1  1
  5  4  1  0
  7  5  1  0
  8  7  2  0
  9  7  1  0
 10  9  1  0
 11 12  1  0
 10 11  1  1
 12 17  2  0
 13 14  2  0
 13 12  1  0
 14 15  1  0
 15 16  2  0
 17 16  1  0
 18 10  1  0
 18 20  1  0
 19 18  2  0
 21 20  1  0
 21 22  1  6
 22 23  1  0
 23 31  1  0
 24 23  2  0
 24 25  1  0
 25 26  1  0
 26 27  2  0
 27 28  1  0
 29 28  2  0
 30 29  1  0
 31 30  2  0
 31 26  1  0
 32 34  1  0
 32 21  1  0
 33 32  2  0
M  END
$$$$
