LFW.pdb
     RDKit          3D

 34 36  0  0  1  0  0  0  0  0999 V2000
   28.9253  -21.5012  -19.3133 C   0  0  0  0  0  0  0  0  0  0  0  0
   29.7508  -22.1046  -18.1758 C   0  0  2  0  0  0  0  0  0  0  0  0
   30.6089  -23.2064  -18.7607 C   0  0  0  0  0  0  0  0  0  0  0  0
   28.8706  -22.6018  -17.0720 C   0  0  0  0  0  0  0  0  0  0  0  0
   28.1383  -21.4570  -16.4500 C   0  0  2  0  0  0  0  0  0  0  0  0
   28.9277  -20.2504  -16.3534 N   0  0  0  0  0  0  0  0  0  0  0  0
   27.6201  -21.7813  -15.0936 C   0  0  0  0  0  0  0  0  0  0  0  0
   26.9641  -22.8235  -14.8806 O   0  0  0  0  0  0  0  0  0  0  0  0
   27.8607  -20.9149  -14.0193 N   0  0  0  0  0  0  0  0  0  0  0  0
   27.3827  -21.1773  -12.6381 C   0  0  1  0  0  0  0  0  0  0  0  0
   28.2900  -20.3806  -11.7729 C   0  0  0  0  0  0  0  0  0  0  0  0
   28.0343  -20.3458  -10.3462 C   0  0  0  0  0  0  0  0  0  0  0  0
   28.6023  -21.2163   -9.4565 C   0  0  0  0  0  0  0  0  0  0  0  0
   28.3507  -21.1794   -8.0959 C   0  0  0  0  0  0  0  0  0  0  0  0
   27.5002  -20.2419   -7.5868 C   0  0  0  0  0  0  0  0  0  0  0  0
   26.9027  -19.3371   -8.4686 C   0  0  0  0  0  0  0  0  0  0  0  0
   27.1727  -19.3984   -9.8186 C   0  0  0  0  0  0  0  0  0  0  0  0
   25.9952  -20.6867  -12.5881 C   0  0  0  0  0  0  0  0  0  0  0  0
   25.7215  -19.5495  -13.0930 O   0  0  0  0  0  0  0  0  0  0  0  0
   24.8883  -21.3642  -12.0254 N   0  0  0  0  0  0  0  0  0  0  0  0
   23.5501  -20.7914  -12.0088 C   0  0  1  0  0  0  0  0  0  0  0  0
   22.6339  -21.5726  -12.9328 C   0  0  0  0  0  0  0  0  0  0  0  0
   21.3496  -20.9025  -13.1298 C   0  0  0  0  0  0  0  0  0  0  0  0
   20.2260  -21.0771  -12.3700 C   0  0  0  0  0  0  0  0  0  0  0  0
   19.2746  -20.2898  -12.8931 N   0  0  0  0  0  0  0  0  0  0  0  0
   19.7579  -19.6193  -13.9626 C   0  0  0  0  0  0  0  0  0  0  0  0
   19.1923  -18.7009  -14.8363 C   0  0  0  0  0  0  0  0  0  0  0  0
   19.9606  -18.1815  -15.8558 C   0  0  0  0  0  0  0  0  0  0  0  0
   21.2752  -18.5438  -16.0378 C   0  0  0  0  0  0  0  0  0  0  0  0
   21.8438  -19.4559  -15.1734 C   0  0  0  0  0  0  0  0  0  0  0  0
   21.0736  -19.9807  -14.1464 C   0  0  0  0  0  0  0  0  0  0  0  0
   22.9409  -20.7782  -10.6629 C   0  0  0  0  0  0  0  0  0  0  0  0
   23.2271  -21.5575   -9.7288 O   0  0  0  0  0  0  0  0  0  0  0  0
   21.9639  -19.8029  -10.4319 O   0  0  0  0  0  0  0  0  0  0  0  0
  2  3  1  6
  2  1  1  0
  4  2  1  0
  5  6  1  1
  5  4  1  0
  7  5  1  0
  8  7  2  0
  9  7  1  0
 10  9  1  0
 11 12  1  0
 10 11  1  1
 12 17  2  0
 13 14  2  0
 13 12  1  0
 14 15  1  0
 15 16  2  0
 17 16  1  0
 18 10  1  0
 18 20  1  0
 19 18  2  0
 21 20  1  0
 21 22  1  6
 22 23  1  0
 23 31  1  0
 24 23  2  0
 24 25  1  0
 25 26  1  0
 26 27  2  0
 27 28  1  0
 29 28  2  0
 30 29  1  0
 31 30  2  0
 31 26  1  0
 32 34  1  0
 32 21  1  0
 33 32  2  0
M  END
$$$$
