LFW.pdb
     RDKit          3D

 34 36  0  0  1  0  0  0  0  0999 V2000
   25.7315  -16.5799  -16.9914 C   0  0  0  0  0  0  0  0  0  0  0  0
   26.2964  -17.9899  -17.1710 C   0  0  2  0  0  0  0  0  0  0  0  0
   25.8324  -18.5064  -18.5165 C   0  0  0  0  0  0  0  0  0  0  0  0
   25.8794  -18.8878  -16.0484 C   0  0  0  0  0  0  0  0  0  0  0  0
   26.4253  -18.3736  -14.7556 C   0  0  2  0  0  0  0  0  0  0  0  0
   27.5049  -17.4272  -14.9201 N   0  0  0  0  0  0  0  0  0  0  0  0
   26.8985  -19.4653  -13.8623 C   0  0  0  0  0  0  0  0  0  0  0  0
   26.4130  -20.6151  -13.9278 O   0  0  0  0  0  0  0  0  0  0  0  0
   27.9076  -19.2214  -12.9216 N   0  0  0  0  0  0  0  0  0  0  0  0
   28.3096  -20.2050  -11.8844 C   0  0  1  0  0  0  0  0  0  0  0  0
   29.7945  -20.2022  -11.9247 C   0  0  0  0  0  0  0  0  0  0  0  0
   30.5173  -20.9347  -10.9034 C   0  0  0  0  0  0  0  0  0  0  0  0
   30.6629  -22.2951  -10.9110 C   0  0  0  0  0  0  0  0  0  0  0  0
   31.3514  -22.9880   -9.9305 C   0  0  0  0  0  0  0  0  0  0  0  0
   31.9237  -22.3105   -8.8936 C   0  0  0  0  0  0  0  0  0  0  0  0
   31.7938  -20.9195   -8.8556 C   0  0  0  0  0  0  0  0  0  0  0  0
   31.1022  -20.2570   -9.8466 C   0  0  0  0  0  0  0  0  0  0  0  0
   27.7878  -19.6866  -10.6087 C   0  0  0  0  0  0  0  0  0  0  0  0
   28.5447  -18.9718   -9.8744 O   0  0  0  0  0  0  0  0  0  0  0  0
   26.4891  -19.8969  -10.0890 N   0  0  0  0  0  0  0  0  0  0  0  0
   26.1091  -21.1309   -9.4166 C   0  0  1  0  0  0  0  0  0  0  0  0
   25.8490  -20.8673   -7.9447 C   0  0  0  0  0  0  0  0  0  0  0  0
   26.8668  -20.0006   -7.3527 C   0  0  0  0  0  0  0  0  0  0  0  0
   27.2333  -18.7637   -7.8065 C   0  0  0  0  0  0  0  0  0  0  0  0
   28.2012  -18.3196   -6.9913 N   0  0  0  0  0  0  0  0  0  0  0  0
   28.4622  -19.2357   -6.0323 C   0  0  0  0  0  0  0  0  0  0  0  0
   29.3548  -19.2629   -4.9697 C   0  0  0  0  0  0  0  0  0  0  0  0
   29.3860  -20.3675   -4.1460 C   0  0  0  0  0  0  0  0  0  0  0  0
   28.5587  -21.4490   -4.3420 C   0  0  0  0  0  0  0  0  0  0  0  0
   27.6692  -21.4289   -5.3958 C   0  0  0  0  0  0  0  0  0  0  0  0
   27.6351  -20.3191   -6.2268 C   0  0  0  0  0  0  0  0  0  0  0  0
   24.9001  -21.7563   -9.9909 C   0  0  0  0  0  0  0  0  0  0  0  0
   24.2010  -21.2768  -10.9090 O   0  0  0  0  0  0  0  0  0  0  0  0
   24.5216  -22.9906   -9.4502 O   0  0  0  0  0  0  0  0  0  0  0  0
  2  3  1  6
  2  1  1  0
  4  2  1  0
  5  6  1  6
  5  4  1  0
  7  5  1  0
  8  7  2  0
  9  7  1  0
 10  9  1  0
 11 12  1  0
 10 11  1  1
 12 17  2  0
 13 14  2  0
 13 12  1  0
 14 15  1  0
 15 16  2  0
 17 16  1  0
 18 10  1  0
 18 20  1  0
 19 18  2  0
 21 20  1  0
 21 22  1  1
 22 23  1  0
 23 31  1  0
 24 23  2  0
 24 25  1  0
 25 26  1  0
 26 27  2  0
 27 28  1  0
 29 28  2  0
 30 29  1  0
 31 30  2  0
 31 26  1  0
 32 34  1  0
 32 21  1  0
 33 32  2  0
M  END
$$$$
