LFW.pdb
     RDKit          3D

 34 36  0  0  1  0  0  0  0  0999 V2000
   28.4685  -19.7401  -18.3205 C   0  0  0  0  0  0  0  0  0  0  0  0
   27.3343  -20.7393  -18.5547 C   0  0  2  0  0  0  0  0  0  0  0  0
   26.3873  -20.1349  -19.5697 C   0  0  0  0  0  0  0  0  0  0  0  0
   26.6420  -21.0834  -17.2731 C   0  0  0  0  0  0  0  0  0  0  0  0
   27.6170  -21.6850  -16.3134 C   0  0  2  0  0  0  0  0  0  0  0  0
   28.2309  -22.8998  -16.7990 N   0  0  0  0  0  0  0  0  0  0  0  0
   27.0077  -21.9722  -14.9868 C   0  0  0  0  0  0  0  0  0  0  0  0
   26.3304  -23.0044  -14.7924 O   0  0  0  0  0  0  0  0  0  0  0  0
   27.1842  -21.0812  -13.9202 N   0  0  0  0  0  0  0  0  0  0  0  0
   26.5838  -21.2880  -12.5779 C   0  0  1  0  0  0  0  0  0  0  0  0
   27.3958  -20.4357  -11.6719 C   0  0  0  0  0  0  0  0  0  0  0  0
   26.9916  -20.3169  -10.2846 C   0  0  0  0  0  0  0  0  0  0  0  0
   26.0212  -19.4545   -9.8527 C   0  0  0  0  0  0  0  0  0  0  0  0
   25.6430  -19.3439   -8.5258 C   0  0  0  0  0  0  0  0  0  0  0  0
   26.2481  -20.1183   -7.5794 C   0  0  0  0  0  0  0  0  0  0  0  0
   27.2439  -21.0102   -7.9870 C   0  0  0  0  0  0  0  0  0  0  0  0
   27.5991  -21.0981   -9.3157 C   0  0  0  0  0  0  0  0  0  0  0  0
   25.1910  -20.8209  -12.6794 C   0  0  0  0  0  0  0  0  0  0  0  0
   24.9544  -19.6890  -13.2143 O   0  0  0  0  0  0  0  0  0  0  0  0
   24.0413  -21.5162  -12.2372 N   0  0  0  0  0  0  0  0  0  0  0  0
   22.6940  -21.0035  -12.4405 C   0  0  1  0  0  0  0  0  0  0  0  0
   22.0819  -21.6173  -13.6863 C   0  0  0  0  0  0  0  0  0  0  0  0
   20.7607  -21.0644  -13.9798 C   0  0  0  0  0  0  0  0  0  0  0  0
   20.4846  -19.7617  -14.2911 C   0  0  0  0  0  0  0  0  0  0  0  0
   19.1588  -19.6763  -14.4737 N   0  0  0  0  0  0  0  0  0  0  0  0
   18.5821  -20.8847  -14.2883 C   0  0  0  0  0  0  0  0  0  0  0  0
   17.2674  -21.3246  -14.3573 C   0  0  0  0  0  0  0  0  0  0  0  0
   16.9886  -22.6513  -14.1091 C   0  0  0  0  0  0  0  0  0  0  0  0
   17.9734  -23.5588  -13.7940 C   0  0  0  0  0  0  0  0  0  0  0  0
   19.2820  -23.1287  -13.7238 C   0  0  0  0  0  0  0  0  0  0  0  0
   19.5663  -21.7943  -13.9728 C   0  0  0  0  0  0  0  0  0  0  0  0
   21.7911  -21.2771  -11.3035 C   0  0  0  0  0  0  0  0  0  0  0  0
   21.8090  -22.3052  -10.5933 O   0  0  0  0  0  0  0  0  0  0  0  0
   20.8432  -20.2899  -11.0105 O   0  0  0  0  0  0  0  0  0  0  0  0
  2  3  1  6
  2  1  1  0
  4  2  1  0
  5  6  1  6
  5  4  1  0
  7  5  1  0
  8  7  2  0
  9  7  1  0
 10  9  1  0
 11 12  1  0
 10 11  1  1
 12 17  2  0
 13 14  2  0
 13 12  1  0
 14 15  1  0
 15 16  2  0
 17 16  1  0
 18 10  1  0
 18 20  1  0
 19 18  2  0
 21 20  1  0
 21 22  1  6
 22 23  1  0
 23 31  1  0
 24 23  2  0
 24 25  1  0
 25 26  1  0
 26 27  2  0
 27 28  1  0
 29 28  2  0
 30 29  1  0
 31 30  2  0
 31 26  1  0
 32 34  1  0
 32 21  1  0
 33 32  2  0
M  END
$$$$
