LFW.pdb
     RDKit          3D

 34 36  0  0  1  0  0  0  0  0999 V2000
   27.6842  -21.0430   -4.7961 C   0  0  0  0  0  0  0  0  0  0  0  0
   28.5264  -20.1296   -5.6882 C   0  0  2  0  0  0  0  0  0  0  0  0
   29.1667  -19.0809   -4.8035 C   0  0  0  0  0  0  0  0  0  0  0  0
   27.6977  -19.5200   -6.7754 C   0  0  0  0  0  0  0  0  0  0  0  0
   27.1943  -20.5882   -7.6915 C   0  0  2  0  0  0  0  0  0  0  0  0
   28.1911  -21.5795   -8.0259 N   0  0  0  0  0  0  0  0  0  0  0  0
   26.6439  -20.0385   -8.9598 C   0  0  0  0  0  0  0  0  0  0  0  0
   25.8758  -19.0527   -8.9617 O   0  0  0  0  0  0  0  0  0  0  0  0
   26.9805  -20.6225  -10.1880 N   0  0  0  0  0  0  0  0  0  0  0  0
   26.6635  -20.0020  -11.4992 C   0  0  1  0  0  0  0  0  0  0  0  0
   27.8257  -20.3390  -12.3608 C   0  0  0  0  0  0  0  0  0  0  0  0
   27.7868  -19.9560  -13.7586 C   0  0  0  0  0  0  0  0  0  0  0  0
   27.6390  -20.8515  -14.7824 C   0  0  0  0  0  0  0  0  0  0  0  0
   27.6063  -20.4789  -16.1150 C   0  0  0  0  0  0  0  0  0  0  0  0
   27.7246  -19.1631  -16.4563 C   0  0  0  0  0  0  0  0  0  0  0  0
   27.8770  -18.2220  -15.4344 C   0  0  0  0  0  0  0  0  0  0  0  0
   27.9059  -18.6233  -14.1164 C   0  0  0  0  0  0  0  0  0  0  0  0
   25.4229  -20.6450  -11.9639 C   0  0  0  0  0  0  0  0  0  0  0  0
   25.2654  -21.8953  -11.7768 O   0  0  0  0  0  0  0  0  0  0  0  0
   24.3426  -20.0052  -12.6154 N   0  0  0  0  0  0  0  0  0  0  0  0
   23.2036  -20.7424  -13.1430 C   0  0  1  0  0  0  0  0  0  0  0  0
   21.9064  -20.0961  -12.6924 C   0  0  0  0  0  0  0  0  0  0  0  0
   20.7349  -20.8670  -13.1059 C   0  0  0  0  0  0  0  0  0  0  0  0
   20.1738  -21.9084  -12.4197 C   0  0  0  0  0  0  0  0  0  0  0  0
   19.1328  -22.3396  -13.1470 N   0  0  0  0  0  0  0  0  0  0  0  0
   19.0139  -21.6046  -14.2752 C   0  0  0  0  0  0  0  0  0  0  0  0
   18.1227  -21.6439  -15.3387 C   0  0  0  0  0  0  0  0  0  0  0  0
   18.2645  -20.7390  -16.3684 C   0  0  0  0  0  0  0  0  0  0  0  0
   19.2639  -19.7936  -16.3783 C   0  0  0  0  0  0  0  0  0  0  0  0
   20.1530  -19.7487  -15.3249 C   0  0  0  0  0  0  0  0  0  0  0  0
   20.0134  -20.6579  -14.2869 C   0  0  0  0  0  0  0  0  0  0  0  0
   23.1917  -20.8142  -14.6186 C   0  0  0  0  0  0  0  0  0  0  0  0
   23.5257  -19.8920  -15.3930 O   0  0  0  0  0  0  0  0  0  0  0  0
   22.7694  -22.0252  -15.1790 O   0  0  0  0  0  0  0  0  0  0  0  0
  2  3  1  1
  2  1  1  0
  4  2  1  0
  5  6  1  6
  5  4  1  0
  7  5  1  0
  8  7  2  0
  9  7  1  0
 10  9  1  0
 11 12  1  0
 10 11  1  6
 12 17  2  0
 13 14  2  0
 13 12  1  0
 14 15  1  0
 15 16  2  0
 17 16  1  0
 18 10  1  0
 18 20  1  0
 19 18  2  0
 21 20  1  0
 21 22  1  6
 22 23  1  0
 23 31  1  0
 24 23  2  0
 24 25  1  0
 25 26  1  0
 26 27  2  0
 27 28  1  0
 29 28  2  0
 30 29  1  0
 31 30  2  0
 31 26  1  0
 32 34  1  0
 32 21  1  0
 33 32  2  0
M  END
$$$$
