LFW.pdb
     RDKit          3D

 34 36  0  0  1  0  0  0  0  0999 V2000
   28.2693  -18.8055  -18.2438 C   0  0  0  0  0  0  0  0  0  0  0  0
   27.9594  -17.6560  -17.2836 C   0  0  2  0  0  0  0  0  0  0  0  0
   28.1373  -16.3581  -18.0428 C   0  0  0  0  0  0  0  0  0  0  0  0
   28.8260  -17.7192  -16.0649 C   0  0  0  0  0  0  0  0  0  0  0  0
   28.5661  -18.9891  -15.3208 C   0  0  2  0  0  0  0  0  0  0  0  0
   28.2634  -20.1107  -16.1803 N   0  0  0  0  0  0  0  0  0  0  0  0
   27.4641  -18.8539  -14.3303 C   0  0  0  0  0  0  0  0  0  0  0  0
   27.2674  -17.7816  -13.7193 O   0  0  0  0  0  0  0  0  0  0  0  0
   26.6181  -19.9379  -14.0620 N   0  0  0  0  0  0  0  0  0  0  0  0
   25.4880  -19.8709  -13.1012 C   0  0  1  0  0  0  0  0  0  0  0  0
   24.4200  -20.6935  -13.7253 C   0  0  0  0  0  0  0  0  0  0  0  0
   23.1739  -20.8734  -13.0064 C   0  0  0  0  0  0  0  0  0  0  0  0
   22.7925  -22.0605  -12.4431 C   0  0  0  0  0  0  0  0  0  0  0  0
   21.5994  -22.2259  -11.7611 C   0  0  0  0  0  0  0  0  0  0  0  0
   20.7414  -21.1736  -11.6270 C   0  0  0  0  0  0  0  0  0  0  0  0
   21.1007  -19.9463  -12.1907 C   0  0  0  0  0  0  0  0  0  0  0  0
   22.2955  -19.8121  -12.8641 C   0  0  0  0  0  0  0  0  0  0  0  0
   25.9843  -20.4636  -11.8479 C   0  0  0  0  0  0  0  0  0  0  0  0
   26.7456  -21.4836  -11.9037 O   0  0  0  0  0  0  0  0  0  0  0  0
   25.7042  -20.0075  -10.5385 N   0  0  0  0  0  0  0  0  0  0  0  0
   26.1677  -20.7120   -9.3519 C   0  0  1  0  0  0  0  0  0  0  0  0
   26.9957  -19.7845   -8.4815 C   0  0  0  0  0  0  0  0  0  0  0  0
   27.4694  -20.4466   -7.2671 C   0  0  0  0  0  0  0  0  0  0  0  0
   27.4382  -21.7912   -7.0194 C   0  0  0  0  0  0  0  0  0  0  0  0
   27.9531  -21.9748   -5.7948 N   0  0  0  0  0  0  0  0  0  0  0  0
   28.3112  -20.7883   -5.2551 C   0  0  0  0  0  0  0  0  0  0  0  0
   28.8778  -20.4368   -4.0377 C   0  0  0  0  0  0  0  0  0  0  0  0
   29.1303  -19.1082   -3.7724 C   0  0  0  0  0  0  0  0  0  0  0  0
   28.8389  -18.1138   -4.6772 C   0  0  0  0  0  0  0  0  0  0  0  0
   28.2758  -18.4558   -5.8890 C   0  0  0  0  0  0  0  0  0  0  0  0
   28.0201  -19.7918   -6.1594 C   0  0  0  0  0  0  0  0  0  0  0  0
   25.0652  -21.2504   -8.5288 C   0  0  0  0  0  0  0  0  0  0  0  0
   23.9073  -20.7838   -8.4713 O   0  0  0  0  0  0  0  0  0  0  0  0
   25.3601  -22.3794   -7.7559 O   0  0  0  0  0  0  0  0  0  0  0  0
  2  3  1  6
  2  1  1  0
  4  2  1  0
  5  6  1  6
  5  4  1  0
  7  5  1  0
  8  7  2  0
  9  7  1  0
 10  9  1  0
 11 12  1  0
 10 11  1  6
 12 17  2  0
 13 14  2  0
 13 12  1  0
 14 15  1  0
 15 16  2  0
 17 16  1  0
 18 10  1  0
 18 20  1  0
 19 18  2  0
 21 20  1  0
 21 22  1  1
 22 23  1  0
 23 31  1  0
 24 23  2  0
 24 25  1  0
 25 26  1  0
 26 27  2  0
 27 28  1  0
 29 28  2  0
 30 29  1  0
 31 30  2  0
 31 26  1  0
 32 34  1  0
 32 21  1  0
 33 32  2  0
M  END
$$$$
