LFW.pdb
     RDKit          3D

 34 36  0  0  1  0  0  0  0  0999 V2000
   28.5808  -26.9128  -17.8338 C   0  0  0  0  0  0  0  0  0  0  0  0
   28.6121  -25.5780  -18.5799 C   0  0  2  0  0  0  0  0  0  0  0  0
   29.6322  -25.6937  -19.6928 C   0  0  0  0  0  0  0  0  0  0  0  0
   28.9177  -24.4449  -17.6509 C   0  0  0  0  0  0  0  0  0  0  0  0
   27.9057  -24.4005  -16.5521 C   0  0  2  0  0  0  0  0  0  0  0  0
   26.5492  -24.6024  -17.0076 N   0  0  0  0  0  0  0  0  0  0  0  0
   27.9521  -23.1260  -15.7857 C   0  0  0  0  0  0  0  0  0  0  0  0
   29.0372  -22.6332  -15.4092 O   0  0  0  0  0  0  0  0  0  0  0  0
   26.7676  -22.4483  -15.4689 N   0  0  0  0  0  0  0  0  0  0  0  0
   26.7398  -21.1458  -14.7564 C   0  0  1  0  0  0  0  0  0  0  0  0
   26.0991  -20.2104  -15.7161 C   0  0  0  0  0  0  0  0  0  0  0  0
   25.8480  -18.8467  -15.2926 C   0  0  0  0  0  0  0  0  0  0  0  0
   24.5971  -18.3533  -15.0404 C   0  0  0  0  0  0  0  0  0  0  0  0
   24.3646  -17.0490  -14.6398 C   0  0  0  0  0  0  0  0  0  0  0  0
   25.4123  -16.1898  -14.4797 C   0  0  0  0  0  0  0  0  0  0  0  0
   26.7038  -16.6619  -14.7292 C   0  0  0  0  0  0  0  0  0  0  0  0
   26.9040  -17.9661  -15.1269 C   0  0  0  0  0  0  0  0  0  0  0  0
   25.9165  -21.3578  -13.5540 C   0  0  0  0  0  0  0  0  0  0  0  0
   24.9739  -22.2140  -13.5916 O   0  0  0  0  0  0  0  0  0  0  0  0
   26.0631  -20.6958  -12.3126 N   0  0  0  0  0  0  0  0  0  0  0  0
   25.2048  -20.9800  -11.1716 C   0  0  1  0  0  0  0  0  0  0  0  0
   25.6672  -20.1932   -9.9589 C   0  0  0  0  0  0  0  0  0  0  0  0
   26.9739  -20.6398   -9.4788 C   0  0  0  0  0  0  0  0  0  0  0  0
   27.7965  -21.5371  -10.1021 C   0  0  0  0  0  0  0  0  0  0  0  0
   28.8825  -21.6750   -9.3274 N   0  0  0  0  0  0  0  0  0  0  0  0
   28.7767  -20.8930   -8.2299 C   0  0  0  0  0  0  0  0  0  0  0  0
   29.6096  -20.6754   -7.1411 C   0  0  0  0  0  0  0  0  0  0  0  0
   29.2135  -19.7958   -6.1568 C   0  0  0  0  0  0  0  0  0  0  0  0
   28.0152  -19.1228   -6.2170 C   0  0  0  0  0  0  0  0  0  0  0  0
   27.1825  -19.3341   -7.2960 C   0  0  0  0  0  0  0  0  0  0  0  0
   27.5778  -20.2186   -8.2883 C   0  0  0  0  0  0  0  0  0  0  0  0
   23.7854  -20.6518  -11.4171 C   0  0  0  0  0  0  0  0  0  0  0  0
   22.8183  -21.0587  -10.7382 O   0  0  0  0  0  0  0  0  0  0  0  0
   23.5202  -19.8120  -12.5049 O   0  0  0  0  0  0  0  0  0  0  0  0
  2  3  1  6
  2  1  1  0
  4  2  1  0
  5  6  1  6
  5  4  1  0
  7  5  1  0
  8  7  2  0
  9  7  1  0
 10  9  1  0
 11 12  1  0
 10 11  1  6
 12 17  2  0
 13 14  2  0
 13 12  1  0
 14 15  1  0
 15 16  2  0
 17 16  1  0
 18 10  1  0
 18 20  1  0
 19 18  2  0
 21 20  1  0
 21 22  1  1
 22 23  1  0
 23 31  1  0
 24 23  2  0
 24 25  1  0
 25 26  1  0
 26 27  2  0
 27 28  1  0
 29 28  2  0
 30 29  1  0
 31 30  2  0
 31 26  1  0
 32 34  1  0
 32 21  1  0
 33 32  2  0
M  END
$$$$
