LFW.pdb
     RDKit          3D

 34 36  0  0  1  0  0  0  0  0999 V2000
   27.5403  -26.4589  -20.2522 C   0  0  0  0  0  0  0  0  0  0  0  0
   28.8025  -25.6272  -20.0187 C   0  0  2  0  0  0  0  0  0  0  0  0
   29.9986  -26.5211  -20.2690 C   0  0  0  0  0  0  0  0  0  0  0  0
   28.8168  -25.0388  -18.6425 C   0  0  0  0  0  0  0  0  0  0  0  0
   27.6015  -24.1934  -18.4377 C   0  0  2  0  0  0  0  0  0  0  0  0
   27.4255  -23.1793  -19.4521 N   0  0  0  0  0  0  0  0  0  0  0  0
   27.5892  -23.5256  -17.1082 C   0  0  0  0  0  0  0  0  0  0  0  0
   27.8418  -24.1587  -16.0606 O   0  0  0  0  0  0  0  0  0  0  0  0
   27.2911  -22.1606  -17.0056 N   0  0  0  0  0  0  0  0  0  0  0  0
   27.2456  -21.4315  -15.7128 C   0  0  1  0  0  0  0  0  0  0  0  0
   27.7326  -20.0664  -16.0383 C   0  0  0  0  0  0  0  0  0  0  0  0
   27.5626  -19.0163  -15.0533 C   0  0  0  0  0  0  0  0  0  0  0  0
   26.6131  -18.0361  -15.1517 C   0  0  0  0  0  0  0  0  0  0  0  0
   26.4588  -17.0345  -14.2090 C   0  0  0  0  0  0  0  0  0  0  0  0
   27.2773  -16.9954  -13.1181 C   0  0  0  0  0  0  0  0  0  0  0  0
   28.2583  -17.9822  -12.9869 C   0  0  0  0  0  0  0  0  0  0  0  0
   28.3878  -18.9671  -13.9421 C   0  0  0  0  0  0  0  0  0  0  0  0
   25.8335  -21.4323  -15.2953 C   0  0  0  0  0  0  0  0  0  0  0  0
   24.9252  -21.3180  -16.1814 O   0  0  0  0  0  0  0  0  0  0  0  0
   25.3531  -21.5553  -13.9705 N   0  0  0  0  0  0  0  0  0  0  0  0
   23.9319  -21.5781  -13.6557 C   0  0  1  0  0  0  0  0  0  0  0  0
   23.7131  -22.1298  -12.2589 C   0  0  0  0  0  0  0  0  0  0  0  0
   24.2368  -21.2370  -11.2264 C   0  0  0  0  0  0  0  0  0  0  0  0
   23.5169  -20.3120  -10.5218 C   0  0  0  0  0  0  0  0  0  0  0  0
   24.3736  -19.7016   -9.6899 N   0  0  0  0  0  0  0  0  0  0  0  0
   25.6168  -20.2096   -9.8431 C   0  0  0  0  0  0  0  0  0  0  0  0
   26.8331  -19.9298   -9.2356 C   0  0  0  0  0  0  0  0  0  0  0  0
   27.9534  -20.6361   -9.6171 C   0  0  0  0  0  0  0  0  0  0  0  0
   27.9070  -21.6136  -10.5840 C   0  0  0  0  0  0  0  0  0  0  0  0
   26.7019  -21.8969  -11.1919 C   0  0  0  0  0  0  0  0  0  0  0  0
   25.5724  -21.1881  -10.8106 C   0  0  0  0  0  0  0  0  0  0  0  0
   23.3004  -20.2444  -13.7261 C   0  0  0  0  0  0  0  0  0  0  0  0
   22.0705  -20.0229  -13.7326 O   0  0  0  0  0  0  0  0  0  0  0  0
   24.1679  -19.1478  -13.7884 O   0  0  0  0  0  0  0  0  0  0  0  0
  2  3  1  1
  2  1  1  0
  4  2  1  0
  5  6  1  6
  5  4  1  0
  7  5  1  0
  8  7  2  0
  9  7  1  0
 10  9  1  0
 11 12  1  0
 10 11  1  6
 12 17  2  0
 13 14  2  0
 13 12  1  0
 14 15  1  0
 15 16  2  0
 17 16  1  0
 18 10  1  0
 18 20  1  0
 19 18  2  0
 21 20  1  0
 21 22  1  1
 22 23  1  0
 23 31  1  0
 24 23  2  0
 24 25  1  0
 25 26  1  0
 26 27  2  0
 27 28  1  0
 29 28  2  0
 30 29  1  0
 31 30  2  0
 31 26  1  0
 32 34  1  0
 32 21  1  0
 33 32  2  0
M  END
$$$$
