LFW.pdb
     RDKit          3D

 34 36  0  0  1  0  0  0  0  0999 V2000
   29.8926  -18.5322  -16.9914 C   0  0  0  0  0  0  0  0  0  0  0  0
   28.6319  -17.6725  -17.0963 C   0  0  2  0  0  0  0  0  0  0  0  0
   29.0268  -16.3447  -17.7073 C   0  0  0  0  0  0  0  0  0  0  0  0
   27.9771  -17.5057  -15.7607 C   0  0  0  0  0  0  0  0  0  0  0  0
   27.8379  -18.8353  -15.0925 C   0  0  2  0  0  0  0  0  0  0  0  0
   27.5154  -19.9091  -16.0041 N   0  0  0  0  0  0  0  0  0  0  0  0
   26.8177  -18.8248  -14.0096 C   0  0  0  0  0  0  0  0  0  0  0  0
   26.4709  -17.7606  -13.4536 O   0  0  0  0  0  0  0  0  0  0  0  0
   26.2210  -20.0206  -13.5892 N   0  0  0  0  0  0  0  0  0  0  0  0
   25.0800  -20.0722  -12.6403 C   0  0  1  0  0  0  0  0  0  0  0  0
   24.0469  -20.8747  -13.3442 C   0  0  0  0  0  0  0  0  0  0  0  0
   23.2154  -20.2191  -14.3346 C   0  0  0  0  0  0  0  0  0  0  0  0
   23.3910  -20.3656  -15.6835 C   0  0  0  0  0  0  0  0  0  0  0  0
   22.5954  -19.7338  -16.6234 C   0  0  0  0  0  0  0  0  0  0  0  0
   21.5789  -18.9195  -16.2168 C   0  0  0  0  0  0  0  0  0  0  0  0
   21.3720  -18.7480  -14.8453 C   0  0  0  0  0  0  0  0  0  0  0  0
   22.1808  -19.3906  -13.9331 C   0  0  0  0  0  0  0  0  0  0  0  0
   25.5842  -20.7510  -11.4348 C   0  0  0  0  0  0  0  0  0  0  0  0
   25.9499  -21.9686  -11.5165 O   0  0  0  0  0  0  0  0  0  0  0  0
   25.7181  -20.1799  -10.1476 N   0  0  0  0  0  0  0  0  0  0  0  0
   25.5872  -20.9654   -8.9289 C   0  0  1  0  0  0  0  0  0  0  0  0
   26.1121  -20.1808   -7.7405 C   0  0  0  0  0  0  0  0  0  0  0  0
   27.5396  -20.4065   -7.5194 C   0  0  0  0  0  0  0  0  0  0  0  0
   28.4111  -20.9758   -8.4064 C   0  0  0  0  0  0  0  0  0  0  0  0
   29.6116  -21.0061   -7.8095 N   0  0  0  0  0  0  0  0  0  0  0  0
   29.5314  -20.4734   -6.5697 C   0  0  0  0  0  0  0  0  0  0  0  0
   30.4679  -20.2741   -5.5648 C   0  0  0  0  0  0  0  0  0  0  0  0
   30.0698  -19.6917   -4.3808 C   0  0  0  0  0  0  0  0  0  0  0  0
   28.7699  -19.2993   -4.1600 C   0  0  0  0  0  0  0  0  0  0  0  0
   27.8339  -19.4944   -5.1541 C   0  0  0  0  0  0  0  0  0  0  0  0
   28.2309  -20.0802   -6.3469 C   0  0  0  0  0  0  0  0  0  0  0  0
   24.1929  -21.3588   -8.6389 C   0  0  0  0  0  0  0  0  0  0  0  0
   23.1839  -20.9722   -9.2667 O   0  0  0  0  0  0  0  0  0  0  0  0
   24.0054  -22.2406   -7.5683 O   0  0  0  0  0  0  0  0  0  0  0  0
  2  3  1  1
  2  1  1  0
  4  2  1  0
  5  6  1  6
  5  4  1  0
  7  5  1  0
  8  7  2  0
  9  7  1  0
 10  9  1  0
 11 12  1  0
 10 11  1  6
 12 17  2  0
 13 14  2  0
 13 12  1  0
 14 15  1  0
 15 16  2  0
 17 16  1  0
 18 10  1  0
 18 20  1  0
 19 18  2  0
 21 20  1  0
 21 22  1  1
 22 23  1  0
 23 31  1  0
 24 23  2  0
 24 25  1  0
 25 26  1  0
 26 27  2  0
 27 28  1  0
 29 28  2  0
 30 29  1  0
 31 30  2  0
 31 26  1  0
 32 34  1  0
 32 21  1  0
 33 32  2  0
M  END
$$$$
