LFW.pdb
     RDKit          3D

 34 36  0  0  1  0  0  0  0  0999 V2000
   24.9627  -20.7858  -19.6494 C   0  0  0  0  0  0  0  0  0  0  0  0
   26.1737  -21.2384  -18.8322 C   0  0  2  0  0  0  0  0  0  0  0  0
   27.1909  -21.8162  -19.7935 C   0  0  0  0  0  0  0  0  0  0  0  0
   25.7773  -22.2201  -17.7741 C   0  0  0  0  0  0  0  0  0  0  0  0
   25.3786  -21.4942  -16.5300 C   0  0  2  0  0  0  0  0  0  0  0  0
   25.3973  -20.0559  -16.6692 N   0  0  0  0  0  0  0  0  0  0  0  0
   26.2255  -21.8575  -15.3619 C   0  0  0  0  0  0  0  0  0  0  0  0
   26.5112  -23.0482  -15.1116 O   0  0  0  0  0  0  0  0  0  0  0  0
   26.7232  -20.8608  -14.5125 N   0  0  0  0  0  0  0  0  0  0  0  0
   27.4677  -21.1535  -13.2616 C   0  0  1  0  0  0  0  0  0  0  0  0
   28.7716  -20.4632  -13.4346 C   0  0  0  0  0  0  0  0  0  0  0  0
   29.7345  -20.5183  -12.3520 C   0  0  0  0  0  0  0  0  0  0  0  0
   29.9860  -19.4682  -11.5118 C   0  0  0  0  0  0  0  0  0  0  0  0
   30.9094  -19.5268  -10.4825 C   0  0  0  0  0  0  0  0  0  0  0  0
   31.6187  -20.6728  -10.2697 C   0  0  0  0  0  0  0  0  0  0  0  0
   31.3860  -21.7648  -11.1103 C   0  0  0  0  0  0  0  0  0  0  0  0
   30.4599  -21.6764  -12.1270 C   0  0  0  0  0  0  0  0  0  0  0  0
   26.6715  -20.5702  -12.1687 C   0  0  0  0  0  0  0  0  0  0  0  0
   25.6007  -19.9399  -12.4504 O   0  0  0  0  0  0  0  0  0  0  0  0
   26.9704  -20.6378  -10.7878 N   0  0  0  0  0  0  0  0  0  0  0  0
   26.0327  -21.1753   -9.8127 C   0  0  1  0  0  0  0  0  0  0  0  0
   26.7834  -21.8655   -8.6886 C   0  0  0  0  0  0  0  0  0  0  0  0
   26.6885  -21.1283   -7.4297 C   0  0  0  0  0  0  0  0  0  0  0  0
   25.5331  -20.7325   -6.8141 C   0  0  0  0  0  0  0  0  0  0  0  0
   25.8892  -20.0786   -5.6987 N   0  0  0  0  0  0  0  0  0  0  0  0
   27.2357  -20.0459   -5.5850 C   0  0  0  0  0  0  0  0  0  0  0  0
   28.0907  -19.5031   -4.6358 C   0  0  0  0  0  0  0  0  0  0  0  0
   29.4522  -19.6369   -4.8027 C   0  0  0  0  0  0  0  0  0  0  0  0
   29.9953  -20.2931   -5.8829 C   0  0  0  0  0  0  0  0  0  0  0  0
   29.1517  -20.8350   -6.8300 C   0  0  0  0  0  0  0  0  0  0  0  0
   27.7810  -20.7022   -6.6655 C   0  0  0  0  0  0  0  0  0  0  0  0
   25.1607  -20.1429   -9.2156 C   0  0  0  0  0  0  0  0  0  0  0  0
   24.1589  -20.3631   -8.5018 O   0  0  0  0  0  0  0  0  0  0  0  0
   25.5014  -18.8116   -9.4809 O   0  0  0  0  0  0  0  0  0  0  0  0
  2  3  1  6
  2  1  1  0
  4  2  1  0
  5  6  1  6
  5  4  1  0
  7  5  1  0
  8  7  2  0
  9  7  1  0
 10  9  1  0
 11 12  1  0
 10 11  1  6
 12 17  2  0
 13 14  2  0
 13 12  1  0
 14 15  1  0
 15 16  2  0
 17 16  1  0
 18 10  1  0
 18 20  1  0
 19 18  2  0
 21 20  1  0
 21 22  1  1
 22 23  1  0
 23 31  1  0
 24 23  2  0
 24 25  1  0
 25 26  1  0
 26 27  2  0
 27 28  1  0
 29 28  2  0
 30 29  1  0
 31 30  2  0
 31 26  1  0
 32 34  1  0
 32 21  1  0
 33 32  2  0
M  END
$$$$
