CPS.pdb
     RDKit          3D

 20 20  0  0  1  0  0  0  0  0999 V2000
    8.4094  -14.2662   21.1688 N   0  0  0  0  0  0  0  0  0  0  0  0
    7.5459  -13.9316   22.2717 C   0  0  1  0  0  0  0  0  0  0  0  0
    6.3243  -14.8339   22.2336 C   0  0  0  0  0  0  0  0  0  0  0  0
    6.7538  -16.5227   22.7333 S   0  0  0  0  0  0  0  0  0  0  0  0
    8.2183  -14.0649   23.5870 C   0  0  0  0  0  0  0  0  0  0  0  0
    9.3091  -14.7017   23.5784 O   0  0  0  0  0  0  0  0  0  0  0  0
    7.7170  -13.5346   24.8012 N   0  0  0  0  0  0  0  0  0  0  0  0
    6.4411  -12.8613   24.9256 C   0  0  0  0  0  0  0  0  0  0  0  0
    6.3050  -12.4347   26.3687 C   0  0  0  0  0  0  0  0  0  0  0  0
    7.6512  -12.6429   26.9916 C   0  0  0  0  0  0  0  0  0  0  0  0
    8.3891  -13.5862   26.0631 C   0  0  1  0  0  0  0  0  0  0  0  0
    8.3759  -14.9228   26.6830 C   0  0  0  0  0  0  0  0  0  0  0  0
    7.3250  -15.5910   26.6439 O   0  0  0  0  0  0  0  0  0  0  0  0
   11.7275  -16.9139   26.7354 O   0  0  0  0  0  0  0  0  0  0  0  0
   10.5651  -17.6350   27.0131 C   0  0  0  0  0  0  0  0  0  0  0  0
    9.6508  -16.7654   27.8346 C   0  0  2  0  0  0  0  0  0  0  0  0
    9.5394  -15.4218   27.3049 N   0  0  0  0  0  0  0  0  0  0  0  0
   10.2268  -16.6846   29.2052 C   0  0  0  0  0  0  0  0  0  0  0  0
   10.4898  -17.8028   29.9741 O   0  0  0  0  0  0  0  0  0  0  0  0
   10.5040  -15.5637   29.7304 O   0  0  0  0  0  0  0  0  0  0  0  0
  2  1  1  6
  2  3  1  0
  4  3  1  0
  5  2  1  0
  5  6  2  0
  7  5  1  0
  8  7  1  0
  9  8  1  0
 10  9  1  0
 10 11  1  0
 11  7  1  0
 11 12  1  1
 12 17  1  0
 12 13  2  0
 15 14  1  0
 16 15  1  6
 17 16  1  0
 18 16  1  0
 18 19  1  0
 20 18  2  0
M  END
$$$$
