CPS.pdb
     RDKit          3D

 20 20  0  0  1  0  0  0  0  0999 V2000
    5.6966  -18.2912   19.6337 N   0  0  0  0  0  0  0  0  0  0  0  0
    5.9987  -17.1824   20.5018 C   0  0  1  0  0  0  0  0  0  0  0  0
    5.8090  -17.6189   21.9444 C   0  0  0  0  0  0  0  0  0  0  0  0
    6.2173  -16.2707   23.0854 S   0  0  0  0  0  0  0  0  0  0  0  0
    7.3781  -16.6695   20.3175 C   0  0  0  0  0  0  0  0  0  0  0  0
    8.2794  -17.5504   20.2323 O   0  0  0  0  0  0  0  0  0  0  0  0
    7.7190  -15.2970   20.2361 N   0  0  0  0  0  0  0  0  0  0  0  0
    6.7530  -14.2188   20.2710 C   0  0  0  0  0  0  0  0  0  0  0  0
    7.5260  -12.9278   20.1329 C   0  0  0  0  0  0  0  0  0  0  0  0
    8.9197  -13.3180   19.7467 C   0  0  0  0  0  0  0  0  0  0  0  0
    9.0484  -14.7838   20.1091 C   0  0  1  0  0  0  0  0  0  0  0  0
    9.8335  -14.8681   21.3531 C   0  0  0  0  0  0  0  0  0  0  0  0
    9.4027  -14.2973   22.3733 O   0  0  0  0  0  0  0  0  0  0  0  0
   11.0696  -18.0062   22.6155 O   0  0  0  0  0  0  0  0  0  0  0  0
   11.3190  -16.9000   23.4295 C   0  0  0  0  0  0  0  0  0  0  0  0
   11.8429  -15.7830   22.5664 C   0  0  2  0  0  0  0  0  0  0  0  0
   11.0478  -15.5855   21.3718 N   0  0  0  0  0  0  0  0  0  0  0  0
   13.2261  -16.1497   22.1556 C   0  0  0  0  0  0  0  0  0  0  0  0
   14.2513  -16.3397   23.0632 O   0  0  0  0  0  0  0  0  0  0  0  0
   13.5230  -16.3051   20.9321 O   0  0  0  0  0  0  0  0  0  0  0  0
  2  1  1  6
  2  3  1  0
  4  3  1  0
  5  2  1  0
  5  6  2  0
  7  5  1  0
  8  7  1  0
  9  8  1  0
 10  9  1  0
 10 11  1  0
 11  7  1  0
 11 12  1  1
 12 17  1  0
 12 13  2  0
 15 14  1  0
 16 15  1  1
 17 16  1  0
 18 16  1  0
 18 19  1  0
 20 18  2  0
M  END
$$$$
