CPS.pdb
     RDKit          3D

 20 20  0  0  1  0  0  0  0  0999 V2000
    8.3129  -12.9810   19.7031 N   0  0  0  0  0  0  0  0  0  0  0  0
    7.4660  -13.3375   20.8121 C   0  0  1  0  0  0  0  0  0  0  0  0
    6.6118  -14.5301   20.4175 C   0  0  0  0  0  0  0  0  0  0  0  0
    7.1901  -15.2499   18.8574 S   0  0  0  0  0  0  0  0  0  0  0  0
    8.2343  -13.6634   22.0382 C   0  0  0  0  0  0  0  0  0  0  0  0
    9.4287  -14.0290   21.8509 O   0  0  0  0  0  0  0  0  0  0  0  0
    7.7145  -13.5876   23.3539 N   0  0  0  0  0  0  0  0  0  0  0  0
    6.3791  -13.1271   23.6722 C   0  0  0  0  0  0  0  0  0  0  0  0
    6.2398  -13.1798   25.1758 C   0  0  0  0  0  0  0  0  0  0  0  0
    7.6174  -13.4215   25.7119 C   0  0  0  0  0  0  0  0  0  0  0  0
    8.4236  -13.9497   24.5426 C   0  0  1  0  0  0  0  0  0  0  0  0
    8.5679  -15.4051   24.7218 C   0  0  0  0  0  0  0  0  0  0  0  0
    7.6176  -16.1451   24.4032 O   0  0  0  0  0  0  0  0  0  0  0  0
   12.2549  -16.7897   24.8882 O   0  0  0  0  0  0  0  0  0  0  0  0
   11.2903  -17.7784   24.6876 C   0  0  0  0  0  0  0  0  0  0  0  0
   10.0227  -17.3536   25.3802 C   0  0  2  0  0  0  0  0  0  0  0  0
    9.7658  -15.9345   25.2455 N   0  0  0  0  0  0  0  0  0  0  0  0
   10.1797  -17.6680   26.8270 C   0  0  0  0  0  0  0  0  0  0  0  0
   10.4904  -18.9333   27.2890 O   0  0  0  0  0  0  0  0  0  0  0  0
   10.0313  -16.7686   27.7092 O   0  0  0  0  0  0  0  0  0  0  0  0
  2  1  1  6
  2  3  1  0
  4  3  1  0
  5  2  1  0
  5  6  2  0
  7  5  1  0
  8  7  1  0
  9  8  1  0
 10  9  1  0
 10 11  1  0
 11  7  1  0
 11 12  1  1
 12 17  1  0
 12 13  2  0
 15 14  1  0
 16 15  1  6
 17 16  1  0
 18 16  1  0
 18 19  1  0
 20 18  2  0
M  END
$$$$
