CPS.pdb
     RDKit          3D

 20 20  0  0  1  0  0  0  0  0999 V2000
    5.8056  -14.4927   26.7648 N   0  0  0  0  0  0  0  0  0  0  0  0
    6.6281  -13.8456   25.7754 C   0  0  1  0  0  0  0  0  0  0  0  0
    7.7072  -13.0414   26.4800 C   0  0  0  0  0  0  0  0  0  0  0  0
    7.0026  -11.5702   27.2710 S   0  0  0  0  0  0  0  0  0  0  0  0
    7.2596  -14.8059   24.8380 C   0  0  0  0  0  0  0  0  0  0  0  0
    7.5240  -15.9431   25.3201 O   0  0  0  0  0  0  0  0  0  0  0  0
    7.5677  -14.5209   23.4850 N   0  0  0  0  0  0  0  0  0  0  0  0
    7.2423  -13.2736   22.8253 C   0  0  0  0  0  0  0  0  0  0  0  0
    7.7189  -13.3916   21.3963 C   0  0  0  0  0  0  0  0  0  0  0  0
    8.0740  -14.8328   21.1951 C   0  0  0  0  0  0  0  0  0  0  0  0
    8.2354  -15.4115   22.5862 C   0  0  1  0  0  0  0  0  0  0  0  0
    9.6792  -15.5414   22.8502 C   0  0  0  0  0  0  0  0  0  0  0  0
   10.3289  -14.5195   23.1432 O   0  0  0  0  0  0  0  0  0  0  0  0
   10.8947  -19.0090   24.1325 O   0  0  0  0  0  0  0  0  0  0  0  0
   11.8420  -17.9926   24.2671 C   0  0  0  0  0  0  0  0  0  0  0  0
   11.6864  -17.0413   23.1105 C   0  0  2  0  0  0  0  0  0  0  0  0
   10.2987  -16.8059   22.7686 N   0  0  0  0  0  0  0  0  0  0  0  0
   12.3628  -17.6560   21.9351 C   0  0  0  0  0  0  0  0  0  0  0  0
   11.6824  -18.0352   20.7932 O   0  0  0  0  0  0  0  0  0  0  0  0
   13.6149  -17.8593   21.9366 O   0  0  0  0  0  0  0  0  0  0  0  0
  2  1  1  1
  2  3  1  0
  4  3  1  0
  5  2  1  0
  5  6  2  0
  7  5  1  0
  8  7  1  0
  9  8  1  0
 10  9  1  0
 10 11  1  0
 11  7  1  0
 11 12  1  1
 12 17  1  0
 12 13  2  0
 15 14  1  0
 16 15  1  1
 17 16  1  0
 18 16  1  0
 18 19  1  0
 20 18  2  0
M  END
$$$$
