CPS.pdb
     RDKit          3D

 20 20  0  0  1  0  0  0  0  0999 V2000
    9.6835  -15.5165   15.4719 N   0  0  0  0  0  0  0  0  0  0  0  0
    8.6987  -15.5770   16.5211 C   0  0  1  0  0  0  0  0  0  0  0  0
    8.0396  -16.9456   16.5011 C   0  0  0  0  0  0  0  0  0  0  0  0
    7.0362  -17.2002   17.9893 S   0  0  0  0  0  0  0  0  0  0  0  0
    9.2759  -15.3256   17.8641 C   0  0  0  0  0  0  0  0  0  0  0  0
   10.3961  -15.8658   18.0847 O   0  0  0  0  0  0  0  0  0  0  0  0
    8.6570  -14.5417   18.8687 N   0  0  0  0  0  0  0  0  0  0  0  0
    7.3390  -13.9557   18.7421 C   0  0  0  0  0  0  0  0  0  0  0  0
    7.0729  -13.1863   20.0150 C   0  0  0  0  0  0  0  0  0  0  0  0
    8.3794  -13.1281   20.7454 C   0  0  0  0  0  0  0  0  0  0  0  0
    9.2363  -14.2196   20.1366 C   0  0  1  0  0  0  0  0  0  0  0  0
    9.2541  -15.3509   21.0805 C   0  0  0  0  0  0  0  0  0  0  0  0
    8.3281  -16.1832   21.0354 O   0  0  0  0  0  0  0  0  0  0  0  0
   12.8107  -16.5453   22.4627 O   0  0  0  0  0  0  0  0  0  0  0  0
   11.7239  -17.4204   22.5022 C   0  0  0  0  0  0  0  0  0  0  0  0
   10.4919  -16.6328   22.8612 C   0  0  2  0  0  0  0  0  0  0  0  0
   10.3067  -15.4747   22.0111 N   0  0  0  0  0  0  0  0  0  0  0  0
   10.6568  -16.1645   24.2649 C   0  0  0  0  0  0  0  0  0  0  0  0
   10.7881  -17.0320   25.3331 O   0  0  0  0  0  0  0  0  0  0  0  0
   10.6838  -14.9265   24.5399 O   0  0  0  0  0  0  0  0  0  0  0  0
  2  1  1  6
  2  3  1  0
  4  3  1  0
  5  2  1  0
  5  6  2  0
  7  5  1  0
  8  7  1  0
  9  8  1  0
 10  9  1  0
 10 11  1  0
 11  7  1  0
 11 12  1  1
 12 17  1  0
 12 13  2  0
 15 14  1  0
 16 15  1  6
 17 16  1  0
 18 16  1  0
 18 19  1  0
 20 18  2  0
M  END
$$$$
