CPS.pdb
     RDKit          3D

 20 20  0  0  1  0  0  0  0  0999 V2000
    5.0959  -13.5532   26.2215 N   0  0  0  0  0  0  0  0  0  0  0  0
    6.2196  -13.1044   25.4406 C   0  0  1  0  0  0  0  0  0  0  0  0
    7.1861  -12.3621   26.3476 C   0  0  0  0  0  0  0  0  0  0  0  0
    6.5230  -10.7385   26.8061 S   0  0  0  0  0  0  0  0  0  0  0  0
    6.9303  -14.2180   24.7663 C   0  0  0  0  0  0  0  0  0  0  0  0
    6.9679  -15.3063   25.4062 O   0  0  0  0  0  0  0  0  0  0  0  0
    7.5432  -14.1235   23.4926 N   0  0  0  0  0  0  0  0  0  0  0  0
    7.6185  -12.9022   22.7183 C   0  0  0  0  0  0  0  0  0  0  0  0
    8.3230  -13.2411   21.4252 C   0  0  0  0  0  0  0  0  0  0  0  0
    8.3995  -14.7361   21.3739 C   0  0  0  0  0  0  0  0  0  0  0  0
    8.1679  -15.2057   22.7959 C   0  0  1  0  0  0  0  0  0  0  0  0
    9.4750  -15.5907   23.3567 C   0  0  0  0  0  0  0  0  0  0  0  0
   10.2127  -14.7010   23.8219 O   0  0  0  0  0  0  0  0  0  0  0  0
   10.1216  -18.6442   25.5676 O   0  0  0  0  0  0  0  0  0  0  0  0
   11.0592  -18.7418   24.5381 C   0  0  0  0  0  0  0  0  0  0  0  0
   11.1511  -17.4055   23.8503 C   0  0  2  0  0  0  0  0  0  0  0  0
    9.8685  -16.9451   23.3592 N   0  0  0  0  0  0  0  0  0  0  0  0
   12.0697  -17.5651   22.6896 C   0  0  0  0  0  0  0  0  0  0  0  0
   13.4435  -17.6350   22.8259 O   0  0  0  0  0  0  0  0  0  0  0  0
   11.6177  -17.6445   21.5070 O   0  0  0  0  0  0  0  0  0  0  0  0
  2  1  1  1
  2  3  1  0
  4  3  1  0
  5  2  1  0
  5  6  2  0
  7  5  1  0
  8  7  1  0
  9  8  1  0
 10  9  1  0
 10 11  1  0
 11  7  1  0
 11 12  1  1
 12 17  1  0
 12 13  2  0
 15 14  1  0
 16 15  1  6
 17 16  1  0
 18 16  1  0
 18 19  1  0
 20 18  2  0
M  END
$$$$
