CPS.pdb
     RDKit          3D

 20 20  0  0  1  0  0  0  0  0999 V2000
    7.7564  -17.0175   16.5470 N   0  0  0  0  0  0  0  0  0  0  0  0
    7.1072  -16.6036   17.7641 C   0  0  1  0  0  0  0  0  0  0  0  0
    6.2374  -17.7413   18.2710 C   0  0  0  0  0  0  0  0  0  0  0  0
    5.4771  -17.3134   19.8601 S   0  0  0  0  0  0  0  0  0  0  0  0
    8.0695  -16.2080   18.8211 C   0  0  0  0  0  0  0  0  0  0  0  0
    9.0641  -16.9732   18.9656 O   0  0  0  0  0  0  0  0  0  0  0  0
    7.9326  -15.0614   19.6417 N   0  0  0  0  0  0  0  0  0  0  0  0
    6.8031  -14.1569   19.5881 C   0  0  0  0  0  0  0  0  0  0  0  0
    7.0621  -13.0654   20.6002 C   0  0  0  0  0  0  0  0  0  0  0  0
    8.4878  -13.2279   21.0299 C   0  0  0  0  0  0  0  0  0  0  0  0
    8.8770  -14.6364   20.6287 C   0  0  1  0  0  0  0  0  0  0  0  0
    8.8689  -15.4652   21.8469 C   0  0  0  0  0  0  0  0  0  0  0  0
    7.7779  -15.8825   22.2804 O   0  0  0  0  0  0  0  0  0  0  0  0
   11.2223  -18.2605   22.2066 O   0  0  0  0  0  0  0  0  0  0  0  0
   11.3204  -17.6609   23.4633 C   0  0  0  0  0  0  0  0  0  0  0  0
   10.1820  -16.6873   23.6157 C   0  0  2  0  0  0  0  0  0  0  0  0
   10.0820  -15.7714   22.4981 N   0  0  0  0  0  0  0  0  0  0  0  0
   10.4360  -15.8962   24.8512 C   0  0  0  0  0  0  0  0  0  0  0  0
   10.4317  -16.4579   26.1142 O   0  0  0  0  0  0  0  0  0  0  0  0
   10.6708  -14.6511   24.7908 O   0  0  0  0  0  0  0  0  0  0  0  0
  2  1  1  6
  2  3  1  0
  4  3  1  0
  5  2  1  0
  5  6  2  0
  7  5  1  0
  8  7  1  0
  9  8  1  0
 10  9  1  0
 10 11  1  0
 11  7  1  0
 11 12  1  1
 12 17  1  0
 12 13  2  0
 15 14  1  0
 16 15  1  6
 17 16  1  0
 18 16  1  0
 18 19  1  0
 20 18  2  0
M  END
$$$$
