CPS.pdb
     RDKit          3D

 20 20  0  0  1  0  0  0  0  0999 V2000
    5.8711  -17.8182   25.3896 N   0  0  0  0  0  0  0  0  0  0  0  0
    6.4988  -16.6008   24.9445 C   0  0  1  0  0  0  0  0  0  0  0  0
    7.2129  -15.9553   26.1197 C   0  0  0  0  0  0  0  0  0  0  0  0
    8.0222  -14.4136   25.6151 S   0  0  0  0  0  0  0  0  0  0  0  0
    7.4645  -16.8241   23.8411 C   0  0  0  0  0  0  0  0  0  0  0  0
    8.0778  -17.9280   23.8698 O   0  0  0  0  0  0  0  0  0  0  0  0
    7.7211  -15.8979   22.8004 N   0  0  0  0  0  0  0  0  0  0  0  0
    7.0525  -14.6200   22.6700 C   0  0  0  0  0  0  0  0  0  0  0  0
    7.5965  -13.9615   21.4236 C   0  0  0  0  0  0  0  0  0  0  0  0
    8.3858  -15.0148   20.7087 C   0  0  0  0  0  0  0  0  0  0  0  0
    8.6646  -16.0876   21.7418 C   0  0  1  0  0  0  0  0  0  0  0  0
   10.0669  -15.9410   22.1696 C   0  0  0  0  0  0  0  0  0  0  0  0
   10.3726  -14.9802   22.9014 O   0  0  0  0  0  0  0  0  0  0  0  0
   11.9024  -18.9507   23.1823 O   0  0  0  0  0  0  0  0  0  0  0  0
   12.6324  -17.7780   23.3833 C   0  0  0  0  0  0  0  0  0  0  0  0
   12.4083  -16.8702   22.2032 C   0  0  2  0  0  0  0  0  0  0  0  0
   11.0327  -16.8793   21.7497 N   0  0  0  0  0  0  0  0  0  0  0  0
   13.2726  -17.3606   21.0945 C   0  0  0  0  0  0  0  0  0  0  0  0
   14.6531  -17.3601   21.1648 O   0  0  0  0  0  0  0  0  0  0  0  0
   12.7649  -17.8066   20.0210 O   0  0  0  0  0  0  0  0  0  0  0  0
  2  1  1  1
  2  3  1  0
  4  3  1  0
  5  2  1  0
  5  6  2  0
  7  5  1  0
  8  7  1  0
  9  8  1  0
 10  9  1  0
 10 11  1  0
 11  7  1  0
 11 12  1  1
 12 17  1  0
 12 13  2  0
 15 14  1  0
 16 15  1  1
 17 16  1  0
 18 16  1  0
 18 19  1  0
 20 18  2  0
M  END
$$$$
