CPS.pdb
     RDKit          3D

 20 20  0  0  1  0  0  0  0  0999 V2000
    6.4138  -15.7095   25.4133 N   0  0  0  0  0  0  0  0  0  0  0  0
    7.1129  -14.8003   24.5423 C   0  0  1  0  0  0  0  0  0  0  0  0
    8.3768  -14.3241   25.2378 C   0  0  0  0  0  0  0  0  0  0  0  0
    7.9994  -13.0230   26.4423 S   0  0  0  0  0  0  0  0  0  0  0  0
    7.4666  -15.4130   23.2388 C   0  0  0  0  0  0  0  0  0  0  0  0
    7.5087  -16.6754   23.2244 O   0  0  0  0  0  0  0  0  0  0  0  0
    7.7475  -14.6813   22.0588 N   0  0  0  0  0  0  0  0  0  0  0  0
    7.6698  -13.2385   21.9623 C   0  0  0  0  0  0  0  0  0  0  0  0
    8.0200  -12.8710   20.5391 C   0  0  0  0  0  0  0  0  0  0  0  0
    8.0308  -14.1560   19.7694 C   0  0  0  0  0  0  0  0  0  0  0  0
    8.1431  -15.2532   20.8085 C   0  0  1  0  0  0  0  0  0  0  0  0
    9.5346  -15.7377   20.7966 C   0  0  0  0  0  0  0  0  0  0  0  0
   10.4214  -15.0251   21.3044 O   0  0  0  0  0  0  0  0  0  0  0  0
    9.9846  -19.5777   20.6262 O   0  0  0  0  0  0  0  0  0  0  0  0
   11.1839  -18.9228   20.9115 C   0  0  0  0  0  0  0  0  0  0  0  0
   11.1628  -17.5768   20.2370 C   0  0  2  0  0  0  0  0  0  0  0  0
    9.8400  -16.9869   20.2173 N   0  0  0  0  0  0  0  0  0  0  0  0
   11.6098  -17.7770   18.8310 C   0  0  0  0  0  0  0  0  0  0  0  0
   12.8393  -18.3187   18.5060 O   0  0  0  0  0  0  0  0  0  0  0  0
   10.8643  -17.4514   17.8577 O   0  0  0  0  0  0  0  0  0  0  0  0
  2  1  1  1
  2  3  1  0
  4  3  1  0
  5  2  1  0
  5  6  2  0
  7  5  1  0
  8  7  1  0
  9  8  1  0
 10  9  1  0
 10 11  1  0
 11  7  1  0
 11 12  1  1
 12 17  1  0
 12 13  2  0
 15 14  1  0
 16 15  1  1
 17 16  1  0
 18 16  1  0
 18 19  1  0
 20 18  2  0
M  END
$$$$
