CPS.pdb
     RDKit          3D

 20 20  0  0  1  0  0  0  0  0999 V2000
    6.7596  -16.3138   22.9422 N   0  0  0  0  0  0  0  0  0  0  0  0
    7.5040  -15.1293   22.6001 C   0  0  1  0  0  0  0  0  0  0  0  0
    8.5331  -14.8625   23.6853 C   0  0  0  0  0  0  0  0  0  0  0  0
    7.7250  -14.5447   25.2766 S   0  0  0  0  0  0  0  0  0  0  0  0
    8.1865  -15.2403   21.2880 C   0  0  0  0  0  0  0  0  0  0  0  0
    8.4190  -16.4175   20.8934 O   0  0  0  0  0  0  0  0  0  0  0  0
    8.5736  -14.1360   20.4896 N   0  0  0  0  0  0  0  0  0  0  0  0
    8.3249  -12.7540   20.8430 C   0  0  0  0  0  0  0  0  0  0  0  0
    8.8708  -11.9049   19.7187 C   0  0  0  0  0  0  0  0  0  0  0  0
    9.1874  -12.8503   18.6009 C   0  0  0  0  0  0  0  0  0  0  0  0
    9.2570  -14.2244   19.2358 C   0  0  1  0  0  0  0  0  0  0  0  0
   10.6799  -14.5844   19.3648 C   0  0  0  0  0  0  0  0  0  0  0  0
   11.3007  -14.2186   20.3812 O   0  0  0  0  0  0  0  0  0  0  0  0
   11.9375  -18.1301   18.3423 O   0  0  0  0  0  0  0  0  0  0  0  0
   12.7897  -17.1983   17.7472 C   0  0  0  0  0  0  0  0  0  0  0  0
   12.6431  -15.8877   18.4738 C   0  0  2  0  0  0  0  0  0  0  0  0
   11.3125  -15.3294   18.3478 N   0  0  0  0  0  0  0  0  0  0  0  0
   13.6130  -14.9334   17.8696 C   0  0  0  0  0  0  0  0  0  0  0  0
   14.9667  -14.9649   18.1476 O   0  0  0  0  0  0  0  0  0  0  0  0
   13.2265  -14.0365   17.0600 O   0  0  0  0  0  0  0  0  0  0  0  0
  2  1  1  1
  2  3  1  0
  4  3  1  0
  5  2  1  0
  5  6  2  0
  7  5  1  0
  8  7  1  0
  9  8  1  0
 10  9  1  0
 10 11  1  0
 11  7  1  0
 11 12  1  1
 12 17  1  0
 12 13  2  0
 15 14  1  0
 16 15  1  6
 17 16  1  0
 18 16  1  0
 18 19  1  0
 20 18  2  0
M  END
$$$$
