CPS.pdb
     RDKit          3D

 20 20  0  0  1  0  0  0  0  0999 V2000
    6.9204  -14.7039   18.4940 N   0  0  0  0  0  0  0  0  0  0  0  0
    8.1838  -14.3487   19.0870 C   0  0  1  0  0  0  0  0  0  0  0  0
    8.0315  -13.0257   19.8179 C   0  0  0  0  0  0  0  0  0  0  0  0
    7.8703  -11.6544   18.6431 S   0  0  0  0  0  0  0  0  0  0  0  0
    8.6850  -15.3791   20.0287 C   0  0  0  0  0  0  0  0  0  0  0  0
    7.8239  -15.8596   20.8182 O   0  0  0  0  0  0  0  0  0  0  0  0
   10.0264  -15.8312   20.0830 N   0  0  0  0  0  0  0  0  0  0  0  0
   11.0881  -15.3208   19.2409 C   0  0  0  0  0  0  0  0  0  0  0  0
   12.3426  -16.0825   19.6004 C   0  0  0  0  0  0  0  0  0  0  0  0
   11.9026  -17.2192   20.4710 C   0  0  0  0  0  0  0  0  0  0  0  0
   10.5202  -16.8436   20.9650 C   0  0  1  0  0  0  0  0  0  0  0  0
   10.6528  -16.3941   22.3619 C   0  0  0  0  0  0  0  0  0  0  0  0
   11.1458  -15.2720   22.5858 O   0  0  0  0  0  0  0  0  0  0  0  0
    8.2600  -18.0041   25.0511 O   0  0  0  0  0  0  0  0  0  0  0  0
    8.9611  -16.8803   25.4915 C   0  0  0  0  0  0  0  0  0  0  0  0
   10.3050  -16.8620   24.8127 C   0  0  2  0  0  0  0  0  0  0  0  0
   10.2250  -17.2303   23.4141 N   0  0  0  0  0  0  0  0  0  0  0  0
   11.1696  -17.8525   25.5114 C   0  0  0  0  0  0  0  0  0  0  0  0
   11.4860  -17.7553   26.8535 O   0  0  0  0  0  0  0  0  0  0  0  0
   11.6590  -18.8437   24.8891 O   0  0  0  0  0  0  0  0  0  0  0  0
  2  1  1  1
  2  3  1  0
  4  3  1  0
  5  2  1  0
  5  6  2  0
  7  5  1  0
  8  7  1  0
  9  8  1  0
 10  9  1  0
 10 11  1  0
 11  7  1  0
 11 12  1  1
 12 17  1  0
 12 13  2  0
 15 14  1  0
 16 15  1  1
 17 16  1  0
 18 16  1  0
 18 19  1  0
 20 18  2  0
M  END
$$$$
