CPE.pdb
     RDKit          3D

 23 23  0  0  1  0  0  0  0  0999 V2000
    9.7655  -16.3591   16.3670 N   0  0  0  0  0  0  0  0  0  0  0  0
    8.7262  -16.1860   17.3103 C   0  0  1  0  0  0  0  0  0  0  0  0
    7.8061  -17.4036   17.4007 C   0  0  0  0  0  0  0  0  0  0  0  0
    6.8692  -17.4133   18.9582 S   0  0  0  0  0  0  0  0  0  0  0  0
    9.1027  -15.6842   18.6270 C   0  0  0  0  0  0  0  0  0  0  0  0
    9.9350  -16.4519   19.2482 O   0  0  0  0  0  0  0  0  0  0  0  0
    8.6498  -14.4844   19.2445 N   0  0  0  0  0  0  0  0  0  0  0  0
    7.9665  -13.3705   18.6162 C   0  0  0  0  0  0  0  0  0  0  0  0
    6.7962  -13.1935   19.6017 C   0  0  0  0  0  0  0  0  0  0  0  0
    7.5580  -13.2503   20.9081 C   0  0  0  0  0  0  0  0  0  0  0  0
    8.7835  -14.1099   20.6350 C   0  0  1  0  0  0  0  0  0  0  0  0
    8.7422  -15.1948   21.6170 C   0  0  0  0  0  0  0  0  0  0  0  0
    7.9202  -16.1120   21.5776 O   0  0  0  0  0  0  0  0  0  0  0  0
    9.6832  -15.2236   22.6842 N   0  0  0  0  0  0  0  0  0  0  0  0
    9.6943  -16.3139   23.6706 C   0  0  1  0  0  0  0  0  0  0  0  0
   10.6982  -17.3692   23.2853 C   0  0  0  0  0  0  0  0  0  0  0  0
   12.0198  -16.7667   22.8517 C   0  0  0  0  0  0  0  0  0  0  0  0
   12.9784  -17.8126   22.4255 C   0  0  0  0  0  0  0  0  0  0  0  0
   12.6194  -19.0167   22.5266 O   0  0  0  0  0  0  0  0  0  0  0  0
   10.0977  -15.7888   24.9978 C   0  0  0  0  0  0  0  0  0  0  0  0
   10.4605  -14.4607   25.1259 O   0  0  0  0  0  0  0  0  0  0  0  0
   14.2496  -17.5522   21.9205 O   0  0  0  0  0  0  0  0  0  0  0  0
   10.1147  -16.5261   26.0015 O   0  0  0  0  0  0  0  0  0  0  0  0
  2  3  1  0
  2  1  1  1
  3  4  1  0
  5  2  1  0
  5  6  2  0
  7  5  1  0
  8  7  1  0
  9 10  1  0
  9  8  1  0
 10 11  1  0
 11  7  1  0
 11 12  1  1
 12 14  1  0
 13 12  2  0
 14 15  1  0
 15 16  1  6
 16 17  1  0
 17 18  1  0
 18 22  1  0
 18 19  2  0
 20 15  1  0
 20 21  1  0
 23 20  2  0
M  END
$$$$
