CPE.pdb
     RDKit          3D

 23 23  0  0  1  0  0  0  0  0999 V2000
    7.9789  -14.3646   21.2693 N   0  0  0  0  0  0  0  0  0  0  0  0
    7.3502  -14.7259   22.4835 C   0  0  1  0  0  0  0  0  0  0  0  0
    6.8023  -16.1529   22.4595 C   0  0  0  0  0  0  0  0  0  0  0  0
    6.4967  -16.7748   24.1398 S   0  0  0  0  0  0  0  0  0  0  0  0
    8.0740  -14.4369   23.7163 C   0  0  0  0  0  0  0  0  0  0  0  0
    9.1963  -15.0692   23.8107 O   0  0  0  0  0  0  0  0  0  0  0  0
    7.6630  -13.5638   24.7626 N   0  0  0  0  0  0  0  0  0  0  0  0
    6.6028  -12.5754   24.7236 C   0  0  0  0  0  0  0  0  0  0  0  0
    5.8624  -12.9362   26.0250 C   0  0  0  0  0  0  0  0  0  0  0  0
    7.0450  -13.0519   26.9623 C   0  0  0  0  0  0  0  0  0  0  0  0
    8.2231  -13.4649   26.0923 C   0  0  1  0  0  0  0  0  0  0  0  0
    8.7462  -14.6989   26.6809 C   0  0  0  0  0  0  0  0  0  0  0  0
    8.0711  -15.7200   26.8227 O   0  0  0  0  0  0  0  0  0  0  0  0
   10.0978  -14.7582   27.1228 N   0  0  0  0  0  0  0  0  0  0  0  0
   10.6747  -15.9955   27.6690 C   0  0  1  0  0  0  0  0  0  0  0  0
   12.0966  -16.1703   27.2024 C   0  0  0  0  0  0  0  0  0  0  0  0
   12.2139  -16.0954   25.6930 C   0  0  0  0  0  0  0  0  0  0  0  0
   13.6271  -15.9789   25.2644 C   0  0  0  0  0  0  0  0  0  0  0  0
   14.5096  -15.8988   26.1609 O   0  0  0  0  0  0  0  0  0  0  0  0
   10.7047  -15.9265   29.1504 C   0  0  0  0  0  0  0  0  0  0  0  0
   11.0946  -17.0354   29.8785 O   0  0  0  0  0  0  0  0  0  0  0  0
   14.0439  -15.9524   23.9361 O   0  0  0  0  0  0  0  0  0  0  0  0
   10.3842  -14.8834   29.7509 O   0  0  0  0  0  0  0  0  0  0  0  0
  2  3  1  0
  2  1  1  6
  3  4  1  0
  5  2  1  0
  5  6  2  0
  7  5  1  0
  8  7  1  0
  9 10  1  0
  9  8  1  0
 10 11  1  0
 11  7  1  0
 11 12  1  1
 12 14  1  0
 13 12  2  0
 14 15  1  0
 15 16  1  6
 16 17  1  0
 17 18  1  0
 18 22  1  0
 18 19  2  0
 20 15  1  0
 20 21  1  0
 23 20  2  0
M  END
$$$$
