CPE.pdb
     RDKit          3D

 23 23  0  0  1  0  0  0  0  0999 V2000
    8.2173  -14.5821   21.4020 N   0  0  0  0  0  0  0  0  0  0  0  0
    7.4793  -14.7589   22.5954 C   0  0  1  0  0  0  0  0  0  0  0  0
    6.7052  -16.0770   22.6177 C   0  0  0  0  0  0  0  0  0  0  0  0
    6.1205  -16.4750   24.2920 S   0  0  0  0  0  0  0  0  0  0  0  0
    8.1799  -14.5130   23.8507 C   0  0  0  0  0  0  0  0  0  0  0  0
    9.1802  -15.3073   24.0423 O   0  0  0  0  0  0  0  0  0  0  0  0
    7.8647  -13.5238   24.8244 N   0  0  0  0  0  0  0  0  0  0  0  0
    6.9861  -12.3807   24.6705 C   0  0  0  0  0  0  0  0  0  0  0  0
    6.1290  -12.5381   25.9405 C   0  0  0  0  0  0  0  0  0  0  0  0
    7.2254  -12.7878   26.9533 C   0  0  0  0  0  0  0  0  0  0  0  0
    8.3630  -13.4377   26.1794 C   0  0  1  0  0  0  0  0  0  0  0  0
    8.6433  -14.7027   26.8605 C   0  0  0  0  0  0  0  0  0  0  0  0
    7.7894  -15.5693   27.0564 O   0  0  0  0  0  0  0  0  0  0  0  0
    9.9567  -14.9793   27.3338 N   0  0  0  0  0  0  0  0  0  0  0  0
   10.2969  -16.2715   27.9472 C   0  0  1  0  0  0  0  0  0  0  0  0
   11.5926  -16.8003   27.3889 C   0  0  0  0  0  0  0  0  0  0  0  0
   12.0271  -18.0809   28.0736 C   0  0  0  0  0  0  0  0  0  0  0  0
   13.2873  -18.6035   27.4961 C   0  0  0  0  0  0  0  0  0  0  0  0
   14.3728  -18.1228   27.9196 O   0  0  0  0  0  0  0  0  0  0  0  0
   10.4861  -16.1015   29.4085 C   0  0  0  0  0  0  0  0  0  0  0  0
   10.4493  -14.8339   29.9595 O   0  0  0  0  0  0  0  0  0  0  0  0
   13.3505  -19.5911   26.5165 O   0  0  0  0  0  0  0  0  0  0  0  0
   10.6776  -17.0842   30.1494 O   0  0  0  0  0  0  0  0  0  0  0  0
  2  3  1  0
  2  1  1  6
  3  4  1  0
  5  2  1  0
  5  6  2  0
  7  5  1  0
  8  7  1  0
  9 10  1  0
  9  8  1  0
 10 11  1  0
 11  7  1  0
 11 12  1  1
 12 14  1  0
 13 12  2  0
 14 15  1  0
 15 16  1  6
 16 17  1  0
 17 18  1  0
 18 22  1  0
 18 19  2  0
 20 15  1  0
 20 21  1  0
 23 20  2  0
M  END
$$$$
