CPE.pdb
     RDKit          3D

 23 23  0  0  1  0  0  0  0  0999 V2000
    8.1727  -14.7354   21.2073 N   0  0  0  0  0  0  0  0  0  0  0  0
    7.3565  -14.4152   22.3170 C   0  0  1  0  0  0  0  0  0  0  0  0
    6.1409  -15.3345   22.4368 C   0  0  0  0  0  0  0  0  0  0  0  0
    6.4994  -16.7758   23.4844 S   0  0  0  0  0  0  0  0  0  0  0  0
    8.0259  -14.2212   23.5982 C   0  0  0  0  0  0  0  0  0  0  0  0
    9.0200  -15.0249   23.7827 O   0  0  0  0  0  0  0  0  0  0  0  0
    7.6877  -13.2710   24.6024 N   0  0  0  0  0  0  0  0  0  0  0  0
    6.7976  -12.1332   24.4786 C   0  0  0  0  0  0  0  0  0  0  0  0
    5.9276  -12.3455   25.7317 C   0  0  0  0  0  0  0  0  0  0  0  0
    7.0150  -12.6186   26.7482 C   0  0  0  0  0  0  0  0  0  0  0  0
    8.1690  -13.2276   25.9656 C   0  0  1  0  0  0  0  0  0  0  0  0
    8.4562  -14.5128   26.6047 C   0  0  0  0  0  0  0  0  0  0  0  0
    7.6255  -15.4169   26.7093 O   0  0  0  0  0  0  0  0  0  0  0  0
    9.7490  -14.7654   27.1437 N   0  0  0  0  0  0  0  0  0  0  0  0
   10.1139  -16.0846   27.6807 C   0  0  1  0  0  0  0  0  0  0  0  0
   11.3391  -16.6207   26.9868 C   0  0  0  0  0  0  0  0  0  0  0  0
   12.4678  -15.6094   26.9618 C   0  0  0  0  0  0  0  0  0  0  0  0
   13.5573  -16.0355   26.0529 C   0  0  0  0  0  0  0  0  0  0  0  0
   14.5341  -15.2541   25.8979 O   0  0  0  0  0  0  0  0  0  0  0  0
   10.4422  -15.9685   29.1225 C   0  0  0  0  0  0  0  0  0  0  0  0
   10.3932  -14.7309   29.7372 O   0  0  0  0  0  0  0  0  0  0  0  0
   13.5724  -17.2427   25.3592 O   0  0  0  0  0  0  0  0  0  0  0  0
   10.7618  -16.9700   29.7906 O   0  0  0  0  0  0  0  0  0  0  0  0
  2  3  1  0
  2  1  1  6
  3  4  1  0
  5  2  1  0
  5  6  2  0
  7  5  1  0
  8  7  1  0
  9 10  1  0
  9  8  1  0
 10 11  1  0
 11  7  1  0
 11 12  1  1
 12 14  1  0
 13 12  2  0
 14 15  1  0
 15 16  1  6
 16 17  1  0
 17 18  1  0
 18 22  1  0
 18 19  2  0
 20 15  1  0
 20 21  1  0
 23 20  2  0
M  END
$$$$
