CPE.pdb
     RDKit          3D

 23 23  0  0  1  0  0  0  0  0999 V2000
    5.1004  -13.7596   26.1860 N   0  0  0  0  0  0  0  0  0  0  0  0
    6.2730  -13.2963   25.5454 C   0  0  1  0  0  0  0  0  0  0  0  0
    7.1506  -12.4494   26.4673 C   0  0  0  0  0  0  0  0  0  0  0  0
    8.7860  -12.1477   25.7338 S   0  0  0  0  0  0  0  0  0  0  0  0
    7.0506  -14.2767   24.7963 C   0  0  0  0  0  0  0  0  0  0  0  0
    7.6109  -15.1664   25.5464 O   0  0  0  0  0  0  0  0  0  0  0  0
    7.2300  -14.3256   23.3851 N   0  0  0  0  0  0  0  0  0  0  0  0
    6.5234  -13.5592   22.3773 C   0  0  0  0  0  0  0  0  0  0  0  0
    7.7197  -13.0459   21.5542 C   0  0  0  0  0  0  0  0  0  0  0  0
    8.5024  -14.3342   21.4195 C   0  0  0  0  0  0  0  0  0  0  0  0
    8.1511  -15.1616   22.6472 C   0  0  1  0  0  0  0  0  0  0  0  0
    9.4234  -15.4761   23.2993 C   0  0  0  0  0  0  0  0  0  0  0  0
   10.3339  -14.6572   23.4364 O   0  0  0  0  0  0  0  0  0  0  0  0
    9.6551  -16.7833   23.8122 N   0  0  0  0  0  0  0  0  0  0  0  0
   10.9022  -17.1249   24.5121 C   0  0  1  0  0  0  0  0  0  0  0  0
   10.6142  -17.9499   25.7395 C   0  0  0  0  0  0  0  0  0  0  0  0
   11.8836  -18.4457   26.4032 C   0  0  0  0  0  0  0  0  0  0  0  0
   11.5841  -19.2890   27.5837 C   0  0  0  0  0  0  0  0  0  0  0  0
   10.3746  -19.4538   27.8979 O   0  0  0  0  0  0  0  0  0  0  0  0
   11.7687  -17.9420   23.6281 C   0  0  0  0  0  0  0  0  0  0  0  0
   13.1343  -17.9674   23.8434 O   0  0  0  0  0  0  0  0  0  0  0  0
   12.5515  -19.9114   28.3684 O   0  0  0  0  0  0  0  0  0  0  0  0
   11.2854  -18.6076   22.6929 O   0  0  0  0  0  0  0  0  0  0  0  0
  2  3  1  0
  2  1  1  1
  3  4  1  0
  5  2  1  0
  5  6  2  0
  7  5  1  0
  8  7  1  0
  9 10  1  0
  9  8  1  0
 10 11  1  0
 11  7  1  0
 11 12  1  1
 12 14  1  0
 13 12  2  0
 14 15  1  0
 15 16  1  1
 16 17  1  0
 17 18  1  0
 18 22  1  0
 18 19  2  0
 20 15  1  0
 20 21  1  0
 23 20  2  0
M  END
$$$$
