CPE.pdb
     RDKit          3D

 23 23  0  0  1  0  0  0  0  0999 V2000
    8.0625  -14.6920   21.5043 N   0  0  0  0  0  0  0  0  0  0  0  0
    7.3825  -14.9782   22.7108 C   0  0  1  0  0  0  0  0  0  0  0  0
    6.7994  -16.3912   22.7357 C   0  0  0  0  0  0  0  0  0  0  0  0
    6.1835  -16.8260   24.3895 S   0  0  0  0  0  0  0  0  0  0  0  0
    8.0695  -14.6464   23.9539 C   0  0  0  0  0  0  0  0  0  0  0  0
    9.1724  -15.2982   24.1183 O   0  0  0  0  0  0  0  0  0  0  0  0
    7.6433  -13.7150   24.9421 N   0  0  0  0  0  0  0  0  0  0  0  0
    6.5742  -12.7413   24.8362 C   0  0  0  0  0  0  0  0  0  0  0  0
    5.8285  -13.0291   26.1528 C   0  0  0  0  0  0  0  0  0  0  0  0
    7.0059  -13.0756   27.1026 C   0  0  0  0  0  0  0  0  0  0  0  0
    8.1936  -13.5294   26.2667 C   0  0  1  0  0  0  0  0  0  0  0  0
    8.7244  -14.7199   26.9329 C   0  0  0  0  0  0  0  0  0  0  0  0
    8.0113  -15.6229   27.3740 O   0  0  0  0  0  0  0  0  0  0  0  0
   10.1295  -14.8753   27.0973 N   0  0  0  0  0  0  0  0  0  0  0  0
   10.6980  -16.0363   27.7979 C   0  0  1  0  0  0  0  0  0  0  0  0
   12.0693  -16.3601   27.2641 C   0  0  0  0  0  0  0  0  0  0  0  0
   12.0544  -16.6081   25.7688 C   0  0  0  0  0  0  0  0  0  0  0  0
   13.1903  -15.9355   25.0966 C   0  0  0  0  0  0  0  0  0  0  0  0
   14.0183  -15.3165   25.8177 O   0  0  0  0  0  0  0  0  0  0  0  0
   10.8507  -15.7290   29.2410 C   0  0  0  0  0  0  0  0  0  0  0  0
   10.4881  -14.4823   29.7164 O   0  0  0  0  0  0  0  0  0  0  0  0
   13.4027  -15.9428   23.7205 O   0  0  0  0  0  0  0  0  0  0  0  0
   11.3007  -16.5778   30.0337 O   0  0  0  0  0  0  0  0  0  0  0  0
  2  3  1  0
  2  1  1  6
  3  4  1  0
  5  2  1  0
  5  6  2  0
  7  5  1  0
  8  7  1  0
  9 10  1  0
  9  8  1  0
 10 11  1  0
 11  7  1  0
 11 12  1  1
 12 14  1  0
 13 12  2  0
 14 15  1  0
 15 16  1  6
 16 17  1  0
 17 18  1  0
 18 22  1  0
 18 19  2  0
 20 15  1  0
 20 21  1  0
 23 20  2  0
M  END
$$$$
