CPE.pdb
     RDKit          3D

 23 23  0  0  1  0  0  0  0  0999 V2000
    8.1573  -14.4772   21.1915 N   0  0  0  0  0  0  0  0  0  0  0  0
    7.3591  -14.6250   22.3495 C   0  0  1  0  0  0  0  0  0  0  0  0
    6.5006  -15.8895   22.3138 C   0  0  0  0  0  0  0  0  0  0  0  0
    5.9014  -16.3318   23.9718 S   0  0  0  0  0  0  0  0  0  0  0  0
    8.0200  -14.4469   23.6374 C   0  0  0  0  0  0  0  0  0  0  0  0
    8.9894  -15.2775   23.8340 O   0  0  0  0  0  0  0  0  0  0  0  0
    7.6978  -13.4854   24.6362 N   0  0  0  0  0  0  0  0  0  0  0  0
    6.7765  -12.3712   24.5258 C   0  0  0  0  0  0  0  0  0  0  0  0
    5.9606  -12.5793   25.8155 C   0  0  0  0  0  0  0  0  0  0  0  0
    7.0925  -12.8071   26.7940 C   0  0  0  0  0  0  0  0  0  0  0  0
    8.2300  -13.4042   25.9785 C   0  0  1  0  0  0  0  0  0  0  0  0
    8.5723  -14.6697   26.6298 C   0  0  0  0  0  0  0  0  0  0  0  0
    7.7948  -15.6225   26.7075 O   0  0  0  0  0  0  0  0  0  0  0  0
    9.8585  -14.8434   27.2137 N   0  0  0  0  0  0  0  0  0  0  0  0
   10.2524  -16.1126   27.8428 C   0  0  1  0  0  0  0  0  0  0  0  0
   11.5964  -16.5641   27.3329 C   0  0  0  0  0  0  0  0  0  0  0  0
   11.5643  -16.8886   25.8526 C   0  0  0  0  0  0  0  0  0  0  0  0
   12.9267  -17.1194   25.3187 C   0  0  0  0  0  0  0  0  0  0  0  0
   13.2872  -16.4480   24.3147 O   0  0  0  0  0  0  0  0  0  0  0  0
   10.3786  -15.9303   29.3094 C   0  0  0  0  0  0  0  0  0  0  0  0
   10.6688  -17.0190   30.1109 O   0  0  0  0  0  0  0  0  0  0  0  0
   13.8347  -18.0294   25.8538 O   0  0  0  0  0  0  0  0  0  0  0  0
   10.2275  -14.8100   29.8322 O   0  0  0  0  0  0  0  0  0  0  0  0
  2  3  1  0
  2  1  1  6
  3  4  1  0
  5  2  1  0
  5  6  2  0
  7  5  1  0
  8  7  1  0
  9 10  1  0
  9  8  1  0
 10 11  1  0
 11  7  1  0
 11 12  1  1
 12 14  1  0
 13 12  2  0
 14 15  1  0
 15 16  1  6
 16 17  1  0
 17 18  1  0
 18 22  1  0
 18 19  2  0
 20 15  1  0
 20 21  1  0
 23 20  2  0
M  END
$$$$
