CPE.pdb
     RDKit          3D

 23 23  0  0  1  0  0  0  0  0999 V2000
    5.5281  -14.0726   26.4469 N   0  0  0  0  0  0  0  0  0  0  0  0
    6.5640  -13.6152   25.5996 C   0  0  1  0  0  0  0  0  0  0  0  0
    7.5404  -12.6824   26.3162 C   0  0  0  0  0  0  0  0  0  0  0  0
    6.7170  -11.1609   26.8735 S   0  0  0  0  0  0  0  0  0  0  0  0
    7.2533  -14.6174   24.7948 C   0  0  0  0  0  0  0  0  0  0  0  0
    7.7932  -15.5559   25.4991 O   0  0  0  0  0  0  0  0  0  0  0  0
    7.3708  -14.6396   23.3766 N   0  0  0  0  0  0  0  0  0  0  0  0
    6.5051  -13.9958   22.4079 C   0  0  0  0  0  0  0  0  0  0  0  0
    7.5652  -13.3015   21.5323 C   0  0  0  0  0  0  0  0  0  0  0  0
    8.5337  -14.4505   21.3531 C   0  0  0  0  0  0  0  0  0  0  0  0
    8.3759  -15.3211   22.5910 C   0  0  1  0  0  0  0  0  0  0  0  0
    9.7114  -15.4300   23.1804 C   0  0  0  0  0  0  0  0  0  0  0  0
   10.3073  -14.4776   23.6866 O   0  0  0  0  0  0  0  0  0  0  0  0
   10.3855  -16.6835   23.1864 N   0  0  0  0  0  0  0  0  0  0  0  0
   11.7280  -16.8319   23.7673 C   0  0  1  0  0  0  0  0  0  0  0  0
   11.6387  -17.1897   25.2281 C   0  0  0  0  0  0  0  0  0  0  0  0
   10.7772  -18.4147   25.4627 C   0  0  0  0  0  0  0  0  0  0  0  0
   10.8534  -18.8693   26.8705 C   0  0  0  0  0  0  0  0  0  0  0  0
   11.7173  -18.3340   27.6161 O   0  0  0  0  0  0  0  0  0  0  0  0
   12.4515  -17.9350   23.0892 C   0  0  0  0  0  0  0  0  0  0  0  0
   13.7950  -18.1327   23.3493 O   0  0  0  0  0  0  0  0  0  0  0  0
   10.0328  -19.8490   27.4236 O   0  0  0  0  0  0  0  0  0  0  0  0
   11.8672  -18.6883   22.2876 O   0  0  0  0  0  0  0  0  0  0  0  0
  2  3  1  0
  2  1  1  1
  3  4  1  0
  5  2  1  0
  5  6  2  0
  7  5  1  0
  8  7  1  0
  9 10  1  0
  9  8  1  0
 10 11  1  0
 11  7  1  0
 11 12  1  1
 12 14  1  0
 13 12  2  0
 14 15  1  0
 15 16  1  1
 16 17  1  0
 17 18  1  0
 18 22  1  0
 18 19  2  0
 20 15  1  0
 20 21  1  0
 23 20  2  0
M  END
$$$$
