CPE.pdb
     RDKit          3D

 23 23  0  0  1  0  0  0  0  0999 V2000
    5.8550  -15.9030   26.5183 N   0  0  0  0  0  0  0  0  0  0  0  0
    6.6741  -14.9956   25.8073 C   0  0  1  0  0  0  0  0  0  0  0  0
    7.4711  -14.0749   26.7317 C   0  0  0  0  0  0  0  0  0  0  0  0
    6.9656  -12.3399   26.5371 S   0  0  0  0  0  0  0  0  0  0  0  0
    7.4985  -15.5452   24.7370 C   0  0  0  0  0  0  0  0  0  0  0  0
    8.3287  -16.4476   25.1428 O   0  0  0  0  0  0  0  0  0  0  0  0
    7.4615  -15.1848   23.3605 N   0  0  0  0  0  0  0  0  0  0  0  0
    6.4046  -14.4828   22.6589 C   0  0  0  0  0  0  0  0  0  0  0  0
    7.2400  -13.4097   21.9359 C   0  0  0  0  0  0  0  0  0  0  0  0
    8.3510  -14.2814   21.3919 C   0  0  0  0  0  0  0  0  0  0  0  0
    8.4686  -15.4517   22.3574 C   0  0  1  0  0  0  0  0  0  0  0  0
    9.8613  -15.4643   22.8082 C   0  0  0  0  0  0  0  0  0  0  0  0
   10.4307  -14.4756   23.2736 O   0  0  0  0  0  0  0  0  0  0  0  0
   10.6263  -16.6611   22.7191 N   0  0  0  0  0  0  0  0  0  0  0  0
   12.0447  -16.6977   23.1046 C   0  0  1  0  0  0  0  0  0  0  0  0
   12.2123  -17.3461   24.4542 C   0  0  0  0  0  0  0  0  0  0  0  0
   11.4654  -18.6616   24.5507 C   0  0  0  0  0  0  0  0  0  0  0  0
   11.5820  -19.2531   25.9038 C   0  0  0  0  0  0  0  0  0  0  0  0
   12.7373  -19.3886   26.3895 O   0  0  0  0  0  0  0  0  0  0  0  0
   12.8113  -17.5108   22.1293 C   0  0  0  0  0  0  0  0  0  0  0  0
   14.1906  -17.5573   22.2128 O   0  0  0  0  0  0  0  0  0  0  0  0
   10.4989  -19.6686   26.6739 O   0  0  0  0  0  0  0  0  0  0  0  0
   12.2315  -18.1544   21.2343 O   0  0  0  0  0  0  0  0  0  0  0  0
  2  3  1  0
  2  1  1  1
  3  4  1  0
  5  2  1  0
  5  6  2  0
  7  5  1  0
  8  7  1  0
  9 10  1  0
  9  8  1  0
 10 11  1  0
 11  7  1  0
 11 12  1  1
 12 14  1  0
 13 12  2  0
 14 15  1  0
 15 16  1  1
 16 17  1  0
 17 18  1  0
 18 22  1  0
 18 19  2  0
 20 15  1  0
 20 21  1  0
 23 20  2  0
M  END
$$$$
