CPE.pdb
     RDKit          3D

 23 23  0  0  1  0  0  0  0  0999 V2000
   10.8982  -15.0801   15.9571 N   0  0  0  0  0  0  0  0  0  0  0  0
    9.8183  -15.3105   16.8407 C   0  0  1  0  0  0  0  0  0  0  0  0
    9.2093  -16.7028   16.6738 C   0  0  0  0  0  0  0  0  0  0  0  0
    8.0287  -17.0747   18.0047 S   0  0  0  0  0  0  0  0  0  0  0  0
   10.0240  -14.9663   18.2430 C   0  0  0  0  0  0  0  0  0  0  0  0
   11.0462  -15.5547   18.7694 O   0  0  0  0  0  0  0  0  0  0  0  0
    9.2314  -14.0844   19.0304 N   0  0  0  0  0  0  0  0  0  0  0  0
    8.2203  -13.1538   18.5679 C   0  0  0  0  0  0  0  0  0  0  0  0
    7.0749  -13.5129   19.5330 C   0  0  0  0  0  0  0  0  0  0  0  0
    7.8441  -13.5389   20.8361 C   0  0  0  0  0  0  0  0  0  0  0  0
    9.2710  -13.9166   20.4664 C   0  0  1  0  0  0  0  0  0  0  0  0
    9.5928  -15.1035   21.2604 C   0  0  0  0  0  0  0  0  0  0  0  0
    9.0586  -16.2000   21.0850 O   0  0  0  0  0  0  0  0  0  0  0  0
   10.5665  -15.0237   22.2953 N   0  0  0  0  0  0  0  0  0  0  0  0
   10.9943  -16.2157   23.0422 C   0  0  1  0  0  0  0  0  0  0  0  0
   12.4574  -16.1277   23.3912 C   0  0  0  0  0  0  0  0  0  0  0  0
   13.3244  -15.9266   22.1643 C   0  0  0  0  0  0  0  0  0  0  0  0
   14.7547  -15.7949   22.5271 C   0  0  0  0  0  0  0  0  0  0  0  0
   15.0525  -15.7810   23.7518 O   0  0  0  0  0  0  0  0  0  0  0  0
   10.2439  -16.3071   24.3184 C   0  0  0  0  0  0  0  0  0  0  0  0
    9.4121  -15.2698   24.6979 O   0  0  0  0  0  0  0  0  0  0  0  0
   15.7910  -15.6856   21.6035 O   0  0  0  0  0  0  0  0  0  0  0  0
   10.3506  -17.3054   25.0555 O   0  0  0  0  0  0  0  0  0  0  0  0
  2  3  1  0
  2  1  1  6
  3  4  1  0
  5  2  1  0
  5  6  2  0
  7  5  1  0
  8  7  1  0
  9 10  1  0
  9  8  1  0
 10 11  1  0
 11  7  1  0
 11 12  1  1
 12 14  1  0
 13 12  2  0
 14 15  1  0
 15 16  1  1
 16 17  1  0
 17 18  1  0
 18 22  1  0
 18 19  2  0
 20 15  1  0
 20 21  1  0
 23 20  2  0
M  END
$$$$
