CPE.pdb
     RDKit          3D

 23 23  0  0  1  0  0  0  0  0999 V2000
   10.4185  -15.3216   15.5952 N   0  0  0  0  0  0  0  0  0  0  0  0
    9.3973  -15.2987   16.5733 C   0  0  1  0  0  0  0  0  0  0  0  0
    8.5647  -16.5808   16.5834 C   0  0  0  0  0  0  0  0  0  0  0  0
    9.5469  -18.0057   17.1388 S   0  0  0  0  0  0  0  0  0  0  0  0
    9.7766  -14.8804   17.9180 C   0  0  0  0  0  0  0  0  0  0  0  0
   10.8828  -15.4086   18.3250 O   0  0  0  0  0  0  0  0  0  0  0  0
    9.0635  -13.9880   18.7671 N   0  0  0  0  0  0  0  0  0  0  0  0
    8.0415  -13.0326   18.3862 C   0  0  0  0  0  0  0  0  0  0  0  0
    6.9627  -13.3748   19.4309 C   0  0  0  0  0  0  0  0  0  0  0  0
    7.8250  -13.4272   20.6735 C   0  0  0  0  0  0  0  0  0  0  0  0
    9.2123  -13.8321   20.1973 C   0  0  1  0  0  0  0  0  0  0  0  0
    9.5659  -15.0316   20.9581 C   0  0  0  0  0  0  0  0  0  0  0  0
    9.0667  -16.1383   20.7469 O   0  0  0  0  0  0  0  0  0  0  0  0
   10.5305  -14.9528   22.0015 N   0  0  0  0  0  0  0  0  0  0  0  0
   10.8906  -16.1293   22.8065 C   0  0  1  0  0  0  0  0  0  0  0  0
   12.3479  -16.0875   23.1868 C   0  0  0  0  0  0  0  0  0  0  0  0
   13.2432  -15.8531   21.9864 C   0  0  0  0  0  0  0  0  0  0  0  0
   14.6709  -15.7968   22.3779 C   0  0  0  0  0  0  0  0  0  0  0  0
   15.1296  -16.7458   23.0691 O   0  0  0  0  0  0  0  0  0  0  0  0
   10.1086  -16.1362   24.0669 C   0  0  0  0  0  0  0  0  0  0  0  0
   10.1895  -17.2248   24.9155 O   0  0  0  0  0  0  0  0  0  0  0  0
   15.5386  -14.7642   22.0319 O   0  0  0  0  0  0  0  0  0  0  0  0
    9.3787  -15.1749   24.3745 O   0  0  0  0  0  0  0  0  0  0  0  0
  2  3  1  0
  2  1  1  6
  3  4  1  0
  5  2  1  0
  5  6  2  0
  7  5  1  0
  8  7  1  0
  9 10  1  0
  9  8  1  0
 10 11  1  0
 11  7  1  0
 11 12  1  1
 12 14  1  0
 13 12  2  0
 14 15  1  0
 15 16  1  1
 16 17  1  0
 17 18  1  0
 18 22  1  0
 18 19  2  0
 20 15  1  0
 20 21  1  0
 23 20  2  0
M  END
$$$$
