CPE.pdb
     RDKit          3D

 23 23  0  0  1  0  0  0  0  0999 V2000
    5.4975  -13.7534   26.3707 N   0  0  0  0  0  0  0  0  0  0  0  0
    6.6048  -13.3430   25.5926 C   0  0  1  0  0  0  0  0  0  0  0  0
    7.6322  -12.5531   26.4036 C   0  0  0  0  0  0  0  0  0  0  0  0
    7.0094  -10.9007   26.8342 S   0  0  0  0  0  0  0  0  0  0  0  0
    7.2321  -14.3528   24.7476 C   0  0  0  0  0  0  0  0  0  0  0  0
    7.6674  -15.3738   25.4082 O   0  0  0  0  0  0  0  0  0  0  0  0
    7.3929  -14.3028   23.3343 N   0  0  0  0  0  0  0  0  0  0  0  0
    6.6547  -13.4880   22.3891 C   0  0  0  0  0  0  0  0  0  0  0  0
    7.8273  -12.8919   21.5878 C   0  0  0  0  0  0  0  0  0  0  0  0
    8.6377  -14.1490   21.3571 C   0  0  0  0  0  0  0  0  0  0  0  0
    8.3229  -15.0650   22.5306 C   0  0  1  0  0  0  0  0  0  0  0  0
    9.6111  -15.3916   23.1444 C   0  0  0  0  0  0  0  0  0  0  0  0
   10.3964  -14.5394   23.5630 O   0  0  0  0  0  0  0  0  0  0  0  0
   10.0092  -16.7512   23.2804 N   0  0  0  0  0  0  0  0  0  0  0  0
   11.2451  -17.1239   23.9843 C   0  0  1  0  0  0  0  0  0  0  0  0
   10.9633  -18.1602   25.0410 C   0  0  0  0  0  0  0  0  0  0  0  0
   12.2313  -18.6464   25.7144 C   0  0  0  0  0  0  0  0  0  0  0  0
   11.9304  -19.5579   26.8427 C   0  0  0  0  0  0  0  0  0  0  0  0
   12.8999  -20.1179   27.4218 O   0  0  0  0  0  0  0  0  0  0  0  0
   12.2083  -17.7231   23.0286 C   0  0  0  0  0  0  0  0  0  0  0  0
   11.7385  -18.4463   21.9477 O   0  0  0  0  0  0  0  0  0  0  0  0
   10.6468  -19.8359   27.3052 O   0  0  0  0  0  0  0  0  0  0  0  0
   13.4364  -17.5850   23.1836 O   0  0  0  0  0  0  0  0  0  0  0  0
  2  3  1  0
  2  1  1  1
  3  4  1  0
  5  2  1  0
  5  6  2  0
  7  5  1  0
  8  7  1  0
  9 10  1  0
  9  8  1  0
 10 11  1  0
 11  7  1  0
 11 12  1  1
 12 14  1  0
 13 12  2  0
 14 15  1  0
 15 16  1  1
 16 17  1  0
 17 18  1  0
 18 22  1  0
 18 19  2  0
 20 15  1  0
 20 21  1  0
 23 20  2  0
M  END
$$$$
