CPE.pdb
     RDKit          3D

 23 23  0  0  1  0  0  0  0  0999 V2000
    8.3300  -13.3278   21.2033 N   0  0  0  0  0  0  0  0  0  0  0  0
    7.4911  -13.8364   22.2219 C   0  0  1  0  0  0  0  0  0  0  0  0
    6.7659  -15.1151   21.8020 C   0  0  0  0  0  0  0  0  0  0  0  0
    6.1783  -16.0495   23.2461 S   0  0  0  0  0  0  0  0  0  0  0  0
    8.0628  -13.9440   23.5594 C   0  0  0  0  0  0  0  0  0  0  0  0
    9.0183  -14.8094   23.6390 O   0  0  0  0  0  0  0  0  0  0  0  0
    7.6717  -13.2126   24.7160 N   0  0  0  0  0  0  0  0  0  0  0  0
    6.8017  -12.0543   24.7769 C   0  0  0  0  0  0  0  0  0  0  0  0
    5.8536  -12.4998   25.9060 C   0  0  0  0  0  0  0  0  0  0  0  0
    6.8731  -12.9993   26.9067 C   0  0  0  0  0  0  0  0  0  0  0  0
    8.0678  -13.4601   26.0848 C   0  0  1  0  0  0  0  0  0  0  0  0
    8.3027  -14.8550   26.4614 C   0  0  0  0  0  0  0  0  0  0  0  0
    7.4119  -15.7058   26.4949 O   0  0  0  0  0  0  0  0  0  0  0  0
    9.6129  -15.2854   26.8128 N   0  0  0  0  0  0  0  0  0  0  0  0
    9.8976  -16.6885   27.1472 C   0  0  1  0  0  0  0  0  0  0  0  0
   10.8873  -17.2765   26.1752 C   0  0  0  0  0  0  0  0  0  0  0  0
   12.2155  -16.5464   26.2031 C   0  0  0  0  0  0  0  0  0  0  0  0
   12.8348  -16.4965   24.8583 C   0  0  0  0  0  0  0  0  0  0  0  0
   12.2200  -17.0481   23.9061 O   0  0  0  0  0  0  0  0  0  0  0  0
   10.5069  -16.7714   28.4971 C   0  0  0  0  0  0  0  0  0  0  0  0
   10.7372  -18.0094   29.0682 O   0  0  0  0  0  0  0  0  0  0  0  0
   14.0514  -15.8798   24.5778 O   0  0  0  0  0  0  0  0  0  0  0  0
   10.8157  -15.7416   29.1261 O   0  0  0  0  0  0  0  0  0  0  0  0
  2  3  1  0
  2  1  1  6
  3  4  1  0
  5  2  1  0
  5  6  2  0
  7  5  1  0
  8  7  1  0
  9 10  1  0
  9  8  1  0
 10 11  1  0
 11  7  1  0
 11 12  1  6
 12 14  1  0
 13 12  2  0
 14 15  1  0
 15 16  1  6
 16 17  1  0
 17 18  1  0
 18 22  1  0
 18 19  2  0
 20 15  1  0
 20 21  1  0
 23 20  2  0
M  END
$$$$
