CPE.pdb
     RDKit          3D

 23 23  0  0  1  0  0  0  0  0999 V2000
    7.8805  -14.0463   20.8883 N   0  0  0  0  0  0  0  0  0  0  0  0
    7.2147  -14.2106   22.1251 C   0  0  1  0  0  0  0  0  0  0  0  0
    6.2331  -15.3826   22.1128 C   0  0  0  0  0  0  0  0  0  0  0  0
    5.6118  -15.7103   20.4364 S   0  0  0  0  0  0  0  0  0  0  0  0
    8.0387  -14.1980   23.3285 C   0  0  0  0  0  0  0  0  0  0  0  0
    9.0829  -14.9532   23.2412 O   0  0  0  0  0  0  0  0  0  0  0  0
    7.7951  -13.4616   24.5219 N   0  0  0  0  0  0  0  0  0  0  0  0
    6.9822  -12.2709   24.6752 C   0  0  0  0  0  0  0  0  0  0  0  0
    6.1355  -12.6886   25.8922 C   0  0  0  0  0  0  0  0  0  0  0  0
    7.2298  -13.2357   26.7829 C   0  0  0  0  0  0  0  0  0  0  0  0
    8.3167  -13.7358   25.8427 C   0  0  1  0  0  0  0  0  0  0  0  0
    8.5329  -15.1419   26.1875 C   0  0  0  0  0  0  0  0  0  0  0  0
    7.6398  -15.9904   26.1590 O   0  0  0  0  0  0  0  0  0  0  0  0
    9.8265  -15.5866   26.5801 N   0  0  0  0  0  0  0  0  0  0  0  0
   10.1158  -17.0112   26.8008 C   0  0  1  0  0  0  0  0  0  0  0  0
   11.2945  -17.4491   25.9706 C   0  0  0  0  0  0  0  0  0  0  0  0
   12.3926  -16.4046   25.9451 C   0  0  0  0  0  0  0  0  0  0  0  0
   13.5177  -16.8221   25.0766 C   0  0  0  0  0  0  0  0  0  0  0  0
   14.3790  -17.6030   25.5637 O   0  0  0  0  0  0  0  0  0  0  0  0
   10.4722  -17.2389   28.2225 C   0  0  0  0  0  0  0  0  0  0  0  0
   10.7405  -18.5218   28.6629 O   0  0  0  0  0  0  0  0  0  0  0  0
   13.6854  -16.4084   23.7576 O   0  0  0  0  0  0  0  0  0  0  0  0
   10.5344  -16.2910   29.0282 O   0  0  0  0  0  0  0  0  0  0  0  0
  2  3  1  0
  2  1  1  6
  3  4  1  0
  5  2  1  0
  5  6  2  0
  7  5  1  0
  8  7  1  0
  9 10  1  0
  9  8  1  0
 10 11  1  0
 11  7  1  0
 11 12  1  6
 12 14  1  0
 13 12  2  0
 14 15  1  0
 15 16  1  6
 16 17  1  0
 17 18  1  0
 18 22  1  0
 18 19  2  0
 20 15  1  0
 20 21  1  0
 23 20  2  0
M  END
$$$$
