CPE.pdb
     RDKit          3D

 23 23  0  0  1  0  0  0  0  0999 V2000
   10.0845  -15.4079   16.3008 N   0  0  0  0  0  0  0  0  0  0  0  0
    9.0210  -15.4142   17.2329 C   0  0  1  0  0  0  0  0  0  0  0  0
    8.1308  -16.6499   17.1003 C   0  0  0  0  0  0  0  0  0  0  0  0
    7.7329  -17.3588   18.7259 S   0  0  0  0  0  0  0  0  0  0  0  0
    9.3561  -15.1263   18.6229 C   0  0  0  0  0  0  0  0  0  0  0  0
   10.3459  -15.8277   19.0663 O   0  0  0  0  0  0  0  0  0  0  0  0
    8.7140  -14.1875   19.4787 N   0  0  0  0  0  0  0  0  0  0  0  0
    7.7801  -13.1440   19.1031 C   0  0  0  0  0  0  0  0  0  0  0  0
    6.6672  -13.4068   20.1350 C   0  0  0  0  0  0  0  0  0  0  0  0
    7.5112  -13.5483   21.3832 C   0  0  0  0  0  0  0  0  0  0  0  0
    8.8631  -14.0634   20.9119 C   0  0  1  0  0  0  0  0  0  0  0  0
    9.1071  -15.2983   21.6590 C   0  0  0  0  0  0  0  0  0  0  0  0
    8.4261  -16.3164   21.5239 O   0  0  0  0  0  0  0  0  0  0  0  0
   10.1756  -15.3623   22.5969 N   0  0  0  0  0  0  0  0  0  0  0  0
   10.5108  -16.6113   23.2967 C   0  0  1  0  0  0  0  0  0  0  0  0
   11.9582  -16.9698   23.0804 C   0  0  0  0  0  0  0  0  0  0  0  0
   12.8930  -16.0409   23.8292 C   0  0  0  0  0  0  0  0  0  0  0  0
   14.3120  -16.3445   23.5314 C   0  0  0  0  0  0  0  0  0  0  0  0
   14.9181  -15.5911   22.7228 O   0  0  0  0  0  0  0  0  0  0  0  0
   10.3154  -16.4390   24.7569 C   0  0  0  0  0  0  0  0  0  0  0  0
    9.9111  -15.2131   25.2524 O   0  0  0  0  0  0  0  0  0  0  0  0
   15.0196  -17.4076   24.0867 O   0  0  0  0  0  0  0  0  0  0  0  0
   10.5095  -17.3828   25.5461 O   0  0  0  0  0  0  0  0  0  0  0  0
  2  3  1  0
  2  1  1  6
  3  4  1  0
  5  2  1  0
  5  6  2  0
  7  5  1  0
  8  7  1  0
  9 10  1  0
  9  8  1  0
 10 11  1  0
 11  7  1  0
 11 12  1  1
 12 14  1  0
 13 12  2  0
 14 15  1  0
 15 16  1  1
 16 17  1  0
 17 18  1  0
 18 22  1  0
 18 19  2  0
 20 15  1  0
 20 21  1  0
 23 20  2  0
M  END
$$$$
