YPM.pdb
     RDKit          3D

 28 29  0  0  1  0  0  0  0  0999 V2000
   20.4451  -15.1602  -17.1370 O   0  0  0  0  0  0  0  0  0  0  0  0
   21.1588  -16.0971  -16.3831 C   0  0  0  0  0  0  0  0  0  0  0  0
   22.4473  -15.8595  -16.0258 C   0  0  0  0  0  0  0  0  0  0  0  0
   23.1463  -16.8010  -15.2776 C   0  0  0  0  0  0  0  0  0  0  0  0
   22.5696  -17.9877  -14.8773 C   0  0  0  0  0  0  0  0  0  0  0  0
   23.2921  -18.9914  -14.0845 C   0  0  0  0  0  0  0  0  0  0  0  0
   24.1137  -19.9278  -14.9568 C   0  0  2  0  0  0  0  0  0  0  0  0
   23.3244  -20.6404  -15.9081 N   0  0  0  0  0  0  0  0  0  0  0  0
   25.0445  -20.7661  -14.1655 C   0  0  0  0  0  0  0  0  0  0  0  0
   24.6228  -21.9409  -13.8747 O   0  0  0  0  0  0  0  0  0  0  0  0
   21.2590  -18.2029  -15.2548 C   0  0  0  0  0  0  0  0  0  0  0  0
   20.5533  -17.2731  -15.9995 C   0  0  0  0  0  0  0  0  0  0  0  0
   26.3293  -20.3239  -13.7400 N   0  0  0  0  0  0  0  0  0  0  0  0
   26.9744  -19.1531  -14.2069 C   0  0  0  0  0  0  0  0  0  0  0  0
   28.2795  -19.0916  -13.4435 C   0  0  0  0  0  0  0  0  0  0  0  0
   28.5337  -20.5708  -13.0820 C   0  0  0  0  0  0  0  0  0  0  0  0
   27.1320  -20.9915  -12.7812 C   0  0  1  0  0  0  0  0  0  0  0  0
   26.7438  -20.6996  -11.3752 C   0  0  0  0  0  0  0  0  0  0  0  0
   26.2892  -19.5586  -11.1355 O   0  0  0  0  0  0  0  0  0  0  0  0
   28.4943  -17.8866   -6.0193 C   0  0  0  0  0  0  0  0  0  0  0  0
   28.2581  -19.6565   -5.7147 S   0  0  0  0  0  0  0  0  0  0  0  0
   26.9797  -20.3437   -6.7656 C   0  0  0  0  0  0  0  0  0  0  0  0
   27.3942  -20.8275   -8.1026 C   0  0  0  0  0  0  0  0  0  0  0  0
   26.3361  -21.3953   -8.9571 C   0  0  2  0  0  0  0  0  0  0  0  0
   26.8601  -21.6230  -10.3251 N   0  0  0  0  0  0  0  0  0  0  0  0
   25.0277  -20.7681   -9.0202 C   0  0  0  0  0  0  0  0  0  0  0  0
   24.0887  -21.0531   -8.0039 O   0  0  0  0  0  0  0  0  0  0  0  0
   24.6373  -19.9931   -9.8877 O   0  0  0  0  0  0  0  0  0  0  0  0
  2  1  1  0
  3  2  2  0
  4  3  1  0
  5 11  1  0
  5  4  2  0
  6  7  1  0
  6  5  1  0
  7  8  1  1
  7  9  1  0
  9 10  2  0
 11 12  2  0
 12  2  1  0
 13  9  1  0
 13 14  1  0
 15 14  1  0
 16 15  1  0
 17 16  1  0
 17 13  1  0
 17 18  1  1
 18 19  2  0
 20 21  1  0
 22 23  1  0
 22 21  1  0
 24 23  1  1
 24 26  1  0
 24 25  1  0
 25 18  1  0
 26 27  1  0
 28 26  2  0
M  END
$$$$
