YPM.pdb
     RDKit          3D

 28 29  0  0  1  0  0  0  0  0999 V2000
   27.5519  -19.7388   -6.3573 O   0  0  0  0  0  0  0  0  0  0  0  0
   26.9321  -19.9030   -7.6000 C   0  0  0  0  0  0  0  0  0  0  0  0
   26.6593  -18.8279   -8.3836 C   0  0  0  0  0  0  0  0  0  0  0  0
   26.0405  -19.0053   -9.6168 C   0  0  0  0  0  0  0  0  0  0  0  0
   25.6879  -20.2544  -10.0821 C   0  0  0  0  0  0  0  0  0  0  0  0
   25.0368  -20.4600  -11.3828 C   0  0  0  0  0  0  0  0  0  0  0  0
   26.0239  -20.8918  -12.4560 C   0  0  2  0  0  0  0  0  0  0  0  0
   27.1962  -20.0794  -12.4952 N   0  0  0  0  0  0  0  0  0  0  0  0
   25.3720  -21.1100  -13.7687 C   0  0  0  0  0  0  0  0  0  0  0  0
   25.4852  -20.1508  -14.6110 O   0  0  0  0  0  0  0  0  0  0  0  0
   25.9769  -21.3291   -9.2648 C   0  0  0  0  0  0  0  0  0  0  0  0
   26.5924  -21.1647   -8.0355 C   0  0  0  0  0  0  0  0  0  0  0  0
   24.6584  -22.2961  -14.1022 N   0  0  0  0  0  0  0  0  0  0  0  0
   24.6790  -23.4902  -13.3414 C   0  0  0  0  0  0  0  0  0  0  0  0
   23.7488  -24.4365  -14.0689 C   0  0  0  0  0  0  0  0  0  0  0  0
   23.7851  -23.9045  -15.5176 C   0  0  0  0  0  0  0  0  0  0  0  0
   23.8206  -22.4375  -15.2368 C   0  0  1  0  0  0  0  0  0  0  0  0
   22.4606  -21.8658  -15.0455 C   0  0  0  0  0  0  0  0  0  0  0  0
   22.1405  -21.5357  -13.8816 O   0  0  0  0  0  0  0  0  0  0  0  0
   24.2603  -17.2069  -15.7175 C   0  0  0  0  0  0  0  0  0  0  0  0
   22.8013  -16.6616  -16.6424 S   0  0  0  0  0  0  0  0  0  0  0  0
   21.5562  -17.9472  -16.7318 C   0  0  0  0  0  0  0  0  0  0  0  0
   21.9915  -19.3294  -16.4258 C   0  0  0  0  0  0  0  0  0  0  0  0
   20.9496  -20.3715  -16.4532 C   0  0  2  0  0  0  0  0  0  0  0  0
   21.5372  -21.6822  -16.0860 N   0  0  0  0  0  0  0  0  0  0  0  0
   20.0868  -20.5169  -17.6124 C   0  0  0  0  0  0  0  0  0  0  0  0
   18.8205  -19.8907  -17.5986 O   0  0  0  0  0  0  0  0  0  0  0  0
   20.3466  -21.1442  -18.6344 O   0  0  0  0  0  0  0  0  0  0  0  0
  2  1  1  0
  3  2  2  0
  4  3  1  0
  5 11  1  0
  5  4  2  0
  6  7  1  0
  6  5  1  0
  7  8  1  6
  7  9  1  0
  9 10  2  0
 11 12  2  0
 12  2  1  0
 13  9  1  0
 13 14  1  0
 15 14  1  0
 16 15  1  0
 17 16  1  0
 17 13  1  0
 17 18  1  1
 18 19  2  0
 20 21  1  0
 22 23  1  0
 22 21  1  0
 24 23  1  6
 24 26  1  0
 24 25  1  0
 25 18  1  0
 26 27  1  0
 28 26  2  0
M  END
$$$$
