YPM.pdb
     RDKit          3D

 28 29  0  0  1  0  0  0  0  0999 V2000
   20.5326  -14.7177  -19.3248 O   0  0  0  0  0  0  0  0  0  0  0  0
   21.2009  -15.5367  -18.4093 C   0  0  0  0  0  0  0  0  0  0  0  0
   22.5340  -15.3900  -18.1956 C   0  0  0  0  0  0  0  0  0  0  0  0
   23.1868  -16.2129  -17.2837 C   0  0  0  0  0  0  0  0  0  0  0  0
   22.5190  -17.1893  -16.5752 C   0  0  0  0  0  0  0  0  0  0  0  0
   23.1920  -18.0648  -15.6064 C   0  0  0  0  0  0  0  0  0  0  0  0
   23.7511  -19.3193  -16.2594 C   0  0  2  0  0  0  0  0  0  0  0  0
   22.7469  -20.1191  -16.8820 N   0  0  0  0  0  0  0  0  0  0  0  0
   24.6725  -20.0591  -15.3654 C   0  0  0  0  0  0  0  0  0  0  0  0
   24.1648  -21.0649  -14.7546 O   0  0  0  0  0  0  0  0  0  0  0  0
   21.1648  -17.3164  -16.8127 C   0  0  0  0  0  0  0  0  0  0  0  0
   20.5045  -16.5031  -17.7179 C   0  0  0  0  0  0  0  0  0  0  0  0
   26.0372  -19.7004  -15.1753 N   0  0  0  0  0  0  0  0  0  0  0  0
   26.7140  -18.6908  -15.9017 C   0  0  0  0  0  0  0  0  0  0  0  0
   28.1110  -18.6573  -15.3208 C   0  0  0  0  0  0  0  0  0  0  0  0
   28.2798  -20.0838  -14.7552 C   0  0  0  0  0  0  0  0  0  0  0  0
   26.9003  -20.2991  -14.2236 C   0  0  1  0  0  0  0  0  0  0  0  0
   26.7340  -19.7578  -12.8480 C   0  0  0  0  0  0  0  0  0  0  0  0
   26.5722  -18.5217  -12.7386 O   0  0  0  0  0  0  0  0  0  0  0  0
   20.8669  -21.6479  -11.5372 C   0  0  0  0  0  0  0  0  0  0  0  0
   21.9610  -20.2635  -11.1282 S   0  0  0  0  0  0  0  0  0  0  0  0
   23.6788  -20.7710  -11.0757 C   0  0  0  0  0  0  0  0  0  0  0  0
   24.6788  -19.7311  -10.7412 C   0  0  0  0  0  0  0  0  0  0  0  0
   26.0422  -20.1997  -10.4348 C   0  0  2  0  0  0  0  0  0  0  0  0
   26.7493  -20.5499  -11.6899 N   0  0  0  0  0  0  0  0  0  0  0  0
   26.2569  -21.2308   -9.4349 C   0  0  0  0  0  0  0  0  0  0  0  0
   26.4331  -22.5655   -9.8633 O   0  0  0  0  0  0  0  0  0  0  0  0
   26.3033  -21.0631   -8.2203 O   0  0  0  0  0  0  0  0  0  0  0  0
  2  1  1  0
  3  2  2  0
  4  3  1  0
  5 11  1  0
  5  4  2  0
  6  7  1  0
  6  5  1  0
  7  8  1  1
  7  9  1  0
  9 10  2  0
 11 12  2  0
 12  2  1  0
 13  9  1  0
 13 14  1  0
 15 14  1  0
 16 15  1  0
 17 16  1  0
 17 13  1  0
 17 18  1  1
 18 19  2  0
 20 21  1  0
 22 23  1  0
 22 21  1  0
 24 23  1  6
 24 26  1  0
 24 25  1  0
 25 18  1  0
 26 27  1  0
 28 26  2  0
M  END
$$$$
