YPM.pdb
     RDKit          3D

 28 29  0  0  1  0  0  0  0  0999 V2000
   28.7394  -19.0600   -4.4218 O   0  0  0  0  0  0  0  0  0  0  0  0
   28.2500  -19.5518   -5.6360 C   0  0  0  0  0  0  0  0  0  0  0  0
   29.0788  -19.7168   -6.6991 C   0  0  0  0  0  0  0  0  0  0  0  0
   28.5783  -20.2049   -7.9017 C   0  0  0  0  0  0  0  0  0  0  0  0
   27.2485  -20.5340   -8.0576 C   0  0  0  0  0  0  0  0  0  0  0  0
   26.7040  -21.0533   -9.3193 C   0  0  0  0  0  0  0  0  0  0  0  0
   25.8161  -20.0378  -10.0214 C   0  0  2  0  0  0  0  0  0  0  0  0
   24.5314  -19.9062   -9.4148 N   0  0  0  0  0  0  0  0  0  0  0  0
   25.7957  -20.2255  -11.4911 C   0  0  0  0  0  0  0  0  0  0  0  0
   24.6554  -20.5181  -11.9976 O   0  0  0  0  0  0  0  0  0  0  0  0
   26.4290  -20.3558   -6.9607 C   0  0  0  0  0  0  0  0  0  0  0  0
   26.9159  -19.8708   -5.7588 C   0  0  0  0  0  0  0  0  0  0  0  0
   26.9505  -20.0970  -12.3141 N   0  0  0  0  0  0  0  0  0  0  0  0
   28.2840  -20.2404  -11.8600 C   0  0  0  0  0  0  0  0  0  0  0  0
   29.1417  -20.0558  -13.0931 C   0  0  0  0  0  0  0  0  0  0  0  0
   28.2433  -19.1963  -14.0083 C   0  0  0  0  0  0  0  0  0  0  0  0
   26.9199  -19.8192  -13.7037 C   0  0  1  0  0  0  0  0  0  0  0  0
   26.6530  -21.0179  -14.5431 C   0  0  0  0  0  0  0  0  0  0  0  0
   27.3998  -22.0080  -14.3753 O   0  0  0  0  0  0  0  0  0  0  0  0
   22.6299  -26.6786  -14.1725 C   0  0  0  0  0  0  0  0  0  0  0  0
   23.9927  -25.4911  -14.2897 S   0  0  0  0  0  0  0  0  0  0  0  0
   23.4301  -23.8104  -14.0258 C   0  0  0  0  0  0  0  0  0  0  0  0
   24.4350  -22.7324  -14.1729 C   0  0  0  0  0  0  0  0  0  0  0  0
   24.5890  -22.1517  -15.5187 C   0  0  2  0  0  0  0  0  0  0  0  0
   25.6249  -21.0915  -15.4953 N   0  0  0  0  0  0  0  0  0  0  0  0
   23.4255  -21.6983  -16.2603 C   0  0  0  0  0  0  0  0  0  0  0  0
   23.0037  -20.3585  -16.1088 O   0  0  0  0  0  0  0  0  0  0  0  0
   22.7479  -22.3740  -17.0283 O   0  0  0  0  0  0  0  0  0  0  0  0
  2  1  1  0
  3  2  2  0
  4  3  1  0
  5 11  1  0
  5  4  2  0
  6  7  1  0
  6  5  1  0
  7  8  1  1
  7  9  1  0
  9 10  2  0
 11 12  2  0
 12  2  1  0
 13  9  1  0
 13 14  1  0
 15 14  1  0
 16 15  1  0
 17 16  1  0
 17 13  1  0
 17 18  1  6
 18 19  2  0
 20 21  1  0
 22 23  1  0
 22 21  1  0
 24 23  1  1
 24 26  1  0
 24 25  1  0
 25 18  1  0
 26 27  1  0
 28 26  2  0
M  END
$$$$
