YPM.pdb
     RDKit          3D

 28 29  0  0  1  0  0  0  0  0999 V2000
   18.7912  -18.1959  -16.1607 O   0  0  0  0  0  0  0  0  0  0  0  0
   19.8810  -18.7866  -15.5133 C   0  0  0  0  0  0  0  0  0  0  0  0
   21.0718  -18.1387  -15.4339 C   0  0  0  0  0  0  0  0  0  0  0  0
   22.1483  -18.7387  -14.7889 C   0  0  0  0  0  0  0  0  0  0  0  0
   22.0498  -19.9891  -14.2162 C   0  0  0  0  0  0  0  0  0  0  0  0
   23.1753  -20.6361  -13.5288 C   0  0  0  0  0  0  0  0  0  0  0  0
   24.1870  -21.2152  -14.5055 C   0  0  2  0  0  0  0  0  0  0  0  0
   23.6215  -22.1871  -15.3837 N   0  0  0  0  0  0  0  0  0  0  0  0
   25.4421  -21.6330  -13.8378 C   0  0  0  0  0  0  0  0  0  0  0  0
   25.5335  -22.8804  -13.5584 O   0  0  0  0  0  0  0  0  0  0  0  0
   20.8278  -20.6247  -14.3122 C   0  0  0  0  0  0  0  0  0  0  0  0
   19.7494  -20.0373  -14.9518 C   0  0  0  0  0  0  0  0  0  0  0  0
   26.4955  -20.7316  -13.5136 N   0  0  0  0  0  0  0  0  0  0  0  0
   26.7052  -19.4785  -14.1388 C   0  0  0  0  0  0  0  0  0  0  0  0
   27.9052  -18.8833  -13.4348 C   0  0  0  0  0  0  0  0  0  0  0  0
   28.6467  -20.1314  -12.9096 C   0  0  0  0  0  0  0  0  0  0  0  0
   27.4710  -20.9628  -12.5115 C   0  0  1  0  0  0  0  0  0  0  0  0
   26.9962  -20.6486  -11.1371 C   0  0  0  0  0  0  0  0  0  0  0  0
   26.0055  -19.8907  -11.0365 O   0  0  0  0  0  0  0  0  0  0  0  0
   30.1039  -19.9921   -4.8490 C   0  0  0  0  0  0  0  0  0  0  0  0
   28.7578  -18.9198   -5.4139 S   0  0  0  0  0  0  0  0  0  0  0  0
   27.5806  -19.8138   -6.4268 C   0  0  0  0  0  0  0  0  0  0  0  0
   28.0270  -20.2198   -7.7794 C   0  0  0  0  0  0  0  0  0  0  0  0
   27.0493  -20.9494   -8.6065 C   0  0  2  0  0  0  0  0  0  0  0  0
   27.5933  -21.1508   -9.9708 N   0  0  0  0  0  0  0  0  0  0  0  0
   25.6695  -20.5020   -8.6787 C   0  0  0  0  0  0  0  0  0  0  0  0
   24.6563  -21.3404   -8.1627 O   0  0  0  0  0  0  0  0  0  0  0  0
   25.2762  -19.4414   -9.1541 O   0  0  0  0  0  0  0  0  0  0  0  0
  2  1  1  0
  3  2  2  0
  4  3  1  0
  5 11  1  0
  5  4  2  0
  6  7  1  0
  6  5  1  0
  7  8  1  1
  7  9  1  0
  9 10  2  0
 11 12  2  0
 12  2  1  0
 13  9  1  0
 13 14  1  0
 15 14  1  0
 16 15  1  0
 17 16  1  0
 17 13  1  0
 17 18  1  1
 18 19  2  0
 20 21  1  0
 22 23  1  0
 22 21  1  0
 24 23  1  6
 24 26  1  0
 24 25  1  0
 25 18  1  0
 26 27  1  0
 28 26  2  0
M  END
$$$$
