YPM.pdb
     RDKit          3D

 28 29  0  0  1  0  0  0  0  0999 V2000
   19.6505  -21.1305  -12.0079 O   0  0  0  0  0  0  0  0  0  0  0  0
   20.7647  -20.7408  -12.7576 C   0  0  0  0  0  0  0  0  0  0  0  0
   20.6860  -20.6362  -14.1094 C   0  0  0  0  0  0  0  0  0  0  0  0
   21.8027  -20.2496  -14.8431 C   0  0  0  0  0  0  0  0  0  0  0  0
   23.0083  -19.9628  -14.2387 C   0  0  0  0  0  0  0  0  0  0  0  0
   24.1963  -19.5504  -14.9979 C   0  0  0  0  0  0  0  0  0  0  0  0
   25.0026  -20.7413  -15.4921 C   0  0  2  0  0  0  0  0  0  0  0  0
   24.2371  -21.6389  -16.2947 N   0  0  0  0  0  0  0  0  0  0  0  0
   25.7833  -21.3839  -14.4091 C   0  0  0  0  0  0  0  0  0  0  0  0
   25.3746  -22.5418  -14.0420 O   0  0  0  0  0  0  0  0  0  0  0  0
   23.0597  -20.0778  -12.8637 C   0  0  0  0  0  0  0  0  0  0  0  0
   21.9547  -20.4617  -12.1230 C   0  0  0  0  0  0  0  0  0  0  0  0
   26.9174  -20.7800  -13.7954 N   0  0  0  0  0  0  0  0  0  0  0  0
   27.4956  -19.5528  -14.2013 C   0  0  0  0  0  0  0  0  0  0  0  0
   28.6348  -19.3154  -13.2339 C   0  0  0  0  0  0  0  0  0  0  0  0
   28.9897  -20.7436  -12.7674 C   0  0  0  0  0  0  0  0  0  0  0  0
   27.6144  -21.3214  -12.6863 C   0  0  1  0  0  0  0  0  0  0  0  0
   26.9601  -21.0417  -11.3799 C   0  0  0  0  0  0  0  0  0  0  0  0
   26.1219  -20.1129  -11.3505 O   0  0  0  0  0  0  0  0  0  0  0  0
   28.3302  -19.1317   -4.0916 C   0  0  0  0  0  0  0  0  0  0  0  0
   28.9038  -19.7731   -5.6856 S   0  0  0  0  0  0  0  0  0  0  0  0
   27.5378  -20.3162   -6.7103 C   0  0  0  0  0  0  0  0  0  0  0  0
   27.8727  -20.8638   -8.0450 C   0  0  0  0  0  0  0  0  0  0  0  0
   26.7466  -21.3550   -8.8592 C   0  0  2  0  0  0  0  0  0  0  0  0
   27.2315  -21.7545  -10.2021 N   0  0  0  0  0  0  0  0  0  0  0  0
   25.5302  -20.5708   -8.9791 C   0  0  0  0  0  0  0  0  0  0  0  0
   25.5792  -19.3448   -9.6795 O   0  0  0  0  0  0  0  0  0  0  0  0
   24.4299  -20.8669   -8.5238 O   0  0  0  0  0  0  0  0  0  0  0  0
  2  1  1  0
  3  2  2  0
  4  3  1  0
  5 11  1  0
  5  4  2  0
  6  7  1  0
  6  5  1  0
  7  8  1  1
  7  9  1  0
  9 10  2  0
 11 12  2  0
 12  2  1  0
 13  9  1  0
 13 14  1  0
 15 14  1  0
 16 15  1  0
 17 16  1  0
 17 13  1  0
 17 18  1  1
 18 19  2  0
 20 21  1  0
 22 23  1  0
 22 21  1  0
 24 23  1  6
 24 26  1  0
 24 25  1  0
 25 18  1  0
 26 27  1  0
 28 26  2  0
M  END
$$$$
