YPM.pdb
     RDKit          3D

 28 29  0  0  1  0  0  0  0  0999 V2000
   18.2843  -19.2943  -16.0452 O   0  0  0  0  0  0  0  0  0  0  0  0
   19.4616  -19.7713  -15.4605 C   0  0  0  0  0  0  0  0  0  0  0  0
   19.5602  -21.0660  -15.0626 C   0  0  0  0  0  0  0  0  0  0  0  0
   20.7365  -21.5269  -14.4805 C   0  0  0  0  0  0  0  0  0  0  0  0
   21.8261  -20.7039  -14.2894 C   0  0  0  0  0  0  0  0  0  0  0  0
   23.0767  -21.1748  -13.6792 C   0  0  0  0  0  0  0  0  0  0  0  0
   24.1625  -21.4214  -14.7150 C   0  0  2  0  0  0  0  0  0  0  0  0
   23.7773  -22.3651  -15.7133 N   0  0  0  0  0  0  0  0  0  0  0  0
   25.4861  -21.6716  -14.0976 C   0  0  0  0  0  0  0  0  0  0  0  0
   25.7899  -22.9033  -13.9160 O   0  0  0  0  0  0  0  0  0  0  0  0
   21.6978  -19.3928  -14.7030 C   0  0  0  0  0  0  0  0  0  0  0  0
   20.5320  -18.9229  -15.2835 C   0  0  0  0  0  0  0  0  0  0  0  0
   26.3837  -20.6332  -13.7189 N   0  0  0  0  0  0  0  0  0  0  0  0
   26.3806  -19.3264  -14.2643 C   0  0  0  0  0  0  0  0  0  0  0  0
   27.4769  -18.5893  -13.5261 C   0  0  0  0  0  0  0  0  0  0  0  0
   28.4165  -19.7308  -13.0818 C   0  0  0  0  0  0  0  0  0  0  0  0
   27.3954  -20.7648  -12.7350 C   0  0  1  0  0  0  0  0  0  0  0  0
   26.8923  -20.6175  -11.3428 C   0  0  0  0  0  0  0  0  0  0  0  0
   25.7660  -20.0918  -11.1973 O   0  0  0  0  0  0  0  0  0  0  0  0
   28.3206  -19.2573   -3.7460 C   0  0  0  0  0  0  0  0  0  0  0  0
   28.9283  -19.4007   -5.4463 S   0  0  0  0  0  0  0  0  0  0  0  0
   27.7086  -20.1510   -6.5236 C   0  0  0  0  0  0  0  0  0  0  0  0
   28.1149  -20.4102   -7.9240 C   0  0  0  0  0  0  0  0  0  0  0  0
   27.0800  -20.9519   -8.8228 C   0  0  2  0  0  0  0  0  0  0  0  0
   27.6050  -21.0310  -10.2070 N   0  0  0  0  0  0  0  0  0  0  0  0
   25.7419  -20.3874   -8.8264 C   0  0  0  0  0  0  0  0  0  0  0  0
   24.7319  -21.0306   -8.0767 O   0  0  0  0  0  0  0  0  0  0  0  0
   25.3823  -19.3807   -9.4288 O   0  0  0  0  0  0  0  0  0  0  0  0
  2  1  1  0
  3  2  2  0
  4  3  1  0
  5 11  1  0
  5  4  2  0
  6  7  1  0
  6  5  1  0
  7  8  1  1
  7  9  1  0
  9 10  2  0
 11 12  2  0
 12  2  1  0
 13  9  1  0
 13 14  1  0
 15 14  1  0
 16 15  1  0
 17 16  1  0
 17 13  1  0
 17 18  1  1
 18 19  2  0
 20 21  1  0
 22 23  1  0
 22 21  1  0
 24 23  1  1
 24 26  1  0
 24 25  1  0
 25 18  1  0
 26 27  1  0
 28 26  2  0
M  END
$$$$
