YPM.pdb
     RDKit          3D

 28 29  0  0  1  0  0  0  0  0999 V2000
   19.5239  -27.5398  -11.7323 O   0  0  0  0  0  0  0  0  0  0  0  0
   20.1373  -28.5465  -10.9800 C   0  0  0  0  0  0  0  0  0  0  0  0
   19.4055  -29.5692  -10.4672 C   0  0  0  0  0  0  0  0  0  0  0  0
   20.0281  -30.5628   -9.7189 C   0  0  0  0  0  0  0  0  0  0  0  0
   21.3849  -30.5486   -9.4742 C   0  0  0  0  0  0  0  0  0  0  0  0
   22.0588  -31.5911   -8.6888 C   0  0  0  0  0  0  0  0  0  0  0  0
   22.2760  -32.8638   -9.4925 C   0  0  2  0  0  0  0  0  0  0  0  0
   21.0623  -33.4191   -9.9968 N   0  0  0  0  0  0  0  0  0  0  0  0
   23.1611  -33.8273   -8.7970 C   0  0  0  0  0  0  0  0  0  0  0  0
   22.5815  -34.8606   -8.3082 O   0  0  0  0  0  0  0  0  0  0  0  0
   22.1039  -29.4972  -10.0072 C   0  0  0  0  0  0  0  0  0  0  0  0
   21.4951  -28.5025  -10.7536 C   0  0  0  0  0  0  0  0  0  0  0  0
   24.5668  -33.6450   -8.6628 N   0  0  0  0  0  0  0  0  0  0  0  0
   25.2798  -32.5103   -9.1202 C   0  0  0  0  0  0  0  0  0  0  0  0
   26.7172  -32.7605   -8.7187 C   0  0  0  0  0  0  0  0  0  0  0  0
   26.7855  -34.3006   -8.6358 C   0  0  0  0  0  0  0  0  0  0  0  0
   25.4416  -34.5715   -8.0419 C   0  0  1  0  0  0  0  0  0  0  0  0
   25.4503  -34.4768   -6.5574 C   0  0  0  0  0  0  0  0  0  0  0  0
   25.2896  -33.3403   -6.0587 O   0  0  0  0  0  0  0  0  0  0  0  0
   23.2191  -38.4062   -0.0850 C   0  0  0  0  0  0  0  0  0  0  0  0
   23.7001  -38.4668   -1.8303 S   0  0  0  0  0  0  0  0  0  0  0  0
   24.4222  -36.9188   -2.3716 C   0  0  0  0  0  0  0  0  0  0  0  0
   24.6748  -36.7640   -3.8227 C   0  0  0  0  0  0  0  0  0  0  0  0
   25.3857  -35.5432   -4.2431 C   0  0  2  0  0  0  0  0  0  0  0  0
   25.6263  -35.5778   -5.7056 N   0  0  0  0  0  0  0  0  0  0  0  0
   26.5876  -35.1172   -3.5480 C   0  0  0  0  0  0  0  0  0  0  0  0
   27.8290  -35.2180   -4.2148 O   0  0  0  0  0  0  0  0  0  0  0  0
   26.6434  -34.6650   -2.4088 O   0  0  0  0  0  0  0  0  0  0  0  0
  2  1  1  0
  3  2  2  0
  4  3  1  0
  5 11  1  0
  5  4  2  0
  6  7  1  0
  6  5  1  0
  7  8  1  1
  7  9  1  0
  9 10  2  0
 11 12  2  0
 12  2  1  0
 13  9  1  0
 13 14  1  0
 15 14  1  0
 16 15  1  0
 17 16  1  0
 17 13  1  0
 17 18  1  1
 18 19  2  0
 20 21  1  0
 22 23  1  0
 22 21  1  0
 24 23  1  1
 24 26  1  0
 24 25  1  0
 25 18  1  0
 26 27  1  0
 28 26  2  0
M  END
$$$$
