YPM.pdb
     RDKit          3D

 28 29  0  0  1  0  0  0  0  0999 V2000
   26.9375  -15.3030  -18.4654 O   0  0  0  0  0  0  0  0  0  0  0  0
   26.6136  -15.9385  -17.2626 C   0  0  0  0  0  0  0  0  0  0  0  0
   25.3587  -15.8509  -16.7508 C   0  0  0  0  0  0  0  0  0  0  0  0
   25.0506  -16.4863  -15.5524 C   0  0  0  0  0  0  0  0  0  0  0  0
   25.9881  -17.2154  -14.8521 C   0  0  0  0  0  0  0  0  0  0  0  0
   25.6791  -17.8950  -13.5870 C   0  0  0  0  0  0  0  0  0  0  0  0
   25.4624  -19.3883  -13.7765 C   0  0  2  0  0  0  0  0  0  0  0  0
   24.2646  -19.6921  -14.4898 N   0  0  0  0  0  0  0  0  0  0  0  0
   25.6505  -20.1506  -12.5199 C   0  0  0  0  0  0  0  0  0  0  0  0
   24.5781  -20.4413  -11.8812 O   0  0  0  0  0  0  0  0  0  0  0  0
   27.2554  -17.2873  -15.3954 C   0  0  0  0  0  0  0  0  0  0  0  0
   27.5737  -16.6591  -16.5875 C   0  0  0  0  0  0  0  0  0  0  0  0
   26.9259  -20.5479  -12.0272 N   0  0  0  0  0  0  0  0  0  0  0  0
   28.1647  -20.1700  -12.5996 C   0  0  0  0  0  0  0  0  0  0  0  0
   29.2166  -20.7990  -11.7120 C   0  0  0  0  0  0  0  0  0  0  0  0
   28.4672  -21.9972  -11.0908 C   0  0  0  0  0  0  0  0  0  0  0  0
   27.1277  -21.3673  -10.8883 C   0  0  1  0  0  0  0  0  0  0  0  0
   27.0404  -20.6267   -9.6011 C   0  0  0  0  0  0  0  0  0  0  0  0
   27.3698  -19.4195   -9.6155 O   0  0  0  0  0  0  0  0  0  0  0  0
   23.8295  -21.9106   -4.0000 C   0  0  0  0  0  0  0  0  0  0  0  0
   25.2430  -20.8851   -3.5188 S   0  0  0  0  0  0  0  0  0  0  0  0
   26.6437  -21.1363   -4.6078 C   0  0  0  0  0  0  0  0  0  0  0  0
   26.3486  -21.5127   -6.0095 C   0  0  0  0  0  0  0  0  0  0  0  0
   26.8698  -20.6174   -7.0578 C   0  0  2  0  0  0  0  0  0  0  0  0
   26.6149  -21.2043   -8.3951 N   0  0  0  0  0  0  0  0  0  0  0  0
   28.2298  -20.1132   -6.9834 C   0  0  0  0  0  0  0  0  0  0  0  0
   28.4574  -18.8635   -6.3649 O   0  0  0  0  0  0  0  0  0  0  0  0
   29.2339  -20.6725   -7.4128 O   0  0  0  0  0  0  0  0  0  0  0  0
  2  1  1  0
  3  2  2  0
  4  3  1  0
  5 11  1  0
  5  4  2  0
  6  7  1  0
  6  5  1  0
  7  8  1  1
  7  9  1  0
  9 10  2  0
 11 12  2  0
 12  2  1  0
 13  9  1  0
 13 14  1  0
 15 14  1  0
 16 15  1  0
 17 16  1  0
 17 13  1  0
 17 18  1  1
 18 19  2  0
 20 21  1  0
 22 23  1  0
 22 21  1  0
 24 23  1  1
 24 26  1  0
 24 25  1  0
 25 18  1  0
 26 27  1  0
 28 26  2  0
M  END
$$$$
