YPM.pdb
     RDKit          3D

 28 29  0  0  1  0  0  0  0  0999 V2000
   29.4581  -15.0567  -18.5348 O   0  0  0  0  0  0  0  0  0  0  0  0
   28.7787  -15.6097  -17.4448 C   0  0  0  0  0  0  0  0  0  0  0  0
   27.9297  -14.8523  -16.7032 C   0  0  0  0  0  0  0  0  0  0  0  0
   27.2619  -15.4146  -15.6202 C   0  0  0  0  0  0  0  0  0  0  0  0
   27.4320  -16.7360  -15.2654 C   0  0  0  0  0  0  0  0  0  0  0  0
   26.7327  -17.3465  -14.1269 C   0  0  0  0  0  0  0  0  0  0  0  0
   25.6437  -18.3099  -14.5729 C   0  0  2  0  0  0  0  0  0  0  0  0
   24.5727  -17.6627  -15.2583 N   0  0  0  0  0  0  0  0  0  0  0  0
   25.2253  -19.2305  -13.4898 C   0  0  0  0  0  0  0  0  0  0  0  0
   24.2999  -18.7950  -12.7177 O   0  0  0  0  0  0  0  0  0  0  0  0
   28.3010  -17.4822  -16.0365 C   0  0  0  0  0  0  0  0  0  0  0  0
   28.9712  -16.9333  -17.1166 C   0  0  0  0  0  0  0  0  0  0  0  0
   25.7955  -20.5203  -13.2931 N   0  0  0  0  0  0  0  0  0  0  0  0
   26.8911  -21.0377  -14.0260 C   0  0  0  0  0  0  0  0  0  0  0  0
   27.1492  -22.4064  -13.4344 C   0  0  0  0  0  0  0  0  0  0  0  0
   25.7729  -22.7911  -12.8504 C   0  0  0  0  0  0  0  0  0  0  0  0
   25.3496  -21.4571  -12.3274 C   0  0  1  0  0  0  0  0  0  0  0  0
   25.8726  -21.1946  -10.9598 C   0  0  0  0  0  0  0  0  0  0  0  0
   27.1003  -20.9770  -10.8520 O   0  0  0  0  0  0  0  0  0  0  0  0
   28.7002  -20.1514   -4.7771 C   0  0  0  0  0  0  0  0  0  0  0  0
   28.5746  -19.5899   -6.4947 S   0  0  0  0  0  0  0  0  0  0  0  0
   26.8675  -19.3971   -7.0044 C   0  0  0  0  0  0  0  0  0  0  0  0
   26.5102  -19.8783   -8.3587 C   0  0  0  0  0  0  0  0  0  0  0  0
   25.6025  -21.0374   -8.4300 C   0  0  2  0  0  0  0  0  0  0  0  0
   25.0724  -21.1792   -9.8072 N   0  0  0  0  0  0  0  0  0  0  0  0
   24.5301  -21.1908   -7.4626 C   0  0  0  0  0  0  0  0  0  0  0  0
   23.2006  -21.2812   -7.9318 O   0  0  0  0  0  0  0  0  0  0  0  0
   24.6577  -21.2524   -6.2438 O   0  0  0  0  0  0  0  0  0  0  0  0
  2  1  1  0
  3  2  2  0
  4  3  1  0
  5 11  1  0
  5  4  2  0
  6  7  1  0
  6  5  1  0
  7  8  1  1
  7  9  1  0
  9 10  2  0
 11 12  2  0
 12  2  1  0
 13  9  1  0
 13 14  1  0
 15 14  1  0
 16 15  1  0
 17 16  1  0
 17 13  1  0
 17 18  1  1
 18 19  2  0
 20 21  1  0
 22 23  1  0
 22 21  1  0
 24 23  1  6
 24 26  1  0
 24 25  1  0
 25 18  1  0
 26 27  1  0
 28 26  2  0
M  END
$$$$
