YPM.pdb
     RDKit          3D

 28 29  0  0  1  0  0  0  0  0999 V2000
   21.3742  -17.1525  -16.7884 O   0  0  0  0  0  0  0  0  0  0  0  0
   22.0105  -17.8171  -15.7353 C   0  0  0  0  0  0  0  0  0  0  0  0
   21.2887  -18.5231  -14.8271 C   0  0  0  0  0  0  0  0  0  0  0  0
   21.9342  -19.1777  -13.7832 C   0  0  0  0  0  0  0  0  0  0  0  0
   23.3042  -19.1365  -13.6335 C   0  0  0  0  0  0  0  0  0  0  0  0
   24.0022  -19.8242  -12.5390 C   0  0  0  0  0  0  0  0  0  0  0  0
   24.7122  -21.0827  -13.0133 C   0  0  2  0  0  0  0  0  0  0  0  0
   23.8216  -22.0514  -13.5648 N   0  0  0  0  0  0  0  0  0  0  0  0
   25.6611  -21.6103  -12.0049 C   0  0  0  0  0  0  0  0  0  0  0  0
   25.2247  -22.5755  -11.2836 O   0  0  0  0  0  0  0  0  0  0  0  0
   24.0126  -18.4112  -14.5708 C   0  0  0  0  0  0  0  0  0  0  0  0
   23.3810  -17.7556  -15.6140 C   0  0  0  0  0  0  0  0  0  0  0  0
   26.9777  -21.0991  -11.8242 N   0  0  0  0  0  0  0  0  0  0  0  0
   27.5707  -20.0965  -12.6292 C   0  0  0  0  0  0  0  0  0  0  0  0
   28.9408  -19.8686  -12.0283 C   0  0  0  0  0  0  0  0  0  0  0  0
   29.2347  -21.2130  -11.3288 C   0  0  0  0  0  0  0  0  0  0  0  0
   27.8692  -21.5178  -10.8049 C   0  0  1  0  0  0  0  0  0  0  0  0
   27.6118  -20.8729   -9.4893 C   0  0  0  0  0  0  0  0  0  0  0  0
   26.8423  -19.8861   -9.4800 O   0  0  0  0  0  0  0  0  0  0  0  0
   29.8604  -20.0132   -1.8836 C   0  0  0  0  0  0  0  0  0  0  0  0
   30.1927  -20.7276   -3.5147 S   0  0  0  0  0  0  0  0  0  0  0  0
   28.8394  -20.4363   -4.6526 C   0  0  0  0  0  0  0  0  0  0  0  0
   28.9786  -20.9870   -6.0204 C   0  0  0  0  0  0  0  0  0  0  0  0
   27.8765  -20.7107   -6.9592 C   0  0  2  0  0  0  0  0  0  0  0  0
   28.1786  -21.3086   -8.2818 N   0  0  0  0  0  0  0  0  0  0  0  0
   27.3742  -19.3581   -7.1242 C   0  0  0  0  0  0  0  0  0  0  0  0
   26.0772  -19.0537   -6.6541 O   0  0  0  0  0  0  0  0  0  0  0  0
   27.9729  -18.4216   -7.6439 O   0  0  0  0  0  0  0  0  0  0  0  0
  2  1  1  0
  3  2  2  0
  4  3  1  0
  5 11  1  0
  5  4  2  0
  6  7  1  0
  6  5  1  0
  7  8  1  1
  7  9  1  0
  9 10  2  0
 11 12  2  0
 12  2  1  0
 13  9  1  0
 13 14  1  0
 15 14  1  0
 16 15  1  0
 17 16  1  0
 17 13  1  0
 17 18  1  1
 18 19  2  0
 20 21  1  0
 22 23  1  0
 22 21  1  0
 24 23  1  1
 24 26  1  0
 24 25  1  0
 25 18  1  0
 26 27  1  0
 28 26  2  0
M  END
$$$$
