YPM.pdb
     RDKit          3D

 28 29  0  0  1  0  0  0  0  0999 V2000
   20.2911  -15.8317  -17.2571 O   0  0  0  0  0  0  0  0  0  0  0  0
   21.0778  -16.6763  -16.4677 C   0  0  0  0  0  0  0  0  0  0  0  0
   22.4013  -16.4258  -16.2946 C   0  0  0  0  0  0  0  0  0  0  0  0
   23.1727  -17.2753  -15.5084 C   0  0  0  0  0  0  0  0  0  0  0  0
   22.6344  -18.3819  -14.8865 C   0  0  0  0  0  0  0  0  0  0  0  0
   23.4337  -19.2876  -14.0506 C   0  0  0  0  0  0  0  0  0  0  0  0
   24.2665  -20.2503  -14.8828 C   0  0  2  0  0  0  0  0  0  0  0  0
   23.4810  -21.0410  -15.7737 N   0  0  0  0  0  0  0  0  0  0  0  0
   25.2369  -21.0126  -14.0626 C   0  0  0  0  0  0  0  0  0  0  0  0
   24.8749  -22.1967  -13.7321 O   0  0  0  0  0  0  0  0  0  0  0  0
   21.2868  -18.6124  -15.0801 C   0  0  0  0  0  0  0  0  0  0  0  0
   20.5091  -17.7738  -15.8604 C   0  0  0  0  0  0  0  0  0  0  0  0
   26.4965  -20.4912  -13.6517 N   0  0  0  0  0  0  0  0  0  0  0  0
   27.0837  -19.3073  -14.1604 C   0  0  0  0  0  0  0  0  0  0  0  0
   28.3814  -19.1524  -13.3976 C   0  0  0  0  0  0  0  0  0  0  0  0
   28.7082  -20.6028  -12.9817 C   0  0  0  0  0  0  0  0  0  0  0  0
   27.3284  -21.0821  -12.6678 C   0  0  1  0  0  0  0  0  0  0  0  0
   26.9212  -20.7586  -11.2740 C   0  0  0  0  0  0  0  0  0  0  0  0
   26.5708  -19.5798  -11.0425 O   0  0  0  0  0  0  0  0  0  0  0  0
   28.6804  -17.9771   -6.8771 C   0  0  0  0  0  0  0  0  0  0  0  0
   27.5823  -18.9804   -5.8433 S   0  0  0  0  0  0  0  0  0  0  0  0
   26.5551  -20.0674   -6.8304 C   0  0  0  0  0  0  0  0  0  0  0  0
   27.1458  -20.6035   -8.0782 C   0  0  0  0  0  0  0  0  0  0  0  0
   26.2755  -21.4551   -8.9086 C   0  0  2  0  0  0  0  0  0  0  0  0
   26.9110  -21.6925  -10.2268 N   0  0  0  0  0  0  0  0  0  0  0  0
   24.8723  -21.1230   -9.0819 C   0  0  0  0  0  0  0  0  0  0  0  0
   23.9101  -21.8234   -8.3206 O   0  0  0  0  0  0  0  0  0  0  0  0
   24.4178  -20.2734   -9.8415 O   0  0  0  0  0  0  0  0  0  0  0  0
  2  1  1  0
  3  2  2  0
  4  3  1  0
  5 11  1  0
  5  4  2  0
  6  7  1  0
  6  5  1  0
  7  8  1  1
  7  9  1  0
  9 10  2  0
 11 12  2  0
 12  2  1  0
 13  9  1  0
 13 14  1  0
 15 14  1  0
 16 15  1  0
 17 16  1  0
 17 13  1  0
 17 18  1  1
 18 19  2  0
 20 21  1  0
 22 23  1  0
 22 21  1  0
 24 23  1  6
 24 26  1  0
 24 25  1  0
 25 18  1  0
 26 27  1  0
 28 26  2  0
M  END
$$$$
