YPM.pdb
     RDKit          3D

 28 29  0  0  1  0  0  0  0  0999 V2000
   24.1989  -14.4692  -20.7144 O   0  0  0  0  0  0  0  0  0  0  0  0
   24.1927  -15.2937  -19.5849 C   0  0  0  0  0  0  0  0  0  0  0  0
   23.0217  -15.6552  -18.9998 C   0  0  0  0  0  0  0  0  0  0  0  0
   23.0301  -16.4741  -17.8754 C   0  0  0  0  0  0  0  0  0  0  0  0
   24.2037  -16.9416  -17.3230 C   0  0  0  0  0  0  0  0  0  0  0  0
   24.2306  -17.8093  -16.1380 C   0  0  0  0  0  0  0  0  0  0  0  0
   24.5868  -19.2459  -16.4875 C   0  0  2  0  0  0  0  0  0  0  0  0
   23.6366  -19.8607  -17.3565 N   0  0  0  0  0  0  0  0  0  0  0  0
   24.9485  -20.0450  -15.2933 C   0  0  0  0  0  0  0  0  0  0  0  0
   24.0044  -20.7515  -14.7913 O   0  0  0  0  0  0  0  0  0  0  0  0
   25.3789  -16.5580  -17.9381 C   0  0  0  0  0  0  0  0  0  0  0  0
   25.3829  -15.7433  -19.0576 C   0  0  0  0  0  0  0  0  0  0  0  0
   26.2505  -20.0484  -14.7170 N   0  0  0  0  0  0  0  0  0  0  0  0
   27.3786  -19.3953  -15.2701 C   0  0  0  0  0  0  0  0  0  0  0  0
   28.5021  -19.6522  -14.2895 C   0  0  0  0  0  0  0  0  0  0  0  0
   28.0586  -20.9584  -13.5965 C   0  0  0  0  0  0  0  0  0  0  0  0
   26.5904  -20.6976  -13.5037 C   0  0  1  0  0  0  0  0  0  0  0  0
   26.2311  -19.9150  -12.2907 C   0  0  0  0  0  0  0  0  0  0  0  0
   26.0246  -18.6903  -12.4441 O   0  0  0  0  0  0  0  0  0  0  0  0
   20.9001  -20.7815  -12.0498 C   0  0  0  0  0  0  0  0  0  0  0  0
   20.9847  -19.6688  -10.6230 S   0  0  0  0  0  0  0  0  0  0  0  0
   22.5900  -19.7317   -9.8292 C   0  0  0  0  0  0  0  0  0  0  0  0
   23.7583  -20.0175  -10.6933 C   0  0  0  0  0  0  0  0  0  0  0  0
   25.0713  -20.0876  -10.0274 C   0  0  2  0  0  0  0  0  0  0  0  0
   26.1145  -20.4720  -11.0081 N   0  0  0  0  0  0  0  0  0  0  0  0
   25.2327  -20.8482   -8.8008 C   0  0  0  0  0  0  0  0  0  0  0  0
   25.0932  -20.1794   -7.5642 O   0  0  0  0  0  0  0  0  0  0  0  0
   25.4850  -22.0462   -8.7195 O   0  0  0  0  0  0  0  0  0  0  0  0
  2  1  1  0
  3  2  2  0
  4  3  1  0
  5 11  1  0
  5  4  2  0
  6  7  1  0
  6  5  1  0
  7  8  1  1
  7  9  1  0
  9 10  2  0
 11 12  2  0
 12  2  1  0
 13  9  1  0
 13 14  1  0
 15 14  1  0
 16 15  1  0
 17 16  1  0
 17 13  1  0
 17 18  1  1
 18 19  2  0
 20 21  1  0
 22 23  1  0
 22 21  1  0
 24 23  1  6
 24 26  1  0
 24 25  1  0
 25 18  1  0
 26 27  1  0
 28 26  2  0
M  END
$$$$
