YPM.pdb
     RDKit          3D

 28 29  0  0  1  0  0  0  0  0999 V2000
   22.2475  -14.2275  -17.4375 O   0  0  0  0  0  0  0  0  0  0  0  0
   22.6319  -15.2901  -16.6137 C   0  0  0  0  0  0  0  0  0  0  0  0
   23.8603  -15.3066  -16.0349 C   0  0  0  0  0  0  0  0  0  0  0  0
   24.2305  -16.3709  -15.2194 C   0  0  0  0  0  0  0  0  0  0  0  0
   23.3816  -17.4287  -14.9716 C   0  0  0  0  0  0  0  0  0  0  0  0
   23.7552  -18.5589  -14.1108 C   0  0  0  0  0  0  0  0  0  0  0  0
   24.5431  -19.6183  -14.8656 C   0  0  2  0  0  0  0  0  0  0  0  0
   23.7862  -20.2453  -15.8999 N   0  0  0  0  0  0  0  0  0  0  0  0
   25.2503  -20.5510  -13.9571 C   0  0  0  0  0  0  0  0  0  0  0  0
   24.5967  -21.6009  -13.6210 O   0  0  0  0  0  0  0  0  0  0  0  0
   22.1395  -17.3859  -15.5731 C   0  0  0  0  0  0  0  0  0  0  0  0
   21.7600  -16.3319  -16.3867 C   0  0  0  0  0  0  0  0  0  0  0  0
   26.5691  -20.3235  -13.4711 N   0  0  0  0  0  0  0  0  0  0  0  0
   27.4125  -19.2671  -13.8927 C   0  0  0  0  0  0  0  0  0  0  0  0
   28.6758  -19.4214  -13.0740 C   0  0  0  0  0  0  0  0  0  0  0  0
   28.6747  -20.9251  -12.7244 C   0  0  0  0  0  0  0  0  0  0  0  0
   27.2120  -21.1187  -12.4894 C   0  0  1  0  0  0  0  0  0  0  0  0
   26.8137  -20.7798  -11.0968 C   0  0  0  0  0  0  0  0  0  0  0  0
   26.4438  -19.6039  -10.8808 O   0  0  0  0  0  0  0  0  0  0  0  0
   27.9456  -18.9335   -3.9910 C   0  0  0  0  0  0  0  0  0  0  0  0
   28.4223  -19.2913   -5.7015 S   0  0  0  0  0  0  0  0  0  0  0  0
   27.1401  -20.1920   -6.5709 C   0  0  0  0  0  0  0  0  0  0  0  0
   27.4666  -20.6877   -7.9278 C   0  0  0  0  0  0  0  0  0  0  0  0
   26.3876  -21.3788   -8.6561 C   0  0  2  0  0  0  0  0  0  0  0  0
   26.8320  -21.6962  -10.0344 N   0  0  0  0  0  0  0  0  0  0  0  0
   25.0450  -20.8255   -8.6780 C   0  0  0  0  0  0  0  0  0  0  0  0
   24.8089  -19.6462   -9.4193 O   0  0  0  0  0  0  0  0  0  0  0  0
   24.0627  -21.2857   -8.1046 O   0  0  0  0  0  0  0  0  0  0  0  0
  2  1  1  0
  3  2  2  0
  4  3  1  0
  5 11  1  0
  5  4  2  0
  6  7  1  0
  6  5  1  0
  7  8  1  1
  7  9  1  0
  9 10  2  0
 11 12  2  0
 12  2  1  0
 13  9  1  0
 13 14  1  0
 15 14  1  0
 16 15  1  0
 17 16  1  0
 17 13  1  0
 17 18  1  1
 18 19  2  0
 20 21  1  0
 22 23  1  0
 22 21  1  0
 24 23  1  6
 24 26  1  0
 24 25  1  0
 25 18  1  0
 26 27  1  0
 28 26  2  0
M  END
$$$$
