YPM.pdb
     RDKit          3D

 28 29  0  0  1  0  0  0  0  0999 V2000
   22.7486  -16.1087  -19.2999 O   0  0  0  0  0  0  0  0  0  0  0  0
   23.0322  -16.8086  -18.1230 C   0  0  0  0  0  0  0  0  0  0  0  0
   22.0368  -17.4023  -17.4151 C   0  0  0  0  0  0  0  0  0  0  0  0
   22.3327  -18.0937  -16.2449 C   0  0  0  0  0  0  0  0  0  0  0  0
   23.6220  -18.2013  -15.7682 C   0  0  0  0  0  0  0  0  0  0  0  0
   23.9524  -18.9299  -14.5362 C   0  0  0  0  0  0  0  0  0  0  0  0
   24.5124  -20.3147  -14.8219 C   0  0  2  0  0  0  0  0  0  0  0  0
   23.5861  -21.1620  -15.5001 N   0  0  0  0  0  0  0  0  0  0  0  0
   25.1566  -20.9201  -13.6328 C   0  0  0  0  0  0  0  0  0  0  0  0
   24.3941  -21.6367  -12.8929 O   0  0  0  0  0  0  0  0  0  0  0  0
   24.6137  -17.5879  -16.5076 C   0  0  0  0  0  0  0  0  0  0  0  0
   24.3312  -16.8971  -17.6738 C   0  0  0  0  0  0  0  0  0  0  0  0
   26.5302  -20.7359  -13.3061 N   0  0  0  0  0  0  0  0  0  0  0  0
   27.4958  -20.1683  -14.1724 C   0  0  0  0  0  0  0  0  0  0  0  0
   28.7802  -20.1505  -13.3724 C   0  0  0  0  0  0  0  0  0  0  0  0
   28.5649  -21.2918  -12.3554 C   0  0  0  0  0  0  0  0  0  0  0  0
   27.1143  -21.0860  -12.0629 C   0  0  1  0  0  0  0  0  0  0  0  0
   26.8911  -20.0736  -10.9960 C   0  0  0  0  0  0  0  0  0  0  0  0
   26.3266  -19.0083  -11.3314 O   0  0  0  0  0  0  0  0  0  0  0  0
   22.0318  -21.0838   -9.8789 C   0  0  0  0  0  0  0  0  0  0  0  0
   22.3952  -21.1756   -8.1068 S   0  0  0  0  0  0  0  0  0  0  0  0
   24.0236  -20.5290   -7.7310 C   0  0  0  0  0  0  0  0  0  0  0  0
   25.0713  -20.6996   -8.7638 C   0  0  0  0  0  0  0  0  0  0  0  0
   26.3696  -20.0535   -8.5010 C   0  0  2  0  0  0  0  0  0  0  0  0
   27.2750  -20.2513   -9.6581 N   0  0  0  0  0  0  0  0  0  0  0  0
   27.0796  -20.3099   -7.2603 C   0  0  0  0  0  0  0  0  0  0  0  0
   27.1998  -19.2637   -6.3185 O   0  0  0  0  0  0  0  0  0  0  0  0
   27.6026  -21.3698   -6.9310 O   0  0  0  0  0  0  0  0  0  0  0  0
  2  1  1  0
  3  2  2  0
  4  3  1  0
  5 11  1  0
  5  4  2  0
  6  7  1  0
  6  5  1  0
  7  8  1  1
  7  9  1  0
  9 10  2  0
 11 12  2  0
 12  2  1  0
 13  9  1  0
 13 14  1  0
 15 14  1  0
 16 15  1  0
 17 16  1  0
 17 13  1  0
 17 18  1  1
 18 19  2  0
 20 21  1  0
 22 23  1  0
 22 21  1  0
 24 23  1  6
 24 26  1  0
 24 25  1  0
 25 18  1  0
 26 27  1  0
 28 26  2  0
M  END
$$$$
