DPT.pdb
     RDKit          3D

 23 23  0  0  1  0  0  0  0  0999 V2000
    8.6145  -17.1060   16.4770 N   0  0  0  0  0  0  0  0  0  0  0  0
    7.8217  -16.3029   17.4109 C   0  0  1  0  0  0  0  0  0  0  0  0
    6.7585  -17.2158   18.0283 C   0  0  0  0  0  0  0  0  0  0  0  0
    7.3040  -18.5053   18.4520 C   0  0  0  0  0  0  0  0  0  0  0  0
    6.8280  -19.1203   19.4251 O   0  0  0  0  0  0  0  0  0  0  0  0
    8.6667  -15.7544   18.4666 C   0  0  0  0  0  0  0  0  0  0  0  0
    9.8833  -16.1661   18.4730 O   0  0  0  0  0  0  0  0  0  0  0  0
    8.3690  -19.0496   17.7560 O   0  0  0  0  0  0  0  0  0  0  0  0
    8.3037  -14.8324   19.4681 N   0  0  0  0  0  0  0  0  0  0  0  0
    6.9966  -14.2157   19.5838 C   0  0  0  0  0  0  0  0  0  0  0  0
    7.4046  -12.7441   19.7645 C   0  0  0  0  0  0  0  0  0  0  0  0
    8.6661  -12.8385   20.5726 C   0  0  0  0  0  0  0  0  0  0  0  0
    9.0753  -14.2877   20.5540 C   0  0  1  0  0  0  0  0  0  0  0  0
    8.8104  -14.9685   21.8609 C   0  0  0  0  0  0  0  0  0  0  0  0
    7.6927  -15.5305   22.0036 O   0  0  0  0  0  0  0  0  0  0  0  0
    9.0551  -17.5234   21.9095 C   0  0  0  0  0  0  0  0  0  0  0  0
   10.1467  -17.4263   22.9312 C   0  0  1  0  0  0  0  0  0  0  0  0
   11.3903  -17.2922   22.3087 O   0  0  0  0  0  0  0  0  0  0  0  0
    9.9182  -16.1792   23.7726 C   0  0  2  0  0  0  0  0  0  0  0  0
    9.7279  -15.0114   22.9182 N   0  0  0  0  0  0  0  0  0  0  0  0
   10.9553  -15.9656   24.7815 C   0  0  0  0  0  0  0  0  0  0  0  0
   10.8894  -16.5810   25.9984 O   0  0  0  0  0  0  0  0  0  0  0  0
   11.9374  -15.1912   24.5195 O   0  0  0  0  0  0  0  0  0  0  0  0
  2  1  1  6
  2  3  1  0
  2  6  1  0
  3  4  1  0
  4  5  2  0
  4  8  1  0
  6  7  2  0
  9 13  1  0
  9  6  1  0
 10  9  1  0
 11 10  1  0
 11 12  1  0
 12 13  1  0
 13 14  1  1
 14 15  2  0
 14 20  1  0
 17 16  1  6
 17 18  1  0
 19 17  1  0
 19 20  1  6
 21 22  1  0
 21 19  1  0
 23 21  2  0
M  END
$$$$
