DPT.pdb
     RDKit          3D

 23 23  0  0  1  0  0  0  0  0999 V2000
    9.3270  -17.4424   16.2327 N   0  0  0  0  0  0  0  0  0  0  0  0
    8.6103  -16.5441   17.1409 C   0  0  1  0  0  0  0  0  0  0  0  0
    7.9170  -17.4048   18.2009 C   0  0  0  0  0  0  0  0  0  0  0  0
    8.5393  -18.7204   18.3496 C   0  0  0  0  0  0  0  0  0  0  0  0
    9.5003  -19.0654   17.6362 O   0  0  0  0  0  0  0  0  0  0  0  0
    9.5348  -15.6207   17.7903 C   0  0  0  0  0  0  0  0  0  0  0  0
   10.7823  -15.8574   17.5965 O   0  0  0  0  0  0  0  0  0  0  0  0
    8.0484  -19.5958   19.3024 O   0  0  0  0  0  0  0  0  0  0  0  0
    9.2177  -14.5092   18.5959 N   0  0  0  0  0  0  0  0  0  0  0  0
    7.8697  -14.0961   18.9338 C   0  0  0  0  0  0  0  0  0  0  0  0
    7.9585  -12.5932   18.6204 C   0  0  0  0  0  0  0  0  0  0  0  0
    9.3626  -12.2455   19.0215 C   0  0  0  0  0  0  0  0  0  0  0  0
   10.0782  -13.5524   19.2403 C   0  0  1  0  0  0  0  0  0  0  0  0
   10.2953  -13.8437   20.6927 C   0  0  0  0  0  0  0  0  0  0  0  0
   11.2112  -13.2089   21.2788 O   0  0  0  0  0  0  0  0  0  0  0  0
    7.5154  -14.0229   23.4100 C   0  0  0  0  0  0  0  0  0  0  0  0
    8.3554  -15.2596   23.5106 C   0  0  1  0  0  0  0  0  0  0  0  0
    7.7572  -16.3162   22.8193 O   0  0  0  0  0  0  0  0  0  0  0  0
    9.7028  -14.9888   22.8574 C   0  0  2  0  0  0  0  0  0  0  0  0
    9.5436  -14.7730   21.4228 N   0  0  0  0  0  0  0  0  0  0  0  0
   10.7053  -16.0107   23.1570 C   0  0  0  0  0  0  0  0  0  0  0  0
   11.1460  -16.2099   24.4337 O   0  0  0  0  0  0  0  0  0  0  0  0
   11.1753  -16.7273   22.2092 O   0  0  0  0  0  0  0  0  0  0  0  0
  2  1  1  6
  2  3  1  0
  2  6  1  0
  3  4  1  0
  4  5  2  0
  4  8  1  0
  6  7  2  0
  9 13  1  0
  9  6  1  0
 10  9  1  0
 11 10  1  0
 11 12  1  0
 12 13  1  0
 13 14  1  1
 14 15  2  0
 14 20  1  0
 17 16  1  6
 17 18  1  0
 19 17  1  0
 19 20  1  6
 21 22  1  0
 21 19  1  0
 23 21  2  0
M  END
$$$$
