DPT.pdb
     RDKit          3D

 23 23  0  0  1  0  0  0  0  0999 V2000
    8.8487  -14.4346   15.5624 N   0  0  0  0  0  0  0  0  0  0  0  0
    8.3051  -15.2138   16.6772 C   0  0  1  0  0  0  0  0  0  0  0  0
    8.4737  -16.6976   16.3381 C   0  0  0  0  0  0  0  0  0  0  0  0
    8.1032  -17.5727   17.4503 C   0  0  0  0  0  0  0  0  0  0  0  0
    6.9097  -17.8104   17.7160 O   0  0  0  0  0  0  0  0  0  0  0  0
    9.0177  -14.9119   17.9143 C   0  0  0  0  0  0  0  0  0  0  0  0
   10.2977  -14.8632   17.8190 O   0  0  0  0  0  0  0  0  0  0  0  0
    9.1004  -18.1459   18.2197 O   0  0  0  0  0  0  0  0  0  0  0  0
    8.4667  -14.6686   19.1879 N   0  0  0  0  0  0  0  0  0  0  0  0
    7.0479  -14.6786   19.4859 C   0  0  0  0  0  0  0  0  0  0  0  0
    6.9253  -13.3631   20.2726 C   0  0  0  0  0  0  0  0  0  0  0  0
    8.2207  -13.2976   21.0282 C   0  0  0  0  0  0  0  0  0  0  0  0
    9.1122  -14.3571   20.4359 C   0  0  1  0  0  0  0  0  0  0  0  0
    9.2546  -15.5457   21.3351 C   0  0  0  0  0  0  0  0  0  0  0  0
    8.2663  -16.3199   21.4305 O   0  0  0  0  0  0  0  0  0  0  0  0
   11.8075  -18.0357   20.9713 C   0  0  0  0  0  0  0  0  0  0  0  0
   11.8531  -17.7832   22.4476 C   0  0  1  0  0  0  0  0  0  0  0  0
   12.9357  -16.9615   22.7712 O   0  0  0  0  0  0  0  0  0  0  0  0
   10.5834  -17.0512   22.8569 C   0  0  2  0  0  0  0  0  0  0  0  0
   10.4136  -15.8365   22.0658 N   0  0  0  0  0  0  0  0  0  0  0  0
   10.5039  -16.7930   24.2943 C   0  0  0  0  0  0  0  0  0  0  0  0
   10.4570  -17.8210   25.1914 O   0  0  0  0  0  0  0  0  0  0  0  0
   10.4780  -15.5871   24.7160 O   0  0  0  0  0  0  0  0  0  0  0  0
  2  1  1  6
  2  3  1  0
  2  6  1  0
  3  4  1  0
  4  5  2  0
  4  8  1  0
  6  7  2  0
  9 13  1  0
  9  6  1  0
 10  9  1  0
 11 10  1  0
 11 12  1  0
 12 13  1  0
 13 14  1  1
 14 15  2  0
 14 20  1  0
 17 16  1  6
 17 18  1  0
 19 17  1  0
 19 20  1  6
 21 22  1  0
 21 19  1  0
 23 21  2  0
M  END
$$$$
