DPT.pdb
     RDKit          3D

 23 23  0  0  1  0  0  0  0  0999 V2000
   10.2123  -15.8382   15.3571 N   0  0  0  0  0  0  0  0  0  0  0  0
    9.0957  -15.4934   16.2401 C   0  0  1  0  0  0  0  0  0  0  0  0
    8.1897  -16.7229   16.3518 C   0  0  0  0  0  0  0  0  0  0  0  0
    7.7795  -17.2378   15.0454 C   0  0  0  0  0  0  0  0  0  0  0  0
    7.3147  -16.4832   14.1700 O   0  0  0  0  0  0  0  0  0  0  0  0
    9.5806  -15.1224   17.5654 C   0  0  0  0  0  0  0  0  0  0  0  0
   10.8124  -15.3985   17.8023 O   0  0  0  0  0  0  0  0  0  0  0  0
    7.9119  -18.5895   14.7803 O   0  0  0  0  0  0  0  0  0  0  0  0
    8.8589  -14.5004   18.6033 N   0  0  0  0  0  0  0  0  0  0  0  0
    7.4523  -14.1559   18.5353 C   0  0  0  0  0  0  0  0  0  0  0  0
    7.5027  -12.7039   19.0391 C   0  0  0  0  0  0  0  0  0  0  0  0
    8.5907  -12.7410   20.0727 C   0  0  0  0  0  0  0  0  0  0  0  0
    9.2921  -14.0630   19.9041 C   0  0  1  0  0  0  0  0  0  0  0  0
    8.9471  -15.0307   20.9932 C   0  0  0  0  0  0  0  0  0  0  0  0
    7.8508  -15.6425   20.8967 O   0  0  0  0  0  0  0  0  0  0  0  0
   11.9517  -16.8010   21.0041 C   0  0  0  0  0  0  0  0  0  0  0  0
   10.6922  -17.4674   21.4672 C   0  0  1  0  0  0  0  0  0  0  0  0
   10.9715  -18.7298   21.9968 O   0  0  0  0  0  0  0  0  0  0  0  0
   10.0771  -16.6297   22.5788 C   0  0  2  0  0  0  0  0  0  0  0  0
    9.7685  -15.2866   22.0984 N   0  0  0  0  0  0  0  0  0  0  0  0
   10.8815  -16.6111   23.8001 C   0  0  0  0  0  0  0  0  0  0  0  0
   10.7402  -17.5818   24.7496 O   0  0  0  0  0  0  0  0  0  0  0  0
   11.7291  -15.6720   23.9804 O   0  0  0  0  0  0  0  0  0  0  0  0
  2  1  1  6
  2  3  1  0
  2  6  1  0
  3  4  1  0
  4  5  2  0
  4  8  1  0
  6  7  2  0
  9 13  1  0
  9  6  1  0
 10  9  1  0
 11 10  1  0
 11 12  1  0
 12 13  1  0
 13 14  1  1
 14 15  2  0
 14 20  1  0
 17 16  1  1
 17 18  1  0
 19 17  1  0
 19 20  1  6
 21 22  1  0
 21 19  1  0
 23 21  2  0
M  END
$$$$
