DPT.pdb
     RDKit          3D

 23 23  0  0  1  0  0  0  0  0999 V2000
   10.2432  -16.9944   17.0812 N   0  0  0  0  0  0  0  0  0  0  0  0
    9.0821  -16.4143   17.7601 C   0  0  1  0  0  0  0  0  0  0  0  0
    8.1144  -17.5543   18.0902 C   0  0  0  0  0  0  0  0  0  0  0  0
    8.5906  -18.8511   17.6089 C   0  0  0  0  0  0  0  0  0  0  0  0
    8.8798  -19.7681   18.4009 O   0  0  0  0  0  0  0  0  0  0  0  0
    9.4855  -15.7443   18.9920 C   0  0  0  0  0  0  0  0  0  0  0  0
   10.7180  -15.8888   19.3236 O   0  0  0  0  0  0  0  0  0  0  0  0
    8.7208  -19.0597   16.2472 O   0  0  0  0  0  0  0  0  0  0  0  0
    8.6853  -14.9634   19.8491 N   0  0  0  0  0  0  0  0  0  0  0  0
    7.2925  -14.6413   19.6074 C   0  0  0  0  0  0  0  0  0  0  0  0
    7.3139  -13.1260   19.8681 C   0  0  0  0  0  0  0  0  0  0  0  0
    8.3113  -12.9874   20.9815 C   0  0  0  0  0  0  0  0  0  0  0  0
    9.0120  -14.3158   21.0921 C   0  0  1  0  0  0  0  0  0  0  0  0
    8.5682  -15.0926   22.2925 C   0  0  0  0  0  0  0  0  0  0  0  0
    7.4715  -15.7058   22.2109 O   0  0  0  0  0  0  0  0  0  0  0  0
   11.6676  -16.6568   22.8140 C   0  0  0  0  0  0  0  0  0  0  0  0
   10.3987  -17.3450   23.2159 C   0  0  1  0  0  0  0  0  0  0  0  0
   10.6794  -18.5210   23.9160 O   0  0  0  0  0  0  0  0  0  0  0  0
    9.6217  -16.4292   24.1504 C   0  0  2  0  0  0  0  0  0  0  0  0
    9.2989  -15.1711   23.4848 N   0  0  0  0  0  0  0  0  0  0  0  0
   10.2839  -16.2220   25.4378 C   0  0  0  0  0  0  0  0  0  0  0  0
   10.3049  -17.2062   26.3838 O   0  0  0  0  0  0  0  0  0  0  0  0
   10.8511  -15.1030   25.6802 O   0  0  0  0  0  0  0  0  0  0  0  0
  2  1  1  1
  2  3  1  0
  2  6  1  0
  3  4  1  0
  4  5  2  0
  4  8  1  0
  6  7  2  0
  9 13  1  0
  9  6  1  0
 10  9  1  0
 11 10  1  0
 11 12  1  0
 12 13  1  0
 13 14  1  1
 14 15  2  0
 14 20  1  0
 17 16  1  1
 17 18  1  0
 19 17  1  0
 19 20  1  6
 21 22  1  0
 21 19  1  0
 23 21  2  0
M  END
$$$$
