DPT.pdb
     RDKit          3D

 23 23  0  0  1  0  0  0  0  0999 V2000
    7.7592  -13.6418   20.8297 N   0  0  0  0  0  0  0  0  0  0  0  0
    7.0253  -13.6134   22.0970 C   0  0  1  0  0  0  0  0  0  0  0  0
    6.0286  -14.7760   22.0875 C   0  0  0  0  0  0  0  0  0  0  0  0
    6.6388  -16.0343   21.6581 C   0  0  0  0  0  0  0  0  0  0  0  0
    6.8522  -16.2715   20.4539 O   0  0  0  0  0  0  0  0  0  0  0  0
    7.9379  -13.7622   23.2259 C   0  0  0  0  0  0  0  0  0  0  0  0
    9.1636  -13.9957   22.9208 O   0  0  0  0  0  0  0  0  0  0  0  0
    6.9846  -16.9768   22.6105 O   0  0  0  0  0  0  0  0  0  0  0  0
    7.6308  -13.6779   24.5982 N   0  0  0  0  0  0  0  0  0  0  0  0
    6.2964  -13.4873   25.1323 C   0  0  0  0  0  0  0  0  0  0  0  0
    6.5637  -12.3525   26.1350 C   0  0  0  0  0  0  0  0  0  0  0  0
    7.9347  -12.6745   26.6543 C   0  0  0  0  0  0  0  0  0  0  0  0
    8.4923  -13.7413   25.7493 C   0  0  1  0  0  0  0  0  0  0  0  0
    8.5022  -15.0892   26.4008 C   0  0  0  0  0  0  0  0  0  0  0  0
    7.3874  -15.6145   26.6590 O   0  0  0  0  0  0  0  0  0  0  0  0
    9.6590  -17.7626   24.6171 C   0  0  0  0  0  0  0  0  0  0  0  0
   10.4194  -17.9630   25.8925 C   0  0  1  0  0  0  0  0  0  0  0  0
   11.7051  -17.4266   25.7862 O   0  0  0  0  0  0  0  0  0  0  0  0
    9.7030  -17.2188   27.0099 C   0  0  2  0  0  0  0  0  0  0  0  0
    9.6706  -15.7861   26.7338 N   0  0  0  0  0  0  0  0  0  0  0  0
   10.2392  -17.5162   28.3377 C   0  0  0  0  0  0  0  0  0  0  0  0
   10.0893  -18.7534   28.8953 O   0  0  0  0  0  0  0  0  0  0  0  0
   10.8570  -16.6041   28.9851 O   0  0  0  0  0  0  0  0  0  0  0  0
  2  1  1  6
  2  3  1  0
  2  6  1  0
  3  4  1  0
  4  5  2  0
  4  8  1  0
  6  7  2  0
  9 13  1  0
  9  6  1  0
 10  9  1  0
 11 10  1  0
 11 12  1  0
 12 13  1  0
 13 14  1  1
 14 15  2  0
 14 20  1  0
 17 16  1  6
 17 18  1  0
 19 17  1  0
 19 20  1  6
 21 22  1  0
 21 19  1  0
 23 21  2  0
M  END
$$$$
