DPT.pdb
     RDKit          3D

 23 23  0  0  1  0  0  0  0  0999 V2000
   10.3841  -17.8311   19.0622 N   0  0  0  0  0  0  0  0  0  0  0  0
    9.1223  -17.5300   19.7424 C   0  0  1  0  0  0  0  0  0  0  0  0
    8.6557  -18.8051   20.4504 C   0  0  0  0  0  0  0  0  0  0  0  0
    8.5107  -19.9351   19.5326 C   0  0  0  0  0  0  0  0  0  0  0  0
    7.9466  -19.8039   18.4298 O   0  0  0  0  0  0  0  0  0  0  0  0
    9.3057  -16.4660   20.7240 C   0  0  0  0  0  0  0  0  0  0  0  0
   10.4690  -16.4056   21.2652 O   0  0  0  0  0  0  0  0  0  0  0  0
    9.0112  -21.1718   19.8998 O   0  0  0  0  0  0  0  0  0  0  0  0
    8.3620  -15.5061   21.1398 N   0  0  0  0  0  0  0  0  0  0  0  0
    6.9571  -15.5253   20.7823 C   0  0  0  0  0  0  0  0  0  0  0  0
    6.7703  -14.0665   20.3331 C   0  0  0  0  0  0  0  0  0  0  0  0
    7.6719  -13.3072   21.2625 C   0  0  0  0  0  0  0  0  0  0  0  0
    8.5273  -14.3335   21.9576 C   0  0  1  0  0  0  0  0  0  0  0  0
    8.1128  -14.5474   23.3802 C   0  0  0  0  0  0  0  0  0  0  0  0
    7.0900  -15.2529   23.5843 O   0  0  0  0  0  0  0  0  0  0  0  0
    9.1019  -14.2864   28.2096 C   0  0  0  0  0  0  0  0  0  0  0  0
    9.5456  -13.9749   26.8128 C   0  0  1  0  0  0  0  0  0  0  0  0
   10.5888  -14.8215   26.4294 O   0  0  0  0  0  0  0  0  0  0  0  0
    8.3818  -14.2228   25.8642 C   0  0  2  0  0  0  0  0  0  0  0  0
    8.7936  -14.0107   24.4802 N   0  0  0  0  0  0  0  0  0  0  0  0
    7.1830  -13.4596   26.2097 C   0  0  0  0  0  0  0  0  0  0  0  0
    6.8401  -12.3363   25.5136 O   0  0  0  0  0  0  0  0  0  0  0  0
    6.4460  -13.8505   27.1775 O   0  0  0  0  0  0  0  0  0  0  0  0
  2  1  1  1
  2  3  1  0
  2  6  1  0
  3  4  1  0
  4  5  2  0
  4  8  1  0
  6  7  2  0
  9 13  1  0
  9  6  1  0
 10  9  1  0
 11 10  1  0
 11 12  1  0
 12 13  1  0
 13 14  1  1
 14 15  2  0
 14 20  1  0
 17 16  1  1
 17 18  1  0
 19 17  1  0
 19 20  1  6
 21 22  1  0
 21 19  1  0
 23 21  2  0
M  END
$$$$
