DPT.pdb
     RDKit          3D

 23 23  0  0  1  0  0  0  0  0999 V2000
    9.2728  -17.8101   18.8132 N   0  0  0  0  0  0  0  0  0  0  0  0
    8.3537  -17.0109   19.6270 C   0  0  1  0  0  0  0  0  0  0  0  0
    7.1428  -17.8862   19.9624 C   0  0  0  0  0  0  0  0  0  0  0  0
    7.0030  -19.0228   19.0521 C   0  0  0  0  0  0  0  0  0  0  0  0
    7.1511  -18.8883   17.8226 O   0  0  0  0  0  0  0  0  0  0  0  0
    9.0000  -16.5781   20.8616 C   0  0  0  0  0  0  0  0  0  0  0  0
   10.2106  -16.9760   21.0226 O   0  0  0  0  0  0  0  0  0  0  0  0
    6.7008  -20.2699   19.5702 O   0  0  0  0  0  0  0  0  0  0  0  0
    8.4532  -15.7798   21.8856 N   0  0  0  0  0  0  0  0  0  0  0  0
    7.1161  -15.2195   21.8664 C   0  0  0  0  0  0  0  0  0  0  0  0
    7.4250  -13.7638   22.2537 C   0  0  0  0  0  0  0  0  0  0  0  0
    8.5587  -13.9050   23.2275 C   0  0  0  0  0  0  0  0  0  0  0  0
    9.0327  -15.3307   23.1240 C   0  0  1  0  0  0  0  0  0  0  0  0
    8.6124  -16.1548   24.3011 C   0  0  0  0  0  0  0  0  0  0  0  0
    7.4476  -16.6327   24.2856 O   0  0  0  0  0  0  0  0  0  0  0  0
    8.7955  -18.7585   23.9960 C   0  0  0  0  0  0  0  0  0  0  0  0
    9.7566  -18.8335   25.1431 C   0  0  1  0  0  0  0  0  0  0  0  0
   11.0694  -18.6685   24.6943 O   0  0  0  0  0  0  0  0  0  0  0  0
    9.4553  -17.6957   26.1075 C   0  0  2  0  0  0  0  0  0  0  0  0
    9.4357  -16.4176   25.4033 N   0  0  0  0  0  0  0  0  0  0  0  0
   10.3416  -17.6750   27.2707 C   0  0  0  0  0  0  0  0  0  0  0  0
   10.1579  -18.5412   28.3099 O   0  0  0  0  0  0  0  0  0  0  0  0
   11.3021  -16.8334   27.3143 O   0  0  0  0  0  0  0  0  0  0  0  0
  2  1  1  6
  2  3  1  0
  2  6  1  0
  3  4  1  0
  4  5  2  0
  4  8  1  0
  6  7  2  0
  9 13  1  0
  9  6  1  0
 10  9  1  0
 11 10  1  0
 11 12  1  0
 12 13  1  0
 13 14  1  1
 14 15  2  0
 14 20  1  0
 17 16  1  6
 17 18  1  0
 19 17  1  0
 19 20  1  6
 21 22  1  0
 21 19  1  0
 23 21  2  0
M  END
$$$$
