DPT.pdb
     RDKit          3D

 23 23  0  0  1  0  0  0  0  0999 V2000
    9.2546  -17.1762   16.0137 N   0  0  0  0  0  0  0  0  0  0  0  0
    8.3491  -16.5460   16.9773 C   0  0  1  0  0  0  0  0  0  0  0  0
    7.4651  -17.6435   17.5766 C   0  0  0  0  0  0  0  0  0  0  0  0
    6.8684  -18.5034   16.5546 C   0  0  0  0  0  0  0  0  0  0  0  0
    7.0934  -19.7283   16.5285 O   0  0  0  0  0  0  0  0  0  0  0  0
    9.1021  -15.8904   18.0414 C   0  0  0  0  0  0  0  0  0  0  0  0
   10.3533  -16.1763   18.0923 O   0  0  0  0  0  0  0  0  0  0  0  0
    6.0383  -17.9421   15.6002 O   0  0  0  0  0  0  0  0  0  0  0  0
    8.6179  -14.9873   19.0082 N   0  0  0  0  0  0  0  0  0  0  0  0
    7.2446  -14.5302   19.0920 C   0  0  0  0  0  0  0  0  0  0  0  0
    7.4694  -13.0149   19.2265 C   0  0  0  0  0  0  0  0  0  0  0  0
    8.7229  -12.9295   20.0480 C   0  0  0  0  0  0  0  0  0  0  0  0
    9.3044  -14.3182   20.0816 C   0  0  1  0  0  0  0  0  0  0  0  0
    9.1074  -14.9833   21.4084 C   0  0  0  0  0  0  0  0  0  0  0  0
    7.9873  -15.5148   21.6277 O   0  0  0  0  0  0  0  0  0  0  0  0
    9.2639  -17.5982   21.5610 C   0  0  0  0  0  0  0  0  0  0  0  0
   10.4195  -17.4703   22.5062 C   0  0  1  0  0  0  0  0  0  0  0  0
   11.6224  -17.3831   21.8008 O   0  0  0  0  0  0  0  0  0  0  0  0
   10.2597  -16.1826   23.3011 C   0  0  2  0  0  0  0  0  0  0  0  0
   10.0904  -15.0437   22.4044 N   0  0  0  0  0  0  0  0  0  0  0  0
   11.3302  -15.9684   24.2743 C   0  0  0  0  0  0  0  0  0  0  0  0
   11.3264  -16.6148   25.4768 O   0  0  0  0  0  0  0  0  0  0  0  0
   12.2828  -15.1642   23.9942 O   0  0  0  0  0  0  0  0  0  0  0  0
  2  1  1  6
  2  3  1  0
  2  6  1  0
  3  4  1  0
  4  5  2  0
  4  8  1  0
  6  7  2  0
  9 13  1  0
  9  6  1  0
 10  9  1  0
 11 10  1  0
 11 12  1  0
 12 13  1  0
 13 14  1  1
 14 15  2  0
 14 20  1  0
 17 16  1  6
 17 18  1  0
 19 17  1  0
 19 20  1  6
 21 22  1  0
 21 19  1  0
 23 21  2  0
M  END
$$$$
