DPT.pdb
     RDKit          3D

 23 23  0  0  1  0  0  0  0  0999 V2000
    8.8844  -17.3834   16.2683 N   0  0  0  0  0  0  0  0  0  0  0  0
    8.1133  -16.8182   17.3781 C   0  0  1  0  0  0  0  0  0  0  0  0
    7.4550  -17.9784   18.1301 C   0  0  0  0  0  0  0  0  0  0  0  0
    6.6165  -18.8053   17.2623 C   0  0  0  0  0  0  0  0  0  0  0  0
    5.5414  -18.3760   16.8022 O   0  0  0  0  0  0  0  0  0  0  0  0
    8.9825  -16.0781   18.2869 C   0  0  0  0  0  0  0  0  0  0  0  0
   10.2331  -16.3616   18.2117 O   0  0  0  0  0  0  0  0  0  0  0  0
    7.0286  -20.0885   16.9483 O   0  0  0  0  0  0  0  0  0  0  0  0
    8.6099  -15.0966   19.2264 N   0  0  0  0  0  0  0  0  0  0  0  0
    7.2632  -14.5859   19.3922 C   0  0  0  0  0  0  0  0  0  0  0  0
    7.5444  -13.0742   19.4035 C   0  0  0  0  0  0  0  0  0  0  0  0
    8.8652  -12.9801   20.1106 C   0  0  0  0  0  0  0  0  0  0  0  0
    9.4052  -14.3837   20.1909 C   0  0  1  0  0  0  0  0  0  0  0  0
    9.3017  -14.9527   21.5719 C   0  0  0  0  0  0  0  0  0  0  0  0
    8.1777  -15.3896   21.9341 O   0  0  0  0  0  0  0  0  0  0  0  0
    9.2453  -17.5597   22.0130 C   0  0  0  0  0  0  0  0  0  0  0  0
   10.4787  -17.4410   22.8555 C   0  0  1  0  0  0  0  0  0  0  0  0
   11.6251  -17.5644   22.0664 O   0  0  0  0  0  0  0  0  0  0  0  0
   10.5052  -16.0580   23.4897 C   0  0  2  0  0  0  0  0  0  0  0  0
   10.3748  -15.0228   22.4692 N   0  0  0  0  0  0  0  0  0  0  0  0
   11.6646  -15.8417   24.3545 C   0  0  0  0  0  0  0  0  0  0  0  0
   11.6895  -16.3260   25.6308 O   0  0  0  0  0  0  0  0  0  0  0  0
   12.6690  -15.1898   23.9084 O   0  0  0  0  0  0  0  0  0  0  0  0
  2  1  1  6
  2  3  1  0
  2  6  1  0
  3  4  1  0
  4  5  2  0
  4  8  1  0
  6  7  2  0
  9 13  1  0
  9  6  1  0
 10  9  1  0
 11 10  1  0
 11 12  1  0
 12 13  1  0
 13 14  1  1
 14 15  2  0
 14 20  1  0
 17 16  1  6
 17 18  1  0
 19 17  1  0
 19 20  1  6
 21 22  1  0
 21 19  1  0
 23 21  2  0
M  END
$$$$
