DPT.pdb
     RDKit          3D

 23 23  0  0  1  0  0  0  0  0999 V2000
    8.7642  -14.3518   15.9811 N   0  0  0  0  0  0  0  0  0  0  0  0
    7.9703  -14.6149   17.1836 C   0  0  1  0  0  0  0  0  0  0  0  0
    7.4993  -16.0709   17.1248 C   0  0  0  0  0  0  0  0  0  0  0  0
    8.5979  -17.0064   16.8839 C   0  0  0  0  0  0  0  0  0  0  0  0
    8.7854  -17.9884   17.6270 O   0  0  0  0  0  0  0  0  0  0  0  0
    8.7706  -14.4091   18.3863 C   0  0  0  0  0  0  0  0  0  0  0  0
   10.0121  -14.1461   18.1877 O   0  0  0  0  0  0  0  0  0  0  0  0
    9.4429  -16.7934   15.8090 O   0  0  0  0  0  0  0  0  0  0  0  0
    8.3402  -14.4637   19.7267 N   0  0  0  0  0  0  0  0  0  0  0  0
    6.9767  -14.7283   20.1426 C   0  0  0  0  0  0  0  0  0  0  0  0
    6.7777  -13.5940   21.1616 C   0  0  0  0  0  0  0  0  0  0  0  0
    8.1311  -13.4688   21.7986 C   0  0  0  0  0  0  0  0  0  0  0  0
    9.0773  -14.2746   20.9481 C   0  0  1  0  0  0  0  0  0  0  0  0
    9.4697  -15.5632   21.6017 C   0  0  0  0  0  0  0  0  0  0  0  0
    8.6904  -16.5424   21.4629 O   0  0  0  0  0  0  0  0  0  0  0  0
   12.9594  -18.4917   23.4009 C   0  0  0  0  0  0  0  0  0  0  0  0
   12.5769  -17.1521   22.8492 C   0  0  1  0  0  0  0  0  0  0  0  0
   12.9584  -17.0466   21.5093 O   0  0  0  0  0  0  0  0  0  0  0  0
   11.0625  -17.0148   22.9071 C   0  0  2  0  0  0  0  0  0  0  0  0
   10.6418  -15.7334   22.3494 N   0  0  0  0  0  0  0  0  0  0  0  0
   10.5125  -17.2463   24.2423 C   0  0  0  0  0  0  0  0  0  0  0  0
   10.3076  -18.5133   24.7080 O   0  0  0  0  0  0  0  0  0  0  0  0
   10.2195  -16.2476   24.9835 O   0  0  0  0  0  0  0  0  0  0  0  0
  2  1  1  6
  2  3  1  0
  2  6  1  0
  3  4  1  0
  4  5  2  0
  4  8  1  0
  6  7  2  0
  9 13  1  0
  9  6  1  0
 10  9  1  0
 11 10  1  0
 11 12  1  0
 12 13  1  0
 13 14  1  1
 14 15  2  0
 14 20  1  0
 17 16  1  6
 17 18  1  0
 19 17  1  0
 19 20  1  1
 21 22  1  0
 21 19  1  0
 23 21  2  0
M  END
$$$$
