DPT.pdb
     RDKit          3D

 23 23  0  0  1  0  0  0  0  0999 V2000
    8.8527  -15.1172   20.3991 N   0  0  0  0  0  0  0  0  0  0  0  0
    7.8450  -15.1788   21.4604 C   0  0  1  0  0  0  0  0  0  0  0  0
    7.1912  -16.5625   21.4060 C   0  0  0  0  0  0  0  0  0  0  0  0
    6.7314  -16.9130   20.0622 C   0  0  0  0  0  0  0  0  0  0  0  0
    5.6174  -16.5449   19.6435 O   0  0  0  0  0  0  0  0  0  0  0  0
    8.4601  -14.9808   22.7688 C   0  0  0  0  0  0  0  0  0  0  0  0
    9.7222  -15.2115   22.8286 O   0  0  0  0  0  0  0  0  0  0  0  0
    7.5524  -17.6678   19.2430 O   0  0  0  0  0  0  0  0  0  0  0  0
    7.8335  -14.5677   23.9611 N   0  0  0  0  0  0  0  0  0  0  0  0
    6.4402  -14.1808   24.0667 C   0  0  0  0  0  0  0  0  0  0  0  0
    6.5813  -12.8655   24.8507 C   0  0  0  0  0  0  0  0  0  0  0  0
    7.7325  -13.1423   25.7734 C   0  0  0  0  0  0  0  0  0  0  0  0
    8.3682  -14.4187   25.2889 C   0  0  1  0  0  0  0  0  0  0  0  0
    8.0572  -15.5808   26.1801 C   0  0  0  0  0  0  0  0  0  0  0  0
    6.9201  -16.1091   26.0652 O   0  0  0  0  0  0  0  0  0  0  0  0
   11.1558  -17.1239   25.5444 C   0  0  0  0  0  0  0  0  0  0  0  0
    9.9290  -17.9378   25.8231 C   0  0  1  0  0  0  0  0  0  0  0  0
   10.2519  -19.2936   25.9209 O   0  0  0  0  0  0  0  0  0  0  0  0
    9.3512  -17.5063   27.1631 C   0  0  2  0  0  0  0  0  0  0  0  0
    8.9526  -16.1029   27.1221 N   0  0  0  0  0  0  0  0  0  0  0  0
   10.2318  -17.8003   28.2931 C   0  0  0  0  0  0  0  0  0  0  0  0
   10.3793  -19.0763   28.7557 O   0  0  0  0  0  0  0  0  0  0  0  0
   10.8725  -16.8484   28.8553 O   0  0  0  0  0  0  0  0  0  0  0  0
  2  1  1  6
  2  3  1  0
  2  6  1  0
  3  4  1  0
  4  5  2  0
  4  8  1  0
  6  7  2  0
  9 13  1  0
  9  6  1  0
 10  9  1  0
 11 10  1  0
 11 12  1  0
 12 13  1  0
 13 14  1  1
 14 15  2  0
 14 20  1  0
 17 16  1  1
 17 18  1  0
 19 17  1  0
 19 20  1  6
 21 22  1  0
 21 19  1  0
 23 21  2  0
M  END
$$$$
