DPT.pdb
     RDKit          3D

 23 23  0  0  1  0  0  0  0  0999 V2000
    8.1009  -14.3007   20.6215 N   0  0  0  0  0  0  0  0  0  0  0  0
    7.2877  -14.3502   21.8388 C   0  0  1  0  0  0  0  0  0  0  0  0
    6.5522  -15.6933   21.8566 C   0  0  0  0  0  0  0  0  0  0  0  0
    6.3934  -16.2635   20.5188 C   0  0  0  0  0  0  0  0  0  0  0  0
    6.2448  -15.5353   19.5191 O   0  0  0  0  0  0  0  0  0  0  0  0
    8.1282  -14.2382   23.0264 C   0  0  0  0  0  0  0  0  0  0  0  0
    9.3937  -14.3113   22.8188 O   0  0  0  0  0  0  0  0  0  0  0  0
    6.4094  -17.6386   20.3646 O   0  0  0  0  0  0  0  0  0  0  0  0
    7.7135  -14.0590   24.3608 N   0  0  0  0  0  0  0  0  0  0  0  0
    6.3381  -13.8638   24.7756 C   0  0  0  0  0  0  0  0  0  0  0  0
    6.5034  -12.6501   25.7053 C   0  0  0  0  0  0  0  0  0  0  0  0
    7.8362  -12.8963   26.3507 C   0  0  0  0  0  0  0  0  0  0  0  0
    8.4840  -14.0131   25.5755 C   0  0  1  0  0  0  0  0  0  0  0  0
    8.4706  -15.3075   26.3277 C   0  0  0  0  0  0  0  0  0  0  0  0
    7.3470  -15.7879   26.6311 O   0  0  0  0  0  0  0  0  0  0  0  0
    9.6499  -17.9048   24.5326 C   0  0  0  0  0  0  0  0  0  0  0  0
   10.3900  -18.1519   25.8118 C   0  0  1  0  0  0  0  0  0  0  0  0
   11.6799  -17.6195   25.7426 O   0  0  0  0  0  0  0  0  0  0  0  0
    9.6607  -17.4414   26.9427 C   0  0  2  0  0  0  0  0  0  0  0  0
    9.6266  -16.0016   26.7066 N   0  0  0  0  0  0  0  0  0  0  0  0
   10.1850  -17.7745   28.2667 C   0  0  0  0  0  0  0  0  0  0  0  0
   10.8469  -16.8439   29.0150 O   0  0  0  0  0  0  0  0  0  0  0  0
   10.0210  -18.9542   28.7295 O   0  0  0  0  0  0  0  0  0  0  0  0
  2  1  1  6
  2  3  1  0
  2  6  1  0
  3  4  1  0
  4  5  2  0
  4  8  1  0
  6  7  2  0
  9 13  1  0
  9  6  1  0
 10  9  1  0
 11 10  1  0
 11 12  1  0
 12 13  1  0
 13 14  1  1
 14 15  2  0
 14 20  1  0
 17 16  1  6
 17 18  1  0
 19 17  1  0
 19 20  1  6
 21 22  1  0
 21 19  1  0
 23 21  2  0
M  END
$$$$
