DPT.pdb
     RDKit          3D

 23 23  0  0  1  0  0  0  0  0999 V2000
   11.3374  -17.2141   19.4733 N   0  0  0  0  0  0  0  0  0  0  0  0
    9.9065  -17.0192   19.7185 C   0  0  1  0  0  0  0  0  0  0  0  0
    9.2958  -18.3861   20.0404 C   0  0  0  0  0  0  0  0  0  0  0  0
    9.8167  -19.4494   19.1813 C   0  0  0  0  0  0  0  0  0  0  0  0
    9.1994  -19.8200   18.1649 O   0  0  0  0  0  0  0  0  0  0  0  0
    9.6938  -16.1128   20.8421 C   0  0  0  0  0  0  0  0  0  0  0  0
   10.7117  -15.9239   21.6024 O   0  0  0  0  0  0  0  0  0  0  0  0
   11.0188  -20.0527   19.5070 O   0  0  0  0  0  0  0  0  0  0  0  0
    8.5114  -15.4268   21.1830 N   0  0  0  0  0  0  0  0  0  0  0  0
    7.2673  -15.5144   20.4436 C   0  0  0  0  0  0  0  0  0  0  0  0
    6.9209  -14.0217   20.3151 C   0  0  0  0  0  0  0  0  0  0  0  0
    7.4049  -13.4480   21.6151 C   0  0  0  0  0  0  0  0  0  0  0  0
    8.2439  -14.5165   22.2651 C   0  0  1  0  0  0  0  0  0  0  0  0
    7.5422  -15.1655   23.4175 C   0  0  0  0  0  0  0  0  0  0  0  0
    7.0249  -16.2957   23.2168 O   0  0  0  0  0  0  0  0  0  0  0  0
    7.3357  -12.8222   26.8834 C   0  0  0  0  0  0  0  0  0  0  0  0
    8.6621  -13.2499   26.3332 C   0  0  1  0  0  0  0  0  0  0  0  0
    9.5998  -13.3811   27.3606 O   0  0  0  0  0  0  0  0  0  0  0  0
    8.5025  -14.6155   25.6810 C   0  0  2  0  0  0  0  0  0  0  0  0
    7.4324  -14.5885   24.6890 N   0  0  0  0  0  0  0  0  0  0  0  0
    8.3365  -15.7008   26.6472 C   0  0  0  0  0  0  0  0  0  0  0  0
    9.3032  -15.9723   27.5722 O   0  0  0  0  0  0  0  0  0  0  0  0
    7.2705  -16.4050   26.6246 O   0  0  0  0  0  0  0  0  0  0  0  0
  2  1  1  1
  2  3  1  0
  2  6  1  0
  3  4  1  0
  4  5  2  0
  4  8  1  0
  6  7  2  0
  9 13  1  0
  9  6  1  0
 10  9  1  0
 11 10  1  0
 11 12  1  0
 12 13  1  0
 13 14  1  1
 14 15  2  0
 14 20  1  0
 17 16  1  1
 17 18  1  0
 19 17  1  0
 19 20  1  6
 21 22  1  0
 21 19  1  0
 23 21  2  0
M  END
$$$$
