WAH.pdb
     RDKit          3D

 30 32  0  0  1  0  0  0  0  0999 V2000
    6.7398  -17.3820   23.9988 N   0  0  0  0  0  0  0  0  0  0  0  0
    7.8517  -16.4694   23.7544 C   0  0  1  0  0  0  0  0  0  0  0  0
    8.3591  -15.9129   25.0416 C   0  0  0  0  0  0  0  0  0  0  0  0
    7.3339  -14.9979   25.6109 C   0  0  0  0  0  0  0  0  0  0  0  0
    6.0936  -15.3566   26.1521 C   0  0  0  0  0  0  0  0  0  0  0  0
    5.4390  -14.2608   26.5657 N   0  0  0  0  0  0  0  0  0  0  0  0
    6.2023  -13.1797   26.3183 C   0  0  0  0  0  0  0  0  0  0  0  0
    6.0296  -11.8263   26.5341 C   0  0  0  0  0  0  0  0  0  0  0  0
    6.9824  -10.9059   26.1832 C   0  0  0  0  0  0  0  0  0  0  0  0
    8.1435  -11.3473   25.5991 C   0  0  0  0  0  0  0  0  0  0  0  0
    8.3322  -12.6923   25.3765 C   0  0  0  0  0  0  0  0  0  0  0  0
    7.3665  -13.6221   25.7326 C   0  0  0  0  0  0  0  0  0  0  0  0
    8.8328  -17.1895   22.9488 C   0  0  0  0  0  0  0  0  0  0  0  0
    9.0066  -18.4183   23.2259 O   0  0  0  0  0  0  0  0  0  0  0  0
   11.3254  -16.2675   20.2683 C   0  0  0  0  0  0  0  0  0  0  0  0
   10.8143  -17.1963   21.3679 C   0  0  2  0  0  0  0  0  0  0  0  0
    9.5992  -16.6602   21.9029 N   0  0  0  0  0  0  0  0  0  0  0  0
   11.8531  -17.4635   22.3557 C   0  0  0  0  0  0  0  0  0  0  0  0
   12.1843  -16.5711   23.1728 O   0  0  0  0  0  0  0  0  0  0  0  0
   12.4810  -18.7317   22.3838 N   0  0  0  0  0  0  0  0  0  0  0  0
   13.4920  -19.1068   23.3532 C   0  0  1  0  0  0  0  0  0  0  0  0
   13.3358  -20.5344   23.7973 C   0  0  0  0  0  0  0  0  0  0  0  0
   12.0709  -20.7537   24.5188 C   0  0  0  0  0  0  0  0  0  0  0  0
   11.4955  -19.8736   25.4171 C   0  0  0  0  0  0  0  0  0  0  0  0
   10.3407  -20.3989   25.8850 N   0  0  0  0  0  0  0  0  0  0  0  0
   10.1855  -21.6000   25.2896 C   0  0  0  0  0  0  0  0  0  0  0  0
   11.2401  -21.8053   24.4632 N   0  0  0  0  0  0  0  0  0  0  0  0
   14.8154  -18.9672   22.7062 C   0  0  0  0  0  0  0  0  0  0  0  0
   16.0338  -19.1296   23.3370 O   0  0  0  0  0  0  0  0  0  0  0  0
   14.8688  -18.6760   21.4817 O   0  0  0  0  0  0  0  0  0  0  0  0
  2  1  1  1
  2  3  1  0
  3  4  1  0
  4  5  2  0
  5  6  1  0
  7  6  1  0
  8  7  2  0
  9  8  1  0
 10 11  1  0
 10  9  2  0
 11 12  2  0
 12  4  1  0
 12  7  1  0
 13  2  1  0
 13 14  2  0
 16 15  1  6
 16 17  1  0
 17 13  1  0
 18 20  1  0
 18 16  1  0
 19 18  2  0
 21 20  1  0
 21 28  1  0
 21 22  1  6
 23 22  1  0
 23 24  2  0
 25 24  1  0
 26 27  2  0
 26 25  1  0
 27 23  1  0
 28 30  2  0
 28 29  1  0
M  END
$$$$
