WAH.pdb
     RDKit          3D

 30 32  0  0  1  0  0  0  0  0999 V2000
    7.4051  -17.0254   25.2229 N   0  0  0  0  0  0  0  0  0  0  0  0
    7.7919  -16.7023   23.8537 C   0  0  1  0  0  0  0  0  0  0  0  0
    7.3055  -15.3420   23.4839 C   0  0  0  0  0  0  0  0  0  0  0  0
    6.7542  -14.6791   24.6961 C   0  0  0  0  0  0  0  0  0  0  0  0
    6.0083  -15.2792   25.7175 C   0  0  0  0  0  0  0  0  0  0  0  0
    5.6832  -14.3664   26.6457 N   0  0  0  0  0  0  0  0  0  0  0  0
    6.1881  -13.1739   26.2774 C   0  0  0  0  0  0  0  0  0  0  0  0
    6.1595  -11.9148   26.8450 C   0  0  0  0  0  0  0  0  0  0  0  0
    6.7674  -10.8370   26.2560 C   0  0  0  0  0  0  0  0  0  0  0  0
    7.4241  -11.0188   25.0645 C   0  0  0  0  0  0  0  0  0  0  0  0
    7.4624  -12.2664   24.4847 C   0  0  0  0  0  0  0  0  0  0  0  0
    6.8467  -13.3560   25.0828 C   0  0  0  0  0  0  0  0  0  0  0  0
    9.2338  -16.9050   23.7526 C   0  0  0  0  0  0  0  0  0  0  0  0
    9.7912  -17.5244   24.7132 O   0  0  0  0  0  0  0  0  0  0  0  0
   11.5668  -16.6245   20.8276 C   0  0  0  0  0  0  0  0  0  0  0  0
   11.2525  -17.1263   22.2356 C   0  0  2  0  0  0  0  0  0  0  0  0
   10.0609  -16.4850   22.7033 N   0  0  0  0  0  0  0  0  0  0  0  0
   12.4081  -16.9869   23.1138 C   0  0  0  0  0  0  0  0  0  0  0  0
   13.2750  -17.8928   23.1562 O   0  0  0  0  0  0  0  0  0  0  0  0
   12.5420  -15.8270   23.9138 N   0  0  0  0  0  0  0  0  0  0  0  0
   13.6106  -15.6320   24.8744 C   0  0  1  0  0  0  0  0  0  0  0  0
   13.5237  -16.6115   26.0113 C   0  0  0  0  0  0  0  0  0  0  0  0
   12.4296  -16.2837   26.9410 C   0  0  0  0  0  0  0  0  0  0  0  0
   11.5451  -15.2298   26.8009 C   0  0  0  0  0  0  0  0  0  0  0  0
   10.6746  -15.2322   27.8358 N   0  0  0  0  0  0  0  0  0  0  0  0
   11.0040  -16.2770   28.6241 C   0  0  0  0  0  0  0  0  0  0  0  0
   12.0692  -16.9077   28.0723 N   0  0  0  0  0  0  0  0  0  0  0  0
   14.8958  -15.8506   24.1745 C   0  0  0  0  0  0  0  0  0  0  0  0
   16.1456  -15.7792   24.7589 O   0  0  0  0  0  0  0  0  0  0  0  0
   14.8826  -16.1249   22.9450 O   0  0  0  0  0  0  0  0  0  0  0  0
  2  1  1  1
  2  3  1  0
  3  4  1  0
  4  5  2  0
  5  6  1  0
  7  6  1  0
  8  7  2  0
  9  8  1  0
 10 11  1  0
 10  9  2  0
 11 12  2  0
 12  4  1  0
 12  7  1  0
 13  2  1  0
 13 14  2  0
 16 15  1  6
 16 17  1  0
 17 13  1  0
 18 20  1  0
 18 16  1  0
 19 18  2  0
 21 20  1  0
 21 28  1  0
 21 22  1  1
 23 22  1  0
 23 24  2  0
 25 24  1  0
 26 27  2  0
 26 25  1  0
 27 23  1  0
 28 30  2  0
 28 29  1  0
M  END
$$$$
