WAH.pdb
     RDKit          3D

 30 32  0  0  1  0  0  0  0  0999 V2000
    9.3566  -16.0265   21.6435 N   0  0  0  0  0  0  0  0  0  0  0  0
    8.7463  -15.6876   22.9247 C   0  0  1  0  0  0  0  0  0  0  0  0
    7.6206  -14.7298   22.7264 C   0  0  0  0  0  0  0  0  0  0  0  0
    6.9742  -14.4642   24.0394 C   0  0  0  0  0  0  0  0  0  0  0  0
    6.0860  -15.3017   24.7246 C   0  0  0  0  0  0  0  0  0  0  0  0
    5.7097  -14.7270   25.8772 N   0  0  0  0  0  0  0  0  0  0  0  0
    6.3181  -13.5309   25.9850 C   0  0  0  0  0  0  0  0  0  0  0  0
    6.2957  -12.5375   26.9446 C   0  0  0  0  0  0  0  0  0  0  0  0
    7.0247  -11.3842   26.8155 C   0  0  0  0  0  0  0  0  0  0  0  0
    7.8002  -11.2151   25.6956 C   0  0  0  0  0  0  0  0  0  0  0  0
    7.8343  -12.1945   24.7294 C   0  0  0  0  0  0  0  0  0  0  0  0
    7.0957  -13.3611   24.8623 C   0  0  0  0  0  0  0  0  0  0  0  0
    8.3972  -16.9428   23.5826 C   0  0  0  0  0  0  0  0  0  0  0  0
    7.2049  -17.3564   23.4256 O   0  0  0  0  0  0  0  0  0  0  0  0
    8.7518  -19.9668   23.6084 C   0  0  0  0  0  0  0  0  0  0  0  0
    9.0030  -19.0708   24.8196 C   0  0  2  0  0  0  0  0  0  0  0  0
    9.2452  -17.7340   24.3676 N   0  0  0  0  0  0  0  0  0  0  0  0
   10.0436  -19.6254   25.6773 C   0  0  0  0  0  0  0  0  0  0  0  0
    9.9065  -20.7726   26.1660 O   0  0  0  0  0  0  0  0  0  0  0  0
   11.2031  -18.8617   25.9523 N   0  0  0  0  0  0  0  0  0  0  0  0
   12.2088  -19.2482   26.9227 C   0  0  1  0  0  0  0  0  0  0  0  0
   13.4938  -18.4939   26.7242 C   0  0  0  0  0  0  0  0  0  0  0  0
   13.9986  -18.6147   25.3461 C   0  0  0  0  0  0  0  0  0  0  0  0
   13.4021  -19.3431   24.3331 C   0  0  0  0  0  0  0  0  0  0  0  0
   14.1366  -19.2285   23.2036 N   0  0  0  0  0  0  0  0  0  0  0  0
   15.1884  -18.4355   23.4974 C   0  0  0  0  0  0  0  0  0  0  0  0
   15.0949  -18.0688   24.7989 N   0  0  0  0  0  0  0  0  0  0  0  0
   11.6879  -18.9255   28.2696 C   0  0  0  0  0  0  0  0  0  0  0  0
   10.5090  -18.2539   28.5300 O   0  0  0  0  0  0  0  0  0  0  0  0
   12.3510  -19.2776   29.2812 O   0  0  0  0  0  0  0  0  0  0  0  0
  2  1  1  6
  2  3  1  0
  3  4  1  0
  4  5  2  0
  5  6  1  0
  7  6  1  0
  8  7  2  0
  9  8  1  0
 10 11  1  0
 10  9  2  0
 11 12  2  0
 12  4  1  0
 12  7  1  0
 13  2  1  0
 13 14  2  0
 16 15  1  6
 16 17  1  0
 17 13  1  0
 18 20  1  0
 18 16  1  0
 19 18  2  0
 21 20  1  0
 21 28  1  0
 21 22  1  6
 23 22  1  0
 23 24  2  0
 25 24  1  0
 26 27  2  0
 26 25  1  0
 27 23  1  0
 28 30  2  0
 28 29  1  0
M  END
$$$$
