WAH.pdb
     RDKit          3D

 30 32  0  0  1  0  0  0  0  0999 V2000
    6.5723  -17.1799   23.8610 N   0  0  0  0  0  0  0  0  0  0  0  0
    7.2896  -15.9433   23.5691 C   0  0  1  0  0  0  0  0  0  0  0  0
    8.4487  -15.7848   24.4939 C   0  0  0  0  0  0  0  0  0  0  0  0
    7.9975  -15.0685   25.7170 C   0  0  0  0  0  0  0  0  0  0  0  0
    7.5916  -15.6434   26.9272 C   0  0  0  0  0  0  0  0  0  0  0  0
    7.2537  -14.6830   27.8011 N   0  0  0  0  0  0  0  0  0  0  0  0
    7.4206  -13.4832   27.2138 C   0  0  0  0  0  0  0  0  0  0  0  0
    7.2294  -12.1830   27.6396 C   0  0  0  0  0  0  0  0  0  0  0  0
    7.4796  -11.1072   26.8284 C   0  0  0  0  0  0  0  0  0  0  0  0
    7.9344  -11.3333   25.5532 C   0  0  0  0  0  0  0  0  0  0  0  0
    8.1302  -12.6223   25.1123 C   0  0  0  0  0  0  0  0  0  0  0  0
    7.8765  -13.7096   25.9352 C   0  0  0  0  0  0  0  0  0  0  0  0
    7.6159  -15.9584   22.1465 C   0  0  0  0  0  0  0  0  0  0  0  0
    7.7290  -17.1009   21.5996 O   0  0  0  0  0  0  0  0  0  0  0  0
    7.8345  -13.4999   19.3252 C   0  0  0  0  0  0  0  0  0  0  0  0
    8.2162  -14.8391   19.9528 C   0  0  2  0  0  0  0  0  0  0  0  0
    7.8157  -14.8401   21.3275 N   0  0  0  0  0  0  0  0  0  0  0  0
    9.6235  -15.1449   19.7246 C   0  0  0  0  0  0  0  0  0  0  0  0
   10.0947  -15.0945   18.5631 O   0  0  0  0  0  0  0  0  0  0  0  0
   10.4484  -15.4976   20.8194 N   0  0  0  0  0  0  0  0  0  0  0  0
   11.8948  -15.5673   20.7463 C   0  0  1  0  0  0  0  0  0  0  0  0
   12.5065  -14.2156   20.5047 C   0  0  0  0  0  0  0  0  0  0  0  0
   13.2890  -14.1778   19.2577 C   0  0  0  0  0  0  0  0  0  0  0  0
   13.2004  -15.0942   18.2257 C   0  0  0  0  0  0  0  0  0  0  0  0
   14.0614  -14.7488   17.2418 N   0  0  0  0  0  0  0  0  0  0  0  0
   14.6897  -13.6249   17.6460 C   0  0  0  0  0  0  0  0  0  0  0  0
   14.2139  -13.2873   18.8694 N   0  0  0  0  0  0  0  0  0  0  0  0
   12.3913  -16.0726   22.0455 C   0  0  0  0  0  0  0  0  0  0  0  0
   13.7085  -16.3721   22.3352 O   0  0  0  0  0  0  0  0  0  0  0  0
   11.5704  -16.2559   22.9833 O   0  0  0  0  0  0  0  0  0  0  0  0
  2  1  1  1
  2  3  1  0
  3  4  1  0
  4  5  2  0
  5  6  1  0
  7  6  1  0
  8  7  2  0
  9  8  1  0
 10 11  1  0
 10  9  2  0
 11 12  2  0
 12  4  1  0
 12  7  1  0
 13  2  1  0
 13 14  2  0
 16 15  1  1
 16 17  1  0
 17 13  1  0
 18 20  1  0
 18 16  1  0
 19 18  2  0
 21 20  1  0
 21 28  1  0
 21 22  1  1
 23 22  1  0
 23 24  2  0
 25 24  1  0
 26 27  2  0
 26 25  1  0
 27 23  1  0
 28 30  2  0
 28 29  1  0
M  END
$$$$
