WAH.pdb
     RDKit          3D

 30 32  0  0  1  0  0  0  0  0999 V2000
    8.3535  -15.6338   20.3199 N   0  0  0  0  0  0  0  0  0  0  0  0
    8.3398  -15.5918   21.7783 C   0  0  1  0  0  0  0  0  0  0  0  0
    6.9620  -15.8398   22.2920 C   0  0  0  0  0  0  0  0  0  0  0  0
    6.9122  -15.4836   23.7353 C   0  0  0  0  0  0  0  0  0  0  0  0
    6.7790  -16.3645   24.8152 C   0  0  0  0  0  0  0  0  0  0  0  0
    6.7715  -15.6790   25.9686 N   0  0  0  0  0  0  0  0  0  0  0  0
    6.8955  -14.3667   25.6946 C   0  0  0  0  0  0  0  0  0  0  0  0
    6.9461  -13.2331   26.4824 C   0  0  0  0  0  0  0  0  0  0  0  0
    7.0805  -11.9793   25.9458 C   0  0  0  0  0  0  0  0  0  0  0  0
    7.1672  -11.8504   24.5820 C   0  0  0  0  0  0  0  0  0  0  0  0
    7.1183  -12.9691   23.7819 C   0  0  0  0  0  0  0  0  0  0  0  0
    6.9824  -14.2373   24.3272 C   0  0  0  0  0  0  0  0  0  0  0  0
    9.3638  -16.5202   22.2470 C   0  0  0  0  0  0  0  0  0  0  0  0
    9.1741  -17.7524   21.9962 O   0  0  0  0  0  0  0  0  0  0  0  0
   12.9205  -16.3940   23.1832 C   0  0  0  0  0  0  0  0  0  0  0  0
   11.5683  -17.0802   23.3661 C   0  0  2  0  0  0  0  0  0  0  0  0
   10.5319  -16.1869   22.9441 N   0  0  0  0  0  0  0  0  0  0  0  0
   11.4187  -17.5949   24.7221 C   0  0  0  0  0  0  0  0  0  0  0  0
   12.3308  -18.2887   25.2325 O   0  0  0  0  0  0  0  0  0  0  0  0
   10.2415  -17.3065   25.4531 N   0  0  0  0  0  0  0  0  0  0  0  0
   10.0476  -17.6740   26.8423 C   0  0  1  0  0  0  0  0  0  0  0  0
    9.1169  -16.7256   27.5451 C   0  0  0  0  0  0  0  0  0  0  0  0
    9.7910  -15.4748   27.9321 C   0  0  0  0  0  0  0  0  0  0  0  0
   11.1499  -15.2337   27.8426 C   0  0  0  0  0  0  0  0  0  0  0  0
   11.4150  -13.9829   28.2830 N   0  0  0  0  0  0  0  0  0  0  0  0
   10.2362  -13.4366   28.6482 C   0  0  0  0  0  0  0  0  0  0  0  0
    9.2582  -14.3495   28.4313 N   0  0  0  0  0  0  0  0  0  0  0  0
    9.4416  -19.0236   26.8746 C   0  0  0  0  0  0  0  0  0  0  0  0
    9.3077  -19.8121   28.0011 O   0  0  0  0  0  0  0  0  0  0  0  0
    9.0039  -19.5222   25.8037 O   0  0  0  0  0  0  0  0  0  0  0  0
  2  1  1  6
  2  3  1  0
  3  4  1  0
  4  5  2  0
  5  6  1  0
  7  6  1  0
  8  7  2  0
  9  8  1  0
 10 11  1  0
 10  9  2  0
 11 12  2  0
 12  4  1  0
 12  7  1  0
 13  2  1  0
 13 14  2  0
 16 15  1  1
 16 17  1  0
 17 13  1  0
 18 20  1  0
 18 16  1  0
 19 18  2  0
 21 20  1  0
 21 28  1  0
 21 22  1  6
 23 22  1  0
 23 24  2  0
 25 24  1  0
 26 27  2  0
 26 25  1  0
 27 23  1  0
 28 30  2  0
 28 29  1  0
M  END
$$$$
