WAH.pdb
     RDKit          3D

 30 32  0  0  1  0  0  0  0  0999 V2000
    6.6559  -18.4953   24.2706 N   0  0  0  0  0  0  0  0  0  0  0  0
    7.4543  -17.2855   24.1044 C   0  0  1  0  0  0  0  0  0  0  0  0
    7.9166  -16.7823   25.4299 C   0  0  0  0  0  0  0  0  0  0  0  0
    7.0379  -15.6598   25.8547 C   0  0  0  0  0  0  0  0  0  0  0  0
    5.7190  -15.7516   26.3151 C   0  0  0  0  0  0  0  0  0  0  0  0
    5.2473  -14.5290   26.6036 N   0  0  0  0  0  0  0  0  0  0  0  0
    6.2092  -13.6216   26.3505 C   0  0  0  0  0  0  0  0  0  0  0  0
    6.2706  -12.2463   26.4649 C   0  0  0  0  0  0  0  0  0  0  0  0
    7.3964  -11.5381   26.1345 C   0  0  0  0  0  0  0  0  0  0  0  0
    8.4953  -12.2209   25.6759 C   0  0  0  0  0  0  0  0  0  0  0  0
    8.4516  -13.5912   25.5555 C   0  0  0  0  0  0  0  0  0  0  0  0
    7.3111  -14.3060   25.8907 C   0  0  0  0  0  0  0  0  0  0  0  0
    8.5096  -17.5925   23.1439 C   0  0  0  0  0  0  0  0  0  0  0  0
    8.8383  -18.8156   23.0298 O   0  0  0  0  0  0  0  0  0  0  0  0
   10.6001  -15.6907   20.6467 C   0  0  0  0  0  0  0  0  0  0  0  0
   10.2872  -16.9479   21.4557 C   0  0  2  0  0  0  0  0  0  0  0  0
    9.1932  -16.6737   22.3378 N   0  0  0  0  0  0  0  0  0  0  0  0
   11.4844  -17.4657   22.1073 C   0  0  0  0  0  0  0  0  0  0  0  0
   12.5219  -17.6763   21.4343 O   0  0  0  0  0  0  0  0  0  0  0  0
   11.4654  -17.7273   23.4981 N   0  0  0  0  0  0  0  0  0  0  0  0
   12.6231  -18.1749   24.2478 C   0  0  1  0  0  0  0  0  0  0  0  0
   12.4561  -17.9410   25.7233 C   0  0  0  0  0  0  0  0  0  0  0  0
   12.3341  -16.5093   26.0457 C   0  0  0  0  0  0  0  0  0  0  0  0
   12.4902  -15.4678   25.1492 C   0  0  0  0  0  0  0  0  0  0  0  0
   12.3074  -14.2911   25.7900 N   0  0  0  0  0  0  0  0  0  0  0  0
   12.0383  -14.5835   27.0797 C   0  0  0  0  0  0  0  0  0  0  0  0
   12.0569  -15.9311   27.2239 N   0  0  0  0  0  0  0  0  0  0  0  0
   12.7731  -19.6301   24.0256 C   0  0  0  0  0  0  0  0  0  0  0  0
   11.9663  -20.4009   23.2110 O   0  0  0  0  0  0  0  0  0  0  0  0
   13.7020  -20.2450   24.6139 O   0  0  0  0  0  0  0  0  0  0  0  0
  2  1  1  1
  2  3  1  0
  3  4  1  0
  4  5  2  0
  5  6  1  0
  7  6  1  0
  8  7  2  0
  9  8  1  0
 10 11  1  0
 10  9  2  0
 11 12  2  0
 12  4  1  0
 12  7  1  0
 13  2  1  0
 13 14  2  0
 16 15  1  1
 16 17  1  0
 17 13  1  0
 18 20  1  0
 18 16  1  0
 19 18  2  0
 21 20  1  0
 21 28  1  0
 21 22  1  1
 23 22  1  0
 23 24  2  0
 25 24  1  0
 26 27  2  0
 26 25  1  0
 27 23  1  0
 28 30  2  0
 28 29  1  0
M  END
$$$$
