WAH.pdb
     RDKit          3D

 30 32  0  0  1  0  0  0  0  0999 V2000
    6.5031  -18.3071   22.9106 N   0  0  0  0  0  0  0  0  0  0  0  0
    7.2746  -17.2430   23.5441 C   0  0  1  0  0  0  0  0  0  0  0  0
    7.0908  -17.2786   25.0236 C   0  0  0  0  0  0  0  0  0  0  0  0
    6.4624  -16.0044   25.4641 C   0  0  0  0  0  0  0  0  0  0  0  0
    5.1854  -15.8424   26.0145 C   0  0  0  0  0  0  0  0  0  0  0  0
    4.9644  -14.5475   26.2882 N   0  0  0  0  0  0  0  0  0  0  0  0
    6.0536  -13.8377   25.9381 C   0  0  0  0  0  0  0  0  0  0  0  0
    6.3705  -12.4944   25.9970 C   0  0  0  0  0  0  0  0  0  0  0  0
    7.5788  -12.0122   25.5663 C   0  0  0  0  0  0  0  0  0  0  0  0
    8.5002  -12.8953   25.0611 C   0  0  0  0  0  0  0  0  0  0  0  0
    8.2011  -14.2370   24.9949 C   0  0  0  0  0  0  0  0  0  0  0  0
    6.9775  -14.7229   25.4316 C   0  0  0  0  0  0  0  0  0  0  0  0
    8.6514  -17.3703   23.0769 C   0  0  0  0  0  0  0  0  0  0  0  0
    9.0898  -18.5522   22.9099 O   0  0  0  0  0  0  0  0  0  0  0  0
   11.4482  -15.0843   22.0109 C   0  0  0  0  0  0  0  0  0  0  0  0
   10.9422  -16.4190   22.5546 C   0  0  2  0  0  0  0  0  0  0  0  0
    9.5342  -16.3202   22.7950 N   0  0  0  0  0  0  0  0  0  0  0  0
   11.7306  -16.8523   23.7021 C   0  0  0  0  0  0  0  0  0  0  0  0
   12.9607  -17.0623   23.5731 O   0  0  0  0  0  0  0  0  0  0  0  0
   11.0989  -17.0334   24.9557 N   0  0  0  0  0  0  0  0  0  0  0  0
   11.7871  -17.5038   26.1421 C   0  0  1  0  0  0  0  0  0  0  0  0
   11.1029  -17.0483   27.4008 C   0  0  0  0  0  0  0  0  0  0  0  0
   11.1486  -15.5846   27.5561 C   0  0  0  0  0  0  0  0  0  0  0  0
   11.9877  -14.7293   26.8654 C   0  0  0  0  0  0  0  0  0  0  0  0
   11.7566  -13.4566   27.2595 N   0  0  0  0  0  0  0  0  0  0  0  0
   10.7809  -13.5044   28.1907 C   0  0  0  0  0  0  0  0  0  0  0  0
   10.4195  -14.7993   28.3629 N   0  0  0  0  0  0  0  0  0  0  0  0
   11.7725  -18.9833   26.1188 C   0  0  0  0  0  0  0  0  0  0  0  0
   11.1643  -19.7608   25.1523 O   0  0  0  0  0  0  0  0  0  0  0  0
   12.3524  -19.6142   27.0423 O   0  0  0  0  0  0  0  0  0  0  0  0
  2  1  1  6
  2  3  1  0
  3  4  1  0
  4  5  2  0
  5  6  1  0
  7  6  1  0
  8  7  2  0
  9  8  1  0
 10 11  1  0
 10  9  2  0
 11 12  2  0
 12  4  1  0
 12  7  1  0
 13  2  1  0
 13 14  2  0
 16 15  1  1
 16 17  1  0
 17 13  1  0
 18 20  1  0
 18 16  1  0
 19 18  2  0
 21 20  1  0
 21 28  1  0
 21 22  1  1
 23 22  1  0
 23 24  2  0
 25 24  1  0
 26 27  2  0
 26 25  1  0
 27 23  1  0
 28 30  2  0
 28 29  1  0
M  END
$$$$
