WAH.pdb
     RDKit          3D

 30 32  0  0  1  0  0  0  0  0999 V2000
    6.6413  -17.1236   23.8359 N   0  0  0  0  0  0  0  0  0  0  0  0
    7.7669  -16.2695   23.4719 C   0  0  1  0  0  0  0  0  0  0  0  0
    8.4942  -15.8202   24.6938 C   0  0  0  0  0  0  0  0  0  0  0  0
    7.5768  -14.9992   25.5286 C   0  0  0  0  0  0  0  0  0  0  0  0
    6.5078  -15.4601   26.3062 C   0  0  0  0  0  0  0  0  0  0  0  0
    5.9075  -14.4284   26.9189 N   0  0  0  0  0  0  0  0  0  0  0  0
    6.5412  -13.2912   26.5758 C   0  0  0  0  0  0  0  0  0  0  0  0
    6.3531  -11.9630   26.9056 C   0  0  0  0  0  0  0  0  0  0  0  0
    7.1564  -10.9692   26.4104 C   0  0  0  0  0  0  0  0  0  0  0  0
    8.1789  -11.3089   25.5600 C   0  0  0  0  0  0  0  0  0  0  0  0
    8.3806  -12.6273   25.2205 C   0  0  0  0  0  0  0  0  0  0  0  0
    7.5665  -13.6315   25.7231 C   0  0  0  0  0  0  0  0  0  0  0  0
    8.5673  -17.0020   22.4956 C   0  0  0  0  0  0  0  0  0  0  0  0
    9.7464  -16.5733   22.2884 O   0  0  0  0  0  0  0  0  0  0  0  0
    6.4078  -17.5452   20.2239 C   0  0  0  0  0  0  0  0  0  0  0  0
    7.7911  -18.1724   20.3854 C   0  0  2  0  0  0  0  0  0  0  0  0
    8.1642  -18.1281   21.7670 N   0  0  0  0  0  0  0  0  0  0  0  0
    8.7529  -17.5676   19.4715 C   0  0  0  0  0  0  0  0  0  0  0  0
    8.5360  -17.5805   18.2360 O   0  0  0  0  0  0  0  0  0  0  0  0
    9.9270  -16.9694   19.9882 N   0  0  0  0  0  0  0  0  0  0  0  0
   10.8892  -16.2527   19.1739 C   0  0  1  0  0  0  0  0  0  0  0  0
   10.7436  -14.7637   19.3198 C   0  0  0  0  0  0  0  0  0  0  0  0
    9.5550  -14.2530   18.6161 C   0  0  0  0  0  0  0  0  0  0  0  0
    8.7440  -14.9885   17.7711 C   0  0  0  0  0  0  0  0  0  0  0  0
    7.7487  -14.2011   17.3043 N   0  0  0  0  0  0  0  0  0  0  0  0
    7.9268  -12.9787   17.8478 C   0  0  0  0  0  0  0  0  0  0  0  0
    9.0247  -13.0212   18.6414 N   0  0  0  0  0  0  0  0  0  0  0  0
   12.2440  -16.6308   19.6336 C   0  0  0  0  0  0  0  0  0  0  0  0
   13.4279  -16.1323   19.1251 O   0  0  0  0  0  0  0  0  0  0  0  0
   12.3605  -17.4743   20.5620 O   0  0  0  0  0  0  0  0  0  0  0  0
  2  1  1  1
  2  3  1  0
  3  4  1  0
  4  5  2  0
  5  6  1  0
  7  6  1  0
  8  7  2  0
  9  8  1  0
 10 11  1  0
 10  9  2  0
 11 12  2  0
 12  4  1  0
 12  7  1  0
 13  2  1  0
 13 14  2  0
 16 15  1  1
 16 17  1  0
 17 13  1  0
 18 20  1  0
 18 16  1  0
 19 18  2  0
 21 20  1  0
 21 28  1  0
 21 22  1  1
 23 22  1  0
 23 24  2  0
 25 24  1  0
 26 27  2  0
 26 25  1  0
 27 23  1  0
 28 30  2  0
 28 29  1  0
M  END
$$$$
