WAH.pdb
     RDKit          3D

 30 32  0  0  1  0  0  0  0  0999 V2000
    9.2856  -15.7712   23.6289 N   0  0  0  0  0  0  0  0  0  0  0  0
    9.8094  -16.0372   24.9644 C   0  0  1  0  0  0  0  0  0  0  0  0
    8.6928  -16.1581   25.9455 C   0  0  0  0  0  0  0  0  0  0  0  0
    7.6562  -15.1401   25.6267 C   0  0  0  0  0  0  0  0  0  0  0  0
    6.5965  -15.2731   24.7216 C   0  0  0  0  0  0  0  0  0  0  0  0
    5.8680  -14.1465   24.6988 N   0  0  0  0  0  0  0  0  0  0  0  0
    6.4070  -13.2634   25.5604 C   0  0  0  0  0  0  0  0  0  0  0  0
    6.0741  -11.9751   25.9315 C   0  0  0  0  0  0  0  0  0  0  0  0
    6.8028  -11.2726   26.8554 C   0  0  0  0  0  0  0  0  0  0  0  0
    7.8971  -11.8719   27.4276 C   0  0  0  0  0  0  0  0  0  0  0  0
    8.2433  -13.1548   27.0694 C   0  0  0  0  0  0  0  0  0  0  0  0
    7.5043  -13.8641   26.1342 C   0  0  0  0  0  0  0  0  0  0  0  0
   10.6863  -17.1994   24.8613 C   0  0  0  0  0  0  0  0  0  0  0  0
   11.0749  -17.7192   25.9549 O   0  0  0  0  0  0  0  0  0  0  0  0
   11.6743  -19.7170   22.3253 C   0  0  0  0  0  0  0  0  0  0  0  0
   12.0443  -18.9001   23.5618 C   0  0  2  0  0  0  0  0  0  0  0  0
   11.1400  -17.7962   23.6783 N   0  0  0  0  0  0  0  0  0  0  0  0
   13.4563  -18.5365   23.5489 C   0  0  0  0  0  0  0  0  0  0  0  0
   14.3313  -19.4284   23.4365 O   0  0  0  0  0  0  0  0  0  0  0  0
   13.8285  -17.1758   23.6639 N   0  0  0  0  0  0  0  0  0  0  0  0
   15.1956  -16.7045   23.5566 C   0  0  1  0  0  0  0  0  0  0  0  0
   15.2609  -15.3006   23.0235 C   0  0  0  0  0  0  0  0  0  0  0  0
   14.8226  -15.2213   21.6198 C   0  0  0  0  0  0  0  0  0  0  0  0
   14.5392  -16.3019   20.8046 C   0  0  0  0  0  0  0  0  0  0  0  0
   14.1661  -15.8583   19.5828 N   0  0  0  0  0  0  0  0  0  0  0  0
   14.2126  -14.5101   19.6230 C   0  0  0  0  0  0  0  0  0  0  0  0
   14.6118  -14.1344   20.8626 N   0  0  0  0  0  0  0  0  0  0  0  0
   15.7858  -16.7105   24.9135 C   0  0  0  0  0  0  0  0  0  0  0  0
   17.0725  -16.3168   25.2264 O   0  0  0  0  0  0  0  0  0  0  0  0
   15.0833  -17.1022   25.8832 O   0  0  0  0  0  0  0  0  0  0  0  0
  2  1  1  6
  2  3  1  0
  3  4  1  0
  4  5  2  0
  5  6  1  0
  7  6  1  0
  8  7  2  0
  9  8  1  0
 10 11  1  0
 10  9  2  0
 11 12  2  0
 12  4  1  0
 12  7  1  0
 13  2  1  0
 13 14  2  0
 16 15  1  6
 16 17  1  0
 17 13  1  0
 18 20  1  0
 18 16  1  0
 19 18  2  0
 21 20  1  0
 21 28  1  0
 21 22  1  1
 23 22  1  0
 23 24  2  0
 25 24  1  0
 26 27  2  0
 26 25  1  0
 27 23  1  0
 28 30  2  0
 28 29  1  0
M  END
$$$$
