WAH.pdb
     RDKit          3D

 30 32  0  0  1  0  0  0  0  0999 V2000
    6.9327  -18.0373   22.1312 N   0  0  0  0  0  0  0  0  0  0  0  0
    7.6029  -17.2292   23.1444 C   0  0  1  0  0  0  0  0  0  0  0  0
    7.0778  -17.5573   24.5011 C   0  0  0  0  0  0  0  0  0  0  0  0
    6.5640  -16.3136   25.1350 C   0  0  0  0  0  0  0  0  0  0  0  0
    5.2491  -16.0578   25.5417 C   0  0  0  0  0  0  0  0  0  0  0  0
    5.1633  -14.8277   26.0708 N   0  0  0  0  0  0  0  0  0  0  0  0
    6.3797  -14.2520   26.0308 C   0  0  0  0  0  0  0  0  0  0  0  0
    6.8607  -13.0205   26.4313 C   0  0  0  0  0  0  0  0  0  0  0  0
    8.1760  -12.6677   26.2771 C   0  0  0  0  0  0  0  0  0  0  0  0
    9.0390  -13.5694   25.7062 C   0  0  0  0  0  0  0  0  0  0  0  0
    8.5769  -14.8009   25.3011 C   0  0  0  0  0  0  0  0  0  0  0  0
    7.2453  -15.1559   25.4583 C   0  0  0  0  0  0  0  0  0  0  0  0
    9.0394  -17.4131   22.9633 C   0  0  0  0  0  0  0  0  0  0  0  0
    9.4340  -18.5919   22.6950 O   0  0  0  0  0  0  0  0  0  0  0  0
   12.1386  -15.3113   22.7400 C   0  0  0  0  0  0  0  0  0  0  0  0
   11.4399  -16.6145   23.1229 C   0  0  2  0  0  0  0  0  0  0  0  0
   10.0229  -16.4203   23.0558 N   0  0  0  0  0  0  0  0  0  0  0  0
   11.9293  -17.1179   24.4008 C   0  0  0  0  0  0  0  0  0  0  0  0
   13.1488  -17.3728   24.5476 O   0  0  0  0  0  0  0  0  0  0  0  0
   11.0210  -17.3155   25.4681 N   0  0  0  0  0  0  0  0  0  0  0  0
   11.4241  -17.7078   26.8046 C   0  0  1  0  0  0  0  0  0  0  0  0
   10.5473  -17.0870   27.8560 C   0  0  0  0  0  0  0  0  0  0  0  0
   10.7505  -15.6320   27.9567 C   0  0  0  0  0  0  0  0  0  0  0  0
   11.6373  -14.8903   27.1976 C   0  0  0  0  0  0  0  0  0  0  0  0
   11.5578  -13.5889   27.5563 N   0  0  0  0  0  0  0  0  0  0  0  0
   10.6300  -13.5062   28.5329 C   0  0  0  0  0  0  0  0  0  0  0  0
   10.1469  -14.7506   28.7679 N   0  0  0  0  0  0  0  0  0  0  0  0
   11.2939  -19.1784   26.9049 C   0  0  0  0  0  0  0  0  0  0  0  0
   10.8262  -20.0087   25.9047 O   0  0  0  0  0  0  0  0  0  0  0  0
   11.6275  -19.7492   27.9772 O   0  0  0  0  0  0  0  0  0  0  0  0
  2  1  1  6
  2  3  1  0
  3  4  1  0
  4  5  2  0
  5  6  1  0
  7  6  1  0
  8  7  2  0
  9  8  1  0
 10 11  1  0
 10  9  2  0
 11 12  2  0
 12  4  1  0
 12  7  1  0
 13  2  1  0
 13 14  2  0
 16 15  1  1
 16 17  1  0
 17 13  1  0
 18 20  1  0
 18 16  1  0
 19 18  2  0
 21 20  1  0
 21 28  1  0
 21 22  1  1
 23 22  1  0
 23 24  2  0
 25 24  1  0
 26 27  2  0
 26 25  1  0
 27 23  1  0
 28 30  2  0
 28 29  1  0
M  END
$$$$
