WAH.pdb
     RDKit          3D

 30 32  0  0  1  0  0  0  0  0999 V2000
    7.3721  -17.3004   23.7830 N   0  0  0  0  0  0  0  0  0  0  0  0
    8.3811  -16.2534   23.9030 C   0  0  1  0  0  0  0  0  0  0  0  0
    8.4846  -15.7916   25.3172 C   0  0  0  0  0  0  0  0  0  0  0  0
    7.2824  -14.9818   25.6511 C   0  0  0  0  0  0  0  0  0  0  0  0
    6.1174  -15.4278   26.2864 C   0  0  0  0  0  0  0  0  0  0  0  0
    5.2489  -14.4135   26.4175 N   0  0  0  0  0  0  0  0  0  0  0  0
    5.7961  -13.3024   25.8896 C   0  0  0  0  0  0  0  0  0  0  0  0
    5.3568  -11.9995   25.7557 C   0  0  0  0  0  0  0  0  0  0  0  0
    6.1246  -11.0297   25.1657 C   0  0  0  0  0  0  0  0  0  0  0  0
    7.3686  -11.3680   24.6944 C   0  0  0  0  0  0  0  0  0  0  0  0
    7.8221  -12.6614   24.8194 C   0  0  0  0  0  0  0  0  0  0  0  0
    7.0434  -13.6414   25.4170 C   0  0  0  0  0  0  0  0  0  0  0  0
    9.6135  -16.7716   23.3175 C   0  0  0  0  0  0  0  0  0  0  0  0
    9.7644  -18.0342   23.3315 O   0  0  0  0  0  0  0  0  0  0  0  0
   12.4948  -15.4710   21.3008 C   0  0  0  0  0  0  0  0  0  0  0  0
   11.9022  -16.4992   22.2624 C   0  0  2  0  0  0  0  0  0  0  0  0
   10.6431  -16.0157   22.7431 N   0  0  0  0  0  0  0  0  0  0  0  0
   12.8582  -16.8582   23.3031 C   0  0  0  0  0  0  0  0  0  0  0  0
   14.0252  -17.1970   22.9913 O   0  0  0  0  0  0  0  0  0  0  0  0
   12.4598  -16.8216   24.6608 N   0  0  0  0  0  0  0  0  0  0  0  0
   13.2827  -17.3031   25.7533 C   0  0  1  0  0  0  0  0  0  0  0  0
   12.4939  -17.4436   27.0252 C   0  0  0  0  0  0  0  0  0  0  0  0
   11.7724  -16.2063   27.3678 C   0  0  0  0  0  0  0  0  0  0  0  0
   12.3527  -14.9668   27.5661 C   0  0  0  0  0  0  0  0  0  0  0  0
   11.3922  -14.0625   27.8634 N   0  0  0  0  0  0  0  0  0  0  0  0
   10.2148  -14.7222   27.8539 C   0  0  0  0  0  0  0  0  0  0  0  0
   10.4568  -16.0212   27.5522 N   0  0  0  0  0  0  0  0  0  0  0  0
   13.7971  -18.6393   25.3796 C   0  0  0  0  0  0  0  0  0  0  0  0
   13.0788  -19.6142   24.7146 O   0  0  0  0  0  0  0  0  0  0  0  0
   14.9824  -18.9429   25.6793 O   0  0  0  0  0  0  0  0  0  0  0  0
  2  1  1  1
  2  3  1  0
  3  4  1  0
  4  5  2  0
  5  6  1  0
  7  6  1  0
  8  7  2  0
  9  8  1  0
 10 11  1  0
 10  9  2  0
 11 12  2  0
 12  4  1  0
 12  7  1  0
 13  2  1  0
 13 14  2  0
 16 15  1  6
 16 17  1  0
 17 13  1  0
 18 20  1  0
 18 16  1  0
 19 18  2  0
 21 20  1  0
 21 28  1  0
 21 22  1  1
 23 22  1  0
 23 24  2  0
 25 24  1  0
 26 27  2  0
 26 25  1  0
 27 23  1  0
 28 30  2  0
 28 29  1  0
M  END
$$$$
