WAH.pdb
     RDKit          3D

 30 32  0  0  1  0  0  0  0  0999 V2000
    6.6775  -17.8335   24.4174 N   0  0  0  0  0  0  0  0  0  0  0  0
    7.4266  -16.7120   23.8607 C   0  0  1  0  0  0  0  0  0  0  0  0
    8.2068  -16.0264   24.9307 C   0  0  0  0  0  0  0  0  0  0  0  0
    7.3383  -15.0146   25.5902 C   0  0  0  0  0  0  0  0  0  0  0  0
    6.1433  -15.2527   26.2794 C   0  0  0  0  0  0  0  0  0  0  0  0
    5.6391  -14.0965   26.7369 N   0  0  0  0  0  0  0  0  0  0  0  0
    6.4593  -13.0919   26.3754 C   0  0  0  0  0  0  0  0  0  0  0  0
    6.4311  -11.7251   26.5744 C   0  0  0  0  0  0  0  0  0  0  0  0
    7.4128  -10.8992   26.0926 C   0  0  0  0  0  0  0  0  0  0  0  0
    8.4550  -11.4516   25.3907 C   0  0  0  0  0  0  0  0  0  0  0  0
    8.4989  -12.8114   25.1829 C   0  0  0  0  0  0  0  0  0  0  0  0
    7.5043  -13.6455   25.6716 C   0  0  0  0  0  0  0  0  0  0  0  0
    8.2094  -17.2278   22.7421 C   0  0  0  0  0  0  0  0  0  0  0  0
    8.7334  -18.3765   22.8946 O   0  0  0  0  0  0  0  0  0  0  0  0
    9.3252  -15.9544   19.3697 C   0  0  0  0  0  0  0  0  0  0  0  0
    9.2965  -17.0223   20.4614 C   0  0  2  0  0  0  0  0  0  0  0  0
    8.4390  -16.5827   21.5204 N   0  0  0  0  0  0  0  0  0  0  0  0
   10.6459  -17.3862   20.8769 C   0  0  0  0  0  0  0  0  0  0  0  0
   11.0919  -18.5309   20.6229 O   0  0  0  0  0  0  0  0  0  0  0  0
   11.4435  -16.4415   21.5660 N   0  0  0  0  0  0  0  0  0  0  0  0
   12.7726  -16.7271   22.0702 C   0  0  1  0  0  0  0  0  0  0  0  0
   12.8560  -18.1006   22.6755 C   0  0  0  0  0  0  0  0  0  0  0  0
   12.2123  -18.1615   23.9986 C   0  0  0  0  0  0  0  0  0  0  0  0
   11.8790  -17.0708   24.7808 C   0  0  0  0  0  0  0  0  0  0  0  0
   11.3041  -17.4982   25.9277 N   0  0  0  0  0  0  0  0  0  0  0  0
   11.2733  -18.8464   25.8733 C   0  0  0  0  0  0  0  0  0  0  0  0
   11.8264  -19.2381   24.6995 N   0  0  0  0  0  0  0  0  0  0  0  0
   13.7134  -16.6679   20.9296 C   0  0  0  0  0  0  0  0  0  0  0  0
   13.3599  -16.4379   19.6140 O   0  0  0  0  0  0  0  0  0  0  0  0
   14.9432  -16.8383   21.1429 O   0  0  0  0  0  0  0  0  0  0  0  0
  2  1  1  1
  2  3  1  0
  3  4  1  0
  4  5  2  0
  5  6  1  0
  7  6  1  0
  8  7  2  0
  9  8  1  0
 10 11  1  0
 10  9  2  0
 11 12  2  0
 12  4  1  0
 12  7  1  0
 13  2  1  0
 13 14  2  0
 16 15  1  6
 16 17  1  0
 17 13  1  0
 18 20  1  0
 18 16  1  0
 19 18  2  0
 21 20  1  0
 21 28  1  0
 21 22  1  6
 23 22  1  0
 23 24  2  0
 25 24  1  0
 26 27  2  0
 26 25  1  0
 27 23  1  0
 28 30  2  0
 28 29  1  0
M  END
$$$$
