NMN.pdb
     RDKit          3D

 25 24  0  0  1  0  0  0  0  0999 V2000
   22.1553  -10.9802  -22.4881 N   0  0  0  0  0  0  0  0  0  0  0  0
   21.6169  -10.0067  -21.6133 C   0  0  0  0  0  0  0  0  0  0  0  0
   20.7866   -9.1313  -22.0369 O   0  0  0  0  0  0  0  0  0  0  0  0
   22.0235  -10.0017  -20.1790 C   0  0  0  0  0  0  0  0  0  0  0  0
   22.9820  -11.1655  -19.8900 C   0  0  2  0  0  0  0  0  0  0  0  0
   22.2979  -12.4211  -20.0612 N   0  0  0  0  0  0  0  0  0  0  0  0
   23.4031  -11.0201  -18.4672 C   0  0  0  0  0  0  0  0  0  0  0  0
   23.4283  -12.0462  -17.7389 O   0  0  0  0  0  0  0  0  0  0  0  0
   28.7004  -11.2231  -16.8313 C   0  0  0  0  0  0  0  0  0  0  0  0
   27.7958  -11.5354  -15.3144 S   0  0  0  0  0  0  0  0  0  0  0  0
   26.3717  -10.3806  -15.2107 C   0  0  0  0  0  0  0  0  0  0  0  0
   25.6453  -10.4762  -16.5136 C   0  0  0  0  0  0  0  0  0  0  0  0
   24.4160   -9.6211  -16.6168 C   0  0  2  0  0  0  0  0  0  0  0  0
   23.7766   -9.7942  -17.8880 N   0  0  0  0  0  0  0  0  0  0  0  0
   24.6304   -8.2046  -16.2261 C   0  0  0  0  0  0  0  0  0  0  0  0
   25.7278   -7.7023  -16.5815 O   0  0  0  0  0  0  0  0  0  0  0  0
   23.0474   -3.3922  -16.4483 N   0  0  0  0  0  0  0  0  0  0  0  0
   22.7811   -4.3747  -17.4093 C   0  0  0  0  0  0  0  0  0  0  0  0
   22.3349   -4.0025  -18.5537 O   0  0  0  0  0  0  0  0  0  0  0  0
   23.0081   -5.7983  -17.1210 C   0  0  0  0  0  0  0  0  0  0  0  0
   23.5108   -6.0149  -15.7354 C   0  0  2  0  0  0  0  0  0  0  0  0
   23.7109   -7.4391  -15.5122 N   0  0  0  0  0  0  0  0  0  0  0  0
   22.5157   -5.5523  -14.7358 C   0  0  0  0  0  0  0  0  0  0  0  0
   22.3746   -4.1777  -14.4946 O   0  0  0  0  0  0  0  0  0  0  0  0
   21.7640   -6.3003  -14.0658 O   0  0  0  0  0  0  0  0  0  0  0  0
  1  2  1  0
  2  3  2  0
  4  2  1  0
  5  4  1  0
  5  6  1  1
  7  8  2  0
  7  5  1  0
  9 10  1  0
 10 11  1  0
 11 12  1  0
 13 12  1  6
 13 14  1  0
 14  7  1  0
 15 13  1  0
 15 22  1  0
 16 15  2  0
 18 17  1  0
 18 20  1  0
 19 18  2  0
 21 22  1  0
 21 20  1  6
 23 21  1  0
 24 23  1  0
 25 23  2  0
M  END
$$$$
