NMN.pdb
     RDKit          3D

 25 24  0  0  1  0  0  0  0  0999 V2000
   25.2942  -17.3243  -18.4739 N   0  0  0  0  0  0  0  0  0  0  0  0
   25.6150  -17.0642  -17.1204 C   0  0  0  0  0  0  0  0  0  0  0  0
   25.6429  -18.0091  -16.2593 O   0  0  0  0  0  0  0  0  0  0  0  0
   25.9244  -15.6699  -16.6928 C   0  0  0  0  0  0  0  0  0  0  0  0
   25.8747  -14.7174  -17.8956 C   0  0  2  0  0  0  0  0  0  0  0  0
   26.9426  -15.0246  -18.8117 N   0  0  0  0  0  0  0  0  0  0  0  0
   26.0680  -13.3427  -17.3518 C   0  0  0  0  0  0  0  0  0  0  0  0
   25.2384  -12.9051  -16.5126 O   0  0  0  0  0  0  0  0  0  0  0  0
   32.7756  -11.7445  -17.2860 C   0  0  0  0  0  0  0  0  0  0  0  0
   31.3753  -10.7491  -17.8013 S   0  0  0  0  0  0  0  0  0  0  0  0
   29.8222  -11.5565  -17.2460 C   0  0  0  0  0  0  0  0  0  0  0  0
   28.6999  -10.6622  -17.6640 C   0  0  0  0  0  0  0  0  0  0  0  0
   27.3300  -11.1495  -17.2910 C   0  0  2  0  0  0  0  0  0  0  0  0
   27.1312  -12.5011  -17.7247 N   0  0  0  0  0  0  0  0  0  0  0  0
   26.2350  -10.2183  -17.6639 C   0  0  0  0  0  0  0  0  0  0  0  0
   25.8374  -10.2953  -18.8551 O   0  0  0  0  0  0  0  0  0  0  0  0
   21.1233   -7.8415  -15.7291 N   0  0  0  0  0  0  0  0  0  0  0  0
   22.2345   -7.8533  -16.5806 C   0  0  0  0  0  0  0  0  0  0  0  0
   22.2652   -7.0172  -17.5538 O   0  0  0  0  0  0  0  0  0  0  0  0
   23.3427   -8.7956  -16.3676 C   0  0  0  0  0  0  0  0  0  0  0  0
   24.5471   -8.4319  -17.1653 C   0  0  2  0  0  0  0  0  0  0  0  0
   25.6533   -9.3006  -16.7917 N   0  0  0  0  0  0  0  0  0  0  0  0
   24.9696   -7.0386  -16.8756 C   0  0  0  0  0  0  0  0  0  0  0  0
   26.0150   -6.8141  -15.9676 O   0  0  0  0  0  0  0  0  0  0  0  0
   24.4631   -6.0100  -17.3844 O   0  0  0  0  0  0  0  0  0  0  0  0
  1  2  1  0
  2  3  2  0
  4  2  1  0
  5  4  1  0
  5  6  1  6
  7  8  2  0
  7  5  1  0
  9 10  1  0
 10 11  1  0
 11 12  1  0
 13 12  1  6
 13 14  1  0
 14  7  1  0
 15 13  1  0
 15 22  1  0
 16 15  2  0
 18 17  1  0
 18 20  1  0
 19 18  2  0
 21 22  1  0
 21 20  1  1
 23 21  1  0
 24 23  1  0
 25 23  2  0
M  END
$$$$
