NMN.pdb
     RDKit          3D

 25 24  0  0  1  0  0  0  0  0999 V2000
   28.5950  -20.6109  -16.9398 N   0  0  0  0  0  0  0  0  0  0  0  0
   28.9425  -21.6696  -16.0673 C   0  0  0  0  0  0  0  0  0  0  0  0
   29.8919  -22.4751  -16.3585 O   0  0  0  0  0  0  0  0  0  0  0  0
   28.1915  -21.8479  -14.7918 C   0  0  0  0  0  0  0  0  0  0  0  0
   27.0844  -20.7915  -14.6699 C   0  0  2  0  0  0  0  0  0  0  0  0
   27.6605  -19.5072  -14.3655 N   0  0  0  0  0  0  0  0  0  0  0  0
   26.2126  -21.2243  -13.5406 C   0  0  0  0  0  0  0  0  0  0  0  0
   25.5376  -22.2785  -13.6709 O   0  0  0  0  0  0  0  0  0  0  0  0
   29.1359  -20.3637   -7.4774 C   0  0  0  0  0  0  0  0  0  0  0  0
   27.4799  -19.8943   -7.9818 S   0  0  0  0  0  0  0  0  0  0  0  0
   27.0545  -20.7617   -9.5435 C   0  0  0  0  0  0  0  0  0  0  0  0
   25.7069  -20.2648   -9.9576 C   0  0  0  0  0  0  0  0  0  0  0  0
   25.1995  -20.8201  -11.2565 C   0  0  2  0  0  0  0  0  0  0  0  0
   26.1002  -20.5178  -12.3298 N   0  0  0  0  0  0  0  0  0  0  0  0
   23.7782  -20.4950  -11.5387 C   0  0  0  0  0  0  0  0  0  0  0  0
   23.1720  -19.8713  -10.6297 O   0  0  0  0  0  0  0  0  0  0  0  0
   20.2166  -18.9656  -16.1248 N   0  0  0  0  0  0  0  0  0  0  0  0
   20.5210  -19.1296  -14.7682 C   0  0  0  0  0  0  0  0  0  0  0  0
   19.6123  -18.8599  -13.9029 O   0  0  0  0  0  0  0  0  0  0  0  0
   21.8459  -19.6018  -14.3403 C   0  0  0  0  0  0  0  0  0  0  0  0
   21.7844  -20.3484  -13.0526 C   0  0  2  0  0  0  0  0  0  0  0  0
   23.1131  -20.8365  -12.7143 N   0  0  0  0  0  0  0  0  0  0  0  0
   20.9014  -21.5355  -13.1738 C   0  0  0  0  0  0  0  0  0  0  0  0
   21.3885  -22.6908  -13.8028 O   0  0  0  0  0  0  0  0  0  0  0  0
   19.7223  -21.6043  -12.7513 O   0  0  0  0  0  0  0  0  0  0  0  0
  1  2  1  0
  2  3  2  0
  4  2  1  0
  5  4  1  0
  5  6  1  1
  7  8  2  0
  7  5  1  0
  9 10  1  0
 10 11  1  0
 11 12  1  0
 13 12  1  1
 13 14  1  0
 14  7  1  0
 15 13  1  0
 15 22  1  0
 16 15  2  0
 18 17  1  0
 18 20  1  0
 19 18  2  0
 21 22  1  0
 21 20  1  6
 23 21  1  0
 24 23  1  0
 25 23  2  0
M  END
$$$$
