NMN.pdb
     RDKit          3D

 25 24  0  0  1  0  0  0  0  0999 V2000
   20.7143  -22.6891  -13.7889 N   0  0  0  0  0  0  0  0  0  0  0  0
   19.9852  -21.9080  -12.8610 C   0  0  0  0  0  0  0  0  0  0  0  0
   18.7729  -22.1942  -12.5717 O   0  0  0  0  0  0  0  0  0  0  0  0
   20.6392  -20.7358  -12.2122 C   0  0  0  0  0  0  0  0  0  0  0  0
   22.0584  -20.5411  -12.7642 C   0  0  2  0  0  0  0  0  0  0  0  0
   22.5008  -21.7439  -13.4210 N   0  0  0  0  0  0  0  0  0  0  0  0
   22.9331  -20.2677  -11.5882 C   0  0  0  0  0  0  0  0  0  0  0  0
   22.6976  -19.2499  -10.8863 O   0  0  0  0  0  0  0  0  0  0  0  0
   26.3971  -19.4603   -6.5877 C   0  0  0  0  0  0  0  0  0  0  0  0
   27.1184  -20.9367   -7.3068 S   0  0  0  0  0  0  0  0  0  0  0  0
   27.1434  -20.7687   -9.1354 C   0  0  0  0  0  0  0  0  0  0  0  0
   25.8304  -21.2824   -9.6319 C   0  0  0  0  0  0  0  0  0  0  0  0
   25.3393  -20.6437  -10.8984 C   0  0  2  0  0  0  0  0  0  0  0  0
   24.0136  -21.0871  -11.2152 N   0  0  0  0  0  0  0  0  0  0  0  0
   26.2996  -20.7253  -12.0283 C   0  0  0  0  0  0  0  0  0  0  0  0
   27.5065  -20.5299  -11.7316 O   0  0  0  0  0  0  0  0  0  0  0  0
   28.5937  -23.1980  -16.6144 N   0  0  0  0  0  0  0  0  0  0  0  0
   27.5398  -22.2928  -16.4411 C   0  0  0  0  0  0  0  0  0  0  0  0
   27.2851  -21.4655  -17.3887 O   0  0  0  0  0  0  0  0  0  0  0  0
   26.7397  -22.2881  -15.2077 C   0  0  0  0  0  0  0  0  0  0  0  0
   26.8910  -21.0157  -14.4479 C   0  0  2  0  0  0  0  0  0  0  0  0
   25.9396  -20.9955  -13.3468 N   0  0  0  0  0  0  0  0  0  0  0  0
   26.5844  -19.8474  -15.3109 C   0  0  0  0  0  0  0  0  0  0  0  0
   27.6321  -19.1908  -15.9733 O   0  0  0  0  0  0  0  0  0  0  0  0
   25.4383  -19.3781  -15.5102 O   0  0  0  0  0  0  0  0  0  0  0  0
  1  2  1  0
  2  3  2  0
  4  2  1  0
  5  4  1  0
  5  6  1  1
  7  8  2  0
  7  5  1  0
  9 10  1  0
 10 11  1  0
 11 12  1  0
 13 12  1  1
 13 14  1  0
 14  7  1  0
 15 13  1  0
 15 22  1  0
 16 15  2  0
 18 17  1  0
 18 20  1  0
 19 18  2  0
 21 22  1  0
 21 20  1  6
 23 21  1  0
 24 23  1  0
 25 23  2  0
M  END
$$$$
