NMN.pdb
     RDKit          3D

 25 24  0  0  1  0  0  0  0  0999 V2000
   29.0718  -19.4439  -16.9701 N   0  0  0  0  0  0  0  0  0  0  0  0
   28.0584  -18.6710  -16.3549 C   0  0  0  0  0  0  0  0  0  0  0  0
   27.4219  -17.7793  -17.0142 O   0  0  0  0  0  0  0  0  0  0  0  0
   27.7289  -18.8996  -14.9189 C   0  0  0  0  0  0  0  0  0  0  0  0
   28.6403  -19.9834  -14.3263 C   0  0  2  0  0  0  0  0  0  0  0  0
   29.2394  -20.7557  -15.3838 N   0  0  0  0  0  0  0  0  0  0  0  0
   27.7645  -20.8654  -13.5029 C   0  0  0  0  0  0  0  0  0  0  0  0
   28.2874  -21.8365  -12.8968 O   0  0  0  0  0  0  0  0  0  0  0  0
   28.2145  -21.1148   -8.4360 C   0  0  0  0  0  0  0  0  0  0  0  0
   26.5651  -20.4250   -8.2923 S   0  0  0  0  0  0  0  0  0  0  0  0
   25.5399  -21.0107   -9.6989 C   0  0  0  0  0  0  0  0  0  0  0  0
   26.2768  -20.6482  -10.9478 C   0  0  0  0  0  0  0  0  0  0  0  0
   25.5867  -21.0333  -12.2240 C   0  0  2  0  0  0  0  0  0  0  0  0
   26.3783  -20.6735  -13.3634 N   0  0  0  0  0  0  0  0  0  0  0  0
   24.1691  -20.5976  -12.2998 C   0  0  0  0  0  0  0  0  0  0  0  0
   23.9701  -19.3646  -12.1484 O   0  0  0  0  0  0  0  0  0  0  0  0
   20.3964  -21.6771  -16.4319 N   0  0  0  0  0  0  0  0  0  0  0  0
   20.3954  -21.8740  -15.0458 C   0  0  0  0  0  0  0  0  0  0  0  0
   19.2730  -21.8299  -14.4250 O   0  0  0  0  0  0  0  0  0  0  0  0
   21.6457  -22.1286  -14.3155 C   0  0  0  0  0  0  0  0  0  0  0  0
   21.9165  -21.0833  -13.2893 C   0  0  2  0  0  0  0  0  0  0  0  0
   23.0943  -21.4564  -12.5201 N   0  0  0  0  0  0  0  0  0  0  0  0
   20.7860  -20.9788  -12.3329 C   0  0  0  0  0  0  0  0  0  0  0  0
   20.8197  -21.7278  -11.1474 O   0  0  0  0  0  0  0  0  0  0  0  0
   19.7711  -20.2588  -12.4907 O   0  0  0  0  0  0  0  0  0  0  0  0
  1  2  1  0
  2  3  2  0
  4  2  1  0
  5  4  1  0
  5  6  1  6
  7  8  2  0
  7  5  1  0
  9 10  1  0
 10 11  1  0
 11 12  1  0
 13 12  1  1
 13 14  1  0
 14  7  1  0
 15 13  1  0
 15 22  1  0
 16 15  2  0
 18 17  1  0
 18 20  1  0
 19 18  2  0
 21 22  1  0
 21 20  1  6
 23 21  1  0
 24 23  1  0
 25 23  2  0
M  END
$$$$
