NMN.pdb
     RDKit          3D

 25 24  0  0  1  0  0  0  0  0999 V2000
   29.6065  -23.8844  -16.4399 N   0  0  0  0  0  0  0  0  0  0  0  0
   29.2889  -22.5054  -16.4299 C   0  0  0  0  0  0  0  0  0  0  0  0
   29.5559  -21.7631  -17.4363 O   0  0  0  0  0  0  0  0  0  0  0  0
   28.6342  -21.9103  -15.2299 C   0  0  0  0  0  0  0  0  0  0  0  0
   27.3793  -21.1260  -15.6381 C   0  0  2  0  0  0  0  0  0  0  0  0
   27.6113  -19.7127  -15.4882 N   0  0  0  0  0  0  0  0  0  0  0  0
   26.2956  -21.5522  -14.7071 C   0  0  0  0  0  0  0  0  0  0  0  0
   25.8486  -22.7250  -14.8002 O   0  0  0  0  0  0  0  0  0  0  0  0
   24.7452  -20.9931   -8.0683 C   0  0  0  0  0  0  0  0  0  0  0  0
   26.1589  -20.4990   -9.0555 S   0  0  0  0  0  0  0  0  0  0  0  0
   26.0347  -21.2694  -10.7179 C   0  0  0  0  0  0  0  0  0  0  0  0
   24.9472  -20.5472  -11.4460 C   0  0  0  0  0  0  0  0  0  0  0  0
   24.6704  -21.0520  -12.8322 C   0  0  2  0  0  0  0  0  0  0  0  0
   25.7404  -20.7138  -13.7239 N   0  0  0  0  0  0  0  0  0  0  0  0
   23.3175  -20.7110  -13.3406 C   0  0  0  0  0  0  0  0  0  0  0  0
   23.1626  -19.5214  -13.7198 O   0  0  0  0  0  0  0  0  0  0  0  0
   18.4622  -20.9490  -15.1159 N   0  0  0  0  0  0  0  0  0  0  0  0
   19.2854  -21.9592  -15.6277 C   0  0  0  0  0  0  0  0  0  0  0  0
   18.8789  -22.6152  -16.6532 O   0  0  0  0  0  0  0  0  0  0  0  0
   20.5852  -22.2627  -15.0115 C   0  0  0  0  0  0  0  0  0  0  0  0
   20.9535  -21.2686  -13.9649 C   0  0  2  0  0  0  0  0  0  0  0  0
   22.2558  -21.6103  -13.4123 N   0  0  0  0  0  0  0  0  0  0  0  0
   19.9817  -21.3003  -12.8432 C   0  0  0  0  0  0  0  0  0  0  0  0
   20.2079  -22.1683  -11.7647 O   0  0  0  0  0  0  0  0  0  0  0  0
   18.9441  -20.5997  -12.7669 O   0  0  0  0  0  0  0  0  0  0  0  0
  1  2  1  0
  2  3  2  0
  4  2  1  0
  5  4  1  0
  5  6  1  1
  7  8  2  0
  7  5  1  0
  9 10  1  0
 10 11  1  0
 11 12  1  0
 13 12  1  1
 13 14  1  0
 14  7  1  0
 15 13  1  0
 15 22  1  0
 16 15  2  0
 18 17  1  0
 18 20  1  0
 19 18  2  0
 21 22  1  0
 21 20  1  6
 23 21  1  0
 24 23  1  0
 25 23  2  0
M  END
$$$$
