NMN.pdb
     RDKit          3D

 25 24  0  0  1  0  0  0  0  0999 V2000
   27.5981  -17.9410  -16.8053 N   0  0  0  0  0  0  0  0  0  0  0  0
   26.6307  -17.2267  -16.0591 C   0  0  0  0  0  0  0  0  0  0  0  0
   25.9333  -16.3031  -16.6028 O   0  0  0  0  0  0  0  0  0  0  0  0
   26.4221  -17.5555  -14.6200 C   0  0  0  0  0  0  0  0  0  0  0  0
   27.4814  -18.5579  -14.1407 C   0  0  2  0  0  0  0  0  0  0  0  0
   28.3249  -18.9470  -15.2411 N   0  0  0  0  0  0  0  0  0  0  0  0
   26.7372  -19.7492  -13.6409 C   0  0  0  0  0  0  0  0  0  0  0  0
   26.5702  -20.7246  -14.4185 O   0  0  0  0  0  0  0  0  0  0  0  0
   26.3463  -19.4123   -7.6461 C   0  0  0  0  0  0  0  0  0  0  0  0
   26.7907  -21.1301   -7.9086 S   0  0  0  0  0  0  0  0  0  0  0  0
   26.8623  -21.4676   -9.7123 C   0  0  0  0  0  0  0  0  0  0  0  0
   25.5791  -20.9684  -10.2940 C   0  0  0  0  0  0  0  0  0  0  0  0
   25.5183  -20.9777  -11.7938 C   0  0  2  0  0  0  0  0  0  0  0  0
   26.2078  -19.8468  -12.3417 N   0  0  0  0  0  0  0  0  0  0  0  0
   24.1545  -21.1892  -12.3421 C   0  0  0  0  0  0  0  0  0  0  0  0
   23.5072  -22.1429  -11.8379 O   0  0  0  0  0  0  0  0  0  0  0  0
   18.9891  -20.6642  -13.8858 N   0  0  0  0  0  0  0  0  0  0  0  0
   20.0064  -20.7256  -12.9260 C   0  0  0  0  0  0  0  0  0  0  0  0
   19.8361  -21.4849  -11.9054 O   0  0  0  0  0  0  0  0  0  0  0  0
   21.2423  -19.9444  -13.0803 C   0  0  0  0  0  0  0  0  0  0  0  0
   22.2595  -20.6628  -13.8979 C   0  0  2  0  0  0  0  0  0  0  0  0
   23.5838  -20.4129  -13.3485 N   0  0  0  0  0  0  0  0  0  0  0  0
   22.2643  -20.1589  -15.2942 C   0  0  0  0  0  0  0  0  0  0  0  0
   23.3640  -19.4179  -15.7517 O   0  0  0  0  0  0  0  0  0  0  0  0
   21.3473  -20.3408  -16.1306 O   0  0  0  0  0  0  0  0  0  0  0  0
  1  2  1  0
  2  3  2  0
  4  2  1  0
  5  4  1  0
  5  6  1  6
  7  8  2  0
  7  5  1  0
  9 10  1  0
 10 11  1  0
 11 12  1  0
 13 12  1  1
 13 14  1  0
 14  7  1  0
 15 13  1  0
 15 22  1  0
 16 15  2  0
 18 17  1  0
 18 20  1  0
 19 18  2  0
 21 22  1  0
 21 20  1  1
 23 21  1  0
 24 23  1  0
 25 23  2  0
M  END
$$$$
