NMN.pdb
     RDKit          3D

 25 24  0  0  1  0  0  0  0  0999 V2000
   28.8284  -25.2261  -19.6461 N   0  0  0  0  0  0  0  0  0  0  0  0
   27.5589  -25.5874  -19.1356 C   0  0  0  0  0  0  0  0  0  0  0  0
   26.8712  -26.5156  -19.6837 O   0  0  0  0  0  0  0  0  0  0  0  0
   27.0162  -24.8761  -17.9430 C   0  0  0  0  0  0  0  0  0  0  0  0
   27.9966  -23.7919  -17.4741 C   0  0  2  0  0  0  0  0  0  0  0  0
   29.1736  -24.4019  -16.9117 N   0  0  0  0  0  0  0  0  0  0  0  0
   27.2888  -23.0132  -16.4179 C   0  0  0  0  0  0  0  0  0  0  0  0
   27.3865  -23.3936  -15.2221 O   0  0  0  0  0  0  0  0  0  0  0  0
   28.5805  -17.3570  -15.6485 C   0  0  0  0  0  0  0  0  0  0  0  0
   26.8758  -17.0255  -15.1998 S   0  0  0  0  0  0  0  0  0  0  0  0
   26.0255  -18.6128  -14.8395 C   0  0  0  0  0  0  0  0  0  0  0  0
   26.5721  -19.6204  -15.7987 C   0  0  0  0  0  0  0  0  0  0  0  0
   25.9537  -20.9848  -15.7038 C   0  0  2  0  0  0  0  0  0  0  0  0
   26.5132  -21.8703  -16.6823 N   0  0  0  0  0  0  0  0  0  0  0  0
   24.4693  -20.9741  -15.6639 C   0  0  0  0  0  0  0  0  0  0  0  0
   23.8988  -20.6332  -16.7322 O   0  0  0  0  0  0  0  0  0  0  0  0
   19.5111  -21.3979  -14.2551 N   0  0  0  0  0  0  0  0  0  0  0  0
   20.2892  -21.8834  -13.1974 C   0  0  0  0  0  0  0  0  0  0  0  0
   19.6909  -22.2888  -12.1368 O   0  0  0  0  0  0  0  0  0  0  0  0
   21.7553  -21.9329  -13.2954 C   0  0  0  0  0  0  0  0  0  0  0  0
   22.2588  -21.2272  -14.5069 C   0  0  2  0  0  0  0  0  0  0  0  0
   23.7114  -21.3089  -14.5438 N   0  0  0  0  0  0  0  0  0  0  0  0
   21.9040  -19.7864  -14.4627 C   0  0  0  0  0  0  0  0  0  0  0  0
   20.8828  -19.3062  -15.2959 O   0  0  0  0  0  0  0  0  0  0  0  0
   22.4492  -18.9309  -13.7250 O   0  0  0  0  0  0  0  0  0  0  0  0
  1  2  1  0
  2  3  2  0
  4  2  1  0
  5  4  1  0
  5  6  1  1
  7  8  2  0
  7  5  1  0
  9 10  1  0
 10 11  1  0
 11 12  1  0
 13 12  1  6
 13 14  1  0
 14  7  1  0
 15 13  1  0
 15 22  1  0
 16 15  2  0
 18 17  1  0
 18 20  1  0
 19 18  2  0
 21 22  1  0
 21 20  1  1
 23 21  1  0
 24 23  1  0
 25 23  2  0
M  END
$$$$
