NMN.pdb
     RDKit          3D

 25 24  0  0  1  0  0  0  0  0999 V2000
   18.9739  -11.8353  -22.2399 N   0  0  0  0  0  0  0  0  0  0  0  0
   18.1806  -11.6146  -21.0890 C   0  0  0  0  0  0  0  0  0  0  0  0
   16.9207  -11.8321  -21.1088 O   0  0  0  0  0  0  0  0  0  0  0  0
   18.8224  -11.1219  -19.8367 C   0  0  0  0  0  0  0  0  0  0  0  0
   19.7485  -12.1970  -19.2509 C   0  0  2  0  0  0  0  0  0  0  0  0
   18.9685  -13.2972  -18.7461 N   0  0  0  0  0  0  0  0  0  0  0  0
   20.4825  -11.5516  -18.1249 C   0  0  0  0  0  0  0  0  0  0  0  0
   19.8514  -11.2847  -17.0693 O   0  0  0  0  0  0  0  0  0  0  0  0
   27.6368  -10.3425  -15.0372 C   0  0  0  0  0  0  0  0  0  0  0  0
   26.5302  -11.1335  -16.2062 S   0  0  0  0  0  0  0  0  0  0  0  0
   24.8555  -10.3969  -16.0475 C   0  0  0  0  0  0  0  0  0  0  0  0
   23.9937  -11.0650  -17.0699 C   0  0  0  0  0  0  0  0  0  0  0  0
   22.5901  -10.5398  -17.1550 C   0  0  2  0  0  0  0  0  0  0  0  0
   21.8487  -11.2218  -18.1746 N   0  0  0  0  0  0  0  0  0  0  0  0
   22.5018   -9.0588  -17.2194 C   0  0  0  0  0  0  0  0  0  0  0  0
   22.7722   -8.5457  -18.3358 O   0  0  0  0  0  0  0  0  0  0  0  0
   20.0888   -4.1805  -14.7779 N   0  0  0  0  0  0  0  0  0  0  0  0
   21.3224   -4.8117  -14.9775 C   0  0  0  0  0  0  0  0  0  0  0  0
   22.3581   -4.0782  -15.1692 O   0  0  0  0  0  0  0  0  0  0  0  0
   21.4346   -6.2775  -14.9657 C   0  0  0  0  0  0  0  0  0  0  0  0
   21.9425   -6.8099  -16.2610 C   0  0  2  0  0  0  0  0  0  0  0  0
   22.1496   -8.2457  -16.1442 N   0  0  0  0  0  0  0  0  0  0  0  0
   23.2554   -6.2059  -16.6002 C   0  0  0  0  0  0  0  0  0  0  0  0
   24.4039   -6.6351  -15.9186 O   0  0  0  0  0  0  0  0  0  0  0  0
   23.4397   -5.3196  -17.4684 O   0  0  0  0  0  0  0  0  0  0  0  0
  1  2  1  0
  2  3  2  0
  4  2  1  0
  5  4  1  0
  5  6  1  1
  7  8  2  0
  7  5  1  0
  9 10  1  0
 10 11  1  0
 11 12  1  0
 13 12  1  6
 13 14  1  0
 14  7  1  0
 15 13  1  0
 15 22  1  0
 16 15  2  0
 18 17  1  0
 18 20  1  0
 19 18  2  0
 21 22  1  0
 21 20  1  1
 23 21  1  0
 24 23  1  0
 25 23  2  0
M  END
$$$$
