NMN.pdb
     RDKit          3D

 25 24  0  0  1  0  0  0  0  0999 V2000
   28.7139  -22.6696  -18.0649 N   0  0  0  0  0  0  0  0  0  0  0  0
   28.8454  -21.5860  -17.1642 C   0  0  0  0  0  0  0  0  0  0  0  0
   29.8167  -20.7609  -17.2678 O   0  0  0  0  0  0  0  0  0  0  0  0
   27.8380  -21.4042  -16.0803 C   0  0  0  0  0  0  0  0  0  0  0  0
   26.7795  -22.5143  -16.1414 C   0  0  2  0  0  0  0  0  0  0  0  0
   25.8689  -22.2674  -17.2293 N   0  0  0  0  0  0  0  0  0  0  0  0
   26.0363  -22.4583  -14.8501 C   0  0  0  0  0  0  0  0  0  0  0  0
   26.4439  -23.1624  -13.8898 O   0  0  0  0  0  0  0  0  0  0  0  0
   27.5032  -21.1302  -10.5864 C   0  0  0  0  0  0  0  0  0  0  0  0
   25.9964  -20.5325   -9.8187 S   0  0  0  0  0  0  0  0  0  0  0  0
   24.6009  -20.7214  -10.9974 C   0  0  0  0  0  0  0  0  0  0  0  0
   25.2045  -20.9887  -12.3385 C   0  0  0  0  0  0  0  0  0  0  0  0
   24.2346  -21.4450  -13.3893 C   0  0  2  0  0  0  0  0  0  0  0  0
   24.8986  -21.6584  -14.6415 N   0  0  0  0  0  0  0  0  0  0  0  0
   23.0067  -20.6147  -13.4799 C   0  0  0  0  0  0  0  0  0  0  0  0
   22.4834  -20.2957  -12.3812 O   0  0  0  0  0  0  0  0  0  0  0  0
   22.8980  -17.2408  -15.3398 N   0  0  0  0  0  0  0  0  0  0  0  0
   22.0132  -17.6652  -16.3383 C   0  0  0  0  0  0  0  0  0  0  0  0
   22.0170  -17.0424  -17.4605 O   0  0  0  0  0  0  0  0  0  0  0  0
   21.1029  -18.7974  -16.1132 C   0  0  0  0  0  0  0  0  0  0  0  0
   21.2389  -19.3598  -14.7404 C   0  0  2  0  0  0  0  0  0  0  0  0
   22.4311  -20.1920  -14.6762 N   0  0  0  0  0  0  0  0  0  0  0  0
   20.0818  -20.2292  -14.4105 C   0  0  0  0  0  0  0  0  0  0  0  0
   20.1759  -21.6104  -14.6364 O   0  0  0  0  0  0  0  0  0  0  0  0
   18.9929  -19.8310  -13.9318 O   0  0  0  0  0  0  0  0  0  0  0  0
  1  2  1  0
  2  3  2  0
  4  2  1  0
  5  4  1  0
  5  6  1  6
  7  8  2  0
  7  5  1  0
  9 10  1  0
 10 11  1  0
 11 12  1  0
 13 12  1  1
 13 14  1  0
 14  7  1  0
 15 13  1  0
 15 22  1  0
 16 15  2  0
 18 17  1  0
 18 20  1  0
 19 18  2  0
 21 22  1  0
 21 20  1  6
 23 21  1  0
 24 23  1  0
 25 23  2  0
M  END
$$$$
