NMN.pdb
     RDKit          3D

 25 24  0  0  1  0  0  0  0  0999 V2000
   18.8521  -22.6125  -12.0045 N   0  0  0  0  0  0  0  0  0  0  0  0
   19.7761  -22.7273  -13.0703 C   0  0  0  0  0  0  0  0  0  0  0  0
   19.5903  -23.5725  -14.0117 O   0  0  0  0  0  0  0  0  0  0  0  0
   20.9821  -21.8512  -13.0956 C   0  0  0  0  0  0  0  0  0  0  0  0
   21.0508  -20.9977  -11.8214 C   0  0  2  0  0  0  0  0  0  0  0  0
   20.1400  -19.8868  -11.9229 N   0  0  0  0  0  0  0  0  0  0  0  0
   22.4486  -20.4865  -11.7325 C   0  0  0  0  0  0  0  0  0  0  0  0
   22.7893  -19.5325  -12.4793 O   0  0  0  0  0  0  0  0  0  0  0  0
   28.6544  -19.9140   -6.9427 C   0  0  0  0  0  0  0  0  0  0  0  0
   27.0587  -20.6260   -7.3476 S   0  0  0  0  0  0  0  0  0  0  0  0
   26.6904  -20.3168   -9.1199 C   0  0  0  0  0  0  0  0  0  0  0  0
   25.3170  -20.8499   -9.3726 C   0  0  0  0  0  0  0  0  0  0  0  0
   24.7785  -20.5842  -10.7483 C   0  0  2  0  0  0  0  0  0  0  0  0
   23.4147  -21.0122  -10.8562 N   0  0  0  0  0  0  0  0  0  0  0  0
   25.6594  -21.0610  -11.8446 C   0  0  0  0  0  0  0  0  0  0  0  0
   25.7198  -22.3092  -11.9903 O   0  0  0  0  0  0  0  0  0  0  0  0
   25.1086  -20.1620  -15.6528 N   0  0  0  0  0  0  0  0  0  0  0  0
   26.2247  -19.3168  -15.6650 C   0  0  0  0  0  0  0  0  0  0  0  0
   26.2242  -18.3186  -16.4717 O   0  0  0  0  0  0  0  0  0  0  0  0
   27.3697  -19.5605  -14.7757 C   0  0  0  0  0  0  0  0  0  0  0  0
   27.1244  -20.6997  -13.8476 C   0  0  2  0  0  0  0  0  0  0  0  0
   26.3926  -20.2239  -12.6831 N   0  0  0  0  0  0  0  0  0  0  0  0
   28.4065  -21.2642  -13.3564 C   0  0  0  0  0  0  0  0  0  0  0  0
   29.0818  -22.2130  -14.1383 O   0  0  0  0  0  0  0  0  0  0  0  0
   28.9607  -20.9612  -12.2727 O   0  0  0  0  0  0  0  0  0  0  0  0
  1  2  1  0
  2  3  2  0
  4  2  1  0
  5  4  1  0
  5  6  1  6
  7  8  2  0
  7  5  1  0
  9 10  1  0
 10 11  1  0
 11 12  1  0
 13 12  1  1
 13 14  1  0
 14  7  1  0
 15 13  1  0
 15 22  1  0
 16 15  2  0
 18 17  1  0
 18 20  1  0
 19 18  2  0
 21 22  1  0
 21 20  1  6
 23 21  1  0
 24 23  1  0
 25 23  2  0
M  END
$$$$
