NMN.pdb
     RDKit          3D

 25 24  0  0  1  0  0  0  0  0999 V2000
   21.6129  -16.7187  -17.4670 N   0  0  0  0  0  0  0  0  0  0  0  0
   21.4262  -16.2297  -16.1522 C   0  0  0  0  0  0  0  0  0  0  0  0
   20.8819  -16.9573  -15.2526 O   0  0  0  0  0  0  0  0  0  0  0  0
   21.8701  -14.8478  -15.8116 C   0  0  0  0  0  0  0  0  0  0  0  0
   22.2908  -14.0925  -17.0801 C   0  0  2  0  0  0  0  0  0  0  0  0
   23.1505  -14.9216  -17.8848 N   0  0  0  0  0  0  0  0  0  0  0  0
   23.0463  -12.8911  -16.6232 C   0  0  0  0  0  0  0  0  0  0  0  0
   22.4565  -12.0493  -15.8969 O   0  0  0  0  0  0  0  0  0  0  0  0
   30.1704   -9.3781  -17.1693 C   0  0  0  0  0  0  0  0  0  0  0  0
   29.0927  -10.7869  -17.4360 S   0  0  0  0  0  0  0  0  0  0  0  0
   27.3897  -10.3556  -16.9009 C   0  0  0  0  0  0  0  0  0  0  0  0
   26.5655  -11.5934  -17.0523 C   0  0  0  0  0  0  0  0  0  0  0  0
   25.1166  -11.4366  -16.6929 C   0  0  2  0  0  0  0  0  0  0  0  0
   24.3892  -12.6426  -16.9589 N   0  0  0  0  0  0  0  0  0  0  0  0
   24.4877  -10.2077  -17.2402 C   0  0  0  0  0  0  0  0  0  0  0  0
   24.3037  -10.1987  -18.4848 O   0  0  0  0  0  0  0  0  0  0  0  0
   22.0755   -5.6672  -17.7672 N   0  0  0  0  0  0  0  0  0  0  0  0
   21.3655   -6.6802  -17.1117 C   0  0  0  0  0  0  0  0  0  0  0  0
   20.1094   -6.5110  -16.9097 O   0  0  0  0  0  0  0  0  0  0  0  0
   22.0365   -7.9103  -16.6670 C   0  0  0  0  0  0  0  0  0  0  0  0
   23.4820   -7.9203  -17.0273 C   0  0  2  0  0  0  0  0  0  0  0  0
   24.1096   -9.1095  -16.4706 N   0  0  0  0  0  0  0  0  0  0  0  0
   24.1783   -6.7461  -16.4442 C   0  0  0  0  0  0  0  0  0  0  0  0
   25.2035   -6.9519  -15.5091 O   0  0  0  0  0  0  0  0  0  0  0  0
   23.9279   -5.5482  -16.7194 O   0  0  0  0  0  0  0  0  0  0  0  0
  1  2  1  0
  2  3  2  0
  4  2  1  0
  5  4  1  0
  5  6  1  6
  7  8  2  0
  7  5  1  0
  9 10  1  0
 10 11  1  0
 11 12  1  0
 13 12  1  6
 13 14  1  0
 14  7  1  0
 15 13  1  0
 15 22  1  0
 16 15  2  0
 18 17  1  0
 18 20  1  0
 19 18  2  0
 21 22  1  0
 21 20  1  1
 23 21  1  0
 24 23  1  0
 25 23  2  0
M  END
$$$$
