NMN.pdb
     RDKit          3D

 25 24  0  0  1  0  0  0  0  0999 V2000
   19.6931  -15.7166  -18.4957 N   0  0  0  0  0  0  0  0  0  0  0  0
   19.1087  -14.4499  -18.2573 C   0  0  0  0  0  0  0  0  0  0  0  0
   17.9690  -14.1493  -18.7531 O   0  0  0  0  0  0  0  0  0  0  0  0
   19.8317  -13.4529  -17.4170 C   0  0  0  0  0  0  0  0  0  0  0  0
   21.2135  -13.9899  -17.0186 C   0  0  2  0  0  0  0  0  0  0  0  0
   21.0698  -15.2087  -16.2651 N   0  0  0  0  0  0  0  0  0  0  0  0
   21.8384  -12.9454  -16.1576 C   0  0  0  0  0  0  0  0  0  0  0  0
   21.5156  -12.8948  -14.9422 O   0  0  0  0  0  0  0  0  0  0  0  0
   28.2140  -13.5056  -15.1088 C   0  0  0  0  0  0  0  0  0  0  0  0
   27.3261  -12.1675  -15.9078 S   0  0  0  0  0  0  0  0  0  0  0  0
   25.5584  -12.2352  -15.4149 C   0  0  0  0  0  0  0  0  0  0  0  0
   24.8997  -11.0335  -16.0117 C   0  0  0  0  0  0  0  0  0  0  0  0
   23.4082  -10.9838  -15.8502 C   0  0  2  0  0  0  0  0  0  0  0  0
   22.7742  -12.0071  -16.6283 N   0  0  0  0  0  0  0  0  0  0  0  0
   22.8259   -9.6293  -16.0273 C   0  0  0  0  0  0  0  0  0  0  0  0
   22.4715   -9.3384  -17.1989 O   0  0  0  0  0  0  0  0  0  0  0  0
   22.0935   -4.2452  -13.7063 N   0  0  0  0  0  0  0  0  0  0  0  0
   21.3249   -5.3797  -13.9932 C   0  0  0  0  0  0  0  0  0  0  0  0
   20.1109   -5.2126  -14.3746 O   0  0  0  0  0  0  0  0  0  0  0  0
   21.8906   -6.7306  -13.8655 C   0  0  0  0  0  0  0  0  0  0  0  0
   22.0573   -7.3943  -15.1888 C   0  0  2  0  0  0  0  0  0  0  0  0
   22.6625   -8.7041  -14.9985 N   0  0  0  0  0  0  0  0  0  0  0  0
   22.9724   -6.6131  -16.0583 C   0  0  0  0  0  0  0  0  0  0  0  0
   22.4320   -5.7860  -17.0540 O   0  0  0  0  0  0  0  0  0  0  0  0
   24.2244   -6.6233  -15.9824 O   0  0  0  0  0  0  0  0  0  0  0  0
  1  2  1  0
  2  3  2  0
  4  2  1  0
  5  4  1  0
  5  6  1  1
  7  8  2  0
  7  5  1  0
  9 10  1  0
 10 11  1  0
 11 12  1  0
 13 12  1  6
 13 14  1  0
 14  7  1  0
 15 13  1  0
 15 22  1  0
 16 15  2  0
 18 17  1  0
 18 20  1  0
 19 18  2  0
 21 22  1  0
 21 20  1  1
 23 21  1  0
 24 23  1  0
 25 23  2  0
M  END
$$$$
