MDP.pdb
     RDKit          3D

 24 24  0  0  1  0  0  0  0  0999 V2000
    7.9412  -11.7674   19.7008 C   0  0  0  0  0  0  0  0  0  0  0  0
    8.5951  -12.9182   18.4555 S   0  0  0  0  0  0  0  0  0  0  0  0
    8.2708  -14.5981   19.0548 C   0  0  0  0  0  0  0  0  0  0  0  0
    7.7614  -14.5688   20.4847 C   0  0  0  0  0  0  0  0  0  0  0  0
    7.4897  -15.9903   20.9188 C   0  0  2  0  0  0  0  0  0  0  0  0
    6.5015  -16.5414   20.0339 N   0  0  0  0  0  0  0  0  0  0  0  0
    7.0299  -16.0170   22.3347 C   0  0  0  0  0  0  0  0  0  0  0  0
    5.9031  -15.5775   22.5949 O   0  0  0  0  0  0  0  0  0  0  0  0
    7.8997  -16.5405   23.3066 N   0  0  0  0  0  0  0  0  0  0  0  0
    7.7178  -16.4992   24.7175 C   0  0  1  0  0  0  0  0  0  0  0  0
    7.6498  -17.8683   25.3889 C   0  0  0  0  0  0  0  0  0  0  0  0
    6.7480  -18.8040   24.6898 C   0  0  0  0  0  0  0  0  0  0  0  0
    5.5184  -18.7132   24.5688 O   0  0  0  0  0  0  0  0  0  0  0  0
    8.5942  -15.5471   25.4000 C   0  0  0  0  0  0  0  0  0  0  0  0
    9.8502  -15.6337   25.1292 O   0  0  0  0  0  0  0  0  0  0  0  0
    7.3327  -19.9384   24.0829 O   0  0  0  0  0  0  0  0  0  0  0  0
    8.1879  -14.5652   26.3060 N   0  0  0  0  0  0  0  0  0  0  0  0
    6.8352  -14.1136   26.5417 C   0  0  0  0  0  0  0  0  0  0  0  0
    7.0681  -12.5950   26.6933 C   0  0  0  0  0  0  0  0  0  0  0  0
    8.2673  -12.5883   27.6104 C   0  0  0  0  0  0  0  0  0  0  0  0
    9.0657  -13.7694   27.1757 C   0  0  1  0  0  0  0  0  0  0  0  0
    9.4898  -14.5423   28.3533 C   0  0  0  0  0  0  0  0  0  0  0  0
    8.9475  -15.6382   28.6050 O   0  0  0  0  0  0  0  0  0  0  0  0
   10.4834  -14.0763   29.1925 O   0  0  0  0  0  0  0  0  0  0  0  0
  2  1  1  0
  2  3  1  0
  4  3  1  0
  5  4  1  0
  5  7  1  0
  5  6  1  6
  7  8  2  0
  9  7  1  0
  9 10  1  0
 10 14  1  0
 10 11  1  1
 12 11  1  0
 13 12  2  0
 14 15  2  0
 16 12  1  0
 17 21  1  0
 17 14  1  0
 18 17  1  0
 19 20  1  0
 19 18  1  0
 20 21  1  0
 21 22  1  1
 22 23  2  0
 22 24  1  0
M  END
$$$$
