MDP.pdb
     RDKit          3D

 24 24  0  0  1  0  0  0  0  0999 V2000
    8.4000  -11.5070   19.6993 C   0  0  0  0  0  0  0  0  0  0  0  0
    8.4659  -13.2523   20.2018 S   0  0  0  0  0  0  0  0  0  0  0  0
    7.2459  -14.1450   19.2013 C   0  0  0  0  0  0  0  0  0  0  0  0
    7.2326  -15.6199   19.5611 C   0  0  0  0  0  0  0  0  0  0  0  0
    8.0659  -15.8099   20.8071 C   0  0  2  0  0  0  0  0  0  0  0  0
    8.5481  -17.1629   20.8144 N   0  0  0  0  0  0  0  0  0  0  0  0
    7.2539  -15.5135   22.0194 C   0  0  0  0  0  0  0  0  0  0  0  0
    6.3434  -14.6808   21.9275 O   0  0  0  0  0  0  0  0  0  0  0  0
    7.5623  -16.1946   23.2094 N   0  0  0  0  0  0  0  0  0  0  0  0
    7.0348  -15.9229   24.5029 C   0  0  1  0  0  0  0  0  0  0  0  0
    6.3510  -17.1122   25.1722 C   0  0  0  0  0  0  0  0  0  0  0  0
    7.2630  -18.2536   25.3796 C   0  0  0  0  0  0  0  0  0  0  0  0
    8.0952  -18.7051   24.5806 O   0  0  0  0  0  0  0  0  0  0  0  0
    7.9570  -15.1994   25.3785 C   0  0  0  0  0  0  0  0  0  0  0  0
    9.2082  -15.4684   25.2349 O   0  0  0  0  0  0  0  0  0  0  0  0
    7.1954  -18.9213   26.6232 O   0  0  0  0  0  0  0  0  0  0  0  0
    7.5989  -14.2540   26.3418 N   0  0  0  0  0  0  0  0  0  0  0  0
    6.2593  -13.8270   26.6773 C   0  0  0  0  0  0  0  0  0  0  0  0
    6.4864  -12.3118   26.8668 C   0  0  0  0  0  0  0  0  0  0  0  0
    7.7408  -12.3220   27.7068 C   0  0  0  0  0  0  0  0  0  0  0  0
    8.5218  -13.4779   27.1821 C   0  0  1  0  0  0  0  0  0  0  0  0
    9.0269  -14.2854   28.3032 C   0  0  0  0  0  0  0  0  0  0  0  0
    8.5108  -15.3947   28.5514 O   0  0  0  0  0  0  0  0  0  0  0  0
   10.0682  -13.8374   29.0928 O   0  0  0  0  0  0  0  0  0  0  0  0
  2  1  1  0
  2  3  1  0
  4  3  1  0
  5  4  1  0
  5  7  1  0
  5  6  1  1
  7  8  2  0
  9  7  1  0
  9 10  1  0
 10 14  1  0
 10 11  1  1
 12 11  1  0
 13 12  2  0
 14 15  2  0
 16 12  1  0
 17 21  1  0
 17 14  1  0
 18 17  1  0
 19 20  1  0
 19 18  1  0
 20 21  1  0
 21 22  1  1
 22 23  2  0
 22 24  1  0
M  END
$$$$
