MDP.pdb
     RDKit          3D

 24 24  0  0  1  0  0  0  0  0999 V2000
    8.3827  -11.3446   20.0494 C   0  0  0  0  0  0  0  0  0  0  0  0
    8.1159  -12.4627   18.6418 S   0  0  0  0  0  0  0  0  0  0  0  0
    8.3478  -14.1549   19.2493 C   0  0  0  0  0  0  0  0  0  0  0  0
    7.4618  -14.4188   20.4537 C   0  0  0  0  0  0  0  0  0  0  0  0
    7.6107  -15.8718   20.8404 C   0  0  2  0  0  0  0  0  0  0  0  0
    6.8396  -16.6563   19.9167 N   0  0  0  0  0  0  0  0  0  0  0  0
    7.1580  -16.0799   22.2435 C   0  0  0  0  0  0  0  0  0  0  0  0
    5.9426  -16.0786   22.4749 O   0  0  0  0  0  0  0  0  0  0  0  0
    8.1346  -16.2674   23.2366 N   0  0  0  0  0  0  0  0  0  0  0  0
    7.9017  -16.5278   24.6162 C   0  0  1  0  0  0  0  0  0  0  0  0
    7.5843  -17.9848   24.9423 C   0  0  0  0  0  0  0  0  0  0  0  0
    7.3595  -18.2125   26.3829 C   0  0  0  0  0  0  0  0  0  0  0  0
    8.0728  -17.8359   27.3232 O   0  0  0  0  0  0  0  0  0  0  0  0
    8.8908  -15.9225   25.5083 C   0  0  0  0  0  0  0  0  0  0  0  0
   10.0731  -16.4320   25.4775 O   0  0  0  0  0  0  0  0  0  0  0  0
    6.2062  -18.9403   26.7532 O   0  0  0  0  0  0  0  0  0  0  0  0
    8.6635  -14.8526   26.3763 N   0  0  0  0  0  0  0  0  0  0  0  0
    7.4619  -14.0543   26.4677 C   0  0  0  0  0  0  0  0  0  0  0  0
    8.0717  -12.6496   26.6630 C   0  0  0  0  0  0  0  0  0  0  0  0
    9.1220  -12.9455   27.7062 C   0  0  0  0  0  0  0  0  0  0  0  0
    9.6206  -14.3033   27.3471 C   0  0  1  0  0  0  0  0  0  0  0  0
    9.6932  -15.1407   28.5544 C   0  0  0  0  0  0  0  0  0  0  0  0
    8.8623  -16.0567   28.7256 O   0  0  0  0  0  0  0  0  0  0  0  0
   10.6692  -14.9323   29.5096 O   0  0  0  0  0  0  0  0  0  0  0  0
  2  1  1  0
  2  3  1  0
  4  3  1  0
  5  4  1  0
  5  7  1  0
  5  6  1  6
  7  8  2  0
  9  7  1  0
  9 10  1  0
 10 14  1  0
 10 11  1  6
 12 11  1  0
 13 12  2  0
 14 15  2  0
 16 12  1  0
 17 21  1  0
 17 14  1  0
 18 17  1  0
 19 20  1  0
 19 18  1  0
 20 21  1  0
 21 22  1  1
 22 23  2  0
 22 24  1  0
M  END
$$$$
