MDP.pdb
     RDKit          3D

 24 24  0  0  1  0  0  0  0  0999 V2000
    8.2672  -11.2284   19.9467 C   0  0  0  0  0  0  0  0  0  0  0  0
    8.0709  -12.2800   18.4775 S   0  0  0  0  0  0  0  0  0  0  0  0
    8.2591  -13.9996   19.0195 C   0  0  0  0  0  0  0  0  0  0  0  0
    7.7618  -14.1708   20.4437 C   0  0  0  0  0  0  0  0  0  0  0  0
    7.8462  -15.6365   20.8007 C   0  0  2  0  0  0  0  0  0  0  0  0
    6.8743  -16.3404   20.0112 N   0  0  0  0  0  0  0  0  0  0  0  0
    7.6061  -15.8259   22.2579 C   0  0  0  0  0  0  0  0  0  0  0  0
    6.4563  -15.6738   22.6885 O   0  0  0  0  0  0  0  0  0  0  0  0
    8.6986  -16.1683   23.0729 N   0  0  0  0  0  0  0  0  0  0  0  0
    8.6815  -16.3398   24.4856 C   0  0  1  0  0  0  0  0  0  0  0  0
    9.3778  -17.6051   24.9798 C   0  0  0  0  0  0  0  0  0  0  0  0
    8.8699  -18.8284   24.3294 C   0  0  0  0  0  0  0  0  0  0  0  0
    7.7587  -19.3543   24.4819 O   0  0  0  0  0  0  0  0  0  0  0  0
    9.0416  -15.1346   25.2329 C   0  0  0  0  0  0  0  0  0  0  0  0
   10.2179  -14.6584   25.0136 O   0  0  0  0  0  0  0  0  0  0  0  0
    9.7329  -19.4904   23.4272 O   0  0  0  0  0  0  0  0  0  0  0  0
    8.2272  -14.4662   26.1493 N   0  0  0  0  0  0  0  0  0  0  0  0
    6.7949  -14.6004   26.2909 C   0  0  0  0  0  0  0  0  0  0  0  0
    6.3978  -13.1292   26.5387 C   0  0  0  0  0  0  0  0  0  0  0  0
    7.4402  -12.7276   27.5543 C   0  0  0  0  0  0  0  0  0  0  0  0
    8.6652  -13.4631   27.1303 C   0  0  1  0  0  0  0  0  0  0  0  0
    9.2909  -14.1004   28.2992 C   0  0  0  0  0  0  0  0  0  0  0  0
    9.1567  -15.3279   28.4833 O   0  0  0  0  0  0  0  0  0  0  0  0
   10.0295  -13.3625   29.2039 O   0  0  0  0  0  0  0  0  0  0  0  0
  2  1  1  0
  2  3  1  0
  4  3  1  0
  5  4  1  0
  5  7  1  0
  5  6  1  6
  7  8  2  0
  9  7  1  0
  9 10  1  0
 10 14  1  0
 10 11  1  6
 12 11  1  0
 13 12  2  0
 14 15  2  0
 16 12  1  0
 17 21  1  0
 17 14  1  0
 18 17  1  0
 19 20  1  0
 19 18  1  0
 20 21  1  0
 21 22  1  1
 22 23  2  0
 22 24  1  0
M  END
$$$$
