MDP.pdb
     RDKit          3D

 24 24  0  0  1  0  0  0  0  0999 V2000
    9.3365  -12.0504   18.7940 C   0  0  0  0  0  0  0  0  0  0  0  0
    7.7022  -12.0012   19.5873 S   0  0  0  0  0  0  0  0  0  0  0  0
    7.1932  -13.7172   19.8741 C   0  0  0  0  0  0  0  0  0  0  0  0
    8.3952  -14.5868   20.1965 C   0  0  0  0  0  0  0  0  0  0  0  0
    7.9030  -15.9866   20.4816 C   0  0  2  0  0  0  0  0  0  0  0  0
    6.9403  -16.3306   19.4726 N   0  0  0  0  0  0  0  0  0  0  0  0
    7.3117  -16.0562   21.8463 C   0  0  0  0  0  0  0  0  0  0  0  0
    6.0791  -16.0671   21.9527 O   0  0  0  0  0  0  0  0  0  0  0  0
    8.1838  -16.1059   22.9473 N   0  0  0  0  0  0  0  0  0  0  0  0
    7.8211  -16.3158   24.3073 C   0  0  1  0  0  0  0  0  0  0  0  0
    7.5974  -17.7774   24.6861 C   0  0  0  0  0  0  0  0  0  0  0  0
    7.2220  -17.9501   26.1027 C   0  0  0  0  0  0  0  0  0  0  0  0
    7.9711  -18.2255   27.0502 O   0  0  0  0  0  0  0  0  0  0  0  0
    8.6472  -15.5758   25.2615 C   0  0  0  0  0  0  0  0  0  0  0  0
    9.9164  -15.7845   25.1980 O   0  0  0  0  0  0  0  0  0  0  0  0
    5.8588  -17.7873   26.4379 O   0  0  0  0  0  0  0  0  0  0  0  0
    8.1811  -14.6739   26.2202 N   0  0  0  0  0  0  0  0  0  0  0  0
    6.8003  -14.3813   26.5321 C   0  0  0  0  0  0  0  0  0  0  0  0
    6.8745  -12.8519   26.7291 C   0  0  0  0  0  0  0  0  0  0  0  0
    8.1086  -12.7427   27.5918 C   0  0  0  0  0  0  0  0  0  0  0  0
    9.0083  -13.8145   27.0789 C   0  0  1  0  0  0  0  0  0  0  0  0
    9.5699  -14.5731   28.2072 C   0  0  0  0  0  0  0  0  0  0  0  0
    9.1543  -15.7253   28.4489 O   0  0  0  0  0  0  0  0  0  0  0  0
   10.5549  -14.0323   29.0107 O   0  0  0  0  0  0  0  0  0  0  0  0
  2  1  1  0
  2  3  1  0
  4  3  1  0
  5  4  1  0
  5  7  1  0
  5  6  1  6
  7  8  2  0
  9  7  1  0
  9 10  1  0
 10 14  1  0
 10 11  1  1
 12 11  1  0
 13 12  2  0
 14 15  2  0
 16 12  1  0
 17 21  1  0
 17 14  1  0
 18 17  1  0
 19 20  1  0
 19 18  1  0
 20 21  1  0
 21 22  1  1
 22 23  2  0
 22 24  1  0
M  END
$$$$
