MDP.pdb
     RDKit          3D

 24 24  0  0  1  0  0  0  0  0999 V2000
    6.9327  -14.6404   15.3675 C   0  0  0  0  0  0  0  0  0  0  0  0
    8.0796  -13.3125   15.8407 S   0  0  0  0  0  0  0  0  0  0  0  0
    8.0838  -13.2273   17.6515 C   0  0  0  0  0  0  0  0  0  0  0  0
    7.4983  -14.4938   18.2497 C   0  0  0  0  0  0  0  0  0  0  0  0
    7.4141  -14.3138   19.7476 C   0  0  2  0  0  0  0  0  0  0  0  0
    8.1702  -13.1431   20.0952 N   0  0  0  0  0  0  0  0  0  0  0  0
    7.9333  -15.5246   20.4413 C   0  0  0  0  0  0  0  0  0  0  0  0
    7.2489  -16.5549   20.4163 O   0  0  0  0  0  0  0  0  0  0  0  0
    9.1764  -15.4371   21.0912 N   0  0  0  0  0  0  0  0  0  0  0  0
    9.8030  -16.4553   21.8631 C   0  0  1  0  0  0  0  0  0  0  0  0
   11.2113  -16.8237   21.4039 C   0  0  0  0  0  0  0  0  0  0  0  0
   11.7844  -17.9507   22.1648 C   0  0  0  0  0  0  0  0  0  0  0  0
   11.6164  -18.2096   23.3646 O   0  0  0  0  0  0  0  0  0  0  0  0
    9.6824  -16.2616   23.3083 C   0  0  0  0  0  0  0  0  0  0  0  0
   10.4936  -15.4141   23.8392 O   0  0  0  0  0  0  0  0  0  0  0  0
   12.6226  -18.8476   21.4647 O   0  0  0  0  0  0  0  0  0  0  0  0
    8.7728  -16.9085   24.1474 N   0  0  0  0  0  0  0  0  0  0  0  0
    7.7591  -17.8605   23.7526 C   0  0  0  0  0  0  0  0  0  0  0  0
    6.5883  -17.4149   24.6548 C   0  0  0  0  0  0  0  0  0  0  0  0
    7.3024  -17.2486   25.9745 C   0  0  0  0  0  0  0  0  0  0  0  0
    8.6441  -16.7191   25.5992 C   0  0  1  0  0  0  0  0  0  0  0  0
    9.6894  -17.4558   26.3262 C   0  0  0  0  0  0  0  0  0  0  0  0
   10.3149  -18.3725   25.7543 O   0  0  0  0  0  0  0  0  0  0  0  0
    9.9951  -17.1516   27.6386 O   0  0  0  0  0  0  0  0  0  0  0  0
  2  1  1  0
  2  3  1  0
  4  3  1  0
  5  4  1  0
  5  7  1  0
  5  6  1  1
  7  8  2  0
  9  7  1  0
  9 10  1  0
 10 14  1  0
 10 11  1  1
 12 11  1  0
 13 12  2  0
 14 15  2  0
 16 12  1  0
 17 21  1  0
 17 14  1  0
 18 17  1  0
 19 20  1  0
 19 18  1  0
 20 21  1  0
 21 22  1  1
 22 23  2  0
 22 24  1  0
M  END
$$$$
