MDP.pdb
     RDKit          3D

 24 24  0  0  1  0  0  0  0  0999 V2000
    5.6991  -12.1900   26.6750 C   0  0  0  0  0  0  0  0  0  0  0  0
    7.2040  -12.3884   27.6745 S   0  0  0  0  0  0  0  0  0  0  0  0
    7.8925  -14.0205   27.2892 C   0  0  0  0  0  0  0  0  0  0  0  0
    6.8574  -14.8903   26.5986 C   0  0  0  0  0  0  0  0  0  0  0  0
    7.5436  -16.1453   26.1119 C   0  0  2  0  0  0  0  0  0  0  0  0
    8.1375  -16.7933   27.2479 N   0  0  0  0  0  0  0  0  0  0  0  0
    8.5638  -15.8073   25.0814 C   0  0  0  0  0  0  0  0  0  0  0  0
    9.7422  -15.6874   25.4386 O   0  0  0  0  0  0  0  0  0  0  0  0
    8.1372  -15.6408   23.7527 N   0  0  0  0  0  0  0  0  0  0  0  0
    8.9664  -15.5772   22.5978 C   0  0  1  0  0  0  0  0  0  0  0  0
   10.0761  -16.6244   22.5547 C   0  0  0  0  0  0  0  0  0  0  0  0
   11.3716  -16.1047   23.0335 C   0  0  0  0  0  0  0  0  0  0  0  0
   12.0684  -15.2252   22.5086 O   0  0  0  0  0  0  0  0  0  0  0  0
    8.2251  -15.4469   21.3431 C   0  0  0  0  0  0  0  0  0  0  0  0
    7.3306  -16.3445   21.1140 O   0  0  0  0  0  0  0  0  0  0  0  0
   11.8943  -16.6598   24.2233 O   0  0  0  0  0  0  0  0  0  0  0  0
    8.4030  -14.4438   20.3881 N   0  0  0  0  0  0  0  0  0  0  0  0
    9.2714  -13.2933   20.4949 C   0  0  0  0  0  0  0  0  0  0  0  0
    8.3756  -12.2053   19.8648 C   0  0  0  0  0  0  0  0  0  0  0  0
    7.8745  -12.9329   18.6406 C   0  0  0  0  0  0  0  0  0  0  0  0
    7.7105  -14.3426   19.0956 C   0  0  1  0  0  0  0  0  0  0  0  0
    8.2993  -15.2558   18.1040 C   0  0  0  0  0  0  0  0  0  0  0  0
    9.4232  -15.7578   18.3125 O   0  0  0  0  0  0  0  0  0  0  0  0
    7.6288  -15.5714   16.9381 O   0  0  0  0  0  0  0  0  0  0  0  0
  2  1  1  0
  2  3  1  0
  4  3  1  0
  5  4  1  0
  5  7  1  0
  5  6  1  1
  7  8  2  0
  9  7  1  0
  9 10  1  0
 10 14  1  0
 10 11  1  6
 12 11  1  0
 13 12  2  0
 14 15  2  0
 16 12  1  0
 17 21  1  0
 17 14  1  0
 18 17  1  0
 19 20  1  0
 19 18  1  0
 20 21  1  0
 21 22  1  6
 22 23  2  0
 22 24  1  0
M  END
$$$$
