MDP.pdb
     RDKit          3D

 24 24  0  0  1  0  0  0  0  0999 V2000
    6.2599  -10.9124   26.2161 C   0  0  0  0  0  0  0  0  0  0  0  0
    6.6342  -12.5921   25.6318 S   0  0  0  0  0  0  0  0  0  0  0  0
    6.7700  -12.5140   23.8258 C   0  0  0  0  0  0  0  0  0  0  0  0
    8.1121  -13.0537   23.3648 C   0  0  0  0  0  0  0  0  0  0  0  0
    7.8775  -14.3783   22.6767 C   0  0  2  0  0  0  0  0  0  0  0  0
    6.4635  -14.5257   22.4719 N   0  0  0  0  0  0  0  0  0  0  0  0
    8.4286  -15.4902   23.4994 C   0  0  0  0  0  0  0  0  0  0  0  0
    7.6831  -16.0388   24.3204 O   0  0  0  0  0  0  0  0  0  0  0  0
    9.7696  -15.8617   23.3028 N   0  0  0  0  0  0  0  0  0  0  0  0
   10.5090  -16.8056   24.0694 C   0  0  1  0  0  0  0  0  0  0  0  0
   11.5310  -17.6105   23.2709 C   0  0  0  0  0  0  0  0  0  0  0  0
   10.9085  -18.4594   22.2368 C   0  0  0  0  0  0  0  0  0  0  0  0
    9.8537  -19.1028   22.3280 O   0  0  0  0  0  0  0  0  0  0  0  0
   11.0289  -16.2694   25.3275 C   0  0  0  0  0  0  0  0  0  0  0  0
   12.1427  -15.6271   25.2561 O   0  0  0  0  0  0  0  0  0  0  0  0
   11.5747  -18.5642   20.9950 O   0  0  0  0  0  0  0  0  0  0  0  0
   10.4256  -16.3927   26.5808 N   0  0  0  0  0  0  0  0  0  0  0  0
    9.0567  -16.7730   26.8473 C   0  0  0  0  0  0  0  0  0  0  0  0
    8.7161  -15.8067   28.0022 C   0  0  0  0  0  0  0  0  0  0  0  0
    9.9492  -15.9546   28.8606 C   0  0  0  0  0  0  0  0  0  0  0  0
   11.0586  -16.1231   27.8796 C   0  0  1  0  0  0  0  0  0  0  0  0
   11.9210  -17.2409   28.2930 C   0  0  0  0  0  0  0  0  0  0  0  0
   11.7796  -18.3628   27.7640 O   0  0  0  0  0  0  0  0  0  0  0  0
   12.8912  -17.0729   29.2620 O   0  0  0  0  0  0  0  0  0  0  0  0
  2  1  1  0
  2  3  1  0
  4  3  1  0
  5  4  1  0
  5  7  1  0
  5  6  1  1
  7  8  2  0
  9  7  1  0
  9 10  1  0
 10 14  1  0
 10 11  1  6
 12 11  1  0
 13 12  2  0
 14 15  2  0
 16 12  1  0
 17 21  1  0
 17 14  1  0
 18 17  1  0
 19 20  1  0
 19 18  1  0
 20 21  1  0
 21 22  1  1
 22 23  2  0
 22 24  1  0
M  END
$$$$
