MDP.pdb
     RDKit          3D

 24 24  0  0  1  0  0  0  0  0999 V2000
    7.8175  -11.3460   19.7762 C   0  0  0  0  0  0  0  0  0  0  0  0
    8.3613  -12.3582   18.3681 S   0  0  0  0  0  0  0  0  0  0  0  0
    8.4971  -14.0673   18.9568 C   0  0  0  0  0  0  0  0  0  0  0  0
    7.6350  -14.2810   20.1882 C   0  0  0  0  0  0  0  0  0  0  0  0
    7.7572  -15.7281   20.6053 C   0  0  2  0  0  0  0  0  0  0  0  0
    7.0424  -16.5258   19.6483 N   0  0  0  0  0  0  0  0  0  0  0  0
    7.2194  -15.9142   21.9811 C   0  0  0  0  0  0  0  0  0  0  0  0
    5.9998  -15.8007   22.1555 O   0  0  0  0  0  0  0  0  0  0  0  0
    8.1247  -16.2096   23.0148 N   0  0  0  0  0  0  0  0  0  0  0  0
    7.8134  -16.3699   24.3942 C   0  0  1  0  0  0  0  0  0  0  0  0
    7.6622  -17.8199   24.8463 C   0  0  0  0  0  0  0  0  0  0  0  0
    7.3991  -17.9433   26.2931 C   0  0  0  0  0  0  0  0  0  0  0  0
    8.2322  -17.9542   27.2099 O   0  0  0  0  0  0  0  0  0  0  0  0
    8.6377  -15.5538   25.2859 C   0  0  0  0  0  0  0  0  0  0  0  0
    9.9092  -15.7474   25.2226 O   0  0  0  0  0  0  0  0  0  0  0  0
    6.0512  -18.0641   26.7001 O   0  0  0  0  0  0  0  0  0  0  0  0
    8.1674  -14.5950   26.1856 N   0  0  0  0  0  0  0  0  0  0  0  0
    6.8070  -14.1230   26.3125 C   0  0  0  0  0  0  0  0  0  0  0  0
    7.0524  -12.6158   26.5394 C   0  0  0  0  0  0  0  0  0  0  0  0
    8.1617  -12.6659   27.5621 C   0  0  0  0  0  0  0  0  0  0  0  0
    8.9754  -13.8482   27.1601 C   0  0  1  0  0  0  0  0  0  0  0  0
    9.2750  -14.6697   28.3431 C   0  0  0  0  0  0  0  0  0  0  0  0
    8.6580  -15.7390   28.5290 O   0  0  0  0  0  0  0  0  0  0  0  0
   10.2324  -14.2789   29.2591 O   0  0  0  0  0  0  0  0  0  0  0  0
  2  1  1  0
  2  3  1  0
  4  3  1  0
  5  4  1  0
  5  7  1  0
  5  6  1  6
  7  8  2  0
  9  7  1  0
  9 10  1  0
 10 14  1  0
 10 11  1  1
 12 11  1  0
 13 12  2  0
 14 15  2  0
 16 12  1  0
 17 21  1  0
 17 14  1  0
 18 17  1  0
 19 20  1  0
 19 18  1  0
 20 21  1  0
 21 22  1  1
 22 23  2  0
 22 24  1  0
M  END
$$$$
