MDP.pdb
     RDKit          3D

 24 24  0  0  1  0  0  0  0  0999 V2000
    8.4246  -11.3469   19.7259 C   0  0  0  0  0  0  0  0  0  0  0  0
    8.5009  -12.4504   18.2839 S   0  0  0  0  0  0  0  0  0  0  0  0
    8.7576  -14.1326   18.9088 C   0  0  0  0  0  0  0  0  0  0  0  0
    7.7895  -14.4395   20.0373 C   0  0  0  0  0  0  0  0  0  0  0  0
    7.9998  -15.8738   20.4633 C   0  0  2  0  0  0  0  0  0  0  0  0
    7.4900  -16.7231   19.4232 N   0  0  0  0  0  0  0  0  0  0  0  0
    7.3169  -16.1305   21.7612 C   0  0  0  0  0  0  0  0  0  0  0  0
    6.2318  -16.7248   21.7467 O   0  0  0  0  0  0  0  0  0  0  0  0
    7.9390  -15.6843   22.9398 N   0  0  0  0  0  0  0  0  0  0  0  0
    7.5750  -16.0266   24.2724 C   0  0  1  0  0  0  0  0  0  0  0  0
    7.4016  -17.5230   24.5184 C   0  0  0  0  0  0  0  0  0  0  0  0
    7.1100  -17.8406   25.9297 C   0  0  0  0  0  0  0  0  0  0  0  0
    6.2352  -17.3367   26.6478 O   0  0  0  0  0  0  0  0  0  0  0  0
    8.3677  -15.3455   25.2963 C   0  0  0  0  0  0  0  0  0  0  0  0
    9.6341  -15.5793   25.2856 O   0  0  0  0  0  0  0  0  0  0  0  0
    7.9071  -18.8280   26.5513 O   0  0  0  0  0  0  0  0  0  0  0  0
    7.8730  -14.4741   26.2688 N   0  0  0  0  0  0  0  0  0  0  0  0
    6.4871  -14.1343   26.5000 C   0  0  0  0  0  0  0  0  0  0  0  0
    6.6123  -12.6224   26.7861 C   0  0  0  0  0  0  0  0  0  0  0  0
    7.7849  -12.6159   27.7370 C   0  0  0  0  0  0  0  0  0  0  0  0
    8.6724  -13.7002   27.2291 C   0  0  1  0  0  0  0  0  0  0  0  0
    9.1186  -14.5421   28.3499 C   0  0  0  0  0  0  0  0  0  0  0  0
    8.6379  -15.6847   28.4979 O   0  0  0  0  0  0  0  0  0  0  0  0
   10.0657  -14.0904   29.2485 O   0  0  0  0  0  0  0  0  0  0  0  0
  2  1  1  0
  2  3  1  0
  4  3  1  0
  5  4  1  0
  5  7  1  0
  5  6  1  6
  7  8  2  0
  9  7  1  0
  9 10  1  0
 10 14  1  0
 10 11  1  6
 12 11  1  0
 13 12  2  0
 14 15  2  0
 16 12  1  0
 17 21  1  0
 17 14  1  0
 18 17  1  0
 19 20  1  0
 19 18  1  0
 20 21  1  0
 21 22  1  1
 22 23  2  0
 22 24  1  0
M  END
$$$$
