MDP.pdb
     RDKit          3D

 24 24  0  0  1  0  0  0  0  0999 V2000
    7.7263  -11.4229   19.8755 C   0  0  0  0  0  0  0  0  0  0  0  0
    8.4818  -12.3636   18.5165 S   0  0  0  0  0  0  0  0  0  0  0  0
    8.3628  -14.1200   18.9487 C   0  0  0  0  0  0  0  0  0  0  0  0
    7.6571  -14.2982   20.2811 C   0  0  0  0  0  0  0  0  0  0  0  0
    7.6067  -15.7753   20.5953 C   0  0  2  0  0  0  0  0  0  0  0  0
    6.7697  -16.4076   19.6141 N   0  0  0  0  0  0  0  0  0  0  0  0
    7.0889  -15.9906   21.9746 C   0  0  0  0  0  0  0  0  0  0  0  0
    5.8654  -15.9570   22.1547 O   0  0  0  0  0  0  0  0  0  0  0  0
    8.0166  -16.2213   23.0048 N   0  0  0  0  0  0  0  0  0  0  0  0
    7.7248  -16.3786   24.3889 C   0  0  1  0  0  0  0  0  0  0  0  0
    7.6070  -17.8283   24.8518 C   0  0  0  0  0  0  0  0  0  0  0  0
    7.3816  -17.9479   26.3053 C   0  0  0  0  0  0  0  0  0  0  0  0
    6.3039  -17.8524   26.9087 O   0  0  0  0  0  0  0  0  0  0  0  0
    8.5436  -15.5409   25.2656 C   0  0  0  0  0  0  0  0  0  0  0  0
    9.8194  -15.6746   25.1526 O   0  0  0  0  0  0  0  0  0  0  0  0
    8.5093  -18.1996   27.1188 O   0  0  0  0  0  0  0  0  0  0  0  0
    8.0638  -14.6206   26.1997 N   0  0  0  0  0  0  0  0  0  0  0  0
    6.6786  -14.3295   26.4931 C   0  0  0  0  0  0  0  0  0  0  0  0
    6.7421  -12.7956   26.6564 C   0  0  0  0  0  0  0  0  0  0  0  0
    7.9679  -12.6596   27.5270 C   0  0  0  0  0  0  0  0  0  0  0  0
    8.8784  -13.7372   27.0460 C   0  0  1  0  0  0  0  0  0  0  0  0
    9.4345  -14.4669   28.1959 C   0  0  0  0  0  0  0  0  0  0  0  0
    9.0069  -15.6065   28.4738 O   0  0  0  0  0  0  0  0  0  0  0  0
   10.4275  -13.9126   28.9802 O   0  0  0  0  0  0  0  0  0  0  0  0
  2  1  1  0
  2  3  1  0
  4  3  1  0
  5  4  1  0
  5  7  1  0
  5  6  1  6
  7  8  2  0
  9  7  1  0
  9 10  1  0
 10 14  1  0
 10 11  1  1
 12 11  1  0
 13 12  2  0
 14 15  2  0
 16 12  1  0
 17 21  1  0
 17 14  1  0
 18 17  1  0
 19 20  1  0
 19 18  1  0
 20 21  1  0
 21 22  1  1
 22 23  2  0
 22 24  1  0
M  END
$$$$
