MDP.pdb
     RDKit          3D

 24 24  0  0  1  0  0  0  0  0999 V2000
    8.9942  -12.0818   18.3880 C   0  0  0  0  0  0  0  0  0  0  0  0
    7.8855  -12.0312   19.8272 S   0  0  0  0  0  0  0  0  0  0  0  0
    8.0662  -13.6101   20.6993 C   0  0  0  0  0  0  0  0  0  0  0  0
    7.5348  -14.7539   19.8541 C   0  0  0  0  0  0  0  0  0  0  0  0
    7.8024  -16.0475   20.5877 C   0  0  2  0  0  0  0  0  0  0  0  0
    7.2563  -17.1207   19.8047 N   0  0  0  0  0  0  0  0  0  0  0  0
    7.1985  -16.0022   21.9478 C   0  0  0  0  0  0  0  0  0  0  0  0
    5.9677  -15.9187   22.0417 O   0  0  0  0  0  0  0  0  0  0  0  0
    8.0573  -16.0563   23.0590 N   0  0  0  0  0  0  0  0  0  0  0  0
    7.6734  -16.0318   24.4292 C   0  0  1  0  0  0  0  0  0  0  0  0
    7.5208  -17.4086   25.0702 C   0  0  0  0  0  0  0  0  0  0  0  0
    6.3470  -18.1473   24.5659 C   0  0  0  0  0  0  0  0  0  0  0  0
    5.2759  -17.6718   24.1644 O   0  0  0  0  0  0  0  0  0  0  0  0
    8.4342  -15.0812   25.2404 C   0  0  0  0  0  0  0  0  0  0  0  0
    9.7075  -15.0601   25.0491 O   0  0  0  0  0  0  0  0  0  0  0  0
    6.4339  -19.5573   24.5287 O   0  0  0  0  0  0  0  0  0  0  0  0
    7.9021  -14.2062   26.1898 N   0  0  0  0  0  0  0  0  0  0  0  0
    6.5022  -13.9319   26.4233 C   0  0  0  0  0  0  0  0  0  0  0  0
    6.5502  -12.4072   26.6606 C   0  0  0  0  0  0  0  0  0  0  0  0
    7.7283  -12.3094   27.5996 C   0  0  0  0  0  0  0  0  0  0  0  0
    8.6674  -13.3615   27.1176 C   0  0  1  0  0  0  0  0  0  0  0  0
    9.1658  -14.1429   28.2601 C   0  0  0  0  0  0  0  0  0  0  0  0
    8.7328  -15.2967   28.4594 O   0  0  0  0  0  0  0  0  0  0  0  0
   10.1103  -13.6217   29.1231 O   0  0  0  0  0  0  0  0  0  0  0  0
  2  1  1  0
  2  3  1  0
  4  3  1  0
  5  4  1  0
  5  7  1  0
  5  6  1  6
  7  8  2  0
  9  7  1  0
  9 10  1  0
 10 14  1  0
 10 11  1  1
 12 11  1  0
 13 12  2  0
 14 15  2  0
 16 12  1  0
 17 21  1  0
 17 14  1  0
 18 17  1  0
 19 20  1  0
 19 18  1  0
 20 21  1  0
 21 22  1  1
 22 23  2  0
 22 24  1  0
M  END
$$$$
