MDP.pdb
     RDKit          3D

 24 24  0  0  1  0  0  0  0  0999 V2000
    7.5595  -12.2943   20.0234 C   0  0  0  0  0  0  0  0  0  0  0  0
    7.6885  -12.3084   18.2107 S   0  0  0  0  0  0  0  0  0  0  0  0
    8.1690  -13.9861   17.7201 C   0  0  0  0  0  0  0  0  0  0  0  0
    8.5271  -14.8195   18.9377 C   0  0  0  0  0  0  0  0  0  0  0  0
    8.9382  -16.1944   18.4650 C   0  0  2  0  0  0  0  0  0  0  0  0
    7.8297  -16.7668   17.7530 N   0  0  0  0  0  0  0  0  0  0  0  0
    9.3369  -17.0392   19.6243 C   0  0  0  0  0  0  0  0  0  0  0  0
    8.4497  -17.6251   20.2570 O   0  0  0  0  0  0  0  0  0  0  0  0
   10.7027  -17.1294   19.9431 N   0  0  0  0  0  0  0  0  0  0  0  0
   11.2715  -17.8244   21.0472 C   0  0  1  0  0  0  0  0  0  0  0  0
   12.6360  -18.4493   20.7688 C   0  0  0  0  0  0  0  0  0  0  0  0
   12.6373  -19.3091   19.5695 C   0  0  0  0  0  0  0  0  0  0  0  0
   11.8260  -20.2006   19.2835 O   0  0  0  0  0  0  0  0  0  0  0  0
   11.2032  -17.0877   22.3094 C   0  0  0  0  0  0  0  0  0  0  0  0
   11.7014  -15.9003   22.3038 O   0  0  0  0  0  0  0  0  0  0  0  0
   13.6724  -19.1096   18.6284 O   0  0  0  0  0  0  0  0  0  0  0  0
   10.6491  -17.5576   23.5019 N   0  0  0  0  0  0  0  0  0  0  0  0
    9.9644  -18.8152   23.7002 C   0  0  0  0  0  0  0  0  0  0  0  0
    8.8161  -18.3667   24.6294 C   0  0  0  0  0  0  0  0  0  0  0  0
    9.5742  -17.5087   25.6134 C   0  0  0  0  0  0  0  0  0  0  0  0
   10.6221  -16.8450   24.7871 C   0  0  1  0  0  0  0  0  0  0  0  0
   11.9218  -16.9317   25.4706 C   0  0  0  0  0  0  0  0  0  0  0  0
   12.7104  -17.8580   25.1899 O   0  0  0  0  0  0  0  0  0  0  0  0
   12.2900  -16.0021   26.4239 O   0  0  0  0  0  0  0  0  0  0  0  0
  2  1  1  0
  2  3  1  0
  4  3  1  0
  5  4  1  0
  5  7  1  0
  5  6  1  1
  7  8  2  0
  9  7  1  0
  9 10  1  0
 10 14  1  0
 10 11  1  6
 12 11  1  0
 13 12  2  0
 14 15  2  0
 16 12  1  0
 17 21  1  0
 17 14  1  0
 18 17  1  0
 19 20  1  0
 19 18  1  0
 20 21  1  0
 21 22  1  1
 22 23  2  0
 22 24  1  0
M  END
$$$$
