GQV.pdb
     RDKit          3D

 21 20  0  0  1  0  0  0  0  0999 V2000
    7.5285  -13.9268   18.6401 N   0  0  0  0  0  0  0  0  0  0  0  0
    8.3784  -14.6736   19.5398 C   0  0  0  0  0  0  0  0  0  0  0  0
    7.7205  -14.7774   20.8884 C   0  0  0  0  0  0  0  0  0  0  0  0
    6.6783  -14.1203   21.1099 O   0  0  0  0  0  0  0  0  0  0  0  0
    6.2409  -19.8609   24.4770 N   0  0  0  0  0  0  0  0  0  0  0  0
    7.0112  -18.9230   25.2394 C   0  0  0  0  0  0  0  0  0  0  0  0
    7.7098  -19.3793   26.1546 O   0  0  0  0  0  0  0  0  0  0  0  0
    6.9375  -17.4834   24.9024 C   0  0  0  0  0  0  0  0  0  0  0  0
    7.6354  -17.2048   23.6252 C   0  0  0  0  0  0  0  0  0  0  0  0
    7.5870  -15.8023   23.1251 C   0  0  2  0  0  0  0  0  0  0  0  0
    8.2993  -15.6186   21.8759 N   0  0  0  0  0  0  0  0  0  0  0  0
    8.2289  -14.9567   24.2017 C   0  0  0  0  0  0  0  0  0  0  0  0
    9.4723  -14.8837   24.2804 O   0  0  0  0  0  0  0  0  0  0  0  0
    6.6836  -11.4298   25.4982 C   0  0  0  0  0  0  0  0  0  0  0  0
    7.0514  -12.3373   26.6530 C   0  0  1  0  0  0  0  0  0  0  0  0
    5.8344  -13.0380   27.2172 C   0  0  0  0  0  0  0  0  0  0  0  0
    8.0209  -13.3530   26.1469 C   0  0  2  0  0  0  0  0  0  0  0  0
    7.4483  -14.2311   25.1413 N   0  0  0  0  0  0  0  0  0  0  0  0
    8.5216  -14.1512   27.3118 C   0  0  0  0  0  0  0  0  0  0  0  0
    9.3468  -13.6005   28.2662 O   0  0  0  0  0  0  0  0  0  0  0  0
    8.1726  -15.3672   27.4168 O   0  0  0  0  0  0  0  0  0  0  0  0
  2  3  1  0
  2  1  1  0
  3  4  2  0
  5  6  1  0
  6  7  2  0
  6  8  1  0
  8  9  1  0
 10  9  1  1
 11 10  1  0
 11  3  1  0
 12 18  1  0
 12 10  1  0
 13 12  2  0
 15 14  1  6
 16 15  1  0
 17 18  1  6
 17 15  1  0
 19 17  1  0
 20 19  1  0
 21 19  2  0
M  END
$$$$
