GQV.pdb
     RDKit          3D

 21 20  0  0  1  0  0  0  0  0999 V2000
   10.6171  -15.0690   19.5128 N   0  0  0  0  0  0  0  0  0  0  0  0
   10.4179  -16.0913   20.5151 C   0  0  0  0  0  0  0  0  0  0  0  0
    9.7710  -15.4882   21.7317 C   0  0  0  0  0  0  0  0  0  0  0  0
    9.5050  -14.2649   21.7370 O   0  0  0  0  0  0  0  0  0  0  0  0
    6.4110  -13.8306   23.8715 N   0  0  0  0  0  0  0  0  0  0  0  0
    6.2014  -14.4377   25.1528 C   0  0  0  0  0  0  0  0  0  0  0  0
    5.6039  -13.7654   26.0042 O   0  0  0  0  0  0  0  0  0  0  0  0
    6.6978  -15.8117   25.3919 C   0  0  0  0  0  0  0  0  0  0  0  0
    7.4450  -16.3142   24.2151 C   0  0  0  0  0  0  0  0  0  0  0  0
    8.7986  -15.7371   23.9819 C   0  0  2  0  0  0  0  0  0  0  0  0
    9.4787  -16.3226   22.8435 N   0  0  0  0  0  0  0  0  0  0  0  0
    9.5893  -16.0150   25.2404 C   0  0  0  0  0  0  0  0  0  0  0  0
   10.3682  -16.9891   25.2865 O   0  0  0  0  0  0  0  0  0  0  0  0
   10.9962  -14.4908   29.7424 C   0  0  0  0  0  0  0  0  0  0  0  0
    9.9266  -14.4096   28.6738 C   0  0  1  0  0  0  0  0  0  0  0  0
    9.7803  -13.0005   28.1416 C   0  0  0  0  0  0  0  0  0  0  0  0
   10.3198  -15.3239   27.5615 C   0  0  2  0  0  0  0  0  0  0  0  0
    9.4713  -15.1888   26.3903 N   0  0  0  0  0  0  0  0  0  0  0  0
   10.2842  -16.7323   28.0715 C   0  0  0  0  0  0  0  0  0  0  0  0
   11.3944  -17.3317   28.6223 O   0  0  0  0  0  0  0  0  0  0  0  0
    9.1990  -17.3859   27.9910 O   0  0  0  0  0  0  0  0  0  0  0  0
  2  3  1  0
  2  1  1  0
  3  4  2  0
  5  6  1  0
  6  7  2  0
  6  8  1  0
  8  9  1  0
 10  9  1  1
 11 10  1  0
 11  3  1  0
 12 18  1  0
 12 10  1  0
 13 12  2  0
 15 14  1  1
 16 15  1  0
 17 18  1  6
 17 15  1  0
 19 17  1  0
 20 19  1  0
 21 19  2  0
M  END
$$$$
