GQV.pdb
     RDKit          3D

 21 20  0  0  1  0  0  0  0  0999 V2000
    8.2497  -17.3234   18.2774 N   0  0  0  0  0  0  0  0  0  0  0  0
    8.3435  -16.0871   19.0206 C   0  0  0  0  0  0  0  0  0  0  0  0
    7.8032  -16.2894   20.4096 C   0  0  0  0  0  0  0  0  0  0  0  0
    7.0212  -17.2426   20.6263 O   0  0  0  0  0  0  0  0  0  0  0  0
   10.5439  -19.3659   22.7338 N   0  0  0  0  0  0  0  0  0  0  0  0
   10.8105  -18.1827   23.4975 C   0  0  0  0  0  0  0  0  0  0  0  0
   11.5672  -18.2986   24.4711 O   0  0  0  0  0  0  0  0  0  0  0  0
   10.1823  -16.9045   23.0935 C   0  0  0  0  0  0  0  0  0  0  0  0
    8.7099  -16.9693   23.2472 C   0  0  0  0  0  0  0  0  0  0  0  0
    7.9359  -15.7720   22.8150 C   0  0  2  0  0  0  0  0  0  0  0  0
    8.1944  -15.3930   21.4398 N   0  0  0  0  0  0  0  0  0  0  0  0
    8.3599  -14.6504   23.7362 C   0  0  0  0  0  0  0  0  0  0  0  0
    9.4287  -14.0409   23.5276 O   0  0  0  0  0  0  0  0  0  0  0  0
    5.6665  -13.0652   26.7106 C   0  0  0  0  0  0  0  0  0  0  0  0
    6.6792  -12.2480   25.9367 C   0  0  1  0  0  0  0  0  0  0  0  0
    7.1042  -11.0170   26.7074 C   0  0  0  0  0  0  0  0  0  0  0  0
    7.8691  -13.1130   25.6841 C   0  0  2  0  0  0  0  0  0  0  0  0
    7.5668  -14.2629   24.8496 N   0  0  0  0  0  0  0  0  0  0  0  0
    8.4199  -13.5576   27.0046 C   0  0  0  0  0  0  0  0  0  0  0  0
    9.1114  -12.6977   27.8277 O   0  0  0  0  0  0  0  0  0  0  0  0
    8.2416  -14.7604   27.3693 O   0  0  0  0  0  0  0  0  0  0  0  0
  2  3  1  0
  2  1  1  0
  3  4  2  0
  5  6  1  0
  6  7  2  0
  6  8  1  0
  8  9  1  0
 10  9  1  1
 11 10  1  0
 11  3  1  0
 12 18  1  0
 12 10  1  0
 13 12  2  0
 15 14  1  1
 16 15  1  0
 17 18  1  6
 17 15  1  0
 19 17  1  0
 20 19  1  0
 21 19  2  0
M  END
$$$$
