GQV.pdb
     RDKit          3D

 21 20  0  0  1  0  0  0  0  0999 V2000
    5.7195  -17.5114   19.6858 N   0  0  0  0  0  0  0  0  0  0  0  0
    6.8947  -17.1993   20.4676 C   0  0  0  0  0  0  0  0  0  0  0  0
    6.5177  -17.0677   21.9177 C   0  0  0  0  0  0  0  0  0  0  0  0
    5.3577  -16.7027   22.2149 O   0  0  0  0  0  0  0  0  0  0  0  0
    8.8815  -19.7514   27.2599 N   0  0  0  0  0  0  0  0  0  0  0  0
    7.5983  -19.1449   27.4601 C   0  0  0  0  0  0  0  0  0  0  0  0
    6.8559  -19.6626   28.3055 O   0  0  0  0  0  0  0  0  0  0  0  0
    7.2299  -17.9524   26.6641 C   0  0  0  0  0  0  0  0  0  0  0  0
    7.5679  -18.1482   25.2346 C   0  0  0  0  0  0  0  0  0  0  0  0
    7.1666  -17.0642   24.2947 C   0  0  2  0  0  0  0  0  0  0  0  0
    7.4881  -17.3613   22.9126 N   0  0  0  0  0  0  0  0  0  0  0  0
    7.9244  -15.8324   24.7360 C   0  0  0  0  0  0  0  0  0  0  0  0
    9.0695  -15.6109   24.2919 O   0  0  0  0  0  0  0  0  0  0  0  0
    6.2709  -12.2039   25.1701 C   0  0  0  0  0  0  0  0  0  0  0  0
    7.0476  -12.5901   26.4110 C   0  0  1  0  0  0  0  0  0  0  0  0
    6.1316  -13.1003   27.5023 C   0  0  0  0  0  0  0  0  0  0  0  0
    8.0149  -13.6615   26.0312 C   0  0  2  0  0  0  0  0  0  0  0  0
    7.3645  -14.9046   25.6549 N   0  0  0  0  0  0  0  0  0  0  0  0
    8.9463  -13.8882   27.1828 C   0  0  0  0  0  0  0  0  0  0  0  0
    9.0449  -15.1124   27.8047 O   0  0  0  0  0  0  0  0  0  0  0  0
    9.6612  -12.9224   27.5920 O   0  0  0  0  0  0  0  0  0  0  0  0
  2  3  1  0
  2  1  1  0
  3  4  2  0
  5  6  1  0
  6  7  2  0
  6  8  1  0
  8  9  1  0
 10  9  1  1
 11 10  1  0
 11  3  1  0
 12 18  1  0
 12 10  1  0
 13 12  2  0
 15 14  1  6
 16 15  1  0
 17 18  1  1
 17 15  1  0
 19 17  1  0
 20 19  1  0
 21 19  2  0
M  END
$$$$
