GQV.pdb
     RDKit          3D

 21 20  0  0  1  0  0  0  0  0999 V2000
    9.9917  -15.1801   19.3418 N   0  0  0  0  0  0  0  0  0  0  0  0
   10.3093  -16.1593   20.3566 C   0  0  0  0  0  0  0  0  0  0  0  0
    9.3062  -16.0736   21.4741 C   0  0  0  0  0  0  0  0  0  0  0  0
    8.4598  -15.1513   21.4636 O   0  0  0  0  0  0  0  0  0  0  0  0
    7.3947  -20.6961   25.1504 N   0  0  0  0  0  0  0  0  0  0  0  0
    6.7651  -19.5823   25.7964 C   0  0  0  0  0  0  0  0  0  0  0  0
    5.9907  -19.8357   26.7292 O   0  0  0  0  0  0  0  0  0  0  0  0
    7.0655  -18.2104   25.3283 C   0  0  0  0  0  0  0  0  0  0  0  0
    8.0211  -18.2375   24.1961 C   0  0  0  0  0  0  0  0  0  0  0  0
    8.3917  -16.9242   23.5981 C   0  0  2  0  0  0  0  0  0  0  0  0
    9.3455  -17.0419   22.5128 N   0  0  0  0  0  0  0  0  0  0  0  0
    9.0014  -16.1156   24.7209 C   0  0  0  0  0  0  0  0  0  0  0  0
   10.1842  -16.3165   25.0646 O   0  0  0  0  0  0  0  0  0  0  0  0
    7.9796  -12.2519   25.5168 C   0  0  0  0  0  0  0  0  0  0  0  0
    7.9992  -13.0949   26.7743 C   0  0  1  0  0  0  0  0  0  0  0  0
    6.6018  -13.4939   27.1965 C   0  0  0  0  0  0  0  0  0  0  0  0
    8.8032  -14.3203   26.4919 C   0  0  2  0  0  0  0  0  0  0  0  0
    8.2579  -15.1185   25.4077 N   0  0  0  0  0  0  0  0  0  0  0  0
    8.8841  -15.1332   27.7480 C   0  0  0  0  0  0  0  0  0  0  0  0
    9.6540  -14.7377   28.8186 O   0  0  0  0  0  0  0  0  0  0  0  0
    8.2233  -16.2145   27.8218 O   0  0  0  0  0  0  0  0  0  0  0  0
  2  3  1  0
  2  1  1  0
  3  4  2  0
  5  6  1  0
  6  7  2  0
  6  8  1  0
  8  9  1  0
 10  9  1  1
 11 10  1  0
 11  3  1  0
 12 18  1  0
 12 10  1  0
 13 12  2  0
 15 14  1  6
 16 15  1  0
 17 18  1  6
 17 15  1  0
 19 17  1  0
 20 19  1  0
 21 19  2  0
M  END
$$$$
