GQV.pdb
     RDKit          3D

 21 20  0  0  1  0  0  0  0  0999 V2000
   12.1257  -17.4304   20.5991 N   0  0  0  0  0  0  0  0  0  0  0  0
   11.2133  -17.5245   21.7164 C   0  0  0  0  0  0  0  0  0  0  0  0
   10.4977  -16.2139   21.8973 C   0  0  0  0  0  0  0  0  0  0  0  0
   11.1670  -15.1808   22.1249 O   0  0  0  0  0  0  0  0  0  0  0  0
    7.8359  -12.6852   20.0804 N   0  0  0  0  0  0  0  0  0  0  0  0
    7.6497  -13.9697   19.4724 C   0  0  0  0  0  0  0  0  0  0  0  0
    8.2034  -14.1625   18.3814 O   0  0  0  0  0  0  0  0  0  0  0  0
    6.8225  -14.9841   20.1639 C   0  0  0  0  0  0  0  0  0  0  0  0
    6.9993  -14.8959   21.6325 C   0  0  0  0  0  0  0  0  0  0  0  0
    8.3970  -14.9505   22.1455 C   0  0  2  0  0  0  0  0  0  0  0  0
    9.0806  -16.1827   21.8050 N   0  0  0  0  0  0  0  0  0  0  0  0
    8.2909  -14.8307   23.6491 C   0  0  0  0  0  0  0  0  0  0  0  0
    8.6975  -15.7570   24.3799 O   0  0  0  0  0  0  0  0  0  0  0  0
    6.6151  -12.2983   27.5668 C   0  0  0  0  0  0  0  0  0  0  0  0
    6.6149  -12.4279   26.0583 C   0  0  1  0  0  0  0  0  0  0  0  0
    7.1144  -11.1638   25.3930 C   0  0  0  0  0  0  0  0  0  0  0  0
    7.5079  -13.5677   25.6962 C   0  0  2  0  0  0  0  0  0  0  0  0
    7.7339  -13.6781   24.2656 N   0  0  0  0  0  0  0  0  0  0  0  0
    6.9020  -14.8309   26.2273 C   0  0  0  0  0  0  0  0  0  0  0  0
    7.4116  -15.4686   27.3358 O   0  0  0  0  0  0  0  0  0  0  0  0
    5.8921  -15.3222   25.6356 O   0  0  0  0  0  0  0  0  0  0  0  0
  2  3  1  0
  2  1  1  0
  3  4  2  0
  5  6  1  0
  6  7  2  0
  6  8  1  0
  8  9  1  0
 10  9  1  6
 11 10  1  0
 11  3  1  0
 12 18  1  0
 12 10  1  0
 13 12  2  0
 15 14  1  1
 16 15  1  0
 17 18  1  6
 17 15  1  0
 19 17  1  0
 20 19  1  0
 21 19  2  0
M  END
$$$$
