GQV.pdb
     RDKit          3D

 21 20  0  0  1  0  0  0  0  0999 V2000
    7.4217  -12.7458   18.1692 N   0  0  0  0  0  0  0  0  0  0  0  0
    8.4402  -12.9559   19.1733 C   0  0  0  0  0  0  0  0  0  0  0  0
    7.8406  -13.6508   20.3648 C   0  0  0  0  0  0  0  0  0  0  0  0
    6.5995  -13.6218   20.5261 O   0  0  0  0  0  0  0  0  0  0  0  0
    9.2111  -19.0691   22.6641 N   0  0  0  0  0  0  0  0  0  0  0  0
    8.5146  -18.7049   21.4655 C   0  0  0  0  0  0  0  0  0  0  0  0
    8.2863  -19.6083   20.6496 O   0  0  0  0  0  0  0  0  0  0  0  0
    8.1087  -17.2955   21.2649 C   0  0  0  0  0  0  0  0  0  0  0  0
    8.4736  -16.4698   22.4399 C   0  0  0  0  0  0  0  0  0  0  0  0
    8.0987  -15.0287   22.3911 C   0  0  2  0  0  0  0  0  0  0  0  0
    8.6986  -14.3220   21.2765 N   0  0  0  0  0  0  0  0  0  0  0  0
    8.5872  -14.4298   23.6907 C   0  0  0  0  0  0  0  0  0  0  0  0
    9.8081  -14.2491   23.8754 O   0  0  0  0  0  0  0  0  0  0  0  0
    6.9772  -11.3441   25.6533 C   0  0  0  0  0  0  0  0  0  0  0  0
    7.0910  -12.5476   26.5649 C   0  0  1  0  0  0  0  0  0  0  0  0
    5.7689  -13.2724   26.6943 C   0  0  0  0  0  0  0  0  0  0  0  0
    8.1096  -13.4696   25.9817 C   0  0  2  0  0  0  0  0  0  0  0  0
    7.6851  -14.0605   24.7245 N   0  0  0  0  0  0  0  0  0  0  0  0
    8.4091  -14.5403   26.9861 C   0  0  0  0  0  0  0  0  0  0  0  0
    9.1504  -14.2852   28.1177 O   0  0  0  0  0  0  0  0  0  0  0  0
    7.9651  -15.7121   26.7835 O   0  0  0  0  0  0  0  0  0  0  0  0
  2  3  1  0
  2  1  1  0
  3  4  2  0
  5  6  1  0
  6  7  2  0
  6  8  1  0
  8  9  1  0
 10  9  1  1
 11 10  1  0
 11  3  1  0
 12 18  1  0
 12 10  1  0
 13 12  2  0
 15 14  1  6
 16 15  1  0
 17 18  1  6
 17 15  1  0
 19 17  1  0
 20 19  1  0
 21 19  2  0
M  END
$$$$
