GQV.pdb
     RDKit          3D

 21 20  0  0  1  0  0  0  0  0999 V2000
    6.7857  -15.1044   18.9933 N   0  0  0  0  0  0  0  0  0  0  0  0
    7.9275  -15.1093   19.8797 C   0  0  0  0  0  0  0  0  0  0  0  0
    7.4711  -15.3554   21.2916 C   0  0  0  0  0  0  0  0  0  0  0  0
    6.5904  -14.6151   21.7850 O   0  0  0  0  0  0  0  0  0  0  0  0
    6.7207  -20.2587   24.2472 N   0  0  0  0  0  0  0  0  0  0  0  0
    6.9210  -19.4890   25.4396 C   0  0  0  0  0  0  0  0  0  0  0  0
    6.4373  -19.9374   26.4879 O   0  0  0  0  0  0  0  0  0  0  0  0
    7.6819  -18.2215   25.3629 C   0  0  0  0  0  0  0  0  0  0  0  0
    8.0764  -17.9276   23.9652 C   0  0  0  0  0  0  0  0  0  0  0  0
    7.6129  -16.6318   23.3944 C   0  0  2  0  0  0  0  0  0  0  0  0
    8.0515  -16.4220   22.0287 N   0  0  0  0  0  0  0  0  0  0  0  0
    8.1959  -15.5562   24.2830 C   0  0  0  0  0  0  0  0  0  0  0  0
    9.3993  -15.2428   24.1773 O   0  0  0  0  0  0  0  0  0  0  0  0
    7.4095  -11.6741   27.1986 C   0  0  0  0  0  0  0  0  0  0  0  0
    6.7809  -12.8636   26.5041 C   0  0  1  0  0  0  0  0  0  0  0  0
    5.9316  -12.4338   25.3275 C   0  0  0  0  0  0  0  0  0  0  0  0
    7.8826  -13.7497   26.0258 C   0  0  2  0  0  0  0  0  0  0  0  0
    7.4038  -14.8805   25.2498 N   0  0  0  0  0  0  0  0  0  0  0  0
    8.6581  -14.2254   27.2164 C   0  0  0  0  0  0  0  0  0  0  0  0
    8.6459  -15.5448   27.6089 O   0  0  0  0  0  0  0  0  0  0  0  0
    9.3428  -13.3853   27.8772 O   0  0  0  0  0  0  0  0  0  0  0  0
  2  3  1  0
  2  1  1  0
  3  4  2  0
  5  6  1  0
  6  7  2  0
  6  8  1  0
  8  9  1  0
 10  9  1  1
 11 10  1  0
 11  3  1  0
 12 18  1  0
 12 10  1  0
 13 12  2  0
 15 14  1  6
 16 15  1  0
 17 18  1  1
 17 15  1  0
 19 17  1  0
 20 19  1  0
 21 19  2  0
M  END
$$$$
