GQV.pdb
     RDKit          3D

 21 20  0  0  1  0  0  0  0  0999 V2000
    4.2494  -18.9907   20.7823 N   0  0  0  0  0  0  0  0  0  0  0  0
    5.5620  -18.5603   21.2082 C   0  0  0  0  0  0  0  0  0  0  0  0
    5.5210  -18.1730   22.6610 C   0  0  0  0  0  0  0  0  0  0  0  0
    4.4635  -17.7006   23.1360 O   0  0  0  0  0  0  0  0  0  0  0  0
    9.5032  -19.5946   27.7787 N   0  0  0  0  0  0  0  0  0  0  0  0
    8.1276  -19.2821   28.0327 C   0  0  0  0  0  0  0  0  0  0  0  0
    7.5768  -19.8806   28.9667 O   0  0  0  0  0  0  0  0  0  0  0  0
    7.4455  -18.2785   27.1848 C   0  0  0  0  0  0  0  0  0  0  0  0
    7.3367  -18.7568   25.7865 C   0  0  0  0  0  0  0  0  0  0  0  0
    6.6737  -17.8438   24.8137 C   0  0  2  0  0  0  0  0  0  0  0  0
    6.6839  -18.3535   23.4566 N   0  0  0  0  0  0  0  0  0  0  0  0
    7.4470  -16.5456   24.8715 C   0  0  0  0  0  0  0  0  0  0  0  0
    8.5250  -16.4325   24.2529 O   0  0  0  0  0  0  0  0  0  0  0  0
    7.8266  -11.8737   26.4558 C   0  0  0  0  0  0  0  0  0  0  0  0
    6.9138  -13.0686   26.2789 C   0  0  1  0  0  0  0  0  0  0  0  0
    5.8226  -12.7882   25.2684 C   0  0  0  0  0  0  0  0  0  0  0  0
    7.7457  -14.2150   25.8084 C   0  0  2  0  0  0  0  0  0  0  0  0
    6.9770  -15.4331   25.6198 N   0  0  0  0  0  0  0  0  0  0  0  0
    8.8451  -14.4409   26.8011 C   0  0  0  0  0  0  0  0  0  0  0  0
   10.0583  -13.7987   26.6970 O   0  0  0  0  0  0  0  0  0  0  0  0
    8.6474  -15.2469   27.7616 O   0  0  0  0  0  0  0  0  0  0  0  0
  2  3  1  0
  2  1  1  0
  3  4  2  0
  5  6  1  0
  6  7  2  0
  6  8  1  0
  8  9  1  0
 10  9  1  1
 11 10  1  0
 11  3  1  0
 12 18  1  0
 12 10  1  0
 13 12  2  0
 15 14  1  6
 16 15  1  0
 17 18  1  1
 17 15  1  0
 19 17  1  0
 20 19  1  0
 21 19  2  0
M  END
$$$$
