GQV.pdb
     RDKit          3D

 21 20  0  0  1  0  0  0  0  0999 V2000
    7.3695  -13.5379   19.1973 N   0  0  0  0  0  0  0  0  0  0  0  0
    7.9353  -14.7073   19.8314 C   0  0  0  0  0  0  0  0  0  0  0  0
    7.4762  -14.7795   21.2619 C   0  0  0  0  0  0  0  0  0  0  0  0
    6.7832  -13.8466   21.7271 O   0  0  0  0  0  0  0  0  0  0  0  0
    7.7807  -19.9101   24.8943 N   0  0  0  0  0  0  0  0  0  0  0  0
    7.0381  -19.0150   25.7320 C   0  0  0  0  0  0  0  0  0  0  0  0
    6.5778  -19.4789   26.7841 O   0  0  0  0  0  0  0  0  0  0  0  0
    6.8616  -17.6075   25.3089 C   0  0  0  0  0  0  0  0  0  0  0  0
    7.4297  -17.3883   23.9579 C   0  0  0  0  0  0  0  0  0  0  0  0
    7.2813  -16.0231   23.3800 C   0  0  2  0  0  0  0  0  0  0  0  0
    7.8410  -15.9050   22.0480 N   0  0  0  0  0  0  0  0  0  0  0  0
    8.0150  -15.0937   24.3204 C   0  0  0  0  0  0  0  0  0  0  0  0
    9.2615  -15.0373   24.2967 O   0  0  0  0  0  0  0  0  0  0  0  0
    6.6734  -11.4294   25.2257 C   0  0  0  0  0  0  0  0  0  0  0  0
    7.0752  -12.1653   26.4864 C   0  0  1  0  0  0  0  0  0  0  0  0
    5.8687  -12.7144   27.2166 C   0  0  0  0  0  0  0  0  0  0  0  0
    7.9742  -13.2902   26.0937 C   0  0  2  0  0  0  0  0  0  0  0  0
    7.3184  -14.2697   25.2448 N   0  0  0  0  0  0  0  0  0  0  0  0
    8.4889  -13.9423   27.3406 C   0  0  0  0  0  0  0  0  0  0  0  0
    9.3895  -13.3118   28.1691 O   0  0  0  0  0  0  0  0  0  0  0  0
    8.0805  -15.1073   27.6363 O   0  0  0  0  0  0  0  0  0  0  0  0
  2  3  1  0
  2  1  1  0
  3  4  2  0
  5  6  1  0
  6  7  2  0
  6  8  1  0
  8  9  1  0
 10  9  1  1
 11 10  1  0
 11  3  1  0
 12 18  1  0
 12 10  1  0
 13 12  2  0
 15 14  1  6
 16 15  1  0
 17 18  1  6
 17 15  1  0
 19 17  1  0
 20 19  1  0
 21 19  2  0
M  END
$$$$
