GQV.pdb
     RDKit          3D

 21 20  0  0  1  0  0  0  0  0999 V2000
    7.0263  -17.4252   19.0473 N   0  0  0  0  0  0  0  0  0  0  0  0
    7.9674  -17.4482   20.1443 C   0  0  0  0  0  0  0  0  0  0  0  0
    7.2365  -17.2422   21.4426 C   0  0  0  0  0  0  0  0  0  0  0  0
    6.0513  -16.8400   21.4173 O   0  0  0  0  0  0  0  0  0  0  0  0
    4.8439  -20.1737   22.8651 N   0  0  0  0  0  0  0  0  0  0  0  0
    6.0501  -20.1240   23.6379 C   0  0  0  0  0  0  0  0  0  0  0  0
    7.0122  -20.7850   23.2241 O   0  0  0  0  0  0  0  0  0  0  0  0
    6.0876  -19.3009   24.8677 C   0  0  0  0  0  0  0  0  0  0  0  0
    7.2579  -18.3920   24.8579 C   0  0  0  0  0  0  0  0  0  0  0  0
    7.2111  -17.2465   23.9064 C   0  0  2  0  0  0  0  0  0  0  0  0
    7.9104  -17.5095   22.6641 N   0  0  0  0  0  0  0  0  0  0  0  0
    7.8692  -16.0878   24.6211 C   0  0  0  0  0  0  0  0  0  0  0  0
    9.1092  -15.9524   24.5814 O   0  0  0  0  0  0  0  0  0  0  0  0
    7.4072  -11.8981   27.2271 C   0  0  0  0  0  0  0  0  0  0  0  0
    6.6746  -13.0540   26.5796 C   0  0  1  0  0  0  0  0  0  0  0  0
    5.7652  -12.5806   25.4665 C   0  0  0  0  0  0  0  0  0  0  0  0
    7.6957  -13.9904   26.0244 C   0  0  2  0  0  0  0  0  0  0  0  0
    7.1078  -15.1335   25.3479 N   0  0  0  0  0  0  0  0  0  0  0  0
    8.5795  -14.4458   27.1453 C   0  0  0  0  0  0  0  0  0  0  0  0
    9.7137  -13.7516   27.5015 O   0  0  0  0  0  0  0  0  0  0  0  0
    8.2697  -15.5004   27.7802 O   0  0  0  0  0  0  0  0  0  0  0  0
  2  3  1  0
  2  1  1  0
  3  4  2  0
  5  6  1  0
  6  7  2  0
  6  8  1  0
  8  9  1  0
 10  9  1  1
 11 10  1  0
 11  3  1  0
 12 18  1  0
 12 10  1  0
 13 12  2  0
 15 14  1  6
 16 15  1  0
 17 18  1  1
 17 15  1  0
 19 17  1  0
 20 19  1  0
 21 19  2  0
M  END
$$$$
