GQV.pdb
     RDKit          3D

 21 20  0  0  1  0  0  0  0  0999 V2000
    5.1960  -18.7748   22.9416 N   0  0  0  0  0  0  0  0  0  0  0  0
    5.1305  -17.3454   23.1469 C   0  0  0  0  0  0  0  0  0  0  0  0
    6.5212  -16.7728   23.1678 C   0  0  0  0  0  0  0  0  0  0  0  0
    7.4323  -17.4066   23.7469 O   0  0  0  0  0  0  0  0  0  0  0  0
    7.0662  -12.7011   18.4761 N   0  0  0  0  0  0  0  0  0  0  0  0
    8.1059  -13.5281   19.0143 C   0  0  0  0  0  0  0  0  0  0  0  0
    9.2458  -13.3699   18.5566 O   0  0  0  0  0  0  0  0  0  0  0  0
    7.7743  -14.5108   20.0707 C   0  0  0  0  0  0  0  0  0  0  0  0
    8.4100  -14.1371   21.3560 C   0  0  0  0  0  0  0  0  0  0  0  0
    8.1185  -15.0091   22.5283 C   0  0  2  0  0  0  0  0  0  0  0  0
    6.7646  -15.5273   22.5296 N   0  0  0  0  0  0  0  0  0  0  0  0
    8.3291  -14.1437   23.7503 C   0  0  0  0  0  0  0  0  0  0  0  0
    8.3431  -12.9006   23.6406 O   0  0  0  0  0  0  0  0  0  0  0  0
    7.2047  -12.1701   25.4138 C   0  0  0  0  0  0  0  0  0  0  0  0
    7.4665  -13.1061   26.5747 C   0  0  1  0  0  0  0  0  0  0  0  0
    6.2915  -14.0278   26.8199 C   0  0  0  0  0  0  0  0  0  0  0  0
    8.6756  -13.9171   26.2457 C   0  0  2  0  0  0  0  0  0  0  0  0
    8.5147  -14.7107   25.0397 N   0  0  0  0  0  0  0  0  0  0  0  0
    8.9843  -14.8021   27.4147 C   0  0  0  0  0  0  0  0  0  0  0  0
    9.3625  -14.2864   28.6338 O   0  0  0  0  0  0  0  0  0  0  0  0
    8.8933  -16.0601   27.2719 O   0  0  0  0  0  0  0  0  0  0  0  0
  2  3  1  0
  2  1  1  0
  3  4  2  0
  5  6  1  0
  6  7  2  0
  6  8  1  0
  8  9  1  0
 10  9  1  6
 11 10  1  0
 11  3  1  0
 12 18  1  0
 12 10  1  0
 13 12  2  0
 15 14  1  6
 16 15  1  0
 17 18  1  6
 17 15  1  0
 19 17  1  0
 20 19  1  0
 21 19  2  0
M  END
$$$$
