VVV.pdb
     RDKit          3D

 22 21  0  0  1  0  0  0  0  0999 V2000
    7.0250  -17.2775   20.4611 C   0  0  0  0  0  0  0  0  0  0  0  0
    7.6648  -16.6903   21.6752 C   0  0  2  0  0  0  0  0  0  0  0  0
    7.0174  -17.3017   22.9002 C   0  0  0  0  0  0  0  0  0  0  0  0
    7.5112  -15.1982   21.7779 C   0  0  2  0  0  0  0  0  0  0  0  0
    8.1262  -14.5473   20.6542 N   0  0  0  0  0  0  0  0  0  0  0  0
    8.0970  -14.6430   23.0199 C   0  0  0  0  0  0  0  0  0  0  0  0
    9.3335  -14.5325   23.1495 O   0  0  0  0  0  0  0  0  0  0  0  0
    6.3661  -11.7398   25.4325 C   0  0  0  0  0  0  0  0  0  0  0  0
    6.7863  -12.9966   26.1231 C   0  0  2  0  0  0  0  0  0  0  0  0
    7.3754  -12.6527   27.4903 C   0  0  0  0  0  0  0  0  0  0  0  0
    7.8695  -13.7452   25.3738 C   0  0  2  0  0  0  0  0  0  0  0  0
    7.2947  -14.2103   24.1201 N   0  0  0  0  0  0  0  0  0  0  0  0
    8.3813  -14.8953   26.1808 C   0  0  0  0  0  0  0  0  0  0  0  0
    7.5434  -15.7880   26.5395 O   0  0  0  0  0  0  0  0  0  0  0  0
   11.2656  -17.1933   25.2836 C   0  0  0  0  0  0  0  0  0  0  0  0
   11.4759  -16.7383   26.7119 C   0  0  1  0  0  0  0  0  0  0  0  0
   12.6506  -15.8302   26.8268 C   0  0  0  0  0  0  0  0  0  0  0  0
   10.2034  -16.1462   27.2718 C   0  0  2  0  0  0  0  0  0  0  0  0
    9.7467  -15.0089   26.5453 N   0  0  0  0  0  0  0  0  0  0  0  0
   10.3602  -15.8400   28.7051 C   0  0  0  0  0  0  0  0  0  0  0  0
   10.5949  -16.8671   29.5937 O   0  0  0  0  0  0  0  0  0  0  0  0
   10.2827  -14.6651   29.1180 O   0  0  0  0  0  0  0  0  0  0  0  0
  2  1  1  6
  2  3  1  0
  4  2  1  0
  4  5  1  6
  6  4  1  0
  6  7  2  0
  9  8  1  6
  9 11  1  0
 10  9  1  0
 11 13  1  0
 11 12  1  6
 12  6  1  0
 13 19  1  0
 14 13  2  0
 16 17  1  6
 16 15  1  0
 16 18  1  0
 18 20  1  0
 18 19  1  6
 20 22  2  0
 20 21  1  0
M  END
$$$$
