VVV.pdb
     RDKit          3D

 22 21  0  0  1  0  0  0  0  0999 V2000
    7.4553  -17.8207   22.6834 C   0  0  0  0  0  0  0  0  0  0  0  0
    6.2824  -16.9265   22.4526 C   0  0  2  0  0  0  0  0  0  0  0  0
    5.4922  -17.4674   21.2794 C   0  0  0  0  0  0  0  0  0  0  0  0
    6.6586  -15.5070   22.1303 C   0  0  2  0  0  0  0  0  0  0  0  0
    7.3837  -15.4441   20.8914 N   0  0  0  0  0  0  0  0  0  0  0  0
    7.4811  -14.8749   23.1877 C   0  0  0  0  0  0  0  0  0  0  0  0
    8.7264  -14.8591   23.1050 O   0  0  0  0  0  0  0  0  0  0  0  0
    6.3399  -11.6638   25.5616 C   0  0  0  0  0  0  0  0  0  0  0  0
    6.8232  -12.8728   26.2950 C   0  0  2  0  0  0  0  0  0  0  0  0
    7.6727  -12.4376   27.4880 C   0  0  0  0  0  0  0  0  0  0  0  0
    7.7115  -13.7591   25.4462 C   0  0  2  0  0  0  0  0  0  0  0  0
    6.9062  -14.2586   24.3414 N   0  0  0  0  0  0  0  0  0  0  0  0
    8.2650  -14.8907   26.2520 C   0  0  0  0  0  0  0  0  0  0  0  0
    7.4446  -15.7633   26.6914 O   0  0  0  0  0  0  0  0  0  0  0  0
   12.4609  -15.6858   26.3449 C   0  0  0  0  0  0  0  0  0  0  0  0
   11.3813  -16.7419   26.4451 C   0  0  1  0  0  0  0  0  0  0  0  0
   11.8995  -17.9934   27.0642 C   0  0  0  0  0  0  0  0  0  0  0  0
   10.1616  -16.1877   27.1441 C   0  0  2  0  0  0  0  0  0  0  0  0
    9.6503  -15.0083   26.5296 N   0  0  0  0  0  0  0  0  0  0  0  0
   10.4376  -15.9706   28.5756 C   0  0  0  0  0  0  0  0  0  0  0  0
   10.6406  -17.0584   29.3972 O   0  0  0  0  0  0  0  0  0  0  0  0
   10.4887  -14.8164   29.0470 O   0  0  0  0  0  0  0  0  0  0  0  0
  2  1  1  6
  2  3  1  0
  4  2  1  0
  4  5  1  6
  6  4  1  0
  6  7  2  0
  9  8  1  6
  9 11  1  0
 10  9  1  0
 11 13  1  0
 11 12  1  6
 12  6  1  0
 13 19  1  0
 14 13  2  0
 16 17  1  1
 16 15  1  0
 16 18  1  0
 18 20  1  0
 18 19  1  6
 20 22  2  0
 20 21  1  0
M  END
$$$$
