VVV.pdb
     RDKit          3D

 22 21  0  0  1  0  0  0  0  0999 V2000
    5.9891  -20.2021   18.0823 C   0  0  0  0  0  0  0  0  0  0  0  0
    6.9027  -19.2486   18.7783 C   0  0  2  0  0  0  0  0  0  0  0  0
    6.4036  -19.0557   20.1950 C   0  0  0  0  0  0  0  0  0  0  0  0
    6.9679  -17.8928   18.1318 C   0  0  2  0  0  0  0  0  0  0  0  0
    7.4532  -17.9976   16.7834 N   0  0  0  0  0  0  0  0  0  0  0  0
    7.8337  -16.9440   18.8695 C   0  0  0  0  0  0  0  0  0  0  0  0
    9.0721  -17.0977   18.8971 O   0  0  0  0  0  0  0  0  0  0  0  0
    7.1902  -12.8790   19.3350 C   0  0  0  0  0  0  0  0  0  0  0  0
    7.3843  -13.6522   20.5990 C   0  0  2  0  0  0  0  0  0  0  0  0
    8.2152  -12.8248   21.5784 C   0  0  0  0  0  0  0  0  0  0  0  0
    8.1465  -14.9441   20.3866 C   0  0  2  0  0  0  0  0  0  0  0  0
    7.3102  -15.8194   19.5784 N   0  0  0  0  0  0  0  0  0  0  0  0
    8.4806  -15.5894   21.6935 C   0  0  0  0  0  0  0  0  0  0  0  0
    7.5201  -15.8360   22.4963 O   0  0  0  0  0  0  0  0  0  0  0  0
   11.0890  -18.6353   24.3285 C   0  0  0  0  0  0  0  0  0  0  0  0
   10.6796  -18.0017   23.0163 C   0  0  1  0  0  0  0  0  0  0  0  0
    9.8003  -18.9069   22.2254 C   0  0  0  0  0  0  0  0  0  0  0  0
   10.0767  -16.6364   23.2527 C   0  0  2  0  0  0  0  0  0  0  0  0
    9.8120  -15.9237   22.0478 N   0  0  0  0  0  0  0  0  0  0  0  0
   10.9207  -15.8479   24.1684 C   0  0  0  0  0  0  0  0  0  0  0  0
   11.6985  -14.8290   23.6618 O   0  0  0  0  0  0  0  0  0  0  0  0
   10.9367  -16.0940   25.3916 O   0  0  0  0  0  0  0  0  0  0  0  0
  2  1  1  6
  2  3  1  0
  4  2  1  0
  4  5  1  6
  6  4  1  0
  6  7  2  0
  9  8  1  6
  9 11  1  0
 10  9  1  0
 11 13  1  0
 11 12  1  6
 12  6  1  0
 13 19  1  0
 14 13  2  0
 16 17  1  1
 16 15  1  0
 16 18  1  0
 18 20  1  0
 18 19  1  6
 20 22  2  0
 20 21  1  0
M  END
$$$$
