VVV.pdb
     RDKit          3D

 22 21  0  0  1  0  0  0  0  0999 V2000
    6.9411  -17.0167   20.3655 C   0  0  0  0  0  0  0  0  0  0  0  0
    7.6366  -16.4085   21.5379 C   0  0  2  0  0  0  0  0  0  0  0  0
    7.1629  -17.1117   22.7927 C   0  0  0  0  0  0  0  0  0  0  0  0
    7.3615  -14.9404   21.7093 C   0  0  2  0  0  0  0  0  0  0  0  0
    7.8448  -14.1992   20.5772 N   0  0  0  0  0  0  0  0  0  0  0  0
    7.9755  -14.3786   22.9346 C   0  0  0  0  0  0  0  0  0  0  0  0
    9.2038  -14.1651   22.9939 O   0  0  0  0  0  0  0  0  0  0  0  0
    6.3986  -11.6083   25.4875 C   0  0  0  0  0  0  0  0  0  0  0  0
    6.7947  -12.8884   26.1490 C   0  0  2  0  0  0  0  0  0  0  0  0
    7.4378  -12.5840   27.5011 C   0  0  0  0  0  0  0  0  0  0  0  0
    7.8267  -13.6646   25.3568 C   0  0  2  0  0  0  0  0  0  0  0  0
    7.2106  -14.0549   24.0971 N   0  0  0  0  0  0  0  0  0  0  0  0
    8.2896  -14.8675   26.1151 C   0  0  0  0  0  0  0  0  0  0  0  0
    7.4180  -15.7472   26.4219 O   0  0  0  0  0  0  0  0  0  0  0  0
   10.9504  -17.2723   25.0731 C   0  0  0  0  0  0  0  0  0  0  0  0
   11.2601  -16.8879   26.5040 C   0  0  1  0  0  0  0  0  0  0  0  0
   12.4969  -16.0629   26.5907 C   0  0  0  0  0  0  0  0  0  0  0  0
   10.0587  -16.2369   27.1493 C   0  0  2  0  0  0  0  0  0  0  0  0
    9.6455  -15.0435   26.4898 N   0  0  0  0  0  0  0  0  0  0  0  0
   10.3044  -16.0003   28.5832 C   0  0  0  0  0  0  0  0  0  0  0  0
   10.5105  -17.0758   29.4201 O   0  0  0  0  0  0  0  0  0  0  0  0
   10.3272  -14.8405   29.0431 O   0  0  0  0  0  0  0  0  0  0  0  0
  2  1  1  6
  2  3  1  0
  4  2  1  0
  4  5  1  6
  6  4  1  0
  6  7  2  0
  9  8  1  6
  9 11  1  0
 10  9  1  0
 11 13  1  0
 11 12  1  6
 12  6  1  0
 13 19  1  0
 14 13  2  0
 16 17  1  6
 16 15  1  0
 16 18  1  0
 18 20  1  0
 18 19  1  6
 20 22  2  0
 20 21  1  0
M  END
$$$$
