VVV.pdb
     RDKit          3D

 22 21  0  0  1  0  0  0  0  0999 V2000
   13.4903  -19.3083   20.6056 C   0  0  0  0  0  0  0  0  0  0  0  0
   12.8871  -18.2517   21.4705 C   0  0  2  0  0  0  0  0  0  0  0  0
   12.2874  -18.9175   22.6913 C   0  0  0  0  0  0  0  0  0  0  0  0
   11.7935  -17.4703   20.7967 C   0  0  2  0  0  0  0  0  0  0  0  0
   12.2904  -16.8181   19.6168 N   0  0  0  0  0  0  0  0  0  0  0  0
   11.1895  -16.4459   21.6798 C   0  0  0  0  0  0  0  0  0  0  0  0
   11.8332  -15.4298   22.0134 O   0  0  0  0  0  0  0  0  0  0  0  0
    7.4726  -14.9417   21.4409 C   0  0  0  0  0  0  0  0  0  0  0  0
    7.7848  -15.5188   22.7835 C   0  0  2  0  0  0  0  0  0  0  0  0
    7.1667  -14.6406   23.8703 C   0  0  0  0  0  0  0  0  0  0  0  0
    9.2712  -15.5636   23.0728 C   0  0  2  0  0  0  0  0  0  0  0  0
    9.8602  -16.5605   22.1907 N   0  0  0  0  0  0  0  0  0  0  0  0
    9.5274  -15.9068   24.5055 C   0  0  0  0  0  0  0  0  0  0  0  0
    9.5682  -17.1421   24.8217 O   0  0  0  0  0  0  0  0  0  0  0  0
    9.0727  -13.2360   27.7753 C   0  0  0  0  0  0  0  0  0  0  0  0
   10.3257  -14.0834   27.7215 C   0  0  1  0  0  0  0  0  0  0  0  0
   10.7901  -14.4561   29.0865 C   0  0  0  0  0  0  0  0  0  0  0  0
   10.1219  -15.2728   26.8120 C   0  0  2  0  0  0  0  0  0  0  0  0
    9.7209  -14.9091   25.4941 N   0  0  0  0  0  0  0  0  0  0  0  0
    9.1784  -16.2315   27.4148 C   0  0  0  0  0  0  0  0  0  0  0  0
    9.6430  -17.1539   28.3274 O   0  0  0  0  0  0  0  0  0  0  0  0
    7.9692  -16.2147   27.1072 O   0  0  0  0  0  0  0  0  0  0  0  0
  2  1  1  6
  2  3  1  0
  4  2  1  0
  4  5  1  6
  6  4  1  0
  6  7  2  0
  9  8  1  6
  9 11  1  0
 10  9  1  0
 11 13  1  0
 11 12  1  6
 12  6  1  0
 13 19  1  0
 14 13  2  0
 16 17  1  1
 16 15  1  0
 16 18  1  0
 18 20  1  0
 18 19  1  6
 20 22  2  0
 20 21  1  0
M  END
$$$$
