VVV.pdb
     RDKit          3D

 22 21  0  0  1  0  0  0  0  0999 V2000
    7.5931  -17.3356   21.8147 C   0  0  0  0  0  0  0  0  0  0  0  0
    6.5115  -16.3132   21.6997 C   0  0  2  0  0  0  0  0  0  0  0  0
    5.7454  -16.5693   20.4188 C   0  0  0  0  0  0  0  0  0  0  0  0
    7.0194  -14.8990   21.6495 C   0  0  2  0  0  0  0  0  0  0  0  0
    7.8710  -14.7070   20.5083 N   0  0  0  0  0  0  0  0  0  0  0  0
    7.7713  -14.5135   22.8660 C   0  0  0  0  0  0  0  0  0  0  0  0
    9.0194  -14.5207   22.8751 O   0  0  0  0  0  0  0  0  0  0  0  0
    6.5558  -11.7129   25.5638 C   0  0  0  0  0  0  0  0  0  0  0  0
    6.9558  -13.0079   26.1933 C   0  0  2  0  0  0  0  0  0  0  0  0
    7.7564  -12.7292   27.4644 C   0  0  0  0  0  0  0  0  0  0  0  0
    7.8548  -13.8412   25.3032 C   0  0  2  0  0  0  0  0  0  0  0  0
    7.1226  -14.1188   24.0763 N   0  0  0  0  0  0  0  0  0  0  0  0
    8.2506  -15.1130   25.9830 C   0  0  0  0  0  0  0  0  0  0  0  0
    7.3190  -15.8971   26.3639 O   0  0  0  0  0  0  0  0  0  0  0  0
   10.6859  -17.6395   24.5955 C   0  0  0  0  0  0  0  0  0  0  0  0
   11.0606  -17.4229   26.0459 C   0  0  1  0  0  0  0  0  0  0  0  0
   12.3788  -16.7414   26.1718 C   0  0  0  0  0  0  0  0  0  0  0  0
    9.9466  -16.7139   26.7805 C   0  0  2  0  0  0  0  0  0  0  0  0
    9.6084  -15.4546   26.2062 N   0  0  0  0  0  0  0  0  0  0  0  0
   10.2711  -16.5810   28.2121 C   0  0  0  0  0  0  0  0  0  0  0  0
   10.3994  -15.3238   28.7621 O   0  0  0  0  0  0  0  0  0  0  0  0
   10.4298  -17.5920   28.9261 O   0  0  0  0  0  0  0  0  0  0  0  0
  2  1  1  6
  2  3  1  0
  4  2  1  0
  4  5  1  6
  6  4  1  0
  6  7  2  0
  9  8  1  6
  9 11  1  0
 10  9  1  0
 11 13  1  0
 11 12  1  6
 12  6  1  0
 13 19  1  0
 14 13  2  0
 16 17  1  6
 16 15  1  0
 16 18  1  0
 18 20  1  0
 18 19  1  6
 20 22  2  0
 20 21  1  0
M  END
$$$$
