VVV.pdb
     RDKit          3D

 22 21  0  0  1  0  0  0  0  0999 V2000
    6.4200  -18.5494   21.6413 C   0  0  0  0  0  0  0  0  0  0  0  0
    7.1283  -17.7764   22.7039 C   0  0  2  0  0  0  0  0  0  0  0  0
    6.3986  -17.9856   24.0144 C   0  0  0  0  0  0  0  0  0  0  0  0
    7.1779  -16.2965   22.4436 C   0  0  2  0  0  0  0  0  0  0  0  0
    7.8469  -16.0230   21.2018 N   0  0  0  0  0  0  0  0  0  0  0  0
    7.8626  -15.5448   23.5207 C   0  0  0  0  0  0  0  0  0  0  0  0
    9.1087  -15.4999   23.5762 O   0  0  0  0  0  0  0  0  0  0  0  0
    6.4034  -12.0673   25.2764 C   0  0  0  0  0  0  0  0  0  0  0  0
    6.8092  -13.1594   26.2122 C   0  0  2  0  0  0  0  0  0  0  0  0
    7.4839  -12.5514   27.4407 C   0  0  0  0  0  0  0  0  0  0  0  0
    7.8198  -14.1098   25.6035 C   0  0  2  0  0  0  0  0  0  0  0  0
    7.1487  -14.8413   24.5389 N   0  0  0  0  0  0  0  0  0  0  0  0
    8.3586  -15.0499   26.6340 C   0  0  0  0  0  0  0  0  0  0  0  0
    7.5292  -15.8112   27.2342 O   0  0  0  0  0  0  0  0  0  0  0  0
   10.8182  -17.6529   25.9448 C   0  0  0  0  0  0  0  0  0  0  0  0
   11.3279  -16.9605   27.1905 C   0  0  1  0  0  0  0  0  0  0  0  0
   12.5749  -16.1940   26.9159 C   0  0  0  0  0  0  0  0  0  0  0  0
   10.2357  -16.1243   27.8160 C   0  0  2  0  0  0  0  0  0  0  0  0
    9.7398  -15.1090   26.9482 N   0  0  0  0  0  0  0  0  0  0  0  0
   10.6859  -15.5594   29.1009 C   0  0  0  0  0  0  0  0  0  0  0  0
   10.9958  -16.4089   30.1410 O   0  0  0  0  0  0  0  0  0  0  0  0
   10.7881  -14.3253   29.2536 O   0  0  0  0  0  0  0  0  0  0  0  0
  2  1  1  6
  2  3  1  0
  4  2  1  0
  4  5  1  6
  6  4  1  0
  6  7  2  0
  9  8  1  6
  9 11  1  0
 10  9  1  0
 11 13  1  0
 11 12  1  6
 12  6  1  0
 13 19  1  0
 14 13  2  0
 16 17  1  6
 16 15  1  0
 16 18  1  0
 18 20  1  0
 18 19  1  6
 20 22  2  0
 20 21  1  0
M  END
$$$$
