VVV.pdb
     RDKit          3D

 22 21  0  0  1  0  0  0  0  0999 V2000
    7.5661  -17.7825   22.3747 C   0  0  0  0  0  0  0  0  0  0  0  0
    6.4241  -16.8335   22.2208 C   0  0  2  0  0  0  0  0  0  0  0  0
    5.5495  -17.3181   21.0834 C   0  0  0  0  0  0  0  0  0  0  0  0
    6.8462  -15.4265   21.9008 C   0  0  2  0  0  0  0  0  0  0  0  0
    7.5301  -15.3778   20.6381 N   0  0  0  0  0  0  0  0  0  0  0  0
    7.7296  -14.8408   22.9355 C   0  0  0  0  0  0  0  0  0  0  0  0
    8.9700  -14.9540   22.8556 O   0  0  0  0  0  0  0  0  0  0  0  0
    8.0958  -11.9991   27.0252 C   0  0  0  0  0  0  0  0  0  0  0  0
    7.2978  -12.6147   25.9219 C   0  0  2  0  0  0  0  0  0  0  0  0
    6.0907  -13.3419   26.5123 C   0  0  0  0  0  0  0  0  0  0  0  0
    8.0766  -13.6547   25.1427 C   0  0  2  0  0  0  0  0  0  0  0  0
    7.2212  -14.1260   24.0634 N   0  0  0  0  0  0  0  0  0  0  0  0
    8.4874  -14.7887   26.0266 C   0  0  0  0  0  0  0  0  0  0  0  0
    7.5913  -15.6309   26.3665 O   0  0  0  0  0  0  0  0  0  0  0  0
   11.8455  -17.9554   27.4935 C   0  0  0  0  0  0  0  0  0  0  0  0
   11.4509  -16.7649   26.6461 C   0  0  1  0  0  0  0  0  0  0  0  0
   11.3357  -17.1344   25.2080 C   0  0  0  0  0  0  0  0  0  0  0  0
   10.2057  -16.1111   27.1987 C   0  0  2  0  0  0  0  0  0  0  0  0
    9.8212  -14.9411   26.4822 N   0  0  0  0  0  0  0  0  0  0  0  0
   10.3608  -15.8324   28.6378 C   0  0  0  0  0  0  0  0  0  0  0  0
   10.3972  -16.8828   29.5294 O   0  0  0  0  0  0  0  0  0  0  0  0
   10.4589  -14.6598   29.0530 O   0  0  0  0  0  0  0  0  0  0  0  0
  2  1  1  6
  2  3  1  0
  4  2  1  0
  4  5  1  6
  6  4  1  0
  6  7  2  0
  9  8  1  1
  9 11  1  0
 10  9  1  0
 11 13  1  0
 11 12  1  6
 12  6  1  0
 13 19  1  0
 14 13  2  0
 16 17  1  6
 16 15  1  0
 16 18  1  0
 18 20  1  0
 18 19  1  6
 20 22  2  0
 20 21  1  0
M  END
$$$$
