VVV.pdb
     RDKit          3D

 22 21  0  0  1  0  0  0  0  0999 V2000
   13.4744  -19.0123   20.3542 C   0  0  0  0  0  0  0  0  0  0  0  0
   12.7975  -18.2181   21.4216 C   0  0  2  0  0  0  0  0  0  0  0  0
   12.1113  -19.1788   22.3701 C   0  0  0  0  0  0  0  0  0  0  0  0
   11.7523  -17.2716   20.8999 C   0  0  2  0  0  0  0  0  0  0  0  0
   12.2973  -16.4350   19.8667 N   0  0  0  0  0  0  0  0  0  0  0  0
   11.1838  -16.4024   21.9561 C   0  0  0  0  0  0  0  0  0  0  0  0
   11.8512  -15.4656   22.4407 O   0  0  0  0  0  0  0  0  0  0  0  0
    7.4928  -15.0516   21.7456 C   0  0  0  0  0  0  0  0  0  0  0  0
    7.7767  -15.5929   23.1093 C   0  0  2  0  0  0  0  0  0  0  0  0
    7.1642  -14.6687   24.1606 C   0  0  0  0  0  0  0  0  0  0  0  0
    9.2582  -15.6596   23.4186 C   0  0  2  0  0  0  0  0  0  0  0  0
    9.8634  -16.5837   22.4707 N   0  0  0  0  0  0  0  0  0  0  0  0
    9.4915  -16.1140   24.8240 C   0  0  0  0  0  0  0  0  0  0  0  0
    9.5839  -17.3690   25.0342 O   0  0  0  0  0  0  0  0  0  0  0  0
   11.3538  -13.5822   27.6389 C   0  0  0  0  0  0  0  0  0  0  0  0
   10.2832  -14.5186   28.1566 C   0  0  1  0  0  0  0  0  0  0  0  0
    9.0409  -13.7799   28.5157 C   0  0  0  0  0  0  0  0  0  0  0  0
   10.0485  -15.6467   27.1791 C   0  0  2  0  0  0  0  0  0  0  0  0
    9.6091  -15.1985   25.9000 N   0  0  0  0  0  0  0  0  0  0  0  0
    9.1206  -16.6412   27.7472 C   0  0  0  0  0  0  0  0  0  0  0  0
    9.5250  -17.4080   28.8186 O   0  0  0  0  0  0  0  0  0  0  0  0
    7.9784  -16.7935   27.2686 O   0  0  0  0  0  0  0  0  0  0  0  0
  2  1  1  6
  2  3  1  0
  4  2  1  0
  4  5  1  6
  6  4  1  0
  6  7  2  0
  9  8  1  6
  9 11  1  0
 10  9  1  0
 11 13  1  0
 11 12  1  6
 12  6  1  0
 13 19  1  0
 14 13  2  0
 16 17  1  6
 16 15  1  0
 16 18  1  0
 18 20  1  0
 18 19  1  6
 20 22  2  0
 20 21  1  0
M  END
$$$$
