VVV.pdb
     RDKit          3D

 22 21  0  0  1  0  0  0  0  0999 V2000
    7.1561  -17.1203   20.1593 C   0  0  0  0  0  0  0  0  0  0  0  0
    7.7760  -16.5810   21.4056 C   0  0  2  0  0  0  0  0  0  0  0  0
    7.1436  -17.2754   22.5935 C   0  0  0  0  0  0  0  0  0  0  0  0
    7.5792  -15.1016   21.5874 C   0  0  2  0  0  0  0  0  0  0  0  0
    8.1711  -14.3745   20.4986 N   0  0  0  0  0  0  0  0  0  0  0  0
    8.1528  -14.5958   22.8559 C   0  0  0  0  0  0  0  0  0  0  0  0
    9.3810  -14.4053   22.9709 O   0  0  0  0  0  0  0  0  0  0  0  0
    6.3614  -11.8865   25.3042 C   0  0  0  0  0  0  0  0  0  0  0  0
    6.8263  -13.1160   26.0151 C   0  0  2  0  0  0  0  0  0  0  0  0
    7.4313  -12.7257   27.3627 C   0  0  0  0  0  0  0  0  0  0  0  0
    7.9145  -13.8541   25.2625 C   0  0  2  0  0  0  0  0  0  0  0  0
    7.3476  -14.3028   23.9992 N   0  0  0  0  0  0  0  0  0  0  0  0
    8.4219  -15.0147   26.0573 C   0  0  0  0  0  0  0  0  0  0  0  0
    7.5741  -15.8882   26.4395 O   0  0  0  0  0  0  0  0  0  0  0  0
   12.0271  -18.0909   27.1728 C   0  0  0  0  0  0  0  0  0  0  0  0
   11.5559  -16.8617   26.4257 C   0  0  1  0  0  0  0  0  0  0  0  0
   11.4832  -17.1104   24.9592 C   0  0  0  0  0  0  0  0  0  0  0  0
   10.2607  -16.3497   27.0119 C   0  0  2  0  0  0  0  0  0  0  0  0
    9.7936  -15.1584   26.3855 N   0  0  0  0  0  0  0  0  0  0  0  0
   10.3838  -16.1764   28.4705 C   0  0  0  0  0  0  0  0  0  0  0  0
   10.4698  -17.2897   29.2784 O   0  0  0  0  0  0  0  0  0  0  0  0
   10.4107  -15.0363   28.9768 O   0  0  0  0  0  0  0  0  0  0  0  0
  2  1  1  6
  2  3  1  0
  4  2  1  0
  4  5  1  6
  6  4  1  0
  6  7  2  0
  9  8  1  6
  9 11  1  0
 10  9  1  0
 11 13  1  0
 11 12  1  6
 12  6  1  0
 13 19  1  0
 14 13  2  0
 16 17  1  6
 16 15  1  0
 16 18  1  0
 18 20  1  0
 18 19  1  6
 20 22  2  0
 20 21  1  0
M  END
$$$$
