VVV.pdb
     RDKit          3D

 22 21  0  0  1  0  0  0  0  0999 V2000
    7.0439  -16.9269   20.1893 C   0  0  0  0  0  0  0  0  0  0  0  0
    7.6630  -16.4112   21.4459 C   0  0  2  0  0  0  0  0  0  0  0  0
    7.0179  -17.1157   22.6211 C   0  0  0  0  0  0  0  0  0  0  0  0
    7.4800  -14.9325   21.6474 C   0  0  2  0  0  0  0  0  0  0  0  0
    8.0509  -14.1979   20.5524 N   0  0  0  0  0  0  0  0  0  0  0  0
    8.0864  -14.4435   22.9072 C   0  0  0  0  0  0  0  0  0  0  0  0
    9.3217  -14.2938   23.0060 O   0  0  0  0  0  0  0  0  0  0  0  0
    6.4460  -11.7101   25.4599 C   0  0  0  0  0  0  0  0  0  0  0  0
    6.8607  -12.9840   26.1219 C   0  0  2  0  0  0  0  0  0  0  0  0
    7.4967  -12.6698   27.4751 C   0  0  0  0  0  0  0  0  0  0  0  0
    7.9059  -13.7441   25.3314 C   0  0  2  0  0  0  0  0  0  0  0  0
    7.3063  -14.1213   24.0599 N   0  0  0  0  0  0  0  0  0  0  0  0
    8.3671  -14.9542   26.0792 C   0  0  0  0  0  0  0  0  0  0  0  0
    7.4837  -15.8010   26.4402 O   0  0  0  0  0  0  0  0  0  0  0  0
   11.1744  -17.3212   24.9829 C   0  0  0  0  0  0  0  0  0  0  0  0
   11.3928  -16.9758   26.4403 C   0  0  1  0  0  0  0  0  0  0  0  0
   12.6020  -16.1260   26.6233 C   0  0  0  0  0  0  0  0  0  0  0  0
   10.1411  -16.3734   27.0351 C   0  0  2  0  0  0  0  0  0  0  0  0
    9.7338  -15.1720   26.3865 N   0  0  0  0  0  0  0  0  0  0  0  0
   10.3010  -16.1722   28.4865 C   0  0  0  0  0  0  0  0  0  0  0  0
   10.2301  -14.8967   29.0037 O   0  0  0  0  0  0  0  0  0  0  0  0
   10.4989  -17.1419   29.2464 O   0  0  0  0  0  0  0  0  0  0  0  0
  2  1  1  6
  2  3  1  0
  4  2  1  0
  4  5  1  6
  6  4  1  0
  6  7  2  0
  9  8  1  6
  9 11  1  0
 10  9  1  0
 11 13  1  0
 11 12  1  6
 12  6  1  0
 13 19  1  0
 14 13  2  0
 16 17  1  6
 16 15  1  0
 16 18  1  0
 18 20  1  0
 18 19  1  6
 20 22  2  0
 20 21  1  0
M  END
$$$$
