VVV.pdb
     RDKit          3D

 22 21  0  0  1  0  0  0  0  0999 V2000
    6.9835  -17.4765   20.6205 C   0  0  0  0  0  0  0  0  0  0  0  0
    7.5819  -16.8834   21.8528 C   0  0  2  0  0  0  0  0  0  0  0  0
    6.8545  -17.4458   23.0561 C   0  0  0  0  0  0  0  0  0  0  0  0
    7.4735  -15.3852   21.9166 C   0  0  2  0  0  0  0  0  0  0  0  0
    8.1023  -14.7828   20.7737 N   0  0  0  0  0  0  0  0  0  0  0  0
    8.0817  -14.8154   23.1412 C   0  0  0  0  0  0  0  0  0  0  0  0
    9.3215  -14.7397   23.2633 O   0  0  0  0  0  0  0  0  0  0  0  0
    6.4089  -11.7544   25.3690 C   0  0  0  0  0  0  0  0  0  0  0  0
    6.8260  -12.9623   26.1436 C   0  0  2  0  0  0  0  0  0  0  0  0
    7.4339  -12.5267   27.4760 C   0  0  0  0  0  0  0  0  0  0  0  0
    7.8938  -13.7731   25.4383 C   0  0  2  0  0  0  0  0  0  0  0  0
    7.2980  -14.3289   24.2322 N   0  0  0  0  0  0  0  0  0  0  0  0
    8.4112  -14.8616   26.3236 C   0  0  0  0  0  0  0  0  0  0  0  0
    7.5811  -15.7417   26.7289 O   0  0  0  0  0  0  0  0  0  0  0  0
   11.1913  -17.1642   25.4704 C   0  0  0  0  0  0  0  0  0  0  0  0
   11.4731  -16.6896   26.8798 C   0  0  1  0  0  0  0  0  0  0  0  0
   12.6851  -15.8256   26.9313 C   0  0  0  0  0  0  0  0  0  0  0  0
   10.2464  -16.0376   27.4742 C   0  0  2  0  0  0  0  0  0  0  0  0
    9.7732  -14.9316   26.7108 N   0  0  0  0  0  0  0  0  0  0  0  0
   10.4894  -15.6565   28.8772 C   0  0  0  0  0  0  0  0  0  0  0  0
   10.4087  -14.3295   29.2407 O   0  0  0  0  0  0  0  0  0  0  0  0
   10.7661  -16.5208   29.7336 O   0  0  0  0  0  0  0  0  0  0  0  0
  2  1  1  6
  2  3  1  0
  4  2  1  0
  4  5  1  6
  6  4  1  0
  6  7  2  0
  9  8  1  6
  9 11  1  0
 10  9  1  0
 11 13  1  0
 11 12  1  6
 12  6  1  0
 13 19  1  0
 14 13  2  0
 16 17  1  6
 16 15  1  0
 16 18  1  0
 18 20  1  0
 18 19  1  6
 20 22  2  0
 20 21  1  0
M  END
$$$$
