VVV.pdb
     RDKit          3D

 22 21  0  0  1  0  0  0  0  0999 V2000
    8.5546  -17.7018   22.2424 C   0  0  0  0  0  0  0  0  0  0  0  0
    7.3207  -16.9142   21.9501 C   0  0  2  0  0  0  0  0  0  0  0  0
    6.7599  -17.3791   20.6224 C   0  0  0  0  0  0  0  0  0  0  0  0
    7.5588  -15.4332   21.8484 C   0  0  2  0  0  0  0  0  0  0  0  0
    8.4745  -15.1397   20.7807 N   0  0  0  0  0  0  0  0  0  0  0  0
    8.0943  -14.8487   23.0996 C   0  0  0  0  0  0  0  0  0  0  0  0
    9.3202  -14.6652   23.2459 O   0  0  0  0  0  0  0  0  0  0  0  0
    6.0605  -12.0514   25.3328 C   0  0  0  0  0  0  0  0  0  0  0  0
    6.6237  -13.1912   26.1180 C   0  0  2  0  0  0  0  0  0  0  0  0
    7.1840  -12.6697   27.4403 C   0  0  0  0  0  0  0  0  0  0  0  0
    7.7760  -13.8778   25.4137 C   0  0  2  0  0  0  0  0  0  0  0  0
    7.2534  -14.4686   24.1903 N   0  0  0  0  0  0  0  0  0  0  0  0
    8.3897  -14.9248   26.2873 C   0  0  0  0  0  0  0  0  0  0  0  0
    7.6581  -15.9101   26.6362 O   0  0  0  0  0  0  0  0  0  0  0  0
   11.7541  -16.6572   25.5435 C   0  0  0  0  0  0  0  0  0  0  0  0
   11.7350  -16.2367   26.9974 C   0  0  1  0  0  0  0  0  0  0  0  0
   12.6932  -15.1262   27.2557 C   0  0  0  0  0  0  0  0  0  0  0  0
   10.3241  -15.9264   27.4405 C   0  0  2  0  0  0  0  0  0  0  0  0
    9.7361  -14.8444   26.7239 N   0  0  0  0  0  0  0  0  0  0  0  0
   10.2759  -15.6956   28.8955 C   0  0  0  0  0  0  0  0  0  0  0  0
    9.8967  -14.4589   29.3713 O   0  0  0  0  0  0  0  0  0  0  0  0
   10.5740  -16.6057   29.6954 O   0  0  0  0  0  0  0  0  0  0  0  0
  2  1  1  6
  2  3  1  0
  4  2  1  0
  4  5  1  6
  6  4  1  0
  6  7  2  0
  9  8  1  6
  9 11  1  0
 10  9  1  0
 11 13  1  0
 11 12  1  6
 12  6  1  0
 13 19  1  0
 14 13  2  0
 16 17  1  6
 16 15  1  0
 16 18  1  0
 18 20  1  0
 18 19  1  6
 20 22  2  0
 20 21  1  0
M  END
$$$$
