VVV.pdb
     RDKit          3D

 22 21  0  0  1  0  0  0  0  0999 V2000
    7.9667  -17.1088   21.4005 C   0  0  0  0  0  0  0  0  0  0  0  0
    6.7938  -16.1874   21.3426 C   0  0  2  0  0  0  0  0  0  0  0  0
    6.0628  -16.4250   20.0377 C   0  0  0  0  0  0  0  0  0  0  0  0
    7.1654  -14.7315   21.3958 C   0  0  2  0  0  0  0  0  0  0  0  0
    8.0036  -14.3819   20.2823 N   0  0  0  0  0  0  0  0  0  0  0  0
    7.8681  -14.3618   22.6462 C   0  0  0  0  0  0  0  0  0  0  0  0
    9.1145  -14.3097   22.6875 O   0  0  0  0  0  0  0  0  0  0  0  0
    6.5038  -11.7599   25.4878 C   0  0  0  0  0  0  0  0  0  0  0  0
    6.9073  -13.0908   26.0347 C   0  0  2  0  0  0  0  0  0  0  0  0
    7.6535  -12.8934   27.3532 C   0  0  0  0  0  0  0  0  0  0  0  0
    7.8568  -13.8384   25.1210 C   0  0  2  0  0  0  0  0  0  0  0  0
    7.1719  -14.0494   23.8541 N   0  0  0  0  0  0  0  0  0  0  0  0
    8.2652  -15.1434   25.7260 C   0  0  0  0  0  0  0  0  0  0  0  0
    7.3422  -15.9640   26.0460 O   0  0  0  0  0  0  0  0  0  0  0  0
   10.8295  -17.6748   24.3599 C   0  0  0  0  0  0  0  0  0  0  0  0
   11.1535  -17.3892   25.8106 C   0  0  1  0  0  0  0  0  0  0  0  0
   12.4155  -16.6097   25.9435 C   0  0  0  0  0  0  0  0  0  0  0  0
    9.9741  -16.7425   26.4993 C   0  0  2  0  0  0  0  0  0  0  0  0
    9.6256  -15.4770   25.9451 N   0  0  0  0  0  0  0  0  0  0  0  0
   10.2096  -16.6462   27.9511 C   0  0  0  0  0  0  0  0  0  0  0  0
   10.3870  -17.7993   28.6848 O   0  0  0  0  0  0  0  0  0  0  0  0
   10.2494  -15.5353   28.5180 O   0  0  0  0  0  0  0  0  0  0  0  0
  2  1  1  6
  2  3  1  0
  4  2  1  0
  4  5  1  6
  6  4  1  0
  6  7  2  0
  9  8  1  6
  9 11  1  0
 10  9  1  0
 11 13  1  0
 11 12  1  6
 12  6  1  0
 13 19  1  0
 14 13  2  0
 16 17  1  6
 16 15  1  0
 16 18  1  0
 18 20  1  0
 18 19  1  6
 20 22  2  0
 20 21  1  0
M  END
$$$$
