LHR.pdb
     RDKit          3D

 30 30  0  0  1  0  0  0  0  0999 V2000
    8.8312  -13.2301   17.3295 C   0  0  0  0  0  0  0  0  0  0  0  0
    9.2516  -13.0887   18.7820 C   0  0  1  0  0  0  0  0  0  0  0  0
    7.9785  -13.0418   19.6154 C   0  0  0  0  0  0  0  0  0  0  0  0
   10.0802  -14.2708   19.1688 C   0  0  0  0  0  0  0  0  0  0  0  0
   10.3049  -14.3870   20.6685 C   0  0  2  0  0  0  0  0  0  0  0  0
   11.2154  -13.2734   20.9947 N   0  0  0  0  0  0  0  0  0  0  0  0
   10.9899  -15.6630   20.9886 C   0  0  0  0  0  0  0  0  0  0  0  0
   12.2505  -15.6545   21.1321 O   0  0  0  0  0  0  0  0  0  0  0  0
   10.2391  -16.8899   21.1342 N   0  0  0  0  0  0  0  0  0  0  0  0
   10.9541  -18.0914   21.3908 C   0  0  1  0  0  0  0  0  0  0  0  0
   10.0306  -19.2514   21.5546 C   0  0  0  0  0  0  0  0  0  0  0  0
   10.6975  -20.5258   21.8471 C   0  0  0  0  0  0  0  0  0  0  0  0
   12.0043  -20.8880   22.0107 C   0  0  0  0  0  0  0  0  0  0  0  0
   12.1193  -22.2178   22.3027 N   0  0  0  0  0  0  0  0  0  0  0  0
   10.8769  -22.6853   22.3215 C   0  0  0  0  0  0  0  0  0  0  0  0
   10.0087  -21.7047   22.0545 N   0  0  0  0  0  0  0  0  0  0  0  0
   11.9882  -18.4188   20.3709 C   0  0  0  0  0  0  0  0  0  0  0  0
   11.6562  -18.4452   19.1552 O   0  0  0  0  0  0  0  0  0  0  0  0
   15.6817  -12.9570   18.7190 N   0  0  0  0  0  0  0  0  0  0  0  0
   15.8925  -13.6951   17.5202 C   0  0  0  0  0  0  0  0  0  0  0  0
   16.0989  -13.0678   16.4370 N   0  0  0  0  0  0  0  0  0  0  0  0
   15.8779  -15.1243   17.5021 N   0  0  0  0  0  0  0  0  0  0  0  0
   15.6897  -15.8659   18.7270 C   0  0  0  0  0  0  0  0  0  0  0  0
   15.7569  -17.3396   18.5458 C   0  0  0  0  0  0  0  0  0  0  0  0
   15.5187  -18.1984   19.7411 C   0  0  0  0  0  0  0  0  0  0  0  0
   14.3377  -19.1005   19.6965 C   0  0  2  0  0  0  0  0  0  0  0  0
   13.3371  -18.7065   20.6922 N   0  0  0  0  0  0  0  0  0  0  0  0
   14.5844  -20.5362   19.7258 C   0  0  0  0  0  0  0  0  0  0  0  0
   15.7607  -20.9322   20.0514 O   0  0  0  0  0  0  0  0  0  0  0  0
   13.6954  -21.5485   19.4451 O   0  0  0  0  0  0  0  0  0  0  0  0
  2  1  1  6
  2  3  1  0
  4  2  1  0
  5  4  1  0
  5  6  1  6
  7  8  2  0
  7  5  1  0
  9  7  1  0
 10  9  1  0
 11 12  1  0
 10 11  1  6
 12 16  1  0
 13 12  2  0
 13 14  1  0
 14 15  1  0
 16 15  2  0
 17 10  1  0
 18 17  2  0
 19 20  1  0
 20 22  1  0
 21 20  2  0
 22 23  1  0
 23 24  1  0
 24 25  1  0
 26 25  1  1
 26 28  1  0
 26 27  1  0
 27 17  1  0
 28 30  1  0
 29 28  2  0
M  END
$$$$
