LHR.pdb
     RDKit          3D

 30 30  0  0  1  0  0  0  0  0999 V2000
    7.5650  -12.2778   20.8021 C   0  0  0  0  0  0  0  0  0  0  0  0
    7.8681  -12.9489   19.4738 C   0  0  1  0  0  0  0  0  0  0  0  0
    8.2739  -11.8523   18.4990 C   0  0  0  0  0  0  0  0  0  0  0  0
    8.9911  -13.9174   19.6600 C   0  0  0  0  0  0  0  0  0  0  0  0
    9.4070  -14.6153   18.3742 C   0  0  2  0  0  0  0  0  0  0  0  0
    8.2247  -15.4050   17.9815 N   0  0  0  0  0  0  0  0  0  0  0  0
   10.5295  -15.5488   18.6358 C   0  0  0  0  0  0  0  0  0  0  0  0
   10.2904  -16.6215   19.2696 O   0  0  0  0  0  0  0  0  0  0  0  0
   11.8670  -15.2444   18.1789 N   0  0  0  0  0  0  0  0  0  0  0  0
   12.9137  -16.1483   18.5077 C   0  0  1  0  0  0  0  0  0  0  0  0
   14.1418  -15.8757   17.7058 C   0  0  0  0  0  0  0  0  0  0  0  0
   15.1568  -16.9342   17.7654 C   0  0  0  0  0  0  0  0  0  0  0  0
   15.1019  -18.2783   18.0023 C   0  0  0  0  0  0  0  0  0  0  0  0
   16.3407  -18.8488   17.9226 N   0  0  0  0  0  0  0  0  0  0  0  0
   17.1712  -17.8541   17.6338 C   0  0  0  0  0  0  0  0  0  0  0  0
   16.4986  -16.7032   17.5337 N   0  0  0  0  0  0  0  0  0  0  0  0
   13.2618  -16.1824   19.9549 C   0  0  0  0  0  0  0  0  0  0  0  0
   13.3957  -15.0925   20.5739 O   0  0  0  0  0  0  0  0  0  0  0  0
   13.4449  -22.6109   24.1486 N   0  0  0  0  0  0  0  0  0  0  0  0
   13.7590  -22.0077   25.3991 C   0  0  0  0  0  0  0  0  0  0  0  0
   14.4102  -22.6742   26.2600 N   0  0  0  0  0  0  0  0  0  0  0  0
   13.3610  -20.6712   25.7129 N   0  0  0  0  0  0  0  0  0  0  0  0
   12.4698  -19.9516   24.8332 C   0  0  0  0  0  0  0  0  0  0  0  0
   13.0864  -18.7473   24.2180 C   0  0  0  0  0  0  0  0  0  0  0  0
   12.9411  -18.5676   22.7450 C   0  0  0  0  0  0  0  0  0  0  0  0
   13.6634  -17.4213   22.1329 C   0  0  2  0  0  0  0  0  0  0  0  0
   13.4544  -17.3818   20.6828 N   0  0  0  0  0  0  0  0  0  0  0  0
   15.0693  -17.2500   22.4750 C   0  0  0  0  0  0  0  0  0  0  0  0
   15.9336  -17.9057   21.7898 O   0  0  0  0  0  0  0  0  0  0  0  0
   15.6040  -16.4531   23.4614 O   0  0  0  0  0  0  0  0  0  0  0  0
  2  1  1  1
  2  3  1  0
  4  2  1  0
  5  4  1  0
  5  6  1  1
  7  8  2  0
  7  5  1  0
  9  7  1  0
 10  9  1  0
 11 12  1  0
 10 11  1  6
 12 16  1  0
 13 12  2  0
 13 14  1  0
 14 15  1  0
 16 15  2  0
 17 10  1  0
 18 17  2  0
 19 20  1  0
 20 22  1  0
 21 20  2  0
 22 23  1  0
 23 24  1  0
 24 25  1  0
 26 25  1  6
 26 28  1  0
 26 27  1  0
 27 17  1  0
 28 30  1  0
 29 28  2  0
M  END
$$$$
