LHR.pdb
     RDKit          3D

 30 30  0  0  1  0  0  0  0  0999 V2000
    6.5401  -13.1530   18.6910 C   0  0  0  0  0  0  0  0  0  0  0  0
    8.0529  -13.2759   18.7449 C   0  0  1  0  0  0  0  0  0  0  0  0
    8.5914  -11.9595   19.2878 C   0  0  0  0  0  0  0  0  0  0  0  0
    8.4201  -14.4011   19.6576 C   0  0  0  0  0  0  0  0  0  0  0  0
    9.9061  -14.4605   19.9764 C   0  0  2  0  0  0  0  0  0  0  0  0
   10.5570  -14.6830   18.6717 N   0  0  0  0  0  0  0  0  0  0  0  0
   10.1982  -15.6221   20.8512 C   0  0  0  0  0  0  0  0  0  0  0  0
    9.3783  -15.9046   21.7773 O   0  0  0  0  0  0  0  0  0  0  0  0
   11.3904  -16.4159   20.6540 N   0  0  0  0  0  0  0  0  0  0  0  0
   11.5914  -17.5491   21.4884 C   0  0  1  0  0  0  0  0  0  0  0  0
   12.8638  -18.2530   21.1551 C   0  0  0  0  0  0  0  0  0  0  0  0
   13.0616  -19.5236   21.8626 C   0  0  0  0  0  0  0  0  0  0  0  0
   12.3808  -20.7077   21.8784 C   0  0  0  0  0  0  0  0  0  0  0  0
   12.9875  -21.6198   22.6949 N   0  0  0  0  0  0  0  0  0  0  0  0
   14.0523  -20.9999   23.1894 C   0  0  0  0  0  0  0  0  0  0  0  0
   14.1245  -19.7526   22.7142 N   0  0  0  0  0  0  0  0  0  0  0  0
   11.5552  -17.2505   22.9466 C   0  0  0  0  0  0  0  0  0  0  0  0
   12.3576  -16.3974   23.4126 O   0  0  0  0  0  0  0  0  0  0  0  0
    6.2383  -18.9309   23.2366 N   0  0  0  0  0  0  0  0  0  0  0  0
    6.0818  -19.2698   24.6102 C   0  0  0  0  0  0  0  0  0  0  0  0
    5.6861  -20.4353   24.9175 N   0  0  0  0  0  0  0  0  0  0  0  0
    6.3578  -18.3333   25.6542 N   0  0  0  0  0  0  0  0  0  0  0  0
    6.7659  -16.9855   25.3339 C   0  0  0  0  0  0  0  0  0  0  0  0
    8.1926  -16.8763   24.9316 C   0  0  0  0  0  0  0  0  0  0  0  0
    9.2078  -17.5689   25.7757 C   0  0  0  0  0  0  0  0  0  0  0  0
   10.6096  -17.5658   25.2802 C   0  0  2  0  0  0  0  0  0  0  0  0
   10.6623  -17.8778   23.8492 N   0  0  0  0  0  0  0  0  0  0  0  0
   11.5920  -18.3360   26.0317 C   0  0  0  0  0  0  0  0  0  0  0  0
   11.6589  -19.5975   25.8066 O   0  0  0  0  0  0  0  0  0  0  0  0
   12.4823  -17.8731   26.9735 O   0  0  0  0  0  0  0  0  0  0  0  0
  2  1  1  1
  2  3  1  0
  4  2  1  0
  5  4  1  0
  5  6  1  6
  7  8  2  0
  7  5  1  0
  9  7  1  0
 10  9  1  0
 11 12  1  0
 10 11  1  6
 12 16  1  0
 13 12  2  0
 13 14  1  0
 14 15  1  0
 16 15  2  0
 17 10  1  0
 18 17  2  0
 19 20  1  0
 20 22  1  0
 21 20  2  0
 22 23  1  0
 23 24  1  0
 24 25  1  0
 26 25  1  1
 26 28  1  0
 26 27  1  0
 27 17  1  0
 28 30  1  0
 29 28  2  0
M  END
$$$$
