LHR.pdb
     RDKit          3D

 30 30  0  0  1  0  0  0  0  0999 V2000
    7.0233  -14.6662   18.7753 C   0  0  0  0  0  0  0  0  0  0  0  0
    8.1550  -14.2337   19.6911 C   0  0  1  0  0  0  0  0  0  0  0  0
    7.6416  -13.0623   20.5169 C   0  0  0  0  0  0  0  0  0  0  0  0
    8.5247  -15.3738   20.5839 C   0  0  0  0  0  0  0  0  0  0  0  0
    9.5362  -14.9987   21.6560 C   0  0  2  0  0  0  0  0  0  0  0  0
   10.4084  -13.9999   21.0101 N   0  0  0  0  0  0  0  0  0  0  0  0
   10.3606  -16.1768   22.0199 C   0  0  0  0  0  0  0  0  0  0  0  0
    9.7755  -17.2132   22.4596 O   0  0  0  0  0  0  0  0  0  0  0  0
   11.7990  -16.1462   21.8772 N   0  0  0  0  0  0  0  0  0  0  0  0
   12.5323  -17.3238   22.1874 C   0  0  1  0  0  0  0  0  0  0  0  0
   13.6094  -17.5751   21.1864 C   0  0  0  0  0  0  0  0  0  0  0  0
   13.1541  -18.2200   19.9490 C   0  0  0  0  0  0  0  0  0  0  0  0
   11.9660  -18.7671   19.5552 C   0  0  0  0  0  0  0  0  0  0  0  0
   12.0318  -19.2283   18.2709 N   0  0  0  0  0  0  0  0  0  0  0  0
   13.2677  -18.9661   17.8630 C   0  0  0  0  0  0  0  0  0  0  0  0
   13.9599  -18.3671   18.8371 N   0  0  0  0  0  0  0  0  0  0  0  0
   13.1132  -17.3406   23.5582 C   0  0  0  0  0  0  0  0  0  0  0  0
   13.7677  -16.3384   23.9535 O   0  0  0  0  0  0  0  0  0  0  0  0
   11.6870  -20.5705   31.1984 N   0  0  0  0  0  0  0  0  0  0  0  0
   13.0995  -20.7451   31.2219 C   0  0  0  0  0  0  0  0  0  0  0  0
   13.7175  -20.6312   32.3241 N   0  0  0  0  0  0  0  0  0  0  0  0
   13.8422  -21.0449   30.0381 N   0  0  0  0  0  0  0  0  0  0  0  0
   13.2135  -20.9518   28.7412 C   0  0  0  0  0  0  0  0  0  0  0  0
   13.7151  -19.8209   27.9175 C   0  0  0  0  0  0  0  0  0  0  0  0
   13.1420  -19.6479   26.5519 C   0  0  0  0  0  0  0  0  0  0  0  0
   13.6447  -18.4999   25.7521 C   0  0  2  0  0  0  0  0  0  0  0  0
   12.9720  -18.4300   24.4519 N   0  0  0  0  0  0  0  0  0  0  0  0
   15.0880  -18.3538   25.6156 C   0  0  0  0  0  0  0  0  0  0  0  0
   15.7025  -17.6554   26.4995 O   0  0  0  0  0  0  0  0  0  0  0  0
   15.8986  -18.8839   24.6379 O   0  0  0  0  0  0  0  0  0  0  0  0
  2  1  1  6
  2  3  1  0
  4  2  1  0
  5  4  1  0
  5  6  1  6
  7  8  2  0
  7  5  1  0
  9  7  1  0
 10  9  1  0
 11 12  1  0
 10 11  1  6
 12 16  1  0
 13 12  2  0
 13 14  1  0
 14 15  1  0
 16 15  2  0
 17 10  1  0
 18 17  2  0
 19 20  1  0
 20 22  1  0
 21 20  2  0
 22 23  1  0
 23 24  1  0
 24 25  1  0
 26 25  1  6
 26 28  1  0
 26 27  1  0
 27 17  1  0
 28 30  1  0
 29 28  2  0
M  END
$$$$
