LHR.pdb
     RDKit          3D

 30 30  0  0  1  0  0  0  0  0999 V2000
    7.0082  -12.2060   19.4412 C   0  0  0  0  0  0  0  0  0  0  0  0
    7.7574  -13.4581   19.0197 C   0  0  1  0  0  0  0  0  0  0  0  0
    7.5116  -13.6481   17.5294 C   0  0  0  0  0  0  0  0  0  0  0  0
    9.2161  -13.2676   19.2836 C   0  0  0  0  0  0  0  0  0  0  0  0
   10.0300  -14.5431   19.1295 C   0  0  2  0  0  0  0  0  0  0  0  0
    9.0270  -15.5954   18.8799 N   0  0  0  0  0  0  0  0  0  0  0  0
   10.7364  -14.8583   20.3950 C   0  0  0  0  0  0  0  0  0  0  0  0
   11.6276  -14.0551   20.8077 O   0  0  0  0  0  0  0  0  0  0  0  0
   10.4174  -16.0539   21.1428 N   0  0  0  0  0  0  0  0  0  0  0  0
   11.1643  -16.3322   22.3198 C   0  0  1  0  0  0  0  0  0  0  0  0
   10.4641  -17.3222   23.1887 C   0  0  0  0  0  0  0  0  0  0  0  0
   11.1649  -17.6403   24.4385 C   0  0  0  0  0  0  0  0  0  0  0  0
   11.3560  -16.9624   25.6089 C   0  0  0  0  0  0  0  0  0  0  0  0
   12.0708  -17.7069   26.5042 N   0  0  0  0  0  0  0  0  0  0  0  0
   12.3253  -18.8547   25.8876 C   0  0  0  0  0  0  0  0  0  0  0  0
   11.8004  -18.8466   24.6583 N   0  0  0  0  0  0  0  0  0  0  0  0
   12.5583  -16.7901   22.0670 C   0  0  0  0  0  0  0  0  0  0  0  0
   12.7400  -17.8582   21.4228 O   0  0  0  0  0  0  0  0  0  0  0  0
   17.6046  -14.7415   17.8606 N   0  0  0  0  0  0  0  0  0  0  0  0
   16.5298  -13.8088   17.8269 C   0  0  0  0  0  0  0  0  0  0  0  0
   16.6771  -12.7196   17.1933 N   0  0  0  0  0  0  0  0  0  0  0  0
   15.2884  -14.0645   18.4875 N   0  0  0  0  0  0  0  0  0  0  0  0
   15.2448  -14.2115   19.9236 C   0  0  0  0  0  0  0  0  0  0  0  0
   15.9686  -15.4107   20.4205 C   0  0  0  0  0  0  0  0  0  0  0  0
   16.0125  -15.6352   21.8938 C   0  0  0  0  0  0  0  0  0  0  0  0
   15.0619  -16.6336   22.4506 C   0  0  2  0  0  0  0  0  0  0  0  0
   13.7034  -16.0874   22.5149 N   0  0  0  0  0  0  0  0  0  0  0  0
   15.4312  -17.2955   23.6950 C   0  0  0  0  0  0  0  0  0  0  0  0
   16.3091  -18.2294   23.6353 O   0  0  0  0  0  0  0  0  0  0  0  0
   14.9503  -17.0399   24.9588 O   0  0  0  0  0  0  0  0  0  0  0  0
  2  1  1  6
  2  3  1  0
  4  2  1  0
  5  4  1  0
  5  6  1  1
  7  8  2  0
  7  5  1  0
  9  7  1  0
 10  9  1  0
 11 12  1  0
 10 11  1  6
 12 16  1  0
 13 12  2  0
 13 14  1  0
 14 15  1  0
 16 15  2  0
 17 10  1  0
 18 17  2  0
 19 20  1  0
 20 22  1  0
 21 20  2  0
 22 23  1  0
 23 24  1  0
 24 25  1  0
 26 25  1  1
 26 28  1  0
 26 27  1  0
 27 17  1  0
 28 30  1  0
 29 28  2  0
M  END
$$$$
