LHR.pdb
     RDKit          3D

 30 30  0  0  1  0  0  0  0  0999 V2000
    7.1704  -12.0402   27.9162 C   0  0  0  0  0  0  0  0  0  0  0  0
    6.3811  -12.7574   26.8349 C   0  0  1  0  0  0  0  0  0  0  0  0
    5.7351  -11.6872   25.9659 C   0  0  0  0  0  0  0  0  0  0  0  0
    7.3151  -13.5919   26.0195 C   0  0  0  0  0  0  0  0  0  0  0  0
    6.6276  -14.3352   24.8846 C   0  0  2  0  0  0  0  0  0  0  0  0
    5.7955  -15.3508   25.5565 N   0  0  0  0  0  0  0  0  0  0  0  0
    7.6313  -15.0318   24.0436 C   0  0  0  0  0  0  0  0  0  0  0  0
    7.9227  -16.2353   24.3198 O   0  0  0  0  0  0  0  0  0  0  0  0
    8.2642  -14.3556   22.9334 N   0  0  0  0  0  0  0  0  0  0  0  0
    9.2809  -15.0432   22.2164 C   0  0  1  0  0  0  0  0  0  0  0  0
    9.6862  -14.2943   20.9916 C   0  0  0  0  0  0  0  0  0  0  0  0
    8.6662  -14.2514   19.9371 C   0  0  0  0  0  0  0  0  0  0  0  0
    7.4318  -14.8196   19.7984 C   0  0  0  0  0  0  0  0  0  0  0  0
    6.8431  -14.4501   18.6221 N   0  0  0  0  0  0  0  0  0  0  0  0
    7.7159  -13.6468   18.0259 C   0  0  0  0  0  0  0  0  0  0  0  0
    8.8097  -13.5085   18.7818 N   0  0  0  0  0  0  0  0  0  0  0  0
   10.4889  -15.3665   23.0245 C   0  0  0  0  0  0  0  0  0  0  0  0
   10.7625  -14.6478   24.0233 O   0  0  0  0  0  0  0  0  0  0  0  0
    8.9457  -21.5977   27.8747 N   0  0  0  0  0  0  0  0  0  0  0  0
   10.3175  -21.3042   28.1158 C   0  0  0  0  0  0  0  0  0  0  0  0
   11.0607  -22.1992   28.6220 N   0  0  0  0  0  0  0  0  0  0  0  0
   10.8820  -20.0286   27.8039 N   0  0  0  0  0  0  0  0  0  0  0  0
   10.3329  -19.2322   26.7316 C   0  0  0  0  0  0  0  0  0  0  0  0
   11.3614  -18.6985   25.8008 C   0  0  0  0  0  0  0  0  0  0  0  0
   10.9040  -17.8080   24.6959 C   0  0  0  0  0  0  0  0  0  0  0  0
   11.9449  -17.3113   23.7577 C   0  0  2  0  0  0  0  0  0  0  0  0
   11.3578  -16.4457   22.7311 N   0  0  0  0  0  0  0  0  0  0  0  0
   12.8511  -18.2923   23.1752 C   0  0  0  0  0  0  0  0  0  0  0  0
   12.4634  -18.9078   22.1182 O   0  0  0  0  0  0  0  0  0  0  0  0
   14.1023  -18.6513   23.6219 O   0  0  0  0  0  0  0  0  0  0  0  0
  2  1  1  1
  2  3  1  0
  4  2  1  0
  5  4  1  0
  5  6  1  1
  7  8  2  0
  7  5  1  0
  9  7  1  0
 10  9  1  0
 11 12  1  0
 10 11  1  6
 12 16  1  0
 13 12  2  0
 13 14  1  0
 14 15  1  0
 16 15  2  0
 17 10  1  0
 18 17  2  0
 19 20  1  0
 20 22  1  0
 21 20  2  0
 22 23  1  0
 23 24  1  0
 24 25  1  0
 26 25  1  6
 26 28  1  0
 26 27  1  0
 27 17  1  0
 28 30  1  0
 29 28  2  0
M  END
$$$$
