LHR.pdb
     RDKit          3D

 30 30  0  0  1  0  0  0  0  0999 V2000
    6.8133  -12.6835   18.4866 C   0  0  0  0  0  0  0  0  0  0  0  0
    8.2512  -13.1722   18.4702 C   0  0  1  0  0  0  0  0  0  0  0  0
    9.1391  -11.9639   18.7336 C   0  0  0  0  0  0  0  0  0  0  0  0
    8.4334  -14.1929   19.5465 C   0  0  0  0  0  0  0  0  0  0  0  0
    9.8899  -14.5479   19.8028 C   0  0  2  0  0  0  0  0  0  0  0  0
   10.4205  -14.9178   18.4773 N   0  0  0  0  0  0  0  0  0  0  0  0
    9.9820  -15.7311   20.6925 C   0  0  0  0  0  0  0  0  0  0  0  0
    9.3623  -15.7067   21.7992 O   0  0  0  0  0  0  0  0  0  0  0  0
   10.7602  -16.8874   20.3081 N   0  0  0  0  0  0  0  0  0  0  0  0
   10.8604  -17.9680   21.2261 C   0  0  1  0  0  0  0  0  0  0  0  0
   11.3852  -19.1982   20.5653 C   0  0  0  0  0  0  0  0  0  0  0  0
   10.4420  -19.8471   19.6469 C   0  0  0  0  0  0  0  0  0  0  0  0
    9.2195  -20.4333   19.8129 C   0  0  0  0  0  0  0  0  0  0  0  0
    8.7158  -20.8793   18.6237 N   0  0  0  0  0  0  0  0  0  0  0  0
    9.6298  -20.5681   17.7126 C   0  0  0  0  0  0  0  0  0  0  0  0
   10.6679  -19.9538   18.2886 N   0  0  0  0  0  0  0  0  0  0  0  0
   11.6722  -17.6692   22.4380 C   0  0  0  0  0  0  0  0  0  0  0  0
   12.8069  -17.1395   22.2943 O   0  0  0  0  0  0  0  0  0  0  0  0
    9.6186  -16.3877   30.4026 N   0  0  0  0  0  0  0  0  0  0  0  0
   10.3466  -15.1737   30.2536 C   0  0  0  0  0  0  0  0  0  0  0  0
   10.7792  -14.5820   31.2891 N   0  0  0  0  0  0  0  0  0  0  0  0
   10.6043  -14.6015   28.9693 N   0  0  0  0  0  0  0  0  0  0  0  0
   10.0991  -15.2369   27.7748 C   0  0  0  0  0  0  0  0  0  0  0  0
   11.1543  -15.8922   26.9586 C   0  0  0  0  0  0  0  0  0  0  0  0
   10.7351  -16.5830   25.7055 C   0  0  0  0  0  0  0  0  0  0  0  0
   11.7938  -17.2983   24.9454 C   0  0  2  0  0  0  0  0  0  0  0  0
   11.2381  -17.9504   23.7564 N   0  0  0  0  0  0  0  0  0  0  0  0
   12.6672  -18.1970   25.6889 C   0  0  0  0  0  0  0  0  0  0  0  0
   13.3849  -17.6914   26.6247 O   0  0  0  0  0  0  0  0  0  0  0  0
   12.8237  -19.5531   25.5146 O   0  0  0  0  0  0  0  0  0  0  0  0
  2  1  1  1
  2  3  1  0
  4  2  1  0
  5  4  1  0
  5  6  1  6
  7  8  2  0
  7  5  1  0
  9  7  1  0
 10  9  1  0
 11 12  1  0
 10 11  1  6
 12 16  1  0
 13 12  2  0
 13 14  1  0
 14 15  1  0
 16 15  2  0
 17 10  1  0
 18 17  2  0
 19 20  1  0
 20 22  1  0
 21 20  2  0
 22 23  1  0
 23 24  1  0
 24 25  1  0
 26 25  1  1
 26 28  1  0
 26 27  1  0
 27 17  1  0
 28 30  1  0
 29 28  2  0
M  END
$$$$
