LHR.pdb
     RDKit          3D

 30 30  0  0  1  0  0  0  0  0999 V2000
    6.9995  -12.7108   19.1499 C   0  0  0  0  0  0  0  0  0  0  0  0
    8.5096  -12.8728   19.1411 C   0  0  1  0  0  0  0  0  0  0  0  0
    9.0881  -11.7352   19.9709 C   0  0  0  0  0  0  0  0  0  0  0  0
    8.8638  -14.1905   19.7509 C   0  0  0  0  0  0  0  0  0  0  0  0
   10.2876  -14.2473   20.2827 C   0  0  2  0  0  0  0  0  0  0  0  0
   11.1362  -14.0429   19.0938 N   0  0  0  0  0  0  0  0  0  0  0  0
   10.5753  -15.5916   20.8396 C   0  0  0  0  0  0  0  0  0  0  0  0
    9.7929  -16.0627   21.7201 O   0  0  0  0  0  0  0  0  0  0  0  0
   11.7215  -16.3493   20.3897 N   0  0  0  0  0  0  0  0  0  0  0  0
   11.8898  -17.6725   20.8809 C   0  0  1  0  0  0  0  0  0  0  0  0
   12.6622  -18.5158   19.9229 C   0  0  0  0  0  0  0  0  0  0  0  0
   11.9423  -18.8530   18.6891 C   0  0  0  0  0  0  0  0  0  0  0  0
   11.9350  -18.3245   17.4295 C   0  0  0  0  0  0  0  0  0  0  0  0
   11.0989  -19.0201   16.6027 N   0  0  0  0  0  0  0  0  0  0  0  0
   10.5835  -19.9873   17.3519 C   0  0  0  0  0  0  0  0  0  0  0  0
   11.0646  -19.9153   18.5969 N   0  0  0  0  0  0  0  0  0  0  0  0
   12.5161  -17.7506   22.2294 C   0  0  0  0  0  0  0  0  0  0  0  0
   13.5308  -17.0426   22.4705 O   0  0  0  0  0  0  0  0  0  0  0  0
   12.0705  -22.5967   28.8198 N   0  0  0  0  0  0  0  0  0  0  0  0
   12.2580  -21.4777   29.6793 C   0  0  0  0  0  0  0  0  0  0  0  0
   12.7658  -21.6593   30.8277 N   0  0  0  0  0  0  0  0  0  0  0  0
   11.8899  -20.1539   29.2852 N   0  0  0  0  0  0  0  0  0  0  0  0
   11.2709  -19.9224   28.0011 C   0  0  0  0  0  0  0  0  0  0  0  0
   12.1879  -19.3178   26.9997 C   0  0  0  0  0  0  0  0  0  0  0  0
   11.6783  -19.1377   25.6101 C   0  0  0  0  0  0  0  0  0  0  0  0
   12.6539  -18.6674   24.5916 C   0  0  2  0  0  0  0  0  0  0  0  0
   12.0326  -18.5845   23.2669 N   0  0  0  0  0  0  0  0  0  0  0  0
   13.9458  -19.3390   24.5349 C   0  0  0  0  0  0  0  0  0  0  0  0
   14.0505  -20.3661   23.7730 O   0  0  0  0  0  0  0  0  0  0  0  0
   15.0985  -19.0038   25.2078 O   0  0  0  0  0  0  0  0  0  0  0  0
  2  1  1  1
  2  3  1  0
  4  2  1  0
  5  4  1  0
  5  6  1  6
  7  8  2  0
  7  5  1  0
  9  7  1  0
 10  9  1  0
 11 12  1  0
 10 11  1  6
 12 16  1  0
 13 12  2  0
 13 14  1  0
 14 15  1  0
 16 15  2  0
 17 10  1  0
 18 17  2  0
 19 20  1  0
 20 22  1  0
 21 20  2  0
 22 23  1  0
 23 24  1  0
 24 25  1  0
 26 25  1  1
 26 28  1  0
 26 27  1  0
 27 17  1  0
 28 30  1  0
 29 28  2  0
M  END
$$$$
