LHR.pdb
     RDKit          3D

 30 30  0  0  1  0  0  0  0  0999 V2000
    9.3523  -12.2335   18.2457 C   0  0  0  0  0  0  0  0  0  0  0  0
    8.1577  -12.4669   19.1541 C   0  0  1  0  0  0  0  0  0  0  0  0
    6.9066  -12.2112   18.3253 C   0  0  0  0  0  0  0  0  0  0  0  0
    8.1790  -13.8813   19.6365 C   0  0  0  0  0  0  0  0  0  0  0  0
    9.2318  -14.1405   20.7031 C   0  0  2  0  0  0  0  0  0  0  0  0
   10.5185  -13.9339   20.0123 N   0  0  0  0  0  0  0  0  0  0  0  0
    9.1649  -15.5501   21.1598 C   0  0  0  0  0  0  0  0  0  0  0  0
    8.0630  -15.9895   21.6097 O   0  0  0  0  0  0  0  0  0  0  0  0
   10.3287  -16.4054   21.0941 N   0  0  0  0  0  0  0  0  0  0  0  0
   10.2227  -17.7281   21.6039 C   0  0  1  0  0  0  0  0  0  0  0  0
   11.2612  -18.6238   21.0167 C   0  0  0  0  0  0  0  0  0  0  0  0
   11.0170  -19.0082   19.6213 C   0  0  0  0  0  0  0  0  0  0  0  0
   10.0262  -18.7213   18.7259 C   0  0  0  0  0  0  0  0  0  0  0  0
   10.2645  -19.3078   17.5151 N   0  0  0  0  0  0  0  0  0  0  0  0
   11.4104  -19.9628   17.6579 C   0  0  0  0  0  0  0  0  0  0  0  0
   11.8831  -19.8046   18.8982 N   0  0  0  0  0  0  0  0  0  0  0  0
   10.2705  -17.8179   23.0893 C   0  0  0  0  0  0  0  0  0  0  0  0
   11.0944  -17.0984   23.7158 O   0  0  0  0  0  0  0  0  0  0  0  0
    8.7302  -22.3354   28.7993 N   0  0  0  0  0  0  0  0  0  0  0  0
    7.8673  -21.6432   29.6951 C   0  0  0  0  0  0  0  0  0  0  0  0
    7.8364  -21.9904   30.9150 N   0  0  0  0  0  0  0  0  0  0  0  0
    7.0335  -20.5672   29.2590 N   0  0  0  0  0  0  0  0  0  0  0  0
    6.9454  -20.2374   27.8557 C   0  0  0  0  0  0  0  0  0  0  0  0
    8.1955  -19.6538   27.3027 C   0  0  0  0  0  0  0  0  0  0  0  0
    8.2091  -19.2805   25.8592 C   0  0  0  0  0  0  0  0  0  0  0  0
    9.4942  -18.7763   25.3071 C   0  0  2  0  0  0  0  0  0  0  0  0
    9.4353  -18.6754   23.8462 N   0  0  0  0  0  0  0  0  0  0  0  0
   10.7200  -19.4286   25.7488 C   0  0  0  0  0  0  0  0  0  0  0  0
   11.1924  -20.3690   25.0146 O   0  0  0  0  0  0  0  0  0  0  0  0
   11.4570  -19.1576   26.8789 O   0  0  0  0  0  0  0  0  0  0  0  0
  2  1  1  6
  2  3  1  0
  4  2  1  0
  5  4  1  0
  5  6  1  6
  7  8  2  0
  7  5  1  0
  9  7  1  0
 10  9  1  0
 11 12  1  0
 10 11  1  6
 12 16  1  0
 13 12  2  0
 13 14  1  0
 14 15  1  0
 16 15  2  0
 17 10  1  0
 18 17  2  0
 19 20  1  0
 20 22  1  0
 21 20  2  0
 22 23  1  0
 23 24  1  0
 24 25  1  0
 26 25  1  6
 26 28  1  0
 26 27  1  0
 27 17  1  0
 28 30  1  0
 29 28  2  0
M  END
$$$$
