LHR.pdb
     RDKit          3D

 30 30  0  0  1  0  0  0  0  0999 V2000
    6.5517  -12.5504   18.8733 C   0  0  0  0  0  0  0  0  0  0  0  0
    7.8802  -13.2859   18.8470 C   0  0  1  0  0  0  0  0  0  0  0  0
    8.9778  -12.2320   18.8904 C   0  0  0  0  0  0  0  0  0  0  0  0
    7.9700  -14.1766   20.0438 C   0  0  0  0  0  0  0  0  0  0  0  0
    9.3388  -14.8157   20.2203 C   0  0  2  0  0  0  0  0  0  0  0  0
    9.5436  -15.6003   18.9883 N   0  0  0  0  0  0  0  0  0  0  0  0
    9.3262  -15.7478   21.3741 C   0  0  0  0  0  0  0  0  0  0  0  0
    8.4385  -15.5941   22.2674 O   0  0  0  0  0  0  0  0  0  0  0  0
   10.3031  -16.8083   21.4795 N   0  0  0  0  0  0  0  0  0  0  0  0
   10.2173  -17.6962   22.5863 C   0  0  1  0  0  0  0  0  0  0  0  0
   10.8588  -19.0086   22.2836 C   0  0  0  0  0  0  0  0  0  0  0  0
   10.0874  -19.8710   21.3806 C   0  0  0  0  0  0  0  0  0  0  0  0
    8.8731  -19.7447   20.7679 C   0  0  0  0  0  0  0  0  0  0  0  0
    8.5954  -20.8295   19.9850 N   0  0  0  0  0  0  0  0  0  0  0  0
    9.6431  -21.6350   20.1108 C   0  0  0  0  0  0  0  0  0  0  0  0
   10.5473  -21.0941   20.9335 N   0  0  0  0  0  0  0  0  0  0  0  0
   10.7748  -17.1505   23.8543 C   0  0  0  0  0  0  0  0  0  0  0  0
   11.9398  -16.6691   23.8488 O   0  0  0  0  0  0  0  0  0  0  0  0
    5.3728  -13.7303   26.2067 N   0  0  0  0  0  0  0  0  0  0  0  0
    6.4630  -12.8284   26.3622 C   0  0  0  0  0  0  0  0  0  0  0  0
    6.5948  -11.8714   25.5398 N   0  0  0  0  0  0  0  0  0  0  0  0
    7.4146  -12.9705   27.4192 N   0  0  0  0  0  0  0  0  0  0  0  0
    7.8929  -14.2798   27.7969 C   0  0  0  0  0  0  0  0  0  0  0  0
    8.9821  -14.7895   26.9235 C   0  0  0  0  0  0  0  0  0  0  0  0
    9.5502  -16.1328   27.2329 C   0  0  0  0  0  0  0  0  0  0  0  0
   10.6239  -16.6323   26.3339 C   0  0  2  0  0  0  0  0  0  0  0  0
   10.0641  -17.1426   25.0793 N   0  0  0  0  0  0  0  0  0  0  0  0
   11.6005  -17.5549   26.8978 C   0  0  0  0  0  0  0  0  0  0  0  0
   12.5939  -17.0537   27.5369 O   0  0  0  0  0  0  0  0  0  0  0  0
   11.5935  -18.9296   26.8345 O   0  0  0  0  0  0  0  0  0  0  0  0
  2  1  1  1
  2  3  1  0
  4  2  1  0
  5  4  1  0
  5  6  1  6
  7  8  2  0
  7  5  1  0
  9  7  1  0
 10  9  1  0
 11 12  1  0
 10 11  1  6
 12 16  1  0
 13 12  2  0
 13 14  1  0
 14 15  1  0
 16 15  2  0
 17 10  1  0
 18 17  2  0
 19 20  1  0
 20 22  1  0
 21 20  2  0
 22 23  1  0
 23 24  1  0
 24 25  1  0
 26 25  1  1
 26 28  1  0
 26 27  1  0
 27 17  1  0
 28 30  1  0
 29 28  2  0
M  END
$$$$
