LHR.pdb
     RDKit          3D

 30 30  0  0  1  0  0  0  0  0999 V2000
    7.1949  -11.4534   27.8901 C   0  0  0  0  0  0  0  0  0  0  0  0
    6.3861  -12.1147   26.7877 C   0  0  1  0  0  0  0  0  0  0  0  0
    6.1541  -11.0651   25.7097 C   0  0  0  0  0  0  0  0  0  0  0  0
    7.1638  -13.2638   26.2325 C   0  0  0  0  0  0  0  0  0  0  0  0
    6.5270  -13.8851   24.9989 C   0  0  2  0  0  0  0  0  0  0  0  0
    5.3423  -14.5982   25.5121 N   0  0  0  0  0  0  0  0  0  0  0  0
    7.4458  -14.8778   24.3905 C   0  0  0  0  0  0  0  0  0  0  0  0
    7.2913  -16.1034   24.6799 O   0  0  0  0  0  0  0  0  0  0  0  0
    8.4945  -14.4595   23.4874 N   0  0  0  0  0  0  0  0  0  0  0  0
    9.3142  -15.4596   22.8970 C   0  0  1  0  0  0  0  0  0  0  0  0
    9.9152  -14.9861   21.6164 C   0  0  0  0  0  0  0  0  0  0  0  0
    8.9427  -14.5120   20.6245 C   0  0  0  0  0  0  0  0  0  0  0  0
    8.4872  -13.2739   20.2705 C   0  0  0  0  0  0  0  0  0  0  0  0
    7.5822  -13.3496   19.2498 N   0  0  0  0  0  0  0  0  0  0  0  0
    7.4745  -14.6422   18.9666 C   0  0  0  0  0  0  0  0  0  0  0  0
    8.2703  -15.3595   19.7660 N   0  0  0  0  0  0  0  0  0  0  0  0
   10.3879  -15.9772   23.7892 C   0  0  0  0  0  0  0  0  0  0  0  0
   11.1628  -15.1551   24.3483 O   0  0  0  0  0  0  0  0  0  0  0  0
   10.3792  -21.6893   30.3673 N   0  0  0  0  0  0  0  0  0  0  0  0
   11.7131  -21.2132   30.2242 C   0  0  0  0  0  0  0  0  0  0  0  0
   12.5036  -21.2843   31.2140 N   0  0  0  0  0  0  0  0  0  0  0  0
   12.1876  -20.6567   28.9962 N   0  0  0  0  0  0  0  0  0  0  0  0
   11.2630  -20.0529   28.0654 C   0  0  0  0  0  0  0  0  0  0  0  0
   11.8823  -19.6888   26.7642 C   0  0  0  0  0  0  0  0  0  0  0  0
   11.0100  -19.0613   25.7306 C   0  0  0  0  0  0  0  0  0  0  0  0
   11.5445  -17.8581   25.0398 C   0  0  2  0  0  0  0  0  0  0  0  0
   10.5912  -17.3548   24.0469 N   0  0  0  0  0  0  0  0  0  0  0  0
   12.8930  -17.9375   24.4937 C   0  0  0  0  0  0  0  0  0  0  0  0
   13.0141  -18.1149   23.2287 O   0  0  0  0  0  0  0  0  0  0  0  0
   14.0841  -17.8415   25.1763 O   0  0  0  0  0  0  0  0  0  0  0  0
  2  1  1  1
  2  3  1  0
  4  2  1  0
  5  4  1  0
  5  6  1  1
  7  8  2  0
  7  5  1  0
  9  7  1  0
 10  9  1  0
 11 12  1  0
 10 11  1  6
 12 16  1  0
 13 12  2  0
 13 14  1  0
 14 15  1  0
 16 15  2  0
 17 10  1  0
 18 17  2  0
 19 20  1  0
 20 22  1  0
 21 20  2  0
 22 23  1  0
 23 24  1  0
 24 25  1  0
 26 25  1  6
 26 28  1  0
 26 27  1  0
 27 17  1  0
 28 30  1  0
 29 28  2  0
M  END
$$$$
