LHR.pdb
     RDKit          3D

 30 30  0  0  1  0  0  0  0  0999 V2000
    7.5978  -11.6548   27.3327 C   0  0  0  0  0  0  0  0  0  0  0  0
    6.5302  -12.4915   26.6495 C   0  0  1  0  0  0  0  0  0  0  0  0
    6.1475  -11.7694   25.3651 C   0  0  0  0  0  0  0  0  0  0  0  0
    7.0918  -13.8409   26.3370 C   0  0  0  0  0  0  0  0  0  0  0  0
    6.5119  -14.4594   25.0743 C   0  0  2  0  0  0  0  0  0  0  0  0
    5.4202  -15.3275   25.5539 N   0  0  0  0  0  0  0  0  0  0  0  0
    7.5272  -15.3083   24.4045 C   0  0  0  0  0  0  0  0  0  0  0  0
    7.6169  -16.5275   24.7439 O   0  0  0  0  0  0  0  0  0  0  0  0
    8.3959  -14.7598   23.3873 N   0  0  0  0  0  0  0  0  0  0  0  0
    9.3524  -15.6199   22.7823 C   0  0  1  0  0  0  0  0  0  0  0  0
    9.8293  -15.0740   21.4785 C   0  0  0  0  0  0  0  0  0  0  0  0
    8.7669  -14.8196   20.4983 C   0  0  0  0  0  0  0  0  0  0  0  0
    8.0900  -13.6970   20.1144 C   0  0  0  0  0  0  0  0  0  0  0  0
    7.1916  -13.9723   19.1225 N   0  0  0  0  0  0  0  0  0  0  0  0
    7.3107  -15.2735   18.8875 C   0  0  0  0  0  0  0  0  0  0  0  0
    8.2387  -15.8060   19.6888 N   0  0  0  0  0  0  0  0  0  0  0  0
   10.5224  -15.9390   23.6461 C   0  0  0  0  0  0  0  0  0  0  0  0
   11.2574  -14.9965   24.0467 O   0  0  0  0  0  0  0  0  0  0  0  0
   11.3303  -21.1869   30.6706 N   0  0  0  0  0  0  0  0  0  0  0  0
   12.6070  -20.5886   30.4745 C   0  0  0  0  0  0  0  0  0  0  0  0
   13.4724  -20.6629   31.3993 N   0  0  0  0  0  0  0  0  0  0  0  0
   12.9420  -19.9056   29.2644 N   0  0  0  0  0  0  0  0  0  0  0  0
   11.9153  -19.5886   28.2994 C   0  0  0  0  0  0  0  0  0  0  0  0
   12.4417  -18.9793   27.0501 C   0  0  0  0  0  0  0  0  0  0  0  0
   11.4563  -18.5562   26.0143 C   0  0  0  0  0  0  0  0  0  0  0  0
   11.9181  -17.5569   25.0150 C   0  0  2  0  0  0  0  0  0  0  0  0
   10.8609  -17.2547   24.0461 N   0  0  0  0  0  0  0  0  0  0  0  0
   13.1936  -17.8032   24.3550 C   0  0  0  0  0  0  0  0  0  0  0  0
   14.2645  -17.5308   25.0073 O   0  0  0  0  0  0  0  0  0  0  0  0
   13.4036  -18.3057   23.0912 O   0  0  0  0  0  0  0  0  0  0  0  0
  2  1  1  6
  2  3  1  0
  4  2  1  0
  5  4  1  0
  5  6  1  1
  7  8  2  0
  7  5  1  0
  9  7  1  0
 10  9  1  0
 11 12  1  0
 10 11  1  6
 12 16  1  0
 13 12  2  0
 13 14  1  0
 14 15  1  0
 16 15  2  0
 17 10  1  0
 18 17  2  0
 19 20  1  0
 20 22  1  0
 21 20  2  0
 22 23  1  0
 23 24  1  0
 24 25  1  0
 26 25  1  6
 26 28  1  0
 26 27  1  0
 27 17  1  0
 28 30  1  0
 29 28  2  0
M  END
$$$$
