LHR.pdb
     RDKit          3D

 30 30  0  0  1  0  0  0  0  0999 V2000
    6.7848  -12.4826   19.5298 C   0  0  0  0  0  0  0  0  0  0  0  0
    8.1845  -12.7978   19.0318 C   0  0  1  0  0  0  0  0  0  0  0  0
    9.1198  -11.7583   19.6336 C   0  0  0  0  0  0  0  0  0  0  0  0
    8.5697  -14.1674   19.4894 C   0  0  0  0  0  0  0  0  0  0  0  0
   10.0366  -14.4930   19.2544 C   0  0  2  0  0  0  0  0  0  0  0  0
   10.2008  -14.4300   17.7900 N   0  0  0  0  0  0  0  0  0  0  0  0
   10.3345  -15.8756   19.7013 C   0  0  0  0  0  0  0  0  0  0  0  0
   10.0361  -16.2058   20.8894 O   0  0  0  0  0  0  0  0  0  0  0  0
   10.9509  -16.8269   18.8039 N   0  0  0  0  0  0  0  0  0  0  0  0
   11.2066  -18.1398   19.2852 C   0  0  1  0  0  0  0  0  0  0  0  0
   11.6856  -19.0371   18.1940 C   0  0  0  0  0  0  0  0  0  0  0  0
   11.9146  -20.4277   18.6039 C   0  0  0  0  0  0  0  0  0  0  0  0
   12.9804  -21.0841   19.1507 C   0  0  0  0  0  0  0  0  0  0  0  0
   12.6899  -22.3990   19.3819 N   0  0  0  0  0  0  0  0  0  0  0  0
   11.4359  -22.5614   18.9773 C   0  0  0  0  0  0  0  0  0  0  0  0
   10.9470  -21.4086   18.5096 N   0  0  0  0  0  0  0  0  0  0  0  0
   12.1560  -18.1985   20.4306 C   0  0  0  0  0  0  0  0  0  0  0  0
   13.0756  -17.3392   20.5026 O   0  0  0  0  0  0  0  0  0  0  0  0
   10.3481  -20.7588   28.4010 N   0  0  0  0  0  0  0  0  0  0  0  0
   11.7134  -21.1444   28.2848 C   0  0  0  0  0  0  0  0  0  0  0  0
   12.2433  -21.8275   29.2133 N   0  0  0  0  0  0  0  0  0  0  0  0
   12.5052  -20.7833   27.1510 N   0  0  0  0  0  0  0  0  0  0  0  0
   12.2168  -19.5732   26.4173 C   0  0  0  0  0  0  0  0  0  0  0  0
   12.9754  -19.4546   25.1447 C   0  0  0  0  0  0  0  0  0  0  0  0
   12.1968  -19.3898   23.8748 C   0  0  0  0  0  0  0  0  0  0  0  0
   12.9701  -19.1869   22.6214 C   0  0  2  0  0  0  0  0  0  0  0  0
   12.0850  -19.1754   21.4533 N   0  0  0  0  0  0  0  0  0  0  0  0
   14.1336  -20.0363   22.4020 C   0  0  0  0  0  0  0  0  0  0  0  0
   13.9329  -21.2093   21.9220 O   0  0  0  0  0  0  0  0  0  0  0  0
   15.4537  -19.7344   22.6465 O   0  0  0  0  0  0  0  0  0  0  0  0
  2  1  1  1
  2  3  1  0
  4  2  1  0
  5  4  1  0
  5  6  1  6
  7  8  2  0
  7  5  1  0
  9  7  1  0
 10  9  1  0
 11 12  1  0
 10 11  1  6
 12 16  1  0
 13 12  2  0
 13 14  1  0
 14 15  1  0
 16 15  2  0
 17 10  1  0
 18 17  2  0
 19 20  1  0
 20 22  1  0
 21 20  2  0
 22 23  1  0
 23 24  1  0
 24 25  1  0
 26 25  1  1
 26 28  1  0
 26 27  1  0
 27 17  1  0
 28 30  1  0
 29 28  2  0
M  END
$$$$
