LHR.pdb
     RDKit          3D

 30 30  0  0  1  0  0  0  0  0999 V2000
    5.2752  -11.2725   25.4061 C   0  0  0  0  0  0  0  0  0  0  0  0
    6.4708  -12.1250   25.7936 C   0  0  1  0  0  0  0  0  0  0  0  0
    6.5932  -12.0641   27.3098 C   0  0  0  0  0  0  0  0  0  0  0  0
    6.2328  -13.5321   25.3496 C   0  0  0  0  0  0  0  0  0  0  0  0
    7.3529  -14.4857   25.7362 C   0  0  2  0  0  0  0  0  0  0  0  0
    8.4586  -13.6067   26.1607 N   0  0  0  0  0  0  0  0  0  0  0  0
    7.7979  -15.2625   24.5536 C   0  0  0  0  0  0  0  0  0  0  0  0
    7.1571  -16.3122   24.2421 O   0  0  0  0  0  0  0  0  0  0  0  0
    8.9364  -14.8340   23.7723 N   0  0  0  0  0  0  0  0  0  0  0  0
    9.5809  -15.7894   22.9402 C   0  0  1  0  0  0  0  0  0  0  0  0
    9.9640  -15.1974   21.6255 C   0  0  0  0  0  0  0  0  0  0  0  0
    8.8357  -14.7066   20.8253 C   0  0  0  0  0  0  0  0  0  0  0  0
    7.4822  -14.7039   21.0096 C   0  0  0  0  0  0  0  0  0  0  0  0
    6.8396  -14.0935   19.9698 N   0  0  0  0  0  0  0  0  0  0  0  0
    7.7988  -13.7138   19.1341 C   0  0  0  0  0  0  0  0  0  0  0  0
    8.9965  -14.0635   19.6138 N   0  0  0  0  0  0  0  0  0  0  0  0
   10.7695  -16.4383   23.5590 C   0  0  0  0  0  0  0  0  0  0  0  0
   11.2943  -15.9047   24.5733 O   0  0  0  0  0  0  0  0  0  0  0  0
   10.6697  -20.4966   30.5281 N   0  0  0  0  0  0  0  0  0  0  0  0
   11.7828  -19.9929   29.7976 C   0  0  0  0  0  0  0  0  0  0  0  0
   12.9203  -20.5320   29.9557 N   0  0  0  0  0  0  0  0  0  0  0  0
   11.6554  -18.8957   28.8904 N   0  0  0  0  0  0  0  0  0  0  0  0
   10.9562  -19.0641   27.6381 C   0  0  0  0  0  0  0  0  0  0  0  0
   11.7991  -18.7895   26.4451 C   0  0  0  0  0  0  0  0  0  0  0  0
   11.1769  -18.9577   25.1007 C   0  0  0  0  0  0  0  0  0  0  0  0
   12.0181  -18.6173   23.9230 C   0  0  2  0  0  0  0  0  0  0  0  0
   11.3508  -17.6323   23.0671 N   0  0  0  0  0  0  0  0  0  0  0  0
   12.5641  -19.7203   23.1430 C   0  0  0  0  0  0  0  0  0  0  0  0
   11.7988  -20.2707   22.2724 O   0  0  0  0  0  0  0  0  0  0  0  0
   13.8277  -20.2600   23.2191 O   0  0  0  0  0  0  0  0  0  0  0  0
  2  1  1  1
  2  3  1  0
  4  2  1  0
  5  4  1  0
  5  6  1  6
  7  8  2  0
  7  5  1  0
  9  7  1  0
 10  9  1  0
 11 12  1  0
 10 11  1  6
 12 16  1  0
 13 12  2  0
 13 14  1  0
 14 15  1  0
 16 15  2  0
 17 10  1  0
 18 17  2  0
 19 20  1  0
 20 22  1  0
 21 20  2  0
 22 23  1  0
 23 24  1  0
 24 25  1  0
 26 25  1  1
 26 28  1  0
 26 27  1  0
 27 17  1  0
 28 30  1  0
 29 28  2  0
M  END
$$$$
