LHR.pdb
     RDKit          3D

 30 30  0  0  1  0  0  0  0  0999 V2000
    6.6628  -12.8946   18.2480 C   0  0  0  0  0  0  0  0  0  0  0  0
    8.0920  -13.4081   18.2357 C   0  0  1  0  0  0  0  0  0  0  0  0
    9.0030  -12.2051   18.4372 C   0  0  0  0  0  0  0  0  0  0  0  0
    8.2704  -14.3853   19.3524 C   0  0  0  0  0  0  0  0  0  0  0  0
    9.7212  -14.7768   19.5871 C   0  0  2  0  0  0  0  0  0  0  0  0
   10.1245  -15.4668   18.3475 N   0  0  0  0  0  0  0  0  0  0  0  0
    9.8188  -15.7379   20.7126 C   0  0  0  0  0  0  0  0  0  0  0  0
    9.2282  -15.4591   21.8003 O   0  0  0  0  0  0  0  0  0  0  0  0
   10.5698  -16.9656   20.5746 N   0  0  0  0  0  0  0  0  0  0  0  0
   10.5476  -17.8940   21.6508 C   0  0  1  0  0  0  0  0  0  0  0  0
   11.2146  -19.1756   21.2793 C   0  0  0  0  0  0  0  0  0  0  0  0
   10.4141  -20.0524   20.4164 C   0  0  0  0  0  0  0  0  0  0  0  0
    9.1295  -20.0004   19.9548 C   0  0  0  0  0  0  0  0  0  0  0  0
    8.8498  -21.0614   19.1408 N   0  0  0  0  0  0  0  0  0  0  0  0
    9.9670  -21.7772   19.0949 C   0  0  0  0  0  0  0  0  0  0  0  0
   10.9154  -21.2042   19.8426 N   0  0  0  0  0  0  0  0  0  0  0  0
   11.1336  -17.3771   22.9181 C   0  0  0  0  0  0  0  0  0  0  0  0
   12.3506  -17.0491   22.9359 O   0  0  0  0  0  0  0  0  0  0  0  0
   10.4906  -16.3414   30.8135 N   0  0  0  0  0  0  0  0  0  0  0  0
   10.5010  -14.9234   30.6889 C   0  0  0  0  0  0  0  0  0  0  0  0
   10.8594  -14.2189   31.6812 N   0  0  0  0  0  0  0  0  0  0  0  0
   10.1185  -14.2701   29.4765 N   0  0  0  0  0  0  0  0  0  0  0  0
    9.6294  -15.0408   28.3573 C   0  0  0  0  0  0  0  0  0  0  0  0
   10.4681  -14.9144   27.1368 C   0  0  0  0  0  0  0  0  0  0  0  0
   10.0178  -15.6273   25.9071 C   0  0  0  0  0  0  0  0  0  0  0  0
   10.9460  -16.6405   25.3393 C   0  0  2  0  0  0  0  0  0  0  0  0
   10.3944  -17.2328   24.1174 N   0  0  0  0  0  0  0  0  0  0  0  0
   11.4638  -17.6610   26.2412 C   0  0  0  0  0  0  0  0  0  0  0  0
   12.5160  -17.3786   26.9192 O   0  0  0  0  0  0  0  0  0  0  0  0
   10.9557  -18.9197   26.4679 O   0  0  0  0  0  0  0  0  0  0  0  0
  2  1  1  1
  2  3  1  0
  4  2  1  0
  5  4  1  0
  5  6  1  6
  7  8  2  0
  7  5  1  0
  9  7  1  0
 10  9  1  0
 11 12  1  0
 10 11  1  6
 12 16  1  0
 13 12  2  0
 13 14  1  0
 14 15  1  0
 16 15  2  0
 17 10  1  0
 18 17  2  0
 19 20  1  0
 20 22  1  0
 21 20  2  0
 22 23  1  0
 23 24  1  0
 24 25  1  0
 26 25  1  1
 26 28  1  0
 26 27  1  0
 27 17  1  0
 28 30  1  0
 29 28  2  0
M  END
$$$$
