DTS.pdb
     RDKit          3D

 22 21  0  0  1  0  0  0  0  0999 V2000
   17.5673  -12.6385  -16.5953 N   0  0  0  0  0  0  0  0  0  0  0  0
   17.3442  -11.3703  -15.9745 C   0  0  1  0  0  0  0  0  0  0  0  0
   16.7074  -11.4816  -14.6019 C   0  0  0  0  0  0  0  0  0  0  0  0
   15.3951  -12.1550  -14.6851 C   0  0  0  0  0  0  0  0  0  0  0  0
   14.5758  -11.8314  -15.5840 O   0  0  0  0  0  0  0  0  0  0  0  0
   18.5972  -10.6043  -15.9417 C   0  0  0  0  0  0  0  0  0  0  0  0
   19.6727  -11.2043  -15.6942 O   0  0  0  0  0  0  0  0  0  0  0  0
   15.0355  -13.1466  -13.7874 O   0  0  0  0  0  0  0  0  0  0  0  0
   20.5658   -9.1296  -18.5357 C   0  0  0  0  0  0  0  0  0  0  0  0
   20.3219   -8.0088  -17.5724 C   0  0  1  0  0  0  0  0  0  0  0  0
   19.3277   -7.1994  -18.1198 O   0  0  0  0  0  0  0  0  0  0  0  0
   19.9339   -8.5032  -16.1958 C   0  0  2  0  0  0  0  0  0  0  0  0
   18.6855   -9.1944  -16.1755 N   0  0  0  0  0  0  0  0  0  0  0  0
   19.9730   -7.3974  -15.2070 C   0  0  0  0  0  0  0  0  0  0  0  0
   18.8990   -6.8087  -14.9485 O   0  0  0  0  0  0  0  0  0  0  0  0
   21.1702   -7.2674  -11.7267 O   0  0  0  0  0  0  0  0  0  0  0  0
   22.0095   -6.3345  -12.3633 C   0  0  0  0  0  0  0  0  0  0  0  0
   21.2703   -5.9179  -13.6287 C   0  0  2  0  0  0  0  0  0  0  0  0
   21.1700   -7.0026  -14.5642 N   0  0  0  0  0  0  0  0  0  0  0  0
   21.8634   -4.6941  -14.2121 C   0  0  0  0  0  0  0  0  0  0  0  0
   22.5257   -4.8070  -15.2739 O   0  0  0  0  0  0  0  0  0  0  0  0
   21.7442   -3.4211  -13.6731 O   0  0  0  0  0  0  0  0  0  0  0  0
  2  1  1  1
  2  3  1  0
  3  4  1  0
  4  5  2  0
  4  8  1  0
  6 13  1  0
  6  2  1  0
  7  6  2  0
 10  9  1  6
 10 12  1  0
 11 10  1  0
 12 13  1  6
 12 14  1  0
 14 19  1  0
 14 15  2  0
 17 16  1  0
 18 17  1  1
 19 18  1  0
 20 18  1  0
 20 22  1  0
 21 20  2  0
M  END
$$$$
