DTS.pdb
     RDKit          3D

 22 21  0  0  1  0  0  0  0  0999 V2000
   18.8717  -13.6115  -16.6390 N   0  0  0  0  0  0  0  0  0  0  0  0
   18.4748  -12.2743  -16.3259 C   0  0  1  0  0  0  0  0  0  0  0  0
   17.7027  -12.1704  -15.0239 C   0  0  0  0  0  0  0  0  0  0  0  0
   16.4430  -12.9386  -15.0978 C   0  0  0  0  0  0  0  0  0  0  0  0
   15.6910  -12.8221  -16.1002 O   0  0  0  0  0  0  0  0  0  0  0  0
   19.6469  -11.3892  -16.3453 C   0  0  0  0  0  0  0  0  0  0  0  0
   20.6821  -11.7339  -15.7226 O   0  0  0  0  0  0  0  0  0  0  0  0
   16.0603  -13.7955  -14.0791 O   0  0  0  0  0  0  0  0  0  0  0  0
   21.8518  -10.1730  -19.1078 C   0  0  0  0  0  0  0  0  0  0  0  0
   21.3965   -8.9563  -18.3621 C   0  0  1  0  0  0  0  0  0  0  0  0
   20.4405   -8.3188  -19.1514 O   0  0  0  0  0  0  0  0  0  0  0  0
   20.8466   -9.2895  -16.9921 C   0  0  2  0  0  0  0  0  0  0  0  0
   19.6981  -10.1357  -17.0355 N   0  0  0  0  0  0  0  0  0  0  0  0
   20.5976   -8.0545  -16.2083 C   0  0  0  0  0  0  0  0  0  0  0  0
   19.4197   -7.8126  -15.8603 O   0  0  0  0  0  0  0  0  0  0  0  0
   20.9059   -5.3203  -12.8195 O   0  0  0  0  0  0  0  0  0  0  0  0
   20.9618   -6.4909  -13.5982 C   0  0  0  0  0  0  0  0  0  0  0  0
   21.4855   -6.0505  -14.9595 C   0  0  2  0  0  0  0  0  0  0  0  0
   21.6383   -7.1641  -15.8531 N   0  0  0  0  0  0  0  0  0  0  0  0
   22.7150   -5.2392  -14.8189 C   0  0  0  0  0  0  0  0  0  0  0  0
   23.8139   -5.7776  -15.1044 O   0  0  0  0  0  0  0  0  0  0  0  0
   22.7490   -3.9193  -14.3925 O   0  0  0  0  0  0  0  0  0  0  0  0
  2  1  1  1
  2  3  1  0
  3  4  1  0
  4  5  2  0
  4  8  1  0
  6 13  1  0
  6  2  1  0
  7  6  2  0
 10  9  1  6
 10 12  1  0
 11 10  1  0
 12 13  1  6
 12 14  1  0
 14 19  1  0
 14 15  2  0
 17 16  1  0
 18 17  1  1
 19 18  1  0
 20 18  1  0
 20 22  1  0
 21 20  2  0
M  END
$$$$
