DTS.pdb
     RDKit          3D

 22 21  0  0  1  0  0  0  0  0999 V2000
   14.4836   -8.4871   -8.5170 N   0  0  0  0  0  0  0  0  0  0  0  0
   15.0115   -7.3627   -9.2246 C   0  0  1  0  0  0  0  0  0  0  0  0
   15.3424   -6.1903   -8.3203 C   0  0  0  0  0  0  0  0  0  0  0  0
   14.1097   -5.5270   -7.8483 C   0  0  0  0  0  0  0  0  0  0  0  0
   13.6181   -5.8312   -6.7304 O   0  0  0  0  0  0  0  0  0  0  0  0
   16.1648   -7.7796  -10.0332 C   0  0  0  0  0  0  0  0  0  0  0  0
   17.0056   -8.5691   -9.5352 O   0  0  0  0  0  0  0  0  0  0  0  0
   13.4699   -4.5660   -8.6135 O   0  0  0  0  0  0  0  0  0  0  0  0
   16.2544   -9.7078  -13.1951 C   0  0  0  0  0  0  0  0  0  0  0  0
   17.1021   -8.4956  -13.4306 C   0  0  1  0  0  0  0  0  0  0  0  0
   16.3743   -7.6319  -14.2478 O   0  0  0  0  0  0  0  0  0  0  0  0
   17.5138   -7.8181  -12.1415 C   0  0  2  0  0  0  0  0  0  0  0  0
   16.4074   -7.3433  -11.3752 N   0  0  0  0  0  0  0  0  0  0  0  0
   18.5096   -6.7492  -12.4012 C   0  0  0  0  0  0  0  0  0  0  0  0
   18.1608   -5.5650  -12.1937 O   0  0  0  0  0  0  0  0  0  0  0  0
   23.0841   -5.5710  -13.4255 O   0  0  0  0  0  0  0  0  0  0  0  0
   22.2016   -6.6552  -13.2650 C   0  0  0  0  0  0  0  0  0  0  0  0
   20.8151   -6.0371  -13.1367 C   0  0  2  0  0  0  0  0  0  0  0  0
   19.8152   -7.0319  -12.8675 N   0  0  0  0  0  0  0  0  0  0  0  0
   20.4995   -5.1916  -14.3094 C   0  0  0  0  0  0  0  0  0  0  0  0
   20.0337   -5.7518  -15.3332 O   0  0  0  0  0  0  0  0  0  0  0  0
   20.6795   -3.8171  -14.3669 O   0  0  0  0  0  0  0  0  0  0  0  0
  2  1  1  1
  2  3  1  0
  3  4  1  0
  4  5  2  0
  4  8  1  0
  6 13  1  0
  6  2  1  0
  7  6  2  0
 10  9  1  1
 10 12  1  0
 11 10  1  0
 12 13  1  6
 12 14  1  0
 14 19  1  0
 14 15  2  0
 17 16  1  0
 18 17  1  6
 19 18  1  0
 20 18  1  0
 20 22  1  0
 21 20  2  0
M  END
$$$$
