DTS.pdb
     RDKit          3D

 22 21  0  0  1  0  0  0  0  0999 V2000
   24.3081  -10.5396  -15.8729 N   0  0  0  0  0  0  0  0  0  0  0  0
   24.5574   -9.1677  -16.1880 C   0  0  1  0  0  0  0  0  0  0  0  0
   25.8252   -8.9617  -16.9955 C   0  0  0  0  0  0  0  0  0  0  0  0
   27.0092   -9.4190  -16.2395 C   0  0  0  0  0  0  0  0  0  0  0  0
   26.8702   -9.9281  -15.0970 O   0  0  0  0  0  0  0  0  0  0  0  0
   23.3811   -8.5866  -16.8486 C   0  0  0  0  0  0  0  0  0  0  0  0
   22.7638   -9.2674  -17.7050 O   0  0  0  0  0  0  0  0  0  0  0  0
   28.2871   -9.3005  -16.7606 O   0  0  0  0  0  0  0  0  0  0  0  0
   20.6385   -9.1297  -17.2437 C   0  0  0  0  0  0  0  0  0  0  0  0
   20.4669   -7.7432  -16.7036 C   0  0  1  0  0  0  0  0  0  0  0  0
   20.3363   -7.8494  -15.3198 O   0  0  0  0  0  0  0  0  0  0  0  0
   21.6131   -6.8296  -17.0803 C   0  0  2  0  0  0  0  0  0  0  0  0
   22.8753   -7.2735  -16.5836 N   0  0  0  0  0  0  0  0  0  0  0  0
   21.3228   -5.4285  -16.6874 C   0  0  0  0  0  0  0  0  0  0  0  0
   21.5807   -5.0878  -15.5108 O   0  0  0  0  0  0  0  0  0  0  0  0
   20.1642   -0.9621  -18.1031 O   0  0  0  0  0  0  0  0  0  0  0  0
   20.1617   -2.3069  -18.5173 C   0  0  0  0  0  0  0  0  0  0  0  0
   20.4961   -3.1180  -17.2718 C   0  0  2  0  0  0  0  0  0  0  0  0
   20.7736   -4.4899  -17.5926 N   0  0  0  0  0  0  0  0  0  0  0  0
   19.4504   -2.9584  -16.2370 C   0  0  0  0  0  0  0  0  0  0  0  0
   19.2952   -1.8217  -15.7244 O   0  0  0  0  0  0  0  0  0  0  0  0
   18.6212   -3.9749  -15.7849 O   0  0  0  0  0  0  0  0  0  0  0  0
  2  1  1  6
  2  3  1  0
  3  4  1  0
  4  5  2  0
  4  8  1  0
  6 13  1  0
  6  2  1  0
  7  6  2  0
 10  9  1  6
 10 12  1  0
 11 10  1  0
 12 13  1  1
 12 14  1  0
 14 19  1  0
 14 15  2  0
 17 16  1  0
 18 17  1  6
 19 18  1  0
 20 18  1  0
 20 22  1  0
 21 20  2  0
M  END
$$$$
