DTS.pdb
     RDKit          3D

 22 21  0  0  1  0  0  0  0  0999 V2000
   15.6719  -20.1014    1.4866 N   0  0  0  0  0  0  0  0  0  0  0  0
   16.0508  -19.5112    2.7323 C   0  0  1  0  0  0  0  0  0  0  0  0
   15.1202  -18.3965    3.1720 C   0  0  0  0  0  0  0  0  0  0  0  0
   15.6867  -17.6627    4.3222 C   0  0  0  0  0  0  0  0  0  0  0  0
   16.8145  -17.9819    4.7806 O   0  0  0  0  0  0  0  0  0  0  0  0
   16.1861  -20.5547    3.7573 C   0  0  0  0  0  0  0  0  0  0  0  0
   15.4760  -21.5876    3.6738 O   0  0  0  0  0  0  0  0  0  0  0  0
   15.0006  -16.6183    4.9197 O   0  0  0  0  0  0  0  0  0  0  0  0
   18.7887  -22.8134    4.2868 C   0  0  0  0  0  0  0  0  0  0  0  0
   17.5551  -22.8768    5.1340 C   0  0  1  0  0  0  0  0  0  0  0  0
   17.7509  -23.8833    6.0785 O   0  0  0  0  0  0  0  0  0  0  0  0
   17.2397  -21.5534    5.7966 C   0  0  2  0  0  0  0  0  0  0  0  0
   17.0859  -20.4801    4.8687 N   0  0  0  0  0  0  0  0  0  0  0  0
   18.2367  -21.2390    6.8496 C   0  0  0  0  0  0  0  0  0  0  0  0
   19.2696  -20.6197    6.5079 O   0  0  0  0  0  0  0  0  0  0  0  0
   18.8031  -19.1901   10.2034 O   0  0  0  0  0  0  0  0  0  0  0  0
   18.3151  -20.5000   10.3648 C   0  0  0  0  0  0  0  0  0  0  0  0
   18.9726  -21.3191    9.2612 C   0  0  2  0  0  0  0  0  0  0  0  0
   18.0504  -21.6148    8.2009 N   0  0  0  0  0  0  0  0  0  0  0  0
   19.6345  -22.5215    9.8142 C   0  0  0  0  0  0  0  0  0  0  0  0
   19.0477  -23.6262    9.6952 O   0  0  0  0  0  0  0  0  0  0  0  0
   20.8628  -22.5238   10.4595 O   0  0  0  0  0  0  0  0  0  0  0  0
  2  1  1  6
  2  3  1  0
  3  4  1  0
  4  5  2  0
  4  8  1  0
  6 13  1  0
  6  2  1  0
  7  6  2  0
 10  9  1  1
 10 12  1  0
 11 10  1  0
 12 13  1  6
 12 14  1  0
 14 19  1  0
 14 15  2  0
 17 16  1  0
 18 17  1  1
 19 18  1  0
 20 18  1  0
 20 22  1  0
 21 20  2  0
M  END
$$$$
