DTS.pdb
     RDKit          3D

 22 21  0  0  1  0  0  0  0  0999 V2000
   17.9097  -12.2470  -16.0797 N   0  0  0  0  0  0  0  0  0  0  0  0
   17.8237  -10.8593  -16.4119 C   0  0  1  0  0  0  0  0  0  0  0  0
   16.3953  -10.3609  -16.5279 C   0  0  0  0  0  0  0  0  0  0  0  0
   15.6894  -11.0428  -17.6321 C   0  0  0  0  0  0  0  0  0  0  0  0
   14.5156  -11.4648  -17.4650 O   0  0  0  0  0  0  0  0  0  0  0  0
   18.6088  -10.0684  -15.4549 C   0  0  0  0  0  0  0  0  0  0  0  0
   18.3482  -10.1593  -14.2294 O   0  0  0  0  0  0  0  0  0  0  0  0
   16.2927  -11.2341  -18.8640 O   0  0  0  0  0  0  0  0  0  0  0  0
   22.5896   -9.4182  -15.9004 C   0  0  0  0  0  0  0  0  0  0  0  0
   21.8180   -9.2347  -14.6297 C   0  0  1  0  0  0  0  0  0  0  0  0
   22.6288   -8.5177  -13.7511 O   0  0  0  0  0  0  0  0  0  0  0  0
   20.4943   -8.5360  -14.8524 C   0  0  2  0  0  0  0  0  0  0  0  0
   19.6714   -9.1820  -15.8231 N   0  0  0  0  0  0  0  0  0  0  0  0
   20.7010   -7.1005  -15.1660 C   0  0  0  0  0  0  0  0  0  0  0  0
   20.9214   -6.7904  -16.3586 O   0  0  0  0  0  0  0  0  0  0  0  0
   19.9900   -2.5399  -14.3527 O   0  0  0  0  0  0  0  0  0  0  0  0
   19.6940   -3.8555  -13.9509 C   0  0  0  0  0  0  0  0  0  0  0  0
   20.8753   -4.6989  -14.4139 C   0  0  2  0  0  0  0  0  0  0  0  0
   20.6553   -6.0968  -14.1698 N   0  0  0  0  0  0  0  0  0  0  0  0
   22.1439   -4.1968  -13.8409 C   0  0  0  0  0  0  0  0  0  0  0  0
   22.5229   -3.0435  -14.1652 O   0  0  0  0  0  0  0  0  0  0  0  0
   22.9541   -4.9065  -12.9662 O   0  0  0  0  0  0  0  0  0  0  0  0
  2  1  1  1
  2  3  1  0
  3  4  1  0
  4  5  2  0
  4  8  1  0
  6 13  1  0
  6  2  1  0
  7  6  2  0
 10  9  1  6
 10 12  1  0
 11 10  1  0
 12 13  1  6
 12 14  1  0
 14 19  1  0
 14 15  2  0
 17 16  1  0
 18 17  1  1
 19 18  1  0
 20 18  1  0
 20 22  1  0
 21 20  2  0
M  END
$$$$
