DTS.pdb
     RDKit          3D

 22 21  0  0  1  0  0  0  0  0999 V2000
   16.7173  -11.4824  -15.3238 N   0  0  0  0  0  0  0  0  0  0  0  0
   17.1249  -10.2938  -16.0055 C   0  0  1  0  0  0  0  0  0  0  0  0
   16.0624   -9.2108  -16.0039 C   0  0  0  0  0  0  0  0  0  0  0  0
   14.8413   -9.6723  -16.6957 C   0  0  0  0  0  0  0  0  0  0  0  0
   14.9294  -10.2677  -17.8010 O   0  0  0  0  0  0  0  0  0  0  0  0
   18.4008   -9.8168  -15.4556 C   0  0  0  0  0  0  0  0  0  0  0  0
   18.5141   -9.6736  -14.2127 O   0  0  0  0  0  0  0  0  0  0  0  0
   13.5837   -9.4640  -16.1542 O   0  0  0  0  0  0  0  0  0  0  0  0
   23.2422   -8.9729  -15.6374 C   0  0  0  0  0  0  0  0  0  0  0  0
   22.0056   -9.5088  -16.2911 C   0  0  1  0  0  0  0  0  0  0  0  0
   22.0503  -10.8984  -16.1886 O   0  0  0  0  0  0  0  0  0  0  0  0
   20.7392   -8.9516  -15.6779 C   0  0  2  0  0  0  0  0  0  0  0  0
   19.5494   -9.4956  -16.2480 N   0  0  0  0  0  0  0  0  0  0  0  0
   20.7442   -7.4682  -15.7122 C   0  0  0  0  0  0  0  0  0  0  0  0
   20.1734   -6.9057  -16.6740 O   0  0  0  0  0  0  0  0  0  0  0  0
   19.9582   -3.3619  -14.4528 O   0  0  0  0  0  0  0  0  0  0  0  0
   19.8763   -4.7666  -14.4430 C   0  0  0  0  0  0  0  0  0  0  0  0
   21.3056   -5.2598  -14.6300 C   0  0  2  0  0  0  0  0  0  0  0  0
   21.3653   -6.6926  -14.7050 N   0  0  0  0  0  0  0  0  0  0  0  0
   22.2036   -4.6892  -13.6015 C   0  0  0  0  0  0  0  0  0  0  0  0
   22.5989   -5.4440  -12.6780 O   0  0  0  0  0  0  0  0  0  0  0  0
   22.6465   -3.3745  -13.5775 O   0  0  0  0  0  0  0  0  0  0  0  0
  2  1  1  1
  2  3  1  0
  3  4  1  0
  4  5  2  0
  4  8  1  0
  6 13  1  0
  6  2  1  0
  7  6  2  0
 10  9  1  1
 10 12  1  0
 11 10  1  0
 12 13  1  6
 12 14  1  0
 14 19  1  0
 14 15  2  0
 17 16  1  0
 18 17  1  1
 19 18  1  0
 20 18  1  0
 20 22  1  0
 21 20  2  0
M  END
$$$$
