DTS.pdb
     RDKit          3D

 22 21  0  0  1  0  0  0  0  0999 V2000
   18.8037   -0.3715  -17.5393 N   0  0  0  0  0  0  0  0  0  0  0  0
   19.9623   -1.1064  -17.1380 C   0  0  1  0  0  0  0  0  0  0  0  0
   20.8699   -0.3268  -16.2050 C   0  0  0  0  0  0  0  0  0  0  0  0
   21.4809    0.8216  -16.9052 C   0  0  0  0  0  0  0  0  0  0  0  0
   21.7741    1.8661  -16.2672 O   0  0  0  0  0  0  0  0  0  0  0  0
   19.5596   -2.3979  -16.5656 C   0  0  0  0  0  0  0  0  0  0  0  0
   18.6862   -2.4194  -15.6629 O   0  0  0  0  0  0  0  0  0  0  0  0
   21.7431    0.7806  -18.2646 O   0  0  0  0  0  0  0  0  0  0  0  0
   17.5668   -4.8800  -17.8746 C   0  0  0  0  0  0  0  0  0  0  0  0
   18.7562   -5.6675  -17.4173 C   0  0  1  0  0  0  0  0  0  0  0  0
   19.4758   -6.0314  -18.5544 O   0  0  0  0  0  0  0  0  0  0  0  0
   19.6197   -4.8974  -16.4419 C   0  0  2  0  0  0  0  0  0  0  0  0
   20.1006   -3.6610  -16.9682 N   0  0  0  0  0  0  0  0  0  0  0  0
   20.7209   -5.7476  -15.9260 C   0  0  0  0  0  0  0  0  0  0  0  0
   21.8912   -5.4481  -16.2543 O   0  0  0  0  0  0  0  0  0  0  0  0
   19.8127   -9.3155  -14.1826 O   0  0  0  0  0  0  0  0  0  0  0  0
   20.9591   -8.7463  -13.5980 C   0  0  0  0  0  0  0  0  0  0  0  0
   21.5011   -7.7676  -14.6321 C   0  0  2  0  0  0  0  0  0  0  0  0
   20.4833   -6.8641  -15.0900 N   0  0  0  0  0  0  0  0  0  0  0  0
   22.1879   -8.4819  -15.7311 C   0  0  0  0  0  0  0  0  0  0  0  0
   21.6391   -8.4943  -16.8613 O   0  0  0  0  0  0  0  0  0  0  0  0
   23.4009   -9.1446  -15.6093 O   0  0  0  0  0  0  0  0  0  0  0  0
  2  1  1  1
  2  3  1  0
  3  4  1  0
  4  5  2  0
  4  8  1  0
  6 13  1  0
  6  2  1  0
  7  6  2  0
 10  9  1  6
 10 12  1  0
 11 10  1  0
 12 13  1  6
 12 14  1  0
 14 19  1  0
 14 15  2  0
 17 16  1  0
 18 17  1  1
 19 18  1  0
 20 18  1  0
 20 22  1  0
 21 20  2  0
M  END
$$$$
