DTS.pdb
     RDKit          3D

 22 21  0  0  1  0  0  0  0  0999 V2000
   19.7281  -12.4226  -17.7483 N   0  0  0  0  0  0  0  0  0  0  0  0
   19.5857  -11.0253  -18.0149 C   0  0  1  0  0  0  0  0  0  0  0  0
   18.1969  -10.6480  -18.4951 C   0  0  0  0  0  0  0  0  0  0  0  0
   17.9031  -11.2776  -19.7989 C   0  0  0  0  0  0  0  0  0  0  0  0
   16.8089  -11.8725  -19.9798 O   0  0  0  0  0  0  0  0  0  0  0  0
   19.9925  -10.2492  -16.8360 C   0  0  0  0  0  0  0  0  0  0  0  0
   19.3401  -10.3724  -15.7695 O   0  0  0  0  0  0  0  0  0  0  0  0
   18.8122  -11.2315  -20.8428 O   0  0  0  0  0  0  0  0  0  0  0  0
   22.9394  -10.6228  -14.8286 C   0  0  0  0  0  0  0  0  0  0  0  0
   22.9027   -9.1607  -15.1520 C   0  0  1  0  0  0  0  0  0  0  0  0
   23.8705   -8.9265  -16.1277 O   0  0  0  0  0  0  0  0  0  0  0  0
   21.5352   -8.7040  -15.6117 C   0  0  2  0  0  0  0  0  0  0  0  0
   21.1007   -9.3428  -16.8117 N   0  0  0  0  0  0  0  0  0  0  0  0
   21.4804   -7.2250  -15.7183 C   0  0  0  0  0  0  0  0  0  0  0  0
   21.7575   -6.7098  -16.8250 O   0  0  0  0  0  0  0  0  0  0  0  0
   19.1324   -4.6776  -15.5854 O   0  0  0  0  0  0  0  0  0  0  0  0
   19.8726   -4.3086  -14.4470 C   0  0  0  0  0  0  0  0  0  0  0  0
   21.2346   -4.9704  -14.6140 C   0  0  2  0  0  0  0  0  0  0  0  0
   21.1297   -6.4024  -14.6218 N   0  0  0  0  0  0  0  0  0  0  0  0
   22.1998   -4.4592  -13.6155 C   0  0  0  0  0  0  0  0  0  0  0  0
   22.5087   -3.2421  -13.6618 O   0  0  0  0  0  0  0  0  0  0  0  0
   22.7953   -5.2259  -12.6242 O   0  0  0  0  0  0  0  0  0  0  0  0
  2  1  1  1
  2  3  1  0
  3  4  1  0
  4  5  2  0
  4  8  1  0
  6 13  1  0
  6  2  1  0
  7  6  2  0
 10  9  1  6
 10 12  1  0
 11 10  1  0
 12 13  1  6
 12 14  1  0
 14 19  1  0
 14 15  2  0
 17 16  1  0
 18 17  1  1
 19 18  1  0
 20 18  1  0
 20 22  1  0
 21 20  2  0
M  END
$$$$
