DTS.pdb
     RDKit          3D

 22 21  0  0  1  0  0  0  0  0999 V2000
   18.8990  -12.2794  -16.1369 N   0  0  0  0  0  0  0  0  0  0  0  0
   18.5613  -10.8991  -16.2922 C   0  0  1  0  0  0  0  0  0  0  0  0
   17.1073  -10.6014  -15.9774 C   0  0  0  0  0  0  0  0  0  0  0  0
   16.2184  -11.1789  -17.0064 C   0  0  0  0  0  0  0  0  0  0  0  0
   16.6736  -12.0005  -17.8442 O   0  0  0  0  0  0  0  0  0  0  0  0
   19.4792  -10.0695  -15.5004 C   0  0  0  0  0  0  0  0  0  0  0  0
   19.6739  -10.3570  -14.2931 O   0  0  0  0  0  0  0  0  0  0  0  0
   14.8784  -10.8356  -17.0765 O   0  0  0  0  0  0  0  0  0  0  0  0
   22.8664   -9.9210  -15.0452 C   0  0  0  0  0  0  0  0  0  0  0  0
   22.5379   -8.5169  -15.4507 C   0  0  1  0  0  0  0  0  0  0  0  0
   22.8763   -8.3831  -16.7964 O   0  0  0  0  0  0  0  0  0  0  0  0
   21.0844   -8.1706  -15.2110 C   0  0  2  0  0  0  0  0  0  0  0  0
   20.1830   -8.9328  -16.0131 N   0  0  0  0  0  0  0  0  0  0  0  0
   20.8585   -6.7112  -15.3552 C   0  0  0  0  0  0  0  0  0  0  0  0
   20.5200   -6.2823  -16.4815 O   0  0  0  0  0  0  0  0  0  0  0  0
   19.6866   -2.5008  -13.6350 O   0  0  0  0  0  0  0  0  0  0  0  0
   19.7618   -3.8894  -13.4201 C   0  0  0  0  0  0  0  0  0  0  0  0
   20.8456   -4.3905  -14.3663 C   0  0  2  0  0  0  0  0  0  0  0  0
   21.0133   -5.8135  -14.2724 N   0  0  0  0  0  0  0  0  0  0  0  0
   22.1059   -3.6384  -14.1767 C   0  0  0  0  0  0  0  0  0  0  0  0
   22.9967   -4.1511  -13.4539 O   0  0  0  0  0  0  0  0  0  0  0  0
   22.3824   -2.4008  -14.7397 O   0  0  0  0  0  0  0  0  0  0  0  0
  2  1  1  1
  2  3  1  0
  3  4  1  0
  4  5  2  0
  4  8  1  0
  6 13  1  0
  6  2  1  0
  7  6  2  0
 10  9  1  6
 10 12  1  0
 11 10  1  0
 12 13  1  6
 12 14  1  0
 14 19  1  0
 14 15  2  0
 17 16  1  0
 18 17  1  1
 19 18  1  0
 20 18  1  0
 20 22  1  0
 21 20  2  0
M  END
$$$$
