DTS.pdb
     RDKit          3D

 22 21  0  0  1  0  0  0  0  0999 V2000
   17.2626  -12.1362  -16.5403 N   0  0  0  0  0  0  0  0  0  0  0  0
   17.8921  -10.9876  -17.1130 C   0  0  1  0  0  0  0  0  0  0  0  0
   16.9037   -9.9864  -17.6809 C   0  0  0  0  0  0  0  0  0  0  0  0
   16.1290  -10.5835  -18.7881 C   0  0  0  0  0  0  0  0  0  0  0  0
   14.8748  -10.6561  -18.7131 O   0  0  0  0  0  0  0  0  0  0  0  0
   18.7976  -10.3747  -16.1322 C   0  0  0  0  0  0  0  0  0  0  0  0
   18.3895  -10.1871  -14.9590 O   0  0  0  0  0  0  0  0  0  0  0  0
   16.7539  -11.0738  -19.9228 O   0  0  0  0  0  0  0  0  0  0  0  0
   23.1519   -9.9006  -16.5694 C   0  0  0  0  0  0  0  0  0  0  0  0
   22.3354  -10.0494  -15.3225 C   0  0  1  0  0  0  0  0  0  0  0  0
   23.0821   -9.5196  -14.2712 O   0  0  0  0  0  0  0  0  0  0  0  0
   20.9841   -9.3771  -15.4321 C   0  0  2  0  0  0  0  0  0  0  0  0
   20.1393   -9.9659  -16.4202 N   0  0  0  0  0  0  0  0  0  0  0  0
   21.1365   -7.9146  -15.6312 C   0  0  0  0  0  0  0  0  0  0  0  0
   20.9407   -7.4594  -16.7808 O   0  0  0  0  0  0  0  0  0  0  0  0
   20.3381   -3.6415  -15.0730 O   0  0  0  0  0  0  0  0  0  0  0  0
   20.1559   -5.0352  -15.0067 C   0  0  0  0  0  0  0  0  0  0  0  0
   21.5283   -5.6109  -14.6808 C   0  0  2  0  0  0  0  0  0  0  0  0
   21.4899   -7.0424  -14.5746 N   0  0  0  0  0  0  0  0  0  0  0  0
   22.1130   -4.9508  -13.4925 C   0  0  0  0  0  0  0  0  0  0  0  0
   22.1579   -5.6007  -12.4180 O   0  0  0  0  0  0  0  0  0  0  0  0
   22.6197   -3.6593  -13.4724 O   0  0  0  0  0  0  0  0  0  0  0  0
  2  1  1  1
  2  3  1  0
  3  4  1  0
  4  5  2  0
  4  8  1  0
  6 13  1  0
  6  2  1  0
  7  6  2  0
 10  9  1  6
 10 12  1  0
 11 10  1  0
 12 13  1  6
 12 14  1  0
 14 19  1  0
 14 15  2  0
 17 16  1  0
 18 17  1  1
 19 18  1  0
 20 18  1  0
 20 22  1  0
 21 20  2  0
M  END
$$$$
