DTS.pdb
     RDKit          3D

 22 21  0  0  1  0  0  0  0  0999 V2000
   29.0565  -34.1474   -6.1067 N   0  0  0  0  0  0  0  0  0  0  0  0
   28.8240  -35.5351   -5.8539 C   0  0  1  0  0  0  0  0  0  0  0  0
   28.5814  -36.3393   -7.1173 C   0  0  0  0  0  0  0  0  0  0  0  0
   27.2460  -36.0468   -7.6775 C   0  0  0  0  0  0  0  0  0  0  0  0
   26.5358  -35.1383   -7.1736 O   0  0  0  0  0  0  0  0  0  0  0  0
   29.9235  -36.0863   -5.0507 C   0  0  0  0  0  0  0  0  0  0  0  0
   29.7806  -37.2120   -4.5118 O   0  0  0  0  0  0  0  0  0  0  0  0
   26.7462  -36.7558   -8.7573 O   0  0  0  0  0  0  0  0  0  0  0  0
   33.7458  -35.9391   -6.0991 C   0  0  0  0  0  0  0  0  0  0  0  0
   33.6090  -35.6644   -4.6330 C   0  0  1  0  0  0  0  0  0  0  0  0
   33.8886  -34.3130   -4.4356 O   0  0  0  0  0  0  0  0  0  0  0  0
   32.2392  -36.0269   -4.1018 C   0  0  2  0  0  0  0  0  0  0  0  0
   31.1725  -35.4213   -4.8314 N   0  0  0  0  0  0  0  0  0  0  0  0
   32.1460  -35.7484   -2.6473 C   0  0  0  0  0  0  0  0  0  0  0  0
   31.3187  -34.8877   -2.2706 O   0  0  0  0  0  0  0  0  0  0  0  0
   31.3211  -36.3381    1.5368 O   0  0  0  0  0  0  0  0  0  0  0  0
   31.3518  -36.5666    0.1487 C   0  0  0  0  0  0  0  0  0  0  0  0
   32.7928  -36.3113   -0.2750 C   0  0  2  0  0  0  0  0  0  0  0  0
   32.9529  -36.4188   -1.6979 N   0  0  0  0  0  0  0  0  0  0  0  0
   33.7300  -37.1668    0.4862 C   0  0  0  0  0  0  0  0  0  0  0  0
   34.0654  -38.2685   -0.0166 O   0  0  0  0  0  0  0  0  0  0  0  0
   34.2717  -36.8444    1.7223 O   0  0  0  0  0  0  0  0  0  0  0  0
  2  1  1  6
  2  3  1  0
  3  4  1  0
  4  5  2  0
  4  8  1  0
  6 13  1  0
  6  2  1  0
  7  6  2  0
 10  9  1  6
 10 12  1  0
 11 10  1  0
 12 13  1  6
 12 14  1  0
 14 19  1  0
 14 15  2  0
 17 16  1  0
 18 17  1  6
 19 18  1  0
 20 18  1  0
 20 22  1  0
 21 20  2  0
M  END
$$$$
