CAC.pdb
     RDKit          3D

 18 17  0  0  1  0  0  0  0  0999 V2000
    6.9042  -14.7339   19.2787 N   0  0  0  0  0  0  0  0  0  0  0  0
    7.9253  -15.0374   20.2306 C   0  0  1  0  0  0  0  0  0  0  0  0
    8.9779  -13.9304   20.1287 C   0  0  0  0  0  0  0  0  0  0  0  0
    8.2636  -12.3221   20.5643 S   0  0  0  0  0  0  0  0  0  0  0  0
    7.3891  -15.1565   21.6018 C   0  0  0  0  0  0  0  0  0  0  0  0
    6.4129  -14.5083   22.0014 O   0  0  0  0  0  0  0  0  0  0  0  0
    7.9520  -17.6053   24.3958 C   0  0  0  0  0  0  0  0  0  0  0  0
    7.6231  -16.2260   23.8654 C   0  0  2  0  0  0  0  0  0  0  0  0
    8.0242  -16.0572   22.5026 N   0  0  0  0  0  0  0  0  0  0  0  0
    8.1993  -15.1626   24.7128 C   0  0  0  0  0  0  0  0  0  0  0  0
    9.3243  -14.6967   24.4270 O   0  0  0  0  0  0  0  0  0  0  0  0
    7.4588  -14.6990   25.8290 N   0  0  0  0  0  0  0  0  0  0  0  0
    7.9982  -13.6368   26.6376 C   0  0  1  0  0  0  0  0  0  0  0  0
    6.8550  -12.8325   27.2326 C   0  0  0  0  0  0  0  0  0  0  0  0
    5.7474  -12.2504   25.9257 S   0  0  0  0  0  0  0  0  0  0  0  0
    8.8938  -14.1670   27.6840 C   0  0  0  0  0  0  0  0  0  0  0  0
    9.4921  -13.3575   28.4344 O   0  0  0  0  0  0  0  0  0  0  0  0
    9.0994  -15.5108   27.8703 O   0  0  0  0  0  0  0  0  0  0  0  0
  2  1  1  6
  2  3  1  0
  4  3  1  0
  5  2  1  0
  6  5  2  0
  8  7  1  1
  8  9  1  0
  9  5  1  0
 10  8  1  0
 10 12  1  0
 11 10  2  0
 13 14  1  1
 13 12  1  0
 13 16  1  0
 14 15  1  0
 16 18  1  0
 17 16  2  0
M  END
$$$$
