CAC.pdb
     RDKit          3D

 18 17  0  0  1  0  0  0  0  0999 V2000
    6.1125  -18.5324   19.7129 N   0  0  0  0  0  0  0  0  0  0  0  0
    5.9112  -17.4334   20.6032 C   0  0  1  0  0  0  0  0  0  0  0  0
    5.5511  -18.0223   21.9697 C   0  0  0  0  0  0  0  0  0  0  0  0
    3.8026  -18.4980   22.0241 S   0  0  0  0  0  0  0  0  0  0  0  0
    7.0978  -16.5573   20.6816 C   0  0  0  0  0  0  0  0  0  0  0  0
    8.2555  -16.9942   20.7229 O   0  0  0  0  0  0  0  0  0  0  0  0
    7.5614  -12.8382   20.2495 C   0  0  0  0  0  0  0  0  0  0  0  0
    7.9700  -14.2005   20.7682 C   0  0  2  0  0  0  0  0  0  0  0  0
    6.8998  -15.1481   20.7111 N   0  0  0  0  0  0  0  0  0  0  0  0
    8.5226  -14.1218   22.1355 C   0  0  0  0  0  0  0  0  0  0  0  0
    9.5540  -13.4440   22.3389 O   0  0  0  0  0  0  0  0  0  0  0  0
    7.8666  -14.8184   23.1811 N   0  0  0  0  0  0  0  0  0  0  0  0
    8.4053  -14.7531   24.5147 C   0  0  1  0  0  0  0  0  0  0  0  0
    7.2747  -14.5034   25.4983 C   0  0  0  0  0  0  0  0  0  0  0  0
    6.4538  -12.9338   25.1289 S   0  0  0  0  0  0  0  0  0  0  0  0
    9.1548  -15.9804   24.8465 C   0  0  0  0  0  0  0  0  0  0  0  0
    9.2568  -16.8800   23.9765 O   0  0  0  0  0  0  0  0  0  0  0  0
    9.7457  -16.1786   26.0688 O   0  0  0  0  0  0  0  0  0  0  0  0
  2  1  1  6
  2  3  1  0
  4  3  1  0
  5  2  1  0
  6  5  2  0
  8  7  1  1
  8  9  1  0
  9  5  1  0
 10  8  1  0
 10 12  1  0
 11 10  2  0
 13 14  1  1
 13 12  1  0
 13 16  1  0
 14 15  1  0
 16 18  1  0
 17 16  2  0
M  END
$$$$
