CAC.pdb
     RDKit          3D

 18 17  0  0  1  0  0  0  0  0999 V2000
    6.9286  -18.2077   18.5157 N   0  0  0  0  0  0  0  0  0  0  0  0
    6.2012  -17.4165   19.4569 C   0  0  1  0  0  0  0  0  0  0  0  0
    5.3679  -18.3806   20.3053 C   0  0  0  0  0  0  0  0  0  0  0  0
    4.3006  -17.4689   21.4527 S   0  0  0  0  0  0  0  0  0  0  0  0
    7.0931  -16.5858   20.2914 C   0  0  0  0  0  0  0  0  0  0  0  0
    8.0684  -17.0466   20.8990 O   0  0  0  0  0  0  0  0  0  0  0  0
    7.2240  -12.8406   20.9335 C   0  0  0  0  0  0  0  0  0  0  0  0
    7.6313  -14.2831   21.1460 C   0  0  2  0  0  0  0  0  0  0  0  0
    6.8175  -15.1937   20.4009 N   0  0  0  0  0  0  0  0  0  0  0  0
    7.6384  -14.6439   22.5780 C   0  0  0  0  0  0  0  0  0  0  0  0
    6.5682  -14.5993   23.2241 O   0  0  0  0  0  0  0  0  0  0  0  0
    8.8611  -15.0317   23.1811 N   0  0  0  0  0  0  0  0  0  0  0  0
    8.8437  -15.5900   24.5082 C   0  0  1  0  0  0  0  0  0  0  0  0
    7.8759  -16.7605   24.5448 C   0  0  0  0  0  0  0  0  0  0  0  0
    7.1191  -16.9010   26.1822 S   0  0  0  0  0  0  0  0  0  0  0  0
   10.1987  -15.9898   24.9350 C   0  0  0  0  0  0  0  0  0  0  0  0
   11.0921  -16.1237   24.0629 O   0  0  0  0  0  0  0  0  0  0  0  0
   10.5222  -16.2215   26.2481 O   0  0  0  0  0  0  0  0  0  0  0  0
  2  1  1  6
  2  3  1  0
  4  3  1  0
  5  2  1  0
  6  5  2  0
  8  7  1  1
  8  9  1  0
  9  5  1  0
 10  8  1  0
 10 12  1  0
 11 10  2  0
 13 14  1  6
 13 12  1  0
 13 16  1  0
 14 15  1  0
 16 18  1  0
 17 16  2  0
M  END
$$$$
