CAC.pdb
     RDKit          3D

 18 17  0  0  1  0  0  0  0  0999 V2000
    8.4617  -14.6946   17.7920 N   0  0  0  0  0  0  0  0  0  0  0  0
    9.1881  -14.7005   19.0221 C   0  0  1  0  0  0  0  0  0  0  0  0
    9.9208  -13.3597   19.1178 C   0  0  0  0  0  0  0  0  0  0  0  0
    8.7444  -11.9993   19.3468 S   0  0  0  0  0  0  0  0  0  0  0  0
    8.3075  -14.9258   20.1865 C   0  0  0  0  0  0  0  0  0  0  0  0
    7.0951  -14.6752   20.1719 O   0  0  0  0  0  0  0  0  0  0  0  0
    8.3712  -17.2390   22.9725 C   0  0  0  0  0  0  0  0  0  0  0  0
    8.1133  -15.8141   22.5307 C   0  0  2  0  0  0  0  0  0  0  0  0
    8.8798  -15.4547   21.3775 N   0  0  0  0  0  0  0  0  0  0  0  0
    8.3414  -14.8519   23.6276 C   0  0  0  0  0  0  0  0  0  0  0  0
    9.4858  -14.3751   23.7931 O   0  0  0  0  0  0  0  0  0  0  0  0
    7.2538  -14.4951   24.4636 N   0  0  0  0  0  0  0  0  0  0  0  0
    7.4797  -13.5941   25.5637 C   0  0  1  0  0  0  0  0  0  0  0  0
    6.1712  -12.9142   25.9290 C   0  0  0  0  0  0  0  0  0  0  0  0
    6.3768  -11.9135   27.4223 S   0  0  0  0  0  0  0  0  0  0  0  0
    8.0672  -14.3010   26.7184 C   0  0  0  0  0  0  0  0  0  0  0  0
    7.6935  -15.4746   26.9625 O   0  0  0  0  0  0  0  0  0  0  0  0
    9.0067  -13.7269   27.5372 O   0  0  0  0  0  0  0  0  0  0  0  0
  2  1  1  6
  2  3  1  0
  4  3  1  0
  5  2  1  0
  6  5  2  0
  8  7  1  1
  8  9  1  0
  9  5  1  0
 10  8  1  0
 10 12  1  0
 11 10  2  0
 13 14  1  1
 13 12  1  0
 13 16  1  0
 14 15  1  0
 16 18  1  0
 17 16  2  0
M  END
$$$$
