CAC.pdb
     RDKit          3D

 18 17  0  0  1  0  0  0  0  0999 V2000
    6.7258  -15.1617   19.6762 N   0  0  0  0  0  0  0  0  0  0  0  0
    7.8461  -14.6829   20.4223 C   0  0  1  0  0  0  0  0  0  0  0  0
    7.8330  -13.1553   20.3219 C   0  0  0  0  0  0  0  0  0  0  0  0
    8.1820  -12.6196   18.6254 S   0  0  0  0  0  0  0  0  0  0  0  0
    7.8137  -15.1381   21.8272 C   0  0  0  0  0  0  0  0  0  0  0  0
    6.8044  -15.0531   22.5391 O   0  0  0  0  0  0  0  0  0  0  0  0
    9.8166  -17.5680   23.7353 C   0  0  0  0  0  0  0  0  0  0  0  0
    9.0618  -16.2561   23.7019 C   0  0  2  0  0  0  0  0  0  0  0  0
    8.9965  -15.6992   22.3858 N   0  0  0  0  0  0  0  0  0  0  0  0
    9.6245  -15.2771   24.6538 C   0  0  0  0  0  0  0  0  0  0  0  0
   10.2157  -14.2671   24.2124 O   0  0  0  0  0  0  0  0  0  0  0  0
    9.4782  -15.5108   26.0441 N   0  0  0  0  0  0  0  0  0  0  0  0
   10.0474  -14.5739   26.9775 C   0  0  1  0  0  0  0  0  0  0  0  0
    9.3091  -13.2506   26.8697 C   0  0  0  0  0  0  0  0  0  0  0  0
    7.5388  -13.4920   27.1550 S   0  0  0  0  0  0  0  0  0  0  0  0
   10.0131  -15.1063   28.3535 C   0  0  0  0  0  0  0  0  0  0  0  0
    9.4418  -16.2047   28.5624 O   0  0  0  0  0  0  0  0  0  0  0  0
   10.5812  -14.4488   29.4154 O   0  0  0  0  0  0  0  0  0  0  0  0
  2  1  1  6
  2  3  1  0
  4  3  1  0
  5  2  1  0
  6  5  2  0
  8  7  1  6
  8  9  1  0
  9  5  1  0
 10  8  1  0
 10 12  1  0
 11 10  2  0
 13 14  1  1
 13 12  1  0
 13 16  1  0
 14 15  1  0
 16 18  1  0
 17 16  2  0
M  END
$$$$
