CAC.pdb
     RDKit          3D

 18 17  0  0  1  0  0  0  0  0999 V2000
    7.0208  -15.3855   19.8001 N   0  0  0  0  0  0  0  0  0  0  0  0
    7.8608  -14.7235   20.7473 C   0  0  1  0  0  0  0  0  0  0  0  0
    7.4673  -13.2440   20.7400 C   0  0  0  0  0  0  0  0  0  0  0  0
    8.1991  -12.3914   19.3173 S   0  0  0  0  0  0  0  0  0  0  0  0
    7.7473  -15.3121   22.0974 C   0  0  0  0  0  0  0  0  0  0  0  0
    6.6597  -15.5348   22.6453 O   0  0  0  0  0  0  0  0  0  0  0  0
    9.6400  -17.5515   24.1529 C   0  0  0  0  0  0  0  0  0  0  0  0
    8.9597  -16.1996   24.1135 C   0  0  2  0  0  0  0  0  0  0  0  0
    8.9428  -15.6371   22.7983 N   0  0  0  0  0  0  0  0  0  0  0  0
    9.5634  -15.2555   25.0754 C   0  0  0  0  0  0  0  0  0  0  0  0
   10.6386  -14.6883   24.7810 O   0  0  0  0  0  0  0  0  0  0  0  0
    8.9052  -15.0184   26.3081 N   0  0  0  0  0  0  0  0  0  0  0  0
    9.5506  -14.2021   27.3033 C   0  0  1  0  0  0  0  0  0  0  0  0
    8.6070  -13.0883   27.7239 C   0  0  0  0  0  0  0  0  0  0  0  0
    7.7928  -12.3721   26.2756 S   0  0  0  0  0  0  0  0  0  0  0  0
    9.9844  -15.0135   28.4572 C   0  0  0  0  0  0  0  0  0  0  0  0
   10.5579  -14.4416   29.4167 O   0  0  0  0  0  0  0  0  0  0  0  0
    9.7861  -16.3695   28.5242 O   0  0  0  0  0  0  0  0  0  0  0  0
  2  1  1  6
  2  3  1  0
  4  3  1  0
  5  2  1  0
  6  5  2  0
  8  7  1  6
  8  9  1  0
  9  5  1  0
 10  8  1  0
 10 12  1  0
 11 10  2  0
 13 14  1  1
 13 12  1  0
 13 16  1  0
 14 15  1  0
 16 18  1  0
 17 16  2  0
M  END
$$$$
