CAC.pdb
     RDKit          3D

 18 17  0  0  1  0  0  0  0  0999 V2000
    6.5658  -18.7387   20.7983 N   0  0  0  0  0  0  0  0  0  0  0  0
    6.3588  -17.6913   21.7476 C   0  0  1  0  0  0  0  0  0  0  0  0
    6.3872  -18.3325   23.1375 C   0  0  0  0  0  0  0  0  0  0  0  0
    5.8246  -17.1581   24.3988 S   0  0  0  0  0  0  0  0  0  0  0  0
    7.3664  -16.6187   21.6203 C   0  0  0  0  0  0  0  0  0  0  0  0
    8.5831  -16.8413   21.5659 O   0  0  0  0  0  0  0  0  0  0  0  0
    7.1146  -12.9413   20.8326 C   0  0  0  0  0  0  0  0  0  0  0  0
    7.7970  -14.1479   21.4411 C   0  0  2  0  0  0  0  0  0  0  0  0
    6.9169  -15.2697   21.5575 N   0  0  0  0  0  0  0  0  0  0  0  0
    8.4092  -13.8293   22.7468 C   0  0  0  0  0  0  0  0  0  0  0  0
    9.4575  -13.1478   22.7794 O   0  0  0  0  0  0  0  0  0  0  0  0
    7.7894  -14.3061   23.9290 N   0  0  0  0  0  0  0  0  0  0  0  0
    8.3970  -14.0239   25.2034 C   0  0  1  0  0  0  0  0  0  0  0  0
    7.6307  -12.9028   25.8846 C   0  0  0  0  0  0  0  0  0  0  0  0
    5.9442  -13.4347   26.2674 S   0  0  0  0  0  0  0  0  0  0  0  0
    8.4541  -15.2347   26.0454 C   0  0  0  0  0  0  0  0  0  0  0  0
    7.8931  -16.2813   25.6376 O   0  0  0  0  0  0  0  0  0  0  0  0
    9.0964  -15.2630   27.2575 O   0  0  0  0  0  0  0  0  0  0  0  0
  2  1  1  6
  2  3  1  0
  4  3  1  0
  5  2  1  0
  6  5  2  0
  8  7  1  1
  8  9  1  0
  9  5  1  0
 10  8  1  0
 10 12  1  0
 11 10  2  0
 13 14  1  1
 13 12  1  0
 13 16  1  0
 14 15  1  0
 16 18  1  0
 17 16  2  0
M  END
$$$$
