CAC.pdb
     RDKit          3D

 18 17  0  0  1  0  0  0  0  0999 V2000
   -3.7656  -25.1358   21.5535 N   0  0  0  0  0  0  0  0  0  0  0  0
   -4.4795  -25.8109   22.5905 C   0  0  1  0  0  0  0  0  0  0  0  0
   -3.4819  -26.7335   23.2957 C   0  0  0  0  0  0  0  0  0  0  0  0
   -2.9834  -28.0940   22.2059 S   0  0  0  0  0  0  0  0  0  0  0  0
   -5.1122  -24.8674   23.5346 C   0  0  0  0  0  0  0  0  0  0  0  0
   -4.5831  -23.8018   23.8774 O   0  0  0  0  0  0  0  0  0  0  0  0
   -8.5464  -24.7578   25.1356 C   0  0  0  0  0  0  0  0  0  0  0  0
   -7.0858  -24.3787   25.0140 C   0  0  2  0  0  0  0  0  0  0  0  0
   -6.3871  -25.1995   24.0735 N   0  0  0  0  0  0  0  0  0  0  0  0
   -6.4057  -24.3952   26.3248 C   0  0  0  0  0  0  0  0  0  0  0  0
   -5.8408  -25.4439   26.7063 O   0  0  0  0  0  0  0  0  0  0  0  0
   -6.4125  -23.2187   27.1153 N   0  0  0  0  0  0  0  0  0  0  0  0
   -5.7868  -23.2401   28.4119 C   0  0  1  0  0  0  0  0  0  0  0  0
   -5.2050  -21.8683   28.7082 C   0  0  0  0  0  0  0  0  0  0  0  0
   -3.7730  -21.5495   27.6492 S   0  0  0  0  0  0  0  0  0  0  0  0
   -6.7399  -23.6646   29.4557 C   0  0  0  0  0  0  0  0  0  0  0  0
   -7.9690  -23.6316   29.2012 O   0  0  0  0  0  0  0  0  0  0  0  0
   -6.3368  -24.0946   30.6947 O   0  0  0  0  0  0  0  0  0  0  0  0
  2  1  1  6
  2  3  1  0
  4  3  1  0
  5  2  1  0
  6  5  2  0
  8  7  1  1
  8  9  1  0
  9  5  1  0
 10  8  1  0
 10 12  1  0
 11 10  2  0
 13 14  1  1
 13 12  1  0
 13 16  1  0
 14 15  1  0
 16 18  1  0
 17 16  2  0
M  END
$$$$
