CAC.pdb
     RDKit          3D

 18 17  0  0  1  0  0  0  0  0999 V2000
    7.4835  -16.7377   19.3375 N   0  0  0  0  0  0  0  0  0  0  0  0
    8.5156  -16.2939   20.2198 C   0  0  1  0  0  0  0  0  0  0  0  0
    8.7117  -14.7971   19.9650 C   0  0  0  0  0  0  0  0  0  0  0  0
   10.0479  -14.1388   20.9984 S   0  0  0  0  0  0  0  0  0  0  0  0
    8.1935  -16.5693   21.6349 C   0  0  0  0  0  0  0  0  0  0  0  0
    7.0935  -16.3059   22.1383 O   0  0  0  0  0  0  0  0  0  0  0  0
    9.3446  -18.9038   24.1684 C   0  0  0  0  0  0  0  0  0  0  0  0
    9.0030  -17.4660   23.8401 C   0  0  2  0  0  0  0  0  0  0  0  0
    9.1935  -17.1641   22.4548 N   0  0  0  0  0  0  0  0  0  0  0  0
    9.7549  -16.5183   24.6872 C   0  0  0  0  0  0  0  0  0  0  0  0
   10.8684  -16.1024   24.2978 O   0  0  0  0  0  0  0  0  0  0  0  0
    9.1916  -16.1059   25.9208 N   0  0  0  0  0  0  0  0  0  0  0  0
    9.9065  -15.1606   26.7383 C   0  0  1  0  0  0  0  0  0  0  0  0
    8.9505  -14.0715   27.1944 C   0  0  0  0  0  0  0  0  0  0  0  0
    9.7872  -12.9309   28.3225 S   0  0  0  0  0  0  0  0  0  0  0  0
   10.5552  -15.8302   27.8823 C   0  0  0  0  0  0  0  0  0  0  0  0
   10.0164  -16.8553   28.3675 O   0  0  0  0  0  0  0  0  0  0  0  0
   11.7251  -15.3773   28.4381 O   0  0  0  0  0  0  0  0  0  0  0  0
  2  1  1  6
  2  3  1  0
  4  3  1  0
  5  2  1  0
  6  5  2  0
  8  7  1  6
  8  9  1  0
  9  5  1  0
 10  8  1  0
 10 12  1  0
 11 10  2  0
 13 14  1  1
 13 12  1  0
 13 16  1  0
 14 15  1  0
 16 18  1  0
 17 16  2  0
M  END
$$$$
