CAC.pdb
     RDKit          3D

 18 17  0  0  1  0  0  0  0  0999 V2000
    7.6994  -15.3712   18.2777 N   0  0  0  0  0  0  0  0  0  0  0  0
    8.2861  -14.6396   19.3554 C   0  0  1  0  0  0  0  0  0  0  0  0
    8.0127  -13.1563   19.0929 C   0  0  0  0  0  0  0  0  0  0  0  0
    8.6960  -12.1316   20.4232 S   0  0  0  0  0  0  0  0  0  0  0  0
    7.7614  -15.0676   20.6682 C   0  0  0  0  0  0  0  0  0  0  0  0
    6.5515  -15.1818   20.9048 O   0  0  0  0  0  0  0  0  0  0  0  0
    8.8421  -17.0907   23.4306 C   0  0  0  0  0  0  0  0  0  0  0  0
    8.3009  -15.7342   23.0319 C   0  0  2  0  0  0  0  0  0  0  0  0
    8.6895  -15.3614   21.7066 N   0  0  0  0  0  0  0  0  0  0  0  0
    8.6833  -14.6868   24.0002 C   0  0  0  0  0  0  0  0  0  0  0  0
    9.7883  -14.1141   23.8752 O   0  0  0  0  0  0  0  0  0  0  0  0
    7.7848  -14.3595   25.0464 N   0  0  0  0  0  0  0  0  0  0  0  0
    8.1830  -13.3947   26.0382 C   0  0  1  0  0  0  0  0  0  0  0  0
    7.1076  -12.3283   26.1574 C   0  0  0  0  0  0  0  0  0  0  0  0
    5.5149  -13.0830   26.5664 S   0  0  0  0  0  0  0  0  0  0  0  0
    8.4516  -14.0451   27.3355 C   0  0  0  0  0  0  0  0  0  0  0  0
    8.8971  -13.3482   28.2801 O   0  0  0  0  0  0  0  0  0  0  0  0
    8.2337  -15.3824   27.5515 O   0  0  0  0  0  0  0  0  0  0  0  0
  2  1  1  6
  2  3  1  0
  4  3  1  0
  5  2  1  0
  6  5  2  0
  8  7  1  1
  8  9  1  0
  9  5  1  0
 10  8  1  0
 10 12  1  0
 11 10  2  0
 13 14  1  1
 13 12  1  0
 13 16  1  0
 14 15  1  0
 16 18  1  0
 17 16  2  0
M  END
$$$$
