NST.pdb
     RDKit          3D

 22 21  0  0  1  0  0  0  0  0999 V2000
   17.8068  -13.7932  -14.7844 N   0  0  0  0  0  0  0  0  0  0  0  0
   17.2353  -12.4871  -14.8854 C   0  0  0  0  0  0  0  0  0  0  0  0
   16.0002  -12.3453  -14.6950 O   0  0  0  0  0  0  0  0  0  0  0  0
   18.0973  -11.3217  -15.2113 C   0  0  0  0  0  0  0  0  0  0  0  0
   17.4239  -10.5045  -16.3098 C   0  0  2  0  0  0  0  0  0  0  0  0
   17.4797  -11.3253  -17.5105 N   0  0  0  0  0  0  0  0  0  0  0  0
   18.1541   -9.2229  -16.5270 C   0  0  0  0  0  0  0  0  0  0  0  0
   19.1958   -9.1372  -17.1965 O   0  0  0  0  0  0  0  0  0  0  0  0
   16.4609   -5.7540  -15.0076 O   0  0  0  0  0  0  0  0  0  0  0  0
   17.2198   -5.6429  -16.1637 C   0  0  0  0  0  0  0  0  0  0  0  0
   18.2660   -6.7366  -16.1550 C   0  0  2  0  0  0  0  0  0  0  0  0
   17.6450   -8.0397  -15.9472 N   0  0  0  0  0  0  0  0  0  0  0  0
   19.3285   -6.5388  -15.1656 C   0  0  0  0  0  0  0  0  0  0  0  0
   19.0809   -6.8698  -13.9585 O   0  0  0  0  0  0  0  0  0  0  0  0
   22.9435   -7.8332  -15.1807 C   0  0  0  0  0  0  0  0  0  0  0  0
   22.9752   -6.3629  -14.8406 C   0  0  1  0  0  0  0  0  0  0  0  0
   23.3661   -5.6603  -15.9664 O   0  0  0  0  0  0  0  0  0  0  0  0
   21.5999   -5.9568  -14.3637 C   0  0  2  0  0  0  0  0  0  0  0  0
   20.6162   -6.0085  -15.4375 N   0  0  0  0  0  0  0  0  0  0  0  0
   21.6167   -4.5847  -13.8153 C   0  0  0  0  0  0  0  0  0  0  0  0
   22.3978   -4.2259  -12.7183 O   0  0  0  0  0  0  0  0  0  0  0  0
   20.9156   -3.6644  -14.3219 O   0  0  0  0  0  0  0  0  0  0  0  0
  1  2  1  0
  2  3  2  0
  2  4  1  0
  4  5  1  0
  5  6  1  6
  5  7  1  0
  7  8  2  0
  9 10  1  0
 11 10  1  1
 11 13  1  0
 12  7  1  0
 12 11  1  0
 13 14  2  0
 16 15  1  6
 16 18  1  0
 17 16  1  0
 18 20  1  0
 19 13  1  0
 18 19  1  6
 20 22  2  0
 20 21  1  0
M  END
$$$$
