NST.pdb
     RDKit          3D

 22 21  0  0  1  0  0  0  0  0999 V2000
   15.9287  -13.4287  -15.4672 N   0  0  0  0  0  0  0  0  0  0  0  0
   16.2655  -12.5058  -14.4291 C   0  0  0  0  0  0  0  0  0  0  0  0
   15.7598  -12.6601  -13.2880 O   0  0  0  0  0  0  0  0  0  0  0  0
   17.2002  -11.3847  -14.7058 C   0  0  0  0  0  0  0  0  0  0  0  0
   17.5148  -11.3644  -16.1987 C   0  0  2  0  0  0  0  0  0  0  0  0
   18.1943  -12.6200  -16.4816 N   0  0  0  0  0  0  0  0  0  0  0  0
   18.4019  -10.2124  -16.5282 C   0  0  0  0  0  0  0  0  0  0  0  0
   19.6412  -10.2760  -16.4974 O   0  0  0  0  0  0  0  0  0  0  0  0
   16.6813   -6.4793  -17.4511 O   0  0  0  0  0  0  0  0  0  0  0  0
   17.8027   -6.8887  -18.1580 C   0  0  0  0  0  0  0  0  0  0  0  0
   18.6089   -7.8190  -17.2775 C   0  0  2  0  0  0  0  0  0  0  0  0
   17.8150   -8.9811  -16.8956 N   0  0  0  0  0  0  0  0  0  0  0  0
   19.1516   -7.1818  -16.0748 C   0  0  0  0  0  0  0  0  0  0  0  0
   18.4150   -7.1620  -15.0331 O   0  0  0  0  0  0  0  0  0  0  0  0
   22.4448   -7.8747  -14.2189 C   0  0  0  0  0  0  0  0  0  0  0  0
   22.3158   -6.3816  -14.4000 C   0  0  1  0  0  0  0  0  0  0  0  0
   23.1455   -5.9920  -15.4363 O   0  0  0  0  0  0  0  0  0  0  0  0
   20.8656   -6.0614  -14.6791 C   0  0  2  0  0  0  0  0  0  0  0  0
   20.4335   -6.5827  -15.9694 N   0  0  0  0  0  0  0  0  0  0  0  0
   20.6373   -4.6014  -14.6683 C   0  0  0  0  0  0  0  0  0  0  0  0
   20.8916   -3.8116  -13.5486 O   0  0  0  0  0  0  0  0  0  0  0  0
   20.1962   -3.9963  -15.6854 O   0  0  0  0  0  0  0  0  0  0  0  0
  1  2  1  0
  2  3  2  0
  2  4  1  0
  4  5  1  0
  5  6  1  1
  5  7  1  0
  7  8  2  0
  9 10  1  0
 11 10  1  1
 11 13  1  0
 12  7  1  0
 12 11  1  0
 13 14  2  0
 16 15  1  6
 16 18  1  0
 17 16  1  0
 18 20  1  0
 19 13  1  0
 18 19  1  6
 20 22  2  0
 20 21  1  0
M  END
$$$$
