NST.pdb
     RDKit          3D

 22 21  0  0  1  0  0  0  0  0999 V2000
   19.5015  -14.4923  -16.0650 N   0  0  0  0  0  0  0  0  0  0  0  0
   20.4916  -13.8734  -16.8893 C   0  0  0  0  0  0  0  0  0  0  0  0
   21.3833  -14.5891  -17.4133 O   0  0  0  0  0  0  0  0  0  0  0  0
   20.4581  -12.4056  -17.1163 C   0  0  0  0  0  0  0  0  0  0  0  0
   19.2400  -11.8259  -16.4032 C   0  0  2  0  0  0  0  0  0  0  0  0
   18.0870  -12.2104  -17.2040 N   0  0  0  0  0  0  0  0  0  0  0  0
   19.3409  -10.3406  -16.3244 C   0  0  0  0  0  0  0  0  0  0  0  0
   20.0012   -9.6590  -17.1247 O   0  0  0  0  0  0  0  0  0  0  0  0
   16.2569   -8.1983  -14.9991 O   0  0  0  0  0  0  0  0  0  0  0  0
   17.4189   -7.7629  -14.3786 C   0  0  0  0  0  0  0  0  0  0  0  0
   18.6010   -8.2077  -15.2127 C   0  0  2  0  0  0  0  0  0  0  0  0
   18.6551   -9.6628  -15.2921 N   0  0  0  0  0  0  0  0  0  0  0  0
   19.8906   -7.6962  -14.7414 C   0  0  0  0  0  0  0  0  0  0  0  0
   20.4555   -8.3147  -13.7788 O   0  0  0  0  0  0  0  0  0  0  0  0
   23.0905   -7.1511  -16.7735 C   0  0  0  0  0  0  0  0  0  0  0  0
   22.8371   -5.9097  -15.9528 C   0  0  1  0  0  0  0  0  0  0  0  0
   22.2842   -4.9449  -16.7759 O   0  0  0  0  0  0  0  0  0  0  0  0
   21.9208   -6.2766  -14.8086 C   0  0  2  0  0  0  0  0  0  0  0  0
   20.5686   -6.5662  -15.2678 N   0  0  0  0  0  0  0  0  0  0  0  0
   21.8504   -5.1817  -13.8186 C   0  0  0  0  0  0  0  0  0  0  0  0
   20.6552   -4.5447  -13.4898 O   0  0  0  0  0  0  0  0  0  0  0  0
   22.8823   -4.7689  -13.2188 O   0  0  0  0  0  0  0  0  0  0  0  0
  1  2  1  0
  2  3  2  0
  2  4  1  0
  4  5  1  0
  5  6  1  6
  5  7  1  0
  7  8  2  0
  9 10  1  0
 11 10  1  1
 11 13  1  0
 12  7  1  0
 12 11  1  0
 13 14  2  0
 16 15  1  6
 16 18  1  0
 17 16  1  0
 18 20  1  0
 19 13  1  0
 18 19  1  6
 20 22  2  0
 20 21  1  0
M  END
$$$$
