NST.pdb
     RDKit          3D

 22 21  0  0  1  0  0  0  0  0999 V2000
   18.3931  -12.9019  -18.9059 N   0  0  0  0  0  0  0  0  0  0  0  0
   18.8798  -11.5656  -19.0489 C   0  0  0  0  0  0  0  0  0  0  0  0
   19.2986  -11.1859  -20.1724 O   0  0  0  0  0  0  0  0  0  0  0  0
   18.8863  -10.6480  -17.8806 C   0  0  0  0  0  0  0  0  0  0  0  0
   20.2886  -10.0687  -17.7186 C   0  0  2  0  0  0  0  0  0  0  0  0
   21.1705  -11.2078  -17.5108 N   0  0  0  0  0  0  0  0  0  0  0  0
   20.3414   -9.1543  -16.5423 C   0  0  0  0  0  0  0  0  0  0  0  0
   19.4977   -8.2692  -16.3287 O   0  0  0  0  0  0  0  0  0  0  0  0
   21.7480   -9.9632  -12.6294 O   0  0  0  0  0  0  0  0  0  0  0  0
   22.4628   -9.0808  -13.4265 C   0  0  0  0  0  0  0  0  0  0  0  0
   21.5096   -8.4594  -14.4245 C   0  0  2  0  0  0  0  0  0  0  0  0
   21.3997   -9.2919  -15.6168 N   0  0  0  0  0  0  0  0  0  0  0  0
   21.8618   -7.0917  -14.8148 C   0  0  0  0  0  0  0  0  0  0  0  0
   22.7935   -6.9437  -15.6739 O   0  0  0  0  0  0  0  0  0  0  0  0
   19.7615   -4.4775  -16.4355 C   0  0  0  0  0  0  0  0  0  0  0  0
   20.4429   -3.7957  -15.2737 C   0  0  1  0  0  0  0  0  0  0  0  0
   19.5296   -3.6689  -14.2423 O   0  0  0  0  0  0  0  0  0  0  0  0
   21.6423   -4.6240  -14.8750 C   0  0  2  0  0  0  0  0  0  0  0  0
   21.2509   -5.9118  -14.3167 N   0  0  0  0  0  0  0  0  0  0  0  0
   22.4629   -3.9134  -13.8723 C   0  0  0  0  0  0  0  0  0  0  0  0
   23.0348   -2.6668  -14.1196 O   0  0  0  0  0  0  0  0  0  0  0  0
   22.6858   -4.4098  -12.7325 O   0  0  0  0  0  0  0  0  0  0  0  0
  1  2  1  0
  2  3  2  0
  2  4  1  0
  4  5  1  0
  5  6  1  1
  5  7  1  0
  7  8  2  0
  9 10  1  0
 11 10  1  1
 11 13  1  0
 12  7  1  0
 12 11  1  0
 13 14  2  0
 16 15  1  6
 16 18  1  0
 17 16  1  0
 18 20  1  0
 19 13  1  0
 18 19  1  1
 20 22  2  0
 20 21  1  0
M  END
$$$$
