NST.pdb
     RDKit          3D

 22 21  0  0  1  0  0  0  0  0999 V2000
   21.0331  -12.7722  -19.8905 N   0  0  0  0  0  0  0  0  0  0  0  0
   20.4887  -11.5040  -20.2621 C   0  0  0  0  0  0  0  0  0  0  0  0
   20.3791  -11.2212  -21.4827 O   0  0  0  0  0  0  0  0  0  0  0  0
   20.0623  -10.5421  -19.2132 C   0  0  0  0  0  0  0  0  0  0  0  0
   20.3678  -11.1414  -17.8437 C   0  0  2  0  0  0  0  0  0  0  0  0
   19.4670  -12.2747  -17.6928 N   0  0  0  0  0  0  0  0  0  0  0  0
   20.1188  -10.1382  -16.7693 C   0  0  0  0  0  0  0  0  0  0  0  0
   18.9832   -9.7607  -16.4394 O   0  0  0  0  0  0  0  0  0  0  0  0
   23.0166   -9.6859  -14.0219 O   0  0  0  0  0  0  0  0  0  0  0  0
   21.7094   -9.3495  -13.7011 C   0  0  0  0  0  0  0  0  0  0  0  0
   21.0657   -8.7208  -14.9182 C   0  0  2  0  0  0  0  0  0  0  0  0
   21.2220   -9.5821  -16.0845 N   0  0  0  0  0  0  0  0  0  0  0  0
   21.5647   -7.3792  -15.2316 C   0  0  0  0  0  0  0  0  0  0  0  0
   22.6098   -7.2924  -15.9584 O   0  0  0  0  0  0  0  0  0  0  0  0
   19.7579   -4.4185  -16.8500 C   0  0  0  0  0  0  0  0  0  0  0  0
   20.4772   -3.9040  -15.6266 C   0  0  1  0  0  0  0  0  0  0  0  0
   19.5507   -3.7287  -14.6142 O   0  0  0  0  0  0  0  0  0  0  0  0
   21.5492   -4.9012  -15.2525 C   0  0  2  0  0  0  0  0  0  0  0  0
   20.9809   -6.1622  -14.7940 N   0  0  0  0  0  0  0  0  0  0  0  0
   22.4155   -4.3659  -14.1817 C   0  0  0  0  0  0  0  0  0  0  0  0
   23.2178   -3.2403  -14.3595 O   0  0  0  0  0  0  0  0  0  0  0  0
   22.4688   -4.9109  -13.0435 O   0  0  0  0  0  0  0  0  0  0  0  0
  1  2  1  0
  2  3  2  0
  2  4  1  0
  4  5  1  0
  5  6  1  1
  5  7  1  0
  7  8  2  0
  9 10  1  0
 11 10  1  1
 11 13  1  0
 12  7  1  0
 12 11  1  0
 13 14  2  0
 16 15  1  6
 16 18  1  0
 17 16  1  0
 18 20  1  0
 19 13  1  0
 18 19  1  1
 20 22  2  0
 20 21  1  0
M  END
$$$$
