NST.pdb
     RDKit          3D

 22 21  0  0  1  0  0  0  0  0999 V2000
   17.3570  -12.1256  -17.1725 N   0  0  0  0  0  0  0  0  0  0  0  0
   17.3267  -12.3664  -15.7640 C   0  0  0  0  0  0  0  0  0  0  0  0
   16.8771  -13.4626  -15.3421 O   0  0  0  0  0  0  0  0  0  0  0  0
   17.8216  -11.3297  -14.8219 C   0  0  0  0  0  0  0  0  0  0  0  0
   18.2578  -10.1063  -15.6226 C   0  0  2  0  0  0  0  0  0  0  0  0
   19.3755  -10.5443  -16.4456 N   0  0  0  0  0  0  0  0  0  0  0  0
   18.6894   -9.0117  -14.7071 C   0  0  0  0  0  0  0  0  0  0  0  0
   17.9651   -8.5456  -13.8132 O   0  0  0  0  0  0  0  0  0  0  0  0
   22.1836   -6.9696  -12.3673 O   0  0  0  0  0  0  0  0  0  0  0  0
   21.6922   -7.9870  -13.1724 C   0  0  0  0  0  0  0  0  0  0  0  0
   20.5132   -7.4495  -13.9547 C   0  0  2  0  0  0  0  0  0  0  0  0
   19.9855   -8.4693  -14.8537 N   0  0  0  0  0  0  0  0  0  0  0  0
   20.8065   -6.2322  -14.7157 C   0  0  0  0  0  0  0  0  0  0  0  0
   21.4253   -6.3629  -15.8239 O   0  0  0  0  0  0  0  0  0  0  0  0
   18.5922   -3.5833  -16.2166 C   0  0  0  0  0  0  0  0  0  0  0  0
   19.6419   -2.8624  -15.4059 C   0  0  1  0  0  0  0  0  0  0  0  0
   19.0738   -2.4613  -14.2100 O   0  0  0  0  0  0  0  0  0  0  0  0
   20.8074   -3.8013  -15.1973 C   0  0  2  0  0  0  0  0  0  0  0  0
   20.4581   -4.9138  -14.3234 N   0  0  0  0  0  0  0  0  0  0  0  0
   21.9580   -3.0885  -14.6041 C   0  0  0  0  0  0  0  0  0  0  0  0
   22.5883   -2.0217  -15.2421 O   0  0  0  0  0  0  0  0  0  0  0  0
   22.4276   -3.4179  -13.4788 O   0  0  0  0  0  0  0  0  0  0  0  0
  1  2  1  0
  2  3  2  0
  2  4  1  0
  4  5  1  0
  5  6  1  6
  5  7  1  0
  7  8  2  0
  9 10  1  0
 11 10  1  6
 11 13  1  0
 12  7  1  0
 12 11  1  0
 13 14  2  0
 16 15  1  6
 16 18  1  0
 17 16  1  0
 18 20  1  0
 19 13  1  0
 18 19  1  1
 20 22  2  0
 20 21  1  0
M  END
$$$$
