NST.pdb
     RDKit          3D

 22 21  0  0  1  0  0  0  0  0999 V2000
   23.6819  -31.2303  -16.0062 N   0  0  0  0  0  0  0  0  0  0  0  0
   23.5746  -30.8754  -17.3865 C   0  0  0  0  0  0  0  0  0  0  0  0
   22.4365  -30.8404  -17.9207 O   0  0  0  0  0  0  0  0  0  0  0  0
   24.7963  -30.5547  -18.1687 C   0  0  0  0  0  0  0  0  0  0  0  0
   26.0058  -30.6251  -17.2413 C   0  0  2  0  0  0  0  0  0  0  0  0
   26.3109  -29.2495  -16.8764 N   0  0  0  0  0  0  0  0  0  0  0  0
   27.1666  -31.2412  -17.9454 C   0  0  0  0  0  0  0  0  0  0  0  0
   27.2051  -32.4363  -18.2790 O   0  0  0  0  0  0  0  0  0  0  0  0
   31.0214  -30.4991  -20.6560 O   0  0  0  0  0  0  0  0  0  0  0  0
   29.8765  -29.9953  -20.0558 C   0  0  0  0  0  0  0  0  0  0  0  0
   29.4497  -30.9520  -18.9633 C   0  0  2  0  0  0  0  0  0  0  0  0
   28.2848  -30.4353  -18.2544 N   0  0  0  0  0  0  0  0  0  0  0  0
   30.5072  -31.2680  -17.9995 C   0  0  0  0  0  0  0  0  0  0  0  0
   30.7544  -30.4075  -17.0904 O   0  0  0  0  0  0  0  0  0  0  0  0
   31.2642  -34.5736  -15.9549 C   0  0  0  0  0  0  0  0  0  0  0  0
   32.5262  -34.0664  -16.6097 C   0  0  1  0  0  0  0  0  0  0  0  0
   32.7936  -34.8534  -17.7156 O   0  0  0  0  0  0  0  0  0  0  0  0
   32.3190  -32.6157  -16.9786 C   0  0  2  0  0  0  0  0  0  0  0  0
   31.2830  -32.4560  -17.9909 N   0  0  0  0  0  0  0  0  0  0  0  0
   33.5687  -32.0202  -17.4955 C   0  0  0  0  0  0  0  0  0  0  0  0
   34.7263  -31.9223  -16.7256 O   0  0  0  0  0  0  0  0  0  0  0  0
   33.6451  -31.5676  -18.6722 O   0  0  0  0  0  0  0  0  0  0  0  0
  1  2  1  0
  2  3  2  0
  2  4  1  0
  4  5  1  0
  5  6  1  6
  5  7  1  0
  7  8  2  0
  9 10  1  0
 11 10  1  6
 11 13  1  0
 12  7  1  0
 12 11  1  0
 13 14  2  0
 16 15  1  6
 16 18  1  0
 17 16  1  0
 18 20  1  0
 19 13  1  0
 18 19  1  6
 20 22  2  0
 20 21  1  0
M  END
$$$$
