NST.pdb
     RDKit          3D

 22 21  0  0  1  0  0  0  0  0999 V2000
   16.3944  -11.0054  -18.3016 N   0  0  0  0  0  0  0  0  0  0  0  0
   15.7754   -9.9984  -17.4980 C   0  0  0  0  0  0  0  0  0  0  0  0
   14.7058   -9.4712  -17.8976 O   0  0  0  0  0  0  0  0  0  0  0  0
   16.3957   -9.5886  -16.2117 C   0  0  0  0  0  0  0  0  0  0  0  0
   17.6621  -10.4111  -15.9930 C   0  0  2  0  0  0  0  0  0  0  0  0
   17.2254  -11.6707  -15.4090 N   0  0  0  0  0  0  0  0  0  0  0  0
   18.5875   -9.7044  -15.0619 C   0  0  0  0  0  0  0  0  0  0  0  0
   18.4351   -9.6904  -13.8300 O   0  0  0  0  0  0  0  0  0  0  0  0
   22.3071   -9.5089  -16.0612 O   0  0  0  0  0  0  0  0  0  0  0  0
   21.9819   -9.1994  -14.7485 C   0  0  0  0  0  0  0  0  0  0  0  0
   20.7069   -8.3837  -14.7521 C   0  0  2  0  0  0  0  0  0  0  0  0
   19.6973   -9.0125  -15.5957 N   0  0  0  0  0  0  0  0  0  0  0  0
   20.8907   -6.9903  -15.1665 C   0  0  0  0  0  0  0  0  0  0  0  0
   20.7629   -6.7212  -16.4072 O   0  0  0  0  0  0  0  0  0  0  0  0
   19.4835   -3.6619  -13.5072 C   0  0  0  0  0  0  0  0  0  0  0  0
   20.9456   -3.5056  -13.8485 C   0  0  1  0  0  0  0  0  0  0  0  0
   21.6827   -3.6162  -12.6829 O   0  0  0  0  0  0  0  0  0  0  0  0
   21.3129   -4.5679  -14.8586 C   0  0  2  0  0  0  0  0  0  0  0  0
   21.1993   -5.9093  -14.3008 N   0  0  0  0  0  0  0  0  0  0  0  0
   22.6976   -4.3808  -15.3396 C   0  0  0  0  0  0  0  0  0  0  0  0
   23.0940   -3.2577  -16.0633 O   0  0  0  0  0  0  0  0  0  0  0  0
   23.5949   -5.2405  -15.1138 O   0  0  0  0  0  0  0  0  0  0  0  0
  1  2  1  0
  2  3  2  0
  2  4  1  0
  4  5  1  0
  5  6  1  1
  5  7  1  0
  7  8  2  0
  9 10  1  0
 11 10  1  6
 11 13  1  0
 12  7  1  0
 12 11  1  0
 13 14  2  0
 16 15  1  1
 16 18  1  0
 17 16  1  0
 18 20  1  0
 19 13  1  0
 18 19  1  1
 20 22  2  0
 20 21  1  0
M  END
$$$$
