NST.pdb
     RDKit          3D

 22 21  0  0  1  0  0  0  0  0999 V2000
   18.9964  -12.3474  -20.1121 N   0  0  0  0  0  0  0  0  0  0  0  0
   18.2683  -11.6442  -19.1030 C   0  0  0  0  0  0  0  0  0  0  0  0
   17.0177  -11.5563  -19.2026 O   0  0  0  0  0  0  0  0  0  0  0  0
   18.9892  -11.0300  -17.9583 C   0  0  0  0  0  0  0  0  0  0  0  0
   20.4898  -11.2045  -18.1721 C   0  0  2  0  0  0  0  0  0  0  0  0
   20.7613  -12.6197  -17.9679 N   0  0  0  0  0  0  0  0  0  0  0  0
   21.2544  -10.3857  -17.1884 C   0  0  0  0  0  0  0  0  0  0  0  0
   21.2344  -10.5958  -15.9651 O   0  0  0  0  0  0  0  0  0  0  0  0
   24.7823   -7.1580  -16.6032 O   0  0  0  0  0  0  0  0  0  0  0  0
   24.1117   -8.0259  -17.4528 C   0  0  0  0  0  0  0  0  0  0  0  0
   22.8398   -8.4772  -16.7677 C   0  0  2  0  0  0  0  0  0  0  0  0
   22.0453   -9.3141  -17.6593 N   0  0  0  0  0  0  0  0  0  0  0  0
   22.0118   -7.3791  -16.2622 C   0  0  0  0  0  0  0  0  0  0  0  0
   21.3127   -6.7283  -17.1083 O   0  0  0  0  0  0  0  0  0  0  0  0
   19.0667   -7.2132  -14.2485 C   0  0  0  0  0  0  0  0  0  0  0  0
   19.9916   -6.2282  -13.5755 C   0  0  1  0  0  0  0  0  0  0  0  0
   20.5093   -6.8197  -12.4370 O   0  0  0  0  0  0  0  0  0  0  0  0
   21.0717   -5.8432  -14.5597 C   0  0  2  0  0  0  0  0  0  0  0  0
   21.9203   -6.9764  -14.9047 N   0  0  0  0  0  0  0  0  0  0  0  0
   21.9284   -4.7724  -14.0091 C   0  0  0  0  0  0  0  0  0  0  0  0
   21.4289   -3.5199  -13.6569 O   0  0  0  0  0  0  0  0  0  0  0  0
   23.1666   -4.9460  -13.8308 O   0  0  0  0  0  0  0  0  0  0  0  0
  1  2  1  0
  2  3  2  0
  2  4  1  0
  4  5  1  0
  5  6  1  1
  5  7  1  0
  7  8  2  0
  9 10  1  0
 11 10  1  6
 11 13  1  0
 12  7  1  0
 12 11  1  0
 13 14  2  0
 16 15  1  6
 16 18  1  0
 17 16  1  0
 18 20  1  0
 19 13  1  0
 18 19  1  1
 20 22  2  0
 20 21  1  0
M  END
$$$$
