NST.pdb
     RDKit          3D

 22 21  0  0  1  0  0  0  0  0999 V2000
   17.5863  -10.3839  -20.6281 N   0  0  0  0  0  0  0  0  0  0  0  0
   16.3045   -9.9427  -20.1753 C   0  0  0  0  0  0  0  0  0  0  0  0
   15.3035  -10.1133  -20.9174 O   0  0  0  0  0  0  0  0  0  0  0  0
   16.1688   -9.2933  -18.8460 C   0  0  0  0  0  0  0  0  0  0  0  0
   17.5382   -9.2586  -18.1742 C   0  0  2  0  0  0  0  0  0  0  0  0
   17.9402  -10.6481  -18.0127 N   0  0  0  0  0  0  0  0  0  0  0  0
   17.4491   -8.5897  -16.8448 C   0  0  0  0  0  0  0  0  0  0  0  0
   17.2614   -7.3704  -16.7066 O   0  0  0  0  0  0  0  0  0  0  0  0
   16.0714  -10.5889  -13.9171 O   0  0  0  0  0  0  0  0  0  0  0  0
   17.0669   -9.8214  -13.3300 C   0  0  0  0  0  0  0  0  0  0  0  0
   17.5344   -8.7936  -14.3380 C   0  0  2  0  0  0  0  0  0  0  0  0
   17.5830   -9.3717  -15.6760 N   0  0  0  0  0  0  0  0  0  0  0  0
   18.8314   -8.1913  -14.0190 C   0  0  0  0  0  0  0  0  0  0  0  0
   19.0942   -7.9707  -12.7900 O   0  0  0  0  0  0  0  0  0  0  0  0
   22.2978   -9.4139  -14.5413 C   0  0  0  0  0  0  0  0  0  0  0  0
   22.2752   -8.0066  -15.0869 C   0  0  1  0  0  0  0  0  0  0  0  0
   22.2049   -8.0722  -16.4671 O   0  0  0  0  0  0  0  0  0  0  0  0
   21.0896   -7.2852  -14.4890 C   0  0  2  0  0  0  0  0  0  0  0  0
   19.8255   -7.8314  -14.9655 N   0  0  0  0  0  0  0  0  0  0  0  0
   21.1275   -5.8456  -14.8203 C   0  0  0  0  0  0  0  0  0  0  0  0
   22.1349   -4.9979  -14.3632 O   0  0  0  0  0  0  0  0  0  0  0  0
   20.2381   -5.3121  -15.5411 O   0  0  0  0  0  0  0  0  0  0  0  0
  1  2  1  0
  2  3  2  0
  2  4  1  0
  4  5  1  0
  5  6  1  1
  5  7  1  0
  7  8  2  0
  9 10  1  0
 11 10  1  1
 11 13  1  0
 12  7  1  0
 12 11  1  0
 13 14  2  0
 16 15  1  1
 16 18  1  0
 17 16  1  0
 18 20  1  0
 19 13  1  0
 18 19  1  6
 20 22  2  0
 20 21  1  0
M  END
$$$$
