NST.pdb
     RDKit          3D

 22 21  0  0  1  0  0  0  0  0999 V2000
   15.9460  -12.1511  -15.7746 N   0  0  0  0  0  0  0  0  0  0  0  0
   15.3294  -10.8770  -15.9729 C   0  0  0  0  0  0  0  0  0  0  0  0
   14.2707  -10.8102  -16.6487 O   0  0  0  0  0  0  0  0  0  0  0  0
   15.9393   -9.6566  -15.3850 C   0  0  0  0  0  0  0  0  0  0  0  0
   17.1816  -10.0594  -14.5962 C   0  0  2  0  0  0  0  0  0  0  0  0
   16.6959  -10.6301  -13.3484 N   0  0  0  0  0  0  0  0  0  0  0  0
   18.0329   -8.8669  -14.3208 C   0  0  0  0  0  0  0  0  0  0  0  0
   17.8424   -8.1001  -13.3633 O   0  0  0  0  0  0  0  0  0  0  0  0
   21.8940   -8.5373  -13.9729 O   0  0  0  0  0  0  0  0  0  0  0  0
   21.4668   -7.9261  -15.1428 C   0  0  0  0  0  0  0  0  0  0  0  0
   20.0340   -7.4775  -14.9515 C   0  0  2  0  0  0  0  0  0  0  0  0
   19.1137   -8.5844  -15.1853 N   0  0  0  0  0  0  0  0  0  0  0  0
   19.6486   -6.3373  -15.7872 C   0  0  0  0  0  0  0  0  0  0  0  0
   19.4928   -6.5461  -17.0363 O   0  0  0  0  0  0  0  0  0  0  0  0
   16.6505   -3.9234  -15.5072 C   0  0  0  0  0  0  0  0  0  0  0  0
   17.9129   -3.1110  -15.6654 C   0  0  1  0  0  0  0  0  0  0  0  0
   18.2793   -2.6231  -14.4238 O   0  0  0  0  0  0  0  0  0  0  0  0
   18.9770   -4.0003  -16.2656 C   0  0  2  0  0  0  0  0  0  0  0  0
   19.4318   -5.0141  -15.3228 N   0  0  0  0  0  0  0  0  0  0  0  0
   20.1473   -3.2060  -16.6934 C   0  0  0  0  0  0  0  0  0  0  0  0
   20.0591   -2.1990  -17.6529 O   0  0  0  0  0  0  0  0  0  0  0  0
   21.2939   -3.4061  -16.2030 O   0  0  0  0  0  0  0  0  0  0  0  0
  1  2  1  0
  2  3  2  0
  2  4  1  0
  4  5  1  0
  5  6  1  1
  5  7  1  0
  7  8  2  0
  9 10  1  0
 11 10  1  6
 11 13  1  0
 12  7  1  0
 12 11  1  0
 13 14  2  0
 16 15  1  1
 16 18  1  0
 17 16  1  0
 18 20  1  0
 19 13  1  0
 18 19  1  1
 20 22  2  0
 20 21  1  0
M  END
$$$$
