NST.pdb
     RDKit          3D

 22 21  0  0  1  0  0  0  0  0999 V2000
   17.6130  -11.7379  -18.7435 N   0  0  0  0  0  0  0  0  0  0  0  0
   17.1124  -10.4354  -18.4342 C   0  0  0  0  0  0  0  0  0  0  0  0
   16.2735   -9.9051  -19.2066 O   0  0  0  0  0  0  0  0  0  0  0  0
   17.5835   -9.7282  -17.2156 C   0  0  0  0  0  0  0  0  0  0  0  0
   18.6103  -10.6049  -16.5048 C   0  0  2  0  0  0  0  0  0  0  0  0
   17.8483  -11.6395  -15.8211 N   0  0  0  0  0  0  0  0  0  0  0  0
   19.3880   -9.8010  -15.5191 C   0  0  0  0  0  0  0  0  0  0  0  0
   18.9164   -9.4003  -14.4430 O   0  0  0  0  0  0  0  0  0  0  0  0
   22.9268  -10.2909  -13.7818 O   0  0  0  0  0  0  0  0  0  0  0  0
   22.9468   -9.3405  -14.7923 C   0  0  0  0  0  0  0  0  0  0  0  0
   21.5706   -8.7181  -14.8898 C   0  0  2  0  0  0  0  0  0  0  0  0
   20.7301   -9.4721  -15.8126 N   0  0  0  0  0  0  0  0  0  0  0  0
   21.5803   -7.3060  -15.2809 C   0  0  0  0  0  0  0  0  0  0  0  0
   21.8964   -7.0287  -16.4856 O   0  0  0  0  0  0  0  0  0  0  0  0
   18.9421   -4.9195  -15.7722 C   0  0  0  0  0  0  0  0  0  0  0  0
   19.9039   -4.2111  -14.8493 C   0  0  1  0  0  0  0  0  0  0  0  0
   19.4109   -4.2878  -13.5589 O   0  0  0  0  0  0  0  0  0  0  0  0
   21.2588   -4.8670  -14.9822 C   0  0  2  0  0  0  0  0  0  0  0  0
   21.2653   -6.2153  -14.4296 N   0  0  0  0  0  0  0  0  0  0  0  0
   22.2969   -4.0762  -14.2889 C   0  0  0  0  0  0  0  0  0  0  0  0
   23.0015   -4.5644  -13.1901 O   0  0  0  0  0  0  0  0  0  0  0  0
   22.5960   -2.9082  -14.6654 O   0  0  0  0  0  0  0  0  0  0  0  0
  1  2  1  0
  2  3  2  0
  2  4  1  0
  4  5  1  0
  5  6  1  1
  5  7  1  0
  7  8  2  0
  9 10  1  0
 11 10  1  6
 11 13  1  0
 12  7  1  0
 12 11  1  0
 13 14  2  0
 16 15  1  6
 16 18  1  0
 17 16  1  0
 18 20  1  0
 19 13  1  0
 18 19  1  1
 20 22  2  0
 20 21  1  0
M  END
$$$$
