NST.pdb
     RDKit          3D

 22 21  0  0  1  0  0  0  0  0999 V2000
   16.6263  -11.8452  -18.2044 N   0  0  0  0  0  0  0  0  0  0  0  0
   16.6163  -12.3522  -16.8681 C   0  0  0  0  0  0  0  0  0  0  0  0
   15.8008  -13.2610  -16.5666 O   0  0  0  0  0  0  0  0  0  0  0  0
   17.5596  -11.8059  -15.8587 C   0  0  0  0  0  0  0  0  0  0  0  0
   18.4576  -10.7734  -16.5338 C   0  0  2  0  0  0  0  0  0  0  0  0
   19.4428  -11.5329  -17.2895 N   0  0  0  0  0  0  0  0  0  0  0  0
   19.1341   -9.9245  -15.5119 C   0  0  0  0  0  0  0  0  0  0  0  0
   18.5245   -9.3262  -14.6111 O   0  0  0  0  0  0  0  0  0  0  0  0
   23.2778   -9.7553  -15.5727 O   0  0  0  0  0  0  0  0  0  0  0  0
   22.6509   -9.5897  -14.3461 C   0  0  0  0  0  0  0  0  0  0  0  0
   21.2810   -8.9928  -14.5869 C   0  0  2  0  0  0  0  0  0  0  0  0
   20.5391   -9.7859  -15.5602 N   0  0  0  0  0  0  0  0  0  0  0  0
   21.3069   -7.5922  -15.0163 C   0  0  0  0  0  0  0  0  0  0  0  0
   21.5395   -7.3562  -16.2486 O   0  0  0  0  0  0  0  0  0  0  0  0
   18.9762   -5.2465  -15.7749 C   0  0  0  0  0  0  0  0  0  0  0  0
   19.8444   -4.4552  -14.8268 C   0  0  1  0  0  0  0  0  0  0  0  0
   19.2114   -4.3960  -13.5980 O   0  0  0  0  0  0  0  0  0  0  0  0
   21.1928   -5.1320  -14.7419 C   0  0  2  0  0  0  0  0  0  0  0  0
   21.0934   -6.4703  -14.1742 N   0  0  0  0  0  0  0  0  0  0  0  0
   22.1262   -4.3434  -13.9108 C   0  0  0  0  0  0  0  0  0  0  0  0
   22.5017   -3.0412  -14.2359 O   0  0  0  0  0  0  0  0  0  0  0  0
   22.6318   -4.8196  -12.8559 O   0  0  0  0  0  0  0  0  0  0  0  0
  1  2  1  0
  2  3  2  0
  2  4  1  0
  4  5  1  0
  5  6  1  1
  5  7  1  0
  7  8  2  0
  9 10  1  0
 11 10  1  6
 11 13  1  0
 12  7  1  0
 12 11  1  0
 13 14  2  0
 16 15  1  6
 16 18  1  0
 17 16  1  0
 18 20  1  0
 19 13  1  0
 18 19  1  1
 20 22  2  0
 20 21  1  0
M  END
$$$$
