NST.pdb
     RDKit          3D

 22 21  0  0  1  0  0  0  0  0999 V2000
   12.5696   -6.2420   -7.7907 N   0  0  0  0  0  0  0  0  0  0  0  0
   13.9185   -5.8995   -7.4654 C   0  0  0  0  0  0  0  0  0  0  0  0
   14.1311   -5.0344   -6.5776 O   0  0  0  0  0  0  0  0  0  0  0  0
   15.0447   -6.5622   -8.1723 C   0  0  0  0  0  0  0  0  0  0  0  0
   14.4750   -7.5408   -9.1949 C   0  0  2  0  0  0  0  0  0  0  0  0
   13.8981   -8.6332   -8.4252 N   0  0  0  0  0  0  0  0  0  0  0  0
   15.5564   -8.0521  -10.0848 C   0  0  0  0  0  0  0  0  0  0  0  0
   16.2516   -9.0437   -9.8120 O   0  0  0  0  0  0  0  0  0  0  0  0
   15.4409   -6.8795  -13.9797 O   0  0  0  0  0  0  0  0  0  0  0  0
   16.0343   -8.0847  -13.6330 C   0  0  0  0  0  0  0  0  0  0  0  0
   16.7352   -7.9067  -12.3034 C   0  0  2  0  0  0  0  0  0  0  0  0
   15.8127   -7.3835  -11.3025 N   0  0  0  0  0  0  0  0  0  0  0  0
   17.9245   -7.0531  -12.3648 C   0  0  0  0  0  0  0  0  0  0  0  0
   17.8577   -5.9059  -11.8103 O   0  0  0  0  0  0  0  0  0  0  0  0
   22.5416   -5.8861  -13.5809 C   0  0  0  0  0  0  0  0  0  0  0  0
   21.4847   -6.9626  -13.6326 C   0  0  1  0  0  0  0  0  0  0  0  0
   21.9173   -8.0389  -12.8787 O   0  0  0  0  0  0  0  0  0  0  0  0
   20.1912   -6.3826  -13.1091 C   0  0  2  0  0  0  0  0  0  0  0  0
   19.1508   -7.3961  -12.9909 N   0  0  0  0  0  0  0  0  0  0  0  0
   19.6965   -5.3112  -13.9986 C   0  0  0  0  0  0  0  0  0  0  0  0
   19.9487   -3.9618  -13.7582 O   0  0  0  0  0  0  0  0  0  0  0  0
   19.0148   -5.5731  -15.0291 O   0  0  0  0  0  0  0  0  0  0  0  0
  1  2  1  0
  2  3  2  0
  2  4  1  0
  4  5  1  0
  5  6  1  1
  5  7  1  0
  7  8  2  0
  9 10  1  0
 11 10  1  6
 11 13  1  0
 12  7  1  0
 12 11  1  0
 13 14  2  0
 16 15  1  1
 16 18  1  0
 17 16  1  0
 18 20  1  0
 19 13  1  0
 18 19  1  6
 20 22  2  0
 20 21  1  0
M  END
$$$$
