NST.pdb
     RDKit          3D

 22 21  0  0  1  0  0  0  0  0999 V2000
   14.8026  -11.2609  -10.0476 N   0  0  0  0  0  0  0  0  0  0  0  0
   14.8922  -11.9101  -11.3178 C   0  0  0  0  0  0  0  0  0  0  0  0
   14.3615  -13.0409  -11.4637 O   0  0  0  0  0  0  0  0  0  0  0  0
   15.6043  -11.2491  -12.4417 C   0  0  0  0  0  0  0  0  0  0  0  0
   14.9837   -9.8751  -12.6762 C   0  0  2  0  0  0  0  0  0  0  0  0
   13.6341  -10.1231  -13.1615 N   0  0  0  0  0  0  0  0  0  0  0  0
   15.7664   -9.1172  -13.6939 C   0  0  0  0  0  0  0  0  0  0  0  0
   15.4963   -9.1248  -14.9055 O   0  0  0  0  0  0  0  0  0  0  0  0
   17.6273   -5.3819  -15.2418 O   0  0  0  0  0  0  0  0  0  0  0  0
   16.8321   -6.2224  -14.4763 C   0  0  0  0  0  0  0  0  0  0  0  0
   17.6167   -7.4821  -14.1788 C   0  0  2  0  0  0  0  0  0  0  0  0
   16.8731   -8.3480  -13.2711 N   0  0  0  0  0  0  0  0  0  0  0  0
   18.9546   -7.2375  -13.6338 C   0  0  0  0  0  0  0  0  0  0  0  0
   19.0508   -7.0149  -12.3811 O   0  0  0  0  0  0  0  0  0  0  0  0
   22.4839   -9.0409  -13.8918 C   0  0  0  0  0  0  0  0  0  0  0  0
   22.5892   -7.5898  -14.2942 C   0  0  1  0  0  0  0  0  0  0  0  0
   22.6324   -7.5194  -15.6752 O   0  0  0  0  0  0  0  0  0  0  0  0
   21.4010   -6.8518  -13.7223 C   0  0  2  0  0  0  0  0  0  0  0  0
   20.1587   -7.2279  -14.3846 N   0  0  0  0  0  0  0  0  0  0  0  0
   21.5746   -5.3905  -13.8565 C   0  0  0  0  0  0  0  0  0  0  0  0
   22.6097   -4.6983  -13.2305 O   0  0  0  0  0  0  0  0  0  0  0  0
   20.7833   -4.6945  -14.5527 O   0  0  0  0  0  0  0  0  0  0  0  0
  1  2  1  0
  2  3  2  0
  2  4  1  0
  4  5  1  0
  5  6  1  6
  5  7  1  0
  7  8  2  0
  9 10  1  0
 11 10  1  1
 11 13  1  0
 12  7  1  0
 12 11  1  0
 13 14  2  0
 16 15  1  6
 16 18  1  0
 17 16  1  0
 18 20  1  0
 19 13  1  0
 18 19  1  6
 20 22  2  0
 20 21  1  0
M  END
$$$$
