KAM.pdb
     RDKit          3D

 23 22  0  0  1  0  0  0  0  0999 V2000
    9.4303  -14.8959   17.8865 N   0  0  0  0  0  0  0  0  0  0  0  0
    8.8712  -13.9892   18.8694 C   0  0  1  0  0  0  0  0  0  0  0  0
    7.6552  -13.2941   18.2947 C   0  0  0  0  0  0  0  0  0  0  0  0
    7.2130  -13.8965   16.9990 C   0  0  0  0  0  0  0  0  0  0  0  0
    8.4154  -14.1172   16.1111 C   0  0  0  0  0  0  0  0  0  0  0  0
    7.9931  -14.7069   14.7822 C   0  0  0  0  0  0  0  0  0  0  0  0
    9.1304  -15.0239   13.9494 N   0  0  0  0  0  0  0  0  0  0  0  0
    8.5378  -14.7367   20.1084 C   0  0  0  0  0  0  0  0  0  0  0  0
    7.8176  -14.2387   21.0165 O   0  0  0  0  0  0  0  0  0  0  0  0
    9.2253  -18.1733   21.6165 C   0  0  0  0  0  0  0  0  0  0  0  0
    8.6712  -16.7754   21.5900 C   0  0  2  0  0  0  0  0  0  0  0  0
    9.0079  -16.0724   20.3620 N   0  0  0  0  0  0  0  0  0  0  0  0
    9.0709  -15.9871   22.7871 C   0  0  0  0  0  0  0  0  0  0  0  0
   10.2589  -15.5869   22.8819 O   0  0  0  0  0  0  0  0  0  0  0  0
    6.3200  -10.6537   27.8334 C   0  0  0  0  0  0  0  0  0  0  0  0
    6.0172  -11.9013   26.5755 S   0  0  0  0  0  0  0  0  0  0  0  0
    7.4531  -12.9667   26.3085 C   0  0  0  0  0  0  0  0  0  0  0  0
    7.2188  -13.9438   25.1765 C   0  0  0  0  0  0  0  0  0  0  0  0
    8.4772  -14.7850   24.9308 C   0  0  2  0  0  0  0  0  0  0  0  0
    8.1658  -15.6672   23.8286 N   0  0  0  0  0  0  0  0  0  0  0  0
    8.7561  -15.5305   26.1786 C   0  0  0  0  0  0  0  0  0  0  0  0
    8.2726  -16.6826   26.2999 O   0  0  0  0  0  0  0  0  0  0  0  0
    9.5177  -15.0357   27.2216 O   0  0  0  0  0  0  0  0  0  0  0  0
  2  1  1  6
  2  8  1  0
  2  3  1  0
  4  3  1  0
  5  4  1  0
  6  5  1  0
  7  6  1  0
  8 12  1  0
  8  9  2  0
 11 10  1  6
 12 11  1  0
 13 14  2  0
 13 11  1  0
 16 17  1  0
 16 15  1  0
 17 18  1  0
 19 18  1  1
 19 20  1  0
 20 13  1  0
 21 19  1  0
 22 21  2  0
 23 21  1  0
M  END
$$$$
