KAM.pdb
     RDKit          3D

 23 22  0  0  1  0  0  0  0  0999 V2000
    9.2493  -19.4332   20.6996 N   0  0  0  0  0  0  0  0  0  0  0  0
   10.3920  -18.5430   20.7492 C   0  0  1  0  0  0  0  0  0  0  0  0
   11.1496  -18.6055   19.4399 C   0  0  0  0  0  0  0  0  0  0  0  0
   11.0728  -19.9554   18.8003 C   0  0  0  0  0  0  0  0  0  0  0  0
   10.2266  -19.8724   17.5514 C   0  0  0  0  0  0  0  0  0  0  0  0
   10.2481  -21.1904   16.8068 C   0  0  0  0  0  0  0  0  0  0  0  0
    9.5090  -21.1193   15.5674 N   0  0  0  0  0  0  0  0  0  0  0  0
    9.9386  -17.1618   21.0519 C   0  0  0  0  0  0  0  0  0  0  0  0
   10.7510  -16.2070   21.1930 O   0  0  0  0  0  0  0  0  0  0  0  0
    6.6384  -15.2906   21.4407 C   0  0  0  0  0  0  0  0  0  0  0  0
    8.1348  -15.4413   21.4464 C   0  0  2  0  0  0  0  0  0  0  0  0
    8.5512  -16.8139   21.2054 N   0  0  0  0  0  0  0  0  0  0  0  0
    8.7514  -14.9033   22.6892 C   0  0  0  0  0  0  0  0  0  0  0  0
    9.2653  -13.7562   22.6648 O   0  0  0  0  0  0  0  0  0  0  0  0
    6.8670  -10.7177   26.9570 C   0  0  0  0  0  0  0  0  0  0  0  0
    6.3350  -12.4304   27.0754 S   0  0  0  0  0  0  0  0  0  0  0  0
    7.7017  -13.5897   26.8375 C   0  0  0  0  0  0  0  0  0  0  0  0
    7.6499  -14.2388   25.4712 C   0  0  0  0  0  0  0  0  0  0  0  0
    8.9386  -15.0272   25.2077 C   0  0  2  0  0  0  0  0  0  0  0  0
    8.7840  -15.6318   23.9035 N   0  0  0  0  0  0  0  0  0  0  0  0
    9.0590  -16.0403   26.2798 C   0  0  0  0  0  0  0  0  0  0  0  0
    8.7451  -17.2258   26.0115 O   0  0  0  0  0  0  0  0  0  0  0  0
    9.4967  -15.7617   27.5618 O   0  0  0  0  0  0  0  0  0  0  0  0
  2  1  1  6
  2  8  1  0
  2  3  1  0
  4  3  1  0
  5  4  1  0
  6  5  1  0
  7  6  1  0
  8 12  1  0
  8  9  2  0
 11 10  1  1
 12 11  1  0
 13 14  2  0
 13 11  1  0
 16 17  1  0
 16 15  1  0
 17 18  1  0
 19 18  1  1
 19 20  1  0
 20 13  1  0
 21 19  1  0
 22 21  2  0
 23 21  1  0
M  END
$$$$
