KAM.pdb
     RDKit          3D

 23 22  0  0  1  0  0  0  0  0999 V2000
    7.1812  -18.4513   20.5076 N   0  0  0  0  0  0  0  0  0  0  0  0
    8.5958  -18.1772   20.3507 C   0  0  1  0  0  0  0  0  0  0  0  0
    9.0413  -18.5564   18.9544 C   0  0  0  0  0  0  0  0  0  0  0  0
    7.8891  -18.8685   18.0531 C   0  0  0  0  0  0  0  0  0  0  0  0
    8.4102  -19.3728   16.7275 C   0  0  0  0  0  0  0  0  0  0  0  0
    7.2630  -19.7617   15.8194 C   0  0  0  0  0  0  0  0  0  0  0  0
    7.7274  -20.1830   14.5177 N   0  0  0  0  0  0  0  0  0  0  0  0
    8.8639  -16.7455   20.6392 C   0  0  0  0  0  0  0  0  0  0  0  0
   10.0332  -16.2720   20.6451 O   0  0  0  0  0  0  0  0  0  0  0  0
    6.9717  -13.4955   20.9662 C   0  0  0  0  0  0  0  0  0  0  0  0
    8.1176  -14.4196   21.2738 C   0  0  2  0  0  0  0  0  0  0  0  0
    7.8186  -15.8011   20.9308 N   0  0  0  0  0  0  0  0  0  0  0  0
    8.5733  -14.3032   22.6856 C   0  0  0  0  0  0  0  0  0  0  0  0
    8.9207  -13.1760   23.1207 O   0  0  0  0  0  0  0  0  0  0  0  0
    6.6825  -11.0036   27.5877 C   0  0  0  0  0  0  0  0  0  0  0  0
    6.3867  -12.6432   26.9135 S   0  0  0  0  0  0  0  0  0  0  0  0
    7.8714  -13.3542   26.1661 C   0  0  0  0  0  0  0  0  0  0  0  0
    7.6063  -14.7351   25.6061 C   0  0  0  0  0  0  0  0  0  0  0  0
    8.8841  -15.3109   24.9836 C   0  0  2  0  0  0  0  0  0  0  0  0
    8.6323  -15.4130   23.5635 N   0  0  0  0  0  0  0  0  0  0  0  0
    9.1156  -16.6344   25.6042 C   0  0  0  0  0  0  0  0  0  0  0  0
    8.8192  -17.6586   24.9415 O   0  0  0  0  0  0  0  0  0  0  0  0
    9.6392  -16.8135   26.8717 O   0  0  0  0  0  0  0  0  0  0  0  0
  2  1  1  6
  2  8  1  0
  2  3  1  0
  4  3  1  0
  5  4  1  0
  6  5  1  0
  7  6  1  0
  8 12  1  0
  8  9  2  0
 11 10  1  1
 12 11  1  0
 13 14  2  0
 13 11  1  0
 16 17  1  0
 16 15  1  0
 17 18  1  0
 19 18  1  1
 19 20  1  0
 20 13  1  0
 21 19  1  0
 22 21  2  0
 23 21  1  0
M  END
$$$$
