KAM.pdb
     RDKit          3D

 23 22  0  0  1  0  0  0  0  0999 V2000
    9.5988  -18.3192   18.8410 N   0  0  0  0  0  0  0  0  0  0  0  0
    8.8698  -18.3116   20.0938 C   0  0  1  0  0  0  0  0  0  0  0  0
    9.3826  -19.4157   20.9938 C   0  0  0  0  0  0  0  0  0  0  0  0
   10.0062  -20.5360   20.2236 C   0  0  0  0  0  0  0  0  0  0  0  0
   10.4155  -21.6346   21.1768 C   0  0  0  0  0  0  0  0  0  0  0  0
   11.0319  -22.7919   20.4200 C   0  0  0  0  0  0  0  0  0  0  0  0
   11.5239  -23.8160   21.3124 N   0  0  0  0  0  0  0  0  0  0  0  0
    8.9950  -16.9797   20.7384 C   0  0  0  0  0  0  0  0  0  0  0  0
   10.0802  -16.3364   20.7389 O   0  0  0  0  0  0  0  0  0  0  0  0
    6.6866  -14.3545   22.2185 C   0  0  0  0  0  0  0  0  0  0  0  0
    8.0235  -14.9848   21.9408 C   0  0  2  0  0  0  0  0  0  0  0  0
    7.8973  -16.3308   21.4041 N   0  0  0  0  0  0  0  0  0  0  0  0
    8.9161  -14.9627   23.1313 C   0  0  0  0  0  0  0  0  0  0  0  0
    9.2289  -13.8543   23.6353 O   0  0  0  0  0  0  0  0  0  0  0  0
    9.4413  -11.5154   27.6572 C   0  0  0  0  0  0  0  0  0  0  0  0
    9.1672  -13.2907   27.5967 S   0  0  0  0  0  0  0  0  0  0  0  0
    9.9676  -14.0587   26.1692 C   0  0  0  0  0  0  0  0  0  0  0  0
    9.5632  -15.5094   26.0177 C   0  0  0  0  0  0  0  0  0  0  0  0
   10.3277  -16.1562   24.8564 C   0  0  2  0  0  0  0  0  0  0  0  0
    9.4301  -16.1424   23.7230 N   0  0  0  0  0  0  0  0  0  0  0  0
   10.6756  -17.5328   25.2739 C   0  0  0  0  0  0  0  0  0  0  0  0
    9.9039  -18.4650   24.9404 O   0  0  0  0  0  0  0  0  0  0  0  0
   11.8005  -17.8568   26.0103 O   0  0  0  0  0  0  0  0  0  0  0  0
  2  1  1  6
  2  8  1  0
  2  3  1  0
  4  3  1  0
  5  4  1  0
  6  5  1  0
  7  6  1  0
  8 12  1  0
  8  9  2  0
 11 10  1  1
 12 11  1  0
 13 14  2  0
 13 11  1  0
 16 17  1  0
 16 15  1  0
 17 18  1  0
 19 18  1  1
 19 20  1  0
 20 13  1  0
 21 19  1  0
 22 21  2  0
 23 21  1  0
M  END
$$$$
