KAM.pdb
     RDKit          3D

 23 22  0  0  1  0  0  0  0  0999 V2000
    8.2680  -18.2553   18.4802 N   0  0  0  0  0  0  0  0  0  0  0  0
    7.6378  -17.6219   19.6215 C   0  0  1  0  0  0  0  0  0  0  0  0
    7.6559  -18.5633   20.8070 C   0  0  0  0  0  0  0  0  0  0  0  0
    7.1448  -19.9258   20.4613 C   0  0  0  0  0  0  0  0  0  0  0  0
    5.6373  -19.8877   20.3659 C   0  0  0  0  0  0  0  0  0  0  0  0
    5.0964  -21.2430   19.9626 C   0  0  0  0  0  0  0  0  0  0  0  0
    3.6565  -21.2332   19.8441 N   0  0  0  0  0  0  0  0  0  0  0  0
    8.3276  -16.3434   19.9292 C   0  0  0  0  0  0  0  0  0  0  0  0
    9.5767  -16.2802   20.0939 O   0  0  0  0  0  0  0  0  0  0  0  0
    7.5267  -12.6395   20.1101 C   0  0  0  0  0  0  0  0  0  0  0  0
    8.3196  -13.8728   20.4446 C   0  0  2  0  0  0  0  0  0  0  0  0
    7.6278  -15.0935   20.0612 N   0  0  0  0  0  0  0  0  0  0  0  0
    8.7253  -13.9121   21.8757 C   0  0  0  0  0  0  0  0  0  0  0  0
    9.4276  -12.9755   22.3339 O   0  0  0  0  0  0  0  0  0  0  0  0
    5.6344  -11.3492   26.9575 C   0  0  0  0  0  0  0  0  0  0  0  0
    5.7169  -13.0211   26.3030 S   0  0  0  0  0  0  0  0  0  0  0  0
    7.2721  -13.3421   25.4391 C   0  0  0  0  0  0  0  0  0  0  0  0
    7.3218  -14.7504   24.8866 C   0  0  0  0  0  0  0  0  0  0  0  0
    8.6515  -14.9906   24.1614 C   0  0  2  0  0  0  0  0  0  0  0  0
    8.3520  -14.9644   22.7472 N   0  0  0  0  0  0  0  0  0  0  0  0
    9.1565  -16.3113   24.5988 C   0  0  0  0  0  0  0  0  0  0  0  0
    8.9659  -17.2968   23.8450 O   0  0  0  0  0  0  0  0  0  0  0  0
    9.8267  -16.5277   25.7891 O   0  0  0  0  0  0  0  0  0  0  0  0
  2  1  1  6
  2  8  1  0
  2  3  1  0
  4  3  1  0
  5  4  1  0
  6  5  1  0
  7  6  1  0
  8 12  1  0
  8  9  2  0
 11 10  1  1
 12 11  1  0
 13 14  2  0
 13 11  1  0
 16 17  1  0
 16 15  1  0
 17 18  1  0
 19 18  1  1
 19 20  1  0
 20 13  1  0
 21 19  1  0
 22 21  2  0
 23 21  1  0
M  END
$$$$
