KAM.pdb
     RDKit          3D

 23 22  0  0  1  0  0  0  0  0999 V2000
    7.1129  -18.8388   18.1668 N   0  0  0  0  0  0  0  0  0  0  0  0
    6.9989  -17.6949   19.0496 C   0  0  1  0  0  0  0  0  0  0  0  0
    5.5573  -17.5160   19.4759 C   0  0  0  0  0  0  0  0  0  0  0  0
    4.9671  -18.7725   20.0327 C   0  0  0  0  0  0  0  0  0  0  0  0
    3.5250  -18.5261   20.4101 C   0  0  0  0  0  0  0  0  0  0  0  0
    2.8971  -19.7888   20.9609 C   0  0  0  0  0  0  0  0  0  0  0  0
    1.5053  -19.5943   21.2966 N   0  0  0  0  0  0  0  0  0  0  0  0
    7.8959  -17.8732   20.2194 C   0  0  0  0  0  0  0  0  0  0  0  0
    7.8155  -18.8790   20.9766 O   0  0  0  0  0  0  0  0  0  0  0  0
   11.2338  -17.3232   21.2726 C   0  0  0  0  0  0  0  0  0  0  0  0
    9.8036  -17.1424   21.7013 C   0  0  2  0  0  0  0  0  0  0  0  0
    8.9140  -16.9200   20.5723 N   0  0  0  0  0  0  0  0  0  0  0  0
    9.6519  -16.0719   22.7237 C   0  0  0  0  0  0  0  0  0  0  0  0
    9.4676  -14.8885   22.3414 O   0  0  0  0  0  0  0  0  0  0  0  0
    6.3171  -11.3985   27.0780 C   0  0  0  0  0  0  0  0  0  0  0  0
    6.4859  -12.7669   25.9250 S   0  0  0  0  0  0  0  0  0  0  0  0
    8.0867  -13.5937   26.0734 C   0  0  0  0  0  0  0  0  0  0  0  0
    8.2537  -14.6757   25.0283 C   0  0  0  0  0  0  0  0  0  0  0  0
    9.6476  -15.3061   25.1334 C   0  0  2  0  0  0  0  0  0  0  0  0
    9.7065  -16.3309   24.1151 N   0  0  0  0  0  0  0  0  0  0  0  0
    9.7722  -15.8687   26.4967 C   0  0  0  0  0  0  0  0  0  0  0  0
    9.5942  -17.1023   26.6461 O   0  0  0  0  0  0  0  0  0  0  0  0
   10.0729  -15.1181   27.6187 O   0  0  0  0  0  0  0  0  0  0  0  0
  2  1  1  6
  2  8  1  0
  2  3  1  0
  4  3  1  0
  5  4  1  0
  6  5  1  0
  7  6  1  0
  8 12  1  0
  8  9  2  0
 11 10  1  6
 12 11  1  0
 13 14  2  0
 13 11  1  0
 16 17  1  0
 16 15  1  0
 17 18  1  0
 19 18  1  1
 19 20  1  0
 20 13  1  0
 21 19  1  0
 22 21  2  0
 23 21  1  0
M  END
$$$$
