KAM.pdb
     RDKit          3D

 23 22  0  0  1  0  0  0  0  0999 V2000
    8.7766  -13.6976   18.5386 N   0  0  0  0  0  0  0  0  0  0  0  0
    9.6060  -14.6624   19.2327 C   0  0  1  0  0  0  0  0  0  0  0  0
   10.9864  -14.0841   19.4608 C   0  0  0  0  0  0  0  0  0  0  0  0
   11.8895  -14.2827   18.2852 C   0  0  0  0  0  0  0  0  0  0  0  0
   13.2799  -13.8045   18.6330 C   0  0  0  0  0  0  0  0  0  0  0  0
   14.1580  -13.7829   17.3999 C   0  0  0  0  0  0  0  0  0  0  0  0
   15.4857  -13.2952   17.6944 N   0  0  0  0  0  0  0  0  0  0  0  0
    8.9592  -15.0514   20.5115 C   0  0  0  0  0  0  0  0  0  0  0  0
    8.3315  -14.2203   21.2233 O   0  0  0  0  0  0  0  0  0  0  0  0
    7.9439  -18.2373   22.2603 C   0  0  0  0  0  0  0  0  0  0  0  0
    8.2658  -16.7686   22.2261 C   0  0  2  0  0  0  0  0  0  0  0  0
    9.0006  -16.3933   21.0283 N   0  0  0  0  0  0  0  0  0  0  0  0
    8.9744  -16.3174   23.4544 C   0  0  0  0  0  0  0  0  0  0  0  0
   10.2278  -16.4031   23.4987 O   0  0  0  0  0  0  0  0  0  0  0  0
    6.9198  -10.4277   25.6175 C   0  0  0  0  0  0  0  0  0  0  0  0
    6.9259  -11.9807   26.5222 S   0  0  0  0  0  0  0  0  0  0  0  0
    8.0186  -13.2079   25.7683 C   0  0  0  0  0  0  0  0  0  0  0  0
    8.0437  -14.4950   26.5643 C   0  0  0  0  0  0  0  0  0  0  0  0
    8.9179  -15.5393   25.8595 C   0  0  2  0  0  0  0  0  0  0  0  0
    8.2935  -15.7933   24.5804 N   0  0  0  0  0  0  0  0  0  0  0  0
    8.9380  -16.7448   26.7179 C   0  0  0  0  0  0  0  0  0  0  0  0
    9.5715  -16.6897   27.8003 O   0  0  0  0  0  0  0  0  0  0  0  0
    8.3011  -17.9308   26.4011 O   0  0  0  0  0  0  0  0  0  0  0  0
  2  1  1  1
  2  8  1  0
  2  3  1  0
  4  3  1  0
  5  4  1  0
  6  5  1  0
  7  6  1  0
  8 12  1  0
  8  9  2  0
 11 10  1  1
 12 11  1  0
 13 14  2  0
 13 11  1  0
 16 17  1  0
 16 15  1  0
 17 18  1  0
 19 18  1  1
 19 20  1  0
 20 13  1  0
 21 19  1  0
 22 21  2  0
 23 21  1  0
M  END
$$$$
