KAM.pdb
     RDKit          3D

 23 22  0  0  1  0  0  0  0  0999 V2000
    9.7341  -15.3249   18.0816 N   0  0  0  0  0  0  0  0  0  0  0  0
    8.7720  -14.6056   18.8925 C   0  0  1  0  0  0  0  0  0  0  0  0
    7.4871  -14.4123   18.1155 C   0  0  0  0  0  0  0  0  0  0  0  0
    7.6637  -14.6587   16.6508 C   0  0  0  0  0  0  0  0  0  0  0  0
    7.8928  -13.3432   15.9438 C   0  0  0  0  0  0  0  0  0  0  0  0
    8.6757  -13.5566   14.6658 C   0  0  0  0  0  0  0  0  0  0  0  0
    7.8078  -13.8298   13.5434 N   0  0  0  0  0  0  0  0  0  0  0  0
    8.5372  -15.3402   20.1614 C   0  0  0  0  0  0  0  0  0  0  0  0
    7.7096  -14.9374   21.0240 O   0  0  0  0  0  0  0  0  0  0  0  0
    9.8300  -18.4816   21.8987 C   0  0  0  0  0  0  0  0  0  0  0  0
    9.0428  -17.2052   21.7848 C   0  0  2  0  0  0  0  0  0  0  0  0
    9.2305  -16.5551   20.4973 N   0  0  0  0  0  0  0  0  0  0  0  0
    9.3226  -16.2676   22.9059 C   0  0  0  0  0  0  0  0  0  0  0  0
   10.4524  -15.7201   22.9723 O   0  0  0  0  0  0  0  0  0  0  0  0
    6.9668  -10.7594   27.5776 C   0  0  0  0  0  0  0  0  0  0  0  0
    6.7571  -11.8933   26.1990 S   0  0  0  0  0  0  0  0  0  0  0  0
    7.3716  -13.5510   26.5765 C   0  0  0  0  0  0  0  0  0  0  0  0
    7.2355  -14.4793   25.3888 C   0  0  0  0  0  0  0  0  0  0  0  0
    8.6033  -15.0579   25.0065 C   0  0  2  0  0  0  0  0  0  0  0  0
    8.3660  -15.9646   23.9056 N   0  0  0  0  0  0  0  0  0  0  0  0
    9.1318  -15.7571   26.1991 C   0  0  0  0  0  0  0  0  0  0  0  0
    9.5141  -15.0614   27.1717 O   0  0  0  0  0  0  0  0  0  0  0  0
    9.2311  -17.1321   26.3090 O   0  0  0  0  0  0  0  0  0  0  0  0
  2  1  1  6
  2  8  1  0
  2  3  1  0
  4  3  1  0
  5  4  1  0
  6  5  1  0
  7  6  1  0
  8 12  1  0
  8  9  2  0
 11 10  1  6
 12 11  1  0
 13 14  2  0
 13 11  1  0
 16 17  1  0
 16 15  1  0
 17 18  1  0
 19 18  1  1
 19 20  1  0
 20 13  1  0
 21 19  1  0
 22 21  2  0
 23 21  1  0
M  END
$$$$
