KAM.pdb
     RDKit          3D

 23 22  0  0  1  0  0  0  0  0999 V2000
    5.4958  -18.3143   20.0622 N   0  0  0  0  0  0  0  0  0  0  0  0
    5.0203  -17.4449   21.1200 C   0  0  1  0  0  0  0  0  0  0  0  0
    4.2251  -18.2481   22.1272 C   0  0  0  0  0  0  0  0  0  0  0  0
    3.5032  -19.3972   21.4983 C   0  0  0  0  0  0  0  0  0  0  0  0
    2.0569  -19.0209   21.2756 C   0  0  0  0  0  0  0  0  0  0  0  0
    1.2907  -20.1844   20.6830 C   0  0  0  0  0  0  0  0  0  0  0  0
    1.0866  -21.2404   21.6477 N   0  0  0  0  0  0  0  0  0  0  0  0
    6.1708  -16.7559   21.7575 C   0  0  0  0  0  0  0  0  0  0  0  0
    6.0796  -16.2123   22.8922 O   0  0  0  0  0  0  0  0  0  0  0  0
    7.3776  -14.3161   20.3970 C   0  0  0  0  0  0  0  0  0  0  0  0
    8.1816  -15.3953   21.0684 C   0  0  2  0  0  0  0  0  0  0  0  0
    7.4631  -16.6582   21.1330 N   0  0  0  0  0  0  0  0  0  0  0  0
    8.6665  -14.9836   22.4136 C   0  0  0  0  0  0  0  0  0  0  0  0
    9.6008  -14.1462   22.4925 O   0  0  0  0  0  0  0  0  0  0  0  0
    6.5141  -10.6996   27.5864 C   0  0  0  0  0  0  0  0  0  0  0  0
    6.1591  -12.3400   26.9434 S   0  0  0  0  0  0  0  0  0  0  0  0
    7.5912  -13.0786   26.1238 C   0  0  0  0  0  0  0  0  0  0  0  0
    7.2758  -14.4586   25.5880 C   0  0  0  0  0  0  0  0  0  0  0  0
    8.5204  -15.0734   24.9363 C   0  0  2  0  0  0  0  0  0  0  0  0
    8.1175  -15.4973   23.6140 N   0  0  0  0  0  0  0  0  0  0  0  0
    8.9399  -16.2131   25.7822 C   0  0  0  0  0  0  0  0  0  0  0  0
    8.7384  -17.3750   25.3518 O   0  0  0  0  0  0  0  0  0  0  0  0
    9.5414  -16.0774   27.0201 O   0  0  0  0  0  0  0  0  0  0  0  0
  2  1  1  6
  2  8  1  0
  2  3  1  0
  4  3  1  0
  5  4  1  0
  6  5  1  0
  7  6  1  0
  8 12  1  0
  8  9  2  0
 11 10  1  1
 12 11  1  0
 13 14  2  0
 13 11  1  0
 16 17  1  0
 16 15  1  0
 17 18  1  0
 19 18  1  1
 19 20  1  0
 20 13  1  0
 21 19  1  0
 22 21  2  0
 23 21  1  0
M  END
$$$$
