AMC.pdb
     RDKit          3D

 20 19  0  0  1  0  0  0  0  0999 V2000
   22.4549  -14.2786  -19.7368 C   0  0  0  0  0  0  0  0  0  0  0  0
   22.3987  -12.7927  -20.0430 C   0  0  2  0  0  0  0  0  0  0  0  0
   23.4548  -12.4947  -20.9667 N   0  0  0  0  0  0  0  0  0  0  0  0
   22.6107  -12.0829  -18.7593 C   0  0  0  0  0  0  0  0  0  0  0  0
   21.7626  -12.1993  -17.8306 O   0  0  0  0  0  0  0  0  0  0  0  0
   27.9236  -11.6950  -15.8027 C   0  0  0  0  0  0  0  0  0  0  0  0
   27.5397   -9.9516  -15.6175 S   0  0  0  0  0  0  0  0  0  0  0  0
   25.7493   -9.6401  -15.8688 C   0  0  0  0  0  0  0  0  0  0  0  0
   25.3328  -10.5337  -16.9945 C   0  0  0  0  0  0  0  0  0  0  0  0
   23.8602  -10.4534  -17.3643 C   0  0  2  0  0  0  0  0  0  0  0  0
   23.7670  -11.2775  -18.5849 N   0  0  0  0  0  0  0  0  0  0  0  0
   23.4530   -9.0603  -17.6751 C   0  0  0  0  0  0  0  0  0  0  0  0
   24.0777   -8.4298  -18.6019 O   0  0  0  0  0  0  0  0  0  0  0  0
   22.4277   -8.3423  -17.0485 N   0  0  0  0  0  0  0  0  0  0  0  0
   22.1623   -6.9638  -17.3472 C   0  0  1  0  0  0  0  0  0  0  0  0
   20.9723   -6.8077  -18.2920 C   0  0  0  0  0  0  0  0  0  0  0  0
   19.5209   -7.4700  -17.4378 S   0  0  0  0  0  0  0  0  0  0  0  0
   21.9643   -6.1243  -16.1463 C   0  0  0  0  0  0  0  0  0  0  0  0
   21.8124   -6.6360  -14.8765 O   0  0  0  0  0  0  0  0  0  0  0  0
   21.9269   -4.8618  -16.2511 O   0  0  0  0  0  0  0  0  0  0  0  0
  2  4  1  0
  2  1  1  1
  3  2  1  0
  4  5  2  0
  7  6  1  0
  8  9  1  0
  8  7  1  0
 10  9  1  6
 10 12  1  0
 11 10  1  0
 11  4  1  0
 12 13  2  0
 14 12  1  0
 14 15  1  0
 15 18  1  0
 16 17  1  0
 15 16  1  6
 18 20  2  0
 18 19  1  0
M  END
$$$$
