AMC.pdb
     RDKit          3D

 20 19  0  0  1  0  0  0  0  0999 V2000
   19.9865  -12.2806  -21.5972 C   0  0  0  0  0  0  0  0  0  0  0  0
   20.5101  -10.8575  -21.5240 C   0  0  2  0  0  0  0  0  0  0  0  0
   21.8217  -10.8421  -22.1045 N   0  0  0  0  0  0  0  0  0  0  0  0
   20.5693  -10.4966  -20.0877 C   0  0  0  0  0  0  0  0  0  0  0  0
   19.5019  -10.4091  -19.4183 O   0  0  0  0  0  0  0  0  0  0  0  0
   25.8614  -10.4094  -14.2655 C   0  0  0  0  0  0  0  0  0  0  0  0
   25.2819  -10.7391  -15.9319 S   0  0  0  0  0  0  0  0  0  0  0  0
   23.5840  -10.0901  -16.1803 C   0  0  0  0  0  0  0  0  0  0  0  0
   23.2088  -10.4527  -17.5828 C   0  0  0  0  0  0  0  0  0  0  0  0
   21.8489   -9.9438  -18.0336 C   0  0  2  0  0  0  0  0  0  0  0  0
   21.8274  -10.2523  -19.4765 N   0  0  0  0  0  0  0  0  0  0  0  0
   21.7254   -8.4775  -17.8388 C   0  0  0  0  0  0  0  0  0  0  0  0
   22.4540   -7.6993  -18.5530 O   0  0  0  0  0  0  0  0  0  0  0  0
   20.8708   -7.8354  -16.9350 N   0  0  0  0  0  0  0  0  0  0  0  0
   20.8386   -6.4077  -16.7907 C   0  0  1  0  0  0  0  0  0  0  0  0
   19.4952   -5.8247  -17.2245 C   0  0  0  0  0  0  0  0  0  0  0  0
   18.2022   -6.8325  -16.4581 S   0  0  0  0  0  0  0  0  0  0  0  0
   21.1723   -5.9420  -15.4276 C   0  0  0  0  0  0  0  0  0  0  0  0
   21.3767   -6.7904  -14.3621 O   0  0  0  0  0  0  0  0  0  0  0  0
   21.2848   -4.7025  -15.1881 O   0  0  0  0  0  0  0  0  0  0  0  0
  2  4  1  0
  2  1  1  1
  3  2  1  0
  4  5  2  0
  7  6  1  0
  8  9  1  0
  8  7  1  0
 10  9  1  6
 10 12  1  0
 11 10  1  0
 11  4  1  0
 12 13  2  0
 14 12  1  0
 14 15  1  0
 15 18  1  0
 16 17  1  0
 15 16  1  1
 18 20  2  0
 18 19  1  0
M  END
$$$$
