AMC.pdb
     RDKit          3D

 20 19  0  0  1  0  0  0  0  0999 V2000
   28.8063  -19.2879  -14.4347 C   0  0  0  0  0  0  0  0  0  0  0  0
   27.3213  -19.2432  -14.1229 C   0  0  2  0  0  0  0  0  0  0  0  0
   27.0406  -17.9802  -13.5037 N   0  0  0  0  0  0  0  0  0  0  0  0
   27.0470  -20.3579  -13.1854 C   0  0  0  0  0  0  0  0  0  0  0  0
   27.1976  -21.5518  -13.5692 O   0  0  0  0  0  0  0  0  0  0  0  0
   27.2415  -18.6664   -7.2963 C   0  0  0  0  0  0  0  0  0  0  0  0
   28.0706  -20.2446   -7.5038 S   0  0  0  0  0  0  0  0  0  0  0  0
   27.9586  -20.8253   -9.2404 C   0  0  0  0  0  0  0  0  0  0  0  0
   26.5108  -20.7377   -9.6083 C   0  0  0  0  0  0  0  0  0  0  0  0
   26.1793  -21.2012  -11.0179 C   0  0  2  0  0  0  0  0  0  0  0  0
   26.6170  -20.0731  -11.8626 N   0  0  0  0  0  0  0  0  0  0  0  0
   24.7204  -21.4129  -11.1914 C   0  0  0  0  0  0  0  0  0  0  0  0
   24.0641  -21.9755  -10.2431 O   0  0  0  0  0  0  0  0  0  0  0  0
   23.9625  -21.0496  -12.3108 N   0  0  0  0  0  0  0  0  0  0  0  0
   22.5293  -21.1248  -12.3249 C   0  0  1  0  0  0  0  0  0  0  0  0
   21.9053  -20.2466  -11.2421 C   0  0  0  0  0  0  0  0  0  0  0  0
   20.1133  -20.4837  -11.3281 S   0  0  0  0  0  0  0  0  0  0  0  0
   21.9316  -20.8042  -13.6387 C   0  0  0  0  0  0  0  0  0  0  0  0
   20.6735  -21.2128  -14.0227 O   0  0  0  0  0  0  0  0  0  0  0  0
   22.5815  -20.1185  -14.4835 O   0  0  0  0  0  0  0  0  0  0  0  0
  2  4  1  0
  2  1  1  1
  3  2  1  0
  4  5  2  0
  7  6  1  0
  8  9  1  0
  8  7  1  0
 10  9  1  1
 10 12  1  0
 11 10  1  0
 11  4  1  0
 12 13  2  0
 14 12  1  0
 14 15  1  0
 15 18  1  0
 16 17  1  0
 15 16  1  1
 18 20  2  0
 18 19  1  0
M  END
$$$$
