AMC.pdb
     RDKit          3D

 20 19  0  0  1  0  0  0  0  0999 V2000
   30.2046  -20.7632  -12.2239 C   0  0  0  0  0  0  0  0  0  0  0  0
   30.5558  -21.3198  -10.8558 C   0  0  2  0  0  0  0  0  0  0  0  0
   31.2508  -22.5592  -11.0515 N   0  0  0  0  0  0  0  0  0  0  0  0
   29.2755  -21.5446  -10.1438 C   0  0  0  0  0  0  0  0  0  0  0  0
   28.7134  -22.6740  -10.2053 O   0  0  0  0  0  0  0  0  0  0  0  0
   28.3840  -19.6830   -4.3811 C   0  0  0  0  0  0  0  0  0  0  0  0
   26.8042  -19.0990   -5.0012 S   0  0  0  0  0  0  0  0  0  0  0  0
   26.3309  -19.9832   -6.5373 C   0  0  0  0  0  0  0  0  0  0  0  0
   27.5462  -19.9656   -7.4103 C   0  0  0  0  0  0  0  0  0  0  0  0
   27.4143  -20.7485   -8.7069 C   0  0  2  0  0  0  0  0  0  0  0  0
   28.6918  -20.4869   -9.3978 N   0  0  0  0  0  0  0  0  0  0  0  0
   26.2909  -20.2433   -9.5351 C   0  0  0  0  0  0  0  0  0  0  0  0
   26.3545  -19.0459   -9.9921 O   0  0  0  0  0  0  0  0  0  0  0  0
   25.1380  -20.9568   -9.8832 N   0  0  0  0  0  0  0  0  0  0  0  0
   24.1399  -20.4203  -10.7642 C   0  0  1  0  0  0  0  0  0  0  0  0
   24.3353  -20.9007  -12.2009 C   0  0  0  0  0  0  0  0  0  0  0  0
   25.3991  -22.3631  -12.1358 S   0  0  0  0  0  0  0  0  0  0  0  0
   22.7543  -20.6935  -10.3267 C   0  0  0  0  0  0  0  0  0  0  0  0
   21.6413  -20.2017  -10.9720 O   0  0  0  0  0  0  0  0  0  0  0  0
   22.5391  -21.4149   -9.3071 O   0  0  0  0  0  0  0  0  0  0  0  0
  2  4  1  0
  2  1  1  6
  3  2  1  0
  4  5  2  0
  7  6  1  0
  8  9  1  0
  8  7  1  0
 10  9  1  1
 10 12  1  0
 11 10  1  0
 11  4  1  0
 12 13  2  0
 14 12  1  0
 14 15  1  0
 15 18  1  0
 16 17  1  0
 15 16  1  6
 18 20  2  0
 18 19  1  0
M  END
$$$$
