AMC.pdb
     RDKit          3D

 20 19  0  0  1  0  0  0  0  0999 V2000
   18.3189  -13.2739  -16.7740 C   0  0  0  0  0  0  0  0  0  0  0  0
   18.6192  -11.9271  -17.4067 C   0  0  2  0  0  0  0  0  0  0  0  0
   19.2810  -12.1671  -18.6565 N   0  0  0  0  0  0  0  0  0  0  0  0
   19.5136  -11.2047  -16.4714 C   0  0  0  0  0  0  0  0  0  0  0  0
   19.1066  -10.9160  -15.3111 O   0  0  0  0  0  0  0  0  0  0  0  0
   27.1536  -10.5620  -15.0516 C   0  0  0  0  0  0  0  0  0  0  0  0
   25.7120  -11.0922  -15.9801 S   0  0  0  0  0  0  0  0  0  0  0  0
   24.2045  -10.2110  -15.4178 C   0  0  0  0  0  0  0  0  0  0  0  0
   23.0745  -10.7852  -16.2133 C   0  0  0  0  0  0  0  0  0  0  0  0
   21.7086  -10.1931  -15.9047 C   0  0  2  0  0  0  0  0  0  0  0  0
   20.8218  -10.8434  -16.8887 N   0  0  0  0  0  0  0  0  0  0  0  0
   21.6922   -8.7242  -16.1181 C   0  0  0  0  0  0  0  0  0  0  0  0
   21.7996   -8.2761  -17.3156 O   0  0  0  0  0  0  0  0  0  0  0  0
   21.5645   -7.7485  -15.1226 N   0  0  0  0  0  0  0  0  0  0  0  0
   21.6174   -6.3438  -15.4131 C   0  0  1  0  0  0  0  0  0  0  0  0
   20.2210   -5.7425  -15.5587 C   0  0  0  0  0  0  0  0  0  0  0  0
   20.4257   -3.9543  -15.7470 S   0  0  0  0  0  0  0  0  0  0  0  0
   22.4007   -5.5643  -14.4308 C   0  0  0  0  0  0  0  0  0  0  0  0
   23.1957   -4.4919  -14.7700 O   0  0  0  0  0  0  0  0  0  0  0  0
   22.3640   -5.8693  -13.2012 O   0  0  0  0  0  0  0  0  0  0  0  0
  2  4  1  0
  2  1  1  1
  3  2  1  0
  4  5  2  0
  7  6  1  0
  8  9  1  0
  8  7  1  0
 10  9  1  6
 10 12  1  0
 11 10  1  0
 11  4  1  0
 12 13  2  0
 14 12  1  0
 14 15  1  0
 15 18  1  0
 16 17  1  0
 15 16  1  1
 18 20  2  0
 18 19  1  0
M  END
$$$$
