AMC.pdb
     RDKit          3D

 20 19  0  0  1  0  0  0  0  0999 V2000
   17.2492   -9.3790  -19.8824 C   0  0  0  0  0  0  0  0  0  0  0  0
   18.6084   -9.9345  -19.4968 C   0  0  2  0  0  0  0  0  0  0  0  0
   18.4960  -11.3630  -19.4306 N   0  0  0  0  0  0  0  0  0  0  0  0
   18.9379   -9.3734  -18.1653 C   0  0  0  0  0  0  0  0  0  0  0  0
   18.1339   -9.5268  -17.2034 O   0  0  0  0  0  0  0  0  0  0  0  0
   22.6563   -9.2441  -12.2281 C   0  0  0  0  0  0  0  0  0  0  0  0
   21.9848   -9.6037  -13.8532 S   0  0  0  0  0  0  0  0  0  0  0  0
   22.4835   -8.3252  -15.0707 C   0  0  0  0  0  0  0  0  0  0  0  0
   21.8691   -8.7375  -16.3714 C   0  0  0  0  0  0  0  0  0  0  0  0
   20.4784   -8.1791  -16.6280 C   0  0  2  0  0  0  0  0  0  0  0  0
   20.1564   -8.6676  -17.9827 N   0  0  0  0  0  0  0  0  0  0  0  0
   20.4794   -6.6948  -16.6240 C   0  0  0  0  0  0  0  0  0  0  0  0
   21.0016   -6.0781  -17.6208 O   0  0  0  0  0  0  0  0  0  0  0  0
   19.9524   -5.8732  -15.6207 N   0  0  0  0  0  0  0  0  0  0  0  0
   20.0854   -4.4443  -15.6499 C   0  0  1  0  0  0  0  0  0  0  0  0
   18.8176   -3.7473  -15.1601 C   0  0  0  0  0  0  0  0  0  0  0  0
   19.1979   -1.9838  -15.0176 S   0  0  0  0  0  0  0  0  0  0  0  0
   21.2568   -3.9424  -14.9002 C   0  0  0  0  0  0  0  0  0  0  0  0
   21.7683   -4.5635  -13.7823 O   0  0  0  0  0  0  0  0  0  0  0  0
   21.8487   -2.8866  -15.2762 O   0  0  0  0  0  0  0  0  0  0  0  0
  2  4  1  0
  2  1  1  1
  3  2  1  0
  4  5  2  0
  7  6  1  0
  8  9  1  0
  8  7  1  0
 10  9  1  6
 10 12  1  0
 11 10  1  0
 11  4  1  0
 12 13  2  0
 14 12  1  0
 14 15  1  0
 15 18  1  0
 16 17  1  0
 15 16  1  1
 18 20  2  0
 18 19  1  0
M  END
$$$$
