AMC.pdb
     RDKit          3D

 20 19  0  0  1  0  0  0  0  0999 V2000
   27.6287  -19.2290  -15.7575 C   0  0  0  0  0  0  0  0  0  0  0  0
   28.1157  -20.4610  -15.0161 C   0  0  2  0  0  0  0  0  0  0  0  0
   28.5390  -21.4223  -15.9929 N   0  0  0  0  0  0  0  0  0  0  0  0
   26.9633  -20.9766  -14.2398 C   0  0  0  0  0  0  0  0  0  0  0  0
   26.1060  -21.7130  -14.8038 O   0  0  0  0  0  0  0  0  0  0  0  0
   26.2706  -19.1424   -8.0449 C   0  0  0  0  0  0  0  0  0  0  0  0
   25.6187  -20.8145   -8.0399 S   0  0  0  0  0  0  0  0  0  0  0  0
   24.9569  -21.2695   -9.6893 C   0  0  0  0  0  0  0  0  0  0  0  0
   25.9914  -20.8346  -10.6792 C   0  0  0  0  0  0  0  0  0  0  0  0
   25.6756  -21.1756  -12.1268 C   0  0  2  0  0  0  0  0  0  0  0  0
   26.8334  -20.6378  -12.8671 N   0  0  0  0  0  0  0  0  0  0  0  0
   24.4365  -20.4998  -12.5864 C   0  0  0  0  0  0  0  0  0  0  0  0
   24.4585  -19.2287  -12.7608 O   0  0  0  0  0  0  0  0  0  0  0  0
   23.2126  -21.1210  -12.8613 N   0  0  0  0  0  0  0  0  0  0  0  0
   22.0420  -20.3792  -13.2350 C   0  0  1  0  0  0  0  0  0  0  0  0
   21.7425  -20.5075  -14.7272 C   0  0  0  0  0  0  0  0  0  0  0  0
   21.7948  -22.2702  -15.1335 S   0  0  0  0  0  0  0  0  0  0  0  0
   20.8405  -20.7320  -12.4488 C   0  0  0  0  0  0  0  0  0  0  0  0
   19.6412  -20.0622  -12.5495 O   0  0  0  0  0  0  0  0  0  0  0  0
   20.8776  -21.6969  -11.6278 O   0  0  0  0  0  0  0  0  0  0  0  0
  2  4  1  0
  2  1  1  6
  3  2  1  0
  4  5  2  0
  7  6  1  0
  8  9  1  0
  8  7  1  0
 10  9  1  1
 10 12  1  0
 11 10  1  0
 11  4  1  0
 12 13  2  0
 14 12  1  0
 14 15  1  0
 15 18  1  0
 16 17  1  0
 15 16  1  6
 18 20  2  0
 18 19  1  0
M  END
$$$$
