AMC.pdb
     RDKit          3D

 20 19  0  0  1  0  0  0  0  0999 V2000
   27.7258  -19.2246  -15.4463 C   0  0  0  0  0  0  0  0  0  0  0  0
   28.2703  -20.4112  -14.6718 C   0  0  2  0  0  0  0  0  0  0  0  0
   28.7689  -21.3638  -15.6213 N   0  0  0  0  0  0  0  0  0  0  0  0
   27.1356  -20.9801  -13.9066 C   0  0  0  0  0  0  0  0  0  0  0  0
   26.3727  -21.8261  -14.4520 O   0  0  0  0  0  0  0  0  0  0  0  0
   26.6028  -19.2097   -7.8272 C   0  0  0  0  0  0  0  0  0  0  0  0
   25.7180  -20.7684   -7.7345 S   0  0  0  0  0  0  0  0  0  0  0  0
   25.0756  -21.2613   -9.3807 C   0  0  0  0  0  0  0  0  0  0  0  0
   26.0926  -20.7929  -10.3735 C   0  0  0  0  0  0  0  0  0  0  0  0
   25.8307  -21.2211  -11.8087 C   0  0  2  0  0  0  0  0  0  0  0  0
   26.9163  -20.5683  -12.5656 N   0  0  0  0  0  0  0  0  0  0  0  0
   24.5195  -20.7225  -12.2939 C   0  0  0  0  0  0  0  0  0  0  0  0
   24.3686  -19.4603  -12.4689 O   0  0  0  0  0  0  0  0  0  0  0  0
   23.3993  -21.5068  -12.5929 N   0  0  0  0  0  0  0  0  0  0  0  0
   22.1826  -20.9437  -13.1054 C   0  0  1  0  0  0  0  0  0  0  0  0
   21.7237  -21.6507  -14.3792 C   0  0  0  0  0  0  0  0  0  0  0  0
   21.6577  -23.4218  -14.0137 S   0  0  0  0  0  0  0  0  0  0  0  0
   21.0804  -20.9172  -12.1202 C   0  0  0  0  0  0  0  0  0  0  0  0
   19.8580  -20.3299  -12.3611 O   0  0  0  0  0  0  0  0  0  0  0  0
   21.2311  -21.4534  -10.9817 O   0  0  0  0  0  0  0  0  0  0  0  0
  2  4  1  0
  2  1  1  6
  3  2  1  0
  4  5  2  0
  7  6  1  0
  8  9  1  0
  8  7  1  0
 10  9  1  1
 10 12  1  0
 11 10  1  0
 11  4  1  0
 12 13  2  0
 14 12  1  0
 14 15  1  0
 15 18  1  0
 16 17  1  0
 15 16  1  6
 18 20  2  0
 18 19  1  0
M  END
$$$$
