AMC.pdb
     RDKit          3D

 20 19  0  0  1  0  0  0  0  0999 V2000
   27.2317  -18.9610  -16.6992 C   0  0  0  0  0  0  0  0  0  0  0  0
   28.1145  -19.7948  -15.7881 C   0  0  2  0  0  0  0  0  0  0  0  0
   28.9051  -20.6603  -16.6148 N   0  0  0  0  0  0  0  0  0  0  0  0
   27.2090  -20.5841  -14.9200 C   0  0  0  0  0  0  0  0  0  0  0  0
   26.7931  -21.7117  -15.3081 O   0  0  0  0  0  0  0  0  0  0  0  0
   25.2621  -20.9711   -7.3103 C   0  0  0  0  0  0  0  0  0  0  0  0
   26.0460  -20.2199   -8.7395 S   0  0  0  0  0  0  0  0  0  0  0  0
   25.4678  -21.0008  -10.2956 C   0  0  0  0  0  0  0  0  0  0  0  0
   26.2808  -20.3833  -11.3896 C   0  0  0  0  0  0  0  0  0  0  0  0
   25.9916  -20.9193  -12.7827 C   0  0  2  0  0  0  0  0  0  0  0  0
   26.8168  -20.0647  -13.6581 N   0  0  0  0  0  0  0  0  0  0  0  0
   24.5600  -20.7586  -13.1405 C   0  0  0  0  0  0  0  0  0  0  0  0
   24.1569  -19.6160  -13.5632 O   0  0  0  0  0  0  0  0  0  0  0  0
   23.5758  -21.7513  -13.0670 N   0  0  0  0  0  0  0  0  0  0  0  0
   22.2373  -21.5419  -13.5409 C   0  0  1  0  0  0  0  0  0  0  0  0
   21.7174  -22.7479  -14.3209 C   0  0  0  0  0  0  0  0  0  0  0  0
   20.0165  -22.3740  -14.8125 S   0  0  0  0  0  0  0  0  0  0  0  0
   21.2797  -21.1827  -12.4733 C   0  0  0  0  0  0  0  0  0  0  0  0
   20.2137  -20.3311  -12.6618 O   0  0  0  0  0  0  0  0  0  0  0  0
   21.4142  -21.6646  -11.3088 O   0  0  0  0  0  0  0  0  0  0  0  0
  2  4  1  0
  2  1  1  6
  3  2  1  0
  4  5  2  0
  7  6  1  0
  8  9  1  0
  8  7  1  0
 10  9  1  1
 10 12  1  0
 11 10  1  0
 11  4  1  0
 12 13  2  0
 14 12  1  0
 14 15  1  0
 15 18  1  0
 16 17  1  0
 15 16  1  1
 18 20  2  0
 18 19  1  0
M  END
$$$$
