AMC.pdb
     RDKit          3D

 20 19  0  0  1  0  0  0  0  0999 V2000
   16.8337  -12.2099  -19.1815 C   0  0  0  0  0  0  0  0  0  0  0  0
   17.4604  -10.8701  -19.5236 C   0  0  2  0  0  0  0  0  0  0  0  0
   18.6824  -11.1248  -20.2302 N   0  0  0  0  0  0  0  0  0  0  0  0
   17.7325  -10.1843  -18.2382 C   0  0  0  0  0  0  0  0  0  0  0  0
   16.7735   -9.8769  -17.4759 O   0  0  0  0  0  0  0  0  0  0  0  0
   23.5256   -9.2689  -13.0495 C   0  0  0  0  0  0  0  0  0  0  0  0
   22.7282   -9.9674  -14.4978 S   0  0  0  0  0  0  0  0  0  0  0  0
   21.1453   -9.1122  -14.8561 C   0  0  0  0  0  0  0  0  0  0  0  0
   20.6098   -9.7476  -16.1006 C   0  0  0  0  0  0  0  0  0  0  0  0
   19.2982   -9.1656  -16.6032 C   0  0  2  0  0  0  0  0  0  0  0  0
   19.0706   -9.8786  -17.8750 N   0  0  0  0  0  0  0  0  0  0  0  0
   19.4151   -7.7094  -16.8659 C   0  0  0  0  0  0  0  0  0  0  0  0
   20.1757   -7.3166  -17.8218 O   0  0  0  0  0  0  0  0  0  0  0  0
   18.7614   -6.6903  -16.1633 N   0  0  0  0  0  0  0  0  0  0  0  0
   18.8952   -5.3058  -16.5174 C   0  0  1  0  0  0  0  0  0  0  0  0
   17.5697   -4.5578  -16.3897 C   0  0  0  0  0  0  0  0  0  0  0  0
   16.3801   -5.3891  -17.4707 S   0  0  0  0  0  0  0  0  0  0  0  0
   19.9472   -4.5983  -15.7567 C   0  0  0  0  0  0  0  0  0  0  0  0
   20.5518   -3.4395  -16.1912 O   0  0  0  0  0  0  0  0  0  0  0  0
   20.3401   -5.0521  -14.6405 O   0  0  0  0  0  0  0  0  0  0  0  0
  2  4  1  0
  2  1  1  1
  3  2  1  0
  4  5  2  0
  7  6  1  0
  8  9  1  0
  8  7  1  0
 10  9  1  6
 10 12  1  0
 11 10  1  0
 11  4  1  0
 12 13  2  0
 14 12  1  0
 14 15  1  0
 15 18  1  0
 16 17  1  0
 15 16  1  1
 18 20  2  0
 18 19  1  0
M  END
$$$$
