AMC.pdb
     RDKit          3D

 20 19  0  0  1  0  0  0  0  0999 V2000
   28.9448  -21.4304  -15.5881 C   0  0  0  0  0  0  0  0  0  0  0  0
   27.6972  -20.5808  -15.4257 C   0  0  2  0  0  0  0  0  0  0  0  0
   28.1085  -19.2738  -15.0013 N   0  0  0  0  0  0  0  0  0  0  0  0
   26.8684  -21.2323  -14.3839 C   0  0  0  0  0  0  0  0  0  0  0  0
   26.3926  -22.3839  -14.5902 O   0  0  0  0  0  0  0  0  0  0  0  0
   27.6106  -20.5715   -8.0664 C   0  0  0  0  0  0  0  0  0  0  0  0
   25.8851  -20.1143   -8.2534 S   0  0  0  0  0  0  0  0  0  0  0  0
   25.1501  -20.9055   -9.7364 C   0  0  0  0  0  0  0  0  0  0  0  0
   26.0407  -20.5360  -10.8808 C   0  0  0  0  0  0  0  0  0  0  0  0
   25.6670  -21.1674  -12.2125 C   0  0  2  0  0  0  0  0  0  0  0  0
   26.6165  -20.5549  -13.1617 N   0  0  0  0  0  0  0  0  0  0  0  0
   24.2788  -20.8210  -12.6077 C   0  0  0  0  0  0  0  0  0  0  0  0
   23.9714  -19.5834  -12.7508 O   0  0  0  0  0  0  0  0  0  0  0  0
   23.2409  -21.7280  -12.8515 N   0  0  0  0  0  0  0  0  0  0  0  0
   21.9406  -21.3070  -13.2900 C   0  0  1  0  0  0  0  0  0  0  0  0
   21.4014  -22.2017  -14.4043 C   0  0  0  0  0  0  0  0  0  0  0  0
   22.7229  -22.3891  -15.6263 S   0  0  0  0  0  0  0  0  0  0  0  0
   20.9488  -21.2113  -12.1976 C   0  0  0  0  0  0  0  0  0  0  0  0
   21.2118  -21.5783  -10.8964 O   0  0  0  0  0  0  0  0  0  0  0  0
   19.7832  -20.7727  -12.4326 O   0  0  0  0  0  0  0  0  0  0  0  0
  2  4  1  0
  2  1  1  1
  3  2  1  0
  4  5  2  0
  7  6  1  0
  8  9  1  0
  8  7  1  0
 10  9  1  1
 10 12  1  0
 11 10  1  0
 11  4  1  0
 12 13  2  0
 14 12  1  0
 14 15  1  0
 15 18  1  0
 16 17  1  0
 15 16  1  6
 18 20  2  0
 18 19  1  0
M  END
$$$$
