AMC.pdb
     RDKit          3D

 20 19  0  0  1  0  0  0  0  0999 V2000
   21.9058  -10.9222  -21.6377 C   0  0  0  0  0  0  0  0  0  0  0  0
   22.7088  -10.4172  -20.4525 C   0  0  2  0  0  0  0  0  0  0  0  0
   23.1973  -11.5590  -19.7347 N   0  0  0  0  0  0  0  0  0  0  0  0
   21.7788   -9.6284  -19.6102 C   0  0  0  0  0  0  0  0  0  0  0  0
   21.2762   -8.5610  -20.0610 O   0  0  0  0  0  0  0  0  0  0  0  0
   18.2946  -12.4343  -15.0201 C   0  0  0  0  0  0  0  0  0  0  0  0
   17.3628  -11.7562  -16.3960 S   0  0  0  0  0  0  0  0  0  0  0  0
   18.1307  -10.2089  -17.0140 C   0  0  0  0  0  0  0  0  0  0  0  0
   19.6086  -10.4076  -16.8892 C   0  0  0  0  0  0  0  0  0  0  0  0
   20.4570   -9.3217  -17.5314 C   0  0  2  0  0  0  0  0  0  0  0  0
   21.4607  -10.0806  -18.3024 N   0  0  0  0  0  0  0  0  0  0  0  0
   21.1419   -8.4914  -16.5093 C   0  0  0  0  0  0  0  0  0  0  0  0
   22.2433   -8.9184  -16.0081 O   0  0  0  0  0  0  0  0  0  0  0  0
   20.7025   -7.2544  -16.0232 N   0  0  0  0  0  0  0  0  0  0  0  0
   21.4267   -6.5208  -15.0245 C   0  0  1  0  0  0  0  0  0  0  0  0
   22.2476   -5.3881  -15.6377 C   0  0  0  0  0  0  0  0  0  0  0  0
   22.9547   -4.4385  -14.2691 S   0  0  0  0  0  0  0  0  0  0  0  0
   20.5714   -5.9922  -13.9404 C   0  0  0  0  0  0  0  0  0  0  0  0
   20.9167   -6.0372  -12.6079 O   0  0  0  0  0  0  0  0  0  0  0  0
   19.4531   -5.4616  -14.2131 O   0  0  0  0  0  0  0  0  0  0  0  0
  2  4  1  0
  2  1  1  6
  3  2  1  0
  4  5  2  0
  7  6  1  0
  8  9  1  0
  8  7  1  0
 10  9  1  1
 10 12  1  0
 11 10  1  0
 11  4  1  0
 12 13  2  0
 14 12  1  0
 14 15  1  0
 15 18  1  0
 16 17  1  0
 15 16  1  6
 18 20  2  0
 18 19  1  0
M  END
$$$$
