RIW.pdb
     RDKit          3D

 34 35  0  0  1  0  0  0  0  0999 V2000
   12.9236  -21.3958   16.5944 N   0  0  0  0  0  0  0  0  0  0  0  0
   13.1285  -21.4639   18.0134 C   0  0  0  0  0  0  0  0  0  0  0  0
   14.2916  -21.7691   18.4242 N   0  0  0  0  0  0  0  0  0  0  0  0
   12.0207  -21.1858   18.8290 N   0  0  0  0  0  0  0  0  0  0  0  0
   10.7680  -20.7857   18.1728 C   0  0  0  0  0  0  0  0  0  0  0  0
    9.7316  -20.6853   19.2492 C   0  0  0  0  0  0  0  0  0  0  0  0
    9.8337  -19.4133   20.0105 C   0  0  0  0  0  0  0  0  0  0  0  0
    9.2150  -18.1979   19.4336 C   0  0  2  0  0  0  0  0  0  0  0  0
    9.3764  -18.1294   18.0231 N   0  0  0  0  0  0  0  0  0  0  0  0
    9.7429  -16.9742   20.1222 C   0  0  0  0  0  0  0  0  0  0  0  0
   10.8985  -16.5918   19.8326 O   0  0  0  0  0  0  0  0  0  0  0  0
   14.5929  -21.9281   19.4034 C   0  0  0  0  0  0  0  0  0  0  0  0
    6.7486  -12.6774   20.0154 C   0  0  0  0  0  0  0  0  0  0  0  0
    7.9873  -13.5913   19.9961 C   0  0  2  0  0  0  0  0  0  0  0  0
    8.2620  -13.9839   21.3996 C   0  0  0  0  0  0  0  0  0  0  0  0
    8.5563  -12.7034   22.1872 C   0  0  2  0  0  0  0  0  0  0  0  0
    9.4114  -14.9494   21.5984 N   0  0  0  0  0  0  0  0  0  0  0  0
    8.9745  -16.2666   21.0675 C   0  0  0  0  0  0  0  0  0  0  0  0
    9.7900  -15.1519   23.0096 O   0  0  0  0  0  0  0  0  0  0  0  0
   10.4053  -14.2198   23.6042 N   0  0  0  0  0  0  0  0  0  0  0  0
    9.4912  -16.3436   23.7298 C   0  0  1  0  0  0  0  0  0  0  0  0
    9.8972  -16.5154   25.1235 C   0  0  0  0  0  0  0  0  0  0  0  0
    8.7149  -16.8510   25.9772 C   0  0  0  0  0  0  0  0  0  0  0  0
    7.6084  -15.8970   25.8201 C   0  0  0  0  0  0  0  0  0  0  0  0
    6.3754  -16.1307   25.1966 N   0  0  0  0  0  0  0  0  0  0  0  0
    5.6392  -15.0097   25.2214 C   0  0  0  0  0  0  0  0  0  0  0  0
    6.3229  -14.0067   25.8432 C   0  0  0  0  0  0  0  0  0  0  0  0
    5.9875  -12.7005   26.1231 C   0  0  0  0  0  0  0  0  0  0  0  0
    6.8642  -11.8820   26.7928 C   0  0  0  0  0  0  0  0  0  0  0  0
    8.0722  -12.4319   27.1602 C   0  0  0  0  0  0  0  0  0  0  0  0
    8.4092  -13.7343   26.8817 C   0  0  0  0  0  0  0  0  0  0  0  0
    7.5332  -14.5596   26.2090 C   0  0  0  0  0  0  0  0  0  0  0  0
   11.0861  -17.3332   25.2540 O   0  0  0  0  0  0  0  0  0  0  0  0
   11.5644  -17.5764   26.3926 O   0  0  0  0  0  0  0  0  0  0  0  0
  1  2  1  0
  2  3  2  0
  4  5  1  0
  4  2  1  0
  6  5  1  0
  7  6  1  0
  8  7  1  0
  8  9  1  6
 10  8  1  0
 11 10  2  0
 12 13  1  0
 13 14  1  0
 14 16  1  0
 14 15  1  1
 16 18  1  0
 16 17  1  6
 17 10  1  0
 18 20  1  0
 19 18  2  0
 21 20  1  0
 21 32  1  0
 21 22  1  1
 23 22  1  0
 23 24  2  0
 25 24  1  0
 26 25  1  0
 27 26  2  0
 28 29  2  0
 28 27  1  0
 29 30  1  0
 30 31  2  0
 31 26  1  0
 31 23  1  0
 32 33  2  0
 32 34  1  0
M  END
$$$$
