RIW.pdb
     RDKit          3D

 34 35  0  0  1  0  0  0  0  0999 V2000
   14.7884  -19.9090   16.8076 N   0  0  0  0  0  0  0  0  0  0  0  0
   14.1826  -21.0264   17.4743 C   0  0  0  0  0  0  0  0  0  0  0  0
   14.5017  -22.1903   17.0765 N   0  0  0  0  0  0  0  0  0  0  0  0
   13.2856  -20.7355   18.5139 N   0  0  0  0  0  0  0  0  0  0  0  0
   12.6517  -19.4096   18.5230 C   0  0  0  0  0  0  0  0  0  0  0  0
   11.1861  -19.6322   18.3099 C   0  0  0  0  0  0  0  0  0  0  0  0
   10.3744  -19.1754   19.4678 C   0  0  0  0  0  0  0  0  0  0  0  0
    9.2818  -18.2068   19.2210 C   0  0  2  0  0  0  0  0  0  0  0  0
    9.0104  -18.0430   17.8355 N   0  0  0  0  0  0  0  0  0  0  0  0
    9.5881  -16.9017   19.8943 C   0  0  0  0  0  0  0  0  0  0  0  0
   10.6418  -16.3092   19.5716 O   0  0  0  0  0  0  0  0  0  0  0  0
   15.2182  -22.4410   16.3703 C   0  0  0  0  0  0  0  0  0  0  0  0
    6.7483  -12.8279   19.1705 C   0  0  0  0  0  0  0  0  0  0  0  0
    7.9300  -13.7666   19.4745 C   0  0  2  0  0  0  0  0  0  0  0  0
    7.8688  -14.0913   20.9203 C   0  0  0  0  0  0  0  0  0  0  0  0
    7.9225  -12.7693   21.6922 C   0  0  2  0  0  0  0  0  0  0  0  0
    8.9661  -14.9981   21.4365 N   0  0  0  0  0  0  0  0  0  0  0  0
    8.7269  -16.3472   20.8616 C   0  0  0  0  0  0  0  0  0  0  0  0
    8.9835  -15.1464   22.9040 O   0  0  0  0  0  0  0  0  0  0  0  0
    8.0227  -14.6578   23.5668 N   0  0  0  0  0  0  0  0  0  0  0  0
   10.0276  -15.8158   23.6039 C   0  0  2  0  0  0  0  0  0  0  0  0
   10.0208  -15.9266   25.0614 C   0  0  0  0  0  0  0  0  0  0  0  0
    8.7213  -16.4943   25.5389 C   0  0  0  0  0  0  0  0  0  0  0  0
    7.6817  -15.4708   25.7150 C   0  0  0  0  0  0  0  0  0  0  0  0
    6.3320  -15.5682   25.3510 N   0  0  0  0  0  0  0  0  0  0  0  0
    5.7041  -14.4187   25.6405 C   0  0  0  0  0  0  0  0  0  0  0  0
    6.5761  -13.5282   26.1944 C   0  0  0  0  0  0  0  0  0  0  0  0
    6.4061  -12.2444   26.6637 C   0  0  0  0  0  0  0  0  0  0  0  0
    7.4621  -11.5527   27.2050 C   0  0  0  0  0  0  0  0  0  0  0  0
    8.6749  -12.2037   27.2502 C   0  0  0  0  0  0  0  0  0  0  0  0
    8.8471  -13.4839   26.7823 C   0  0  0  0  0  0  0  0  0  0  0  0
    7.7905  -14.1821   26.2374 C   0  0  0  0  0  0  0  0  0  0  0  0
   11.2465  -16.5035   25.5757 O   0  0  0  0  0  0  0  0  0  0  0  0
   12.1356  -16.9094   24.7827 O   0  0  0  0  0  0  0  0  0  0  0  0
  1  2  1  0
  2  3  2  0
  4  5  1  0
  4  2  1  0
  6  5  1  0
  7  6  1  0
  8  7  1  0
  8  9  1  6
 10  8  1  0
 11 10  2  0
 12 13  1  0
 13 14  1  0
 14 16  1  0
 14 15  1  1
 16 18  1  0
 16 17  1  6
 17 10  1  0
 18 20  1  0
 19 18  2  0
 21 20  1  0
 21 32  1  0
 21 22  1  6
 23 22  1  0
 23 24  2  0
 25 24  1  0
 26 25  1  0
 27 26  2  0
 28 29  2  0
 28 27  1  0
 29 30  1  0
 30 31  2  0
 31 26  1  0
 31 23  1  0
 32 33  2  0
 32 34  1  0
M  END
$$$$
