RIW.pdb
     RDKit          3D

 34 35  0  0  1  0  0  0  0  0999 V2000
    7.5331  -23.8195   21.4803 N   0  0  0  0  0  0  0  0  0  0  0  0
    6.1379  -23.5330   21.3029 C   0  0  0  0  0  0  0  0  0  0  0  0
    5.3031  -24.3631   21.7813 N   0  0  0  0  0  0  0  0  0  0  0  0
    5.8143  -22.3543   20.6130 N   0  0  0  0  0  0  0  0  0  0  0  0
    6.9186  -21.4851   20.1831 C   0  0  0  0  0  0  0  0  0  0  0  0
    7.3221  -20.6792   21.3792 C   0  0  0  0  0  0  0  0  0  0  0  0
    8.4626  -19.7725   21.0870 C   0  0  0  0  0  0  0  0  0  0  0  0
    8.2441  -18.6496   20.1468 C   0  0  2  0  0  0  0  0  0  0  0  0
    8.6111  -18.9836   18.8148 N   0  0  0  0  0  0  0  0  0  0  0  0
    8.9531  -17.4218   20.6365 C   0  0  0  0  0  0  0  0  0  0  0  0
   10.2043  -17.4276   20.6339 O   0  0  0  0  0  0  0  0  0  0  0  0
    4.2706  -24.2732   21.8107 C   0  0  0  0  0  0  0  0  0  0  0  0
    7.0371  -12.5118   19.3173 C   0  0  0  0  0  0  0  0  0  0  0  0
    8.0654  -13.6295   19.5696 C   0  0  2  0  0  0  0  0  0  0  0  0
    8.0868  -13.8812   21.0310 C   0  0  0  0  0  0  0  0  0  0  0  0
    8.5875  -12.6034   21.7115 C   0  0  2  0  0  0  0  0  0  0  0  0
    8.9482  -15.0408   21.4850 N   0  0  0  0  0  0  0  0  0  0  0  0
    8.2473  -16.2895   21.0886 C   0  0  0  0  0  0  0  0  0  0  0  0
    9.1553  -15.1014   22.9442 O   0  0  0  0  0  0  0  0  0  0  0  0
    9.2056  -14.0131   23.5877 N   0  0  0  0  0  0  0  0  0  0  0  0
    9.2967  -16.3258   23.6576 C   0  0  1  0  0  0  0  0  0  0  0  0
   10.1230  -16.4179   24.8599 C   0  0  0  0  0  0  0  0  0  0  0  0
    9.7860  -15.3157   25.8143 C   0  0  0  0  0  0  0  0  0  0  0  0
    8.3392  -15.0917   25.9395 C   0  0  0  0  0  0  0  0  0  0  0  0
    7.3166  -16.0089   25.6626 N   0  0  0  0  0  0  0  0  0  0  0  0
    6.1245  -15.4280   25.8647 C   0  0  0  0  0  0  0  0  0  0  0  0
    6.2889  -14.1373   26.2737 C   0  0  0  0  0  0  0  0  0  0  0  0
    5.3827  -13.1578   26.6151 C   0  0  0  0  0  0  0  0  0  0  0  0
    5.8134  -11.9187   27.0223 C   0  0  0  0  0  0  0  0  0  0  0  0
    7.1750  -11.7171   27.0684 C   0  0  0  0  0  0  0  0  0  0  0  0
    8.0807  -12.6923   26.7279 C   0  0  0  0  0  0  0  0  0  0  0  0
    7.6536  -13.9374   26.3178 C   0  0  0  0  0  0  0  0  0  0  0  0
   10.1940  -17.7694   25.3772 O   0  0  0  0  0  0  0  0  0  0  0  0
    9.4615  -18.6712   24.8930 O   0  0  0  0  0  0  0  0  0  0  0  0
  1  2  1  0
  2  3  2  0
  4  5  1  0
  4  2  1  0
  6  5  1  0
  7  6  1  0
  8  7  1  0
  8  9  1  6
 10  8  1  0
 11 10  2  0
 12 13  1  0
 13 14  1  0
 14 16  1  0
 14 15  1  1
 16 18  1  0
 16 17  1  6
 17 10  1  0
 18 20  1  0
 19 18  2  0
 21 20  1  0
 21 32  1  0
 21 22  1  1
 23 22  1  0
 23 24  2  0
 25 24  1  0
 26 25  1  0
 27 26  2  0
 28 29  2  0
 28 27  1  0
 29 30  1  0
 30 31  2  0
 31 26  1  0
 31 23  1  0
 32 33  2  0
 32 34  1  0
M  END
$$$$
