RIW.pdb
     RDKit          3D

 34 35  0  0  1  0  0  0  0  0999 V2000
    8.2215  -14.8019   15.6404 N   0  0  0  0  0  0  0  0  0  0  0  0
    8.1314  -13.3805   15.4630 C   0  0  0  0  0  0  0  0  0  0  0  0
    8.4619  -12.9085   14.3304 N   0  0  0  0  0  0  0  0  0  0  0  0
    7.6833  -12.6305   16.5616 N   0  0  0  0  0  0  0  0  0  0  0  0
    7.2456  -13.3613   17.7592 C   0  0  0  0  0  0  0  0  0  0  0  0
    8.4777  -13.6531   18.5591 C   0  0  0  0  0  0  0  0  0  0  0  0
    8.1985  -14.5425   19.7163 C   0  0  0  0  0  0  0  0  0  0  0  0
    8.4678  -15.9912   19.5696 C   0  0  2  0  0  0  0  0  0  0  0  0
    7.4963  -16.6401   18.7600 N   0  0  0  0  0  0  0  0  0  0  0  0
    8.5954  -16.6312   20.9203 C   0  0  0  0  0  0  0  0  0  0  0  0
    7.5539  -16.7852   21.5963 O   0  0  0  0  0  0  0  0  0  0  0  0
    8.4450  -11.9158   14.0317 C   0  0  0  0  0  0  0  0  0  0  0  0
   11.4661  -21.0561   21.2444 C   0  0  0  0  0  0  0  0  0  0  0  0
   10.3579  -20.0045   21.4348 C   0  0  2  0  0  0  0  0  0  0  0  0
   10.8664  -19.0053   22.4056 C   0  0  0  0  0  0  0  0  0  0  0  0
   11.1380  -19.7390   23.7226 C   0  0  2  0  0  0  0  0  0  0  0  0
    9.9479  -17.8343   22.6845 N   0  0  0  0  0  0  0  0  0  0  0  0
    9.8413  -17.0511   21.4263 C   0  0  0  0  0  0  0  0  0  0  0  0
   10.4423  -16.9170   23.7285 O   0  0  0  0  0  0  0  0  0  0  0  0
   11.5125  -16.2791   23.5074 N   0  0  0  0  0  0  0  0  0  0  0  0
    9.7689  -16.7160   24.9671 C   0  0  1  0  0  0  0  0  0  0  0  0
   10.4728  -16.2159   26.1465 C   0  0  0  0  0  0  0  0  0  0  0  0
   10.0295  -14.8241   26.4717 C   0  0  0  0  0  0  0  0  0  0  0  0
    8.5993  -14.6061   26.2148 C   0  0  0  0  0  0  0  0  0  0  0  0
    7.6287  -15.5850   25.9633 N   0  0  0  0  0  0  0  0  0  0  0  0
    6.4432  -14.9971   25.7437 C   0  0  0  0  0  0  0  0  0  0  0  0
    6.5616  -13.6415   25.8359 C   0  0  0  0  0  0  0  0  0  0  0  0
    5.6392  -12.6266   25.7086 C   0  0  0  0  0  0  0  0  0  0  0  0
    6.0158  -11.3156   25.8707 C   0  0  0  0  0  0  0  0  0  0  0  0
    7.3412  -11.0802   26.1618 C   0  0  0  0  0  0  0  0  0  0  0  0
    8.2631  -12.0908   26.2887 C   0  0  0  0  0  0  0  0  0  0  0  0
    7.8904  -13.4082   26.1261 C   0  0  0  0  0  0  0  0  0  0  0  0
   10.5085  -17.1882   27.2202 O   0  0  0  0  0  0  0  0  0  0  0  0
   11.1789  -16.9574   28.2602 O   0  0  0  0  0  0  0  0  0  0  0  0
  1  2  1  0
  2  3  2  0
  4  5  1  0
  4  2  1  0
  6  5  1  0
  7  6  1  0
  8  7  1  0
  8  9  1  1
 10  8  1  0
 11 10  2  0
 12 13  1  0
 13 14  1  0
 14 16  1  0
 14 15  1  6
 16 18  1  0
 16 17  1  1
 17 10  1  0
 18 20  1  0
 19 18  2  0
 21 20  1  0
 21 32  1  0
 21 22  1  1
 23 22  1  0
 23 24  2  0
 25 24  1  0
 26 25  1  0
 27 26  2  0
 28 29  2  0
 28 27  1  0
 29 30  1  0
 30 31  2  0
 31 26  1  0
 31 23  1  0
 32 33  2  0
 32 34  1  0
M  END
$$$$
