RIW.pdb
     RDKit          3D

 34 35  0  0  1  0  0  0  0  0999 V2000
    7.6880  -24.1812   21.6898 N   0  0  0  0  0  0  0  0  0  0  0  0
    9.0629  -24.0419   21.3019 C   0  0  0  0  0  0  0  0  0  0  0  0
    9.6527  -25.0734   20.8514 N   0  0  0  0  0  0  0  0  0  0  0  0
    9.6402  -22.7716   21.4541 N   0  0  0  0  0  0  0  0  0  0  0  0
    8.8202  -21.7128   22.0595 C   0  0  0  0  0  0  0  0  0  0  0  0
    8.5133  -20.7312   20.9708 C   0  0  0  0  0  0  0  0  0  0  0  0
    7.6573  -19.6137   21.4469 C   0  0  0  0  0  0  0  0  0  0  0  0
    7.2565  -18.5723   20.4736 C   0  0  2  0  0  0  0  0  0  0  0  0
    7.2131  -19.0679   19.1421 N   0  0  0  0  0  0  0  0  0  0  0  0
    8.1516  -17.3753   20.6014 C   0  0  0  0  0  0  0  0  0  0  0  0
    9.2063  -17.3581   19.9285 O   0  0  0  0  0  0  0  0  0  0  0  0
   10.6582  -25.1739   20.6192 C   0  0  0  0  0  0  0  0  0  0  0  0
    6.7488  -12.3282   19.9697 C   0  0  0  0  0  0  0  0  0  0  0  0
    7.5625  -13.6351   19.9861 C   0  0  2  0  0  0  0  0  0  0  0  0
    7.9570  -13.8860   21.3935 C   0  0  0  0  0  0  0  0  0  0  0  0
    8.7862  -12.6857   21.8607 C   0  0  2  0  0  0  0  0  0  0  0  0
    8.7552  -15.1496   21.6362 N   0  0  0  0  0  0  0  0  0  0  0  0
    7.8293  -16.2963   21.4479 C   0  0  0  0  0  0  0  0  0  0  0  0
    9.3117  -15.2576   22.9981 O   0  0  0  0  0  0  0  0  0  0  0  0
    9.8333  -14.2273   23.5153 N   0  0  0  0  0  0  0  0  0  0  0  0
    9.2841  -16.4641   23.7542 C   0  0  1  0  0  0  0  0  0  0  0  0
    9.8516  -16.5352   25.0994 C   0  0  0  0  0  0  0  0  0  0  0  0
    8.7730  -16.7522   26.1136 C   0  0  0  0  0  0  0  0  0  0  0  0
    7.6401  -15.8312   25.9477 C   0  0  0  0  0  0  0  0  0  0  0  0
    6.4055  -16.1122   25.3474 N   0  0  0  0  0  0  0  0  0  0  0  0
    5.6408  -15.0102   25.3541 C   0  0  0  0  0  0  0  0  0  0  0  0
    6.3064  -13.9745   25.9410 C   0  0  0  0  0  0  0  0  0  0  0  0
    5.9409  -12.6705   26.1926 C   0  0  0  0  0  0  0  0  0  0  0  0
    6.8048  -11.8131   26.8293 C   0  0  0  0  0  0  0  0  0  0  0  0
    8.0314  -12.3224   27.1938 C   0  0  0  0  0  0  0  0  0  0  0  0
    8.3984  -13.6224   26.9434 C   0  0  0  0  0  0  0  0  0  0  0  0
    7.5353  -14.4867   26.3040 C   0  0  0  0  0  0  0  0  0  0  0  0
   11.0236  -17.3851   25.1585 O   0  0  0  0  0  0  0  0  0  0  0  0
   10.9052  -18.6337   25.0535 O   0  0  0  0  0  0  0  0  0  0  0  0
  1  2  1  0
  2  3  2  0
  4  5  1  0
  4  2  1  0
  6  5  1  0
  7  6  1  0
  8  7  1  0
  8  9  1  6
 10  8  1  0
 11 10  2  0
 12 13  1  0
 13 14  1  0
 14 16  1  0
 14 15  1  1
 16 18  1  0
 16 17  1  6
 17 10  1  0
 18 20  1  0
 19 18  2  0
 21 20  1  0
 21 32  1  0
 21 22  1  1
 23 22  1  0
 23 24  2  0
 25 24  1  0
 26 25  1  0
 27 26  2  0
 28 29  2  0
 28 27  1  0
 29 30  1  0
 30 31  2  0
 31 26  1  0
 31 23  1  0
 32 33  2  0
 32 34  1  0
M  END
$$$$
