RIW.pdb
     RDKit          3D

 34 35  0  0  1  0  0  0  0  0999 V2000
   11.7803  -15.0578   13.4861 N   0  0  0  0  0  0  0  0  0  0  0  0
   10.5801  -15.8407   13.4044 C   0  0  0  0  0  0  0  0  0  0  0  0
    9.8481  -15.6871   12.3771 N   0  0  0  0  0  0  0  0  0  0  0  0
   10.3172  -16.7134   14.4719 N   0  0  0  0  0  0  0  0  0  0  0  0
   11.2606  -16.7234   15.5988 C   0  0  0  0  0  0  0  0  0  0  0  0
   10.7160  -17.6879   16.6069 C   0  0  0  0  0  0  0  0  0  0  0  0
   11.5155  -17.7024   17.8594 C   0  0  0  0  0  0  0  0  0  0  0  0
   10.8340  -18.0640   19.1233 C   0  0  2  0  0  0  0  0  0  0  0  0
    9.5748  -18.6836   18.8978 N   0  0  0  0  0  0  0  0  0  0  0  0
   10.7195  -16.8595   20.0102 C   0  0  0  0  0  0  0  0  0  0  0  0
   11.7624  -16.2153   20.2606 O   0  0  0  0  0  0  0  0  0  0  0  0
    8.9397  -16.1446   12.1759 C   0  0  0  0  0  0  0  0  0  0  0  0
    7.2139  -13.0101   19.3039 C   0  0  0  0  0  0  0  0  0  0  0  0
    8.4857  -13.8050   19.6514 C   0  0  2  0  0  0  0  0  0  0  0  0
    8.2695  -14.4127   20.9868 C   0  0  0  0  0  0  0  0  0  0  0  0
    8.0687  -13.2693   21.9863 C   0  0  2  0  0  0  0  0  0  0  0  0
    9.3840  -15.3055   21.4902 N   0  0  0  0  0  0  0  0  0  0  0  0
    9.4842  -16.4533   20.5520 C   0  0  0  0  0  0  0  0  0  0  0  0
    9.1484  -15.8615   22.8360 O   0  0  0  0  0  0  0  0  0  0  0  0
    8.2789  -16.7718   22.9640 N   0  0  0  0  0  0  0  0  0  0  0  0
    9.8561  -15.4233   23.9914 C   0  0  2  0  0  0  0  0  0  0  0  0
    9.6603  -16.0585   25.2933 C   0  0  0  0  0  0  0  0  0  0  0  0
    8.2201  -16.4118   25.4939 C   0  0  0  0  0  0  0  0  0  0  0  0
    7.3461  -15.2320   25.5534 C   0  0  0  0  0  0  0  0  0  0  0  0
    5.9684  -15.1895   25.3012 N   0  0  0  0  0  0  0  0  0  0  0  0
    5.5275  -13.9285   25.4230 C   0  0  0  0  0  0  0  0  0  0  0  0
    6.5564  -13.0959   25.7525 C   0  0  0  0  0  0  0  0  0  0  0  0
    6.6015  -11.7413   25.9973 C   0  0  0  0  0  0  0  0  0  0  0  0
    7.7845  -11.1317   26.3377 C   0  0  0  0  0  0  0  0  0  0  0  0
    8.8989  -11.9368   26.4183 C   0  0  0  0  0  0  0  0  0  0  0  0
    8.8565  -13.2881   26.1741 C   0  0  0  0  0  0  0  0  0  0  0  0
    7.6718  -13.9046   25.8313 C   0  0  0  0  0  0  0  0  0  0  0  0
   10.6557  -17.0756   25.5652 O   0  0  0  0  0  0  0  0  0  0  0  0
   10.6186  -17.7246   26.6431 O   0  0  0  0  0  0  0  0  0  0  0  0
  1  2  1  0
  2  3  2  0
  4  5  1  0
  4  2  1  0
  6  5  1  0
  7  6  1  0
  8  7  1  0
  8  9  1  6
 10  8  1  0
 11 10  2  0
 12 13  1  0
 13 14  1  0
 14 16  1  0
 14 15  1  1
 16 18  1  0
 16 17  1  1
 17 10  1  0
 18 20  1  0
 19 18  2  0
 21 20  1  0
 21 32  1  0
 21 22  1  6
 23 22  1  0
 23 24  2  0
 25 24  1  0
 26 25  1  0
 27 26  2  0
 28 29  2  0
 28 27  1  0
 29 30  1  0
 30 31  2  0
 31 26  1  0
 31 23  1  0
 32 33  2  0
 32 34  1  0
M  END
$$$$
