RIW.pdb
     RDKit          3D

 34 35  0  0  1  0  0  0  0  0999 V2000
    9.5998  -22.2987   22.5355 N   0  0  0  0  0  0  0  0  0  0  0  0
    8.5825  -23.0247   21.8297 C   0  0  0  0  0  0  0  0  0  0  0  0
    8.8917  -24.1665   21.3656 N   0  0  0  0  0  0  0  0  0  0  0  0
    7.3273  -22.4076   21.7126 N   0  0  0  0  0  0  0  0  0  0  0  0
    7.1922  -21.0281   22.2011 C   0  0  0  0  0  0  0  0  0  0  0  0
    7.7944  -20.1408   21.1557 C   0  0  0  0  0  0  0  0  0  0  0  0
    6.7885  -19.2386   20.5372 C   0  0  0  0  0  0  0  0  0  0  0  0
    7.2291  -18.3375   19.4478 C   0  0  2  0  0  0  0  0  0  0  0  0
    7.8624  -19.0429   18.3887 N   0  0  0  0  0  0  0  0  0  0  0  0
    8.0998  -17.2481   20.0004 C   0  0  0  0  0  0  0  0  0  0  0  0
    9.3395  -17.3771   19.8913 O   0  0  0  0  0  0  0  0  0  0  0  0
    8.2969  -24.7991   20.7990 C   0  0  0  0  0  0  0  0  0  0  0  0
    7.0034  -12.0555   19.2731 C   0  0  0  0  0  0  0  0  0  0  0  0
    7.7450  -13.3974   19.4124 C   0  0  2  0  0  0  0  0  0  0  0  0
    7.7979  -13.7187   20.8593 C   0  0  0  0  0  0  0  0  0  0  0  0
    8.5968  -12.6085   21.5490 C   0  0  2  0  0  0  0  0  0  0  0  0
    8.4192  -15.0535   21.2131 N   0  0  0  0  0  0  0  0  0  0  0  0
    7.5546  -16.1094   20.6254 C   0  0  0  0  0  0  0  0  0  0  0  0
    8.5011  -15.3138   22.6627 O   0  0  0  0  0  0  0  0  0  0  0  0
    7.5209  -14.9760   23.3882 N   0  0  0  0  0  0  0  0  0  0  0  0
    9.6282  -15.9293   23.2781 C   0  0  2  0  0  0  0  0  0  0  0  0
    9.7336  -16.0502   24.7310 C   0  0  0  0  0  0  0  0  0  0  0  0
    8.4882  -16.6545   25.2993 C   0  0  0  0  0  0  0  0  0  0  0  0
    7.4204  -15.6675   25.5116 C   0  0  0  0  0  0  0  0  0  0  0  0
    6.0951  -15.7494   25.0642 N   0  0  0  0  0  0  0  0  0  0  0  0
    5.4295  -14.6419   25.4244 C   0  0  0  0  0  0  0  0  0  0  0  0
    6.2518  -13.7954   26.1082 C   0  0  0  0  0  0  0  0  0  0  0  0
    6.0308  -12.5647   26.6857 C   0  0  0  0  0  0  0  0  0  0  0  0
    7.0415  -11.9123   27.3487 C   0  0  0  0  0  0  0  0  0  0  0  0
    8.2626  -12.5470   27.4013 C   0  0  0  0  0  0  0  0  0  0  0  0
    8.4856  -13.7743   26.8256 C   0  0  0  0  0  0  0  0  0  0  0  0
    7.4747  -14.4329   26.1583 C   0  0  0  0  0  0  0  0  0  0  0  0
   11.0085  -16.5987   25.1471 O   0  0  0  0  0  0  0  0  0  0  0  0
   11.3091  -16.6439   26.3685 O   0  0  0  0  0  0  0  0  0  0  0  0
  1  2  1  0
  2  3  2  0
  4  5  1  0
  4  2  1  0
  6  5  1  0
  7  6  1  0
  8  7  1  0
  8  9  1  6
 10  8  1  0
 11 10  2  0
 12 13  1  0
 13 14  1  0
 14 16  1  0
 14 15  1  1
 16 18  1  0
 16 17  1  6
 17 10  1  0
 18 20  1  0
 19 18  2  0
 21 20  1  0
 21 32  1  0
 21 22  1  6
 23 22  1  0
 23 24  2  0
 25 24  1  0
 26 25  1  0
 27 26  2  0
 28 29  2  0
 28 27  1  0
 29 30  1  0
 30 31  2  0
 31 26  1  0
 31 23  1  0
 32 33  2  0
 32 34  1  0
M  END
$$$$
