RIW.pdb
     RDKit          3D

 34 35  0  0  1  0  0  0  0  0999 V2000
   13.1474  -18.7742   14.0214 N   0  0  0  0  0  0  0  0  0  0  0  0
   12.9508  -19.7405   15.0644 C   0  0  0  0  0  0  0  0  0  0  0  0
   12.4098  -20.8453   14.7461 N   0  0  0  0  0  0  0  0  0  0  0  0
   13.3757  -19.3798   16.3526 N   0  0  0  0  0  0  0  0  0  0  0  0
   14.0567  -18.0875   16.5143 C   0  0  0  0  0  0  0  0  0  0  0  0
   13.0422  -17.1327   17.0641 C   0  0  0  0  0  0  0  0  0  0  0  0
   13.0533  -17.0952   18.5495 C   0  0  0  0  0  0  0  0  0  0  0  0
   11.9080  -17.6900   19.2756 C   0  0  2  0  0  0  0  0  0  0  0  0
   10.8791  -18.1230   18.3957 N   0  0  0  0  0  0  0  0  0  0  0  0
   11.3990  -16.7304   20.3102 C   0  0  0  0  0  0  0  0  0  0  0  0
   12.2302  -16.2152   21.0906 O   0  0  0  0  0  0  0  0  0  0  0  0
   12.2054  -21.6496   15.3678 C   0  0  0  0  0  0  0  0  0  0  0  0
    7.2739  -13.3183   19.1943 C   0  0  0  0  0  0  0  0  0  0  0  0
    8.6244  -13.8464   19.7116 C   0  0  2  0  0  0  0  0  0  0  0  0
    8.3323  -14.7502   20.8505 C   0  0  0  0  0  0  0  0  0  0  0  0
    7.6695  -13.9106   21.9469 C   0  0  2  0  0  0  0  0  0  0  0  0
    9.5276  -15.4652   21.4445 N   0  0  0  0  0  0  0  0  0  0  0  0
   10.0312  -16.4090   20.4132 C   0  0  0  0  0  0  0  0  0  0  0  0
    9.2168  -16.2596   22.6479 O   0  0  0  0  0  0  0  0  0  0  0  0
    9.0104  -17.5003   22.5096 N   0  0  0  0  0  0  0  0  0  0  0  0
    9.1430  -15.6945   23.9529 C   0  0  2  0  0  0  0  0  0  0  0  0
    9.0351  -16.5351   25.1439 C   0  0  0  0  0  0  0  0  0  0  0  0
    8.8525  -15.6922   26.3668 C   0  0  0  0  0  0  0  0  0  0  0  0
    7.6921  -14.7955   26.2737 C   0  0  0  0  0  0  0  0  0  0  0  0
    6.3549  -15.1644   26.0759 N   0  0  0  0  0  0  0  0  0  0  0  0
    5.5894  -14.0647   26.0132 C   0  0  0  0  0  0  0  0  0  0  0  0
    6.3542  -12.9452   26.1621 C   0  0  0  0  0  0  0  0  0  0  0  0
    6.0310  -11.6065   26.1853 C   0  0  0  0  0  0  0  0  0  0  0  0
    7.0043  -10.6558   26.3741 C   0  0  0  0  0  0  0  0  0  0  0  0
    8.2946  -11.1095   26.5355 C   0  0  0  0  0  0  0  0  0  0  0  0
    8.6195  -12.4442   26.5122 C   0  0  0  0  0  0  0  0  0  0  0  0
    7.6464  -13.4023   26.3222 C   0  0  0  0  0  0  0  0  0  0  0  0
    8.1373  -17.6553   24.9480 O   0  0  0  0  0  0  0  0  0  0  0  0
    8.1841  -18.6462   25.7227 O   0  0  0  0  0  0  0  0  0  0  0  0
  1  2  1  0
  2  3  2  0
  4  5  1  0
  4  2  1  0
  6  5  1  0
  7  6  1  0
  8  7  1  0
  8  9  1  6
 10  8  1  0
 11 10  2  0
 12 13  1  0
 13 14  1  0
 14 16  1  0
 14 15  1  6
 16 18  1  0
 16 17  1  1
 17 10  1  0
 18 20  1  0
 19 18  2  0
 21 20  1  0
 21 32  1  0
 21 22  1  6
 23 22  1  0
 23 24  2  0
 25 24  1  0
 26 25  1  0
 27 26  2  0
 28 29  2  0
 28 27  1  0
 29 30  1  0
 30 31  2  0
 31 26  1  0
 31 23  1  0
 32 33  2  0
 32 34  1  0
M  END
$$$$
