RIW.pdb
     RDKit          3D

 34 35  0  0  1  0  0  0  0  0999 V2000
   13.0222  -22.1256   20.9796 N   0  0  0  0  0  0  0  0  0  0  0  0
   13.2358  -22.5634   19.6294 C   0  0  0  0  0  0  0  0  0  0  0  0
   13.3136  -23.8150   19.4239 N   0  0  0  0  0  0  0  0  0  0  0  0
   13.3404  -21.5660   18.6474 N   0  0  0  0  0  0  0  0  0  0  0  0
   12.7196  -20.2628   18.9234 C   0  0  0  0  0  0  0  0  0  0  0  0
   11.2537  -20.4205   18.6602 C   0  0  0  0  0  0  0  0  0  0  0  0
   10.4222  -19.7429   19.6887 C   0  0  0  0  0  0  0  0  0  0  0  0
    9.7006  -18.5077   19.3061 C   0  0  2  0  0  0  0  0  0  0  0  0
    9.9314  -18.1473   17.9507 N   0  0  0  0  0  0  0  0  0  0  0  0
   10.0445  -17.3957   20.2523 C   0  0  0  0  0  0  0  0  0  0  0  0
   11.1409  -16.8130   20.0976 O   0  0  0  0  0  0  0  0  0  0  0  0
   13.5199  -24.2954   18.5286 C   0  0  0  0  0  0  0  0  0  0  0  0
    6.7599  -13.4158   21.2954 C   0  0  0  0  0  0  0  0  0  0  0  0
    8.0406  -14.2327   21.0449 C   0  0  2  0  0  0  0  0  0  0  0  0
    8.3335  -14.9787   22.2928 C   0  0  0  0  0  0  0  0  0  0  0  0
    8.5780  -13.9479   23.3993 C   0  0  2  0  0  0  0  0  0  0  0  0
    9.5210  -15.9163   22.2338 N   0  0  0  0  0  0  0  0  0  0  0  0
    9.1717  -17.0075   21.2878 C   0  0  0  0  0  0  0  0  0  0  0  0
    9.8536  -16.5481   23.5246 O   0  0  0  0  0  0  0  0  0  0  0  0
    8.9036  -16.9574   24.2534 N   0  0  0  0  0  0  0  0  0  0  0  0
   11.1910  -16.7202   23.9825 C   0  0  2  0  0  0  0  0  0  0  0  0
   11.5144  -16.7322   25.4080 C   0  0  0  0  0  0  0  0  0  0  0  0
   11.6563  -15.3356   25.9260 C   0  0  0  0  0  0  0  0  0  0  0  0
   10.6476  -14.9976   26.9396 C   0  0  0  0  0  0  0  0  0  0  0  0
   10.4226  -15.6536   28.1572 N   0  0  0  0  0  0  0  0  0  0  0  0
    9.3952  -15.0751   28.7967 C   0  0  0  0  0  0  0  0  0  0  0  0
    8.9015  -14.0382   28.0609 C   0  0  0  0  0  0  0  0  0  0  0  0
    7.8787  -13.1467   28.2978 C   0  0  0  0  0  0  0  0  0  0  0  0
    7.5869  -12.1601   27.3878 C   0  0  0  0  0  0  0  0  0  0  0  0
    8.3601  -12.1152   26.2490 C   0  0  0  0  0  0  0  0  0  0  0  0
    9.3804  -13.0036   26.0102 C   0  0  0  0  0  0  0  0  0  0  0  0
    9.6768  -13.9962   26.9200 C   0  0  0  0  0  0  0  0  0  0  0  0
   10.6821  -17.6544   26.1538 O   0  0  0  0  0  0  0  0  0  0  0  0
    9.4856  -17.8443   25.8124 O   0  0  0  0  0  0  0  0  0  0  0  0
  1  2  1  0
  2  3  2  0
  4  5  1  0
  4  2  1  0
  6  5  1  0
  7  6  1  0
  8  7  1  0
  8  9  1  6
 10  8  1  0
 11 10  2  0
 12 13  1  0
 13 14  1  0
 14 16  1  0
 14 15  1  1
 16 18  1  0
 16 17  1  6
 17 10  1  0
 18 20  1  0
 19 18  2  0
 21 20  1  0
 21 32  1  0
 21 22  1  6
 23 22  1  0
 23 24  2  0
 25 24  1  0
 26 25  1  0
 27 26  2  0
 28 29  2  0
 28 27  1  0
 29 30  1  0
 30 31  2  0
 31 26  1  0
 31 23  1  0
 32 33  2  0
 32 34  1  0
M  END
$$$$
