RIW.pdb
     RDKit          3D

 34 35  0  0  1  0  0  0  0  0999 V2000
    9.6030  -15.2222   15.8853 N   0  0  0  0  0  0  0  0  0  0  0  0
    8.5634  -14.5540   15.1553 C   0  0  0  0  0  0  0  0  0  0  0  0
    8.1592  -15.0974   14.0801 N   0  0  0  0  0  0  0  0  0  0  0  0
    8.0802  -13.3518   15.6951 N   0  0  0  0  0  0  0  0  0  0  0  0
    8.2930  -13.1083   17.1287 C   0  0  0  0  0  0  0  0  0  0  0  0
    7.0870  -13.6411   17.8390 C   0  0  0  0  0  0  0  0  0  0  0  0
    7.3399  -13.8630   19.2864 C   0  0  0  0  0  0  0  0  0  0  0  0
    8.4906  -14.7095   19.6765 C   0  0  2  0  0  0  0  0  0  0  0  0
    8.8970  -15.5810   18.6298 N   0  0  0  0  0  0  0  0  0  0  0  0
    8.1778  -15.4536   20.9410 C   0  0  0  0  0  0  0  0  0  0  0  0
    7.5627  -14.8428   21.8432 O   0  0  0  0  0  0  0  0  0  0  0  0
    7.5191  -14.6937   13.3714 C   0  0  0  0  0  0  0  0  0  0  0  0
    7.1478  -20.9059   20.7361 C   0  0  0  0  0  0  0  0  0  0  0  0
    7.0214  -19.3946   21.0005 C   0  0  2  0  0  0  0  0  0  0  0  0
    8.1063  -19.0238   21.9413 C   0  0  0  0  0  0  0  0  0  0  0  0
    7.9246  -19.8648   23.2087 C   0  0  2  0  0  0  0  0  0  0  0  0
    8.1638  -17.5626   22.3342 N   0  0  0  0  0  0  0  0  0  0  0  0
    8.5580  -16.7979   21.1227 C   0  0  0  0  0  0  0  0  0  0  0  0
    9.1560  -17.2600   23.3828 O   0  0  0  0  0  0  0  0  0  0  0  0
   10.3627  -17.5798   23.1758 N   0  0  0  0  0  0  0  0  0  0  0  0
    8.8175  -16.6232   24.6108 C   0  0  1  0  0  0  0  0  0  0  0  0
    9.8166  -16.3944   25.6530 C   0  0  0  0  0  0  0  0  0  0  0  0
    9.6623  -15.0253   26.2369 C   0  0  0  0  0  0  0  0  0  0  0  0
    8.2938  -14.5040   26.1152 C   0  0  0  0  0  0  0  0  0  0  0  0
    7.1124  -15.2509   26.0164 N   0  0  0  0  0  0  0  0  0  0  0  0
    6.0656  -14.4221   25.8871 C   0  0  0  0  0  0  0  0  0  0  0  0
    6.4846  -13.1241   25.8941 C   0  0  0  0  0  0  0  0  0  0  0  0
    5.7958  -11.9345   25.8070 C   0  0  0  0  0  0  0  0  0  0  0  0
    6.4633  -10.7352   25.8595 C   0  0  0  0  0  0  0  0  0  0  0  0
    7.8320  -10.7903   26.0015 C   0  0  0  0  0  0  0  0  0  0  0  0
    8.5213  -11.9755   26.0881 C   0  0  0  0  0  0  0  0  0  0  0  0
    7.8561  -13.1820   26.0350 C   0  0  0  0  0  0  0  0  0  0  0  0
    9.9286  -17.5153   26.5642 O   0  0  0  0  0  0  0  0  0  0  0  0
   10.8872  -17.5756   27.3777 O   0  0  0  0  0  0  0  0  0  0  0  0
  1  2  1  0
  2  3  2  0
  4  5  1  0
  4  2  1  0
  6  5  1  0
  7  6  1  0
  8  7  1  0
  8  9  1  6
 10  8  1  0
 11 10  2  0
 12 13  1  0
 13 14  1  0
 14 16  1  0
 14 15  1  6
 16 18  1  0
 16 17  1  1
 17 10  1  0
 18 20  1  0
 19 18  2  0
 21 20  1  0
 21 32  1  0
 21 22  1  1
 23 22  1  0
 23 24  2  0
 25 24  1  0
 26 25  1  0
 27 26  2  0
 28 29  2  0
 28 27  1  0
 29 30  1  0
 30 31  2  0
 31 26  1  0
 31 23  1  0
 32 33  2  0
 32 34  1  0
M  END
$$$$
