RIW.pdb
     RDKit          3D

 34 35  0  0  1  0  0  0  0  0999 V2000
    9.5610  -14.4333   13.8547 N   0  0  0  0  0  0  0  0  0  0  0  0
    8.2823  -14.2447   14.4788 C   0  0  0  0  0  0  0  0  0  0  0  0
    7.3346  -13.8070   13.7541 N   0  0  0  0  0  0  0  0  0  0  0  0
    8.1883  -14.5621   15.8428 N   0  0  0  0  0  0  0  0  0  0  0  0
    8.7112  -13.5888   16.8118 C   0  0  0  0  0  0  0  0  0  0  0  0
    7.5686  -13.2143   17.7046 C   0  0  0  0  0  0  0  0  0  0  0  0
    7.4124  -14.1572   18.8425 C   0  0  0  0  0  0  0  0  0  0  0  0
    8.6044  -14.4714   19.6629 C   0  0  2  0  0  0  0  0  0  0  0  0
    9.6496  -15.0513   18.8938 N   0  0  0  0  0  0  0  0  0  0  0  0
    8.2160  -15.3330   20.8278 C   0  0  0  0  0  0  0  0  0  0  0  0
    7.3018  -14.9257   21.5786 O   0  0  0  0  0  0  0  0  0  0  0  0
    6.3354  -13.7104   14.0133 C   0  0  0  0  0  0  0  0  0  0  0  0
    8.0729  -20.7039   20.3729 C   0  0  0  0  0  0  0  0  0  0  0  0
    7.6949  -19.2600   20.7501 C   0  0  2  0  0  0  0  0  0  0  0  0
    8.6047  -18.8423   21.8443 C   0  0  0  0  0  0  0  0  0  0  0  0
    8.3035  -19.7277   23.0574 C   0  0  2  0  0  0  0  0  0  0  0  0
    8.5015  -17.3917   22.2663 N   0  0  0  0  0  0  0  0  0  0  0  0
    8.8508  -16.5646   21.0823 C   0  0  0  0  0  0  0  0  0  0  0  0
    9.4268  -17.0133   23.3509 O   0  0  0  0  0  0  0  0  0  0  0  0
   10.4172  -16.2797   23.0645 N   0  0  0  0  0  0  0  0  0  0  0  0
    9.2528  -17.4323   24.7008 C   0  0  1  0  0  0  0  0  0  0  0  0
    9.9155  -16.7423   25.8059 C   0  0  0  0  0  0  0  0  0  0  0  0
    9.6802  -15.2670   25.7204 C   0  0  0  0  0  0  0  0  0  0  0  0
    8.2856  -14.8947   25.9955 C   0  0  0  0  0  0  0  0  0  0  0  0
    7.1717  -15.7448   26.0042 N   0  0  0  0  0  0  0  0  0  0  0  0
    6.0648  -15.0332   26.2643 C   0  0  0  0  0  0  0  0  0  0  0  0
    6.3768  -13.7167   26.4369 C   0  0  0  0  0  0  0  0  0  0  0  0
    5.6002  -12.6182   26.7324 C   0  0  0  0  0  0  0  0  0  0  0  0
    6.1712  -11.3772   26.8768 C   0  0  0  0  0  0  0  0  0  0  0  0
    7.5362  -11.2971   26.7124 C   0  0  0  0  0  0  0  0  0  0  0  0
    8.3127  -12.3913   26.4172 C   0  0  0  0  0  0  0  0  0  0  0  0
    7.7445  -13.6389   26.2705 C   0  0  0  0  0  0  0  0  0  0  0  0
    9.6884  -17.3960   27.0789 O   0  0  0  0  0  0  0  0  0  0  0  0
   10.3175  -17.0220   28.1029 O   0  0  0  0  0  0  0  0  0  0  0  0
  1  2  1  0
  2  3  2  0
  4  5  1  0
  4  2  1  0
  6  5  1  0
  7  6  1  0
  8  7  1  0
  8  9  1  6
 10  8  1  0
 11 10  2  0
 12 13  1  0
 13 14  1  0
 14 16  1  0
 14 15  1  6
 16 18  1  0
 16 17  1  1
 17 10  1  0
 18 20  1  0
 19 18  2  0
 21 20  1  0
 21 32  1  0
 21 22  1  1
 23 22  1  0
 23 24  2  0
 25 24  1  0
 26 25  1  0
 27 26  2  0
 28 29  2  0
 28 27  1  0
 29 30  1  0
 30 31  2  0
 31 26  1  0
 31 23  1  0
 32 33  2  0
 32 34  1  0
M  END
$$$$
