DKY.pdb
     RDKit          3D

 30 30  0  0  1  0  0  0  0  0999 V2000
   13.2941  -16.9775   18.6687 N   0  0  0  0  0  0  0  0  0  0  0  0
   13.3911  -15.7579   19.4446 C   0  0  1  0  0  0  0  0  0  0  0  0
   13.7800  -14.5786   18.5861 C   0  0  0  0  0  0  0  0  0  0  0  0
   15.1806  -14.7188   18.1456 C   0  0  0  0  0  0  0  0  0  0  0  0
   15.7957  -15.7734   18.4086 O   0  0  0  0  0  0  0  0  0  0  0  0
   12.1122  -15.5469   20.1497 C   0  0  0  0  0  0  0  0  0  0  0  0
   11.8982  -14.5141   20.8661 O   0  0  0  0  0  0  0  0  0  0  0  0
   15.8478  -13.7171   17.4445 O   0  0  0  0  0  0  0  0  0  0  0  0
   11.0573  -16.4746   20.0704 N   0  0  0  0  0  0  0  0  0  0  0  0
    9.7929  -16.3495   20.8187 C   0  0  1  0  0  0  0  0  0  0  0  0
    8.9543  -17.4837   20.2926 C   0  0  0  0  0  0  0  0  0  0  0  0
    8.3582  -17.3135   18.9569 C   0  0  0  0  0  0  0  0  0  0  0  0
    7.6410  -18.4567   18.3488 C   0  0  0  0  0  0  0  0  0  0  0  0
    6.9632  -18.1169   17.0607 C   0  0  0  0  0  0  0  0  0  0  0  0
    6.4149  -19.2728   16.4327 N   0  0  0  0  0  0  0  0  0  0  0  0
   10.1857  -16.5174   22.2471 C   0  0  0  0  0  0  0  0  0  0  0  0
   11.0682  -17.3679   22.6216 O   0  0  0  0  0  0  0  0  0  0  0  0
   10.5649  -15.1845   31.0917 O   0  0  0  0  0  0  0  0  0  0  0  0
   10.3678  -15.0829   29.7212 C   0  0  0  0  0  0  0  0  0  0  0  0
    9.2547  -14.4496   29.2077 C   0  0  0  0  0  0  0  0  0  0  0  0
    9.0592  -14.3490   27.8314 C   0  0  0  0  0  0  0  0  0  0  0  0
    9.9558  -14.8705   26.9250 C   0  0  0  0  0  0  0  0  0  0  0  0
    9.7730  -14.7842   25.4649 C   0  0  0  0  0  0  0  0  0  0  0  0
    9.9437  -16.0609   24.7183 C   0  0  2  0  0  0  0  0  0  0  0  0
    9.6275  -15.7606   23.3100 N   0  0  0  0  0  0  0  0  0  0  0  0
    8.9809  -17.0617   25.2179 C   0  0  0  0  0  0  0  0  0  0  0  0
    7.7859  -17.0737   24.7816 O   0  0  0  0  0  0  0  0  0  0  0  0
   11.0759  -15.5076   27.4534 C   0  0  0  0  0  0  0  0  0  0  0  0
   11.2666  -15.6053   28.8147 C   0  0  0  0  0  0  0  0  0  0  0  0
    9.3223  -18.0101   26.1588 O   0  0  0  0  0  0  0  0  0  0  0  0
  2  3  1  0
  2  1  1  6
  3  4  1  0
  4  5  2  0
  4  8  1  0
  6  2  1  0
  6  7  2  0
  9  6  1  0
 10 16  1  0
 10  9  1  0
 10 11  1  6
 12 11  1  0
 13 12  1  0
 14 13  1  0
 15 14  1  0
 16 25  1  0
 17 16  2  0
 18 19  1  0
 19 29  2  0
 20 19  1  0
 20 21  2  0
 21 22  1  0
 22 28  2  0
 22 23  1  0
 24 23  1  1
 24 25  1  0
 24 26  1  0
 26 27  2  0
 26 30  1  0
 29 28  1  0
M  END
$$$$
