DKY.pdb
     RDKit          3D

 30 30  0  0  1  0  0  0  0  0999 V2000
    8.7070  -18.7200   20.7922 N   0  0  0  0  0  0  0  0  0  0  0  0
    9.9794  -18.1382   20.4164 C   0  0  1  0  0  0  0  0  0  0  0  0
   10.2076  -18.2084   18.9258 C   0  0  0  0  0  0  0  0  0  0  0  0
   10.1533  -19.6118   18.4753 C   0  0  0  0  0  0  0  0  0  0  0  0
    9.7470  -20.4872   19.2680 O   0  0  0  0  0  0  0  0  0  0  0  0
   10.0351  -16.7571   20.9327 C   0  0  0  0  0  0  0  0  0  0  0  0
   11.0707  -16.0259   20.7957 O   0  0  0  0  0  0  0  0  0  0  0  0
   10.5390  -20.0016   17.1949 O   0  0  0  0  0  0  0  0  0  0  0  0
    8.9477  -16.1702   21.6056 N   0  0  0  0  0  0  0  0  0  0  0  0
    8.9161  -14.7646   22.0501 C   0  0  1  0  0  0  0  0  0  0  0  0
    7.5249  -14.3107   21.6965 C   0  0  0  0  0  0  0  0  0  0  0  0
    7.3853  -13.4240   20.5292 C   0  0  0  0  0  0  0  0  0  0  0  0
    7.7811  -13.9357   19.1978 C   0  0  0  0  0  0  0  0  0  0  0  0
    7.6428  -12.9240   18.1063 C   0  0  0  0  0  0  0  0  0  0  0  0
    7.9791  -13.4717   16.8343 N   0  0  0  0  0  0  0  0  0  0  0  0
    9.1609  -14.8316   23.5193 C   0  0  0  0  0  0  0  0  0  0  0  0
    8.9392  -13.8387   24.2987 O   0  0  0  0  0  0  0  0  0  0  0  0
    6.1292  -10.8052   26.8679 O   0  0  0  0  0  0  0  0  0  0  0  0
    6.6378  -12.0821   26.6714 C   0  0  0  0  0  0  0  0  0  0  0  0
    5.9092  -13.0423   26.0000 C   0  0  0  0  0  0  0  0  0  0  0  0
    6.4221  -14.3234   25.8042 C   0  0  0  0  0  0  0  0  0  0  0  0
    7.6667  -14.6916   26.2654 C   0  0  0  0  0  0  0  0  0  0  0  0
    8.2328  -16.0397   26.0782 C   0  0  0  0  0  0  0  0  0  0  0  0
    9.6588  -16.0856   25.6530 C   0  0  2  0  0  0  0  0  0  0  0  0
    9.6541  -15.9854   24.1822 N   0  0  0  0  0  0  0  0  0  0  0  0
   10.2511  -17.3814   26.0386 C   0  0  0  0  0  0  0  0  0  0  0  0
   10.3863  -17.6831   27.2671 O   0  0  0  0  0  0  0  0  0  0  0  0
    8.3940  -13.7152   26.9417 C   0  0  0  0  0  0  0  0  0  0  0  0
    7.8843  -12.4493   27.1336 C   0  0  0  0  0  0  0  0  0  0  0  0
   10.6757  -18.3059   25.1078 O   0  0  0  0  0  0  0  0  0  0  0  0
  2  3  1  0
  2  1  1  6
  3  4  1  0
  4  5  2  0
  4  8  1  0
  6  2  1  0
  6  7  2  0
  9  6  1  0
 10 16  1  0
 10  9  1  0
 10 11  1  1
 12 11  1  0
 13 12  1  0
 14 13  1  0
 15 14  1  0
 16 25  1  0
 17 16  2  0
 18 19  1  0
 19 29  2  0
 20 19  1  0
 20 21  2  0
 21 22  1  0
 22 28  2  0
 22 23  1  0
 24 23  1  6
 24 25  1  0
 24 26  1  0
 26 27  2  0
 26 30  1  0
 29 28  1  0
M  END
$$$$
