DKY.pdb
     RDKit          3D

 30 30  0  0  1  0  0  0  0  0999 V2000
    8.7874  -15.9442   19.5433 N   0  0  0  0  0  0  0  0  0  0  0  0
    8.3435  -14.7789   20.2809 C   0  0  1  0  0  0  0  0  0  0  0  0
    7.4425  -13.8998   19.4476 C   0  0  0  0  0  0  0  0  0  0  0  0
    8.0933  -13.5909   18.1605 C   0  0  0  0  0  0  0  0  0  0  0  0
    9.1687  -14.1577   17.8741 O   0  0  0  0  0  0  0  0  0  0  0  0
    7.6971  -15.2307   21.5280 C   0  0  0  0  0  0  0  0  0  0  0  0
    6.9701  -14.4547   22.2315 O   0  0  0  0  0  0  0  0  0  0  0  0
    7.5538  -12.6881   17.2475 O   0  0  0  0  0  0  0  0  0  0  0  0
    7.8476  -16.5439   22.0103 N   0  0  0  0  0  0  0  0  0  0  0  0
    7.2009  -17.0503   23.2348 C   0  0  1  0  0  0  0  0  0  0  0  0
    6.9956  -18.5142   22.9495 C   0  0  0  0  0  0  0  0  0  0  0  0
    6.0704  -18.8613   21.8578 C   0  0  0  0  0  0  0  0  0  0  0  0
    5.9702  -20.2764   21.4353 C   0  0  0  0  0  0  0  0  0  0  0  0
    4.9606  -20.5056   20.3572 C   0  0  0  0  0  0  0  0  0  0  0  0
    4.9276  -21.8700   19.9473 N   0  0  0  0  0  0  0  0  0  0  0  0
    8.1943  -16.7922   24.3163 C   0  0  0  0  0  0  0  0  0  0  0  0
    9.4585  -16.8145   24.1075 O   0  0  0  0  0  0  0  0  0  0  0  0
    6.0817  -10.5194   25.0546 O   0  0  0  0  0  0  0  0  0  0  0  0
    6.5929  -11.6531   25.6720 C   0  0  0  0  0  0  0  0  0  0  0  0
    5.8152  -12.4116   26.5226 C   0  0  0  0  0  0  0  0  0  0  0  0
    6.3308  -13.5491   27.1411 C   0  0  0  0  0  0  0  0  0  0  0  0
    7.6269  -13.9688   26.9375 C   0  0  0  0  0  0  0  0  0  0  0  0
    8.2012  -15.1639   27.5816 C   0  0  0  0  0  0  0  0  0  0  0  0
    8.8523  -16.1393   26.6645 C   0  0  2  0  0  0  0  0  0  0  0  0
    7.8370  -16.5005   25.6584 N   0  0  0  0  0  0  0  0  0  0  0  0
    9.2292  -17.3527   27.4155 C   0  0  0  0  0  0  0  0  0  0  0  0
   10.1643  -17.3076   28.2769 O   0  0  0  0  0  0  0  0  0  0  0  0
    8.4035  -13.1965   26.0772 C   0  0  0  0  0  0  0  0  0  0  0  0
    7.8908  -12.0722   25.4669 C   0  0  0  0  0  0  0  0  0  0  0  0
    8.6002  -18.5649   27.2247 O   0  0  0  0  0  0  0  0  0  0  0  0
  2  3  1  0
  2  1  1  6
  3  4  1  0
  4  5  2  0
  4  8  1  0
  6  2  1  0
  6  7  2  0
  9  6  1  0
 10 16  1  0
 10  9  1  0
 10 11  1  6
 12 11  1  0
 13 12  1  0
 14 13  1  0
 15 14  1  0
 16 25  1  0
 17 16  2  0
 18 19  1  0
 19 29  2  0
 20 19  1  0
 20 21  2  0
 21 22  1  0
 22 28  2  0
 22 23  1  0
 24 23  1  1
 24 25  1  0
 24 26  1  0
 26 27  2  0
 26 30  1  0
 29 28  1  0
M  END
$$$$
