DKY.pdb
     RDKit          3D

 30 30  0  0  1  0  0  0  0  0999 V2000
   11.1913  -18.5536   18.9290 N   0  0  0  0  0  0  0  0  0  0  0  0
   12.3096  -17.7407   19.3620 C   0  0  1  0  0  0  0  0  0  0  0  0
   13.0455  -17.1336   18.1920 C   0  0  0  0  0  0  0  0  0  0  0  0
   13.7412  -18.1903   17.4338 C   0  0  0  0  0  0  0  0  0  0  0  0
   14.7625  -17.8935   16.7790 O   0  0  0  0  0  0  0  0  0  0  0  0
   11.8119  -16.7227   20.3070 C   0  0  0  0  0  0  0  0  0  0  0  0
   12.6019  -16.0057   21.0054 O   0  0  0  0  0  0  0  0  0  0  0  0
   13.3026  -19.5121   17.4190 O   0  0  0  0  0  0  0  0  0  0  0  0
   10.4369  -16.4867   20.4901 N   0  0  0  0  0  0  0  0  0  0  0  0
    9.8917  -15.3637   21.2748 C   0  0  1  0  0  0  0  0  0  0  0  0
    8.5401  -15.1214   20.6576 C   0  0  0  0  0  0  0  0  0  0  0  0
    8.4730  -14.1555   19.5481 C   0  0  0  0  0  0  0  0  0  0  0  0
    7.1620  -13.8951   18.9121 C   0  0  0  0  0  0  0  0  0  0  0  0
    7.2402  -12.9603   17.7485 C   0  0  0  0  0  0  0  0  0  0  0  0
    5.9757  -12.8072   17.1093 N   0  0  0  0  0  0  0  0  0  0  0  0
    9.8200  -15.8830   22.6706 C   0  0  0  0  0  0  0  0  0  0  0  0
    9.5701  -17.1120   22.9344 O   0  0  0  0  0  0  0  0  0  0  0  0
   10.7477  -15.9377   31.6219 O   0  0  0  0  0  0  0  0  0  0  0  0
   10.7007  -15.6205   30.2710 C   0  0  0  0  0  0  0  0  0  0  0  0
   11.3080  -16.4259   29.3297 C   0  0  0  0  0  0  0  0  0  0  0  0
   11.2593  -16.1052   27.9743 C   0  0  0  0  0  0  0  0  0  0  0  0
   10.6106  -14.9818   27.5111 C   0  0  0  0  0  0  0  0  0  0  0  0
   10.5471  -14.6143   26.0850 C   0  0  0  0  0  0  0  0  0  0  0  0
    9.9708  -15.6459   25.1795 C   0  0  2  0  0  0  0  0  0  0  0  0
   10.0202  -15.0761   23.8207 N   0  0  0  0  0  0  0  0  0  0  0  0
    8.5609  -15.8924   25.5399 C   0  0  0  0  0  0  0  0  0  0  0  0
    7.6330  -15.2131   24.9956 O   0  0  0  0  0  0  0  0  0  0  0  0
   10.0007  -14.1756   28.4691 C   0  0  0  0  0  0  0  0  0  0  0  0
   10.0505  -14.4954   29.8087 C   0  0  0  0  0  0  0  0  0  0  0  0
    8.1901  -16.8486   26.4614 O   0  0  0  0  0  0  0  0  0  0  0  0
  2  3  1  0
  2  1  1  6
  3  4  1  0
  4  5  2  0
  4  8  1  0
  6  2  1  0
  6  7  2  0
  9  6  1  0
 10 16  1  0
 10  9  1  0
 10 11  1  6
 12 11  1  0
 13 12  1  0
 14 13  1  0
 15 14  1  0
 16 25  1  0
 17 16  2  0
 18 19  1  0
 19 29  2  0
 20 19  1  0
 20 21  2  0
 21 22  1  0
 22 28  2  0
 22 23  1  0
 24 23  1  1
 24 25  1  0
 24 26  1  0
 26 27  2  0
 26 30  1  0
 29 28  1  0
M  END
$$$$
