DKY.pdb
     RDKit          3D

 30 30  0  0  1  0  0  0  0  0999 V2000
    9.5864  -15.7933   16.9801 N   0  0  0  0  0  0  0  0  0  0  0  0
    8.5712  -14.8551   17.4137 C   0  0  1  0  0  0  0  0  0  0  0  0
    7.5900  -14.5435   16.3096 C   0  0  0  0  0  0  0  0  0  0  0  0
    8.3006  -14.4390   15.0214 C   0  0  0  0  0  0  0  0  0  0  0  0
    9.4672  -14.8764   14.9358 O   0  0  0  0  0  0  0  0  0  0  0  0
    7.9140  -15.3979   18.6181 C   0  0  0  0  0  0  0  0  0  0  0  0
    6.9418  -14.7987   19.1852 O   0  0  0  0  0  0  0  0  0  0  0  0
    7.7195  -13.8691   13.8911 O   0  0  0  0  0  0  0  0  0  0  0  0
    8.3242  -16.6076   19.2080 N   0  0  0  0  0  0  0  0  0  0  0  0
    7.6451  -17.2354   20.3564 C   0  0  1  0  0  0  0  0  0  0  0  0
    8.1367  -18.6580   20.3264 C   0  0  0  0  0  0  0  0  0  0  0  0
    7.3981  -19.6049   19.4741 C   0  0  0  0  0  0  0  0  0  0  0  0
    7.9424  -20.9693   19.2919 C   0  0  0  0  0  0  0  0  0  0  0  0
    7.1397  -21.8097   18.3521 C   0  0  0  0  0  0  0  0  0  0  0  0
    7.6777  -23.1236   18.2292 N   0  0  0  0  0  0  0  0  0  0  0  0
    8.1267  -16.4681   21.5406 C   0  0  0  0  0  0  0  0  0  0  0  0
    9.3723  -16.2898   21.7835 O   0  0  0  0  0  0  0  0  0  0  0  0
    7.7468  -10.9408   28.6123 O   0  0  0  0  0  0  0  0  0  0  0  0
    7.5540  -11.6749   27.4497 C   0  0  0  0  0  0  0  0  0  0  0  0
    8.5838  -11.8693   26.5523 C   0  0  0  0  0  0  0  0  0  0  0  0
    8.3876  -12.6067   25.3860 C   0  0  0  0  0  0  0  0  0  0  0  0
    7.1708  -13.1717   25.0736 C   0  0  0  0  0  0  0  0  0  0  0  0
    6.9322  -13.9516   23.8457 C   0  0  0  0  0  0  0  0  0  0  0  0
    7.7905  -15.1554   23.6707 C   0  0  2  0  0  0  0  0  0  0  0  0
    7.2625  -15.8711   22.4949 N   0  0  0  0  0  0  0  0  0  0  0  0
    7.6675  -16.0300   24.8533 C   0  0  0  0  0  0  0  0  0  0  0  0
    6.6722  -16.8138   24.9690 O   0  0  0  0  0  0  0  0  0  0  0  0
    6.1380  -12.9698   25.9859 C   0  0  0  0  0  0  0  0  0  0  0  0
    6.3352  -12.2404   27.1384 C   0  0  0  0  0  0  0  0  0  0  0  0
    8.6039  -16.0400   25.8654 O   0  0  0  0  0  0  0  0  0  0  0  0
  2  3  1  0
  2  1  1  6
  3  4  1  0
  4  5  2  0
  4  8  1  0
  6  2  1  0
  6  7  2  0
  9  6  1  0
 10 16  1  0
 10  9  1  0
 10 11  1  1
 12 11  1  0
 13 12  1  0
 14 13  1  0
 15 14  1  0
 16 25  1  0
 17 16  2  0
 18 19  1  0
 19 29  2  0
 20 19  1  0
 20 21  2  0
 21 22  1  0
 22 28  2  0
 22 23  1  0
 24 23  1  1
 24 25  1  0
 24 26  1  0
 26 27  2  0
 26 30  1  0
 29 28  1  0
M  END
$$$$
