DKY.pdb
     RDKit          3D

 30 30  0  0  1  0  0  0  0  0999 V2000
   11.6820  -16.4577   18.8553 N   0  0  0  0  0  0  0  0  0  0  0  0
   12.0824  -15.6379   19.9806 C   0  0  1  0  0  0  0  0  0  0  0  0
   12.7506  -14.3607   19.5321 C   0  0  0  0  0  0  0  0  0  0  0  0
   13.9306  -14.6753   18.7050 C   0  0  0  0  0  0  0  0  0  0  0  0
   14.2176  -15.8715   18.4893 O   0  0  0  0  0  0  0  0  0  0  0  0
   10.8986  -15.3903   20.8259 C   0  0  0  0  0  0  0  0  0  0  0  0
   10.9265  -14.5741   21.8052 O   0  0  0  0  0  0  0  0  0  0  0  0
   14.7415  -13.6868   18.1525 O   0  0  0  0  0  0  0  0  0  0  0  0
    9.6725  -16.0418   20.5980 N   0  0  0  0  0  0  0  0  0  0  0  0
    8.4876  -15.8924   21.4628 C   0  0  1  0  0  0  0  0  0  0  0  0
    7.3501  -16.3529   20.5908 C   0  0  0  0  0  0  0  0  0  0  0  0
    6.0474  -16.5641   21.2439 C   0  0  0  0  0  0  0  0  0  0  0  0
    5.1927  -17.6795   20.7786 C   0  0  0  0  0  0  0  0  0  0  0  0
    3.8490  -17.7124   21.4324 C   0  0  0  0  0  0  0  0  0  0  0  0
    3.0940  -18.8516   21.0285 N   0  0  0  0  0  0  0  0  0  0  0  0
    8.7513  -16.7975   22.6179 C   0  0  0  0  0  0  0  0  0  0  0  0
    9.8001  -17.5304   22.6909 O   0  0  0  0  0  0  0  0  0  0  0  0
   10.9374  -14.1616   30.4430 O   0  0  0  0  0  0  0  0  0  0  0  0
   10.4595  -14.4900   29.1815 C   0  0  0  0  0  0  0  0  0  0  0  0
   11.0153  -15.5246   28.4575 C   0  0  0  0  0  0  0  0  0  0  0  0
   10.5337  -15.8523   27.1914 C   0  0  0  0  0  0  0  0  0  0  0  0
    9.4914  -15.1684   26.6055 C   0  0  0  0  0  0  0  0  0  0  0  0
    8.9646  -15.4885   25.2665 C   0  0  0  0  0  0  0  0  0  0  0  0
    8.3769  -16.8478   25.1141 C   0  0  2  0  0  0  0  0  0  0  0  0
    7.8783  -16.9287   23.7290 N   0  0  0  0  0  0  0  0  0  0  0  0
    7.2370  -17.0033   26.0387 C   0  0  0  0  0  0  0  0  0  0  0  0
    7.3953  -17.5893   27.1568 O   0  0  0  0  0  0  0  0  0  0  0  0
    8.9372  -14.1259   27.3445 C   0  0  0  0  0  0  0  0  0  0  0  0
    9.4155  -13.8044   28.5963 C   0  0  0  0  0  0  0  0  0  0  0  0
    5.9757  -16.5314   25.7427 O   0  0  0  0  0  0  0  0  0  0  0  0
  2  3  1  0
  2  1  1  6
  3  4  1  0
  4  5  2  0
  4  8  1  0
  6  2  1  0
  6  7  2  0
  9  6  1  0
 10 16  1  0
 10  9  1  0
 10 11  1  6
 12 11  1  0
 13 12  1  0
 14 13  1  0
 15 14  1  0
 16 25  1  0
 17 16  2  0
 18 19  1  0
 19 29  2  0
 20 19  1  0
 20 21  2  0
 21 22  1  0
 22 28  2  0
 22 23  1  0
 24 23  1  6
 24 25  1  0
 24 26  1  0
 26 27  2  0
 26 30  1  0
 29 28  1  0
M  END
$$$$
