DKY.pdb
     RDKit          3D

 30 30  0  0  1  0  0  0  0  0999 V2000
    9.0205  -18.4835   18.3941 N   0  0  0  0  0  0  0  0  0  0  0  0
    8.8448  -17.0485   18.4878 C   0  0  1  0  0  0  0  0  0  0  0  0
    8.2324  -16.4771   17.2318 C   0  0  0  0  0  0  0  0  0  0  0  0
    9.0834  -16.7939   16.0695 C   0  0  0  0  0  0  0  0  0  0  0  0
    9.8400  -17.7860   16.1252 O   0  0  0  0  0  0  0  0  0  0  0  0
    8.0464  -16.7508   19.6924 C   0  0  0  0  0  0  0  0  0  0  0  0
    7.7734  -15.5559   20.0436 O   0  0  0  0  0  0  0  0  0  0  0  0
    9.0768  -16.0271   14.9068 O   0  0  0  0  0  0  0  0  0  0  0  0
    7.5419  -17.7700   20.5210 N   0  0  0  0  0  0  0  0  0  0  0  0
    6.7399  -17.5238   21.7335 C   0  0  1  0  0  0  0  0  0  0  0  0
    5.9530  -18.7959   21.9041 C   0  0  0  0  0  0  0  0  0  0  0  0
    4.4929  -18.7091   21.7340 C   0  0  0  0  0  0  0  0  0  0  0  0
    3.6965  -19.9555   21.7900 C   0  0  0  0  0  0  0  0  0  0  0  0
    2.2434  -19.7464   21.5095 C   0  0  0  0  0  0  0  0  0  0  0  0
    1.5099  -20.9655   21.5916 N   0  0  0  0  0  0  0  0  0  0  0  0
    7.7478  -17.3029   22.8099 C   0  0  0  0  0  0  0  0  0  0  0  0
    8.8739  -17.9142   22.8325 O   0  0  0  0  0  0  0  0  0  0  0  0
   11.1795  -14.2302   30.5234 O   0  0  0  0  0  0  0  0  0  0  0  0
   10.4285  -14.4486   29.3762 C   0  0  0  0  0  0  0  0  0  0  0  0
    9.2429  -15.1525   29.4256 C   0  0  0  0  0  0  0  0  0  0  0  0
    8.4909  -15.3703   28.2725 C   0  0  0  0  0  0  0  0  0  0  0  0
    8.8881  -14.9001   27.0402 C   0  0  0  0  0  0  0  0  0  0  0  0
    8.1169  -15.1195   25.8033 C   0  0  0  0  0  0  0  0  0  0  0  0
    8.5650  -16.2611   24.9593 C   0  0  2  0  0  0  0  0  0  0  0  0
    7.5568  -16.4067   23.8936 N   0  0  0  0  0  0  0  0  0  0  0  0
    8.5857  -17.4974   25.7653 C   0  0  0  0  0  0  0  0  0  0  0  0
    7.5017  -18.1112   26.0235 O   0  0  0  0  0  0  0  0  0  0  0  0
   10.0861  -14.1908   27.0011 C   0  0  0  0  0  0  0  0  0  0  0  0
   10.8274  -13.9769   28.1431 C   0  0  0  0  0  0  0  0  0  0  0  0
    9.7534  -18.0344   26.2646 O   0  0  0  0  0  0  0  0  0  0  0  0
  2  3  1  0
  2  1  1  6
  3  4  1  0
  4  5  2  0
  4  8  1  0
  6  2  1  0
  6  7  2  0
  9  6  1  0
 10 16  1  0
 10  9  1  0
 10 11  1  1
 12 11  1  0
 13 12  1  0
 14 13  1  0
 15 14  1  0
 16 25  1  0
 17 16  2  0
 18 19  1  0
 19 29  2  0
 20 19  1  0
 20 21  2  0
 21 22  1  0
 22 28  2  0
 22 23  1  0
 24 23  1  1
 24 25  1  0
 24 26  1  0
 26 27  2  0
 26 30  1  0
 29 28  1  0
M  END
$$$$
