DKY.pdb
     RDKit          3D

 30 30  0  0  1  0  0  0  0  0999 V2000
    9.8381  -17.9206   17.7515 N   0  0  0  0  0  0  0  0  0  0  0  0
    8.8327  -16.9882   18.2190 C   0  0  1  0  0  0  0  0  0  0  0  0
    7.6184  -16.9795   17.3221 C   0  0  0  0  0  0  0  0  0  0  0  0
    7.9982  -17.3959   15.9591 C   0  0  0  0  0  0  0  0  0  0  0  0
    8.6906  -18.4247   15.8108 O   0  0  0  0  0  0  0  0  0  0  0  0
    8.5002  -17.3186   19.6181 C   0  0  0  0  0  0  0  0  0  0  0  0
    7.6822  -16.6187   20.3014 O   0  0  0  0  0  0  0  0  0  0  0  0
    7.6135  -16.6842   14.8254 O   0  0  0  0  0  0  0  0  0  0  0  0
    9.0679  -18.4251   20.2761 N   0  0  0  0  0  0  0  0  0  0  0  0
    8.8162  -18.7604   21.6898 C   0  0  1  0  0  0  0  0  0  0  0  0
    9.3699  -20.1534   21.8292 C   0  0  0  0  0  0  0  0  0  0  0  0
    9.3591  -20.7476   23.1765 C   0  0  0  0  0  0  0  0  0  0  0  0
    9.9641  -22.0850   23.3673 C   0  0  0  0  0  0  0  0  0  0  0  0
    9.9553  -22.5448   24.7894 C   0  0  0  0  0  0  0  0  0  0  0  0
   10.5767  -23.8190   24.9353 N   0  0  0  0  0  0  0  0  0  0  0  0
    9.5837  -17.7391   22.4586 C   0  0  0  0  0  0  0  0  0  0  0  0
   10.3862  -16.9145   21.8944 O   0  0  0  0  0  0  0  0  0  0  0  0
    6.0169  -10.9221   26.2142 O   0  0  0  0  0  0  0  0  0  0  0  0
    6.5155  -12.0896   25.6519 C   0  0  0  0  0  0  0  0  0  0  0  0
    7.8741  -12.3124   25.5631 C   0  0  0  0  0  0  0  0  0  0  0  0
    8.3720  -13.4853   24.9982 C   0  0  0  0  0  0  0  0  0  0  0  0
    7.5433  -14.4693   24.5058 C   0  0  0  0  0  0  0  0  0  0  0  0
    8.0406  -15.7169   23.8983 C   0  0  0  0  0  0  0  0  0  0  0  0
    9.2933  -16.2649   24.4873 C   0  0  2  0  0  0  0  0  0  0  0  0
    9.4970  -17.5866   23.8668 N   0  0  0  0  0  0  0  0  0  0  0  0
    9.1214  -16.4449   25.9421 C   0  0  0  0  0  0  0  0  0  0  0  0
    9.5377  -15.5552   26.7506 O   0  0  0  0  0  0  0  0  0  0  0  0
    6.1736  -14.2347   24.6002 C   0  0  0  0  0  0  0  0  0  0  0  0
    5.6845  -13.0741   25.1595 C   0  0  0  0  0  0  0  0  0  0  0  0
    8.5150  -17.5592   26.4823 O   0  0  0  0  0  0  0  0  0  0  0  0
  2  3  1  0
  2  1  1  6
  3  4  1  0
  4  5  2  0
  4  8  1  0
  6  2  1  0
  6  7  2  0
  9  6  1  0
 10 16  1  0
 10  9  1  0
 10 11  1  6
 12 11  1  0
 13 12  1  0
 14 13  1  0
 15 14  1  0
 16 25  1  0
 17 16  2  0
 18 19  1  0
 19 29  2  0
 20 19  1  0
 20 21  2  0
 21 22  1  0
 22 28  2  0
 22 23  1  0
 24 23  1  6
 24 25  1  0
 24 26  1  0
 26 27  2  0
 26 30  1  0
 29 28  1  0
M  END
$$$$
