DKY.pdb
     RDKit          3D

 30 30  0  0  1  0  0  0  0  0999 V2000
    8.7415  -18.5558   20.5380 N   0  0  0  0  0  0  0  0  0  0  0  0
   10.1019  -18.1241   20.2891 C   0  0  1  0  0  0  0  0  0  0  0  0
   10.4319  -18.1374   18.8160 C   0  0  0  0  0  0  0  0  0  0  0  0
   10.4637  -19.5265   18.3213 C   0  0  0  0  0  0  0  0  0  0  0  0
   11.0829  -20.3895   18.9783 O   0  0  0  0  0  0  0  0  0  0  0  0
   10.2916  -16.7942   20.8993 C   0  0  0  0  0  0  0  0  0  0  0  0
   11.4364  -16.2360   20.9603 O   0  0  0  0  0  0  0  0  0  0  0  0
    9.8276  -19.9161   17.1451 O   0  0  0  0  0  0  0  0  0  0  0  0
    9.2188  -16.0678   21.4482 N   0  0  0  0  0  0  0  0  0  0  0  0
    9.3188  -14.6685   21.9022 C   0  0  1  0  0  0  0  0  0  0  0  0
    7.9850  -14.0776   21.5304 C   0  0  0  0  0  0  0  0  0  0  0  0
    7.9336  -13.2513   20.3127 C   0  0  0  0  0  0  0  0  0  0  0  0
    7.8673  -13.9282   18.9979 C   0  0  0  0  0  0  0  0  0  0  0  0
    7.8834  -12.9828   17.8403 C   0  0  0  0  0  0  0  0  0  0  0  0
    7.8122  -13.6727   16.5954 N   0  0  0  0  0  0  0  0  0  0  0  0
    9.5321  -14.7675   23.3745 C   0  0  0  0  0  0  0  0  0  0  0  0
    9.7469  -13.7390   24.1083 O   0  0  0  0  0  0  0  0  0  0  0  0
    5.9163  -10.8452   26.5990 O   0  0  0  0  0  0  0  0  0  0  0  0
    6.5045  -12.0980   26.4884 C   0  0  0  0  0  0  0  0  0  0  0  0
    7.8140  -12.3052   26.8703 C   0  0  0  0  0  0  0  0  0  0  0  0
    8.4020  -13.5638   26.7583 C   0  0  0  0  0  0  0  0  0  0  0  0
    7.7144  -14.6514   26.2666 C   0  0  0  0  0  0  0  0  0  0  0  0
    8.3112  -15.9925   26.1315 C   0  0  0  0  0  0  0  0  0  0  0  0
    9.6831  -16.0314   25.5547 C   0  0  2  0  0  0  0  0  0  0  0  0
    9.5162  -15.9927   24.0904 N   0  0  0  0  0  0  0  0  0  0  0  0
   10.3420  -17.2995   25.9240 C   0  0  0  0  0  0  0  0  0  0  0  0
   10.5234  -17.5936   27.1483 O   0  0  0  0  0  0  0  0  0  0  0  0
    6.3933  -14.4319   25.8840 C   0  0  0  0  0  0  0  0  0  0  0  0
    5.8147  -13.1862   25.9961 C   0  0  0  0  0  0  0  0  0  0  0  0
   10.7815  -18.2055   24.9820 O   0  0  0  0  0  0  0  0  0  0  0  0
  2  3  1  0
  2  1  1  6
  3  4  1  0
  4  5  2  0
  4  8  1  0
  6  2  1  0
  6  7  2  0
  9  6  1  0
 10 16  1  0
 10  9  1  0
 10 11  1  1
 12 11  1  0
 13 12  1  0
 14 13  1  0
 15 14  1  0
 16 25  1  0
 17 16  2  0
 18 19  1  0
 19 29  2  0
 20 19  1  0
 20 21  2  0
 21 22  1  0
 22 28  2  0
 22 23  1  0
 24 23  1  1
 24 25  1  0
 24 26  1  0
 26 27  2  0
 26 30  1  0
 29 28  1  0
M  END
$$$$
