DKY.pdb
     RDKit          3D

 30 30  0  0  1  0  0  0  0  0999 V2000
    8.6861  -18.7712   21.1511 N   0  0  0  0  0  0  0  0  0  0  0  0
    9.9046  -18.1405   20.6859 C   0  0  1  0  0  0  0  0  0  0  0  0
    9.9949  -18.1425   19.1790 C   0  0  0  0  0  0  0  0  0  0  0  0
   10.1116  -19.5274   18.6850 C   0  0  0  0  0  0  0  0  0  0  0  0
   10.4319  -20.4310   19.4854 O   0  0  0  0  0  0  0  0  0  0  0  0
    9.9766  -16.7811   21.2551 C   0  0  0  0  0  0  0  0  0  0  0  0
   11.0482  -16.0909   21.2223 O   0  0  0  0  0  0  0  0  0  0  0  0
    9.8777  -19.8691   17.3552 O   0  0  0  0  0  0  0  0  0  0  0  0
    8.8659  -16.1708   21.8663 N   0  0  0  0  0  0  0  0  0  0  0  0
    8.8524  -14.7761   22.3445 C   0  0  1  0  0  0  0  0  0  0  0  0
    7.4644  -14.2986   22.0102 C   0  0  0  0  0  0  0  0  0  0  0  0
    7.1065  -14.2229   20.5838 C   0  0  0  0  0  0  0  0  0  0  0  0
    7.9671  -13.4301   19.6773 C   0  0  0  0  0  0  0  0  0  0  0  0
    7.4330  -13.3313   18.2849 C   0  0  0  0  0  0  0  0  0  0  0  0
    8.2301  -12.4719   17.4742 N   0  0  0  0  0  0  0  0  0  0  0  0
    9.1050  -14.8809   23.8101 C   0  0  0  0  0  0  0  0  0  0  0  0
    8.9395  -13.8920   24.6083 O   0  0  0  0  0  0  0  0  0  0  0  0
    6.0418  -10.8616   26.6567 O   0  0  0  0  0  0  0  0  0  0  0  0
    6.6279  -12.1199   26.6316 C   0  0  0  0  0  0  0  0  0  0  0  0
    7.9305  -12.3063   27.0463 C   0  0  0  0  0  0  0  0  0  0  0  0
    8.5166  -13.5705   27.0200 C   0  0  0  0  0  0  0  0  0  0  0  0
    7.8338  -14.6845   26.5838 C   0  0  0  0  0  0  0  0  0  0  0  0
    8.4287  -16.0325   26.5396 C   0  0  0  0  0  0  0  0  0  0  0  0
    9.7722  -16.1226   25.9046 C   0  0  2  0  0  0  0  0  0  0  0  0
    9.5447  -16.0694   24.4489 N   0  0  0  0  0  0  0  0  0  0  0  0
   10.3952  -17.4177   26.2406 C   0  0  0  0  0  0  0  0  0  0  0  0
   10.6112  -17.7279   27.4554 O   0  0  0  0  0  0  0  0  0  0  0  0
    6.5196  -14.4858   26.1674 C   0  0  0  0  0  0  0  0  0  0  0  0
    5.9429  -13.2345   26.1948 C   0  0  0  0  0  0  0  0  0  0  0  0
   10.7636  -18.3326   25.2770 O   0  0  0  0  0  0  0  0  0  0  0  0
  2  3  1  0
  2  1  1  6
  3  4  1  0
  4  5  2  0
  4  8  1  0
  6  2  1  0
  6  7  2  0
  9  6  1  0
 10 16  1  0
 10  9  1  0
 10 11  1  1
 12 11  1  0
 13 12  1  0
 14 13  1  0
 15 14  1  0
 16 25  1  0
 17 16  2  0
 18 19  1  0
 19 29  2  0
 20 19  1  0
 20 21  2  0
 21 22  1  0
 22 28  2  0
 22 23  1  0
 24 23  1  1
 24 25  1  0
 24 26  1  0
 26 27  2  0
 26 30  1  0
 29 28  1  0
M  END
$$$$
