DKY.pdb
     RDKit          3D

 30 30  0  0  1  0  0  0  0  0999 V2000
    9.4098  -17.8456   18.9796 N   0  0  0  0  0  0  0  0  0  0  0  0
   10.7160  -17.3733   19.3915 C   0  0  1  0  0  0  0  0  0  0  0  0
   11.6498  -17.2158   18.2159 C   0  0  0  0  0  0  0  0  0  0  0  0
   11.7428  -18.4878   17.4750 C   0  0  0  0  0  0  0  0  0  0  0  0
   11.5286  -19.5587   18.0807 O   0  0  0  0  0  0  0  0  0  0  0  0
   10.5442  -16.1190   20.1494 C   0  0  0  0  0  0  0  0  0  0  0  0
   11.5393  -15.4248   20.5413 O   0  0  0  0  0  0  0  0  0  0  0  0
   12.0614  -18.5423   16.1202 O   0  0  0  0  0  0  0  0  0  0  0  0
    9.2716  -15.6193   20.4821 N   0  0  0  0  0  0  0  0  0  0  0  0
    9.0452  -14.3312   21.1630 C   0  0  1  0  0  0  0  0  0  0  0  0
    7.6696  -13.9242   20.7063 C   0  0  0  0  0  0  0  0  0  0  0  0
    7.5543  -13.3488   19.3557 C   0  0  0  0  0  0  0  0  0  0  0  0
    7.4361  -14.2671   18.2007 C   0  0  0  0  0  0  0  0  0  0  0  0
    7.3443  -13.5614   16.8864 C   0  0  0  0  0  0  0  0  0  0  0  0
    7.2053  -14.4783   15.8043 N   0  0  0  0  0  0  0  0  0  0  0  0
    9.1131  -14.6593   22.6158 C   0  0  0  0  0  0  0  0  0  0  0  0
    8.2414  -14.2397   23.4564 O   0  0  0  0  0  0  0  0  0  0  0  0
   10.7797  -15.1458   31.0266 O   0  0  0  0  0  0  0  0  0  0  0  0
   10.4705  -15.2286   29.6756 C   0  0  0  0  0  0  0  0  0  0  0  0
   10.5113  -16.4361   29.0094 C   0  0  0  0  0  0  0  0  0  0  0  0
   10.2004  -16.5165   27.6531 C   0  0  0  0  0  0  0  0  0  0  0  0
    9.8415  -15.4084   26.9179 C   0  0  0  0  0  0  0  0  0  0  0  0
    9.5128  -15.4618   25.4819 C   0  0  0  0  0  0  0  0  0  0  0  0
   10.6434  -15.1899   24.5523 C   0  0  2  0  0  0  0  0  0  0  0  0
   10.1345  -15.4566   23.1946 N   0  0  0  0  0  0  0  0  0  0  0  0
   11.7539  -16.1204   24.8342 C   0  0  0  0  0  0  0  0  0  0  0  0
   11.8948  -17.1775   24.1406 O   0  0  0  0  0  0  0  0  0  0  0  0
    9.8033  -14.1945   27.5996 C   0  0  0  0  0  0  0  0  0  0  0  0
   10.1109  -14.1182   28.9407 C   0  0  0  0  0  0  0  0  0  0  0  0
   12.6710  -15.8936   25.8386 O   0  0  0  0  0  0  0  0  0  0  0  0
  2  3  1  0
  2  1  1  6
  3  4  1  0
  4  5  2  0
  4  8  1  0
  6  2  1  0
  6  7  2  0
  9  6  1  0
 10 16  1  0
 10  9  1  0
 10 11  1  1
 12 11  1  0
 13 12  1  0
 14 13  1  0
 15 14  1  0
 16 25  1  0
 17 16  2  0
 18 19  1  0
 19 29  2  0
 20 19  1  0
 20 21  2  0
 21 22  1  0
 22 28  2  0
 22 23  1  0
 24 23  1  1
 24 25  1  0
 24 26  1  0
 26 27  2  0
 26 30  1  0
 29 28  1  0
M  END
$$$$
