DKY.pdb
     RDKit          3D

 30 30  0  0  1  0  0  0  0  0999 V2000
   12.0523  -17.0321   17.4426 N   0  0  0  0  0  0  0  0  0  0  0  0
   12.0101  -17.8987   18.6028 C   0  0  1  0  0  0  0  0  0  0  0  0
   13.3439  -17.9546   19.3076 C   0  0  0  0  0  0  0  0  0  0  0  0
   14.3430  -18.6066   18.4403 C   0  0  0  0  0  0  0  0  0  0  0  0
   14.0748  -18.7821   17.2332 O   0  0  0  0  0  0  0  0  0  0  0  0
   10.9208  -17.4449   19.4885 C   0  0  0  0  0  0  0  0  0  0  0  0
   10.4956  -16.2429   19.4750 O   0  0  0  0  0  0  0  0  0  0  0  0
   15.5794  -19.0363   18.9161 O   0  0  0  0  0  0  0  0  0  0  0  0
   10.2907  -18.3141   20.3980 N   0  0  0  0  0  0  0  0  0  0  0  0
    9.1610  -17.9242   21.2617 C   0  0  1  0  0  0  0  0  0  0  0  0
    8.2263  -19.1013   21.1783 C   0  0  0  0  0  0  0  0  0  0  0  0
    7.0694  -19.1048   22.0892 C   0  0  0  0  0  0  0  0  0  0  0  0
    6.0658  -20.1849   21.9578 C   0  0  0  0  0  0  0  0  0  0  0  0
    4.9161  -20.0473   22.9029 C   0  0  0  0  0  0  0  0  0  0  0  0
    3.9948  -21.1268   22.7730 N   0  0  0  0  0  0  0  0  0  0  0  0
    9.7674  -17.7449   22.6120 C   0  0  0  0  0  0  0  0  0  0  0  0
   10.5519  -18.6137   23.1336 O   0  0  0  0  0  0  0  0  0  0  0  0
   10.4739  -14.2902   30.8981 O   0  0  0  0  0  0  0  0  0  0  0  0
   10.2834  -14.5156   29.5414 C   0  0  0  0  0  0  0  0  0  0  0  0
   11.2126  -15.2152   28.7993 C   0  0  0  0  0  0  0  0  0  0  0  0
   11.0189  -15.4401   27.4375 C   0  0  0  0  0  0  0  0  0  0  0  0
    9.9041  -14.9809   26.7714 C   0  0  0  0  0  0  0  0  0  0  0  0
    9.6749  -15.1985   25.3316 C   0  0  0  0  0  0  0  0  0  0  0  0
   10.0330  -16.5499   24.8199 C   0  0  2  0  0  0  0  0  0  0  0  0
    9.5364  -16.6108   23.4331 N   0  0  0  0  0  0  0  0  0  0  0  0
    9.3427  -17.5826   25.6170 C   0  0  0  0  0  0  0  0  0  0  0  0
    8.0995  -17.7950   25.4503 O   0  0  0  0  0  0  0  0  0  0  0  0
    8.9722  -14.2760   27.5294 C   0  0  0  0  0  0  0  0  0  0  0  0
    9.1665  -14.0554   28.8758 C   0  0  0  0  0  0  0  0  0  0  0  0
    9.9967  -18.3494   26.5580 O   0  0  0  0  0  0  0  0  0  0  0  0
  2  3  1  0
  2  1  1  6
  3  4  1  0
  4  5  2  0
  4  8  1  0
  6  2  1  0
  6  7  2  0
  9  6  1  0
 10 16  1  0
 10  9  1  0
 10 11  1  1
 12 11  1  0
 13 12  1  0
 14 13  1  0
 15 14  1  0
 16 25  1  0
 17 16  2  0
 18 19  1  0
 19 29  2  0
 20 19  1  0
 20 21  2  0
 21 22  1  0
 22 28  2  0
 22 23  1  0
 24 23  1  1
 24 25  1  0
 24 26  1  0
 26 27  2  0
 26 30  1  0
 29 28  1  0
M  END
$$$$
