DKY.pdb
     RDKit          3D

 30 30  0  0  1  0  0  0  0  0999 V2000
   12.8882  -17.1895   17.5367 N   0  0  0  0  0  0  0  0  0  0  0  0
   13.2414  -17.5605   18.8918 C   0  0  1  0  0  0  0  0  0  0  0  0
   14.5577  -16.9530   19.3126 C   0  0  0  0  0  0  0  0  0  0  0  0
   15.6493  -17.4961   18.4825 C   0  0  0  0  0  0  0  0  0  0  0  0
   16.3881  -16.7047   17.8599 O   0  0  0  0  0  0  0  0  0  0  0  0
   12.1314  -17.1811   19.7870 C   0  0  0  0  0  0  0  0  0  0  0  0
   11.8033  -15.9639   19.9778 O   0  0  0  0  0  0  0  0  0  0  0  0
   15.8901  -18.8629   18.3649 O   0  0  0  0  0  0  0  0  0  0  0  0
   11.3732  -18.1425   20.4802 N   0  0  0  0  0  0  0  0  0  0  0  0
   10.2092  -17.8196   21.3258 C   0  0  1  0  0  0  0  0  0  0  0  0
    9.4033  -19.0912   21.3227 C   0  0  0  0  0  0  0  0  0  0  0  0
    8.4410  -19.2725   20.2229 C   0  0  0  0  0  0  0  0  0  0  0  0
    7.7713  -20.5843   20.0750 C   0  0  0  0  0  0  0  0  0  0  0  0
    6.7265  -20.6019   19.0062 C   0  0  0  0  0  0  0  0  0  0  0  0
    6.1379  -21.8921   18.8656 N   0  0  0  0  0  0  0  0  0  0  0  0
   10.7939  -17.4932   22.6580 C   0  0  0  0  0  0  0  0  0  0  0  0
   11.7924  -18.1320   23.1451 O   0  0  0  0  0  0  0  0  0  0  0  0
   10.6247  -14.5196   31.0840 O   0  0  0  0  0  0  0  0  0  0  0  0
   10.4853  -14.6650   29.7103 C   0  0  0  0  0  0  0  0  0  0  0  0
   10.2719  -13.5708   28.8973 C   0  0  0  0  0  0  0  0  0  0  0  0
   10.1323  -13.7195   27.5185 C   0  0  0  0  0  0  0  0  0  0  0  0
   10.1992  -14.9510   26.9050 C   0  0  0  0  0  0  0  0  0  0  0  0
   10.0499  -15.1396   25.4507 C   0  0  0  0  0  0  0  0  0  0  0  0
   10.8245  -16.2681   24.8651 C   0  0  2  0  0  0  0  0  0  0  0  0
   10.3067  -16.4583   23.4980 N   0  0  0  0  0  0  0  0  0  0  0  0
   10.5759  -17.4980   25.6422 C   0  0  0  0  0  0  0  0  0  0  0  0
    9.4626  -18.1053   25.5405 O   0  0  0  0  0  0  0  0  0  0  0  0
   10.4150  -16.0489   27.7343 C   0  0  0  0  0  0  0  0  0  0  0  0
   10.5528  -15.8986   29.0973 C   0  0  0  0  0  0  0  0  0  0  0  0
   11.5164  -18.0360   26.4951 O   0  0  0  0  0  0  0  0  0  0  0  0
  2  3  1  0
  2  1  1  6
  3  4  1  0
  4  5  2  0
  4  8  1  0
  6  2  1  0
  6  7  2  0
  9  6  1  0
 10 16  1  0
 10  9  1  0
 10 11  1  1
 12 11  1  0
 13 12  1  0
 14 13  1  0
 15 14  1  0
 16 25  1  0
 17 16  2  0
 18 19  1  0
 19 29  2  0
 20 19  1  0
 20 21  2  0
 21 22  1  0
 22 28  2  0
 22 23  1  0
 24 23  1  1
 24 25  1  0
 24 26  1  0
 26 27  2  0
 26 30  1  0
 29 28  1  0
M  END
$$$$
