DKY.pdb
     RDKit          3D

 30 30  0  0  1  0  0  0  0  0999 V2000
    8.1861  -18.6828   18.6082 N   0  0  0  0  0  0  0  0  0  0  0  0
    8.6324  -17.3365   18.9033 C   0  0  1  0  0  0  0  0  0  0  0  0
    8.1367  -16.3459   17.8778 C   0  0  0  0  0  0  0  0  0  0  0  0
    8.6404  -16.7129   16.5410 C   0  0  0  0  0  0  0  0  0  0  0  0
    9.3896  -15.9172   15.9365 O   0  0  0  0  0  0  0  0  0  0  0  0
    8.2092  -16.9913   20.2740 C   0  0  0  0  0  0  0  0  0  0  0  0
    8.4185  -15.8378   20.7754 O   0  0  0  0  0  0  0  0  0  0  0  0
    8.3124  -17.9172   15.9230 O   0  0  0  0  0  0  0  0  0  0  0  0
    7.5508  -17.9169   21.1045 N   0  0  0  0  0  0  0  0  0  0  0  0
    6.9827  -17.5812   22.4231 C   0  0  1  0  0  0  0  0  0  0  0  0
    6.1983  -18.8108   22.7962 C   0  0  0  0  0  0  0  0  0  0  0  0
    4.9078  -19.0147   22.1169 C   0  0  0  0  0  0  0  0  0  0  0  0
    4.1245  -20.2306   22.4315 C   0  0  0  0  0  0  0  0  0  0  0  0
    2.8884  -20.3730   21.6034 C   0  0  0  0  0  0  0  0  0  0  0  0
    2.2167  -21.6022   21.8659 N   0  0  0  0  0  0  0  0  0  0  0  0
    8.1706  -17.3505   23.2941 C   0  0  0  0  0  0  0  0  0  0  0  0
    9.2305  -18.0665   23.2143 O   0  0  0  0  0  0  0  0  0  0  0  0
    5.4397  -11.4837   27.1867 O   0  0  0  0  0  0  0  0  0  0  0  0
    6.4742  -12.2536   26.6722 C   0  0  0  0  0  0  0  0  0  0  0  0
    6.4756  -12.6516   25.3512 C   0  0  0  0  0  0  0  0  0  0  0  0
    7.5153  -13.4245   24.8372 C   0  0  0  0  0  0  0  0  0  0  0  0
    8.5810  -13.8257   25.6123 C   0  0  0  0  0  0  0  0  0  0  0  0
    9.6915  -14.6474   25.0982 C   0  0  0  0  0  0  0  0  0  0  0  0
    9.4527  -16.1168   25.0851 C   0  0  2  0  0  0  0  0  0  0  0  0
    8.2375  -16.3300   24.2780 N   0  0  0  0  0  0  0  0  0  0  0  0
    9.1990  -16.5916   26.4594 C   0  0  0  0  0  0  0  0  0  0  0  0
   10.1223  -16.5447   27.3334 O   0  0  0  0  0  0  0  0  0  0  0  0
    8.5702  -13.4187   26.9443 C   0  0  0  0  0  0  0  0  0  0  0  0
    7.5408  -12.6543   27.4495 C   0  0  0  0  0  0  0  0  0  0  0  0
    7.9776  -17.0960   26.8533 O   0  0  0  0  0  0  0  0  0  0  0  0
  2  3  1  0
  2  1  1  6
  3  4  1  0
  4  5  2  0
  4  8  1  0
  6  2  1  0
  6  7  2  0
  9  6  1  0
 10 16  1  0
 10  9  1  0
 10 11  1  1
 12 11  1  0
 13 12  1  0
 14 13  1  0
 15 14  1  0
 16 25  1  0
 17 16  2  0
 18 19  1  0
 19 29  2  0
 20 19  1  0
 20 21  2  0
 21 22  1  0
 22 28  2  0
 22 23  1  0
 24 23  1  1
 24 25  1  0
 24 26  1  0
 26 27  2  0
 26 30  1  0
 29 28  1  0
M  END
$$$$
