LSL.pdb
     RDKit          3D

 23 22  0  0  1  0  0  0  0  0999 V2000
    9.8512  -13.5645   19.0303 C   0  0  0  0  0  0  0  0  0  0  0  0
    8.3767  -13.6420   18.5994 C   0  0  2  0  0  0  0  0  0  0  0  0
    7.8776  -12.2547   18.2800 C   0  0  0  0  0  0  0  0  0  0  0  0
    7.6444  -14.2520   19.7428 C   0  0  0  0  0  0  0  0  0  0  0  0
    8.2010  -15.5443   20.2520 C   0  0  2  0  0  0  0  0  0  0  0  0
    7.6777  -16.6285   19.4491 N   0  0  0  0  0  0  0  0  0  0  0  0
    7.7925  -15.7834   21.6729 C   0  0  0  0  0  0  0  0  0  0  0  0
    6.7970  -15.1622   22.1710 O   0  0  0  0  0  0  0  0  0  0  0  0
    9.6050  -18.7355   24.1875 O   0  0  0  0  0  0  0  0  0  0  0  0
    8.2547  -18.4014   24.1724 C   0  0  0  0  0  0  0  0  0  0  0  0
    8.0327  -16.9458   23.9154 C   0  0  2  0  0  0  0  0  0  0  0  0
    8.4595  -16.6857   22.5373 N   0  0  0  0  0  0  0  0  0  0  0  0
    8.6713  -16.0190   24.8281 C   0  0  0  0  0  0  0  0  0  0  0  0
    9.8879  -15.7260   24.6421 O   0  0  0  0  0  0  0  0  0  0  0  0
    7.6798  -11.8876   25.6796 C   0  0  0  0  0  0  0  0  0  0  0  0
    6.7546  -12.9125   26.3605 C   0  0  2  0  0  0  0  0  0  0  0  0
    5.6301  -12.0685   26.9486 C   0  0  0  0  0  0  0  0  0  0  0  0
    7.5796  -13.5997   27.3893 C   0  0  0  0  0  0  0  0  0  0  0  0
    8.5980  -14.5642   26.8825 C   0  0  2  0  0  0  0  0  0  0  0  0
    7.9746  -15.4390   25.9117 N   0  0  0  0  0  0  0  0  0  0  0  0
    9.2845  -15.3593   27.9008 C   0  0  0  0  0  0  0  0  0  0  0  0
    9.2085  -16.7433   27.9835 O   0  0  0  0  0  0  0  0  0  0  0  0
    9.9944  -14.7899   28.7678 O   0  0  0  0  0  0  0  0  0  0  0  0
  2  1  1  1
  2  3  1  0
  4  2  1  0
  4  5  1  0
  5  7  1  0
  5  6  1  6
  7  8  2  0
  9 10  1  0
 11 10  1  1
 12 11  1  0
 12  7  1  0
 13 11  1  0
 14 13  2  0
 16 15  1  1
 16 17  1  0
 18 16  1  0
 19 20  1  0
 19 18  1  1
 20 13  1  0
 21 19  1  0
 22 21  1  0
 23 21  2  0
M  END
$$$$
