LSL.pdb
     RDKit          3D

 23 22  0  0  1  0  0  0  0  0999 V2000
    9.9914  -13.1329   19.3991 C   0  0  0  0  0  0  0  0  0  0  0  0
    8.5789  -13.2646   18.8046 C   0  0  2  0  0  0  0  0  0  0  0  0
    7.9004  -11.9175   18.8300 C   0  0  0  0  0  0  0  0  0  0  0  0
    7.8689  -14.2661   19.6463 C   0  0  0  0  0  0  0  0  0  0  0  0
    8.6158  -15.5357   19.9098 C   0  0  2  0  0  0  0  0  0  0  0  0
    8.2181  -16.5250   18.9315 N   0  0  0  0  0  0  0  0  0  0  0  0
    8.2954  -16.0761   21.2694 C   0  0  0  0  0  0  0  0  0  0  0  0
    7.0924  -16.3549   21.5856 O   0  0  0  0  0  0  0  0  0  0  0  0
   10.9475  -18.1392   23.6341 O   0  0  0  0  0  0  0  0  0  0  0  0
    9.5594  -18.1727   23.7184 C   0  0  0  0  0  0  0  0  0  0  0  0
    8.9507  -16.8121   23.6074 C   0  0  2  0  0  0  0  0  0  0  0  0
    9.2720  -16.3086   22.2686 N   0  0  0  0  0  0  0  0  0  0  0  0
    9.3298  -15.8453   24.6180 C   0  0  0  0  0  0  0  0  0  0  0  0
   10.4838  -15.3298   24.5614 O   0  0  0  0  0  0  0  0  0  0  0  0
    8.0259  -11.8668   25.7716 C   0  0  0  0  0  0  0  0  0  0  0  0
    7.0164  -12.9737   26.1268 C   0  0  2  0  0  0  0  0  0  0  0  0
    5.7875  -12.2162   26.6153 C   0  0  0  0  0  0  0  0  0  0  0  0
    7.6599  -13.8015   27.1813 C   0  0  0  0  0  0  0  0  0  0  0  0
    8.8387  -14.6108   26.7574 C   0  0  2  0  0  0  0  0  0  0  0  0
    8.4498  -15.4667   25.6564 N   0  0  0  0  0  0  0  0  0  0  0  0
    9.4750  -15.4074   27.8067 C   0  0  0  0  0  0  0  0  0  0  0  0
   10.3062  -14.8771   28.7845 O   0  0  0  0  0  0  0  0  0  0  0  0
    9.2799  -16.6480   27.8575 O   0  0  0  0  0  0  0  0  0  0  0  0
  2  1  1  1
  2  3  1  0
  4  2  1  0
  4  5  1  0
  5  7  1  0
  5  6  1  6
  7  8  2  0
  9 10  1  0
 11 10  1  1
 12 11  1  0
 12  7  1  0
 13 11  1  0
 14 13  2  0
 16 15  1  1
 16 17  1  0
 18 16  1  0
 19 20  1  0
 19 18  1  1
 20 13  1  0
 21 19  1  0
 22 21  1  0
 23 21  2  0
M  END
$$$$
