LSL.pdb
     RDKit          3D

 23 22  0  0  1  0  0  0  0  0999 V2000
    5.5040  -21.7568   25.4658 C   0  0  0  0  0  0  0  0  0  0  0  0
    6.0734  -21.9394   24.0487 C   0  0  2  0  0  0  0  0  0  0  0  0
    6.5696  -23.3552   23.8901 C   0  0  0  0  0  0  0  0  0  0  0  0
    7.1702  -20.9423   23.9132 C   0  0  0  0  0  0  0  0  0  0  0  0
    6.7618  -19.5091   24.0484 C   0  0  2  0  0  0  0  0  0  0  0  0
    5.5688  -19.2854   23.2607 N   0  0  0  0  0  0  0  0  0  0  0  0
    7.8314  -18.5943   23.5363 C   0  0  0  0  0  0  0  0  0  0  0  0
    9.0210  -18.6771   23.9867 O   0  0  0  0  0  0  0  0  0  0  0  0
    7.0329  -15.4914   20.7558 O   0  0  0  0  0  0  0  0  0  0  0  0
    8.2439  -16.1760   20.7559 C   0  0  0  0  0  0  0  0  0  0  0  0
    8.6305  -16.6459   22.1211 C   0  0  2  0  0  0  0  0  0  0  0  0
    7.6068  -17.6043   22.5484 N   0  0  0  0  0  0  0  0  0  0  0  0
    8.8226  -15.6244   23.1307 C   0  0  0  0  0  0  0  0  0  0  0  0
    9.7033  -14.7373   22.9360 O   0  0  0  0  0  0  0  0  0  0  0  0
    5.4868  -12.4510   26.8645 C   0  0  0  0  0  0  0  0  0  0  0  0
    6.9517  -12.8920   26.6922 C   0  0  2  0  0  0  0  0  0  0  0  0
    7.6902  -11.6065   26.3390 C   0  0  0  0  0  0  0  0  0  0  0  0
    6.9577  -13.8984   25.5975 C   0  0  0  0  0  0  0  0  0  0  0  0
    8.2466  -14.6113   25.3633 C   0  0  2  0  0  0  0  0  0  0  0  0
    8.0566  -15.5944   24.3175 N   0  0  0  0  0  0  0  0  0  0  0  0
    8.8475  -15.2435   26.5379 C   0  0  0  0  0  0  0  0  0  0  0  0
    9.7695  -14.6183   27.3668 O   0  0  0  0  0  0  0  0  0  0  0  0
    8.5335  -16.4210   26.8458 O   0  0  0  0  0  0  0  0  0  0  0  0
  2  1  1  1
  2  3  1  0
  4  2  1  0
  4  5  1  0
  5  7  1  0
  5  6  1  6
  7  8  2  0
  9 10  1  0
 11 10  1  6
 12 11  1  0
 12  7  1  0
 13 11  1  0
 14 13  2  0
 16 15  1  6
 16 17  1  0
 18 16  1  0
 19 20  1  0
 19 18  1  1
 20 13  1  0
 21 19  1  0
 22 21  1  0
 23 21  2  0
M  END
$$$$
