LSL.pdb
     RDKit          3D

 23 22  0  0  1  0  0  0  0  0999 V2000
    7.3707  -12.1796   19.5686 C   0  0  0  0  0  0  0  0  0  0  0  0
    8.2834  -13.3941   19.8087 C   0  0  2  0  0  0  0  0  0  0  0  0
    9.6460  -13.1164   19.2241 C   0  0  0  0  0  0  0  0  0  0  0  0
    7.6151  -14.5491   19.1493 C   0  0  0  0  0  0  0  0  0  0  0  0
    8.2533  -15.8830   19.3785 C   0  0  2  0  0  0  0  0  0  0  0  0
    7.4784  -16.8967   18.6962 N   0  0  0  0  0  0  0  0  0  0  0  0
    8.2778  -16.2243   20.8366 C   0  0  0  0  0  0  0  0  0  0  0  0
    7.1946  -16.2668   21.5073 O   0  0  0  0  0  0  0  0  0  0  0  0
   11.8328  -17.3193   23.1566 O   0  0  0  0  0  0  0  0  0  0  0  0
   10.5714  -17.9055   23.1335 C   0  0  0  0  0  0  0  0  0  0  0  0
    9.4800  -16.8980   22.9670 C   0  0  2  0  0  0  0  0  0  0  0  0
    9.4653  -16.5145   21.5521 N   0  0  0  0  0  0  0  0  0  0  0  0
    9.5456  -15.7221   23.8111 C   0  0  0  0  0  0  0  0  0  0  0  0
    9.7073  -14.5922   23.2655 O   0  0  0  0  0  0  0  0  0  0  0  0
    8.2643  -12.8709   27.7546 C   0  0  0  0  0  0  0  0  0  0  0  0
    7.4734  -12.8318   26.4343 C   0  0  2  0  0  0  0  0  0  0  0  0
    6.0139  -12.8688   26.8715 C   0  0  0  0  0  0  0  0  0  0  0  0
    7.8913  -14.0323   25.6627 C   0  0  0  0  0  0  0  0  0  0  0  0
    9.1833  -14.6590   26.0652 C   0  0  2  0  0  0  0  0  0  0  0  0
    9.4341  -15.8053   25.2171 N   0  0  0  0  0  0  0  0  0  0  0  0
    9.2923  -15.0468   27.4717 C   0  0  0  0  0  0  0  0  0  0  0  0
    8.6652  -16.1581   28.0190 O   0  0  0  0  0  0  0  0  0  0  0  0
    9.9867  -14.3571   28.2603 O   0  0  0  0  0  0  0  0  0  0  0  0
  2  1  1  6
  2  3  1  0
  4  2  1  0
  4  5  1  0
  5  7  1  0
  5  6  1  6
  7  8  2  0
  9 10  1  0
 11 10  1  6
 12 11  1  0
 12  7  1  0
 13 11  1  0
 14 13  2  0
 16 15  1  1
 16 17  1  0
 18 16  1  0
 19 20  1  0
 19 18  1  1
 20 13  1  0
 21 19  1  0
 22 21  1  0
 23 21  2  0
M  END
$$$$
