LSL.pdb
     RDKit          3D

 23 22  0  0  1  0  0  0  0  0999 V2000
    5.2636  -21.5271   26.2262 C   0  0  0  0  0  0  0  0  0  0  0  0
    5.4733  -21.5030   24.7026 C   0  0  2  0  0  0  0  0  0  0  0  0
    5.9623  -22.8550   24.2459 C   0  0  0  0  0  0  0  0  0  0  0  0
    6.4692  -20.4284   24.4403 C   0  0  0  0  0  0  0  0  0  0  0  0
    6.5582  -19.9612   23.0215 C   0  0  2  0  0  0  0  0  0  0  0  0
    6.9836  -21.0664   22.1900 N   0  0  0  0  0  0  0  0  0  0  0  0
    7.5654  -18.8620   22.8792 C   0  0  0  0  0  0  0  0  0  0  0  0
    8.7623  -19.0274   23.2855 O   0  0  0  0  0  0  0  0  0  0  0  0
    6.7504  -15.7271   20.4498 O   0  0  0  0  0  0  0  0  0  0  0  0
    8.0828  -16.0208   20.7212 C   0  0  0  0  0  0  0  0  0  0  0  0
    8.2765  -16.5530   22.1044 C   0  0  2  0  0  0  0  0  0  0  0  0
    7.2718  -17.6018   22.3029 N   0  0  0  0  0  0  0  0  0  0  0  0
    8.2250  -15.5894   23.1855 C   0  0  0  0  0  0  0  0  0  0  0  0
    7.1666  -14.9155   23.3472 O   0  0  0  0  0  0  0  0  0  0  0  0
    7.7737  -12.0259   25.8516 C   0  0  0  0  0  0  0  0  0  0  0  0
    7.0686  -13.3662   25.5750 C   0  0  2  0  0  0  0  0  0  0  0  0
    5.8868  -13.3726   26.5372 C   0  0  0  0  0  0  0  0  0  0  0  0
    8.0689  -14.4294   25.8583 C   0  0  0  0  0  0  0  0  0  0  0  0
    9.3403  -14.3635   25.0817 C   0  0  2  0  0  0  0  0  0  0  0  0
    9.3185  -15.3857   24.0566 N   0  0  0  0  0  0  0  0  0  0  0  0
   10.5715  -14.4698   25.8649 C   0  0  0  0  0  0  0  0  0  0  0  0
   11.2491  -13.3793   26.3938 O   0  0  0  0  0  0  0  0  0  0  0  0
   11.0740  -15.5991   26.0930 O   0  0  0  0  0  0  0  0  0  0  0  0
  2  1  1  1
  2  3  1  0
  4  2  1  0
  4  5  1  0
  5  7  1  0
  5  6  1  6
  7  8  2  0
  9 10  1  0
 11 10  1  6
 12 11  1  0
 12  7  1  0
 13 11  1  0
 14 13  2  0
 16 15  1  1
 16 17  1  0
 18 16  1  0
 19 20  1  0
 19 18  1  1
 20 13  1  0
 21 19  1  0
 22 21  1  0
 23 21  2  0
M  END
$$$$
