LSL.pdb
     RDKit          3D

 23 22  0  0  1  0  0  0  0  0999 V2000
    8.1103  -11.8337   19.9357 C   0  0  0  0  0  0  0  0  0  0  0  0
    8.5097  -13.2318   19.4343 C   0  0  2  0  0  0  0  0  0  0  0  0
    7.9257  -13.4541   18.0613 C   0  0  0  0  0  0  0  0  0  0  0  0
    7.9756  -14.1967   20.4338 C   0  0  0  0  0  0  0  0  0  0  0  0
    8.3540  -15.6282   20.2176 C   0  0  2  0  0  0  0  0  0  0  0  0
    7.3002  -16.2843   19.4739 N   0  0  0  0  0  0  0  0  0  0  0  0
    8.5136  -16.3456   21.5226 C   0  0  0  0  0  0  0  0  0  0  0  0
    7.5108  -16.5185   22.2903 O   0  0  0  0  0  0  0  0  0  0  0  0
   11.9966  -18.5706   22.5888 O   0  0  0  0  0  0  0  0  0  0  0  0
   10.6715  -18.8571   22.9005 C   0  0  0  0  0  0  0  0  0  0  0  0
    9.8866  -17.6280   23.2278 C   0  0  2  0  0  0  0  0  0  0  0  0
    9.7478  -16.8661   21.9831 N   0  0  0  0  0  0  0  0  0  0  0  0
   10.4088  -16.7844   24.2839 C   0  0  0  0  0  0  0  0  0  0  0  0
   11.3436  -15.9774   24.0091 O   0  0  0  0  0  0  0  0  0  0  0  0
    8.7980  -13.7684   29.1198 C   0  0  0  0  0  0  0  0  0  0  0  0
   10.0110  -14.5561   28.5921 C   0  0  2  0  0  0  0  0  0  0  0  0
   11.0430  -13.4819   28.2700 C   0  0  0  0  0  0  0  0  0  0  0  0
    9.5362  -15.2993   27.3947 C   0  0  0  0  0  0  0  0  0  0  0  0
   10.5360  -16.1806   26.7256 C   0  0  2  0  0  0  0  0  0  0  0  0
    9.9039  -16.8400   25.6023 N   0  0  0  0  0  0  0  0  0  0  0  0
   11.1867  -17.1714   27.5830 C   0  0  0  0  0  0  0  0  0  0  0  0
   10.5554  -18.3090   28.0682 O   0  0  0  0  0  0  0  0  0  0  0  0
   12.3877  -17.0170   27.9201 O   0  0  0  0  0  0  0  0  0  0  0  0
  2  1  1  1
  2  3  1  0
  4  2  1  0
  4  5  1  0
  5  7  1  0
  5  6  1  6
  7  8  2  0
  9 10  1  0
 11 10  1  6
 12 11  1  0
 12  7  1  0
 13 11  1  0
 14 13  2  0
 16 15  1  6
 16 17  1  0
 18 16  1  0
 19 20  1  0
 19 18  1  1
 20 13  1  0
 21 19  1  0
 22 21  1  0
 23 21  2  0
M  END
$$$$
