LSL.pdb
     RDKit          3D

 23 22  0  0  1  0  0  0  0  0999 V2000
    9.8968  -13.2845   19.3489 C   0  0  0  0  0  0  0  0  0  0  0  0
    8.7502  -13.4505   18.3372 C   0  0  2  0  0  0  0  0  0  0  0  0
    8.0598  -12.1232   18.1447 C   0  0  0  0  0  0  0  0  0  0  0  0
    7.8394  -14.4784   18.9111 C   0  0  0  0  0  0  0  0  0  0  0  0
    8.4925  -15.7548   19.3395 C   0  0  2  0  0  0  0  0  0  0  0  0
    8.1560  -16.7947   18.3912 N   0  0  0  0  0  0  0  0  0  0  0  0
    8.0024  -16.1837   20.6882 C   0  0  0  0  0  0  0  0  0  0  0  0
    6.7554  -16.3396   20.9016 O   0  0  0  0  0  0  0  0  0  0  0  0
   10.2842  -18.2679   23.4055 O   0  0  0  0  0  0  0  0  0  0  0  0
    8.8946  -18.2287   23.3531 C   0  0  0  0  0  0  0  0  0  0  0  0
    8.3743  -16.8491   23.1081 C   0  0  2  0  0  0  0  0  0  0  0  0
    8.8590  -16.4383   21.7870 N   0  0  0  0  0  0  0  0  0  0  0  0
    8.6977  -15.8456   24.1022 C   0  0  0  0  0  0  0  0  0  0  0  0
    9.8162  -15.2588   24.0299 O   0  0  0  0  0  0  0  0  0  0  0  0
    5.6071  -12.1135   27.6005 C   0  0  0  0  0  0  0  0  0  0  0  0
    7.0288  -12.5786   27.2362 C   0  0  2  0  0  0  0  0  0  0  0  0
    7.4833  -11.5907   26.1684 C   0  0  0  0  0  0  0  0  0  0  0  0
    6.8956  -13.9724   26.7354 C   0  0  0  0  0  0  0  0  0  0  0  0
    8.1426  -14.6132   26.2272 C   0  0  2  0  0  0  0  0  0  0  0  0
    7.8021  -15.5088   25.1417 N   0  0  0  0  0  0  0  0  0  0  0  0
    8.9465  -15.3215   27.2235 C   0  0  0  0  0  0  0  0  0  0  0  0
    9.9569  -14.7269   27.9676 O   0  0  0  0  0  0  0  0  0  0  0  0
    8.7378  -16.5408   27.4460 O   0  0  0  0  0  0  0  0  0  0  0  0
  2  1  1  1
  2  3  1  0
  4  2  1  0
  4  5  1  0
  5  7  1  0
  5  6  1  6
  7  8  2  0
  9 10  1  0
 11 10  1  1
 12 11  1  0
 12  7  1  0
 13 11  1  0
 14 13  2  0
 16 15  1  6
 16 17  1  0
 18 16  1  0
 19 20  1  0
 19 18  1  1
 20 13  1  0
 21 19  1  0
 22 21  1  0
 23 21  2  0
M  END
$$$$
