LSL.pdb
     RDKit          3D

 23 22  0  0  1  0  0  0  0  0999 V2000
    9.9150  -13.5226   19.8141 C   0  0  0  0  0  0  0  0  0  0  0  0
    9.0250  -13.4759   18.5605 C   0  0  2  0  0  0  0  0  0  0  0  0
    8.3013  -12.1532   18.5126 C   0  0  0  0  0  0  0  0  0  0  0  0
    8.0860  -14.6249   18.6783 C   0  0  0  0  0  0  0  0  0  0  0  0
    8.7011  -15.9226   19.0985 C   0  0  2  0  0  0  0  0  0  0  0  0
    8.2584  -16.9646   18.1974 N   0  0  0  0  0  0  0  0  0  0  0  0
    8.2727  -16.2975   20.4838 C   0  0  0  0  0  0  0  0  0  0  0  0
    7.0350  -16.3469   20.7849 O   0  0  0  0  0  0  0  0  0  0  0  0
   10.8441  -18.0749   23.3241 O   0  0  0  0  0  0  0  0  0  0  0  0
    9.4678  -18.2516   23.2253 C   0  0  0  0  0  0  0  0  0  0  0  0
    8.7561  -16.9840   22.8780 C   0  0  2  0  0  0  0  0  0  0  0  0
    9.1800  -16.6134   21.5245 N   0  0  0  0  0  0  0  0  0  0  0  0
    8.9305  -15.8695   23.7877 C   0  0  0  0  0  0  0  0  0  0  0  0
   10.0393  -15.2603   23.7946 O   0  0  0  0  0  0  0  0  0  0  0  0
    5.2784  -12.2600   27.0993 C   0  0  0  0  0  0  0  0  0  0  0  0
    6.7434  -12.7159   26.9721 C   0  0  2  0  0  0  0  0  0  0  0  0
    7.4990  -11.4462   26.5985 C   0  0  0  0  0  0  0  0  0  0  0  0
    6.7657  -13.7535   25.9071 C   0  0  0  0  0  0  0  0  0  0  0  0
    8.0775  -14.4193   25.6615 C   0  0  2  0  0  0  0  0  0  0  0  0
    7.9014  -15.4496   24.6598 N   0  0  0  0  0  0  0  0  0  0  0  0
    8.7383  -14.9789   26.8407 C   0  0  0  0  0  0  0  0  0  0  0  0
    8.4601  -16.2361   27.3604 O   0  0  0  0  0  0  0  0  0  0  0  0
    9.6155  -14.3109   27.4442 O   0  0  0  0  0  0  0  0  0  0  0  0
  2  1  1  1
  2  3  1  0
  4  2  1  0
  4  5  1  0
  5  7  1  0
  5  6  1  6
  7  8  2  0
  9 10  1  0
 11 10  1  1
 12 11  1  0
 12  7  1  0
 13 11  1  0
 14 13  2  0
 16 15  1  6
 16 17  1  0
 18 16  1  0
 19 20  1  0
 19 18  1  1
 20 13  1  0
 21 19  1  0
 22 21  1  0
 23 21  2  0
M  END
$$$$
