LSL.pdb
     RDKit          3D

 23 22  0  0  1  0  0  0  0  0999 V2000
    9.2899  -13.4844   19.0046 C   0  0  0  0  0  0  0  0  0  0  0  0
    7.7872  -13.6505   19.2876 C   0  0  2  0  0  0  0  0  0  0  0  0
    7.0662  -12.3800   18.9113 C   0  0  0  0  0  0  0  0  0  0  0  0
    7.6719  -13.9513   20.7408 C   0  0  0  0  0  0  0  0  0  0  0  0
    8.3493  -15.2048   21.1977 C   0  0  2  0  0  0  0  0  0  0  0  0
    7.7689  -16.3321   20.5003 N   0  0  0  0  0  0  0  0  0  0  0  0
    8.1509  -15.4190   22.6667 C   0  0  0  0  0  0  0  0  0  0  0  0
    8.4038  -14.4834   23.4947 O   0  0  0  0  0  0  0  0  0  0  0  0
    7.1023  -19.1853   24.4428 O   0  0  0  0  0  0  0  0  0  0  0  0
    6.4981  -17.9803   24.7865 C   0  0  0  0  0  0  0  0  0  0  0  0
    7.4309  -16.8197   24.6559 C   0  0  2  0  0  0  0  0  0  0  0  0
    7.6840  -16.6346   23.2239 N   0  0  0  0  0  0  0  0  0  0  0  0
    8.6799  -16.9035   25.3856 C   0  0  0  0  0  0  0  0  0  0  0  0
    9.7357  -17.1892   24.7498 O   0  0  0  0  0  0  0  0  0  0  0  0
   10.8571  -13.9327   27.0823 C   0  0  0  0  0  0  0  0  0  0  0  0
    9.7033  -14.3140   28.0277 C   0  0  2  0  0  0  0  0  0  0  0  0
    9.7317  -13.2369   29.1056 C   0  0  0  0  0  0  0  0  0  0  0  0
   10.0173  -15.6739   28.5408 C   0  0  0  0  0  0  0  0  0  0  0  0
    9.9716  -16.7823   27.5441 C   0  0  2  0  0  0  0  0  0  0  0  0
    8.7476  -16.6756   26.7783 N   0  0  0  0  0  0  0  0  0  0  0  0
   10.1024  -18.1341   28.0883 C   0  0  0  0  0  0  0  0  0  0  0  0
   11.2979  -18.6723   28.5454 O   0  0  0  0  0  0  0  0  0  0  0  0
    9.0938  -18.8805   28.1622 O   0  0  0  0  0  0  0  0  0  0  0  0
  2  1  1  1
  2  3  1  0
  4  2  1  0
  4  5  1  0
  5  7  1  0
  5  6  1  6
  7  8  2  0
  9 10  1  0
 11 10  1  6
 12 11  1  0
 12  7  1  0
 13 11  1  0
 14 13  2  0
 16 15  1  6
 16 17  1  0
 18 16  1  0
 19 20  1  0
 19 18  1  1
 20 13  1  0
 21 19  1  0
 22 21  1  0
 23 21  2  0
M  END
$$$$
