LSL.pdb
     RDKit          3D

 23 22  0  0  1  0  0  0  0  0999 V2000
    9.5570  -13.3583   18.6774 C   0  0  0  0  0  0  0  0  0  0  0  0
    8.0307  -13.4822   18.8210 C   0  0  2  0  0  0  0  0  0  0  0  0
    7.4269  -12.1037   18.9259 C   0  0  0  0  0  0  0  0  0  0  0  0
    7.7962  -14.2920   20.0477 C   0  0  0  0  0  0  0  0  0  0  0  0
    8.4195  -15.6523   20.0538 C   0  0  2  0  0  0  0  0  0  0  0  0
    7.5581  -16.5657   19.3345 N   0  0  0  0  0  0  0  0  0  0  0  0
    8.5736  -16.1673   21.4517 C   0  0  0  0  0  0  0  0  0  0  0  0
    7.5463  -16.4372   22.1565 O   0  0  0  0  0  0  0  0  0  0  0  0
   12.3658  -16.6347   23.4960 O   0  0  0  0  0  0  0  0  0  0  0  0
   11.2925  -17.5170   23.5658 C   0  0  0  0  0  0  0  0  0  0  0  0
    9.9753  -16.8179   23.4641 C   0  0  2  0  0  0  0  0  0  0  0  0
    9.8286  -16.3842   22.0715 N   0  0  0  0  0  0  0  0  0  0  0  0
    9.7570  -15.7064   24.3677 C   0  0  0  0  0  0  0  0  0  0  0  0
    9.7848  -14.5308   23.9009 O   0  0  0  0  0  0  0  0  0  0  0  0
    6.0022  -13.0013   27.2362 C   0  0  0  0  0  0  0  0  0  0  0  0
    7.4910  -13.2732   27.5186 C   0  0  2  0  0  0  0  0  0  0  0  0
    8.1635  -11.9209   27.3141 C   0  0  0  0  0  0  0  0  0  0  0  0
    7.9203  -14.3029   26.5354 C   0  0  0  0  0  0  0  0  0  0  0  0
    9.3138  -14.8139   26.6806 C   0  0  2  0  0  0  0  0  0  0  0  0
    9.5155  -15.9012   25.7460 N   0  0  0  0  0  0  0  0  0  0  0  0
    9.7003  -15.2364   28.0269 C   0  0  0  0  0  0  0  0  0  0  0  0
    9.7422  -16.5612   28.4404 O   0  0  0  0  0  0  0  0  0  0  0  0
   10.0202  -14.3766   28.8863 O   0  0  0  0  0  0  0  0  0  0  0  0
  2  1  1  1
  2  3  1  0
  4  2  1  0
  4  5  1  0
  5  7  1  0
  5  6  1  6
  7  8  2  0
  9 10  1  0
 11 10  1  6
 12 11  1  0
 12  7  1  0
 13 11  1  0
 14 13  2  0
 16 15  1  6
 16 17  1  0
 18 16  1  0
 19 20  1  0
 19 18  1  1
 20 13  1  0
 21 19  1  0
 22 21  1  0
 23 21  2  0
M  END
$$$$
