LSL.pdb
     RDKit          3D

 23 22  0  0  1  0  0  0  0  0999 V2000
   10.1860  -13.2810   19.2265 C   0  0  0  0  0  0  0  0  0  0  0  0
    8.7210  -13.4164   18.7780 C   0  0  2  0  0  0  0  0  0  0  0  0
    8.1028  -12.0441   18.6753 C   0  0  0  0  0  0  0  0  0  0  0  0
    8.0507  -14.2578   19.8067 C   0  0  0  0  0  0  0  0  0  0  0  0
    8.7095  -15.5690   20.0995 C   0  0  2  0  0  0  0  0  0  0  0  0
    8.1596  -16.5768   19.2186 N   0  0  0  0  0  0  0  0  0  0  0  0
    8.4502  -15.9982   21.5108 C   0  0  0  0  0  0  0  0  0  0  0  0
    7.2594  -16.0393   21.9638 O   0  0  0  0  0  0  0  0  0  0  0  0
   11.3710  -17.8943   23.9123 O   0  0  0  0  0  0  0  0  0  0  0  0
    9.9990  -18.1219   23.9424 C   0  0  0  0  0  0  0  0  0  0  0  0
    9.2107  -16.8636   23.7713 C   0  0  2  0  0  0  0  0  0  0  0  0
    9.4737  -16.3764   22.4139 N   0  0  0  0  0  0  0  0  0  0  0  0
    9.4435  -15.8130   24.7417 C   0  0  0  0  0  0  0  0  0  0  0  0
   10.4948  -15.1164   24.6411 O   0  0  0  0  0  0  0  0  0  0  0  0
    7.7560  -11.8998   26.0290 C   0  0  0  0  0  0  0  0  0  0  0  0
    6.8523  -13.1279   26.2418 C   0  0  2  0  0  0  0  0  0  0  0  0
    5.5259  -12.5399   26.7082 C   0  0  0  0  0  0  0  0  0  0  0  0
    7.5234  -13.9656   27.2710 C   0  0  0  0  0  0  0  0  0  0  0  0
    8.8020  -14.6153   26.8622 C   0  0  2  0  0  0  0  0  0  0  0  0
    8.5326  -15.5490   25.7890 N   0  0  0  0  0  0  0  0  0  0  0  0
    9.5462  -15.2844   27.9294 C   0  0  0  0  0  0  0  0  0  0  0  0
    9.6165  -16.6632   28.0770 O   0  0  0  0  0  0  0  0  0  0  0  0
   10.1714  -14.6027   28.7805 O   0  0  0  0  0  0  0  0  0  0  0  0
  2  1  1  1
  2  3  1  0
  4  2  1  0
  4  5  1  0
  5  7  1  0
  5  6  1  6
  7  8  2  0
  9 10  1  0
 11 10  1  1
 12 11  1  0
 12  7  1  0
 13 11  1  0
 14 13  2  0
 16 15  1  1
 16 17  1  0
 18 16  1  0
 19 20  1  0
 19 18  1  1
 20 13  1  0
 21 19  1  0
 22 21  1  0
 23 21  2  0
M  END
$$$$
