LSL.pdb
     RDKit          3D

 23 22  0  0  1  0  0  0  0  0999 V2000
    8.3145  -12.0028   19.2912 C   0  0  0  0  0  0  0  0  0  0  0  0
    8.9011  -13.4077   19.0726 C   0  0  2  0  0  0  0  0  0  0  0  0
    9.2372  -13.5854   17.6128 C   0  0  0  0  0  0  0  0  0  0  0  0
    7.8573  -14.3660   19.5284 C   0  0  0  0  0  0  0  0  0  0  0  0
    8.3302  -15.7612   19.7908 C   0  0  2  0  0  0  0  0  0  0  0  0
    7.7290  -16.6502   18.8202 N   0  0  0  0  0  0  0  0  0  0  0  0
    7.9185  -16.2211   21.1554 C   0  0  0  0  0  0  0  0  0  0  0  0
    6.6889  -16.4233   21.4241 O   0  0  0  0  0  0  0  0  0  0  0  0
   10.1780  -18.4364   23.7516 O   0  0  0  0  0  0  0  0  0  0  0  0
    8.8001  -18.2465   23.7772 C   0  0  0  0  0  0  0  0  0  0  0  0
    8.4201  -16.8159   23.5704 C   0  0  2  0  0  0  0  0  0  0  0  0
    8.8335  -16.4567   22.2106 N   0  0  0  0  0  0  0  0  0  0  0  0
    8.9387  -15.8599   24.5279 C   0  0  0  0  0  0  0  0  0  0  0  0
   10.1390  -15.4770   24.4133 O   0  0  0  0  0  0  0  0  0  0  0  0
    7.8702  -11.7023   25.6017 C   0  0  0  0  0  0  0  0  0  0  0  0
    6.8451  -12.7580   26.0541 C   0  0  2  0  0  0  0  0  0  0  0  0
    5.6865  -11.9396   26.6112 C   0  0  0  0  0  0  0  0  0  0  0  0
    7.5291  -13.5905   27.0790 C   0  0  0  0  0  0  0  0  0  0  0  0
    8.6481  -14.4483   26.5932 C   0  0  2  0  0  0  0  0  0  0  0  0
    8.1435  -15.3486   25.5778 N   0  0  0  0  0  0  0  0  0  0  0  0
    9.3618  -15.2066   27.6209 C   0  0  0  0  0  0  0  0  0  0  0  0
   10.2796  -14.6459   28.4992 O   0  0  0  0  0  0  0  0  0  0  0  0
    9.1569  -16.4404   27.7456 O   0  0  0  0  0  0  0  0  0  0  0  0
  2  1  1  6
  2  3  1  0
  4  2  1  0
  4  5  1  0
  5  7  1  0
  5  6  1  6
  7  8  2  0
  9 10  1  0
 11 10  1  1
 12 11  1  0
 12  7  1  0
 13 11  1  0
 14 13  2  0
 16 15  1  1
 16 17  1  0
 18 16  1  0
 19 20  1  0
 19 18  1  1
 20 13  1  0
 21 19  1  0
 22 21  1  0
 23 21  2  0
M  END
$$$$
