LSL.pdb
     RDKit          3D

 23 22  0  0  1  0  0  0  0  0999 V2000
   11.6111  -19.0599   20.3225 C   0  0  0  0  0  0  0  0  0  0  0  0
   11.0430  -17.9816   19.3844 C   0  0  2  0  0  0  0  0  0  0  0  0
   12.1510  -17.0429   18.9760 C   0  0  0  0  0  0  0  0  0  0  0  0
    9.9746  -17.2870   20.1535 C   0  0  0  0  0  0  0  0  0  0  0  0
    8.8454  -18.1520   20.6180 C   0  0  2  0  0  0  0  0  0  0  0  0
    7.9230  -18.3479   19.5203 N   0  0  0  0  0  0  0  0  0  0  0  0
    8.0960  -17.5020   21.7401 C   0  0  0  0  0  0  0  0  0  0  0  0
    7.2131  -16.6151   21.4976 O   0  0  0  0  0  0  0  0  0  0  0  0
    7.9807  -19.0601   25.6610 O   0  0  0  0  0  0  0  0  0  0  0  0
    6.9835  -18.3398   25.0114 C   0  0  0  0  0  0  0  0  0  0  0  0
    7.5347  -17.2138   24.1976 C   0  0  2  0  0  0  0  0  0  0  0  0
    8.3066  -17.8142   23.1055 N   0  0  0  0  0  0  0  0  0  0  0  0
    8.3327  -16.2311   24.9028 C   0  0  0  0  0  0  0  0  0  0  0  0
    9.5896  -16.2552   24.7603 O   0  0  0  0  0  0  0  0  0  0  0  0
    7.7172  -11.7897   25.0827 C   0  0  0  0  0  0  0  0  0  0  0  0
    6.7691  -12.6004   25.9849 C   0  0  2  0  0  0  0  0  0  0  0  0
    5.8079  -11.5602   26.5476 C   0  0  0  0  0  0  0  0  0  0  0  0
    7.6241  -13.2386   27.0208 C   0  0  0  0  0  0  0  0  0  0  0  0
    8.5165  -14.3386   26.5542 C   0  0  2  0  0  0  0  0  0  0  0  0
    7.7468  -15.2543   25.7386 N   0  0  0  0  0  0  0  0  0  0  0  0
    9.2197  -15.0768   27.6035 C   0  0  0  0  0  0  0  0  0  0  0  0
    9.0382  -16.4309   27.8517 O   0  0  0  0  0  0  0  0  0  0  0  0
   10.0447  -14.4829   28.3428 O   0  0  0  0  0  0  0  0  0  0  0  0
  2  1  1  1
  2  3  1  0
  4  2  1  0
  4  5  1  0
  5  7  1  0
  5  6  1  6
  7  8  2  0
  9 10  1  0
 11 10  1  1
 12 11  1  0
 12  7  1  0
 13 11  1  0
 14 13  2  0
 16 15  1  6
 16 17  1  0
 18 16  1  0
 19 20  1  0
 19 18  1  1
 20 13  1  0
 21 19  1  0
 22 21  1  0
 23 21  2  0
M  END
$$$$
