LVE.pdb
     RDKit          3D

 25 24  0  0  1  0  0  0  0  0999 V2000
   17.4363  -16.3189  -15.0973 C   0  0  0  0  0  0  0  0  0  0  0  0
   18.8709  -16.1354  -14.6666 C   0  0  2  0  0  0  0  0  0  0  0  0
   18.9842  -16.2694  -13.1396 C   0  0  0  0  0  0  0  0  0  0  0  0
   19.4307  -14.8252  -15.0733 C   0  0  0  0  0  0  0  0  0  0  0  0
   19.5099  -14.5361  -16.5262 C   0  0  2  0  0  0  0  0  0  0  0  0
   20.3546  -15.4086  -17.2660 N   0  0  0  0  0  0  0  0  0  0  0  0
   19.7900  -13.0978  -16.8182 C   0  0  0  0  0  0  0  0  0  0  0  0
   20.9775  -12.6928  -16.9150 O   0  0  0  0  0  0  0  0  0  0  0  0
   18.5269  -11.2600  -19.7348 C   0  0  0  0  0  0  0  0  0  0  0  0
   18.0865  -10.4108  -18.5399 C   0  0  1  0  0  0  0  0  0  0  0  0
   16.6250  -10.6094  -18.3534 C   0  0  0  0  0  0  0  0  0  0  0  0
   18.9387  -10.7953  -17.3848 C   0  0  2  0  0  0  0  0  0  0  0  0
   18.7564  -12.1780  -16.9880 N   0  0  0  0  0  0  0  0  0  0  0  0
   18.8708   -9.8755  -16.2363 C   0  0  0  0  0  0  0  0  0  0  0  0
   18.1649  -10.2038  -15.2586 O   0  0  0  0  0  0  0  0  0  0  0  0
   19.5625   -8.6597  -16.2040 N   0  0  0  0  0  0  0  0  0  0  0  0
   19.4585   -7.7443  -15.0180 C   0  0  1  0  0  0  0  0  0  0  0  0
   20.7668   -7.0484  -14.9937 C   0  0  0  0  0  0  0  0  0  0  0  0
   21.0474   -6.0148  -13.9928 C   0  0  0  0  0  0  0  0  0  0  0  0
   22.3599   -5.3632  -14.0823 C   0  0  0  0  0  0  0  0  0  0  0  0
   23.3740   -5.9329  -14.5823 O   0  0  0  0  0  0  0  0  0  0  0  0
   18.2897   -6.8929  -15.3426 C   0  0  0  0  0  0  0  0  0  0  0  0
   16.9617   -7.2997  -15.0415 O   0  0  0  0  0  0  0  0  0  0  0  0
   22.5260   -4.0696  -13.6095 O   0  0  0  0  0  0  0  0  0  0  0  0
   18.3422   -5.7695  -15.8946 O   0  0  0  0  0  0  0  0  0  0  0  0
  2  1  1  1
  3  2  1  0
  4  5  1  0
  4  2  1  0
  5  6  1  1
  7  5  1  0
  8  7  2  0
 10  9  1  6
 10 12  1  0
 11 10  1  0
 12 14  1  0
 12 13  1  1
 13  7  1  0
 14 16  1  0
 15 14  2  0
 16 17  1  0
 17 18  1  6
 17 22  1  0
 18 19  1  0
 19 20  1  0
 20 24  1  0
 21 20  2  0
 22 25  2  0
 22 23  1  0
M  END
$$$$
