LVE.pdb
     RDKit          3D

 25 24  0  0  1  0  0  0  0  0999 V2000
   22.2204  -12.3729  -21.1603 C   0  0  0  0  0  0  0  0  0  0  0  0
   20.9348  -12.2161  -20.3859 C   0  0  2  0  0  0  0  0  0  0  0  0
   19.9010  -11.4530  -21.2293 C   0  0  0  0  0  0  0  0  0  0  0  0
   21.1208  -11.5037  -19.1001 C   0  0  0  0  0  0  0  0  0  0  0  0
   22.1034  -12.0666  -18.1417 C   0  0  2  0  0  0  0  0  0  0  0  0
   21.8546  -13.4101  -17.7477 N   0  0  0  0  0  0  0  0  0  0  0  0
   22.3514  -11.1721  -16.9709 C   0  0  0  0  0  0  0  0  0  0  0  0
   21.5550  -11.1717  -15.9966 O   0  0  0  0  0  0  0  0  0  0  0  0
   25.2625  -10.8657  -14.7393 C   0  0  0  0  0  0  0  0  0  0  0  0
   25.1048   -9.4658  -15.3377 C   0  0  1  0  0  0  0  0  0  0  0  0
   26.1930   -9.2694  -16.3314 C   0  0  0  0  0  0  0  0  0  0  0  0
   23.7220   -9.3657  -15.8727 C   0  0  2  0  0  0  0  0  0  0  0  0
   23.4572  -10.3242  -16.9279 N   0  0  0  0  0  0  0  0  0  0  0  0
   23.3022   -8.0033  -16.2433 C   0  0  0  0  0  0  0  0  0  0  0  0
   23.6236   -7.5735  -17.3720 O   0  0  0  0  0  0  0  0  0  0  0  0
   22.5638   -7.1832  -15.3831 N   0  0  0  0  0  0  0  0  0  0  0  0
   22.0671   -5.8400  -15.8353 C   0  0  1  0  0  0  0  0  0  0  0  0
   20.6228   -5.8681  -15.5040 C   0  0  0  0  0  0  0  0  0  0  0  0
   19.7976   -4.6650  -15.6469 C   0  0  0  0  0  0  0  0  0  0  0  0
   18.4002   -4.7803  -15.2118 C   0  0  0  0  0  0  0  0  0  0  0  0
   17.9029   -5.8647  -14.7877 O   0  0  0  0  0  0  0  0  0  0  0  0
   22.8837   -4.8882  -15.0457 C   0  0  0  0  0  0  0  0  0  0  0  0
   23.4346   -5.2428  -13.7845 O   0  0  0  0  0  0  0  0  0  0  0  0
   17.5668   -3.6722  -15.2538 O   0  0  0  0  0  0  0  0  0  0  0  0
   23.1655   -3.7168  -15.3887 O   0  0  0  0  0  0  0  0  0  0  0  0
  2  1  1  6
  3  2  1  0
  4  5  1  0
  4  2  1  0
  5  6  1  1
  7  5  1  0
  8  7  2  0
 10  9  1  6
 10 12  1  0
 11 10  1  0
 12 14  1  0
 12 13  1  6
 13  7  1  0
 14 16  1  0
 15 14  2  0
 16 17  1  0
 17 18  1  1
 17 22  1  0
 18 19  1  0
 19 20  1  0
 20 24  1  0
 21 20  2  0
 22 25  2  0
 22 23  1  0
M  END
$$$$
