LVE.pdb
     RDKit          3D

 25 24  0  0  1  0  0  0  0  0999 V2000
   26.2822  -16.2178  -19.0742 C   0  0  0  0  0  0  0  0  0  0  0  0
   26.6719  -17.6473  -19.3599 C   0  0  2  0  0  0  0  0  0  0  0  0
   25.9343  -18.1553  -20.6091 C   0  0  0  0  0  0  0  0  0  0  0  0
   26.3804  -18.5600  -18.2297 C   0  0  0  0  0  0  0  0  0  0  0  0
   26.9519  -18.2135  -16.9052 C   0  0  2  0  0  0  0  0  0  0  0  0
   28.2908  -17.7356  -16.9364 N   0  0  0  0  0  0  0  0  0  0  0  0
   26.7616  -19.2928  -15.8897 C   0  0  0  0  0  0  0  0  0  0  0  0
   25.7806  -20.0761  -15.9769 O   0  0  0  0  0  0  0  0  0  0  0  0
   29.7258  -21.2024  -14.3300 C   0  0  0  0  0  0  0  0  0  0  0  0
   28.7917  -20.8464  -13.1709 C   0  0  1  0  0  0  0  0  0  0  0  0
   29.4765  -19.8304  -12.3289 C   0  0  0  0  0  0  0  0  0  0  0  0
   27.4952  -20.4225  -13.7606 C   0  0  2  0  0  0  0  0  0  0  0  0
   27.6539  -19.4579  -14.8314 N   0  0  0  0  0  0  0  0  0  0  0  0
   26.4813  -19.9995  -12.7794 C   0  0  0  0  0  0  0  0  0  0  0  0
   26.4928  -18.8104  -12.3946 O   0  0  0  0  0  0  0  0  0  0  0  0
   25.5166  -20.8750  -12.2691 N   0  0  0  0  0  0  0  0  0  0  0  0
   24.5589  -20.4302  -11.2013 C   0  0  1  0  0  0  0  0  0  0  0  0
   23.2321  -20.8250  -11.7306 C   0  0  0  0  0  0  0  0  0  0  0  0
   22.0177  -20.6247  -10.9344 C   0  0  0  0  0  0  0  0  0  0  0  0
   20.7684  -21.1299  -11.5169 C   0  0  0  0  0  0  0  0  0  0  0  0
   20.7257  -21.7253  -12.6334 O   0  0  0  0  0  0  0  0  0  0  0  0
   25.0130  -21.1725  -10.0017 C   0  0  0  0  0  0  0  0  0  0  0  0
   24.6591  -20.7597   -8.6885 O   0  0  0  0  0  0  0  0  0  0  0  0
   19.5698  -20.9645  -10.8383 O   0  0  0  0  0  0  0  0  0  0  0  0
   25.7281  -22.2010  -10.0133 O   0  0  0  0  0  0  0  0  0  0  0  0
  2  1  1  1
  3  2  1  0
  4  5  1  0
  4  2  1  0
  5  6  1  6
  7  5  1  0
  8  7  2  0
 10  9  1  6
 10 12  1  0
 11 10  1  0
 12 14  1  0
 12 13  1  6
 13  7  1  0
 14 16  1  0
 15 14  2  0
 16 17  1  0
 17 18  1  6
 17 22  1  0
 18 19  1  0
 19 20  1  0
 20 24  1  0
 21 20  2  0
 22 25  2  0
 22 23  1  0
M  END
$$$$
