LVE.pdb
     RDKit          3D

 25 24  0  0  1  0  0  0  0  0999 V2000
   22.7406  -37.0040  -11.8111 C   0  0  0  0  0  0  0  0  0  0  0  0
   24.0751  -37.6843  -11.6286 C   0  0  2  0  0  0  0  0  0  0  0  0
   23.8682  -39.1357  -11.1668 C   0  0  0  0  0  0  0  0  0  0  0  0
   24.9450  -36.9916  -10.6495 C   0  0  0  0  0  0  0  0  0  0  0  0
   25.2368  -35.5568  -10.8882 C   0  0  2  0  0  0  0  0  0  0  0  0
   25.9079  -35.2766  -12.1102 N   0  0  0  0  0  0  0  0  0  0  0  0
   25.8922  -34.8948   -9.7200 C   0  0  0  0  0  0  0  0  0  0  0  0
   27.1290  -35.0289   -9.5302 O   0  0  0  0  0  0  0  0  0  0  0  0
   25.5280  -31.2677   -8.6226 C   0  0  0  0  0  0  0  0  0  0  0  0
   25.1574  -32.1242   -7.4094 C   0  0  1  0  0  0  0  0  0  0  0  0
   23.6828  -32.0534   -7.2346 C   0  0  0  0  0  0  0  0  0  0  0  0
   25.7115  -33.4836   -7.6407 C   0  0  2  0  0  0  0  0  0  0  0  0
   25.1600  -34.1216   -8.8202 N   0  0  0  0  0  0  0  0  0  0  0  0
   25.6792  -34.3700   -6.4648 C   0  0  0  0  0  0  0  0  0  0  0  0
   24.7289  -35.1749   -6.3586 O   0  0  0  0  0  0  0  0  0  0  0  0
   26.6661  -34.3413   -5.4734 N   0  0  0  0  0  0  0  0  0  0  0  0
   26.6152  -35.2854   -4.3066 C   0  0  1  0  0  0  0  0  0  0  0  0
   28.0340  -35.4209   -3.9002 C   0  0  0  0  0  0  0  0  0  0  0  0
   28.4180  -36.3190   -2.8072 C   0  0  0  0  0  0  0  0  0  0  0  0
   29.8256  -36.2727   -2.3926 C   0  0  0  0  0  0  0  0  0  0  0  0
   30.2128  -36.6375   -1.2436 O   0  0  0  0  0  0  0  0  0  0  0  0
   25.7386  -34.5866   -3.3373 C   0  0  0  0  0  0  0  0  0  0  0  0
   24.9535  -35.2989   -2.3905 O   0  0  0  0  0  0  0  0  0  0  0  0
   30.7942  -35.8171   -3.2750 O   0  0  0  0  0  0  0  0  0  0  0  0
   25.5994  -33.3447   -3.2502 O   0  0  0  0  0  0  0  0  0  0  0  0
  2  1  1  1
  3  2  1  0
  4  5  1  0
  4  2  1  0
  5  6  1  6
  7  5  1  0
  8  7  2  0
 10  9  1  6
 10 12  1  0
 11 10  1  0
 12 14  1  0
 12 13  1  6
 13  7  1  0
 14 16  1  0
 15 14  2  0
 16 17  1  0
 17 18  1  1
 17 22  1  0
 18 19  1  0
 19 20  1  0
 20 24  1  0
 21 20  2  0
 22 25  2  0
 22 23  1  0
M  END
$$$$
