LVE.pdb
     RDKit          3D

 25 24  0  0  1  0  0  0  0  0999 V2000
   24.0526  -13.2261  -14.3984 C   0  0  0  0  0  0  0  0  0  0  0  0
   24.7251  -12.8163  -15.6856 C   0  0  2  0  0  0  0  0  0  0  0  0
   26.1524  -12.3220  -15.4007 C   0  0  0  0  0  0  0  0  0  0  0  0
   23.9873  -11.7532  -16.4072 C   0  0  0  0  0  0  0  0  0  0  0  0
   22.5839  -12.0370  -16.7956 C   0  0  2  0  0  0  0  0  0  0  0  0
   22.4185  -13.1318  -17.6879 N   0  0  0  0  0  0  0  0  0  0  0  0
   21.8503  -10.8190  -17.2550 C   0  0  0  0  0  0  0  0  0  0  0  0
   22.1574  -10.2705  -18.3451 O   0  0  0  0  0  0  0  0  0  0  0  0
   18.7387  -10.2711  -18.4882 C   0  0  0  0  0  0  0  0  0  0  0  0
   18.6809   -9.3585  -17.2608 C   0  0  1  0  0  0  0  0  0  0  0  0
   17.8419  -10.0293  -16.2330 C   0  0  0  0  0  0  0  0  0  0  0  0
   20.0814   -9.0697  -16.8568 C   0  0  2  0  0  0  0  0  0  0  0  0
   20.8200  -10.2646  -16.4971 N   0  0  0  0  0  0  0  0  0  0  0  0
   20.2247   -8.0052  -15.8489 C   0  0  0  0  0  0  0  0  0  0  0  0
   20.3850   -8.3404  -14.6555 O   0  0  0  0  0  0  0  0  0  0  0  0
   20.1873   -6.6461  -16.1792 N   0  0  0  0  0  0  0  0  0  0  0  0
   20.4255   -5.5919  -15.1365 C   0  0  1  0  0  0  0  0  0  0  0  0
   21.3275   -4.6275  -15.8094 C   0  0  0  0  0  0  0  0  0  0  0  0
   21.7767   -3.4145  -15.1196 C   0  0  0  0  0  0  0  0  0  0  0  0
   22.6184   -2.4981  -15.8987 C   0  0  0  0  0  0  0  0  0  0  0  0
   22.9428   -1.3469  -15.4834 O   0  0  0  0  0  0  0  0  0  0  0  0
   19.0635   -5.0895  -14.8386 C   0  0  0  0  0  0  0  0  0  0  0  0
   18.7719   -4.3860  -13.6386 O   0  0  0  0  0  0  0  0  0  0  0  0
   23.0943   -2.8823  -17.1439 O   0  0  0  0  0  0  0  0  0  0  0  0
   18.0629   -5.2243  -15.5802 O   0  0  0  0  0  0  0  0  0  0  0  0
  2  1  1  1
  3  2  1  0
  4  5  1  0
  4  2  1  0
  5  6  1  6
  7  5  1  0
  8  7  2  0
 10  9  1  6
 10 12  1  0
 11 10  1  0
 12 14  1  0
 12 13  1  1
 13  7  1  0
 14 16  1  0
 15 14  2  0
 16 17  1  0
 17 18  1  6
 17 22  1  0
 18 19  1  0
 19 20  1  0
 20 24  1  0
 21 20  2  0
 22 25  2  0
 22 23  1  0
M  END
$$$$
