LVE.pdb
     RDKit          3D

 25 24  0  0  1  0  0  0  0  0999 V2000
   28.4328  -16.7088  -15.2812 C   0  0  0  0  0  0  0  0  0  0  0  0
   27.3807  -17.1844  -16.2528 C   0  0  2  0  0  0  0  0  0  0  0  0
   26.4808  -16.0107  -16.6716 C   0  0  0  0  0  0  0  0  0  0  0  0
   26.5301  -18.2631  -15.6976 C   0  0  0  0  0  0  0  0  0  0  0  0
   27.2149  -19.4390  -15.1068 C   0  0  2  0  0  0  0  0  0  0  0  0
   28.0854  -20.1330  -15.9916 N   0  0  0  0  0  0  0  0  0  0  0  0
   26.2778  -20.3620  -14.3981 C   0  0  0  0  0  0  0  0  0  0  0  0
   25.7712  -21.3388  -15.0088 O   0  0  0  0  0  0  0  0  0  0  0  0
   26.6633  -21.5040  -10.7965 C   0  0  0  0  0  0  0  0  0  0  0  0
   25.2006  -21.0678  -10.9099 C   0  0  1  0  0  0  0  0  0  0  0  0
   25.0183  -19.8592  -10.0636 C   0  0  0  0  0  0  0  0  0  0  0  0
   24.9018  -20.8902  -12.3547 C   0  0  2  0  0  0  0  0  0  0  0  0
   25.9431  -20.1674  -13.0589 N   0  0  0  0  0  0  0  0  0  0  0  0
   23.5612  -20.3533  -12.6450 C   0  0  0  0  0  0  0  0  0  0  0  0
   23.3948  -19.1162  -12.5817 O   0  0  0  0  0  0  0  0  0  0  0  0
   22.4797  -21.1732  -12.9851 N   0  0  0  0  0  0  0  0  0  0  0  0
   21.1512  -20.5818  -13.3598 C   0  0  1  0  0  0  0  0  0  0  0  0
   20.9942  -20.9436  -14.7884 C   0  0  0  0  0  0  0  0  0  0  0  0
   20.8405  -22.3438  -15.1944 C   0  0  0  0  0  0  0  0  0  0  0  0
   20.7031  -22.5910  -16.6350 C   0  0  0  0  0  0  0  0  0  0  0  0
   21.6221  -22.3280  -17.4652 O   0  0  0  0  0  0  0  0  0  0  0  0
   20.2064  -21.2413  -12.4278 C   0  0  0  0  0  0  0  0  0  0  0  0
   18.8748  -20.7744  -12.2583 O   0  0  0  0  0  0  0  0  0  0  0  0
   19.5302  -23.1363  -17.1366 O   0  0  0  0  0  0  0  0  0  0  0  0
   20.4670  -22.2398  -11.7176 O   0  0  0  0  0  0  0  0  0  0  0  0
  2  1  1  1
  3  2  1  0
  4  5  1  0
  4  2  1  0
  5  6  1  6
  7  5  1  0
  8  7  2  0
 10  9  1  6
 10 12  1  0
 11 10  1  0
 12 14  1  0
 12 13  1  1
 13  7  1  0
 14 16  1  0
 15 14  2  0
 16 17  1  0
 17 18  1  6
 17 22  1  0
 18 19  1  0
 19 20  1  0
 20 24  1  0
 21 20  2  0
 22 25  2  0
 22 23  1  0
M  END
$$$$
