LVE.pdb
     RDKit          3D

 25 24  0  0  1  0  0  0  0  0999 V2000
   18.9203  -32.8807  -10.7715 C   0  0  0  0  0  0  0  0  0  0  0  0
   20.1253  -32.9185  -11.6790 C   0  0  2  0  0  0  0  0  0  0  0  0
   19.8219  -33.7683  -12.9233 C   0  0  0  0  0  0  0  0  0  0  0  0
   21.3312  -33.4628  -11.0119 C   0  0  0  0  0  0  0  0  0  0  0  0
   21.7778  -32.8030   -9.7606 C   0  0  2  0  0  0  0  0  0  0  0  0
   22.1896  -31.4501   -9.9101 N   0  0  0  0  0  0  0  0  0  0  0  0
   22.7743  -33.6150   -8.9989 C   0  0  0  0  0  0  0  0  0  0  0  0
   22.6005  -34.8528   -8.8524 O   0  0  0  0  0  0  0  0  0  0  0  0
   26.4000  -33.7409   -9.7439 C   0  0  0  0  0  0  0  0  0  0  0  0
   26.3229  -33.3722   -8.2604 C   0  0  1  0  0  0  0  0  0  0  0  0
   26.6607  -31.9303   -8.1307 C   0  0  0  0  0  0  0  0  0  0  0  0
   24.9726  -33.7607   -7.7767 C   0  0  2  0  0  0  0  0  0  0  0  0
   23.9079  -33.0302   -8.4367 N   0  0  0  0  0  0  0  0  0  0  0  0
   24.8195  -33.7604   -6.3117 C   0  0  0  0  0  0  0  0  0  0  0  0
   24.2846  -32.7665   -5.7747 O   0  0  0  0  0  0  0  0  0  0  0  0
   25.2484  -34.8238   -5.5100 N   0  0  0  0  0  0  0  0  0  0  0  0
   25.0298  -34.8069   -4.0244 C   0  0  1  0  0  0  0  0  0  0  0  0
   24.7014  -36.2153   -3.7000 C   0  0  0  0  0  0  0  0  0  0  0  0
   24.5310  -36.6438   -2.3085 C   0  0  0  0  0  0  0  0  0  0  0  0
   24.3945  -38.0884   -2.0858 C   0  0  0  0  0  0  0  0  0  0  0  0
   23.4938  -38.5848   -1.3473 O   0  0  0  0  0  0  0  0  0  0  0  0
   26.3227  -34.3153   -3.4925 C   0  0  0  0  0  0  0  0  0  0  0  0
   26.4103  -33.6429   -2.2434 O   0  0  0  0  0  0  0  0  0  0  0  0
   25.2728  -38.9708   -2.6977 O   0  0  0  0  0  0  0  0  0  0  0  0
   27.4326  -34.4333   -4.0614 O   0  0  0  0  0  0  0  0  0  0  0  0
  2  1  1  1
  3  2  1  0
  4  5  1  0
  4  2  1  0
  5  6  1  6
  7  5  1  0
  8  7  2  0
 10  9  1  6
 10 12  1  0
 11 10  1  0
 12 14  1  0
 12 13  1  6
 13  7  1  0
 14 16  1  0
 15 14  2  0
 16 17  1  0
 17 18  1  1
 17 22  1  0
 18 19  1  0
 19 20  1  0
 20 24  1  0
 21 20  2  0
 22 25  2  0
 22 23  1  0
M  END
$$$$
