LVE.pdb
     RDKit          3D

 25 24  0  0  1  0  0  0  0  0999 V2000
   23.1376  -21.8134  -16.7874 C   0  0  0  0  0  0  0  0  0  0  0  0
   23.2894  -20.4637  -16.1297 C   0  0  2  0  0  0  0  0  0  0  0  0
   24.7184  -19.9355  -16.3338 C   0  0  0  0  0  0  0  0  0  0  0  0
   22.9951  -20.4946  -14.6780 C   0  0  0  0  0  0  0  0  0  0  0  0
   21.7146  -21.1111  -14.2522 C   0  0  2  0  0  0  0  0  0  0  0  0
   20.5480  -20.5050  -14.7941 N   0  0  0  0  0  0  0  0  0  0  0  0
   21.6205  -21.2923  -12.7721 C   0  0  0  0  0  0  0  0  0  0  0  0
   22.6474  -21.1721  -12.0547 O   0  0  0  0  0  0  0  0  0  0  0  0
   21.2857  -19.4537  -10.3091 C   0  0  0  0  0  0  0  0  0  0  0  0
   19.9613  -20.2116  -10.1896 C   0  0  1  0  0  0  0  0  0  0  0  0
   18.9159  -19.4153  -10.8846 C   0  0  0  0  0  0  0  0  0  0  0  0
   20.1846  -21.5808  -10.7222 C   0  0  2  0  0  0  0  0  0  0  0  0
   20.4083  -21.5967  -12.1547 N   0  0  0  0  0  0  0  0  0  0  0  0
   19.1796  -22.5745  -10.3071 C   0  0  0  0  0  0  0  0  0  0  0  0
   18.3852  -23.0059  -11.1702 O   0  0  0  0  0  0  0  0  0  0  0  0
   19.0856  -23.0462   -8.9932 N   0  0  0  0  0  0  0  0  0  0  0  0
   18.0775  -24.0949   -8.6204 C   0  0  1  0  0  0  0  0  0  0  0  0
   18.5031  -24.5288   -7.2687 C   0  0  0  0  0  0  0  0  0  0  0  0
   17.8247  -25.6361   -6.5887 C   0  0  0  0  0  0  0  0  0  0  0  0
   18.3413  -25.9986   -5.2632 C   0  0  0  0  0  0  0  0  0  0  0  0
   19.2032  -25.3020   -4.6508 O   0  0  0  0  0  0  0  0  0  0  0  0
   16.7875  -23.3678   -8.6794 C   0  0  0  0  0  0  0  0  0  0  0  0
   15.5845  -24.0104   -9.0791 O   0  0  0  0  0  0  0  0  0  0  0  0
   17.8837  -27.1449   -4.6299 O   0  0  0  0  0  0  0  0  0  0  0  0
   16.6233  -22.1586   -8.3958 O   0  0  0  0  0  0  0  0  0  0  0  0
  2  1  1  1
  3  2  1  0
  4  5  1  0
  4  2  1  0
  5  6  1  1
  7  5  1  0
  8  7  2  0
 10  9  1  6
 10 12  1  0
 11 10  1  0
 12 14  1  0
 12 13  1  6
 13  7  1  0
 14 16  1  0
 15 14  2  0
 16 17  1  0
 17 18  1  1
 17 22  1  0
 18 19  1  0
 19 20  1  0
 20 24  1  0
 21 20  2  0
 22 25  2  0
 22 23  1  0
M  END
$$$$
