LVE.pdb
     RDKit          3D

 25 24  0  0  1  0  0  0  0  0999 V2000
   29.5431  -17.8132  -15.2833 C   0  0  0  0  0  0  0  0  0  0  0  0
   28.4485  -18.2501  -16.2257 C   0  0  2  0  0  0  0  0  0  0  0  0
   27.7775  -17.0214  -16.8603 C   0  0  0  0  0  0  0  0  0  0  0  0
   27.4096  -19.0705  -15.5601 C   0  0  0  0  0  0  0  0  0  0  0  0
   27.8584  -20.2778  -14.8240 C   0  0  2  0  0  0  0  0  0  0  0  0
   28.5877  -21.2181  -15.6025 N   0  0  0  0  0  0  0  0  0  0  0  0
   26.7610  -20.9232  -14.0420 C   0  0  0  0  0  0  0  0  0  0  0  0
   26.0508  -21.8177  -14.5703 O   0  0  0  0  0  0  0  0  0  0  0  0
   26.0000  -19.4635  -10.1805 C   0  0  0  0  0  0  0  0  0  0  0  0
   25.5325  -20.8854  -10.5008 C   0  0  1  0  0  0  0  0  0  0  0  0
   24.3331  -21.1691   -9.6695 C   0  0  0  0  0  0  0  0  0  0  0  0
   25.3275  -20.9641  -11.9705 C   0  0  2  0  0  0  0  0  0  0  0  0
   26.4974  -20.5554  -12.7234 N   0  0  0  0  0  0  0  0  0  0  0  0
   24.0997  -20.3118  -12.4569 C   0  0  0  0  0  0  0  0  0  0  0  0
   24.1086  -19.0703  -12.6009 O   0  0  0  0  0  0  0  0  0  0  0  0
   22.9364  -21.0279  -12.7596 N   0  0  0  0  0  0  0  0  0  0  0  0
   21.7274  -20.3346  -13.3190 C   0  0  1  0  0  0  0  0  0  0  0  0
   21.6779  -20.7930  -14.7275 C   0  0  0  0  0  0  0  0  0  0  0  0
   21.4398  -22.2033  -15.0487 C   0  0  0  0  0  0  0  0  0  0  0  0
   21.3415  -22.5370  -16.4750 C   0  0  0  0  0  0  0  0  0  0  0  0
   21.4195  -21.6642  -17.3889 O   0  0  0  0  0  0  0  0  0  0  0  0
   20.6247  -20.8152  -12.4533 C   0  0  0  0  0  0  0  0  0  0  0  0
   19.3237  -20.2463  -12.5145 O   0  0  0  0  0  0  0  0  0  0  0  0
   21.1574  -23.8545  -16.8682 O   0  0  0  0  0  0  0  0  0  0  0  0
   20.7148  -21.7360  -11.6087 O   0  0  0  0  0  0  0  0  0  0  0  0
  2  1  1  1
  3  2  1  0
  4  5  1  0
  4  2  1  0
  5  6  1  6
  7  5  1  0
  8  7  2  0
 10  9  1  6
 10 12  1  0
 11 10  1  0
 12 14  1  0
 12 13  1  6
 13  7  1  0
 14 16  1  0
 15 14  2  0
 16 17  1  0
 17 18  1  6
 17 22  1  0
 18 19  1  0
 19 20  1  0
 20 24  1  0
 21 20  2  0
 22 25  2  0
 22 23  1  0
M  END
$$$$
