DRP.pdb
     RDKit          3D

 27 27  0  0  1  0  0  0  0  0999 V2000
    9.8440  -16.9035   20.0890 N   0  0  0  0  0  0  0  0  0  0  0  0
   10.6525  -17.0851   21.3383 C   0  0  1  0  0  0  0  0  0  0  0  0
   11.8925  -16.3042   21.1646 C   0  0  0  0  0  0  0  0  0  0  0  0
   12.8921  -16.8653   20.2329 C   0  0  0  0  0  0  0  0  0  0  0  0
   13.0017  -18.0892   19.9765 O   0  0  0  0  0  0  0  0  0  0  0  0
    9.7306  -16.6571   22.4061 C   0  0  0  0  0  0  0  0  0  0  0  0
    9.0931  -15.5394   22.2436 O   0  0  0  0  0  0  0  0  0  0  0  0
   13.8023  -16.0261   19.5633 O   0  0  0  0  0  0  0  0  0  0  0  0
    3.8668  -21.4582   23.9135 N   0  0  0  0  0  0  0  0  0  0  0  0
    3.8535  -20.5384   22.8343 C   0  0  0  0  0  0  0  0  0  0  0  0
    3.0104  -20.6264   21.8585 N   0  0  0  0  0  0  0  0  0  0  0  0
    4.7889  -19.4663   22.7907 N   0  0  0  0  0  0  0  0  0  0  0  0
    5.7181  -19.3060   23.8910 C   0  0  0  0  0  0  0  0  0  0  0  0
    6.6045  -18.0831   23.6195 C   0  0  0  0  0  0  0  0  0  0  0  0
    7.5012  -17.8455   24.8250 C   0  0  0  0  0  0  0  0  0  0  0  0
    8.5120  -16.7482   24.5957 C   0  0  2  0  0  0  0  0  0  0  0  0
    9.4620  -17.3353   23.6069 N   0  0  0  0  0  0  0  0  0  0  0  0
    9.2868  -16.4248   25.8474 C   0  0  0  0  0  0  0  0  0  0  0  0
    9.8541  -17.4573   26.3462 O   0  0  0  0  0  0  0  0  0  0  0  0
    2.9831  -19.9529   21.0657 N   0  0  0  0  0  0  0  0  0  0  0  0
    9.3576  -15.1372   26.3744 C   0  0  0  0  0  0  0  0  0  0  0  0
    9.0830  -13.9212   25.5740 C   0  0  0  0  0  0  0  0  0  0  0  0
    8.3236  -13.0212   26.5219 C   0  0  0  0  0  0  0  0  0  0  0  0
    8.3741  -13.7328   27.8559 C   0  0  2  0  0  0  0  0  0  0  0  0
    9.6511  -14.6086   27.6456 C   0  0  0  0  0  0  0  0  0  0  0  0
    9.8610  -15.4656   28.7886 O   0  0  0  0  0  0  0  0  0  0  0  0
   10.6509  -15.0461   29.8946 O   0  0  0  0  0  0  0  0  0  0  0  0
  2  1  1  6
  2  3  1  0
  4  3  1  0
  4  8  1  0
  5  4  2  0
  6  7  2  0
  6  2  1  0
  9 10  1  0
 10 12  1  0
 11 10  2  0
 12 13  1  0
 13 14  1  0
 15 14  1  0
 16 15  1  1
 16 17  1  0
 17  6  1  0
 18 16  1  0
 19 18  2  0
 20 18  1  0
 20 21  1  0
 22 21  1  0
 23 22  1  0
 24 23  1  0
 24 20  1  0
 25 26  1  0
 24 25  1  1
 27 25  2  0
M  END
$$$$
