DRP.pdb
     RDKit          3D

 27 27  0  0  1  0  0  0  0  0999 V2000
    8.4800  -17.9427   15.9668 N   0  0  0  0  0  0  0  0  0  0  0  0
    9.2053  -18.4698   17.1682 C   0  0  1  0  0  0  0  0  0  0  0  0
   10.6216  -18.0831   17.0186 C   0  0  0  0  0  0  0  0  0  0  0  0
   11.4247  -18.8957   16.0822 C   0  0  0  0  0  0  0  0  0  0  0  0
   10.9771  -19.8834   15.4499 O   0  0  0  0  0  0  0  0  0  0  0  0
    8.4627  -17.8840   18.2990 C   0  0  0  0  0  0  0  0  0  0  0  0
    7.8784  -16.7413   18.1125 O   0  0  0  0  0  0  0  0  0  0  0  0
   12.7782  -18.5919   15.8444 O   0  0  0  0  0  0  0  0  0  0  0  0
    5.4493  -21.4000   25.5556 N   0  0  0  0  0  0  0  0  0  0  0  0
    5.6620  -21.6619   24.1783 C   0  0  0  0  0  0  0  0  0  0  0  0
    5.7362  -22.8620   23.7040 N   0  0  0  0  0  0  0  0  0  0  0  0
    5.8039  -20.5879   23.2549 N   0  0  0  0  0  0  0  0  0  0  0  0
    6.0859  -19.2615   23.7656 C   0  0  0  0  0  0  0  0  0  0  0  0
    6.0696  -18.2652   22.5985 C   0  0  0  0  0  0  0  0  0  0  0  0
    6.9560  -18.7971   21.4826 C   0  0  0  0  0  0  0  0  0  0  0  0
    7.5338  -17.7008   20.6208 C   0  0  2  0  0  0  0  0  0  0  0  0
    8.3166  -18.4334   19.5839 N   0  0  0  0  0  0  0  0  0  0  0  0
    8.4889  -16.8239   21.3892 C   0  0  0  0  0  0  0  0  0  0  0  0
    9.3795  -17.5033   22.0075 O   0  0  0  0  0  0  0  0  0  0  0  0
    5.8826  -23.0685   22.6947 N   0  0  0  0  0  0  0  0  0  0  0  0
    8.3865  -15.4347   21.4031 C   0  0  0  0  0  0  0  0  0  0  0  0
    7.7587  -14.6606   20.3071 C   0  0  0  0  0  0  0  0  0  0  0  0
    6.9933  -13.5692   21.0198 C   0  0  0  0  0  0  0  0  0  0  0  0
    7.3875  -13.7056   22.4740 C   0  0  2  0  0  0  0  0  0  0  0  0
    8.7634  -14.4289   22.3130 C   0  0  0  0  0  0  0  0  0  0  0  0
    9.3110  -14.7515   23.6096 O   0  0  0  0  0  0  0  0  0  0  0  0
   10.2249  -13.8812   24.2657 O   0  0  0  0  0  0  0  0  0  0  0  0
  2  1  1  6
  2  3  1  0
  4  3  1  0
  4  8  1  0
  5  4  2  0
  6  7  2  0
  6  2  1  0
  9 10  1  0
 10 12  1  0
 11 10  2  0
 12 13  1  0
 13 14  1  0
 15 14  1  0
 16 15  1  1
 16 17  1  0
 17  6  1  0
 18 16  1  0
 19 18  2  0
 20 18  1  0
 20 21  1  0
 22 21  1  0
 23 22  1  0
 24 23  1  0
 24 20  1  0
 25 26  1  0
 24 25  1  1
 27 25  2  0
M  END
$$$$
