DRP.pdb
     RDKit          3D

 27 27  0  0  1  0  0  0  0  0999 V2000
    7.9972  -12.8869   18.7294 N   0  0  0  0  0  0  0  0  0  0  0  0
    8.9037  -13.7919   19.5082 C   0  0  1  0  0  0  0  0  0  0  0  0
   10.2200  -13.1281   19.5742 C   0  0  0  0  0  0  0  0  0  0  0  0
   11.2865  -13.8624   20.2852 C   0  0  0  0  0  0  0  0  0  0  0  0
   11.1602  -15.0323   20.7222 O   0  0  0  0  0  0  0  0  0  0  0  0
    8.1822  -13.9854   20.7792 C   0  0  0  0  0  0  0  0  0  0  0  0
    7.7999  -12.9280   21.4254 O   0  0  0  0  0  0  0  0  0  0  0  0
   12.5403  -13.2660   20.5154 O   0  0  0  0  0  0  0  0  0  0  0  0
    7.0955  -18.2171   26.9612 N   0  0  0  0  0  0  0  0  0  0  0  0
    7.4264  -19.0490   25.8615 C   0  0  0  0  0  0  0  0  0  0  0  0
    8.6426  -19.3982   25.5974 N   0  0  0  0  0  0  0  0  0  0  0  0
    6.4074  -19.5358   24.9949 N   0  0  0  0  0  0  0  0  0  0  0  0
    6.0365  -18.7430   23.8400 C   0  0  0  0  0  0  0  0  0  0  0  0
    6.6669  -17.3499   23.9697 C   0  0  0  0  0  0  0  0  0  0  0  0
    6.4302  -16.5786   22.6801 C   0  0  0  0  0  0  0  0  0  0  0  0
    7.1068  -15.2294   22.6722 C   0  0  2  0  0  0  0  0  0  0  0  0
    7.8586  -15.2116   21.3841 N   0  0  0  0  0  0  0  0  0  0  0  0
    8.1047  -15.0925   23.7934 C   0  0  0  0  0  0  0  0  0  0  0  0
    8.9687  -16.0361   23.7906 O   0  0  0  0  0  0  0  0  0  0  0  0
    8.8955  -20.0393   24.8178 N   0  0  0  0  0  0  0  0  0  0  0  0
    8.0636  -14.0451   24.7109 C   0  0  0  0  0  0  0  0  0  0  0  0
    7.4022  -12.7499   24.4283 C   0  0  0  0  0  0  0  0  0  0  0  0
    6.7311  -12.3877   25.7335 C   0  0  0  0  0  0  0  0  0  0  0  0
    7.2098  -13.4317   26.7182 C   0  0  2  0  0  0  0  0  0  0  0  0
    8.5402  -13.8669   26.0234 C   0  0  0  0  0  0  0  0  0  0  0  0
    9.1538  -14.9491   26.7564 O   0  0  0  0  0  0  0  0  0  0  0  0
   10.1764  -14.7088   27.7154 O   0  0  0  0  0  0  0  0  0  0  0  0
  2  1  1  6
  2  3  1  0
  4  3  1  0
  4  8  1  0
  5  4  2  0
  6  7  2  0
  6  2  1  0
  9 10  1  0
 10 12  1  0
 11 10  2  0
 12 13  1  0
 13 14  1  0
 15 14  1  0
 16 15  1  1
 16 17  1  0
 17  6  1  0
 18 16  1  0
 19 18  2  0
 20 18  1  0
 20 21  1  0
 22 21  1  0
 23 22  1  0
 24 23  1  0
 24 20  1  0
 25 26  1  0
 24 25  1  1
 27 25  2  0
M  END
$$$$
