DRP.pdb
     RDKit          3D

 27 27  0  0  1  0  0  0  0  0999 V2000
   11.4696  -17.2483   21.1054 N   0  0  0  0  0  0  0  0  0  0  0  0
   12.4802  -16.6428   22.0325 C   0  0  1  0  0  0  0  0  0  0  0  0
   13.3369  -15.7605   21.2169 C   0  0  0  0  0  0  0  0  0  0  0  0
   14.1998  -16.4277   20.2206 C   0  0  0  0  0  0  0  0  0  0  0  0
   14.7487  -17.5417   20.4029 O   0  0  0  0  0  0  0  0  0  0  0  0
   11.6509  -16.0046   23.0709 C   0  0  0  0  0  0  0  0  0  0  0  0
   12.2503  -15.2784   23.9628 O   0  0  0  0  0  0  0  0  0  0  0  0
   14.4579  -15.8263   18.9745 O   0  0  0  0  0  0  0  0  0  0  0  0
    7.8034  -14.7626   18.6770 N   0  0  0  0  0  0  0  0  0  0  0  0
    7.9241  -13.5510   19.4039 C   0  0  0  0  0  0  0  0  0  0  0  0
    8.3072  -12.4465   18.8523 N   0  0  0  0  0  0  0  0  0  0  0  0
    7.6210  -13.5124   20.7943 N   0  0  0  0  0  0  0  0  0  0  0  0
    8.1386  -14.5608   21.6504 C   0  0  0  0  0  0  0  0  0  0  0  0
    7.6131  -14.3438   23.0758 C   0  0  0  0  0  0  0  0  0  0  0  0
    8.1018  -15.4804   23.9608 C   0  0  0  0  0  0  0  0  0  0  0  0
    9.5661  -15.3640   24.3081 C   0  0  2  0  0  0  0  0  0  0  0  0
   10.2559  -16.0993   23.2088 N   0  0  0  0  0  0  0  0  0  0  0  0
    9.8944  -16.0561   25.6060 C   0  0  0  0  0  0  0  0  0  0  0  0
    9.7249  -17.3222   25.5362 O   0  0  0  0  0  0  0  0  0  0  0  0
    8.4646  -11.5671   19.3858 N   0  0  0  0  0  0  0  0  0  0  0  0
   10.3312  -15.3662   26.7347 C   0  0  0  0  0  0  0  0  0  0  0  0
   10.7057  -13.9330   26.7101 C   0  0  0  0  0  0  0  0  0  0  0  0
   10.1596  -13.3882   28.0100 C   0  0  0  0  0  0  0  0  0  0  0  0
    9.6604  -14.6034   28.7602 C   0  0  2  0  0  0  0  0  0  0  0  0
   10.5296  -15.7125   28.0846 C   0  0  0  0  0  0  0  0  0  0  0  0
   10.1599  -17.0129   28.5918 O   0  0  0  0  0  0  0  0  0  0  0  0
   10.7713  -17.5561   29.7554 O   0  0  0  0  0  0  0  0  0  0  0  0
  2  1  1  6
  2  3  1  0
  4  3  1  0
  4  8  1  0
  5  4  2  0
  6  7  2  0
  6  2  1  0
  9 10  1  0
 10 12  1  0
 11 10  2  0
 12 13  1  0
 13 14  1  0
 15 14  1  0
 16 15  1  6
 16 17  1  0
 17  6  1  0
 18 16  1  0
 19 18  2  0
 20 18  1  0
 20 21  1  0
 22 21  1  0
 23 22  1  0
 24 23  1  0
 24 20  1  0
 25 26  1  0
 24 25  1  1
 27 25  2  0
M  END
$$$$
