DRP.pdb
     RDKit          3D

 27 27  0  0  1  0  0  0  0  0999 V2000
    8.0176  -13.5093   17.7749 N   0  0  0  0  0  0  0  0  0  0  0  0
    7.9830  -14.9328   18.2437 C   0  0  1  0  0  0  0  0  0  0  0  0
    8.8076  -15.7150   17.3027 C   0  0  0  0  0  0  0  0  0  0  0  0
    8.9967  -17.1427   17.6315 C   0  0  0  0  0  0  0  0  0  0  0  0
    8.0701  -17.9060   17.9982 O   0  0  0  0  0  0  0  0  0  0  0  0
    8.4528  -14.8439   19.6382 C   0  0  0  0  0  0  0  0  0  0  0  0
    9.4713  -14.0803   19.8865 O   0  0  0  0  0  0  0  0  0  0  0  0
   10.2692  -17.7382   17.5469 O   0  0  0  0  0  0  0  0  0  0  0  0
    4.9158  -11.4870   26.3178 N   0  0  0  0  0  0  0  0  0  0  0  0
    6.1988  -11.8573   26.7948 C   0  0  0  0  0  0  0  0  0  0  0  0
    6.7515  -11.2856   27.8138 N   0  0  0  0  0  0  0  0  0  0  0  0
    6.9345  -12.8927   26.1519 N   0  0  0  0  0  0  0  0  0  0  0  0
    6.5540  -13.2898   24.8113 C   0  0  0  0  0  0  0  0  0  0  0  0
    7.5293  -14.3660   24.3156 C   0  0  0  0  0  0  0  0  0  0  0  0
    7.2390  -14.6590   22.8515 C   0  0  0  0  0  0  0  0  0  0  0  0
    8.4344  -15.2167   22.1178 C   0  0  2  0  0  0  0  0  0  0  0  0
    7.9131  -15.5100   20.7514 N   0  0  0  0  0  0  0  0  0  0  0  0
    8.9112  -16.5133   22.7202 C   0  0  0  0  0  0  0  0  0  0  0  0
    8.0173  -17.4274   22.6721 O   0  0  0  0  0  0  0  0  0  0  0  0
    7.6870  -11.5550   28.1811 N   0  0  0  0  0  0  0  0  0  0  0  0
   10.1867  -16.6662   23.2591 C   0  0  0  0  0  0  0  0  0  0  0  0
   11.3258  -15.7904   22.8982 C   0  0  0  0  0  0  0  0  0  0  0  0
   12.0568  -15.5814   24.2046 C   0  0  0  0  0  0  0  0  0  0  0  0
   11.3673  -16.5030   25.1863 C   0  0  2  0  0  0  0  0  0  0  0  0
   10.7611  -17.5475   24.1945 C   0  0  0  0  0  0  0  0  0  0  0  0
    9.9607  -18.5106   24.9134 O   0  0  0  0  0  0  0  0  0  0  0  0
   10.5238  -19.7179   25.4118 O   0  0  0  0  0  0  0  0  0  0  0  0
  2  1  1  6
  2  3  1  0
  4  3  1  0
  4  8  1  0
  5  4  2  0
  6  7  2  0
  6  2  1  0
  9 10  1  0
 10 12  1  0
 11 10  2  0
 12 13  1  0
 13 14  1  0
 15 14  1  0
 16 15  1  1
 16 17  1  0
 17  6  1  0
 18 16  1  0
 19 18  2  0
 20 18  1  0
 20 21  1  0
 22 21  1  0
 23 22  1  0
 24 23  1  0
 24 20  1  0
 25 26  1  0
 24 25  1  1
 27 25  2  0
M  END
$$$$
