DRP.pdb
     RDKit          3D

 27 27  0  0  1  0  0  0  0  0999 V2000
    8.8869  -21.4875   19.3629 N   0  0  0  0  0  0  0  0  0  0  0  0
    8.1770  -21.1575   20.6414 C   0  0  1  0  0  0  0  0  0  0  0  0
    8.4255  -22.2757   21.5716 C   0  0  0  0  0  0  0  0  0  0  0  0
    7.6061  -23.4881   21.3685 C   0  0  0  0  0  0  0  0  0  0  0  0
    6.9294  -24.0360   22.2727 O   0  0  0  0  0  0  0  0  0  0  0  0
    8.7294  -19.8407   21.0079 C   0  0  0  0  0  0  0  0  0  0  0  0
    9.9928  -19.6348   20.7994 O   0  0  0  0  0  0  0  0  0  0  0  0
    7.5416  -24.1100   20.1076 O   0  0  0  0  0  0  0  0  0  0  0  0
    8.2247  -11.5310   20.3799 N   0  0  0  0  0  0  0  0  0  0  0  0
    8.0865  -12.6715   19.5486 C   0  0  0  0  0  0  0  0  0  0  0  0
    8.5224  -12.7000   18.3321 N   0  0  0  0  0  0  0  0  0  0  0  0
    7.4489  -13.8462   20.0385 N   0  0  0  0  0  0  0  0  0  0  0  0
    7.2440  -13.9850   21.4662 C   0  0  0  0  0  0  0  0  0  0  0  0
    8.2266  -15.0306   22.0105 C   0  0  0  0  0  0  0  0  0  0  0  0
    7.7271  -16.4185   21.6387 C   0  0  0  0  0  0  0  0  0  0  0  0
    8.7481  -17.4984   21.9027 C   0  0  2  0  0  0  0  0  0  0  0  0
    8.0281  -18.7624   21.5730 N   0  0  0  0  0  0  0  0  0  0  0  0
    9.1448  -17.5563   23.3556 C   0  0  0  0  0  0  0  0  0  0  0  0
    8.1351  -17.7005   24.1280 O   0  0  0  0  0  0  0  0  0  0  0  0
    8.4430  -13.5355   17.7171 N   0  0  0  0  0  0  0  0  0  0  0  0
   10.4694  -17.4613   23.7762 C   0  0  0  0  0  0  0  0  0  0  0  0
   11.6130  -17.4075   22.8359 C   0  0  0  0  0  0  0  0  0  0  0  0
   12.5543  -16.4024   23.4595 C   0  0  0  0  0  0  0  0  0  0  0  0
   11.9453  -16.0856   24.8076 C   0  0  2  0  0  0  0  0  0  0  0  0
   11.1002  -17.3808   25.0320 C   0  0  0  0  0  0  0  0  0  0  0  0
   10.3376  -17.2722   26.2534 O   0  0  0  0  0  0  0  0  0  0  0  0
   10.7047  -17.9933   27.4231 O   0  0  0  0  0  0  0  0  0  0  0  0
  2  1  1  6
  2  3  1  0
  4  3  1  0
  4  8  1  0
  5  4  2  0
  6  7  2  0
  6  2  1  0
  9 10  1  0
 10 12  1  0
 11 10  2  0
 12 13  1  0
 13 14  1  0
 15 14  1  0
 16 15  1  1
 16 17  1  0
 17  6  1  0
 18 16  1  0
 19 18  2  0
 20 18  1  0
 20 21  1  0
 22 21  1  0
 23 22  1  0
 24 23  1  0
 24 20  1  0
 25 26  1  0
 24 25  1  1
 27 25  2  0
M  END
$$$$
