DRP.pdb
     RDKit          3D

 27 27  0  0  1  0  0  0  0  0999 V2000
   12.8621  -16.1135   21.9148 N   0  0  0  0  0  0  0  0  0  0  0  0
   11.6354  -16.8850   22.2985 C   0  0  1  0  0  0  0  0  0  0  0  0
   12.0533  -17.8867   23.2982 C   0  0  0  0  0  0  0  0  0  0  0  0
   12.7376  -19.0863   22.7737 C   0  0  0  0  0  0  0  0  0  0  0  0
   13.4858  -19.0817   21.7658 O   0  0  0  0  0  0  0  0  0  0  0  0
   10.6995  -15.8372   22.7451 C   0  0  0  0  0  0  0  0  0  0  0  0
   11.1321  -14.9634   23.6004 O   0  0  0  0  0  0  0  0  0  0  0  0
   12.5791  -20.3367   23.4000 O   0  0  0  0  0  0  0  0  0  0  0  0
    7.9304  -14.0023   16.8411 N   0  0  0  0  0  0  0  0  0  0  0  0
    9.0751  -13.8277   17.6596 C   0  0  0  0  0  0  0  0  0  0  0  0
   10.2788  -13.9341   17.2006 N   0  0  0  0  0  0  0  0  0  0  0  0
    8.9314  -13.5234   19.0428 N   0  0  0  0  0  0  0  0  0  0  0  0
    7.6031  -13.5199   19.6219 C   0  0  0  0  0  0  0  0  0  0  0  0
    7.7073  -13.1336   21.1034 C   0  0  0  0  0  0  0  0  0  0  0  0
    7.4353  -14.3642   21.9551 C   0  0  0  0  0  0  0  0  0  0  0  0
    8.5183  -14.6217   22.9746 C   0  0  2  0  0  0  0  0  0  0  0  0
    9.3626  -15.6771   22.3436 N   0  0  0  0  0  0  0  0  0  0  0  0
    7.9621  -15.1797   24.2594 C   0  0  0  0  0  0  0  0  0  0  0  0
    7.7033  -16.4296   24.1726 O   0  0  0  0  0  0  0  0  0  0  0  0
   11.1260  -13.8723   17.8014 N   0  0  0  0  0  0  0  0  0  0  0  0
    7.7651  -14.3965   25.3945 C   0  0  0  0  0  0  0  0  0  0  0  0
    8.3846  -13.0626   25.5723 C   0  0  0  0  0  0  0  0  0  0  0  0
    7.3008  -12.2389   26.2295 C   0  0  0  0  0  0  0  0  0  0  0  0
    6.1949  -13.2254   26.5336 C   0  0  2  0  0  0  0  0  0  0  0  0
    7.0218  -14.5506   26.5799 C   0  0  0  0  0  0  0  0  0  0  0  0
    6.1430  -15.6792   26.7778 O   0  0  0  0  0  0  0  0  0  0  0  0
    5.3750  -16.2172   25.7083 O   0  0  0  0  0  0  0  0  0  0  0  0
  2  1  1  1
  2  3  1  0
  4  3  1  0
  4  8  1  0
  5  4  2  0
  6  7  2  0
  6  2  1  0
  9 10  1  0
 10 12  1  0
 11 10  2  0
 12 13  1  0
 13 14  1  0
 15 14  1  0
 16 15  1  6
 16 17  1  0
 17  6  1  0
 18 16  1  0
 19 18  2  0
 20 18  1  0
 20 21  1  0
 22 21  1  0
 23 22  1  0
 24 23  1  0
 24 20  1  0
 25 26  1  0
 24 25  1  6
 27 25  2  0
M  END
$$$$
