DRP.pdb
     RDKit          3D

 27 27  0  0  1  0  0  0  0  0999 V2000
    7.2765  -15.1719   19.3033 N   0  0  0  0  0  0  0  0  0  0  0  0
    8.2919  -14.7214   20.3099 C   0  0  1  0  0  0  0  0  0  0  0  0
    8.8219  -13.4283   19.8360 C   0  0  0  0  0  0  0  0  0  0  0  0
    9.9011  -13.4945   18.8294 C   0  0  0  0  0  0  0  0  0  0  0  0
   10.8381  -14.3293   18.8605 O   0  0  0  0  0  0  0  0  0  0  0  0
    7.5376  -14.7170   21.5765 C   0  0  0  0  0  0  0  0  0  0  0  0
    6.2495  -14.8541   21.5145 O   0  0  0  0  0  0  0  0  0  0  0  0
    9.9329  -12.5940   17.7483 O   0  0  0  0  0  0  0  0  0  0  0  0
    9.0728  -19.6791   27.6682 N   0  0  0  0  0  0  0  0  0  0  0  0
    7.6746  -19.8648   27.5220 C   0  0  0  0  0  0  0  0  0  0  0  0
    7.0098  -20.7152   28.2331 N   0  0  0  0  0  0  0  0  0  0  0  0
    6.9434  -19.1042   26.5663 N   0  0  0  0  0  0  0  0  0  0  0  0
    7.6729  -18.2646   25.6375 C   0  0  0  0  0  0  0  0  0  0  0  0
    6.6695  -17.5197   24.7468 C   0  0  0  0  0  0  0  0  0  0  0  0
    7.4351  -16.6820   23.7339 C   0  0  0  0  0  0  0  0  0  0  0  0
    7.3734  -15.2033   24.0309 C   0  0  2  0  0  0  0  0  0  0  0  0
    8.0672  -14.5741   22.8701 N   0  0  0  0  0  0  0  0  0  0  0  0
    8.1402  -14.8464   25.2783 C   0  0  0  0  0  0  0  0  0  0  0  0
    9.0007  -15.7403   25.5903 O   0  0  0  0  0  0  0  0  0  0  0  0
    5.9748  -20.8119   28.1869 N   0  0  0  0  0  0  0  0  0  0  0  0
    7.9139  -13.6686   25.9871 C   0  0  0  0  0  0  0  0  0  0  0  0
    7.0944  -12.5534   25.4587 C   0  0  0  0  0  0  0  0  0  0  0  0
    6.3213  -12.0635   26.6617 C   0  0  0  0  0  0  0  0  0  0  0  0
    6.8936  -12.8349   27.8305 C   0  0  2  0  0  0  0  0  0  0  0  0
    8.3013  -13.1921   27.2537 C   0  0  0  0  0  0  0  0  0  0  0  0
    9.0239  -14.0263   28.1848 O   0  0  0  0  0  0  0  0  0  0  0  0
    9.7826  -13.4648   29.2487 O   0  0  0  0  0  0  0  0  0  0  0  0
  2  1  1  6
  2  3  1  0
  4  3  1  0
  4  8  1  0
  5  4  2  0
  6  7  2  0
  6  2  1  0
  9 10  1  0
 10 12  1  0
 11 10  2  0
 12 13  1  0
 13 14  1  0
 15 14  1  0
 16 15  1  6
 16 17  1  0
 17  6  1  0
 18 16  1  0
 19 18  2  0
 20 18  1  0
 20 21  1  0
 22 21  1  0
 23 22  1  0
 24 23  1  0
 24 20  1  0
 25 26  1  0
 24 25  1  1
 27 25  2  0
M  END
$$$$
