DRP.pdb
     RDKit          3D

 27 27  0  0  1  0  0  0  0  0999 V2000
   13.9061  -17.4061   21.3149 N   0  0  0  0  0  0  0  0  0  0  0  0
   12.7064  -18.2428   21.6442 C   0  0  1  0  0  0  0  0  0  0  0  0
   13.1072  -19.1603   22.7282 C   0  0  0  0  0  0  0  0  0  0  0  0
   13.9190  -20.3279   22.3284 C   0  0  0  0  0  0  0  0  0  0  0  0
   14.3252  -20.5314   21.1583 O   0  0  0  0  0  0  0  0  0  0  0  0
   11.6690  -17.2431   21.9565 C   0  0  0  0  0  0  0  0  0  0  0  0
   12.0023  -16.2386   22.7061 O   0  0  0  0  0  0  0  0  0  0  0  0
   14.2902  -21.3034   23.2726 O   0  0  0  0  0  0  0  0  0  0  0  0
    8.4878  -14.3764   16.2582 N   0  0  0  0  0  0  0  0  0  0  0  0
    8.0280  -13.7908   17.4651 C   0  0  0  0  0  0  0  0  0  0  0  0
    7.7435  -12.5336   17.5616 N   0  0  0  0  0  0  0  0  0  0  0  0
    7.8623  -14.5865   18.6338 N   0  0  0  0  0  0  0  0  0  0  0  0
    7.2817  -13.9793   19.8144 C   0  0  0  0  0  0  0  0  0  0  0  0
    7.4081  -14.9575   20.9902 C   0  0  0  0  0  0  0  0  0  0  0  0
    8.5682  -15.9042   20.7225 C   0  0  0  0  0  0  0  0  0  0  0  0
    9.4028  -16.1698   21.9519 C   0  0  2  0  0  0  0  0  0  0  0  0
   10.3309  -17.2579   21.5282 N   0  0  0  0  0  0  0  0  0  0  0  0
    8.5712  -16.6893   23.0964 C   0  0  0  0  0  0  0  0  0  0  0  0
    7.9889  -17.7921   22.8106 O   0  0  0  0  0  0  0  0  0  0  0  0
    7.4226  -12.0876   18.4452 N   0  0  0  0  0  0  0  0  0  0  0  0
    8.4699  -16.0208   24.3144 C   0  0  0  0  0  0  0  0  0  0  0  0
    9.1995  -14.7657   24.6094 C   0  0  0  0  0  0  0  0  0  0  0  0
    8.2045  -13.9369   25.3892 C   0  0  0  0  0  0  0  0  0  0  0  0
    7.0318  -14.8625   25.6276 C   0  0  2  0  0  0  0  0  0  0  0  0
    7.7503  -16.2446   25.5033 C   0  0  0  0  0  0  0  0  0  0  0  0
    6.7894  -17.3169   25.6129 O   0  0  0  0  0  0  0  0  0  0  0  0
    6.4765  -17.9065   26.8688 O   0  0  0  0  0  0  0  0  0  0  0  0
  2  1  1  1
  2  3  1  0
  4  3  1  0
  4  8  1  0
  5  4  2  0
  6  7  2  0
  6  2  1  0
  9 10  1  0
 10 12  1  0
 11 10  2  0
 12 13  1  0
 13 14  1  0
 15 14  1  0
 16 15  1  6
 16 17  1  0
 17  6  1  0
 18 16  1  0
 19 18  2  0
 20 18  1  0
 20 21  1  0
 22 21  1  0
 23 22  1  0
 24 23  1  0
 24 20  1  0
 25 26  1  0
 24 25  1  1
 27 25  2  0
M  END
$$$$
