DRP.pdb
     RDKit          3D

 27 27  0  0  1  0  0  0  0  0999 V2000
   15.2599  -14.1803   17.8996 N   0  0  0  0  0  0  0  0  0  0  0  0
   14.4448  -14.9543   18.8914 C   0  0  1  0  0  0  0  0  0  0  0  0
   14.9786  -14.6340   20.2293 C   0  0  0  0  0  0  0  0  0  0  0  0
   16.2168  -15.3367   20.6235 C   0  0  0  0  0  0  0  0  0  0  0  0
   16.5404  -16.4748   20.2043 O   0  0  0  0  0  0  0  0  0  0  0  0
   13.0625  -14.5335   18.5990 C   0  0  0  0  0  0  0  0  0  0  0  0
   12.7742  -13.2749   18.7206 O   0  0  0  0  0  0  0  0  0  0  0  0
   17.1263  -14.7442   21.5194 O   0  0  0  0  0  0  0  0  0  0  0  0
   10.0685  -15.9093   13.5076 N   0  0  0  0  0  0  0  0  0  0  0  0
    8.8853  -15.1445   13.3465 C   0  0  0  0  0  0  0  0  0  0  0  0
    8.6983  -14.3609   12.3357 N   0  0  0  0  0  0  0  0  0  0  0  0
    7.8440  -15.2170   14.3144 N   0  0  0  0  0  0  0  0  0  0  0  0
    8.0431  -16.0357   15.4933 C   0  0  0  0  0  0  0  0  0  0  0  0
    8.5867  -15.1536   16.6254 C   0  0  0  0  0  0  0  0  0  0  0  0
   10.0366  -15.5288   16.8912 C   0  0  0  0  0  0  0  0  0  0  0  0
   10.6251  -14.7930   18.0706 C   0  0  2  0  0  0  0  0  0  0  0  0
   11.9988  -15.3598   18.1990 N   0  0  0  0  0  0  0  0  0  0  0  0
    9.8807  -15.0878   19.3475 C   0  0  0  0  0  0  0  0  0  0  0  0
    9.8769  -16.3358   19.6288 O   0  0  0  0  0  0  0  0  0  0  0  0
    7.7990  -13.8705   12.1528 N   0  0  0  0  0  0  0  0  0  0  0  0
    9.2774  -14.0913   20.1115 C   0  0  0  0  0  0  0  0  0  0  0  0
    9.5249  -12.6468   19.8948 C   0  0  0  0  0  0  0  0  0  0  0  0
    8.1689  -12.0083   20.0914 C   0  0  0  0  0  0  0  0  0  0  0  0
    7.2789  -13.1307   20.5781 C   0  0  2  0  0  0  0  0  0  0  0  0
    8.3579  -14.0891   21.1774 C   0  0  0  0  0  0  0  0  0  0  0  0
    7.7385  -15.3080   21.6417 O   0  0  0  0  0  0  0  0  0  0  0  0
    7.2689  -15.4386   22.9779 O   0  0  0  0  0  0  0  0  0  0  0  0
  2  1  1  6
  2  3  1  0
  4  3  1  0
  4  8  1  0
  5  4  2  0
  6  7  2  0
  6  2  1  0
  9 10  1  0
 10 12  1  0
 11 10  2  0
 12 13  1  0
 13 14  1  0
 15 14  1  0
 16 15  1  6
 16 17  1  0
 17  6  1  0
 18 16  1  0
 19 18  2  0
 20 18  1  0
 20 21  1  0
 22 21  1  0
 23 22  1  0
 24 23  1  0
 24 20  1  0
 25 26  1  0
 24 25  1  6
 27 25  2  0
M  END
$$$$
