DRP.pdb
     RDKit          3D

 27 27  0  0  1  0  0  0  0  0999 V2000
   12.0097  -18.0919   21.1355 N   0  0  0  0  0  0  0  0  0  0  0  0
   12.8379  -17.7262   22.3304 C   0  0  1  0  0  0  0  0  0  0  0  0
   14.1461  -17.2696   21.8227 C   0  0  0  0  0  0  0  0  0  0  0  0
   14.9096  -18.2440   21.0165 C   0  0  0  0  0  0  0  0  0  0  0  0
   14.8111  -19.4889   21.1437 O   0  0  0  0  0  0  0  0  0  0  0  0
   12.0039  -16.7337   23.0324 C   0  0  0  0  0  0  0  0  0  0  0  0
   12.3810  -15.4932   22.9980 O   0  0  0  0  0  0  0  0  0  0  0  0
   15.8163  -17.8095   20.0316 O   0  0  0  0  0  0  0  0  0  0  0  0
    7.0256  -12.4035   20.4475 N   0  0  0  0  0  0  0  0  0  0  0  0
    7.8968  -13.5224   20.4552 C   0  0  0  0  0  0  0  0  0  0  0  0
    8.5336  -13.9128   19.4003 N   0  0  0  0  0  0  0  0  0  0  0  0
    8.1014  -14.2672   21.6510 N   0  0  0  0  0  0  0  0  0  0  0  0
    7.2663  -13.9838   22.8008 C   0  0  0  0  0  0  0  0  0  0  0  0
    7.7608  -14.8157   23.9919 C   0  0  0  0  0  0  0  0  0  0  0  0
    8.7754  -15.8345   23.4955 C   0  0  0  0  0  0  0  0  0  0  0  0
   10.0412  -15.8486   24.3176 C   0  0  2  0  0  0  0  0  0  0  0  0
   10.8242  -16.9855   23.7528 N   0  0  0  0  0  0  0  0  0  0  0  0
    9.7677  -16.1498   25.7688 C   0  0  0  0  0  0  0  0  0  0  0  0
    9.1456  -17.2568   25.9248 O   0  0  0  0  0  0  0  0  0  0  0  0
    9.2215  -14.6934   19.4055 N   0  0  0  0  0  0  0  0  0  0  0  0
   10.1616  -15.2988   26.7990 C   0  0  0  0  0  0  0  0  0  0  0  0
   10.6102  -13.9059   26.5684 C   0  0  0  0  0  0  0  0  0  0  0  0
   10.0056  -13.1304   27.7166 C   0  0  0  0  0  0  0  0  0  0  0  0
    9.3947  -14.1825   28.6157 C   0  0  2  0  0  0  0  0  0  0  0  0
   10.2496  -15.4223   28.1985 C   0  0  0  0  0  0  0  0  0  0  0  0
    9.7797  -16.6041   28.8824 O   0  0  0  0  0  0  0  0  0  0  0  0
    8.6097  -17.2914   28.4561 O   0  0  0  0  0  0  0  0  0  0  0  0
  2  1  1  6
  2  3  1  0
  4  3  1  0
  4  8  1  0
  5  4  2  0
  6  7  2  0
  6  2  1  0
  9 10  1  0
 10 12  1  0
 11 10  2  0
 12 13  1  0
 13 14  1  0
 15 14  1  0
 16 15  1  6
 16 17  1  0
 17  6  1  0
 18 16  1  0
 19 18  2  0
 20 18  1  0
 20 21  1  0
 22 21  1  0
 23 22  1  0
 24 23  1  0
 24 20  1  0
 25 26  1  0
 24 25  1  6
 27 25  2  0
M  END
$$$$
