DRP.pdb
     RDKit          3D

 27 27  0  0  1  0  0  0  0  0999 V2000
    6.6405  -19.3470   16.6122 N   0  0  0  0  0  0  0  0  0  0  0  0
    7.8909  -18.7686   17.2034 C   0  0  1  0  0  0  0  0  0  0  0  0
    8.4131  -17.7899   16.2303 C   0  0  0  0  0  0  0  0  0  0  0  0
    9.3299  -18.3193   15.1999 C   0  0  0  0  0  0  0  0  0  0  0  0
    9.7480  -19.5026   15.1752 O   0  0  0  0  0  0  0  0  0  0  0  0
    7.4423  -18.2483   18.5077 C   0  0  0  0  0  0  0  0  0  0  0  0
    6.4719  -17.3880   18.5151 O   0  0  0  0  0  0  0  0  0  0  0  0
    9.7957  -17.4945   14.1590 O   0  0  0  0  0  0  0  0  0  0  0  0
    5.1184  -22.4836   25.1832 N   0  0  0  0  0  0  0  0  0  0  0  0
    4.8037  -22.2372   23.8227 C   0  0  0  0  0  0  0  0  0  0  0  0
    4.1411  -23.0799   23.1005 N   0  0  0  0  0  0  0  0  0  0  0  0
    5.2170  -21.0278   23.1958 N   0  0  0  0  0  0  0  0  0  0  0  0
    6.0450  -20.1025   23.9429 C   0  0  0  0  0  0  0  0  0  0  0  0
    6.2434  -18.8288   23.1102 C   0  0  0  0  0  0  0  0  0  0  0  0
    6.8866  -19.2015   21.7831 C   0  0  0  0  0  0  0  0  0  0  0  0
    7.3551  -17.9984   21.0012 C   0  0  2  0  0  0  0  0  0  0  0  0
    7.9607  -18.5832   19.7699 N   0  0  0  0  0  0  0  0  0  0  0  0
    8.4318  -17.2364   21.7304 C   0  0  0  0  0  0  0  0  0  0  0  0
    9.3625  -18.0029   22.1583 O   0  0  0  0  0  0  0  0  0  0  0  0
    3.9607  -22.9428   22.0850 N   0  0  0  0  0  0  0  0  0  0  0  0
    8.3887  -15.8545   21.9010 C   0  0  0  0  0  0  0  0  0  0  0  0
    7.5722  -14.9608   21.0469 C   0  0  0  0  0  0  0  0  0  0  0  0
    7.0193  -13.9359   22.0106 C   0  0  0  0  0  0  0  0  0  0  0  0
    7.7088  -14.2283   23.3251 C   0  0  2  0  0  0  0  0  0  0  0  0
    8.9896  -14.9545   22.8012 C   0  0  0  0  0  0  0  0  0  0  0  0
    9.7880  -15.4184   23.9113 O   0  0  0  0  0  0  0  0  0  0  0  0
   10.9941  -14.7621   24.2824 O   0  0  0  0  0  0  0  0  0  0  0  0
  2  1  1  6
  2  3  1  0
  4  3  1  0
  4  8  1  0
  5  4  2  0
  6  7  2  0
  6  2  1  0
  9 10  1  0
 10 12  1  0
 11 10  2  0
 12 13  1  0
 13 14  1  0
 15 14  1  0
 16 15  1  1
 16 17  1  0
 17  6  1  0
 18 16  1  0
 19 18  2  0
 20 18  1  0
 20 21  1  0
 22 21  1  0
 23 22  1  0
 24 23  1  0
 24 20  1  0
 25 26  1  0
 24 25  1  1
 27 25  2  0
M  END
$$$$
