DRP.pdb
     RDKit          3D

 27 27  0  0  1  0  0  0  0  0999 V2000
   12.7520  -17.6922   24.4625 N   0  0  0  0  0  0  0  0  0  0  0  0
   11.3298  -18.0502   24.1517 C   0  0  1  0  0  0  0  0  0  0  0  0
   10.8980  -19.0218   25.1750 C   0  0  0  0  0  0  0  0  0  0  0  0
   11.5743  -18.9335   26.4855 C   0  0  0  0  0  0  0  0  0  0  0  0
   12.4797  -18.1061   26.7524 O   0  0  0  0  0  0  0  0  0  0  0  0
   10.6461  -16.7442   24.1315 C   0  0  0  0  0  0  0  0  0  0  0  0
   11.1979  -15.7620   24.7739 O   0  0  0  0  0  0  0  0  0  0  0  0
   11.2244  -19.8028   27.5356 O   0  0  0  0  0  0  0  0  0  0  0  0
    7.5331  -12.8054   17.8405 N   0  0  0  0  0  0  0  0  0  0  0  0
    8.7193  -12.9709   18.5998 C   0  0  0  0  0  0  0  0  0  0  0  0
    9.8949  -12.9507   18.0629 N   0  0  0  0  0  0  0  0  0  0  0  0
    8.6508  -13.1692   20.0078 N   0  0  0  0  0  0  0  0  0  0  0  0
    7.3559  -13.1237   20.6565 C   0  0  0  0  0  0  0  0  0  0  0  0
    7.5283  -13.4874   22.1374 C   0  0  0  0  0  0  0  0  0  0  0  0
    8.2296  -14.8336   22.2369 C   0  0  0  0  0  0  0  0  0  0  0  0
    8.8676  -15.0631   23.5855 C   0  0  2  0  0  0  0  0  0  0  0  0
    9.4370  -16.4380   23.4846 N   0  0  0  0  0  0  0  0  0  0  0  0
    7.8505  -15.0631   24.6978 C   0  0  0  0  0  0  0  0  0  0  0  0
    7.0463  -16.0550   24.6187 O   0  0  0  0  0  0  0  0  0  0  0  0
   10.7670  -13.1569   18.5916 N   0  0  0  0  0  0  0  0  0  0  0  0
    7.8177  -14.0805   25.6846 C   0  0  0  0  0  0  0  0  0  0  0  0
    8.7797  -12.9550   25.7353 C   0  0  0  0  0  0  0  0  0  0  0  0
    7.9383  -11.7712   26.1545 C   0  0  0  0  0  0  0  0  0  0  0  0
    6.5813  -12.3558   26.4791 C   0  0  2  0  0  0  0  0  0  0  0  0
    6.9923  -13.8295   26.7969 C   0  0  0  0  0  0  0  0  0  0  0  0
    5.8184  -14.6280   27.0604 O   0  0  0  0  0  0  0  0  0  0  0  0
    5.3038  -15.5322   26.0905 O   0  0  0  0  0  0  0  0  0  0  0  0
  2  1  1  1
  2  3  1  0
  4  3  1  0
  4  8  1  0
  5  4  2  0
  6  7  2  0
  6  2  1  0
  9 10  1  0
 10 12  1  0
 11 10  2  0
 12 13  1  0
 13 14  1  0
 15 14  1  0
 16 15  1  6
 16 17  1  0
 17  6  1  0
 18 16  1  0
 19 18  2  0
 20 18  1  0
 20 21  1  0
 22 21  1  0
 23 22  1  0
 24 23  1  0
 24 20  1  0
 25 26  1  0
 24 25  1  6
 27 25  2  0
M  END
$$$$
