DRP.pdb
     RDKit          3D

 27 27  0  0  1  0  0  0  0  0999 V2000
    8.9216  -16.0546   20.4685 N   0  0  0  0  0  0  0  0  0  0  0  0
    8.4381  -14.6492   20.6649 C   0  0  1  0  0  0  0  0  0  0  0  0
    7.5793  -14.3251   19.5095 C   0  0  0  0  0  0  0  0  0  0  0  0
    8.2587  -14.2117   18.2026 C   0  0  0  0  0  0  0  0  0  0  0  0
    9.2090  -14.9478   17.8407 O   0  0  0  0  0  0  0  0  0  0  0  0
    7.7955  -14.6920   21.9911 C   0  0  0  0  0  0  0  0  0  0  0  0
    7.1636  -13.6328   22.3920 O   0  0  0  0  0  0  0  0  0  0  0  0
    7.8602  -13.2394   17.2664 O   0  0  0  0  0  0  0  0  0  0  0  0
    6.4903  -21.8949   25.0147 N   0  0  0  0  0  0  0  0  0  0  0  0
    6.6373  -20.8447   25.9561 C   0  0  0  0  0  0  0  0  0  0  0  0
    6.9566  -21.0592   27.1901 N   0  0  0  0  0  0  0  0  0  0  0  0
    6.4328  -19.4919   25.5632 N   0  0  0  0  0  0  0  0  0  0  0  0
    6.0140  -19.2161   24.2037 C   0  0  0  0  0  0  0  0  0  0  0  0
    5.8680  -17.6987   24.0263 C   0  0  0  0  0  0  0  0  0  0  0  0
    7.0119  -17.0045   24.7497 C   0  0  0  0  0  0  0  0  0  0  0  0
    7.2413  -15.5938   24.2642 C   0  0  2  0  0  0  0  0  0  0  0  0
    7.7936  -15.7717   22.8901 N   0  0  0  0  0  0  0  0  0  0  0  0
    8.2765  -14.8745   25.0904 C   0  0  0  0  0  0  0  0  0  0  0  0
    9.3890  -15.5051   25.1289 O   0  0  0  0  0  0  0  0  0  0  0  0
    7.1190  -20.2959   27.8783 N   0  0  0  0  0  0  0  0  0  0  0  0
    8.0191  -13.6620   25.7261 C   0  0  0  0  0  0  0  0  0  0  0  0
    7.1335  -12.6219   25.1527 C   0  0  0  0  0  0  0  0  0  0  0  0
    6.3770  -12.0849   26.3461 C   0  0  0  0  0  0  0  0  0  0  0  0
    7.0202  -12.7490   27.5436 C   0  0  2  0  0  0  0  0  0  0  0  0
    8.4240  -13.0835   26.9439 C   0  0  0  0  0  0  0  0  0  0  0  0
    9.2126  -13.8201   27.9033 O   0  0  0  0  0  0  0  0  0  0  0  0
   10.0087  -13.1542   28.8759 O   0  0  0  0  0  0  0  0  0  0  0  0
  2  1  1  6
  2  3  1  0
  4  3  1  0
  4  8  1  0
  5  4  2  0
  6  7  2  0
  6  2  1  0
  9 10  1  0
 10 12  1  0
 11 10  2  0
 12 13  1  0
 13 14  1  0
 15 14  1  0
 16 15  1  1
 16 17  1  0
 17  6  1  0
 18 16  1  0
 19 18  2  0
 20 18  1  0
 20 21  1  0
 22 21  1  0
 23 22  1  0
 24 23  1  0
 24 20  1  0
 25 26  1  0
 24 25  1  1
 27 25  2  0
M  END
$$$$
