DRP.pdb
     RDKit          3D

 27 27  0  0  1  0  0  0  0  0999 V2000
    9.5242  -16.6795   20.9560 N   0  0  0  0  0  0  0  0  0  0  0  0
    8.5643  -15.5513   20.7253 C   0  0  1  0  0  0  0  0  0  0  0  0
    7.7415  -15.9196   19.5570 C   0  0  0  0  0  0  0  0  0  0  0  0
    8.4568  -16.0562   18.2717 C   0  0  0  0  0  0  0  0  0  0  0  0
    9.7063  -16.0195   18.1578 O   0  0  0  0  0  0  0  0  0  0  0  0
    7.8740  -15.4205   22.0213 C   0  0  0  0  0  0  0  0  0  0  0  0
    6.8720  -14.6004   22.0935 O   0  0  0  0  0  0  0  0  0  0  0  0
    7.7480  -16.2408   17.0699 O   0  0  0  0  0  0  0  0  0  0  0  0
    5.0945  -22.7496   23.2832 N   0  0  0  0  0  0  0  0  0  0  0  0
    5.7516  -21.8317   24.1414 C   0  0  0  0  0  0  0  0  0  0  0  0
    6.3090  -22.1953   25.2494 N   0  0  0  0  0  0  0  0  0  0  0  0
    5.8189  -20.4508   23.8023 N   0  0  0  0  0  0  0  0  0  0  0  0
    6.4964  -19.5429   24.7059 C   0  0  0  0  0  0  0  0  0  0  0  0
    6.5259  -18.1439   24.0757 C   0  0  0  0  0  0  0  0  0  0  0  0
    7.1718  -17.1749   25.0544 C   0  0  0  0  0  0  0  0  0  0  0  0
    7.4124  -15.8106   24.4549 C   0  0  2  0  0  0  0  0  0  0  0  0
    8.1881  -16.0952   23.2131 N   0  0  0  0  0  0  0  0  0  0  0  0
    8.2656  -14.9454   25.3464 C   0  0  0  0  0  0  0  0  0  0  0  0
    9.4001  -15.4804   25.5985 O   0  0  0  0  0  0  0  0  0  0  0  0
    6.8103  -21.5358   25.8791 N   0  0  0  0  0  0  0  0  0  0  0  0
    7.8380  -13.7085   25.8238 C   0  0  0  0  0  0  0  0  0  0  0  0
    6.9059  -12.8330   25.0760 C   0  0  0  0  0  0  0  0  0  0  0  0
    6.0028  -12.2603   26.1444 C   0  0  0  0  0  0  0  0  0  0  0  0
    6.6053  -12.7261   27.4516 C   0  0  2  0  0  0  0  0  0  0  0  0
    8.0804  -12.9687   26.9966 C   0  0  0  0  0  0  0  0  0  0  0  0
    8.8542  -13.5150   28.0865 O   0  0  0  0  0  0  0  0  0  0  0  0
    8.6117  -14.8252   28.5842 O   0  0  0  0  0  0  0  0  0  0  0  0
  2  1  1  1
  2  3  1  0
  4  3  1  0
  4  8  1  0
  5  4  2  0
  6  7  2  0
  6  2  1  0
  9 10  1  0
 10 12  1  0
 11 10  2  0
 12 13  1  0
 13 14  1  0
 15 14  1  0
 16 15  1  1
 16 17  1  0
 17  6  1  0
 18 16  1  0
 19 18  2  0
 20 18  1  0
 20 21  1  0
 22 21  1  0
 23 22  1  0
 24 23  1  0
 24 20  1  0
 25 26  1  0
 24 25  1  1
 27 25  2  0
M  END
$$$$
