TGI.pdb
     RDKit          3D

 20 19  0  0  1  0  0  0  0  0999 V2000
   18.9506  -14.9394  -15.0034 C   0  0  0  0  0  0  0  0  0  0  0  0
   19.6583  -16.0872  -15.6811 C   0  0  1  0  0  0  0  0  0  0  0  0
   19.0002  -17.2838  -15.5092 O   0  0  0  0  0  0  0  0  0  0  0  0
   19.9476  -15.8028  -17.1374 C   0  0  2  0  0  0  0  0  0  0  0  0
   20.4648  -17.0034  -17.7256 N   0  0  0  0  0  0  0  0  0  0  0  0
   20.8806  -14.6759  -17.3346 C   0  0  0  0  0  0  0  0  0  0  0  0
   22.1134  -14.8995  -17.2682 O   0  0  0  0  0  0  0  0  0  0  0  0
   20.4830  -13.3381  -17.5978 N   0  0  0  0  0  0  0  0  0  0  0  0
   21.4063  -12.2756  -17.8388 C   0  0  0  0  0  0  0  0  0  0  0  0
   21.7987  -11.5717  -16.5733 C   0  0  0  0  0  0  0  0  0  0  0  0
   21.2050  -11.8173  -15.5093 O   0  0  0  0  0  0  0  0  0  0  0  0
   26.9083  -11.0176  -15.7651 C   0  0  0  0  0  0  0  0  0  0  0  0
   25.4058  -11.1859  -15.5447 C   0  0  0  0  0  0  0  0  0  0  0  0
   24.7773   -9.8205  -15.4268 C   0  0  2  0  0  0  0  0  0  0  0  0
   25.3847   -9.1413  -14.2204 C   0  0  0  0  0  0  0  0  0  0  0  0
   23.2772   -9.9491  -15.3093 C   0  0  2  0  0  0  0  0  0  0  0  0
   22.8470  -10.6144  -16.5489 N   0  0  0  0  0  0  0  0  0  0  0  0
   22.5593   -8.6846  -15.1168 C   0  0  0  0  0  0  0  0  0  0  0  0
   22.3620   -8.2832  -13.9175 O   0  0  0  0  0  0  0  0  0  0  0  0
   22.0611   -7.8564  -16.0991 O   0  0  0  0  0  0  0  0  0  0  0  0
  2  1  1  6
  3  2  1  0
  4  2  1  0
  4  5  1  1
  6  7  2  0
  6  4  1  0
  8  6  1  0
  9  8  1  0
 10  9  1  0
 10 11  2  0
 12 13  1  0
 13 14  1  0
 14 16  1  0
 14 15  1  1
 16 17  1  6
 16 18  1  0
 17 10  1  0
 18 19  2  0
 18 20  1  0
M  END
$$$$
