TGI.pdb
     RDKit          3D

 20 19  0  0  1  0  0  0  0  0999 V2000
   18.1561  -16.6891  -17.5780 C   0  0  0  0  0  0  0  0  0  0  0  0
   19.0435  -15.4790  -17.4173 C   0  0  1  0  0  0  0  0  0  0  0  0
   19.9477  -15.6246  -16.3899 O   0  0  0  0  0  0  0  0  0  0  0  0
   19.7155  -15.0848  -18.7130 C   0  0  2  0  0  0  0  0  0  0  0  0
   20.4301  -16.2269  -19.2028 N   0  0  0  0  0  0  0  0  0  0  0  0
   20.6146  -13.9228  -18.5704 C   0  0  0  0  0  0  0  0  0  0  0  0
   21.8501  -14.1015  -18.6966 O   0  0  0  0  0  0  0  0  0  0  0  0
   20.1812  -12.5981  -18.2973 N   0  0  0  0  0  0  0  0  0  0  0  0
   21.0656  -11.4790  -18.2288 C   0  0  0  0  0  0  0  0  0  0  0  0
   21.4663  -11.1625  -16.8181 C   0  0  0  0  0  0  0  0  0  0  0  0
   21.0428  -11.8538  -15.8759 O   0  0  0  0  0  0  0  0  0  0  0  0
   26.2742  -11.1380  -15.6034 C   0  0  0  0  0  0  0  0  0  0  0  0
   24.7481  -11.1623  -15.5337 C   0  0  0  0  0  0  0  0  0  0  0  0
   24.2575   -9.7844  -15.1678 C   0  0  2  0  0  0  0  0  0  0  0  0
   24.8543   -9.4294  -13.8248 C   0  0  0  0  0  0  0  0  0  0  0  0
   22.7478   -9.7622  -15.1408 C   0  0  2  0  0  0  0  0  0  0  0  0
   22.3309  -10.0776  -16.5159 N   0  0  0  0  0  0  0  0  0  0  0  0
   22.1538   -8.4992  -14.6897 C   0  0  0  0  0  0  0  0  0  0  0  0
   22.0710   -7.5400  -15.5333 O   0  0  0  0  0  0  0  0  0  0  0  0
   21.6606   -8.2169  -13.4342 O   0  0  0  0  0  0  0  0  0  0  0  0
  2  1  1  6
  3  2  1  0
  4  2  1  0
  4  5  1  1
  6  7  2  0
  6  4  1  0
  8  6  1  0
  9  8  1  0
 10  9  1  0
 10 11  2  0
 12 13  1  0
 13 14  1  0
 14 16  1  0
 14 15  1  1
 16 17  1  6
 16 18  1  0
 17 10  1  0
 18 19  2  0
 18 20  1  0
M  END
$$$$
