TGI.pdb
     RDKit          3D

 20 19  0  0  1  0  0  0  0  0999 V2000
   27.9247  -18.2532  -20.4095 C   0  0  0  0  0  0  0  0  0  0  0  0
   28.3621  -18.6698  -19.0265 C   0  0  1  0  0  0  0  0  0  0  0  0
   29.5430  -19.3767  -19.0407 O   0  0  0  0  0  0  0  0  0  0  0  0
   28.4101  -17.5040  -18.0650 C   0  0  2  0  0  0  0  0  0  0  0  0
   29.7315  -17.4440  -17.5126 N   0  0  0  0  0  0  0  0  0  0  0  0
   27.3961  -17.5913  -16.9958 C   0  0  0  0  0  0  0  0  0  0  0  0
   26.1855  -17.6475  -17.3206 O   0  0  0  0  0  0  0  0  0  0  0  0
   27.6910  -17.6172  -15.6067 N   0  0  0  0  0  0  0  0  0  0  0  0
   26.6895  -17.5926  -14.5890 C   0  0  0  0  0  0  0  0  0  0  0  0
   26.1937  -18.9681  -14.2527 C   0  0  0  0  0  0  0  0  0  0  0  0
   26.6044  -19.9551  -14.8867 O   0  0  0  0  0  0  0  0  0  0  0  0
   26.8407  -20.2905   -9.5269 C   0  0  0  0  0  0  0  0  0  0  0  0
   26.6116  -20.3888  -11.0343 C   0  0  0  0  0  0  0  0  0  0  0  0
   25.1362  -20.5653  -11.2899 C   0  0  2  0  0  0  0  0  0  0  0  0
   24.7181  -21.8757  -10.6624 C   0  0  0  0  0  0  0  0  0  0  0  0
   24.8602  -20.5343  -12.7744 C   0  0  2  0  0  0  0  0  0  0  0  0
   25.2514  -19.1857  -13.2131 N   0  0  0  0  0  0  0  0  0  0  0  0
   23.4741  -20.8276  -13.1540 C   0  0  0  0  0  0  0  0  0  0  0  0
   23.1962  -22.0162  -13.5394 O   0  0  0  0  0  0  0  0  0  0  0  0
   22.4090  -19.9533  -13.1428 O   0  0  0  0  0  0  0  0  0  0  0  0
  2  1  1  6
  3  2  1  0
  4  2  1  0
  4  5  1  1
  6  7  2  0
  6  4  1  0
  8  6  1  0
  9  8  1  0
 10  9  1  0
 10 11  2  0
 12 13  1  0
 13 14  1  0
 14 16  1  0
 14 15  1  6
 16 17  1  1
 16 18  1  0
 17 10  1  0
 18 19  2  0
 18 20  1  0
M  END
$$$$
