TGI.pdb
     RDKit          3D

 20 19  0  0  1  0  0  0  0  0999 V2000
   17.7306  -13.3996  -18.4652 C   0  0  0  0  0  0  0  0  0  0  0  0
   17.6015  -12.1989  -17.5601 C   0  0  1  0  0  0  0  0  0  0  0  0
   16.2970  -11.9558  -17.1944 O   0  0  0  0  0  0  0  0  0  0  0  0
   18.5204  -12.2824  -16.3625 C   0  0  2  0  0  0  0  0  0  0  0  0
   18.1437  -13.4357  -15.5989 N   0  0  0  0  0  0  0  0  0  0  0  0
   18.4957  -11.0663  -15.5260 C   0  0  0  0  0  0  0  0  0  0  0  0
   18.0523  -11.1525  -14.3554 O   0  0  0  0  0  0  0  0  0  0  0  0
   18.9425   -9.7871  -15.9517 N   0  0  0  0  0  0  0  0  0  0  0  0
   18.9467   -8.6343  -15.1089 C   0  0  0  0  0  0  0  0  0  0  0  0
   20.3362   -8.2316  -14.7113 C   0  0  0  0  0  0  0  0  0  0  0  0
   21.2784   -9.0342  -14.8255 O   0  0  0  0  0  0  0  0  0  0  0  0
   22.5371   -5.0692  -17.5482 C   0  0  0  0  0  0  0  0  0  0  0  0
   21.8533   -5.2398  -16.1925 C   0  0  0  0  0  0  0  0  0  0  0  0
   22.5499   -6.3405  -15.4333 C   0  0  2  0  0  0  0  0  0  0  0  0
   22.3588   -7.6228  -16.2110 C   0  0  0  0  0  0  0  0  0  0  0  0
   21.9915   -6.4380  -14.0336 C   0  0  2  0  0  0  0  0  0  0  0  0
   20.6177   -6.9379  -14.1984 N   0  0  0  0  0  0  0  0  0  0  0  0
   22.0054   -5.1850  -13.2713 C   0  0  0  0  0  0  0  0  0  0  0  0
   20.9166   -4.5160  -13.1967 O   0  0  0  0  0  0  0  0  0  0  0  0
   23.0783   -4.6300  -12.6081 O   0  0  0  0  0  0  0  0  0  0  0  0
  2  1  1  1
  3  2  1  0
  4  2  1  0
  4  5  1  1
  6  7  2  0
  6  4  1  0
  8  6  1  0
  9  8  1  0
 10  9  1  0
 10 11  2  0
 12 13  1  0
 13 14  1  0
 14 16  1  0
 14 15  1  6
 16 17  1  6
 16 18  1  0
 17 10  1  0
 18 19  2  0
 18 20  1  0
M  END
$$$$
