TGI.pdb
     RDKit          3D

 20 19  0  0  1  0  0  0  0  0999 V2000
   13.3954  -12.7044  -18.7231 C   0  0  0  0  0  0  0  0  0  0  0  0
   14.7965  -12.1440  -18.7463 C   0  0  1  0  0  0  0  0  0  0  0  0
   14.9945  -11.2704  -19.7913 O   0  0  0  0  0  0  0  0  0  0  0  0
   15.1945  -11.5402  -17.4187 C   0  0  2  0  0  0  0  0  0  0  0  0
   14.3100  -10.4441  -17.1515 N   0  0  0  0  0  0  0  0  0  0  0  0
   16.6033  -11.1012  -17.3796 C   0  0  0  0  0  0  0  0  0  0  0  0
   17.5005  -11.9729  -17.2816 O   0  0  0  0  0  0  0  0  0  0  0  0
   17.0269   -9.7472  -17.4457 N   0  0  0  0  0  0  0  0  0  0  0  0
   18.3974   -9.3544  -17.5281 C   0  0  0  0  0  0  0  0  0  0  0  0
   19.0629   -9.3446  -16.1834 C   0  0  0  0  0  0  0  0  0  0  0  0
   18.4347   -9.6967  -15.1704 O   0  0  0  0  0  0  0  0  0  0  0  0
   23.2245  -11.9156  -15.1599 C   0  0  0  0  0  0  0  0  0  0  0  0
   21.9386  -11.0979  -15.0496 C   0  0  0  0  0  0  0  0  0  0  0  0
   22.3008   -9.6584  -14.7851 C   0  0  2  0  0  0  0  0  0  0  0  0
   23.0968   -9.6170  -13.5005 C   0  0  0  0  0  0  0  0  0  0  0  0
   21.0500   -8.8160  -14.7041 C   0  0  2  0  0  0  0  0  0  0  0  0
   20.4142   -8.9385  -16.0251 N   0  0  0  0  0  0  0  0  0  0  0  0
   21.2716   -7.4081  -14.3576 C   0  0  0  0  0  0  0  0  0  0  0  0
   21.2609   -7.0863  -13.1187 O   0  0  0  0  0  0  0  0  0  0  0  0
   21.4971   -6.3654  -15.2298 O   0  0  0  0  0  0  0  0  0  0  0  0
  2  1  1  1
  3  2  1  0
  4  2  1  0
  4  5  1  6
  6  7  2  0
  6  4  1  0
  8  6  1  0
  9  8  1  0
 10  9  1  0
 10 11  2  0
 12 13  1  0
 13 14  1  0
 14 16  1  0
 14 15  1  1
 16 17  1  6
 16 18  1  0
 17 10  1  0
 18 19  2  0
 18 20  1  0
M  END
$$$$
