TGI.pdb
     RDKit          3D

 20 19  0  0  1  0  0  0  0  0999 V2000
   19.3532  -18.1064  -19.0429 C   0  0  0  0  0  0  0  0  0  0  0  0
   20.3244  -18.9574  -18.2618 C   0  0  1  0  0  0  0  0  0  0  0  0
   21.3922  -18.2313  -17.7853 O   0  0  0  0  0  0  0  0  0  0  0  0
   19.6428  -19.7482  -17.1683 C   0  0  2  0  0  0  0  0  0  0  0  0
   19.0722  -18.8152  -16.2415 N   0  0  0  0  0  0  0  0  0  0  0  0
   20.5501  -20.6868  -16.4791 C   0  0  0  0  0  0  0  0  0  0  0  0
   21.0208  -21.6517  -17.1283 O   0  0  0  0  0  0  0  0  0  0  0  0
   20.9365  -20.5790  -15.1167 N   0  0  0  0  0  0  0  0  0  0  0  0
   21.9317  -21.4064  -14.5130 C   0  0  0  0  0  0  0  0  0  0  0  0
   23.2462  -20.6969  -14.3738 C   0  0  0  0  0  0  0  0  0  0  0  0
   23.4088  -19.5731  -14.8791 O   0  0  0  0  0  0  0  0  0  0  0  0
   25.5746  -21.3896   -9.7478 C   0  0  0  0  0  0  0  0  0  0  0  0
   25.0743  -20.8058  -11.0682 C   0  0  0  0  0  0  0  0  0  0  0  0
   26.1192  -21.0415  -12.1293 C   0  0  2  0  0  0  0  0  0  0  0  0
   27.3708  -20.3053  -11.7085 C   0  0  0  0  0  0  0  0  0  0  0  0
   25.6098  -20.5723  -13.4713 C   0  0  2  0  0  0  0  0  0  0  0  0
   24.3340  -21.2774  -13.6697 N   0  0  0  0  0  0  0  0  0  0  0  0
   26.5197  -20.8082  -14.5973 C   0  0  0  0  0  0  0  0  0  0  0  0
   27.1893  -19.8139  -15.0461 O   0  0  0  0  0  0  0  0  0  0  0  0
   26.7455  -22.0039  -15.2441 O   0  0  0  0  0  0  0  0  0  0  0  0
  2  1  1  1
  3  2  1  0
  4  2  1  0
  4  5  1  1
  6  7  2  0
  6  4  1  0
  8  6  1  0
  9  8  1  0
 10  9  1  0
 10 11  2  0
 12 13  1  0
 13 14  1  0
 14 16  1  0
 14 15  1  1
 16 17  1  6
 16 18  1  0
 17 10  1  0
 18 19  2  0
 18 20  1  0
M  END
$$$$
