TGI.pdb
     RDKit          3D

 20 19  0  0  1  0  0  0  0  0999 V2000
   29.0170  -16.0311  -16.9517 C   0  0  0  0  0  0  0  0  0  0  0  0
   28.0671  -16.7184  -17.9019 C   0  0  1  0  0  0  0  0  0  0  0  0
   28.5797  -16.8176  -19.1754 O   0  0  0  0  0  0  0  0  0  0  0  0
   27.5954  -18.0544  -17.3744 C   0  0  2  0  0  0  0  0  0  0  0  0
   26.7842  -18.6650  -18.3865 N   0  0  0  0  0  0  0  0  0  0  0  0
   26.8564  -17.9476  -16.1010 C   0  0  0  0  0  0  0  0  0  0  0  0
   25.6304  -17.6833  -16.1395 O   0  0  0  0  0  0  0  0  0  0  0  0
   27.4361  -18.1239  -14.8165 N   0  0  0  0  0  0  0  0  0  0  0  0
   26.7233  -17.9179  -13.5963 C   0  0  0  0  0  0  0  0  0  0  0  0
   26.0752  -19.1776  -13.1024 C   0  0  0  0  0  0  0  0  0  0  0  0
   26.1763  -20.2316  -13.7534 O   0  0  0  0  0  0  0  0  0  0  0  0
   26.8330  -20.3041   -8.1951 C   0  0  0  0  0  0  0  0  0  0  0  0
   26.5424  -20.4491   -9.6881 C   0  0  0  0  0  0  0  0  0  0  0  0
   25.0488  -20.4496   -9.8935 C   0  0  2  0  0  0  0  0  0  0  0  0
   24.4932  -21.6718   -9.1983 C   0  0  0  0  0  0  0  0  0  0  0  0
   24.7288  -20.4426  -11.3693 C   0  0  2  0  0  0  0  0  0  0  0  0
   25.3347  -19.2078  -11.8913 N   0  0  0  0  0  0  0  0  0  0  0  0
   23.2999  -20.5033  -11.6947 C   0  0  0  0  0  0  0  0  0  0  0  0
   22.5990  -19.4467  -11.5187 O   0  0  0  0  0  0  0  0  0  0  0  0
   22.6060  -21.5900  -12.1810 O   0  0  0  0  0  0  0  0  0  0  0  0
  2  1  1  1
  3  2  1  0
  4  2  1  0
  4  5  1  6
  6  7  2  0
  6  4  1  0
  8  6  1  0
  9  8  1  0
 10  9  1  0
 10 11  2  0
 12 13  1  0
 13 14  1  0
 14 16  1  0
 14 15  1  6
 16 17  1  1
 16 18  1  0
 17 10  1  0
 18 19  2  0
 18 20  1  0
M  END
$$$$
