TGI.pdb
     RDKit          3D

 20 19  0  0  1  0  0  0  0  0999 V2000
   19.9165  -12.8910  -18.2191 C   0  0  0  0  0  0  0  0  0  0  0  0
   19.0880  -11.7135  -17.7667 C   0  0  1  0  0  0  0  0  0  0  0  0
   17.7447  -11.8948  -18.0056 O   0  0  0  0  0  0  0  0  0  0  0  0
   19.3629  -11.3380  -16.3283 C   0  0  2  0  0  0  0  0  0  0  0  0
   18.3479  -10.4146  -15.9134 N   0  0  0  0  0  0  0  0  0  0  0  0
   20.7089  -10.7671  -16.1245 C   0  0  0  0  0  0  0  0  0  0  0  0
   21.6800  -11.5514  -15.9978 O   0  0  0  0  0  0  0  0  0  0  0  0
   20.9925   -9.3770  -16.0600 N   0  0  0  0  0  0  0  0  0  0  0  0
   22.3007   -8.8502  -15.8347 C   0  0  0  0  0  0  0  0  0  0  0  0
   22.3156   -7.3502  -15.8554 C   0  0  0  0  0  0  0  0  0  0  0  0
   22.2128   -6.7369  -16.9315 O   0  0  0  0  0  0  0  0  0  0  0  0
   17.9843   -4.7494  -14.3882 C   0  0  0  0  0  0  0  0  0  0  0  0
   19.4659   -4.3874  -14.2970 C   0  0  0  0  0  0  0  0  0  0  0  0
   20.2831   -5.6430  -14.4670 C   0  0  2  0  0  0  0  0  0  0  0  0
   19.9157   -6.5824  -13.3408 C   0  0  0  0  0  0  0  0  0  0  0  0
   21.7554   -5.3068  -14.4670 C   0  0  2  0  0  0  0  0  0  0  0  0
   22.4460   -6.5910  -14.6626 N   0  0  0  0  0  0  0  0  0  0  0  0
   22.2376   -4.6313  -13.2577 C   0  0  0  0  0  0  0  0  0  0  0  0
   22.6187   -5.3585  -12.2756 O   0  0  0  0  0  0  0  0  0  0  0  0
   22.3327   -3.2724  -13.0494 O   0  0  0  0  0  0  0  0  0  0  0  0
  2  1  1  1
  3  2  1  0
  4  2  1  0
  4  5  1  6
  6  7  2  0
  6  4  1  0
  8  6  1  0
  9  8  1  0
 10  9  1  0
 10 11  2  0
 12 13  1  0
 13 14  1  0
 14 16  1  0
 14 15  1  1
 16 17  1  1
 16 18  1  0
 17 10  1  0
 18 19  2  0
 18 20  1  0
M  END
$$$$
