TGI.pdb
     RDKit          3D

 20 19  0  0  1  0  0  0  0  0999 V2000
   15.9417  -16.1888  -18.5010 C   0  0  0  0  0  0  0  0  0  0  0  0
   16.7970  -14.9532  -18.6404 C   0  0  1  0  0  0  0  0  0  0  0  0
   16.2729  -14.0513  -19.5384 O   0  0  0  0  0  0  0  0  0  0  0  0
   17.1011  -14.3128  -17.3051 C   0  0  2  0  0  0  0  0  0  0  0  0
   15.8596  -13.8863  -16.7291 N   0  0  0  0  0  0  0  0  0  0  0  0
   18.0499  -13.1863  -17.4042 C   0  0  0  0  0  0  0  0  0  0  0  0
   19.2627  -13.4394  -17.6021 O   0  0  0  0  0  0  0  0  0  0  0  0
   17.6889  -11.8173  -17.2910 N   0  0  0  0  0  0  0  0  0  0  0  0
   18.6079  -10.7421  -17.4883 C   0  0  0  0  0  0  0  0  0  0  0  0
   19.1597  -10.2271  -16.1917 C   0  0  0  0  0  0  0  0  0  0  0  0
   18.5947  -10.4978  -15.1182 O   0  0  0  0  0  0  0  0  0  0  0  0
   23.7024  -11.4279  -14.6826 C   0  0  0  0  0  0  0  0  0  0  0  0
   22.2638  -10.9233  -14.7842 C   0  0  0  0  0  0  0  0  0  0  0  0
   22.2788   -9.4157  -14.8001 C   0  0  2  0  0  0  0  0  0  0  0  0
   22.9805   -8.9533  -13.5433 C   0  0  0  0  0  0  0  0  0  0  0  0
   20.8680   -8.8845  -14.8896 C   0  0  2  0  0  0  0  0  0  0  0  0
   20.3299   -9.4241  -16.1480 N   0  0  0  0  0  0  0  0  0  0  0  0
   20.7521   -7.4228  -14.8541 C   0  0  0  0  0  0  0  0  0  0  0  0
   21.0219   -6.7733  -15.9237 O   0  0  0  0  0  0  0  0  0  0  0  0
   20.3761   -6.6469  -13.7791 O   0  0  0  0  0  0  0  0  0  0  0  0
  2  1  1  1
  3  2  1  0
  4  2  1  0
  4  5  1  6
  6  7  2  0
  6  4  1  0
  8  6  1  0
  9  8  1  0
 10  9  1  0
 10 11  2  0
 12 13  1  0
 13 14  1  0
 14 16  1  0
 14 15  1  1
 16 17  1  6
 16 18  1  0
 17 10  1  0
 18 19  2  0
 18 20  1  0
M  END
$$$$
