TGI.pdb
     RDKit          3D

 20 19  0  0  1  0  0  0  0  0999 V2000
   16.5775  -13.3399  -17.1616 C   0  0  0  0  0  0  0  0  0  0  0  0
   17.5285  -13.8285  -18.2268 C   0  0  1  0  0  0  0  0  0  0  0  0
   17.8661  -12.8392  -19.1221 O   0  0  0  0  0  0  0  0  0  0  0  0
   18.7477  -14.5036  -17.6408 C   0  0  2  0  0  0  0  0  0  0  0  0
   19.6883  -14.7110  -18.7025 N   0  0  0  0  0  0  0  0  0  0  0  0
   18.4355  -15.7749  -16.9583 C   0  0  0  0  0  0  0  0  0  0  0  0
   17.9801  -16.7251  -17.6395 O   0  0  0  0  0  0  0  0  0  0  0  0
   18.6142  -16.0077  -15.5688 N   0  0  0  0  0  0  0  0  0  0  0  0
   18.1580  -17.1859  -14.9031 C   0  0  0  0  0  0  0  0  0  0  0  0
   16.6660  -17.2030  -14.7464 C   0  0  0  0  0  0  0  0  0  0  0  0
   15.9850  -16.2335  -15.1219 O   0  0  0  0  0  0  0  0  0  0  0  0
   12.2870  -21.3048  -14.9864 C   0  0  0  0  0  0  0  0  0  0  0  0
   12.6457  -19.9270  -14.4320 C   0  0  0  0  0  0  0  0  0  0  0  0
   14.1452  -19.7712  -14.4534 C   0  0  2  0  0  0  0  0  0  0  0  0
   14.7248  -20.8062  -13.5162 C   0  0  0  0  0  0  0  0  0  0  0  0
   14.5258  -18.3662  -14.0512 C   0  0  2  0  0  0  0  0  0  0  0  0
   15.9911  -18.3122  -14.1717 N   0  0  0  0  0  0  0  0  0  0  0  0
   14.0954  -17.9674  -12.7070 C   0  0  0  0  0  0  0  0  0  0  0  0
   14.9147  -18.1402  -11.7387 O   0  0  0  0  0  0  0  0  0  0  0  0
   12.8838  -17.4135  -12.3548 O   0  0  0  0  0  0  0  0  0  0  0  0
  2  1  1  1
  3  2  1  0
  4  2  1  0
  4  5  1  6
  6  7  2  0
  6  4  1  0
  8  6  1  0
  9  8  1  0
 10  9  1  0
 10 11  2  0
 12 13  1  0
 13 14  1  0
 14 16  1  0
 14 15  1  1
 16 17  1  1
 16 18  1  0
 17 10  1  0
 18 19  2  0
 18 20  1  0
M  END
$$$$
