TGI.pdb
     RDKit          3D

 20 19  0  0  1  0  0  0  0  0999 V2000
   26.5364  -19.4031  -18.7369 C   0  0  0  0  0  0  0  0  0  0  0  0
   26.5550  -20.8199  -18.2172 C   0  0  1  0  0  0  0  0  0  0  0  0
   26.6890  -21.7467  -19.2259 O   0  0  0  0  0  0  0  0  0  0  0  0
   27.5823  -21.0166  -17.1257 C   0  0  2  0  0  0  0  0  0  0  0  0
   27.5651  -22.4000  -16.7501 N   0  0  0  0  0  0  0  0  0  0  0  0
   27.3559  -20.1498  -15.9524 C   0  0  0  0  0  0  0  0  0  0  0  0
   27.3390  -18.9065  -16.1198 O   0  0  0  0  0  0  0  0  0  0  0  0
   27.1527  -20.6233  -14.6289 N   0  0  0  0  0  0  0  0  0  0  0  0
   26.8504  -19.7690  -13.5252 C   0  0  0  0  0  0  0  0  0  0  0  0
   26.5853  -20.5442  -12.2683 C   0  0  0  0  0  0  0  0  0  0  0  0
   26.3458  -21.7626  -12.3219 O   0  0  0  0  0  0  0  0  0  0  0  0
   28.0937  -20.6555   -6.6683 C   0  0  0  0  0  0  0  0  0  0  0  0
   26.7187  -20.5347   -7.3235 C   0  0  0  0  0  0  0  0  0  0  0  0
   26.8708  -19.8177   -8.6411 C   0  0  2  0  0  0  0  0  0  0  0  0
   26.1827  -18.4776   -8.5133 C   0  0  0  0  0  0  0  0  0  0  0  0
   26.2848  -20.6517   -9.7554 C   0  0  2  0  0  0  0  0  0  0  0  0
   26.5988  -19.9206  -10.9928 N   0  0  0  0  0  0  0  0  0  0  0  0
   24.8443  -20.9063   -9.6482 C   0  0  0  0  0  0  0  0  0  0  0  0
   24.0434  -20.0405  -10.1456 O   0  0  0  0  0  0  0  0  0  0  0  0
   24.2364  -21.9953   -9.0622 O   0  0  0  0  0  0  0  0  0  0  0  0
  2  1  1  6
  3  2  1  0
  4  2  1  0
  4  5  1  1
  6  7  2  0
  6  4  1  0
  8  6  1  0
  9  8  1  0
 10  9  1  0
 10 11  2  0
 12 13  1  0
 13 14  1  0
 14 16  1  0
 14 15  1  1
 16 17  1  6
 16 18  1  0
 17 10  1  0
 18 19  2  0
 18 20  1  0
M  END
$$$$
