TGI.pdb
     RDKit          3D

 20 19  0  0  1  0  0  0  0  0999 V2000
   26.1133  -20.6839  -17.6154 C   0  0  0  0  0  0  0  0  0  0  0  0
   25.9411  -19.9717  -16.2961 C   0  0  1  0  0  0  0  0  0  0  0  0
   24.7644  -20.3101  -15.6672 O   0  0  0  0  0  0  0  0  0  0  0  0
   27.1389  -20.1453  -15.3902 C   0  0  2  0  0  0  0  0  0  0  0  0
   27.3175  -21.5492  -15.1617 N   0  0  0  0  0  0  0  0  0  0  0  0
   27.0113  -19.4163  -14.1129 C   0  0  0  0  0  0  0  0  0  0  0  0
   26.9867  -18.1621  -14.1382 O   0  0  0  0  0  0  0  0  0  0  0  0
   26.9126  -20.0357  -12.8387 N   0  0  0  0  0  0  0  0  0  0  0  0
   26.7589  -19.3080  -11.6196 C   0  0  0  0  0  0  0  0  0  0  0  0
   26.6814  -20.2154  -10.4273 C   0  0  0  0  0  0  0  0  0  0  0  0
   26.7486  -21.4480  -10.5721 O   0  0  0  0  0  0  0  0  0  0  0  0
   28.7865  -18.3705   -5.8933 C   0  0  0  0  0  0  0  0  0  0  0  0
   28.3395  -19.2656   -7.0480 C   0  0  0  0  0  0  0  0  0  0  0  0
   26.9347  -19.7412   -6.7769 C   0  0  2  0  0  0  0  0  0  0  0  0
   26.9589  -20.5202   -5.4814 C   0  0  0  0  0  0  0  0  0  0  0  0
   26.4390  -20.5781   -7.9321 C   0  0  2  0  0  0  0  0  0  0  0  0
   26.5307  -19.7036   -9.1115 N   0  0  0  0  0  0  0  0  0  0  0  0
   25.0800  -21.1075   -7.7766 C   0  0  0  0  0  0  0  0  0  0  0  0
   24.0993  -20.3370   -8.0650 O   0  0  0  0  0  0  0  0  0  0  0  0
   24.7255  -22.3681   -7.3475 O   0  0  0  0  0  0  0  0  0  0  0  0
  2  1  1  6
  3  2  1  0
  4  2  1  0
  4  5  1  1
  6  7  2  0
  6  4  1  0
  8  6  1  0
  9  8  1  0
 10  9  1  0
 10 11  2  0
 12 13  1  0
 13 14  1  0
 14 16  1  0
 14 15  1  1
 16 17  1  6
 16 18  1  0
 17 10  1  0
 18 19  2  0
 18 20  1  0
M  END
$$$$
