CKT.pdb
     RDKit          3D

 23 22  0  0  1  0  0  0  0  0999 V2000
   16.6208  -11.2511  -14.4427 N   0  0  0  0  0  0  0  0  0  0  0  0
   16.9351  -10.1687  -15.3707 C   0  0  1  0  0  0  0  0  0  0  0  0
   15.9767   -9.0119  -15.1605 C   0  0  0  0  0  0  0  0  0  0  0  0
   14.2971   -9.4010  -15.6473 S   0  0  0  0  0  0  0  0  0  0  0  0
   18.3111   -9.6989  -15.0887 C   0  0  0  0  0  0  0  0  0  0  0  0
   18.6849   -9.6374  -13.8810 O   0  0  0  0  0  0  0  0  0  0  0  0
   19.2380   -9.3157  -16.0689 N   0  0  0  0  0  0  0  0  0  0  0  0
   20.5898   -8.8994  -15.6486 C   0  0  1  0  0  0  0  0  0  0  0  0
   21.4816   -9.4840  -16.7241 C   0  0  0  0  0  0  0  0  0  0  0  0
   22.9212   -9.1732  -16.6271 C   0  0  0  0  0  0  0  0  0  0  0  0
   23.6335   -9.8906  -17.7874 C   0  0  0  0  0  0  0  0  0  0  0  0
   25.0989   -9.6294  -17.8308 C   0  0  0  0  0  0  0  0  0  0  0  0
   25.6353  -10.5196  -18.8817 N   0  0  0  0  0  0  0  0  0  0  0  0
   20.6369   -7.4245  -15.6534 C   0  0  0  0  0  0  0  0  0  0  0  0
   20.4802   -6.8270  -16.7539 O   0  0  0  0  0  0  0  0  0  0  0  0
   18.5660   -4.7879  -14.9322 C   0  0  0  0  0  0  0  0  0  0  0  0
   19.7819   -4.4850  -14.0818 C   0  0  1  0  0  0  0  0  0  0  0  0
   19.5109   -4.9523  -12.7967 O   0  0  0  0  0  0  0  0  0  0  0  0
   20.9821   -5.1730  -14.6750 C   0  0  2  0  0  0  0  0  0  0  0  0
   20.8427   -6.6162  -14.5074 N   0  0  0  0  0  0  0  0  0  0  0  0
   22.1948   -4.7166  -13.9550 C   0  0  0  0  0  0  0  0  0  0  0  0
   22.5445   -3.5192  -13.9847 O   0  0  0  0  0  0  0  0  0  0  0  0
   22.9839   -5.5946  -13.2248 O   0  0  0  0  0  0  0  0  0  0  0  0
  2  1  1  1
  2  5  1  0
  2  3  1  0
  4  3  1  0
  5  6  2  0
  7  8  1  0
  7  5  1  0
  9 10  1  0
  8  9  1  6
 10 11  1  0
 11 12  1  0
 13 12  1  0
 14 15  2  0
 14  8  1  0
 17 16  1  6
 17 19  1  0
 18 17  1  0
 19 20  1  1
 19 21  1  0
 20 14  1  0
 21 22  2  0
 21 23  1  0
M  END
$$$$
