CKT.pdb
     RDKit          3D

 23 22  0  0  1  0  0  0  0  0999 V2000
   18.4957  -11.8923  -15.7394 N   0  0  0  0  0  0  0  0  0  0  0  0
   18.4770  -10.6869  -16.5630 C   0  0  1  0  0  0  0  0  0  0  0  0
   17.3783   -9.7539  -16.0904 C   0  0  0  0  0  0  0  0  0  0  0  0
   17.3013   -9.6152  -14.3059 S   0  0  0  0  0  0  0  0  0  0  0  0
   19.7793   -9.9985  -16.4099 C   0  0  0  0  0  0  0  0  0  0  0  0
   20.3853  -10.1072  -15.3040 O   0  0  0  0  0  0  0  0  0  0  0  0
   20.3960   -9.2305  -17.4082 N   0  0  0  0  0  0  0  0  0  0  0  0
   21.6912   -8.5870  -17.1153 C   0  0  1  0  0  0  0  0  0  0  0  0
   22.4546   -8.7396  -18.4144 C   0  0  0  0  0  0  0  0  0  0  0  0
   23.8260   -8.1945  -18.4405 C   0  0  0  0  0  0  0  0  0  0  0  0
   24.4140   -8.4749  -19.8348 C   0  0  0  0  0  0  0  0  0  0  0  0
   25.8327   -8.0443  -19.9735 C   0  0  0  0  0  0  0  0  0  0  0  0
   26.5571   -8.6786  -18.8521 N   0  0  0  0  0  0  0  0  0  0  0  0
   21.4370   -7.1671  -16.8040 C   0  0  0  0  0  0  0  0  0  0  0  0
   21.0382   -6.4151  -17.7357 O   0  0  0  0  0  0  0  0  0  0  0  0
   18.8788   -5.4919  -15.2730 C   0  0  0  0  0  0  0  0  0  0  0  0
   20.0860   -4.9914  -14.5077 C   0  0  1  0  0  0  0  0  0  0  0  0
   20.1751   -5.7485  -13.3407 O   0  0  0  0  0  0  0  0  0  0  0  0
   21.3138   -5.1535  -15.3632 C   0  0  2  0  0  0  0  0  0  0  0  0
   21.6033   -6.5747  -15.5271 N   0  0  0  0  0  0  0  0  0  0  0  0
   22.4571   -4.5018  -14.6807 C   0  0  0  0  0  0  0  0  0  0  0  0
   23.4415   -5.1685  -14.3022 O   0  0  0  0  0  0  0  0  0  0  0  0
   22.4789   -3.1354  -14.4370 O   0  0  0  0  0  0  0  0  0  0  0  0
  2  1  1  1
  2  5  1  0
  2  3  1  0
  4  3  1  0
  5  6  2  0
  7  8  1  0
  7  5  1  0
  9 10  1  0
  8  9  1  6
 10 11  1  0
 11 12  1  0
 13 12  1  0
 14 15  2  0
 14  8  1  0
 17 16  1  6
 17 19  1  0
 18 17  1  0
 19 20  1  1
 19 21  1  0
 20 14  1  0
 21 22  2  0
 21 23  1  0
M  END
$$$$
