CKT.pdb
     RDKit          3D

 23 22  0  0  1  0  0  0  0  0999 V2000
   30.0642  -10.3101  -17.5279 N   0  0  0  0  0  0  0  0  0  0  0  0
   31.4057   -9.9421  -17.9710 C   0  0  1  0  0  0  0  0  0  0  0  0
   31.3400   -9.3031  -19.3452 C   0  0  0  0  0  0  0  0  0  0  0  0
   30.0274   -8.0924  -19.4890 S   0  0  0  0  0  0  0  0  0  0  0  0
   31.9561   -8.9527  -17.0162 C   0  0  0  0  0  0  0  0  0  0  0  0
   31.1540   -8.3795  -16.2223 O   0  0  0  0  0  0  0  0  0  0  0  0
   33.3111   -8.6026  -16.9251 N   0  0  0  0  0  0  0  0  0  0  0  0
   33.7517   -7.7394  -15.8124 C   0  0  1  0  0  0  0  0  0  0  0  0
   35.0010   -8.4331  -15.3106 C   0  0  0  0  0  0  0  0  0  0  0  0
   35.7597   -7.7390  -14.2517 C   0  0  0  0  0  0  0  0  0  0  0  0
   37.0133   -8.5784  -13.9482 C   0  0  0  0  0  0  0  0  0  0  0  0
   37.7821   -8.0853  -12.7721 C   0  0  0  0  0  0  0  0  0  0  0  0
   38.8769   -9.0575  -12.5707 N   0  0  0  0  0  0  0  0  0  0  0  0
   34.0608   -6.4055  -16.3624 C   0  0  0  0  0  0  0  0  0  0  0  0
   34.7808   -6.3398  -17.3968 O   0  0  0  0  0  0  0  0  0  0  0  0
   32.1154   -3.6495  -17.8785 C   0  0  0  0  0  0  0  0  0  0  0  0
   32.8822   -3.0532  -16.7166 C   0  0  1  0  0  0  0  0  0  0  0  0
   32.0043   -2.9876  -15.6357 O   0  0  0  0  0  0  0  0  0  0  0  0
   34.0686   -3.9269  -16.4087 C   0  0  2  0  0  0  0  0  0  0  0  0
   33.6055   -5.1786  -15.8178 N   0  0  0  0  0  0  0  0  0  0  0  0
   34.9362   -3.2229  -15.4344 C   0  0  0  0  0  0  0  0  0  0  0  0
   35.0496   -3.6362  -14.2626 O   0  0  0  0  0  0  0  0  0  0  0  0
   35.6514   -2.0854  -15.7828 O   0  0  0  0  0  0  0  0  0  0  0  0
  2  1  1  1
  2  5  1  0
  2  3  1  0
  4  3  1  0
  5  6  2  0
  7  8  1  0
  7  5  1  0
  9 10  1  0
  8  9  1  6
 10 11  1  0
 11 12  1  0
 13 12  1  0
 14 15  2  0
 14  8  1  0
 17 16  1  6
 17 19  1  0
 18 17  1  0
 19 20  1  1
 19 21  1  0
 20 14  1  0
 21 22  2  0
 21 23  1  0
M  END
$$$$
