CKT.pdb
     RDKit          3D

 23 22  0  0  1  0  0  0  0  0999 V2000
   17.9505  -11.7760  -13.4713 N   0  0  0  0  0  0  0  0  0  0  0  0
   17.6471  -10.5570  -14.2154 C   0  0  1  0  0  0  0  0  0  0  0  0
   17.0648  -10.9092  -15.5710 C   0  0  0  0  0  0  0  0  0  0  0  0
   18.2133  -11.8090  -16.6106 S   0  0  0  0  0  0  0  0  0  0  0  0
   16.6376   -9.7860  -13.4539 C   0  0  0  0  0  0  0  0  0  0  0  0
   16.2419   -8.6837  -13.9339 O   0  0  0  0  0  0  0  0  0  0  0  0
   16.0825  -10.1912  -12.2313 N   0  0  0  0  0  0  0  0  0  0  0  0
   15.0658   -9.3348  -11.5908 C   0  0  1  0  0  0  0  0  0  0  0  0
   14.1274  -10.3345  -10.9475 C   0  0  0  0  0  0  0  0  0  0  0  0
   13.0306   -9.7779  -10.1314 C   0  0  0  0  0  0  0  0  0  0  0  0
   12.1314  -10.9484   -9.6962 C   0  0  0  0  0  0  0  0  0  0  0  0
   10.9930  -10.5277   -8.8332 C   0  0  0  0  0  0  0  0  0  0  0  0
   10.3266  -11.7769   -8.4091 N   0  0  0  0  0  0  0  0  0  0  0  0
   15.7415   -8.5017  -10.5774 C   0  0  0  0  0  0  0  0  0  0  0  0
   16.6305   -9.0392   -9.8608 O   0  0  0  0  0  0  0  0  0  0  0  0
   18.1744   -5.9224  -10.6237 C   0  0  0  0  0  0  0  0  0  0  0  0
   17.0090   -5.3268   -9.8615 C   0  0  1  0  0  0  0  0  0  0  0  0
   16.2693   -4.5696  -10.7685 O   0  0  0  0  0  0  0  0  0  0  0  0
   16.1840   -6.4402   -9.2736 C   0  0  2  0  0  0  0  0  0  0  0  0
   15.4714   -7.1299  -10.3445 N   0  0  0  0  0  0  0  0  0  0  0  0
   15.1980   -5.8549   -8.3341 C   0  0  0  0  0  0  0  0  0  0  0  0
   13.9745   -5.9118   -8.5724 O   0  0  0  0  0  0  0  0  0  0  0  0
   15.5919   -5.2252   -7.1615 O   0  0  0  0  0  0  0  0  0  0  0  0
  2  1  1  1
  2  5  1  0
  2  3  1  0
  4  3  1  0
  5  6  2  0
  7  8  1  0
  7  5  1  0
  9 10  1  0
  8  9  1  1
 10 11  1  0
 11 12  1  0
 13 12  1  0
 14 15  2  0
 14  8  1  0
 17 16  1  6
 17 19  1  0
 18 17  1  0
 19 20  1  6
 19 21  1  0
 20 14  1  0
 21 22  2  0
 21 23  1  0
M  END
$$$$
