CKT.pdb
     RDKit          3D

 23 22  0  0  1  0  0  0  0  0999 V2000
   25.6871  -22.3720  -11.7479 N   0  0  0  0  0  0  0  0  0  0  0  0
   24.8772  -21.1602  -11.6625 C   0  0  1  0  0  0  0  0  0  0  0  0
   25.5463  -20.1538  -10.7458 C   0  0  0  0  0  0  0  0  0  0  0  0
   25.2199  -20.4653   -9.0121 S   0  0  0  0  0  0  0  0  0  0  0  0
   24.7771  -20.5710  -13.0175 C   0  0  0  0  0  0  0  0  0  0  0  0
   25.8206  -20.5403  -13.7334 O   0  0  0  0  0  0  0  0  0  0  0  0
   23.6021  -20.0419  -13.5708 N   0  0  0  0  0  0  0  0  0  0  0  0
   23.5806  -19.6991  -15.0059 C   0  0  1  0  0  0  0  0  0  0  0  0
   22.1413  -19.9561  -15.4011 C   0  0  0  0  0  0  0  0  0  0  0  0
   21.7845  -19.6788  -16.8063 C   0  0  0  0  0  0  0  0  0  0  0  0
   20.2933  -20.0145  -16.9848 C   0  0  0  0  0  0  0  0  0  0  0  0
   19.8092  -19.8236  -18.3801 C   0  0  0  0  0  0  0  0  0  0  0  0
   18.4153  -20.3147  -18.3930 N   0  0  0  0  0  0  0  0  0  0  0  0
   23.9291  -18.2716  -15.1409 C   0  0  0  0  0  0  0  0  0  0  0  0
   23.4206  -17.4544  -14.3246 O   0  0  0  0  0  0  0  0  0  0  0  0
   27.0998  -16.3291  -14.8557 C   0  0  0  0  0  0  0  0  0  0  0  0
   26.4985  -16.0182  -16.2104 C   0  0  1  0  0  0  0  0  0  0  0  0
   27.1435  -16.8302  -17.1420 O   0  0  0  0  0  0  0  0  0  0  0  0
   25.0198  -16.2970  -16.1690 C   0  0  2  0  0  0  0  0  0  0  0  0
   24.8019  -17.7394  -16.1228 N   0  0  0  0  0  0  0  0  0  0  0  0
   24.3997  -15.7525  -17.4005 C   0  0  0  0  0  0  0  0  0  0  0  0
   23.8038  -16.5005  -18.2019 O   0  0  0  0  0  0  0  0  0  0  0  0
   24.4561  -14.4004  -17.7096 O   0  0  0  0  0  0  0  0  0  0  0  0
  2  1  1  6
  2  5  1  0
  2  3  1  0
  4  3  1  0
  5  6  2  0
  7  8  1  0
  7  5  1  0
  9 10  1  0
  8  9  1  1
 10 11  1  0
 11 12  1  0
 13 12  1  0
 14 15  2  0
 14  8  1  0
 17 16  1  1
 17 19  1  0
 18 17  1  0
 19 20  1  6
 19 21  1  0
 20 14  1  0
 21 22  2  0
 21 23  1  0
M  END
$$$$
