CKT.pdb
     RDKit          3D

 23 22  0  0  1  0  0  0  0  0999 V2000
   26.6961  -21.9001  -14.2134 N   0  0  0  0  0  0  0  0  0  0  0  0
   26.1921  -20.7122  -13.5304 C   0  0  1  0  0  0  0  0  0  0  0  0
   26.1312  -19.5455  -14.4978 C   0  0  0  0  0  0  0  0  0  0  0  0
   27.7348  -19.1111  -15.1679 S   0  0  0  0  0  0  0  0  0  0  0  0
   24.8210  -20.9987  -13.0493 C   0  0  0  0  0  0  0  0  0  0  0  0
   24.1618  -21.9082  -13.6327 O   0  0  0  0  0  0  0  0  0  0  0  0
   24.1950  -20.3323  -11.9859 N   0  0  0  0  0  0  0  0  0  0  0  0
   22.8637  -20.7890  -11.5426 C   0  0  1  0  0  0  0  0  0  0  0  0
   22.7418  -20.2008  -10.1523 C   0  0  0  0  0  0  0  0  0  0  0  0
   21.4389  -20.3667   -9.4787 C   0  0  0  0  0  0  0  0  0  0  0  0
   21.5291  -21.6188   -8.5886 C   0  0  0  0  0  0  0  0  0  0  0  0
   20.2500  -21.9451   -7.8994 C   0  0  0  0  0  0  0  0  0  0  0  0
   20.4995  -23.2013   -7.1617 N   0  0  0  0  0  0  0  0  0  0  0  0
   21.8560  -20.2197  -12.4580 C   0  0  0  0  0  0  0  0  0  0  0  0
   21.9336  -18.9921  -12.7403 O   0  0  0  0  0  0  0  0  0  0  0  0
   21.1356  -20.4981  -15.9634 C   0  0  0  0  0  0  0  0  0  0  0  0
   19.8347  -20.8467  -15.2707 C   0  0  1  0  0  0  0  0  0  0  0  0
   19.7576  -22.2375  -15.2179 O   0  0  0  0  0  0  0  0  0  0  0  0
   19.8337  -20.2435  -13.8916 C   0  0  2  0  0  0  0  0  0  0  0  0
   20.7984  -20.9505  -13.0551 N   0  0  0  0  0  0  0  0  0  0  0  0
   18.4803  -20.3983  -13.3070 C   0  0  0  0  0  0  0  0  0  0  0  0
   18.2990  -21.0943  -12.2874 O   0  0  0  0  0  0  0  0  0  0  0  0
   17.3693  -19.7810  -13.8651 O   0  0  0  0  0  0  0  0  0  0  0  0
  2  1  1  6
  2  5  1  0
  2  3  1  0
  4  3  1  0
  5  6  2  0
  7  8  1  0
  7  5  1  0
  9 10  1  0
  8  9  1  1
 10 11  1  0
 11 12  1  0
 13 12  1  0
 14 15  2  0
 14  8  1  0
 17 16  1  1
 17 19  1  0
 18 17  1  0
 19 20  1  1
 19 21  1  0
 20 14  1  0
 21 22  2  0
 21 23  1  0
M  END
$$$$
