CKT.pdb
     RDKit          3D

 23 22  0  0  1  0  0  0  0  0999 V2000
   26.6943  -14.5794  -17.1616 N   0  0  0  0  0  0  0  0  0  0  0  0
   26.5540  -15.0046  -15.7719 C   0  0  1  0  0  0  0  0  0  0  0  0
   25.5182  -14.1470  -15.0701 C   0  0  0  0  0  0  0  0  0  0  0  0
   23.9244  -14.1699  -15.8878 S   0  0  0  0  0  0  0  0  0  0  0  0
   26.0891  -16.4107  -15.7602 C   0  0  0  0  0  0  0  0  0  0  0  0
   25.5531  -16.8708  -16.8106 O   0  0  0  0  0  0  0  0  0  0  0  0
   26.2011  -17.2772  -14.6632 N   0  0  0  0  0  0  0  0  0  0  0  0
   25.7034  -18.6603  -14.7927 C   0  0  1  0  0  0  0  0  0  0  0  0
   26.6122  -19.4427  -13.8677 C   0  0  0  0  0  0  0  0  0  0  0  0
   27.8914  -19.9074  -14.4389 C   0  0  0  0  0  0  0  0  0  0  0  0
   27.5784  -21.0588  -15.4109 C   0  0  0  0  0  0  0  0  0  0  0  0
   28.7966  -21.6775  -16.0031 C   0  0  0  0  0  0  0  0  0  0  0  0
   28.3076  -22.6854  -16.9673 N   0  0  0  0  0  0  0  0  0  0  0  0
   24.3045  -18.6892  -14.3239 C   0  0  0  0  0  0  0  0  0  0  0  0
   24.0714  -18.3733  -13.1244 O   0  0  0  0  0  0  0  0  0  0  0  0
   20.8989  -18.2194  -16.6311 C   0  0  0  0  0  0  0  0  0  0  0  0
   21.0303  -17.9535  -15.1460 C   0  0  1  0  0  0  0  0  0  0  0  0
   19.7405  -17.9286  -14.6177 O   0  0  0  0  0  0  0  0  0  0  0  0
   21.8589  -19.0440  -14.5216 C   0  0  2  0  0  0  0  0  0  0  0  0
   23.1888  -19.0438  -15.1230 N   0  0  0  0  0  0  0  0  0  0  0  0
   21.2064  -20.3480  -14.7890 C   0  0  0  0  0  0  0  0  0  0  0  0
   21.7792  -21.2230  -15.4694 O   0  0  0  0  0  0  0  0  0  0  0  0
   19.9428  -20.6460  -14.2978 O   0  0  0  0  0  0  0  0  0  0  0  0
  2  1  1  6
  2  5  1  0
  2  3  1  0
  4  3  1  0
  5  6  2  0
  7  8  1  0
  7  5  1  0
  9 10  1  0
  8  9  1  1
 10 11  1  0
 11 12  1  0
 13 12  1  0
 14 15  2  0
 14  8  1  0
 17 16  1  6
 17 19  1  0
 18 17  1  0
 19 20  1  6
 19 21  1  0
 20 14  1  0
 21 22  2  0
 21 23  1  0
M  END
$$$$
