CKT.pdb
     RDKit          3D

 23 22  0  0  1  0  0  0  0  0999 V2000
   27.6618  -20.8356  -12.3596 N   0  0  0  0  0  0  0  0  0  0  0  0
   26.3658  -21.2757  -11.8512 C   0  0  1  0  0  0  0  0  0  0  0  0
   26.2762  -21.0078  -10.3609 C   0  0  0  0  0  0  0  0  0  0  0  0
   27.6933  -21.6252   -9.4552 S   0  0  0  0  0  0  0  0  0  0  0  0
   25.3085  -20.4963  -12.5353 C   0  0  0  0  0  0  0  0  0  0  0  0
   25.1832  -19.2722  -12.2388 O   0  0  0  0  0  0  0  0  0  0  0  0
   24.4302  -21.0182  -13.4961 N   0  0  0  0  0  0  0  0  0  0  0  0
   23.4051  -20.1329  -14.0814 C   0  0  1  0  0  0  0  0  0  0  0  0
   23.8116  -20.0491  -15.5380 C   0  0  0  0  0  0  0  0  0  0  0  0
   22.9560  -19.2254  -16.4144 C   0  0  0  0  0  0  0  0  0  0  0  0
   23.4659  -19.3929  -17.8567 C   0  0  0  0  0  0  0  0  0  0  0  0
   22.6624  -18.6372  -18.8572 C   0  0  0  0  0  0  0  0  0  0  0  0
   23.2843  -18.9187  -20.1680 N   0  0  0  0  0  0  0  0  0  0  0  0
   22.0918  -20.7875  -13.9260 C   0  0  0  0  0  0  0  0  0  0  0  0
   22.0162  -22.0292  -14.1390 O   0  0  0  0  0  0  0  0  0  0  0  0
   20.0539  -21.8083  -11.2678 C   0  0  0  0  0  0  0  0  0  0  0  0
   19.1378  -20.9329  -12.0972 C   0  0  1  0  0  0  0  0  0  0  0  0
   19.1392  -19.6674  -11.5125 O   0  0  0  0  0  0  0  0  0  0  0  0
   19.6496  -20.8851  -13.5119 C   0  0  2  0  0  0  0  0  0  0  0  0
   20.8960  -20.1266  -13.5488 N   0  0  0  0  0  0  0  0  0  0  0  0
   18.6419  -20.2025  -14.3582 C   0  0  0  0  0  0  0  0  0  0  0  0
   18.9129  -19.1320  -14.9392 O   0  0  0  0  0  0  0  0  0  0  0  0
   17.3670  -20.7216  -14.5372 O   0  0  0  0  0  0  0  0  0  0  0  0
  2  1  1  6
  2  5  1  0
  2  3  1  0
  4  3  1  0
  5  6  2  0
  7  8  1  0
  7  5  1  0
  9 10  1  0
  8  9  1  6
 10 11  1  0
 11 12  1  0
 13 12  1  0
 14 15  2  0
 14  8  1  0
 17 16  1  1
 17 19  1  0
 18 17  1  0
 19 20  1  1
 19 21  1  0
 20 14  1  0
 21 22  2  0
 21 23  1  0
M  END
$$$$
