CKT.pdb
     RDKit          3D

 23 22  0  0  1  0  0  0  0  0999 V2000
   27.1144  -20.1028   -8.9353 N   0  0  0  0  0  0  0  0  0  0  0  0
   25.8218  -20.7500   -9.1396 C   0  0  1  0  0  0  0  0  0  0  0  0
   24.7511  -20.0318   -8.3405 C   0  0  0  0  0  0  0  0  0  0  0  0
   23.2146  -20.9488   -8.2517 S   0  0  0  0  0  0  0  0  0  0  0  0
   25.4782  -20.6595  -10.5774 C   0  0  0  0  0  0  0  0  0  0  0  0
   25.7603  -19.5896  -11.1921 O   0  0  0  0  0  0  0  0  0  0  0  0
   24.8599  -21.6803  -11.3140 N   0  0  0  0  0  0  0  0  0  0  0  0
   24.5262  -21.4362  -12.7305 C   0  0  1  0  0  0  0  0  0  0  0  0
   24.8992  -22.7408  -13.4033 C   0  0  0  0  0  0  0  0  0  0  0  0
   24.6340  -22.8341  -14.8523 C   0  0  0  0  0  0  0  0  0  0  0  0
   25.1015  -24.2222  -15.3245 C   0  0  0  0  0  0  0  0  0  0  0  0
   24.9063  -24.4447  -16.7839 C   0  0  0  0  0  0  0  0  0  0  0  0
   25.3468  -25.8318  -17.0419 N   0  0  0  0  0  0  0  0  0  0  0  0
   23.0760  -21.1792  -12.8215 C   0  0  0  0  0  0  0  0  0  0  0  0
   22.3111  -21.7934  -12.0275 O   0  0  0  0  0  0  0  0  0  0  0  0
   20.9783  -17.9490  -12.4297 C   0  0  0  0  0  0  0  0  0  0  0  0
   20.7306  -18.6019  -13.7736 C   0  0  1  0  0  0  0  0  0  0  0  0
   21.5729  -17.9798  -14.6938 O   0  0  0  0  0  0  0  0  0  0  0  0
   21.0243  -20.0744  -13.6677 C   0  0  2  0  0  0  0  0  0  0  0  0
   22.4670  -20.2848  -13.7371 N   0  0  0  0  0  0  0  0  0  0  0  0
   20.3779  -20.7702  -14.8059 C   0  0  0  0  0  0  0  0  0  0  0  0
   21.0623  -21.3049  -15.7017 O   0  0  0  0  0  0  0  0  0  0  0  0
   18.9971  -20.8546  -14.9206 O   0  0  0  0  0  0  0  0  0  0  0  0
  2  1  1  6
  2  5  1  0
  2  3  1  0
  4  3  1  0
  5  6  2  0
  7  8  1  0
  7  5  1  0
  9 10  1  0
  8  9  1  6
 10 11  1  0
 11 12  1  0
 13 12  1  0
 14 15  2  0
 14  8  1  0
 17 16  1  1
 17 19  1  0
 18 17  1  0
 19 20  1  6
 19 21  1  0
 20 14  1  0
 21 22  2  0
 21 23  1  0
M  END
$$$$
