CKT.pdb
     RDKit          3D

 23 22  0  0  1  0  0  0  0  0999 V2000
   25.8512  -12.6156  -17.4699 N   0  0  0  0  0  0  0  0  0  0  0  0
   25.6542  -11.7270  -16.3283 C   0  0  1  0  0  0  0  0  0  0  0  0
   26.8986  -10.8893  -16.1034 C   0  0  0  0  0  0  0  0  0  0  0  0
   28.3198  -11.8679  -15.6217 S   0  0  0  0  0  0  0  0  0  0  0  0
   24.5238  -10.8203  -16.6341 C   0  0  0  0  0  0  0  0  0  0  0  0
   24.3911  -10.4127  -17.8251 O   0  0  0  0  0  0  0  0  0  0  0  0
   23.5814  -10.3778  -15.6944 N   0  0  0  0  0  0  0  0  0  0  0  0
   22.4460   -9.5557  -16.1553 C   0  0  1  0  0  0  0  0  0  0  0  0
   21.2418  -10.2861  -15.5985 C   0  0  0  0  0  0  0  0  0  0  0  0
   20.6367  -11.3157  -16.4659 C   0  0  0  0  0  0  0  0  0  0  0  0
   19.3939  -11.8644  -15.7429 C   0  0  0  0  0  0  0  0  0  0  0  0
   18.6512  -12.8817  -16.5374 C   0  0  0  0  0  0  0  0  0  0  0  0
   17.5806  -13.3821  -15.6498 N   0  0  0  0  0  0  0  0  0  0  0  0
   22.5827   -8.2120  -15.5610 C   0  0  0  0  0  0  0  0  0  0  0  0
   23.0779   -8.1199  -14.4038 O   0  0  0  0  0  0  0  0  0  0  0  0
   22.6452   -3.3067  -15.7490 C   0  0  0  0  0  0  0  0  0  0  0  0
   22.4376   -4.6136  -16.4856 C   0  0  1  0  0  0  0  0  0  0  0  0
   23.5008   -4.7565  -17.3758 O   0  0  0  0  0  0  0  0  0  0  0  0
   22.4004   -5.7407  -15.4886 C   0  0  2  0  0  0  0  0  0  0  0  0
   22.2013   -7.0027  -16.1944 N   0  0  0  0  0  0  0  0  0  0  0  0
   21.2636   -5.5185  -14.5635 C   0  0  0  0  0  0  0  0  0  0  0  0
   20.1426   -6.0147  -14.7957 O   0  0  0  0  0  0  0  0  0  0  0  0
   21.3986   -4.7561  -13.4114 O   0  0  0  0  0  0  0  0  0  0  0  0
  2  1  1  6
  2  5  1  0
  2  3  1  0
  4  3  1  0
  5  6  2  0
  7  8  1  0
  7  5  1  0
  9 10  1  0
  8  9  1  1
 10 11  1  0
 11 12  1  0
 13 12  1  0
 14 15  2  0
 14  8  1  0
 17 16  1  1
 17 19  1  0
 18 17  1  0
 19 20  1  6
 19 21  1  0
 20 14  1  0
 21 22  2  0
 21 23  1  0
M  END
$$$$
