CKT.pdb
     RDKit          3D

 23 22  0  0  1  0  0  0  0  0999 V2000
   16.2556  -12.5747  -13.1136 N   0  0  0  0  0  0  0  0  0  0  0  0
   15.6993  -11.2520  -13.3834 C   0  0  1  0  0  0  0  0  0  0  0  0
   14.2146  -11.2416  -13.0732 C   0  0  0  0  0  0  0  0  0  0  0  0
   13.2360  -12.0765  -14.3201 S   0  0  0  0  0  0  0  0  0  0  0  0
   16.3734  -10.2744  -12.4984 C   0  0  0  0  0  0  0  0  0  0  0  0
   16.6852  -10.6443  -11.3287 O   0  0  0  0  0  0  0  0  0  0  0  0
   16.6955   -8.9593  -12.8641 N   0  0  0  0  0  0  0  0  0  0  0  0
   17.4133   -8.1056  -11.8981 C   0  0  1  0  0  0  0  0  0  0  0  0
   18.4738   -7.4377  -12.7483 C   0  0  0  0  0  0  0  0  0  0  0  0
   19.6437   -8.2618  -13.1099 C   0  0  0  0  0  0  0  0  0  0  0  0
   20.5259   -7.4305  -14.0581 C   0  0  0  0  0  0  0  0  0  0  0  0
   21.6341   -8.2144  -14.6705 C   0  0  0  0  0  0  0  0  0  0  0  0
   22.3918   -7.2567  -15.5031 N   0  0  0  0  0  0  0  0  0  0  0  0
   16.4565   -7.1201  -11.3588 C   0  0  0  0  0  0  0  0  0  0  0  0
   15.6026   -6.6262  -12.1460 O   0  0  0  0  0  0  0  0  0  0  0  0
   13.7233   -7.2014   -8.8657 C   0  0  0  0  0  0  0  0  0  0  0  0
   14.6742   -6.1032   -8.4378 C   0  0  1  0  0  0  0  0  0  0  0  0
   15.5042   -6.6389   -7.4542 O   0  0  0  0  0  0  0  0  0  0  0  0
   15.4649   -5.6424   -9.6329 C   0  0  2  0  0  0  0  0  0  0  0  0
   16.4170   -6.6818  -10.0114 N   0  0  0  0  0  0  0  0  0  0  0  0
   16.2091   -4.4144   -9.2647 C   0  0  0  0  0  0  0  0  0  0  0  0
   17.4560   -4.4112   -9.2175 O   0  0  0  0  0  0  0  0  0  0  0  0
   15.5552   -3.2284   -8.9600 O   0  0  0  0  0  0  0  0  0  0  0  0
  2  1  1  1
  2  5  1  0
  2  3  1  0
  4  3  1  0
  5  6  2  0
  7  8  1  0
  7  5  1  0
  9 10  1  0
  8  9  1  6
 10 11  1  0
 11 12  1  0
 13 12  1  0
 14 15  2  0
 14  8  1  0
 17 16  1  6
 17 19  1  0
 18 17  1  0
 19 20  1  1
 19 21  1  0
 20 14  1  0
 21 22  2  0
 21 23  1  0
M  END
$$$$
