CKT.pdb
     RDKit          3D

 23 22  0  0  1  0  0  0  0  0999 V2000
   28.6404  -20.2664  -17.1538 N   0  0  0  0  0  0  0  0  0  0  0  0
   28.0843  -19.3259  -16.1855 C   0  0  1  0  0  0  0  0  0  0  0  0
   27.3802  -18.1937  -16.9089 C   0  0  0  0  0  0  0  0  0  0  0  0
   28.5180  -17.0473  -17.6837 S   0  0  0  0  0  0  0  0  0  0  0  0
   27.0911  -20.0455  -15.3553 C   0  0  0  0  0  0  0  0  0  0  0  0
   26.3912  -20.9442  -15.9072 O   0  0  0  0  0  0  0  0  0  0  0  0
   26.8684  -19.8038  -13.9919 N   0  0  0  0  0  0  0  0  0  0  0  0
   25.8762  -20.6270  -13.2741 C   0  0  1  0  0  0  0  0  0  0  0  0
   26.2214  -20.3931  -11.8181 C   0  0  0  0  0  0  0  0  0  0  0  0
   25.3250  -21.0107  -10.8212 C   0  0  0  0  0  0  0  0  0  0  0  0
   25.8128  -20.5828   -9.4257 C   0  0  0  0  0  0  0  0  0  0  0  0
   25.0283  -21.1906   -8.3154 C   0  0  0  0  0  0  0  0  0  0  0  0
   25.6528  -20.7030   -7.0677 N   0  0  0  0  0  0  0  0  0  0  0  0
   24.5324  -20.1106  -13.5983 C   0  0  0  0  0  0  0  0  0  0  0  0
   24.3504  -18.8622  -13.5673 O   0  0  0  0  0  0  0  0  0  0  0  0
   22.6638  -19.6322  -16.4985 C   0  0  0  0  0  0  0  0  0  0  0  0
   21.7374  -20.4531  -15.6259 C   0  0  1  0  0  0  0  0  0  0  0  0
   21.8684  -21.7824  -16.0249 O   0  0  0  0  0  0  0  0  0  0  0  0
   22.1288  -20.2711  -14.1838 C   0  0  2  0  0  0  0  0  0  0  0  0
   23.4182  -20.9135  -13.9491 N   0  0  0  0  0  0  0  0  0  0  0  0
   21.1036  -20.9158  -13.3289 C   0  0  0  0  0  0  0  0  0  0  0  0
   21.3987  -21.8757  -12.5885 O   0  0  0  0  0  0  0  0  0  0  0  0
   19.7851  -20.4817  -13.3173 O   0  0  0  0  0  0  0  0  0  0  0  0
  2  1  1  6
  2  5  1  0
  2  3  1  0
  4  3  1  0
  5  6  2  0
  7  8  1  0
  7  5  1  0
  9 10  1  0
  8  9  1  1
 10 11  1  0
 11 12  1  0
 13 12  1  0
 14 15  2  0
 14  8  1  0
 17 16  1  6
 17 19  1  0
 18 17  1  0
 19 20  1  6
 19 21  1  0
 20 14  1  0
 21 22  2  0
 21 23  1  0
M  END
$$$$
