GSY.pdb
     RDKit          3D

 23 23  0  0  1  0  0  0  0  0999 V2000
   25.1900  -25.3004  -15.6535 N   0  0  0  0  0  0  0  0  0  0  0  0
   25.0770  -24.0531  -16.3452 C   0  0  0  0  0  0  0  0  0  0  0  0
   24.0996  -23.1735  -15.6680 C   0  0  0  0  0  0  0  0  0  0  0  0
   23.3804  -23.6961  -14.7520 O   0  0  0  0  0  0  0  0  0  0  0  0
   23.3866  -19.2217  -16.8204 O   0  0  0  0  0  0  0  0  0  0  0  0
   23.0800  -19.5556  -15.5230 C   0  0  0  0  0  0  0  0  0  0  0  0
   22.9170  -21.0467  -15.3241 C   0  0  2  0  0  0  0  0  0  0  0  0
   23.9408  -21.8014  -15.9972 N   0  0  0  0  0  0  0  0  0  0  0  0
   21.5854  -21.4019  -15.9336 C   0  0  0  0  0  0  0  0  0  0  0  0
   21.5327  -21.7624  -17.1431 O   0  0  0  0  0  0  0  0  0  0  0  0
   16.8082  -23.2744  -10.0510 O   0  0  0  0  0  0  0  0  0  0  0  0
   17.2676  -23.2276  -11.3710 C   0  0  0  0  0  0  0  0  0  0  0  0
   18.5911  -23.4812  -11.6347 C   0  0  0  0  0  0  0  0  0  0  0  0
   19.0650  -23.4409  -12.9229 C   0  0  0  0  0  0  0  0  0  0  0  0
   18.2569  -23.1492  -14.0091 C   0  0  0  0  0  0  0  0  0  0  0  0
   18.7707  -23.1023  -15.3773 C   0  0  0  0  0  0  0  0  0  0  0  0
   19.1402  -21.6966  -15.8122 C   0  0  2  0  0  0  0  0  0  0  0  0
   20.3873  -21.3405  -15.1783 N   0  0  0  0  0  0  0  0  0  0  0  0
   18.1310  -20.6872  -15.4452 C   0  0  0  0  0  0  0  0  0  0  0  0
   18.3732  -19.7731  -14.6383 O   0  0  0  0  0  0  0  0  0  0  0  0
   16.9254  -22.8959  -13.7255 C   0  0  0  0  0  0  0  0  0  0  0  0
   16.4377  -22.9348  -12.4234 C   0  0  0  0  0  0  0  0  0  0  0  0
   16.8594  -20.7254  -15.9967 O   0  0  0  0  0  0  0  0  0  0  0  0
  2  1  1  0
  3  2  1  0
  3  4  2  0
  5  6  1  0
  7  6  1  6
  7  9  1  0
  8  7  1  0
  8  3  1  0
  9 18  1  0
  9 10  2  0
 12 11  1  0
 12 22  2  0
 13 12  1  0
 14 13  2  0
 14 15  1  0
 15 21  2  0
 16 15  1  0
 17 16  1  1
 18 17  1  0
 19 17  1  0
 20 19  2  0
 21 22  1  0
 23 19  1  0
M  END
$$$$
