GSY.pdb
     RDKit          3D

 23 23  0  0  1  0  0  0  0  0999 V2000
   26.5356  -26.4040  -15.8224 N   0  0  0  0  0  0  0  0  0  0  0  0
   26.4997  -25.7516  -17.0952 C   0  0  0  0  0  0  0  0  0  0  0  0
   26.5321  -24.2829  -16.9242 C   0  0  0  0  0  0  0  0  0  0  0  0
   26.9423  -23.8347  -15.8016 O   0  0  0  0  0  0  0  0  0  0  0  0
   25.4118  -21.6201  -19.9249 O   0  0  0  0  0  0  0  0  0  0  0  0
   26.2727  -21.1535  -18.9606 C   0  0  0  0  0  0  0  0  0  0  0  0
   26.2218  -21.9669  -17.6857 C   0  0  2  0  0  0  0  0  0  0  0  0
   26.1314  -23.3796  -17.9439 N   0  0  0  0  0  0  0  0  0  0  0  0
   24.9697  -21.5330  -16.9683 C   0  0  0  0  0  0  0  0  0  0  0  0
   23.9615  -22.2942  -16.9636 O   0  0  0  0  0  0  0  0  0  0  0  0
   24.5587  -21.9627   -9.6142 O   0  0  0  0  0  0  0  0  0  0  0  0
   24.4518  -21.2367  -10.8046 C   0  0  0  0  0  0  0  0  0  0  0  0
   23.2123  -21.0188  -11.3538 C   0  0  0  0  0  0  0  0  0  0  0  0
   23.0828  -20.3087  -12.5219 C   0  0  0  0  0  0  0  0  0  0  0  0
   24.1680  -19.7813  -13.2017 C   0  0  0  0  0  0  0  0  0  0  0  0
   24.0221  -19.0315  -14.4485 C   0  0  0  0  0  0  0  0  0  0  0  0
   23.6721  -19.9223  -15.6257 C   0  0  2  0  0  0  0  0  0  0  0  0
   24.8973  -20.2867  -16.2966 N   0  0  0  0  0  0  0  0  0  0  0  0
   22.7843  -19.2726  -16.6063 C   0  0  0  0  0  0  0  0  0  0  0  0
   23.2027  -18.8474  -17.6971 O   0  0  0  0  0  0  0  0  0  0  0  0
   25.4103  -20.0103  -12.6345 C   0  0  0  0  0  0  0  0  0  0  0  0
   25.5498  -20.7285  -11.4514 C   0  0  0  0  0  0  0  0  0  0  0  0
   21.4331  -19.1123  -16.3398 O   0  0  0  0  0  0  0  0  0  0  0  0
  2  1  1  0
  3  2  1  0
  3  4  2  0
  5  6  1  0
  7  6  1  6
  7  9  1  0
  8  7  1  0
  8  3  1  0
  9 18  1  0
  9 10  2  0
 12 11  1  0
 12 22  2  0
 13 12  1  0
 14 13  2  0
 14 15  1  0
 15 21  2  0
 16 15  1  0
 17 16  1  1
 18 17  1  0
 19 17  1  0
 20 19  2  0
 21 22  1  0
 23 19  1  0
M  END
$$$$
