GSY.pdb
     RDKit          3D

 23 23  0  0  1  0  0  0  0  0999 V2000
   17.5442  -12.5496  -16.8272 N   0  0  0  0  0  0  0  0  0  0  0  0
   17.0628  -11.2577  -17.2096 C   0  0  0  0  0  0  0  0  0  0  0  0
   18.1637  -10.4385  -17.7613 C   0  0  0  0  0  0  0  0  0  0  0  0
   19.0891  -11.0521  -18.3909 O   0  0  0  0  0  0  0  0  0  0  0  0
   17.7713   -7.0087  -19.4859 O   0  0  0  0  0  0  0  0  0  0  0  0
   18.9660   -7.6866  -19.5284 C   0  0  0  0  0  0  0  0  0  0  0  0
   19.3284   -8.3198  -18.2028 C   0  0  2  0  0  0  0  0  0  0  0  0
   18.2211   -9.0272  -17.6160 N   0  0  0  0  0  0  0  0  0  0  0  0
   19.7037   -7.1814  -17.2897 C   0  0  0  0  0  0  0  0  0  0  0  0
   18.8038   -6.5991  -16.6213 O   0  0  0  0  0  0  0  0  0  0  0  0
   19.4135   -8.9009  -11.1751 O   0  0  0  0  0  0  0  0  0  0  0  0
   20.1277   -8.2236  -12.1686 C   0  0  0  0  0  0  0  0  0  0  0  0
   19.7710   -6.9398  -12.5003 C   0  0  0  0  0  0  0  0  0  0  0  0
   20.4577   -6.2550  -13.4725 C   0  0  0  0  0  0  0  0  0  0  0  0
   21.5263   -6.8037  -14.1616 C   0  0  0  0  0  0  0  0  0  0  0  0
   22.2485   -6.0699  -15.1999 C   0  0  0  0  0  0  0  0  0  0  0  0
   21.3409   -5.6096  -16.3253 C   0  0  2  0  0  0  0  0  0  0  0  0
   21.0476   -6.7478  -17.1634 N   0  0  0  0  0  0  0  0  0  0  0  0
   21.9406   -4.5589  -17.1668 C   0  0  0  0  0  0  0  0  0  0  0  0
   22.3042   -3.4654  -16.7003 O   0  0  0  0  0  0  0  0  0  0  0  0
   21.8727   -8.0989  -13.8149 C   0  0  0  0  0  0  0  0  0  0  0  0
   21.1821   -8.7991  -12.8312 C   0  0  0  0  0  0  0  0  0  0  0  0
   22.1215   -4.7593  -18.5268 O   0  0  0  0  0  0  0  0  0  0  0  0
  2  1  1  0
  3  2  1  0
  3  4  2  0
  5  6  1  0
  7  6  1  6
  7  9  1  0
  8  7  1  0
  8  3  1  0
  9 18  1  0
  9 10  2  0
 12 11  1  0
 12 22  2  0
 13 12  1  0
 14 13  2  0
 14 15  1  0
 15 21  2  0
 16 15  1  0
 17 16  1  1
 18 17  1  0
 19 17  1  0
 20 19  2  0
 21 22  1  0
 23 19  1  0
M  END
$$$$
