GSY.pdb
     RDKit          3D

 23 23  0  0  1  0  0  0  0  0999 V2000
   25.1273  -14.9321  -17.4700 N   0  0  0  0  0  0  0  0  0  0  0  0
   25.7168  -13.9103  -18.2797 C   0  0  0  0  0  0  0  0  0  0  0  0
   25.8684  -12.6599  -17.5044 C   0  0  0  0  0  0  0  0  0  0  0  0
   25.1015  -12.5012  -16.4965 O   0  0  0  0  0  0  0  0  0  0  0  0
   27.9654   -8.3476  -16.7455 O   0  0  0  0  0  0  0  0  0  0  0  0
   27.9805   -9.5380  -17.4321 C   0  0  0  0  0  0  0  0  0  0  0  0
   26.7936  -10.4180  -17.1062 C   0  0  2  0  0  0  0  0  0  0  0  0
   26.8163  -11.6567  -17.8384 N   0  0  0  0  0  0  0  0  0  0  0  0
   25.5739   -9.6392  -17.5262 C   0  0  0  0  0  0  0  0  0  0  0  0
   25.2831   -9.5547  -18.7526 O   0  0  0  0  0  0  0  0  0  0  0  0
   17.7360   -9.1113  -19.6176 O   0  0  0  0  0  0  0  0  0  0  0  0
   18.8678   -9.0411  -18.7993 C   0  0  0  0  0  0  0  0  0  0  0  0
   19.7515  -10.0919  -18.7775 C   0  0  0  0  0  0  0  0  0  0  0  0
   20.8698  -10.0454  -17.9819 C   0  0  0  0  0  0  0  0  0  0  0  0
   21.1680   -8.9623  -17.1722 C   0  0  0  0  0  0  0  0  0  0  0  0
   22.3578   -8.9232  -16.3231 C   0  0  0  0  0  0  0  0  0  0  0  0
   23.5554   -8.3134  -17.0273 C   0  0  2  0  0  0  0  0  0  0  0  0
   24.7429   -8.9973  -16.5736 N   0  0  0  0  0  0  0  0  0  0  0  0
   23.7205   -6.8738  -16.7584 C   0  0  0  0  0  0  0  0  0  0  0  0
   22.8694   -6.0352  -17.1016 O   0  0  0  0  0  0  0  0  0  0  0  0
   20.2666   -7.9116  -17.2060 C   0  0  0  0  0  0  0  0  0  0  0  0
   19.1317   -7.9510  -18.0093 C   0  0  0  0  0  0  0  0  0  0  0  0
   24.8479   -6.4013  -16.1039 O   0  0  0  0  0  0  0  0  0  0  0  0
  2  1  1  0
  3  2  1  0
  3  4  2  0
  5  6  1  0
  7  6  1  6
  7  9  1  0
  8  7  1  0
  8  3  1  0
  9 18  1  0
  9 10  2  0
 12 11  1  0
 12 22  2  0
 13 12  1  0
 14 13  2  0
 14 15  1  0
 15 21  2  0
 16 15  1  0
 17 16  1  1
 18 17  1  0
 19 17  1  0
 20 19  2  0
 21 22  1  0
 23 19  1  0
M  END
$$$$
