GSY.pdb
     RDKit          3D

 23 23  0  0  1  0  0  0  0  0999 V2000
   28.6158  -21.5658  -17.0873 N   0  0  0  0  0  0  0  0  0  0  0  0
   27.2251  -21.5092  -16.7557 C   0  0  0  0  0  0  0  0  0  0  0  0
   27.0247  -20.7635  -15.4942 C   0  0  0  0  0  0  0  0  0  0  0  0
   28.0608  -20.2656  -14.9394 O   0  0  0  0  0  0  0  0  0  0  0  0
   23.2707  -20.1307  -13.5928 O   0  0  0  0  0  0  0  0  0  0  0  0
   24.2582  -19.1756  -13.5587 C   0  0  0  0  0  0  0  0  0  0  0  0
   25.6443  -19.7589  -13.7263 C   0  0  2  0  0  0  0  0  0  0  0  0
   25.7482  -20.5892  -14.8970 N   0  0  0  0  0  0  0  0  0  0  0  0
   25.8809  -20.6179  -12.5110 C   0  0  0  0  0  0  0  0  0  0  0  0
   25.6580  -21.8596  -12.5755 O   0  0  0  0  0  0  0  0  0  0  0  0
   27.5167  -19.2024   -4.0714 O   0  0  0  0  0  0  0  0  0  0  0  0
   27.6266  -19.5607   -5.4186 C   0  0  0  0  0  0  0  0  0  0  0  0
   27.5101  -18.5935   -6.3863 C   0  0  0  0  0  0  0  0  0  0  0  0
   27.6146  -18.9216   -7.7156 C   0  0  0  0  0  0  0  0  0  0  0  0
   27.8386  -20.2168   -8.1516 C   0  0  0  0  0  0  0  0  0  0  0  0
   27.9425  -20.5589   -9.5695 C   0  0  0  0  0  0  0  0  0  0  0  0
   26.6048  -20.9396  -10.1758 C   0  0  2  0  0  0  0  0  0  0  0  0
   26.3494  -20.0626  -11.2936 N   0  0  0  0  0  0  0  0  0  0  0  0
   25.4803  -20.8221   -9.2305 C   0  0  0  0  0  0  0  0  0  0  0  0
   24.6884  -19.8643   -9.2607 O   0  0  0  0  0  0  0  0  0  0  0  0
   27.9535  -21.1797   -7.1631 C   0  0  0  0  0  0  0  0  0  0  0  0
   27.8488  -20.8553   -5.8145 C   0  0  0  0  0  0  0  0  0  0  0  0
   25.2662  -21.7911   -8.2621 O   0  0  0  0  0  0  0  0  0  0  0  0
  2  1  1  0
  3  2  1  0
  3  4  2  0
  5  6  1  0
  7  6  1  1
  7  9  1  0
  8  7  1  0
  8  3  1  0
  9 18  1  0
  9 10  2  0
 12 11  1  0
 12 22  2  0
 13 12  1  0
 14 13  2  0
 14 15  1  0
 15 21  2  0
 16 15  1  0
 17 16  1  1
 18 17  1  0
 19 17  1  0
 20 19  2  0
 21 22  1  0
 23 19  1  0
M  END
$$$$
