GSY.pdb
     RDKit          3D

 23 23  0  0  1  0  0  0  0  0999 V2000
   28.6695  -24.0240  -16.3547 N   0  0  0  0  0  0  0  0  0  0  0  0
   27.3944  -24.5933  -16.0426 C   0  0  0  0  0  0  0  0  0  0  0  0
   26.3382  -23.5598  -16.1040 C   0  0  0  0  0  0  0  0  0  0  0  0
   26.7157  -22.3435  -16.1900 O   0  0  0  0  0  0  0  0  0  0  0  0
   22.3709  -24.4323  -16.8641 O   0  0  0  0  0  0  0  0  0  0  0  0
   22.8398  -23.1604  -17.0898 C   0  0  0  0  0  0  0  0  0  0  0  0
   24.0037  -22.7968  -16.1940 C   0  0  2  0  0  0  0  0  0  0  0  0
   24.9532  -23.8711  -16.0712 N   0  0  0  0  0  0  0  0  0  0  0  0
   23.4110  -22.5277  -14.8349 C   0  0  0  0  0  0  0  0  0  0  0  0
   23.4165  -23.4418  -13.9632 O   0  0  0  0  0  0  0  0  0  0  0  0
   27.7608  -21.2920   -9.8285 O   0  0  0  0  0  0  0  0  0  0  0  0
   26.6008  -20.9419  -10.5265 C   0  0  0  0  0  0  0  0  0  0  0  0
   25.4620  -20.6251   -9.8279 C   0  0  0  0  0  0  0  0  0  0  0  0
   24.3111  -20.2782  -10.4917 C   0  0  0  0  0  0  0  0  0  0  0  0
   24.2300  -20.2276  -11.8733 C   0  0  0  0  0  0  0  0  0  0  0  0
   22.9988  -19.8632  -12.5728 C   0  0  0  0  0  0  0  0  0  0  0  0
   22.3034  -21.0622  -13.1898 C   0  0  2  0  0  0  0  0  0  0  0  0
   22.8457  -21.2683  -14.5116 N   0  0  0  0  0  0  0  0  0  0  0  0
   20.8444  -20.8930  -13.3106 C   0  0  0  0  0  0  0  0  0  0  0  0
   20.2869  -20.7252  -14.4091 O   0  0  0  0  0  0  0  0  0  0  0  0
   25.3871  -20.5501  -12.5623 C   0  0  0  0  0  0  0  0  0  0  0  0
   26.5568  -20.9024  -11.8971 C   0  0  0  0  0  0  0  0  0  0  0  0
   20.0342  -20.9159  -12.1857 O   0  0  0  0  0  0  0  0  0  0  0  0
  2  1  1  0
  3  2  1  0
  3  4  2  0
  5  6  1  0
  7  6  1  6
  7  9  1  0
  8  7  1  0
  8  3  1  0
  9 18  1  0
  9 10  2  0
 12 11  1  0
 12 22  2  0
 13 12  1  0
 14 13  2  0
 14 15  1  0
 15 21  2  0
 16 15  1  0
 17 16  1  6
 18 17  1  0
 19 17  1  0
 20 19  2  0
 21 22  1  0
 23 19  1  0
M  END
$$$$
