GSY.pdb
     RDKit          3D

 23 23  0  0  1  0  0  0  0  0999 V2000
   20.5158  -14.6070  -16.0321 N   0  0  0  0  0  0  0  0  0  0  0  0
   20.4692  -13.4259  -16.8383 C   0  0  0  0  0  0  0  0  0  0  0  0
   20.8529  -12.2407  -16.0412 C   0  0  0  0  0  0  0  0  0  0  0  0
   19.9732  -11.7580  -15.2522 O   0  0  0  0  0  0  0  0  0  0  0  0
   24.5357  -10.8130  -14.4638 O   0  0  0  0  0  0  0  0  0  0  0  0
   23.8327  -10.0433  -15.3593 C   0  0  0  0  0  0  0  0  0  0  0  0
   22.3649  -10.4058  -15.4188 C   0  0  2  0  0  0  0  0  0  0  0  0
   22.1364  -11.6390  -16.1245 N   0  0  0  0  0  0  0  0  0  0  0  0
   21.6943   -9.2910  -16.1791 C   0  0  0  0  0  0  0  0  0  0  0  0
   21.7857   -9.2557  -17.4385 O   0  0  0  0  0  0  0  0  0  0  0  0
   16.1800   -2.8353  -18.4072 O   0  0  0  0  0  0  0  0  0  0  0  0
   16.8429   -3.9221  -17.8283 C   0  0  0  0  0  0  0  0  0  0  0  0
   17.0229   -3.9563  -16.4675 C   0  0  0  0  0  0  0  0  0  0  0  0
   17.6707   -5.0132  -15.8767 C   0  0  0  0  0  0  0  0  0  0  0  0
   18.1703   -6.0837  -16.5994 C   0  0  0  0  0  0  0  0  0  0  0  0
   18.8644   -7.2024  -15.9633 C   0  0  0  0  0  0  0  0  0  0  0  0
   20.3459   -7.2293  -16.2895 C   0  0  2  0  0  0  0  0  0  0  0  0
   20.9611   -8.2779  -15.5112 N   0  0  0  0  0  0  0  0  0  0  0  0
   21.0345   -5.9628  -15.9836 C   0  0  0  0  0  0  0  0  0  0  0  0
   20.9354   -4.9627  -16.7155 O   0  0  0  0  0  0  0  0  0  0  0  0
   17.9804   -6.0332  -17.9702 C   0  0  0  0  0  0  0  0  0  0  0  0
   17.3252   -4.9662  -18.5761 C   0  0  0  0  0  0  0  0  0  0  0  0
   21.8271   -5.8440  -14.8521 O   0  0  0  0  0  0  0  0  0  0  0  0
  2  1  1  0
  3  2  1  0
  3  4  2  0
  5  6  1  0
  7  6  1  6
  7  9  1  0
  8  7  1  0
  8  3  1  0
  9 18  1  0
  9 10  2  0
 12 11  1  0
 12 22  2  0
 13 12  1  0
 14 13  2  0
 14 15  1  0
 15 21  2  0
 16 15  1  0
 17 16  1  1
 18 17  1  0
 19 17  1  0
 20 19  2  0
 21 22  1  0
 23 19  1  0
M  END
$$$$
