GSY.pdb
     RDKit          3D

 23 23  0  0  1  0  0  0  0  0999 V2000
   16.6380  -14.6055  -14.3092 N   0  0  0  0  0  0  0  0  0  0  0  0
   16.7531  -13.5413  -15.2586 C   0  0  0  0  0  0  0  0  0  0  0  0
   17.3742  -12.3544  -14.6316 C   0  0  0  0  0  0  0  0  0  0  0  0
   17.6575  -12.4313  -13.3893 O   0  0  0  0  0  0  0  0  0  0  0  0
   20.0916   -9.5874  -15.9890 O   0  0  0  0  0  0  0  0  0  0  0  0
   18.9116   -9.0634  -15.5180 C   0  0  0  0  0  0  0  0  0  0  0  0
   18.1577  -10.0250  -14.6256 C   0  0  2  0  0  0  0  0  0  0  0  0
   17.6577  -11.1632  -15.3505 N   0  0  0  0  0  0  0  0  0  0  0  0
   16.9829   -9.2519  -14.0843 C   0  0  0  0  0  0  0  0  0  0  0  0
   15.9402   -9.1340  -14.7874 O   0  0  0  0  0  0  0  0  0  0  0  0
   12.1064  -13.0286  -11.3661 O   0  0  0  0  0  0  0  0  0  0  0  0
   12.9144  -11.8908  -11.2750 C   0  0  0  0  0  0  0  0  0  0  0  0
   14.2689  -12.0365  -11.1035 C   0  0  0  0  0  0  0  0  0  0  0  0
   15.0821  -10.9338  -11.0115 C   0  0  0  0  0  0  0  0  0  0  0  0
   14.5980   -9.6384  -11.0842 C   0  0  0  0  0  0  0  0  0  0  0  0
   15.4700   -8.4693  -10.9792 C   0  0  0  0  0  0  0  0  0  0  0  0
   15.8694   -7.9176  -12.3349 C   0  0  2  0  0  0  0  0  0  0  0  0
   17.0216   -8.6522  -12.8002 N   0  0  0  0  0  0  0  0  0  0  0  0
   16.2166   -6.4857  -12.3036 C   0  0  0  0  0  0  0  0  0  0  0  0
   15.4019   -5.6153  -11.9509 O   0  0  0  0  0  0  0  0  0  0  0  0
   13.2301   -9.5094  -11.2571 C   0  0  0  0  0  0  0  0  0  0  0  0
   12.3998  -10.6214  -11.3513 C   0  0  0  0  0  0  0  0  0  0  0  0
   17.4825   -6.0566  -12.6724 O   0  0  0  0  0  0  0  0  0  0  0  0
  2  1  1  0
  3  2  1  0
  3  4  2  0
  5  6  1  0
  7  6  1  6
  7  9  1  0
  8  7  1  0
  8  3  1  0
  9 18  1  0
  9 10  2  0
 12 11  1  0
 12 22  2  0
 13 12  1  0
 14 13  2  0
 14 15  1  0
 15 21  2  0
 16 15  1  0
 17 16  1  1
 18 17  1  0
 19 17  1  0
 20 19  2  0
 21 22  1  0
 23 19  1  0
M  END
$$$$
