GSY.pdb
     RDKit          3D

 23 23  0  0  1  0  0  0  0  0999 V2000
   20.2946  -13.1216  -17.8367 N   0  0  0  0  0  0  0  0  0  0  0  0
   21.0162  -11.9198  -18.1236 C   0  0  0  0  0  0  0  0  0  0  0  0
   21.1175  -11.0764  -16.9129 C   0  0  0  0  0  0  0  0  0  0  0  0
   20.0323  -10.5945  -16.4445 O   0  0  0  0  0  0  0  0  0  0  0  0
   24.6889  -10.4596  -14.8953 O   0  0  0  0  0  0  0  0  0  0  0  0
   23.5284  -10.2249  -14.1977 C   0  0  0  0  0  0  0  0  0  0  0  0
   22.3447   -9.9571  -15.1015 C   0  0  2  0  0  0  0  0  0  0  0  0
   22.3528  -10.7938  -16.2723 N   0  0  0  0  0  0  0  0  0  0  0  0
   22.4768   -8.5219  -15.5411 C   0  0  0  0  0  0  0  0  0  0  0  0
   23.1797   -8.2449  -16.5535 O   0  0  0  0  0  0  0  0  0  0  0  0
   19.3637   -7.8774  -20.8702 O   0  0  0  0  0  0  0  0  0  0  0  0
   19.6682   -7.3366  -19.6170 C   0  0  0  0  0  0  0  0  0  0  0  0
   20.5473   -6.2853  -19.5308 C   0  0  0  0  0  0  0  0  0  0  0  0
   20.8614   -5.7380  -18.3112 C   0  0  0  0  0  0  0  0  0  0  0  0
   20.3240   -6.2013  -17.1219 C   0  0  0  0  0  0  0  0  0  0  0  0
   20.6685   -5.6169  -15.8266 C   0  0  0  0  0  0  0  0  0  0  0  0
   22.0015   -6.1143  -15.2998 C   0  0  2  0  0  0  0  0  0  0  0  0
   21.8283   -7.4725  -14.8425 N   0  0  0  0  0  0  0  0  0  0  0  0
   22.5224   -5.3124  -14.1783 C   0  0  0  0  0  0  0  0  0  0  0  0
   22.7353   -5.8044  -13.0566 O   0  0  0  0  0  0  0  0  0  0  0  0
   19.4397   -7.2618  -17.2268 C   0  0  0  0  0  0  0  0  0  0  0  0
   19.1164   -7.8216  -18.4584 C   0  0  0  0  0  0  0  0  0  0  0  0
   22.7959   -3.9629  -14.3408 O   0  0  0  0  0  0  0  0  0  0  0  0
  2  1  1  0
  3  2  1  0
  3  4  2  0
  5  6  1  0
  7  6  1  1
  7  9  1  0
  8  7  1  0
  8  3  1  0
  9 18  1  0
  9 10  2  0
 12 11  1  0
 12 22  2  0
 13 12  1  0
 14 13  2  0
 14 15  1  0
 15 21  2  0
 16 15  1  0
 17 16  1  1
 18 17  1  0
 19 17  1  0
 20 19  2  0
 21 22  1  0
 23 19  1  0
M  END
$$$$
