GSY.pdb
     RDKit          3D

 23 23  0  0  1  0  0  0  0  0999 V2000
   19.2158  -24.2554  -14.0935 N   0  0  0  0  0  0  0  0  0  0  0  0
   20.0065  -23.3155  -14.8274 C   0  0  0  0  0  0  0  0  0  0  0  0
   21.4438  -23.5140  -14.5403 C   0  0  0  0  0  0  0  0  0  0  0  0
   21.7443  -24.2959  -13.5772 O   0  0  0  0  0  0  0  0  0  0  0  0
   26.0914  -23.2222  -15.7781 O   0  0  0  0  0  0  0  0  0  0  0  0
   24.7911  -22.8959  -16.0803 C   0  0  0  0  0  0  0  0  0  0  0  0
   23.8419  -23.1409  -14.9276 C   0  0  2  0  0  0  0  0  0  0  0  0
   22.4727  -22.8779  -15.2840 N   0  0  0  0  0  0  0  0  0  0  0  0
   24.2466  -22.1729  -13.8460 C   0  0  0  0  0  0  0  0  0  0  0  0
   23.7864  -20.9966  -13.8616 O   0  0  0  0  0  0  0  0  0  0  0  0
   27.6386  -18.7044   -6.4941 O   0  0  0  0  0  0  0  0  0  0  0  0
   27.2949  -19.5853   -7.5244 C   0  0  0  0  0  0  0  0  0  0  0  0
   25.9734  -19.8900   -7.7396 C   0  0  0  0  0  0  0  0  0  0  0  0
   25.6120  -20.7522   -8.7454 C   0  0  0  0  0  0  0  0  0  0  0  0
   26.5356  -21.3531   -9.5842 C   0  0  0  0  0  0  0  0  0  0  0  0
   26.1430  -22.2750  -10.6491 C   0  0  0  0  0  0  0  0  0  0  0  0
   25.5672  -21.5585  -11.8562 C   0  0  2  0  0  0  0  0  0  0  0  0
   25.1345  -22.5535  -12.8084 N   0  0  0  0  0  0  0  0  0  0  0  0
   26.5345  -20.6699  -12.5244 C   0  0  0  0  0  0  0  0  0  0  0  0
   26.5193  -19.4370  -12.3652 O   0  0  0  0  0  0  0  0  0  0  0  0
   27.8635  -21.0352   -9.3535 C   0  0  0  0  0  0  0  0  0  0  0  0
   28.2376  -20.1626   -8.3368 C   0  0  0  0  0  0  0  0  0  0  0  0
   27.5076  -21.1884  -13.3652 O   0  0  0  0  0  0  0  0  0  0  0  0
  2  1  1  0
  3  2  1  0
  3  4  2  0
  5  6  1  0
  7  6  1  6
  7  9  1  0
  8  7  1  0
  8  3  1  0
  9 18  1  0
  9 10  2  0
 12 11  1  0
 12 22  2  0
 13 12  1  0
 14 13  2  0
 14 15  1  0
 15 21  2  0
 16 15  1  0
 17 16  1  1
 18 17  1  0
 19 17  1  0
 20 19  2  0
 21 22  1  0
 23 19  1  0
M  END
$$$$
