GSY.pdb
     RDKit          3D

 23 23  0  0  1  0  0  0  0  0999 V2000
   14.9341   -3.7704  -17.1903 N   0  0  0  0  0  0  0  0  0  0  0  0
   14.7497   -3.2542  -15.8687 C   0  0  0  0  0  0  0  0  0  0  0  0
   14.7101   -4.3570  -14.8840 C   0  0  0  0  0  0  0  0  0  0  0  0
   13.8123   -4.2994  -13.9786 O   0  0  0  0  0  0  0  0  0  0  0  0
   15.8037   -8.4990  -15.0659 O   0  0  0  0  0  0  0  0  0  0  0  0
   16.3929   -7.6493  -14.1607 C   0  0  0  0  0  0  0  0  0  0  0  0
   15.5468   -6.4305  -13.8637 C   0  0  2  0  0  0  0  0  0  0  0  0
   15.6167   -5.4495  -14.9143 N   0  0  0  0  0  0  0  0  0  0  0  0
   16.1201   -5.8252  -12.6084 C   0  0  0  0  0  0  0  0  0  0  0  0
   17.0231   -4.9465  -12.6992 O   0  0  0  0  0  0  0  0  0  0  0  0
   11.7525   -9.7015   -8.0799 O   0  0  0  0  0  0  0  0  0  0  0  0
   12.5163   -8.5752   -8.4016 C   0  0  0  0  0  0  0  0  0  0  0  0
   13.6907   -8.3412   -7.7297 C   0  0  0  0  0  0  0  0  0  0  0  0
   14.4573   -7.2418   -8.0286 C   0  0  0  0  0  0  0  0  0  0  0  0
   14.1017   -6.3235   -9.0023 C   0  0  0  0  0  0  0  0  0  0  0  0
   14.9206   -5.1519   -9.3103 C   0  0  0  0  0  0  0  0  0  0  0  0
   16.1268   -5.4933  -10.1650 C   0  0  2  0  0  0  0  0  0  0  0  0
   15.6677   -6.2207  -11.3243 N   0  0  0  0  0  0  0  0  0  0  0  0
   17.1233   -6.3227   -9.4643 C   0  0  0  0  0  0  0  0  0  0  0  0
   17.3756   -7.4890   -9.8131 O   0  0  0  0  0  0  0  0  0  0  0  0
   12.9147   -6.5743   -9.6700 C   0  0  0  0  0  0  0  0  0  0  0  0
   12.1328   -7.6857   -9.3731 C   0  0  0  0  0  0  0  0  0  0  0  0
   17.8221   -5.8212   -8.3769 O   0  0  0  0  0  0  0  0  0  0  0  0
  2  1  1  0
  3  2  1  0
  3  4  2  0
  5  6  1  0
  7  6  1  6
  7  9  1  0
  8  7  1  0
  8  3  1  0
  9 18  1  0
  9 10  2  0
 12 11  1  0
 12 22  2  0
 13 12  1  0
 14 13  2  0
 14 15  1  0
 15 21  2  0
 16 15  1  0
 17 16  1  1
 18 17  1  0
 19 17  1  0
 20 19  2  0
 21 22  1  0
 23 19  1  0
M  END
$$$$
