GSY.pdb
     RDKit          3D

 23 23  0  0  1  0  0  0  0  0999 V2000
   25.3214  -13.9004  -15.1116 N   0  0  0  0  0  0  0  0  0  0  0  0
   26.2389  -14.9928  -15.2200 C   0  0  0  0  0  0  0  0  0  0  0  0
   25.5696  -16.1733  -15.8083 C   0  0  0  0  0  0  0  0  0  0  0  0
   24.3347  -16.0550  -16.1086 O   0  0  0  0  0  0  0  0  0  0  0  0
   27.4260  -19.0430  -18.0423 O   0  0  0  0  0  0  0  0  0  0  0  0
   26.4434  -19.5422  -17.2214 C   0  0  0  0  0  0  0  0  0  0  0  0
   25.5211  -18.4670  -16.6897 C   0  0  2  0  0  0  0  0  0  0  0  0
   26.2413  -17.4022  -16.0430 N   0  0  0  0  0  0  0  0  0  0  0  0
   24.6472  -19.1420  -15.6643 C   0  0  0  0  0  0  0  0  0  0  0  0
   25.0262  -19.1893  -14.4602 O   0  0  0  0  0  0  0  0  0  0  0  0
   17.8659  -20.7077  -10.6274 O   0  0  0  0  0  0  0  0  0  0  0  0
   18.8798  -20.3067  -11.5030 C   0  0  0  0  0  0  0  0  0  0  0  0
   18.5626  -19.9757  -12.7973 C   0  0  0  0  0  0  0  0  0  0  0  0
   19.5414  -19.5790  -13.6750 C   0  0  0  0  0  0  0  0  0  0  0  0
   20.8764  -19.4906  -13.3175 C   0  0  0  0  0  0  0  0  0  0  0  0
   21.9135  -19.0732  -14.2599 C   0  0  0  0  0  0  0  0  0  0  0  0
   22.5510  -20.2463  -14.9807 C   0  0  2  0  0  0  0  0  0  0  0  0
   23.4060  -19.7267  -16.0213 N   0  0  0  0  0  0  0  0  0  0  0  0
   21.5697  -21.1546  -15.6000 C   0  0  0  0  0  0  0  0  0  0  0  0
   21.0993  -20.9473  -16.7320 O   0  0  0  0  0  0  0  0  0  0  0  0
   21.1790  -19.8281  -12.0090 C   0  0  0  0  0  0  0  0  0  0  0  0
   20.1932  -20.2307  -11.1140 C   0  0  0  0  0  0  0  0  0  0  0  0
   21.1327  -22.2870  -14.9298 O   0  0  0  0  0  0  0  0  0  0  0  0
  2  1  1  0
  3  2  1  0
  3  4  2  0
  5  6  1  0
  7  6  1  1
  7  9  1  0
  8  7  1  0
  8  3  1  0
  9 18  1  0
  9 10  2  0
 12 11  1  0
 12 22  2  0
 13 12  1  0
 14 13  2  0
 14 15  1  0
 15 21  2  0
 16 15  1  0
 17 16  1  6
 18 17  1  0
 19 17  1  0
 20 19  2  0
 21 22  1  0
 23 19  1  0
M  END
$$$$
