GSY.pdb
     RDKit          3D

 23 23  0  0  1  0  0  0  0  0999 V2000
   25.9404  -32.7234   -9.2560 N   0  0  0  0  0  0  0  0  0  0  0  0
   25.3475  -33.0054   -7.9847 C   0  0  0  0  0  0  0  0  0  0  0  0
   26.3695  -32.9606   -6.9166 C   0  0  0  0  0  0  0  0  0  0  0  0
   27.5712  -32.7125   -7.2683 O   0  0  0  0  0  0  0  0  0  0  0  0
   25.5126  -33.9413   -2.9970 O   0  0  0  0  0  0  0  0  0  0  0  0
   26.6336  -33.1639   -3.1635 C   0  0  0  0  0  0  0  0  0  0  0  0
   27.1372  -33.1591   -4.5904 C   0  0  2  0  0  0  0  0  0  0  0  0
   26.0629  -33.1795   -5.5475 N   0  0  0  0  0  0  0  0  0  0  0  0
   27.9405  -34.4240   -4.7494 C   0  0  0  0  0  0  0  0  0  0  0  0
   27.4143  -35.4275   -5.3078 O   0  0  0  0  0  0  0  0  0  0  0  0
   33.6580  -31.9233   -8.2410 O   0  0  0  0  0  0  0  0  0  0  0  0
   32.8240  -32.9060   -7.6984 C   0  0  0  0  0  0  0  0  0  0  0  0
   31.4647  -32.7118   -7.6956 C   0  0  0  0  0  0  0  0  0  0  0  0
   30.6261  -33.6628   -7.1684 C   0  0  0  0  0  0  0  0  0  0  0  0
   31.0884  -34.8476   -6.6204 C   0  0  0  0  0  0  0  0  0  0  0  0
   30.1890  -35.8526   -6.0553 C   0  0  0  0  0  0  0  0  0  0  0  0
   30.0327  -35.7144   -4.5525 C   0  0  2  0  0  0  0  0  0  0  0  0
   29.2771  -34.5137   -4.2853 N   0  0  0  0  0  0  0  0  0  0  0  0
   31.3180  -35.6197   -3.8377 C   0  0  0  0  0  0  0  0  0  0  0  0
   32.1348  -36.5567   -3.8192 O   0  0  0  0  0  0  0  0  0  0  0  0
   32.4614  -35.0274   -6.6310 C   0  0  0  0  0  0  0  0  0  0  0  0
   33.3175  -34.0688   -7.1633 C   0  0  0  0  0  0  0  0  0  0  0  0
   31.6628  -34.4647   -3.1524 O   0  0  0  0  0  0  0  0  0  0  0  0
  2  1  1  0
  3  2  1  0
  3  4  2  0
  5  6  1  0
  7  6  1  1
  7  9  1  0
  8  7  1  0
  8  3  1  0
  9 18  1  0
  9 10  2  0
 12 11  1  0
 12 22  2  0
 13 12  1  0
 14 13  2  0
 14 15  1  0
 15 21  2  0
 16 15  1  0
 17 16  1  6
 18 17  1  0
 19 17  1  0
 20 19  2  0
 21 22  1  0
 23 19  1  0
M  END
$$$$
