GSY.pdb
     RDKit          3D

 23 23  0  0  1  0  0  0  0  0999 V2000
   22.9867  -20.6874  -14.4799 N   0  0  0  0  0  0  0  0  0  0  0  0
   22.6246  -22.0378  -14.7844 C   0  0  0  0  0  0  0  0  0  0  0  0
   21.3666  -22.4028  -14.0976 C   0  0  0  0  0  0  0  0  0  0  0  0
   20.9708  -21.6355  -13.1574 O   0  0  0  0  0  0  0  0  0  0  0  0
   18.0775  -23.3355  -15.8076 O   0  0  0  0  0  0  0  0  0  0  0  0
   18.2680  -24.2137  -14.7678 C   0  0  0  0  0  0  0  0  0  0  0  0
   19.3348  -23.7528  -13.7988 C   0  0  2  0  0  0  0  0  0  0  0  0
   20.6056  -23.5507  -14.4430 N   0  0  0  0  0  0  0  0  0  0  0  0
   19.4837  -24.8620  -12.7897 C   0  0  0  0  0  0  0  0  0  0  0  0
   20.2836  -25.8112  -13.0242 O   0  0  0  0  0  0  0  0  0  0  0  0
   13.6666  -23.1783   -8.3050 O   0  0  0  0  0  0  0  0  0  0  0  0
   14.9558  -23.6661   -8.5411 C   0  0  0  0  0  0  0  0  0  0  0  0
   15.2753  -24.9445   -8.1549 C   0  0  0  0  0  0  0  0  0  0  0  0
   16.5347  -25.4451   -8.3765 C   0  0  0  0  0  0  0  0  0  0  0  0
   17.5358  -24.7093   -8.9883 C   0  0  0  0  0  0  0  0  0  0  0  0
   18.8763  -25.2476   -9.2151 C   0  0  0  0  0  0  0  0  0  0  0  0
   19.0268  -25.8748  -10.5883 C   0  0  2  0  0  0  0  0  0  0  0  0
   18.7446  -24.8645  -11.5800 N   0  0  0  0  0  0  0  0  0  0  0  0
   18.1159  -27.0110  -10.8146 C   0  0  0  0  0  0  0  0  0  0  0  0
   18.2344  -28.0859  -10.2012 O   0  0  0  0  0  0  0  0  0  0  0  0
   17.1969  -23.4224   -9.3712 C   0  0  0  0  0  0  0  0  0  0  0  0
   15.9234  -22.9081   -9.1504 C   0  0  0  0  0  0  0  0  0  0  0  0
   17.0816  -26.9163  -11.7331 O   0  0  0  0  0  0  0  0  0  0  0  0
  2  1  1  0
  3  2  1  0
  3  4  2  0
  5  6  1  0
  7  6  1  6
  7  9  1  0
  8  7  1  0
  8  3  1  0
  9 18  1  0
  9 10  2  0
 12 11  1  0
 12 22  2  0
 13 12  1  0
 14 13  2  0
 14 15  1  0
 15 21  2  0
 16 15  1  0
 17 16  1  1
 18 17  1  0
 19 17  1  0
 20 19  2  0
 21 22  1  0
 23 19  1  0
M  END
$$$$
