GSY.pdb
     RDKit          3D

 23 23  0  0  1  0  0  0  0  0999 V2000
   24.4485  -19.6945  -14.6421 N   0  0  0  0  0  0  0  0  0  0  0  0
   25.1092  -18.9535  -15.6724 C   0  0  0  0  0  0  0  0  0  0  0  0
   25.0254  -17.5022  -15.4001 C   0  0  0  0  0  0  0  0  0  0  0  0
   24.1702  -17.1193  -14.5332 O   0  0  0  0  0  0  0  0  0  0  0  0
   26.6618  -12.9896  -15.6814 O   0  0  0  0  0  0  0  0  0  0  0  0
   26.8829  -14.3349  -15.8542 C   0  0  0  0  0  0  0  0  0  0  0  0
   25.6088  -15.1496  -15.8061 C   0  0  2  0  0  0  0  0  0  0  0  0
   25.8456  -16.5468  -16.0563 N   0  0  0  0  0  0  0  0  0  0  0  0
   24.7319  -14.6109  -16.9068 C   0  0  0  0  0  0  0  0  0  0  0  0
   24.9109  -15.0066  -18.0929 O   0  0  0  0  0  0  0  0  0  0  0  0
   17.9765  -15.7900  -14.7534 O   0  0  0  0  0  0  0  0  0  0  0  0
   19.0016  -15.4123  -15.6263 C   0  0  0  0  0  0  0  0  0  0  0  0
   18.8685  -14.2641  -16.3675 C   0  0  0  0  0  0  0  0  0  0  0  0
   19.8620  -13.8731  -17.2311 C   0  0  0  0  0  0  0  0  0  0  0  0
   21.0310  -14.5953  -17.4036 C   0  0  0  0  0  0  0  0  0  0  0  0
   22.0815  -14.1754  -18.3300 C   0  0  0  0  0  0  0  0  0  0  0  0
   22.9753  -13.0973  -17.7462 C   0  0  2  0  0  0  0  0  0  0  0  0
   23.7077  -13.6674  -16.6405 N   0  0  0  0  0  0  0  0  0  0  0  0
   22.2308  -11.9257  -17.2517 C   0  0  0  0  0  0  0  0  0  0  0  0
   21.4710  -11.2679  -17.9836 O   0  0  0  0  0  0  0  0  0  0  0  0
   21.1489  -15.7503  -16.6489 C   0  0  0  0  0  0  0  0  0  0  0  0
   20.1471  -16.1530  -15.7719 C   0  0  0  0  0  0  0  0  0  0  0  0
   22.3556  -11.5129  -15.9339 O   0  0  0  0  0  0  0  0  0  0  0  0
  2  1  1  0
  3  2  1  0
  3  4  2  0
  5  6  1  0
  7  6  1  6
  7  9  1  0
  8  7  1  0
  8  3  1  0
  9 18  1  0
  9 10  2  0
 12 11  1  0
 12 22  2  0
 13 12  1  0
 14 13  2  0
 14 15  1  0
 15 21  2  0
 16 15  1  0
 17 16  1  1
 18 17  1  0
 19 17  1  0
 20 19  2  0
 21 22  1  0
 23 19  1  0
M  END
$$$$
