LGY.pdb
     RDKit          3D

 25 25  0  0  1  0  0  0  0  0999 V2000
   28.4285  -18.4706  -20.8730 C   0  0  0  0  0  0  0  0  0  0  0  0
   28.9277  -17.5365  -19.8007 C   0  0  2  0  0  0  0  0  0  0  0  0
   30.1512  -16.8067  -20.2827 C   0  0  0  0  0  0  0  0  0  0  0  0
   29.0394  -18.1320  -18.4472 C   0  0  0  0  0  0  0  0  0  0  0  0
   27.8325  -18.8216  -17.9149 C   0  0  2  0  0  0  0  0  0  0  0  0
   26.5880  -18.3555  -18.4379 N   0  0  0  0  0  0  0  0  0  0  0  0
   27.7503  -18.8574  -16.4305 C   0  0  0  0  0  0  0  0  0  0  0  0
   28.6186  -19.4928  -15.7422 O   0  0  0  0  0  0  0  0  0  0  0  0
   26.7232  -18.2032  -15.6883 N   0  0  0  0  0  0  0  0  0  0  0  0
   26.6239  -18.1951  -14.2698 C   0  0  0  0  0  0  0  0  0  0  0  0
   25.8077  -19.2726  -13.6742 C   0  0  0  0  0  0  0  0  0  0  0  0
   24.6743  -19.4495  -14.1953 O   0  0  0  0  0  0  0  0  0  0  0  0
   27.6492  -19.0156   -6.4736 O   0  0  0  0  0  0  0  0  0  0  0  0
   27.2133  -19.7534   -7.5743 C   0  0  0  0  0  0  0  0  0  0  0  0
   25.9304  -20.2166   -7.6703 C   0  0  0  0  0  0  0  0  0  0  0  0
   25.5378  -20.9424   -8.7747 C   0  0  0  0  0  0  0  0  0  0  0  0
   26.3820  -21.2414   -9.8231 C   0  0  0  0  0  0  0  0  0  0  0  0
   25.9867  -22.0180  -11.0280 C   0  0  0  0  0  0  0  0  0  0  0  0
   25.3848  -21.2116  -12.1107 C   0  0  2  0  0  0  0  0  0  0  0  0
   26.1465  -20.1124  -12.6095 N   0  0  0  0  0  0  0  0  0  0  0  0
   24.0654  -20.7180  -11.6479 C   0  0  0  0  0  0  0  0  0  0  0  0
   23.1171  -21.5435  -11.6187 O   0  0  0  0  0  0  0  0  0  0  0  0
   27.6859  -20.7480   -9.6838 C   0  0  0  0  0  0  0  0  0  0  0  0
   28.0911  -20.0269   -8.5954 C   0  0  0  0  0  0  0  0  0  0  0  0
   23.8380  -19.4173  -11.2557 O   0  0  0  0  0  0  0  0  0  0  0  0
  2  1  1  6
  2  4  1  0
  3  2  1  0
  4  5  1  0
  5  6  1  6
  7  8  2  0
  7  5  1  0
  9  7  1  0
 10  9  1  0
 11 10  1  0
 11 20  1  0
 12 11  2  0
 13 14  1  0
 14 15  2  0
 15 16  1  0
 17 16  2  0
 17 18  1  0
 19 18  1  1
 19 20  1  0
 19 21  1  0
 21 25  1  0
 22 21  2  0
 23 17  1  0
 24 14  1  0
 24 23  2  0
M  END
$$$$
