LGY.pdb
     RDKit          3D

 25 25  0  0  1  0  0  0  0  0999 V2000
   16.7072  -16.4114  -16.8006 C   0  0  0  0  0  0  0  0  0  0  0  0
   18.0724  -16.0069  -16.3062 C   0  0  2  0  0  0  0  0  0  0  0  0
   18.5473  -16.9744  -15.2572 C   0  0  0  0  0  0  0  0  0  0  0  0
   18.2171  -14.5733  -15.9555 C   0  0  0  0  0  0  0  0  0  0  0  0
   17.7623  -13.5842  -16.9704 C   0  0  2  0  0  0  0  0  0  0  0  0
   18.4748  -13.6140  -18.2077 N   0  0  0  0  0  0  0  0  0  0  0  0
   17.7053  -12.1819  -16.4787 C   0  0  0  0  0  0  0  0  0  0  0  0
   17.0012  -11.8744  -15.4583 O   0  0  0  0  0  0  0  0  0  0  0  0
   18.4128  -11.1079  -17.0950 N   0  0  0  0  0  0  0  0  0  0  0  0
   18.4714   -9.7786  -16.5934 C   0  0  0  0  0  0  0  0  0  0  0  0
   19.2925   -9.5821  -15.3814 C   0  0  0  0  0  0  0  0  0  0  0  0
   19.2469  -10.5142  -14.5349 O   0  0  0  0  0  0  0  0  0  0  0  0
   22.0834   -2.5127  -16.4578 O   0  0  0  0  0  0  0  0  0  0  0  0
   22.1436   -3.8131  -15.9566 C   0  0  0  0  0  0  0  0  0  0  0  0
   21.9910   -4.9055  -16.7646 C   0  0  0  0  0  0  0  0  0  0  0  0
   22.0571   -6.1751  -16.2313 C   0  0  0  0  0  0  0  0  0  0  0  0
   22.2744   -6.4232  -14.8925 C   0  0  0  0  0  0  0  0  0  0  0  0
   22.3545   -7.7800  -14.2892 C   0  0  0  0  0  0  0  0  0  0  0  0
   21.0460   -8.4025  -13.9969 C   0  0  2  0  0  0  0  0  0  0  0  0
   20.1087   -8.4910  -15.0696 N   0  0  0  0  0  0  0  0  0  0  0  0
   20.4231   -7.6726  -12.8664 C   0  0  0  0  0  0  0  0  0  0  0  0
   20.9562   -7.7965  -11.7343 O   0  0  0  0  0  0  0  0  0  0  0  0
   22.4251   -5.2766  -14.1016 C   0  0  0  0  0  0  0  0  0  0  0  0
   22.3622   -4.0111  -14.6147 C   0  0  0  0  0  0  0  0  0  0  0  0
   19.3054   -6.8788  -13.0010 O   0  0  0  0  0  0  0  0  0  0  0  0
  2  1  1  1
  2  4  1  0
  3  2  1  0
  4  5  1  0
  5  6  1  6
  7  8  2  0
  7  5  1  0
  9  7  1  0
 10  9  1  0
 11 10  1  0
 11 20  1  0
 12 11  2  0
 13 14  1  0
 14 15  2  0
 15 16  1  0
 17 16  2  0
 17 18  1  0
 19 18  1  6
 19 20  1  0
 19 21  1  0
 21 25  1  0
 22 21  2  0
 23 17  1  0
 24 14  1  0
 24 23  2  0
M  END
$$$$
