LGY.pdb
     RDKit          3D

 25 25  0  0  1  0  0  0  0  0999 V2000
   25.3043  -32.3832  -10.2867 C   0  0  0  0  0  0  0  0  0  0  0  0
   24.7416  -32.7354   -8.9336 C   0  0  2  0  0  0  0  0  0  0  0  0
   24.0367  -31.5449   -8.3438 C   0  0  0  0  0  0  0  0  0  0  0  0
   25.6815  -33.4296   -8.0206 C   0  0  0  0  0  0  0  0  0  0  0  0
   26.2671  -34.7093   -8.5052 C   0  0  2  0  0  0  0  0  0  0  0  0
   25.7338  -35.1909   -9.7394 N   0  0  0  0  0  0  0  0  0  0  0  0
   26.2466  -35.8111   -7.5067 C   0  0  0  0  0  0  0  0  0  0  0  0
   26.7617  -35.6541   -6.3484 O   0  0  0  0  0  0  0  0  0  0  0  0
   25.6667  -37.0884   -7.7635 N   0  0  0  0  0  0  0  0  0  0  0  0
   25.6304  -38.1664   -6.8370 C   0  0  0  0  0  0  0  0  0  0  0  0
   24.9313  -37.8992   -5.5635 C   0  0  0  0  0  0  0  0  0  0  0  0
   24.6147  -38.9167   -4.8914 O   0  0  0  0  0  0  0  0  0  0  0  0
   28.8906  -39.2320   -0.7920 O   0  0  0  0  0  0  0  0  0  0  0  0
   27.8848  -38.3949   -1.2753 C   0  0  0  0  0  0  0  0  0  0  0  0
   28.0842  -37.5732   -2.3498 C   0  0  0  0  0  0  0  0  0  0  0  0
   27.0647  -36.7603   -2.7976 C   0  0  0  0  0  0  0  0  0  0  0  0
   25.8163  -36.7206   -2.2136 C   0  0  0  0  0  0  0  0  0  0  0  0
   24.6969  -35.8579   -2.6760 C   0  0  0  0  0  0  0  0  0  0  0  0
   23.9053  -36.4206   -3.7904 C   0  0  2  0  0  0  0  0  0  0  0  0
   24.5855  -36.6576   -5.0226 N   0  0  0  0  0  0  0  0  0  0  0  0
   22.7473  -35.5283   -4.0386 C   0  0  0  0  0  0  0  0  0  0  0  0
   22.5784  -35.1135   -5.2137 O   0  0  0  0  0  0  0  0  0  0  0  0
   25.6556  -37.5775   -1.1168 C   0  0  0  0  0  0  0  0  0  0  0  0
   26.6561  -38.3895   -0.6603 C   0  0  0  0  0  0  0  0  0  0  0  0
   21.8645  -35.1412   -3.0546 O   0  0  0  0  0  0  0  0  0  0  0  0
  2  1  1  6
  2  4  1  0
  3  2  1  0
  4  5  1  0
  5  6  1  6
  7  8  2  0
  7  5  1  0
  9  7  1  0
 10  9  1  0
 11 10  1  0
 11 20  1  0
 12 11  2  0
 13 14  1  0
 14 15  2  0
 15 16  1  0
 17 16  2  0
 17 18  1  0
 19 18  1  1
 19 20  1  0
 19 21  1  0
 21 25  1  0
 22 21  2  0
 23 17  1  0
 24 14  1  0
 24 23  2  0
M  END
$$$$
