LGY.pdb
     RDKit          3D

 25 25  0  0  1  0  0  0  0  0999 V2000
   21.7554  -16.6714  -21.3987 C   0  0  0  0  0  0  0  0  0  0  0  0
   23.1936  -16.3256  -21.1096 C   0  0  2  0  0  0  0  0  0  0  0  0
   23.7287  -15.4140  -22.1794 C   0  0  0  0  0  0  0  0  0  0  0  0
   24.0629  -17.4773  -20.7677 C   0  0  0  0  0  0  0  0  0  0  0  0
   23.9052  -18.0572  -19.4060 C   0  0  2  0  0  0  0  0  0  0  0  0
   23.8545  -17.1041  -18.3436 N   0  0  0  0  0  0  0  0  0  0  0  0
   24.9019  -19.1074  -19.0666 C   0  0  0  0  0  0  0  0  0  0  0  0
   25.4831  -19.7790  -19.9845 O   0  0  0  0  0  0  0  0  0  0  0  0
   25.2700  -19.4324  -17.7277 N   0  0  0  0  0  0  0  0  0  0  0  0
   26.1660  -20.4738  -17.3605 C   0  0  0  0  0  0  0  0  0  0  0  0
   26.3876  -20.6527  -15.9110 C   0  0  0  0  0  0  0  0  0  0  0  0
   27.3992  -20.0694  -15.4380 O   0  0  0  0  0  0  0  0  0  0  0  0
   25.7337  -20.6362   -7.1844 O   0  0  0  0  0  0  0  0  0  0  0  0
   25.7503  -20.5110   -8.5736 C   0  0  0  0  0  0  0  0  0  0  0  0
   26.9131  -20.3193   -9.2669 C   0  0  0  0  0  0  0  0  0  0  0  0
   26.8881  -20.2002  -10.6402 C   0  0  0  0  0  0  0  0  0  0  0  0
   25.7292  -20.2640  -11.3844 C   0  0  0  0  0  0  0  0  0  0  0  0
   25.6712  -20.1429  -12.8654 C   0  0  0  0  0  0  0  0  0  0  0  0
   25.7512  -21.4276  -13.5921 C   0  0  2  0  0  0  0  0  0  0  0  0
   25.6092  -21.3869  -15.0117 N   0  0  0  0  0  0  0  0  0  0  0  0
   24.7343  -22.3479  -13.0284 C   0  0  0  0  0  0  0  0  0  0  0  0
   25.1362  -23.2390  -12.2373 O   0  0  0  0  0  0  0  0  0  0  0  0
   24.5621  -20.4610  -10.6347 C   0  0  0  0  0  0  0  0  0  0  0  0
   24.5697  -20.5810   -9.2730 C   0  0  0  0  0  0  0  0  0  0  0  0
   23.3923  -22.2697  -13.3287 O   0  0  0  0  0  0  0  0  0  0  0  0
  2  1  1  6
  2  4  1  0
  3  2  1  0
  4  5  1  0
  5  6  1  1
  7  8  2  0
  7  5  1  0
  9  7  1  0
 10  9  1  0
 11 10  1  0
 11 20  1  0
 12 11  2  0
 13 14  1  0
 14 15  2  0
 15 16  1  0
 17 16  2  0
 17 18  1  0
 19 18  1  1
 19 20  1  0
 19 21  1  0
 21 25  1  0
 22 21  2  0
 23 17  1  0
 24 14  1  0
 24 23  2  0
M  END
$$$$
