LGY.pdb
     RDKit          3D

 25 25  0  0  1  0  0  0  0  0999 V2000
   24.8475  -32.6009   -9.7506 C   0  0  0  0  0  0  0  0  0  0  0  0
   23.3984  -32.4972   -9.3494 C   0  0  2  0  0  0  0  0  0  0  0  0
   22.7803  -31.2722   -9.9653 C   0  0  0  0  0  0  0  0  0  0  0  0
   23.1295  -32.6813   -7.9027 C   0  0  0  0  0  0  0  0  0  0  0  0
   23.8292  -33.8083   -7.2274 C   0  0  2  0  0  0  0  0  0  0  0  0
   23.5911  -35.0968   -7.7953 N   0  0  0  0  0  0  0  0  0  0  0  0
   23.6058  -33.8780   -5.7589 C   0  0  0  0  0  0  0  0  0  0  0  0
   23.8353  -32.8666   -5.0133 O   0  0  0  0  0  0  0  0  0  0  0  0
   23.1328  -35.0480   -5.0947 N   0  0  0  0  0  0  0  0  0  0  0  0
   22.8639  -35.1399   -3.7014 C   0  0  0  0  0  0  0  0  0  0  0  0
   24.0469  -35.2046   -2.8191 C   0  0  0  0  0  0  0  0  0  0  0  0
   24.6830  -36.2919   -2.8390 O   0  0  0  0  0  0  0  0  0  0  0  0
   29.1552  -34.0694   -6.5554 O   0  0  0  0  0  0  0  0  0  0  0  0
   28.6053  -33.9178   -5.2824 C   0  0  0  0  0  0  0  0  0  0  0  0
   29.2186  -34.4176   -4.1673 C   0  0  0  0  0  0  0  0  0  0  0  0
   28.6432  -34.2470   -2.9261 C   0  0  0  0  0  0  0  0  0  0  0  0
   27.4507  -33.5834   -2.7295 C   0  0  0  0  0  0  0  0  0  0  0  0
   26.8081  -33.3805   -1.4040 C   0  0  0  0  0  0  0  0  0  0  0  0
   25.6792  -34.2917   -1.1206 C   0  0  2  0  0  0  0  0  0  0  0  0
   24.5382  -34.2058   -1.9737 N   0  0  0  0  0  0  0  0  0  0  0  0
   25.2522  -34.0844    0.2842 C   0  0  0  0  0  0  0  0  0  0  0  0
   24.0330  -33.8552    0.4900 O   0  0  0  0  0  0  0  0  0  0  0  0
   26.8570  -33.0880   -3.8978 C   0  0  0  0  0  0  0  0  0  0  0  0
   27.4143  -33.2486   -5.1357 C   0  0  0  0  0  0  0  0  0  0  0  0
   26.1185  -34.1313    1.3541 O   0  0  0  0  0  0  0  0  0  0  0  0
  2  1  1  1
  2  4  1  0
  3  2  1  0
  4  5  1  0
  5  6  1  6
  7  8  2  0
  7  5  1  0
  9  7  1  0
 10  9  1  0
 11 10  1  0
 11 20  1  0
 12 11  2  0
 13 14  1  0
 14 15  2  0
 15 16  1  0
 17 16  2  0
 17 18  1  0
 19 18  1  6
 19 20  1  0
 19 21  1  0
 21 25  1  0
 22 21  2  0
 23 17  1  0
 24 14  1  0
 24 23  2  0
M  END
$$$$
