LGY.pdb
     RDKit          3D

 25 25  0  0  1  0  0  0  0  0999 V2000
   19.0072  -16.5268  -19.1432 C   0  0  0  0  0  0  0  0  0  0  0  0
   18.4227  -15.1739  -18.8276 C   0  0  2  0  0  0  0  0  0  0  0  0
   17.0703  -15.0349  -19.4708 C   0  0  0  0  0  0  0  0  0  0  0  0
   19.3403  -14.0270  -19.0314 C   0  0  0  0  0  0  0  0  0  0  0  0
   20.6806  -14.1168  -18.3902 C   0  0  2  0  0  0  0  0  0  0  0  0
   20.6678  -14.4654  -17.0053 N   0  0  0  0  0  0  0  0  0  0  0  0
   21.5331  -12.9129  -18.5782 C   0  0  0  0  0  0  0  0  0  0  0  0
   21.7766  -12.4595  -19.7472 O   0  0  0  0  0  0  0  0  0  0  0  0
   22.1252  -12.1974  -17.4959 N   0  0  0  0  0  0  0  0  0  0  0  0
   22.8461  -10.9785  -17.6243 C   0  0  0  0  0  0  0  0  0  0  0  0
   22.0681   -9.7425  -17.4027 C   0  0  0  0  0  0  0  0  0  0  0  0
   21.8226   -9.0607  -18.4333 O   0  0  0  0  0  0  0  0  0  0  0  0
   17.0489  -10.2514  -20.8299 O   0  0  0  0  0  0  0  0  0  0  0  0
   17.6028   -9.7365  -19.6577 C   0  0  0  0  0  0  0  0  0  0  0  0
   17.9148   -8.4115  -19.5285 C   0  0  0  0  0  0  0  0  0  0  0  0
   18.4611   -7.9409  -18.3534 C   0  0  0  0  0  0  0  0  0  0  0  0
   18.7216   -8.7454  -17.2644 C   0  0  0  0  0  0  0  0  0  0  0  0
   19.3060   -8.2664  -15.9837 C   0  0  0  0  0  0  0  0  0  0  0  0
   20.7726   -8.0829  -16.0062 C   0  0  2  0  0  0  0  0  0  0  0  0
   21.5757   -9.2482  -16.1916 N   0  0  0  0  0  0  0  0  0  0  0  0
   21.1787   -7.4079  -14.7499 C   0  0  0  0  0  0  0  0  0  0  0  0
   22.0642   -7.9668  -14.0534 O   0  0  0  0  0  0  0  0  0  0  0  0
   18.3871  -10.0946  -17.4398 C   0  0  0  0  0  0  0  0  0  0  0  0
   17.8450  -10.5771  -18.5983 C   0  0  0  0  0  0  0  0  0  0  0  0
   20.6372   -6.2163  -14.3208 O   0  0  0  0  0  0  0  0  0  0  0  0
  2  1  1  6
  2  4  1  0
  3  2  1  0
  4  5  1  0
  5  6  1  1
  7  8  2  0
  7  5  1  0
  9  7  1  0
 10  9  1  0
 11 10  1  0
 11 20  1  0
 12 11  2  0
 13 14  1  0
 14 15  2  0
 15 16  1  0
 17 16  2  0
 17 18  1  0
 19 18  1  1
 19 20  1  0
 19 21  1  0
 21 25  1  0
 22 21  2  0
 23 17  1  0
 24 14  1  0
 24 23  2  0
M  END
$$$$
