LGY.pdb
     RDKit          3D

 25 25  0  0  1  0  0  0  0  0999 V2000
   19.9857  -20.6980  -16.6822 C   0  0  0  0  0  0  0  0  0  0  0  0
   19.9127  -19.2050  -16.8749 C   0  0  2  0  0  0  0  0  0  0  0  0
   18.9194  -18.8735  -17.9544 C   0  0  0  0  0  0  0  0  0  0  0  0
   21.2223  -18.5187  -16.9887 C   0  0  0  0  0  0  0  0  0  0  0  0
   22.2790  -18.9230  -16.0215 C   0  0  2  0  0  0  0  0  0  0  0  0
   21.9621  -18.6958  -14.6476 N   0  0  0  0  0  0  0  0  0  0  0  0
   23.6234  -18.3556  -16.3081 C   0  0  0  0  0  0  0  0  0  0  0  0
   24.2883  -18.7328  -17.3313 O   0  0  0  0  0  0  0  0  0  0  0  0
   24.2508  -17.3762  -15.4828 N   0  0  0  0  0  0  0  0  0  0  0  0
   25.5361  -16.8159  -15.7193 C   0  0  0  0  0  0  0  0  0  0  0  0
   26.6842  -17.7176  -15.4940 C   0  0  0  0  0  0  0  0  0  0  0  0
   27.8180  -17.2309  -15.7492 O   0  0  0  0  0  0  0  0  0  0  0  0
   24.2405  -20.4202   -9.3939 O   0  0  0  0  0  0  0  0  0  0  0  0
   25.2308  -20.3295  -10.3721 C   0  0  0  0  0  0  0  0  0  0  0  0
   25.7308  -21.4377  -10.9978 C   0  0  0  0  0  0  0  0  0  0  0  0
   26.7095  -21.3065  -11.9598 C   0  0  0  0  0  0  0  0  0  0  0  0
   27.2343  -20.0909  -12.3448 C   0  0  0  0  0  0  0  0  0  0  0  0
   28.2867  -19.9178  -13.3810 C   0  0  0  0  0  0  0  0  0  0  0  0
   27.7826  -19.8745  -14.7698 C   0  0  2  0  0  0  0  0  0  0  0  0
   26.6573  -19.0366  -15.0323 N   0  0  0  0  0  0  0  0  0  0  0  0
   27.4671  -21.2592  -15.1961 C   0  0  0  0  0  0  0  0  0  0  0  0
   28.4023  -22.0995  -15.1701 O   0  0  0  0  0  0  0  0  0  0  0  0
   26.6942  -18.9829  -11.6789 C   0  0  0  0  0  0  0  0  0  0  0  0
   25.7236  -19.0958  -10.7229 C   0  0  0  0  0  0  0  0  0  0  0  0
   26.2157  -21.6574  -15.6120 O   0  0  0  0  0  0  0  0  0  0  0  0
  2  1  1  6
  2  4  1  0
  3  2  1  0
  4  5  1  0
  5  6  1  1
  7  8  2  0
  7  5  1  0
  9  7  1  0
 10  9  1  0
 11 10  1  0
 11 20  1  0
 12 11  2  0
 13 14  1  0
 14 15  2  0
 15 16  1  0
 17 16  2  0
 17 18  1  0
 19 18  1  1
 19 20  1  0
 19 21  1  0
 21 25  1  0
 22 21  2  0
 23 17  1  0
 24 14  1  0
 24 23  2  0
M  END
$$$$
