LGY.pdb
     RDKit          3D

 25 25  0  0  1  0  0  0  0  0999 V2000
   25.2126  -16.7079  -17.2077 C   0  0  0  0  0  0  0  0  0  0  0  0
   26.0622  -17.7132  -16.4735 C   0  0  2  0  0  0  0  0  0  0  0  0
   27.1119  -17.0050  -15.6620 C   0  0  0  0  0  0  0  0  0  0  0  0
   26.5559  -18.8433  -17.2970 C   0  0  0  0  0  0  0  0  0  0  0  0
   26.4942  -20.1984  -16.6842 C   0  0  2  0  0  0  0  0  0  0  0  0
   25.4334  -20.3925  -15.7480 N   0  0  0  0  0  0  0  0  0  0  0  0
   27.7702  -20.6536  -16.0709 C   0  0  0  0  0  0  0  0  0  0  0  0
   28.8884  -20.4341  -16.6478 O   0  0  0  0  0  0  0  0  0  0  0  0
   27.8355  -21.3501  -14.8281 N   0  0  0  0  0  0  0  0  0  0  0  0
   28.7444  -21.0526  -13.7758 C   0  0  0  0  0  0  0  0  0  0  0  0
   28.1347  -20.6830  -12.4821 C   0  0  0  0  0  0  0  0  0  0  0  0
   28.6638  -19.7051  -11.8896 O   0  0  0  0  0  0  0  0  0  0  0  0
   21.8430  -18.9352  -14.9307 O   0  0  0  0  0  0  0  0  0  0  0  0
   22.8169  -19.0477  -13.9383 C   0  0  0  0  0  0  0  0  0  0  0  0
   24.0675  -18.5163  -14.0910 C   0  0  0  0  0  0  0  0  0  0  0  0
   25.0027  -18.6487  -13.0868 C   0  0  0  0  0  0  0  0  0  0  0  0
   24.7510  -19.3032  -11.8997 C   0  0  0  0  0  0  0  0  0  0  0  0
   25.7373  -19.4586  -10.7977 C   0  0  0  0  0  0  0  0  0  0  0  0
   26.3467  -20.8019  -10.7012 C   0  0  2  0  0  0  0  0  0  0  0  0
   27.0464  -21.2874  -11.8465 N   0  0  0  0  0  0  0  0  0  0  0  0
   25.2865  -21.7709  -10.3328 C   0  0  0  0  0  0  0  0  0  0  0  0
   25.1406  -22.7773  -11.0726 O   0  0  0  0  0  0  0  0  0  0  0  0
   23.4586  -19.8319  -11.7853 C   0  0  0  0  0  0  0  0  0  0  0  0
   22.5199  -19.7095  -12.7714 C   0  0  0  0  0  0  0  0  0  0  0  0
   24.4692  -21.6186   -9.2344 O   0  0  0  0  0  0  0  0  0  0  0  0
  2  1  1  6
  2  4  1  0
  3  2  1  0
  4  5  1  0
  5  6  1  1
  7  8  2  0
  7  5  1  0
  9  7  1  0
 10  9  1  0
 11 10  1  0
 11 20  1  0
 12 11  2  0
 13 14  1  0
 14 15  2  0
 15 16  1  0
 17 16  2  0
 17 18  1  0
 19 18  1  6
 19 20  1  0
 19 21  1  0
 21 25  1  0
 22 21  2  0
 23 17  1  0
 24 14  1  0
 24 23  2  0
M  END
$$$$
