LGY.pdb
     RDKit          3D

 25 25  0  0  1  0  0  0  0  0999 V2000
   18.9823  -10.9088  -20.4170 C   0  0  0  0  0  0  0  0  0  0  0  0
   20.1318  -10.1192  -19.8452 C   0  0  2  0  0  0  0  0  0  0  0  0
   21.3256  -11.0137  -19.6536 C   0  0  0  0  0  0  0  0  0  0  0  0
   19.7923   -9.2611  -18.6845 C   0  0  0  0  0  0  0  0  0  0  0  0
   18.5795   -8.4076  -18.8119 C   0  0  2  0  0  0  0  0  0  0  0  0
   18.6474   -7.4059  -19.8275 N   0  0  0  0  0  0  0  0  0  0  0  0
   18.1356   -7.7777  -17.5401 C   0  0  0  0  0  0  0  0  0  0  0  0
   17.9378   -8.4840  -16.4943 O   0  0  0  0  0  0  0  0  0  0  0  0
   17.9039   -6.3775  -17.4002 N   0  0  0  0  0  0  0  0  0  0  0  0
   17.5335   -5.7314  -16.1888 C   0  0  0  0  0  0  0  0  0  0  0  0
   18.6444   -5.1815  -15.3853 C   0  0  0  0  0  0  0  0  0  0  0  0
   18.3153   -4.6526  -14.2901 O   0  0  0  0  0  0  0  0  0  0  0  0
   19.8519  -10.7379  -12.6282 O   0  0  0  0  0  0  0  0  0  0  0  0
   20.3940   -9.5479  -13.1140 C   0  0  0  0  0  0  0  0  0  0  0  0
   20.5594   -9.3238  -14.4527 C   0  0  0  0  0  0  0  0  0  0  0  0
   21.0990   -8.1342  -14.8934 C   0  0  0  0  0  0  0  0  0  0  0  0
   21.4957   -7.1226  -14.0447 C   0  0  0  0  0  0  0  0  0  0  0  0
   22.0769   -5.8283  -14.4903 C   0  0  0  0  0  0  0  0  0  0  0  0
   21.0808   -4.7940  -14.8411 C   0  0  2  0  0  0  0  0  0  0  0  0
   20.0069   -5.1826  -15.6970 N   0  0  0  0  0  0  0  0  0  0  0  0
   21.7943   -3.6446  -15.4481 C   0  0  0  0  0  0  0  0  0  0  0  0
   21.4012   -3.2501  -16.5756 O   0  0  0  0  0  0  0  0  0  0  0  0
   21.3088   -7.3939  -12.6830 C   0  0  0  0  0  0  0  0  0  0  0  0
   20.7753   -8.5680  -12.2296 C   0  0  0  0  0  0  0  0  0  0  0  0
   22.8505   -3.0019  -14.8406 O   0  0  0  0  0  0  0  0  0  0  0  0
  2  1  1  1
  2  4  1  0
  3  2  1  0
  4  5  1  0
  5  6  1  6
  7  8  2  0
  7  5  1  0
  9  7  1  0
 10  9  1  0
 11 10  1  0
 11 20  1  0
 12 11  2  0
 13 14  1  0
 14 15  2  0
 15 16  1  0
 17 16  2  0
 17 18  1  0
 19 18  1  6
 19 20  1  0
 19 21  1  0
 21 25  1  0
 22 21  2  0
 23 17  1  0
 24 14  1  0
 24 23  2  0
M  END
$$$$
