LGY.pdb
     RDKit          3D

 25 25  0  0  1  0  0  0  0  0999 V2000
   22.1119   -2.8109  -20.0473 C   0  0  0  0  0  0  0  0  0  0  0  0
   20.6943   -3.3073  -20.1726 C   0  0  2  0  0  0  0  0  0  0  0  0
   19.7350   -2.1526  -20.0823 C   0  0  0  0  0  0  0  0  0  0  0  0
   20.3579   -4.4762  -19.3244 C   0  0  0  0  0  0  0  0  0  0  0  0
   21.2661   -5.6524  -19.4104 C   0  0  2  0  0  0  0  0  0  0  0  0
   21.4184   -6.2061  -20.7180 N   0  0  0  0  0  0  0  0  0  0  0  0
   20.9457   -6.7467  -18.4559 C   0  0  0  0  0  0  0  0  0  0  0  0
   20.8031   -6.5069  -17.2094 O   0  0  0  0  0  0  0  0  0  0  0  0
   20.7798   -8.1065  -18.8525 N   0  0  0  0  0  0  0  0  0  0  0  0
   20.4714   -9.1790  -17.9712 C   0  0  0  0  0  0  0  0  0  0  0  0
   20.2936  -10.5023  -18.6031 C   0  0  0  0  0  0  0  0  0  0  0  0
   20.1558  -10.4944  -19.8554 O   0  0  0  0  0  0  0  0  0  0  0  0
   20.1944  -19.1030  -20.7897 O   0  0  0  0  0  0  0  0  0  0  0  0
   20.3038  -17.9000  -20.0919 C   0  0  0  0  0  0  0  0  0  0  0  0
   21.3017  -17.0025  -20.3532 C   0  0  0  0  0  0  0  0  0  0  0  0
   21.3760  -15.8240  -19.6416 C   0  0  0  0  0  0  0  0  0  0  0  0
   20.4803  -15.4801  -18.6513 C   0  0  0  0  0  0  0  0  0  0  0  0
   20.5324  -14.2160  -17.8701 C   0  0  0  0  0  0  0  0  0  0  0  0
   20.0704  -13.0188  -18.6039 C   0  0  2  0  0  0  0  0  0  0  0  0
   20.2629  -11.7514  -17.9765 N   0  0  0  0  0  0  0  0  0  0  0  0
   18.6320  -13.1906  -18.9204 C   0  0  0  0  0  0  0  0  0  0  0  0
   17.8057  -12.9552  -18.0021 O   0  0  0  0  0  0  0  0  0  0  0  0
   19.4751  -16.4275  -18.4165 C   0  0  0  0  0  0  0  0  0  0  0  0
   19.3875  -17.6004  -19.1130 C   0  0  0  0  0  0  0  0  0  0  0  0
   18.1704  -13.5900  -20.1553 O   0  0  0  0  0  0  0  0  0  0  0  0
  2  1  1  1
  2  4  1  0
  3  2  1  0
  4  5  1  0
  5  6  1  6
  7  8  2  0
  7  5  1  0
  9  7  1  0
 10  9  1  0
 11 10  1  0
 11 20  1  0
 12 11  2  0
 13 14  1  0
 14 15  2  0
 15 16  1  0
 17 16  2  0
 17 18  1  0
 19 18  1  1
 19 20  1  0
 19 21  1  0
 21 25  1  0
 22 21  2  0
 23 17  1  0
 24 14  1  0
 24 23  2  0
M  END
$$$$
