LGY.pdb
     RDKit          3D

 25 25  0  0  1  0  0  0  0  0999 V2000
   23.2998  -16.6552  -19.9355 C   0  0  0  0  0  0  0  0  0  0  0  0
   23.4636  -18.0223  -19.3224 C   0  0  2  0  0  0  0  0  0  0  0  0
   22.4835  -18.9829  -19.9376 C   0  0  0  0  0  0  0  0  0  0  0  0
   23.5268  -18.0460  -17.8410 C   0  0  0  0  0  0  0  0  0  0  0  0
   24.5810  -17.2133  -17.2001 C   0  0  2  0  0  0  0  0  0  0  0  0
   25.7668  -17.0343  -17.9755 N   0  0  0  0  0  0  0  0  0  0  0  0
   24.9601  -17.6502  -15.8301 C   0  0  0  0  0  0  0  0  0  0  0  0
   24.0713  -17.8249  -14.9295 O   0  0  0  0  0  0  0  0  0  0  0  0
   26.3073  -17.8981  -15.4333 N   0  0  0  0  0  0  0  0  0  0  0  0
   26.7097  -18.3093  -14.1329 C   0  0  0  0  0  0  0  0  0  0  0  0
   26.1310  -19.5798  -13.6503 C   0  0  0  0  0  0  0  0  0  0  0  0
   25.3302  -20.1486  -14.4393 O   0  0  0  0  0  0  0  0  0  0  0  0
   27.2967  -18.9419   -6.2896 O   0  0  0  0  0  0  0  0  0  0  0  0
   27.1253  -19.7293   -7.4282 C   0  0  0  0  0  0  0  0  0  0  0  0
   25.8912  -19.9498   -7.9740 C   0  0  0  0  0  0  0  0  0  0  0  0
   25.7631  -20.7345   -9.1004 C   0  0  0  0  0  0  0  0  0  0  0  0
   26.8333  -21.3307   -9.7331 C   0  0  0  0  0  0  0  0  0  0  0  0
   26.7269  -22.1782  -10.9503 C   0  0  0  0  0  0  0  0  0  0  0  0
   26.0023  -21.5515  -12.0760 C   0  0  2  0  0  0  0  0  0  0  0  0
   26.3694  -20.2185  -12.4301 N   0  0  0  0  0  0  0  0  0  0  0  0
   24.5502  -21.5926  -11.7781 C   0  0  0  0  0  0  0  0  0  0  0  0
   23.9906  -22.7188  -11.7834 O   0  0  0  0  0  0  0  0  0  0  0  0
   28.0779  -21.0789   -9.1411 C   0  0  0  0  0  0  0  0  0  0  0  0
   28.2220  -20.3035   -8.0245 C   0  0  0  0  0  0  0  0  0  0  0  0
   23.8016  -20.4700  -11.5010 O   0  0  0  0  0  0  0  0  0  0  0  0
  2  1  1  1
  2  4  1  0
  3  2  1  0
  4  5  1  0
  5  6  1  6
  7  8  2  0
  7  5  1  0
  9  7  1  0
 10  9  1  0
 11 10  1  0
 11 20  1  0
 12 11  2  0
 13 14  1  0
 14 15  2  0
 15 16  1  0
 17 16  2  0
 17 18  1  0
 19 18  1  1
 19 20  1  0
 19 21  1  0
 21 25  1  0
 22 21  2  0
 23 17  1  0
 24 14  1  0
 24 23  2  0
M  END
$$$$
