SLF.pdb
     RDKit          3D

 26 26  0  0  1  0  0  0  0  0999 V2000
    7.9846  -18.1192   20.6861 O   0  0  0  0  0  0  0  0  0  0  0  0
    8.2334  -17.1610   19.6967 C   0  0  0  0  0  0  0  0  0  0  0  0
    7.7616  -15.7936   20.1515 C   0  0  2  0  0  0  0  0  0  0  0  0
    8.0316  -14.8386   19.1174 N   0  0  0  0  0  0  0  0  0  0  0  0
    8.3073  -15.4194   21.4592 C   0  0  0  0  0  0  0  0  0  0  0  0
    9.5029  -15.0566   21.5738 O   0  0  0  0  0  0  0  0  0  0  0  0
    7.6427  -12.0733   24.6258 C   0  0  0  0  0  0  0  0  0  0  0  0
    6.5634  -13.1173   24.7389 C   0  0  2  0  0  0  0  0  0  0  0  0
    5.5756  -12.7425   25.8248 C   0  0  0  0  0  0  0  0  0  0  0  0
    7.1432  -14.4665   24.9205 C   0  0  0  0  0  0  0  0  0  0  0  0
    8.0865  -14.9649   23.9019 C   0  0  2  0  0  0  0  0  0  0  0  0
    7.5308  -15.4418   22.6688 N   0  0  0  0  0  0  0  0  0  0  0  0
    8.9588  -16.0654   24.4490 C   0  0  0  0  0  0  0  0  0  0  0  0
    8.6797  -17.2340   24.0387 O   0  0  0  0  0  0  0  0  0  0  0  0
    9.9854  -15.7680   25.3393 N   0  0  0  0  0  0  0  0  0  0  0  0
   10.8256  -16.8550   25.8408 C   0  0  1  0  0  0  0  0  0  0  0  0
   11.9920  -16.1546   26.5304 C   0  0  0  0  0  0  0  0  0  0  0  0
   11.5402  -15.4077   27.7190 C   0  0  0  0  0  0  0  0  0  0  0  0
   11.5178  -15.9068   29.0021 C   0  0  0  0  0  0  0  0  0  0  0  0
   11.0796  -15.1419   30.0878 C   0  0  0  0  0  0  0  0  0  0  0  0
   10.6527  -13.8487   29.8950 C   0  0  0  0  0  0  0  0  0  0  0  0
   10.6737  -13.3456   28.6111 C   0  0  0  0  0  0  0  0  0  0  0  0
   11.1018  -14.0924   27.5499 C   0  0  0  0  0  0  0  0  0  0  0  0
   10.0797  -17.7438   26.7389 C   0  0  0  0  0  0  0  0  0  0  0  0
   10.6225  -18.9283   27.1776 O   0  0  0  0  0  0  0  0  0  0  0  0
    8.9311  -17.4231   27.1133 O   0  0  0  0  0  0  0  0  0  0  0  0
  1  2  1  0
  3  2  1  0
  3  5  1  0
  3  4  1  6
  5  6  2  0
  8  7  1  1
  8  9  1  0
 10  8  1  0
 11 10  1  1
 12 11  1  0
 12  5  1  0
 13 11  1  0
 13 14  2  0
 15 13  1  0
 16 15  1  0
 16 24  1  0
 16 17  1  1
 18 19  2  0
 18 17  1  0
 20 19  1  0
 21 20  2  0
 22 21  1  0
 22 23  2  0
 23 18  1  0
 24 26  2  0
 24 25  1  0
M  END
$$$$
