SLF.pdb
     RDKit          3D

 26 26  0  0  1  0  0  0  0  0999 V2000
    7.7414  -20.0485   23.4377 O   0  0  0  0  0  0  0  0  0  0  0  0
    6.6708  -19.8732   22.5533 C   0  0  0  0  0  0  0  0  0  0  0  0
    7.1768  -19.4823   21.1784 C   0  0  2  0  0  0  0  0  0  0  0  0
    7.9046  -20.5827   20.6182 N   0  0  0  0  0  0  0  0  0  0  0  0
    7.9278  -18.2239   21.1951 C   0  0  0  0  0  0  0  0  0  0  0  0
    9.1748  -18.2207   21.0559 O   0  0  0  0  0  0  0  0  0  0  0  0
    7.1999  -12.0333   20.9852 C   0  0  0  0  0  0  0  0  0  0  0  0
    8.0629  -13.2611   20.8606 C   0  0  2  0  0  0  0  0  0  0  0  0
    8.5404  -13.4303   19.4327 C   0  0  0  0  0  0  0  0  0  0  0  0
    7.3686  -14.4569   21.3873 C   0  0  0  0  0  0  0  0  0  0  0  0
    8.0922  -15.7422   21.3867 C   0  0  2  0  0  0  0  0  0  0  0  0
    7.3040  -16.9402   21.3675 N   0  0  0  0  0  0  0  0  0  0  0  0
    9.0299  -15.8482   22.5618 C   0  0  0  0  0  0  0  0  0  0  0  0
   10.2541  -15.6369   22.3003 O   0  0  0  0  0  0  0  0  0  0  0  0
    8.5371  -16.1588   23.8250 N   0  0  0  0  0  0  0  0  0  0  0  0
    9.4480  -16.1260   24.9688 C   0  0  1  0  0  0  0  0  0  0  0  0
    9.7858  -14.6497   25.1510 C   0  0  0  0  0  0  0  0  0  0  0  0
    8.6493  -13.9083   25.7285 C   0  0  0  0  0  0  0  0  0  0  0  0
    8.7572  -12.7546   26.4724 C   0  0  0  0  0  0  0  0  0  0  0  0
    7.6359  -12.0978   26.9891 C   0  0  0  0  0  0  0  0  0  0  0  0
    6.3753  -12.5989   26.7616 C   0  0  0  0  0  0  0  0  0  0  0  0
    6.2636  -13.7542   26.0170 C   0  0  0  0  0  0  0  0  0  0  0  0
    7.3588  -14.3964   25.5119 C   0  0  0  0  0  0  0  0  0  0  0  0
    8.8389  -16.7252   26.1616 C   0  0  0  0  0  0  0  0  0  0  0  0
    7.5857  -17.2885   26.1122 O   0  0  0  0  0  0  0  0  0  0  0  0
    9.4657  -16.7251   27.2430 O   0  0  0  0  0  0  0  0  0  0  0  0
  1  2  1  0
  3  2  1  0
  3  5  1  0
  3  4  1  1
  5  6  2  0
  8  7  1  6
  8  9  1  0
 10  8  1  0
 11 10  1  1
 12 11  1  0
 12  5  1  0
 13 11  1  0
 13 14  2  0
 15 13  1  0
 16 15  1  0
 16 24  1  0
 16 17  1  1
 18 19  2  0
 18 17  1  0
 20 19  1  0
 21 20  2  0
 22 21  1  0
 22 23  2  0
 23 18  1  0
 24 26  2  0
 24 25  1  0
M  END
$$$$
