SLF.pdb
     RDKit          3D

 26 26  0  0  1  0  0  0  0  0999 V2000
   11.2885  -19.5835   21.2448 O   0  0  0  0  0  0  0  0  0  0  0  0
   10.7587  -19.0904   20.0468 C   0  0  0  0  0  0  0  0  0  0  0  0
   11.2204  -17.6658   19.8089 C   0  0  2  0  0  0  0  0  0  0  0  0
   12.6532  -17.6363   19.7893 N   0  0  0  0  0  0  0  0  0  0  0  0
   10.6222  -16.7183   20.7535 C   0  0  0  0  0  0  0  0  0  0  0  0
   11.3209  -16.1720   21.6411 O   0  0  0  0  0  0  0  0  0  0  0  0
    8.5905  -12.6749   20.3506 C   0  0  0  0  0  0  0  0  0  0  0  0
    7.5891  -13.7756   20.1192 C   0  0  2  0  0  0  0  0  0  0  0  0
    6.2511  -13.1964   19.7070 C   0  0  0  0  0  0  0  0  0  0  0  0
    7.4986  -14.6701   21.2944 C   0  0  0  0  0  0  0  0  0  0  0  0
    8.6986  -15.4330   21.6863 C   0  0  2  0  0  0  0  0  0  0  0  0
    9.2305  -16.3590   20.7290 N   0  0  0  0  0  0  0  0  0  0  0  0
    8.4727  -16.1988   22.9645 C   0  0  0  0  0  0  0  0  0  0  0  0
    8.2434  -17.4392   22.8208 O   0  0  0  0  0  0  0  0  0  0  0  0
    8.5226  -15.5445   24.1910 N   0  0  0  0  0  0  0  0  0  0  0  0
    8.1946  -16.2900   25.4058 C   0  0  1  0  0  0  0  0  0  0  0  0
    8.5885  -15.3591   26.5482 C   0  0  0  0  0  0  0  0  0  0  0  0
    7.9057  -14.0568   26.4365 C   0  0  0  0  0  0  0  0  0  0  0  0
    6.5746  -13.8384   26.7131 C   0  0  0  0  0  0  0  0  0  0  0  0
    5.9893  -12.5743   26.5899 C   0  0  0  0  0  0  0  0  0  0  0  0
    6.7443  -11.4996   26.1815 C   0  0  0  0  0  0  0  0  0  0  0  0
    8.0778  -11.7148   25.9035 C   0  0  0  0  0  0  0  0  0  0  0  0
    8.6503  -12.9496   26.0238 C   0  0  0  0  0  0  0  0  0  0  0  0
    6.7779  -16.6704   25.4399 C   0  0  0  0  0  0  0  0  0  0  0  0
    6.3035  -17.5587   26.3759 O   0  0  0  0  0  0  0  0  0  0  0  0
    5.9857  -16.1819   24.6056 O   0  0  0  0  0  0  0  0  0  0  0  0
  1  2  1  0
  3  2  1  0
  3  5  1  0
  3  4  1  1
  5  6  2  0
  8  7  1  1
  8  9  1  0
 10  8  1  0
 11 10  1  6
 12 11  1  0
 12  5  1  0
 13 11  1  0
 13 14  2  0
 15 13  1  0
 16 15  1  0
 16 24  1  0
 16 17  1  1
 18 19  2  0
 18 17  1  0
 20 19  1  0
 21 20  2  0
 22 21  1  0
 22 23  2  0
 23 18  1  0
 24 26  2  0
 24 25  1  0
M  END
$$$$
