SLF.pdb
     RDKit          3D

 26 26  0  0  1  0  0  0  0  0999 V2000
    9.4137  -19.9146   22.4553 O   0  0  0  0  0  0  0  0  0  0  0  0
    9.9522  -20.5031   21.3053 C   0  0  0  0  0  0  0  0  0  0  0  0
    9.5530  -19.7183   20.0708 C   0  0  2  0  0  0  0  0  0  0  0  0
   10.2294  -20.2644   18.9313 N   0  0  0  0  0  0  0  0  0  0  0  0
    9.7465  -18.2752   20.2379 C   0  0  0  0  0  0  0  0  0  0  0  0
   10.8615  -17.7479   20.0072 O   0  0  0  0  0  0  0  0  0  0  0  0
    6.6846  -12.8985   20.9431 C   0  0  0  0  0  0  0  0  0  0  0  0
    7.9676  -13.6281   20.6445 C   0  0  2  0  0  0  0  0  0  0  0  0
    8.6022  -13.0876   19.3793 C   0  0  0  0  0  0  0  0  0  0  0  0
    7.7531  -15.0917   20.6082 C   0  0  0  0  0  0  0  0  0  0  0  0
    8.9276  -15.9738   20.7433 C   0  0  2  0  0  0  0  0  0  0  0  0
    8.6999  -17.3877   20.6664 N   0  0  0  0  0  0  0  0  0  0  0  0
    9.6677  -15.7142   22.0303 C   0  0  0  0  0  0  0  0  0  0  0  0
   10.6122  -14.8694   21.9524 O   0  0  0  0  0  0  0  0  0  0  0  0
    9.3016  -16.3804   23.1952 N   0  0  0  0  0  0  0  0  0  0  0  0
    9.1950  -15.6223   24.4414 C   0  0  1  0  0  0  0  0  0  0  0  0
    8.0787  -14.6146   24.1859 C   0  0  0  0  0  0  0  0  0  0  0  0
    7.8869  -13.7234   25.3451 C   0  0  0  0  0  0  0  0  0  0  0  0
    8.8418  -13.4566   26.3006 C   0  0  0  0  0  0  0  0  0  0  0  0
    8.5953  -12.5966   27.3756 C   0  0  0  0  0  0  0  0  0  0  0  0
    7.3696  -11.9861   27.5054 C   0  0  0  0  0  0  0  0  0  0  0  0
    6.4108  -12.2512   26.5503 C   0  0  0  0  0  0  0  0  0  0  0  0
    6.6512  -13.0913   25.4998 C   0  0  0  0  0  0  0  0  0  0  0  0
    8.9232  -16.4996   25.5856 C   0  0  0  0  0  0  0  0  0  0  0  0
    9.5804  -16.3313   26.7814 O   0  0  0  0  0  0  0  0  0  0  0  0
    8.0815  -17.4172   25.4757 O   0  0  0  0  0  0  0  0  0  0  0  0
  1  2  1  0
  3  2  1  0
  3  5  1  0
  3  4  1  6
  5  6  2  0
  8  7  1  6
  8  9  1  0
 10  8  1  0
 11 10  1  1
 12 11  1  0
 12  5  1  0
 13 11  1  0
 13 14  2  0
 15 13  1  0
 16 15  1  0
 16 24  1  0
 16 17  1  6
 18 19  2  0
 18 17  1  0
 20 19  1  0
 21 20  2  0
 22 21  1  0
 22 23  2  0
 23 18  1  0
 24 26  2  0
 24 25  1  0
M  END
$$$$
