SLF.pdb
     RDKit          3D

 26 26  0  0  1  0  0  0  0  0999 V2000
    8.4234  -19.8625   23.0714 O   0  0  0  0  0  0  0  0  0  0  0  0
    7.2500  -19.9526   22.3138 C   0  0  0  0  0  0  0  0  0  0  0  0
    7.5088  -19.5259   20.8819 C   0  0  2  0  0  0  0  0  0  0  0  0
    8.1563  -20.5979   20.1848 N   0  0  0  0  0  0  0  0  0  0  0  0
    8.2237  -18.2493   20.7986 C   0  0  0  0  0  0  0  0  0  0  0  0
    9.4428  -18.2164   20.5035 O   0  0  0  0  0  0  0  0  0  0  0  0
    7.2903  -12.0921   20.3818 C   0  0  0  0  0  0  0  0  0  0  0  0
    8.2222  -13.2731   20.3156 C   0  0  2  0  0  0  0  0  0  0  0  0
    8.9394  -13.3077   18.9814 C   0  0  0  0  0  0  0  0  0  0  0  0
    7.5104  -14.5325   20.6262 C   0  0  0  0  0  0  0  0  0  0  0  0
    8.3094  -15.7564   20.8246 C   0  0  2  0  0  0  0  0  0  0  0  0
    7.5941  -16.9802   21.0428 N   0  0  0  0  0  0  0  0  0  0  0  0
    9.2809  -15.6021   21.9664 C   0  0  0  0  0  0  0  0  0  0  0  0
   10.2879  -14.8670   21.7269 O   0  0  0  0  0  0  0  0  0  0  0  0
    9.0442  -16.2422   23.1786 N   0  0  0  0  0  0  0  0  0  0  0  0
    8.9523  -15.4395   24.3977 C   0  0  1  0  0  0  0  0  0  0  0  0
    7.8039  -14.4702   24.1360 C   0  0  0  0  0  0  0  0  0  0  0  0
    7.6044  -13.5570   25.2766 C   0  0  0  0  0  0  0  0  0  0  0  0
    6.3919  -13.0299   25.6615 C   0  0  0  0  0  0  0  0  0  0  0  0
    6.2714  -12.1704   26.7581 C   0  0  0  0  0  0  0  0  0  0  0  0
    7.3829  -11.8251   27.4912 C   0  0  0  0  0  0  0  0  0  0  0  0
    8.5989  -12.3511   27.1084 C   0  0  0  0  0  0  0  0  0  0  0  0
    8.7171  -13.1910   26.0371 C   0  0  0  0  0  0  0  0  0  0  0  0
    8.7346  -16.2786   25.5815 C   0  0  0  0  0  0  0  0  0  0  0  0
    8.5226  -17.6318   25.4635 O   0  0  0  0  0  0  0  0  0  0  0  0
    8.7402  -15.7586   26.7181 O   0  0  0  0  0  0  0  0  0  0  0  0
  1  2  1  0
  3  2  1  0
  3  5  1  0
  3  4  1  1
  5  6  2  0
  8  7  1  6
  8  9  1  0
 10  8  1  0
 11 10  1  1
 12 11  1  0
 12  5  1  0
 13 11  1  0
 13 14  2  0
 15 13  1  0
 16 15  1  0
 16 24  1  0
 16 17  1  6
 18 19  2  0
 18 17  1  0
 20 19  1  0
 21 20  2  0
 22 21  1  0
 22 23  2  0
 23 18  1  0
 24 26  2  0
 24 25  1  0
M  END
$$$$
