SLF.pdb
     RDKit          3D

 26 26  0  0  1  0  0  0  0  0999 V2000
    8.8733  -19.3400   22.2266 O   0  0  0  0  0  0  0  0  0  0  0  0
    7.5119  -19.3414   21.9022 C   0  0  0  0  0  0  0  0  0  0  0  0
    7.0917  -17.9849   21.3703 C   0  0  2  0  0  0  0  0  0  0  0  0
    7.3290  -17.9433   19.9574 N   0  0  0  0  0  0  0  0  0  0  0  0
    7.7099  -16.8788   22.1067 C   0  0  0  0  0  0  0  0  0  0  0  0
    8.7602  -16.3370   21.6851 O   0  0  0  0  0  0  0  0  0  0  0  0
    8.2404  -12.5051   24.8992 C   0  0  0  0  0  0  0  0  0  0  0  0
    6.9715  -13.1970   25.3224 C   0  0  2  0  0  0  0  0  0  0  0  0
    6.5910  -12.7901   26.7314 C   0  0  0  0  0  0  0  0  0  0  0  0
    7.0797  -14.6625   25.1493 C   0  0  0  0  0  0  0  0  0  0  0  0
    7.7309  -15.1761   23.9295 C   0  0  2  0  0  0  0  0  0  0  0  0
    7.1699  -16.3523   23.3305 N   0  0  0  0  0  0  0  0  0  0  0  0
    9.1946  -15.4519   24.1596 C   0  0  0  0  0  0  0  0  0  0  0  0
    9.9952  -14.7082   23.5133 O   0  0  0  0  0  0  0  0  0  0  0  0
    9.5883  -16.4629   25.0301 N   0  0  0  0  0  0  0  0  0  0  0  0
   10.9997  -16.5720   25.3974 C   0  0  1  0  0  0  0  0  0  0  0  0
   11.3347  -15.2323   26.0453 C   0  0  0  0  0  0  0  0  0  0  0  0
   10.7774  -15.1429   27.4077 C   0  0  0  0  0  0  0  0  0  0  0  0
   10.8495  -16.1389   28.3557 C   0  0  0  0  0  0  0  0  0  0  0  0
   10.3017  -15.9875   29.6335 C   0  0  0  0  0  0  0  0  0  0  0  0
    9.6661  -14.8177   29.9791 C   0  0  0  0  0  0  0  0  0  0  0  0
    9.5920  -13.8180   29.0320 C   0  0  0  0  0  0  0  0  0  0  0  0
   10.1270  -13.9654   27.7833 C   0  0  0  0  0  0  0  0  0  0  0  0
   11.2395  -17.7139   26.2870 C   0  0  0  0  0  0  0  0  0  0  0  0
   12.5144  -18.0670   26.6613 O   0  0  0  0  0  0  0  0  0  0  0  0
   10.2716  -18.3801   26.7134 O   0  0  0  0  0  0  0  0  0  0  0  0
  1  2  1  0
  3  2  1  0
  3  5  1  0
  3  4  1  6
  5  6  2  0
  8  7  1  1
  8  9  1  0
 10  8  1  0
 11 10  1  1
 12 11  1  0
 12  5  1  0
 13 11  1  0
 13 14  2  0
 15 13  1  0
 16 15  1  0
 16 24  1  0
 16 17  1  1
 18 19  2  0
 18 17  1  0
 20 19  1  0
 21 20  2  0
 22 21  1  0
 22 23  2  0
 23 18  1  0
 24 26  2  0
 24 25  1  0
M  END
$$$$
