SLF.pdb
     RDKit          3D

 26 26  0  0  1  0  0  0  0  0999 V2000
    7.2806  -18.8783   23.8369 O   0  0  0  0  0  0  0  0  0  0  0  0
    6.2016  -19.0055   22.9546 C   0  0  0  0  0  0  0  0  0  0  0  0
    6.5975  -18.5516   21.5630 C   0  0  2  0  0  0  0  0  0  0  0  0
    6.8691  -19.7041   20.7554 N   0  0  0  0  0  0  0  0  0  0  0  0
    7.6881  -17.5728   21.5826 C   0  0  0  0  0  0  0  0  0  0  0  0
    8.8565  -17.9100   21.2738 O   0  0  0  0  0  0  0  0  0  0  0  0
    8.4640  -14.1992   19.1185 C   0  0  0  0  0  0  0  0  0  0  0  0
    7.6664  -13.6824   20.2866 C   0  0  2  0  0  0  0  0  0  0  0  0
    7.2807  -12.2340   20.0652 C   0  0  0  0  0  0  0  0  0  0  0  0
    8.3825  -13.9052   21.5620 C   0  0  0  0  0  0  0  0  0  0  0  0
    8.6142  -15.2945   22.0001 C   0  0  2  0  0  0  0  0  0  0  0  0
    7.4993  -16.1950   21.9472 N   0  0  0  0  0  0  0  0  0  0  0  0
    9.1590  -15.3469   23.4043 C   0  0  0  0  0  0  0  0  0  0  0  0
   10.2891  -14.7923   23.5691 O   0  0  0  0  0  0  0  0  0  0  0  0
    8.4342  -15.9717   24.4138 N   0  0  0  0  0  0  0  0  0  0  0  0
    9.0249  -16.0803   25.7473 C   0  0  1  0  0  0  0  0  0  0  0  0
    7.8905  -15.7230   26.7023 C   0  0  0  0  0  0  0  0  0  0  0  0
    7.5957  -14.2785   26.6660 C   0  0  0  0  0  0  0  0  0  0  0  0
    6.3968  -13.7284   26.2712 C   0  0  0  0  0  0  0  0  0  0  0  0
    6.1815  -12.3466   26.2638 C   0  0  0  0  0  0  0  0  0  0  0  0
    7.1818  -11.4890   26.6583 C   0  0  0  0  0  0  0  0  0  0  0  0
    8.3840  -12.0365   27.0543 C   0  0  0  0  0  0  0  0  0  0  0  0
    8.5949  -13.3865   27.0618 C   0  0  0  0  0  0  0  0  0  0  0  0
    9.5746  -17.4194   25.9870 C   0  0  0  0  0  0  0  0  0  0  0  0
    9.6210  -18.3580   24.9834 O   0  0  0  0  0  0  0  0  0  0  0  0
   10.0082  -17.7165   27.1210 O   0  0  0  0  0  0  0  0  0  0  0  0
  1  2  1  0
  3  2  1  0
  3  5  1  0
  3  4  1  6
  5  6  2  0
  8  7  1  6
  8  9  1  0
 10  8  1  0
 11 10  1  1
 12 11  1  0
 12  5  1  0
 13 11  1  0
 13 14  2  0
 15 13  1  0
 16 15  1  0
 16 24  1  0
 16 17  1  1
 18 19  2  0
 18 17  1  0
 20 19  1  0
 21 20  2  0
 22 21  1  0
 22 23  2  0
 23 18  1  0
 24 26  2  0
 24 25  1  0
M  END
$$$$
