SLF.pdb
     RDKit          3D

 26 26  0  0  1  0  0  0  0  0999 V2000
    9.6469  -18.9273   20.7785 O   0  0  0  0  0  0  0  0  0  0  0  0
    8.5536  -18.3446   20.1274 C   0  0  0  0  0  0  0  0  0  0  0  0
    8.7232  -16.8398   20.0486 C   0  0  2  0  0  0  0  0  0  0  0  0
    9.7233  -16.5332   19.0688 N   0  0  0  0  0  0  0  0  0  0  0  0
    8.9749  -16.2353   21.3597 C   0  0  0  0  0  0  0  0  0  0  0  0
   10.1402  -15.9299   21.7107 O   0  0  0  0  0  0  0  0  0  0  0  0
    6.1533  -13.6730   26.3139 C   0  0  0  0  0  0  0  0  0  0  0  0
    7.4051  -13.9447   25.5222 C   0  0  2  0  0  0  0  0  0  0  0  0
    8.1425  -12.6522   25.2372 C   0  0  0  0  0  0  0  0  0  0  0  0
    7.1054  -14.7248   24.3012 C   0  0  0  0  0  0  0  0  0  0  0  0
    8.2318  -15.3207   23.5583 C   0  0  2  0  0  0  0  0  0  0  0  0
    7.9316  -15.9579   22.3090 N   0  0  0  0  0  0  0  0  0  0  0  0
    8.9778  -16.3247   24.3990 C   0  0  0  0  0  0  0  0  0  0  0  0
    8.5508  -17.5180   24.3260 O   0  0  0  0  0  0  0  0  0  0  0  0
   10.0531  -15.9201   25.1833 N   0  0  0  0  0  0  0  0  0  0  0  0
   10.8645  -16.9366   25.8522 C   0  0  1  0  0  0  0  0  0  0  0  0
   11.9486  -16.1478   26.5797 C   0  0  0  0  0  0  0  0  0  0  0  0
   11.3876  -15.3855   27.7106 C   0  0  0  0  0  0  0  0  0  0  0  0
   11.2716  -15.8573   28.9989 C   0  0  0  0  0  0  0  0  0  0  0  0
   10.7322  -15.0790   30.0280 C   0  0  0  0  0  0  0  0  0  0  0  0
   10.2968  -13.7997   29.7717 C   0  0  0  0  0  0  0  0  0  0  0  0
   10.4113  -13.3239   28.4824 C   0  0  0  0  0  0  0  0  0  0  0  0
   10.9383  -14.0839   27.4765 C   0  0  0  0  0  0  0  0  0  0  0  0
   10.0564  -17.7649   26.7542 C   0  0  0  0  0  0  0  0  0  0  0  0
    8.7259  -17.4923   26.9677 O   0  0  0  0  0  0  0  0  0  0  0  0
   10.5824  -18.7351   27.3411 O   0  0  0  0  0  0  0  0  0  0  0  0
  1  2  1  0
  3  2  1  0
  3  5  1  0
  3  4  1  6
  5  6  2  0
  8  7  1  6
  8  9  1  0
 10  8  1  0
 11 10  1  1
 12 11  1  0
 12  5  1  0
 13 11  1  0
 13 14  2  0
 15 13  1  0
 16 15  1  0
 16 24  1  0
 16 17  1  1
 18 19  2  0
 18 17  1  0
 20 19  1  0
 21 20  2  0
 22 21  1  0
 22 23  2  0
 23 18  1  0
 24 26  2  0
 24 25  1  0
M  END
$$$$
