SLF.pdb
     RDKit          3D

 26 26  0  0  1  0  0  0  0  0999 V2000
    7.6049  -18.4536   18.2517 O   0  0  0  0  0  0  0  0  0  0  0  0
    8.2233  -19.4323   19.0382 C   0  0  0  0  0  0  0  0  0  0  0  0
    8.4088  -18.9331   20.4580 C   0  0  2  0  0  0  0  0  0  0  0  0
    7.1212  -18.7023   21.0439 N   0  0  0  0  0  0  0  0  0  0  0  0
    9.3080  -17.7782   20.5323 C   0  0  0  0  0  0  0  0  0  0  0  0
   10.4857  -17.8555   20.1065 O   0  0  0  0  0  0  0  0  0  0  0  0
    7.3044  -14.2752   19.2321 C   0  0  0  0  0  0  0  0  0  0  0  0
    7.8275  -13.9165   20.5979 C   0  0  2  0  0  0  0  0  0  0  0  0
    7.3732  -12.5254   20.9906 C   0  0  0  0  0  0  0  0  0  0  0  0
    9.2951  -14.0910   20.6700 C   0  0  0  0  0  0  0  0  0  0  0  0
    9.8232  -15.4023   21.0911 C   0  0  2  0  0  0  0  0  0  0  0  0
    8.9130  -16.5107   21.0836 N   0  0  0  0  0  0  0  0  0  0  0  0
   10.4289  -15.3365   22.4695 C   0  0  0  0  0  0  0  0  0  0  0  0
   11.3404  -14.4659   22.6209 O   0  0  0  0  0  0  0  0  0  0  0  0
    9.9843  -16.1930   23.4714 N   0  0  0  0  0  0  0  0  0  0  0  0
   10.4825  -16.0085   24.8341 C   0  0  1  0  0  0  0  0  0  0  0  0
    9.3685  -15.2549   25.5536 C   0  0  0  0  0  0  0  0  0  0  0  0
    9.7047  -15.0292   26.9717 C   0  0  0  0  0  0  0  0  0  0  0  0
   10.3974  -15.9137   27.7678 C   0  0  0  0  0  0  0  0  0  0  0  0
   10.6870  -15.6356   29.1074 C   0  0  0  0  0  0  0  0  0  0  0  0
   10.2785  -14.4493   29.6712 C   0  0  0  0  0  0  0  0  0  0  0  0
    9.5844  -13.5612   28.8767 C   0  0  0  0  0  0  0  0  0  0  0  0
    9.3012  -13.8324   27.5677 C   0  0  0  0  0  0  0  0  0  0  0  0
   10.8081  -17.2910   25.4681 C   0  0  0  0  0  0  0  0  0  0  0  0
   10.0366  -18.4077   25.2490 O   0  0  0  0  0  0  0  0  0  0  0  0
   11.8021  -17.3742   26.2215 O   0  0  0  0  0  0  0  0  0  0  0  0
  1  2  1  0
  3  2  1  0
  3  5  1  0
  3  4  1  6
  5  6  2  0
  8  7  1  6
  8  9  1  0
 10  8  1  0
 11 10  1  1
 12 11  1  0
 12  5  1  0
 13 11  1  0
 13 14  2  0
 15 13  1  0
 16 15  1  0
 16 24  1  0
 16 17  1  1
 18 19  2  0
 18 17  1  0
 20 19  1  0
 21 20  2  0
 22 21  1  0
 22 23  2  0
 23 18  1  0
 24 26  2  0
 24 25  1  0
M  END
$$$$
