WVL.pdb
     RDKit          3D

 30 31  0  0  1  0  0  0  0  0999 V2000
    6.0055  -18.4109   24.8950 N   0  0  0  0  0  0  0  0  0  0  0  0
    6.5393  -17.0819   24.7511 C   0  0  1  0  0  0  0  0  0  0  0  0
    6.9262  -16.5446   26.0886 C   0  0  0  0  0  0  0  0  0  0  0  0
    6.1736  -15.3476   26.4466 C   0  0  0  0  0  0  0  0  0  0  0  0
    4.8935  -15.2945   27.0012 C   0  0  0  0  0  0  0  0  0  0  0  0
    4.5373  -14.0291   27.2360 N   0  0  0  0  0  0  0  0  0  0  0  0
    5.5762  -13.2464   26.8381 C   0  0  0  0  0  0  0  0  0  0  0  0
    5.7505  -11.8685   26.8422 C   0  0  0  0  0  0  0  0  0  0  0  0
    6.9063  -11.2805   26.3708 C   0  0  0  0  0  0  0  0  0  0  0  0
    7.9215  -12.0732   25.8800 C   0  0  0  0  0  0  0  0  0  0  0  0
    7.7639  -13.4341   25.8699 C   0  0  0  0  0  0  0  0  0  0  0  0
    6.6014  -14.0274   26.3455 C   0  0  0  0  0  0  0  0  0  0  0  0
    7.6801  -17.1439   23.8051 C   0  0  0  0  0  0  0  0  0  0  0  0
    8.2069  -18.2515   23.5522 O   0  0  0  0  0  0  0  0  0  0  0  0
   10.4992  -14.9734   20.3012 C   0  0  0  0  0  0  0  0  0  0  0  0
    9.3272  -14.9367   21.2252 C   0  0  1  0  0  0  0  0  0  0  0  0
    8.0666  -15.0411   20.3883 C   0  0  0  0  0  0  0  0  0  0  0  0
    9.3042  -16.0567   22.2140 C   0  0  2  0  0  0  0  0  0  0  0  0
    8.2302  -16.0162   23.1517 N   0  0  0  0  0  0  0  0  0  0  0  0
   10.6035  -16.0236   22.9837 C   0  0  0  0  0  0  0  0  0  0  0  0
   11.4633  -15.1538   22.6987 O   0  0  0  0  0  0  0  0  0  0  0  0
   11.3298  -15.7505   28.2243 C   0  0  0  0  0  0  0  0  0  0  0  0
   11.2910  -14.7651   27.0773 C   0  0  2  0  0  0  0  0  0  0  0  0
   10.7166  -13.4269   27.4359 C   0  0  0  0  0  0  0  0  0  0  0  0
   10.8890  -15.3351   25.7773 C   0  0  0  0  0  0  0  0  0  0  0  0
   11.4659  -16.5928   25.2996 C   0  0  2  0  0  0  0  0  0  0  0  0
   10.8507  -16.9639   24.0173 N   0  0  0  0  0  0  0  0  0  0  0  0
   11.6355  -17.7147   26.2125 C   0  0  0  0  0  0  0  0  0  0  0  0
   12.7599  -17.9734   26.9749 O   0  0  0  0  0  0  0  0  0  0  0  0
   10.7135  -18.5538   26.3582 O   0  0  0  0  0  0  0  0  0  0  0  0
  2  1  1  1
  2  3  1  0
  2 13  1  0
  3  4  1  0
  4  5  2  0
  4 12  1  0
  5  6  1  0
  6  7  1  0
  7  8  2  0
  8  9  1  0
 10  9  2  0
 11 10  1  0
 12 11  2  0
 12  7  1  0
 13 19  1  0
 14 13  2  0
 16 15  1  6
 16 17  1  0
 18 16  1  0
 18 19  1  1
 20 27  1  0
 20 18  1  0
 21 20  2  0
 23 22  1  1
 23 24  1  0
 25 23  1  0
 26 25  1  1
 26 27  1  0
 28 26  1  0
 28 29  1  0
 30 28  2  0
M  END
$$$$
