WVL.pdb
     RDKit          3D

 30 31  0  0  1  0  0  0  0  0999 V2000
   11.1511  -16.8379   18.6858 N   0  0  0  0  0  0  0  0  0  0  0  0
   10.9215  -17.5510   19.9149 C   0  0  1  0  0  0  0  0  0  0  0  0
   12.1251  -18.3624   20.2615 C   0  0  0  0  0  0  0  0  0  0  0  0
   11.9208  -19.7880   20.0304 C   0  0  0  0  0  0  0  0  0  0  0  0
   11.2020  -20.3756   18.9878 C   0  0  0  0  0  0  0  0  0  0  0  0
   11.2621  -21.7070   19.0701 N   0  0  0  0  0  0  0  0  0  0  0  0
   12.0167  -22.0012   20.1631 C   0  0  0  0  0  0  0  0  0  0  0  0
   12.3973  -23.2128   20.7252 C   0  0  0  0  0  0  0  0  0  0  0  0
   13.1721  -23.2738   21.8654 C   0  0  0  0  0  0  0  0  0  0  0  0
   13.5845  -22.1062   22.4708 C   0  0  0  0  0  0  0  0  0  0  0  0
   13.2170  -20.9034   21.9274 C   0  0  0  0  0  0  0  0  0  0  0  0
   12.4382  -20.8407   20.7788 C   0  0  0  0  0  0  0  0  0  0  0  0
   10.5745  -16.5610   20.9635 C   0  0  0  0  0  0  0  0  0  0  0  0
   11.0914  -15.4209   20.9250 O   0  0  0  0  0  0  0  0  0  0  0  0
    7.4860  -14.4775   24.0489 C   0  0  0  0  0  0  0  0  0  0  0  0
    7.8458  -15.5084   23.0308 C   0  0  1  0  0  0  0  0  0  0  0  0
    7.5033  -14.9544   21.6610 C   0  0  0  0  0  0  0  0  0  0  0  0
    9.2966  -15.8653   23.0213 C   0  0  2  0  0  0  0  0  0  0  0  0
    9.6811  -16.8163   22.0302 N   0  0  0  0  0  0  0  0  0  0  0  0
    9.6447  -16.4313   24.3779 C   0  0  0  0  0  0  0  0  0  0  0  0
   10.1194  -17.5914   24.4551 O   0  0  0  0  0  0  0  0  0  0  0  0
   11.1464  -13.3599   27.0835 C   0  0  0  0  0  0  0  0  0  0  0  0
    9.7478  -13.6873   27.5579 C   0  0  2  0  0  0  0  0  0  0  0  0
    9.1639  -12.6731   28.4958 C   0  0  0  0  0  0  0  0  0  0  0  0
    9.5153  -15.1071   27.8843 C   0  0  0  0  0  0  0  0  0  0  0  0
    9.7728  -16.1555   26.8956 C   0  0  2  0  0  0  0  0  0  0  0  0
    9.4382  -15.6618   25.5522 N   0  0  0  0  0  0  0  0  0  0  0  0
    9.3303  -17.5208   27.1431 C   0  0  0  0  0  0  0  0  0  0  0  0
    9.8646  -18.3860   28.0803 O   0  0  0  0  0  0  0  0  0  0  0  0
    8.3865  -18.0085   26.4748 O   0  0  0  0  0  0  0  0  0  0  0  0
  2  1  1  6
  2  3  1  0
  2 13  1  0
  3  4  1  0
  4  5  2  0
  4 12  1  0
  5  6  1  0
  6  7  1  0
  7  8  2  0
  8  9  1  0
 10  9  2  0
 11 10  1  0
 12 11  2  0
 12  7  1  0
 13 19  1  0
 14 13  2  0
 16 15  1  1
 16 17  1  0
 18 16  1  0
 18 19  1  6
 20 27  1  0
 20 18  1  0
 21 20  2  0
 23 22  1  1
 23 24  1  0
 25 23  1  0
 26 25  1  1
 26 27  1  0
 28 26  1  0
 28 29  1  0
 30 28  2  0
M  END
$$$$
