WVL.pdb
     RDKit          3D

 30 31  0  0  1  0  0  0  0  0999 V2000
    6.0790  -18.3371   25.2550 N   0  0  0  0  0  0  0  0  0  0  0  0
    6.4456  -16.9728   24.9792 C   0  0  1  0  0  0  0  0  0  0  0  0
    6.7859  -16.2730   26.2527 C   0  0  0  0  0  0  0  0  0  0  0  0
    5.9920  -15.0662   26.4540 C   0  0  0  0  0  0  0  0  0  0  0  0
    4.6626  -14.9955   26.8747 C   0  0  0  0  0  0  0  0  0  0  0  0
    4.2748  -13.7228   26.9883 N   0  0  0  0  0  0  0  0  0  0  0  0
    5.3420  -12.9528   26.6438 C   0  0  0  0  0  0  0  0  0  0  0  0
    5.5040  -11.5752   26.5734 C   0  0  0  0  0  0  0  0  0  0  0  0
    6.6963  -11.0026   26.1804 C   0  0  0  0  0  0  0  0  0  0  0  0
    7.7616  -11.8110   25.8463 C   0  0  0  0  0  0  0  0  0  0  0  0
    7.6166  -13.1718   25.9113 C   0  0  0  0  0  0  0  0  0  0  0  0
    6.4172  -13.7494   26.3081 C   0  0  0  0  0  0  0  0  0  0  0  0
    7.5702  -16.9849   24.0121 C   0  0  0  0  0  0  0  0  0  0  0  0
    8.3982  -17.9239   24.0467 O   0  0  0  0  0  0  0  0  0  0  0  0
   10.0047  -14.9167   20.1544 C   0  0  0  0  0  0  0  0  0  0  0  0
    8.8166  -14.9297   21.0583 C   0  0  1  0  0  0  0  0  0  0  0  0
    7.6061  -15.3287   20.2361 C   0  0  0  0  0  0  0  0  0  0  0  0
    8.9308  -15.8990   22.1897 C   0  0  2  0  0  0  0  0  0  0  0  0
    7.7816  -15.9892   23.0297 N   0  0  0  0  0  0  0  0  0  0  0  0
   10.1061  -15.4819   23.0419 C   0  0  0  0  0  0  0  0  0  0  0  0
   10.2301  -14.2755   23.3676 O   0  0  0  0  0  0  0  0  0  0  0  0
   10.2498  -16.1304   28.2660 C   0  0  0  0  0  0  0  0  0  0  0  0
   11.2366  -15.7300   27.1916 C   0  0  2  0  0  0  0  0  0  0  0  0
   11.9346  -14.4285   27.4525 C   0  0  0  0  0  0  0  0  0  0  0  0
   10.7892  -15.9796   25.8081 C   0  0  0  0  0  0  0  0  0  0  0  0
   11.7468  -16.3561   24.7668 C   0  0  2  0  0  0  0  0  0  0  0  0
   11.0597  -16.4416   23.4703 N   0  0  0  0  0  0  0  0  0  0  0  0
   12.6938  -17.4379   24.9987 C   0  0  0  0  0  0  0  0  0  0  0  0
   12.4182  -18.7891   24.8953 O   0  0  0  0  0  0  0  0  0  0  0  0
   13.8776  -17.1799   25.3260 O   0  0  0  0  0  0  0  0  0  0  0  0
  2  1  1  1
  2  3  1  0
  2 13  1  0
  3  4  1  0
  4  5  2  0
  4 12  1  0
  5  6  1  0
  6  7  1  0
  7  8  2  0
  8  9  1  0
 10  9  2  0
 11 10  1  0
 12 11  2  0
 12  7  1  0
 13 19  1  0
 14 13  2  0
 16 15  1  6
 16 17  1  0
 18 16  1  0
 18 19  1  1
 20 27  1  0
 20 18  1  0
 21 20  2  0
 23 22  1  1
 23 24  1  0
 25 23  1  0
 26 25  1  1
 26 27  1  0
 28 26  1  0
 28 29  1  0
 30 28  2  0
M  END
$$$$
