WVL.pdb
     RDKit          3D

 30 31  0  0  1  0  0  0  0  0999 V2000
    5.9858  -18.7224   24.8784 N   0  0  0  0  0  0  0  0  0  0  0  0
    6.2588  -17.3139   24.7617 C   0  0  1  0  0  0  0  0  0  0  0  0
    6.6116  -16.7545   26.0996 C   0  0  0  0  0  0  0  0  0  0  0  0
    6.0192  -15.4414   26.3277 C   0  0  0  0  0  0  0  0  0  0  0  0
    4.6785  -15.1599   26.5974 C   0  0  0  0  0  0  0  0  0  0  0  0
    4.5054  -13.8502   26.7923 N   0  0  0  0  0  0  0  0  0  0  0  0
    5.7256  -13.2656   26.6517 C   0  0  0  0  0  0  0  0  0  0  0  0
    6.1315  -11.9402   26.7384 C   0  0  0  0  0  0  0  0  0  0  0  0
    7.4461  -11.5683   26.5446 C   0  0  0  0  0  0  0  0  0  0  0  0
    8.3898  -12.5307   26.2562 C   0  0  0  0  0  0  0  0  0  0  0  0
    8.0042  -13.8423   26.1677 C   0  0  0  0  0  0  0  0  0  0  0  0
    6.6813  -14.2182   26.3641 C   0  0  0  0  0  0  0  0  0  0  0  0
    7.3393  -17.1357   23.7613 C   0  0  0  0  0  0  0  0  0  0  0  0
    7.9778  -18.1372   23.3641 O   0  0  0  0  0  0  0  0  0  0  0  0
    9.7420  -14.2783   20.4440 C   0  0  0  0  0  0  0  0  0  0  0  0
    8.6612  -14.4295   21.4627 C   0  0  1  0  0  0  0  0  0  0  0  0
    7.3303  -14.4466   20.7354 C   0  0  0  0  0  0  0  0  0  0  0  0
    8.7549  -15.6909   22.2580 C   0  0  2  0  0  0  0  0  0  0  0  0
    7.7108  -15.8872   23.2097 N   0  0  0  0  0  0  0  0  0  0  0  0
   10.0713  -15.6763   22.9987 C   0  0  0  0  0  0  0  0  0  0  0  0
   11.1341  -15.4870   22.3571 O   0  0  0  0  0  0  0  0  0  0  0  0
   11.0165  -13.1157   26.5520 C   0  0  0  0  0  0  0  0  0  0  0  0
   10.3851  -14.4011   27.0390 C   0  0  2  0  0  0  0  0  0  0  0  0
    9.9269  -14.3584   28.4665 C   0  0  0  0  0  0  0  0  0  0  0  0
   11.0580  -15.6358   26.5927 C   0  0  0  0  0  0  0  0  0  0  0  0
   11.3575  -15.8566   25.1769 C   0  0  2  0  0  0  0  0  0  0  0  0
   10.1077  -15.8739   24.4036 N   0  0  0  0  0  0  0  0  0  0  0  0
   12.3040  -16.8901   24.7806 C   0  0  0  0  0  0  0  0  0  0  0  0
   12.0547  -17.9138   23.8849 O   0  0  0  0  0  0  0  0  0  0  0  0
   13.4619  -16.9035   25.2648 O   0  0  0  0  0  0  0  0  0  0  0  0
  2  1  1  1
  2  3  1  0
  2 13  1  0
  3  4  1  0
  4  5  2  0
  4 12  1  0
  5  6  1  0
  6  7  1  0
  7  8  2  0
  8  9  1  0
 10  9  2  0
 11 10  1  0
 12 11  2  0
 12  7  1  0
 13 19  1  0
 14 13  2  0
 16 15  1  6
 16 17  1  0
 18 16  1  0
 18 19  1  1
 20 27  1  0
 20 18  1  0
 21 20  2  0
 23 22  1  1
 23 24  1  0
 25 23  1  0
 26 25  1  1
 26 27  1  0
 28 26  1  0
 28 29  1  0
 30 28  2  0
M  END
$$$$
