WVL.pdb
     RDKit          3D

 30 31  0  0  1  0  0  0  0  0999 V2000
    6.1226  -18.4399   25.3643 N   0  0  0  0  0  0  0  0  0  0  0  0
    6.3846  -17.0618   25.0414 C   0  0  1  0  0  0  0  0  0  0  0  0
    6.7063  -16.3030   26.2855 C   0  0  0  0  0  0  0  0  0  0  0  0
    5.8510  -15.1349   26.4620 C   0  0  0  0  0  0  0  0  0  0  0  0
    4.4604  -15.1226   26.5850 C   0  0  0  0  0  0  0  0  0  0  0  0
    4.0183  -13.8769   26.7746 N   0  0  0  0  0  0  0  0  0  0  0  0
    5.1109  -13.0664   26.7766 C   0  0  0  0  0  0  0  0  0  0  0  0
    5.2421  -11.6916   26.9230 C   0  0  0  0  0  0  0  0  0  0  0  0
    6.4734  -11.0701   26.8800 C   0  0  0  0  0  0  0  0  0  0  0  0
    7.6101  -11.8254   26.6867 C   0  0  0  0  0  0  0  0  0  0  0  0
    7.4961  -13.1829   26.5410 C   0  0  0  0  0  0  0  0  0  0  0  0
    6.2573  -13.8098   26.5854 C   0  0  0  0  0  0  0  0  0  0  0  0
    7.4826  -17.0233   24.0448 C   0  0  0  0  0  0  0  0  0  0  0  0
    8.1141  -18.0739   23.7878 O   0  0  0  0  0  0  0  0  0  0  0  0
    9.8022  -14.6020   20.3323 C   0  0  0  0  0  0  0  0  0  0  0  0
    8.8107  -14.5903   21.4483 C   0  0  1  0  0  0  0  0  0  0  0  0
    7.4241  -14.4834   20.8427 C   0  0  0  0  0  0  0  0  0  0  0  0
    8.8386  -15.8231   22.2921 C   0  0  2  0  0  0  0  0  0  0  0  0
    7.8787  -15.8586   23.3465 N   0  0  0  0  0  0  0  0  0  0  0  0
   10.2151  -15.9363   22.9037 C   0  0  0  0  0  0  0  0  0  0  0  0
   11.2230  -15.9105   22.1549 O   0  0  0  0  0  0  0  0  0  0  0  0
   11.2355  -13.5682   26.5095 C   0  0  0  0  0  0  0  0  0  0  0  0
   10.7756  -14.9380   26.9575 C   0  0  2  0  0  0  0  0  0  0  0  0
   10.4115  -15.0193   28.4101 C   0  0  0  0  0  0  0  0  0  0  0  0
   11.5428  -16.0679   26.3995 C   0  0  0  0  0  0  0  0  0  0  0  0
   11.6792  -16.2393   24.9521 C   0  0  2  0  0  0  0  0  0  0  0  0
   10.3689  -16.0700   24.3081 N   0  0  0  0  0  0  0  0  0  0  0  0
   12.4548  -17.3491   24.4155 C   0  0  0  0  0  0  0  0  0  0  0  0
   11.9839  -18.3209   23.5516 O   0  0  0  0  0  0  0  0  0  0  0  0
   13.6612  -17.4865   24.7329 O   0  0  0  0  0  0  0  0  0  0  0  0
  2  1  1  1
  2  3  1  0
  2 13  1  0
  3  4  1  0
  4  5  2  0
  4 12  1  0
  5  6  1  0
  6  7  1  0
  7  8  2  0
  8  9  1  0
 10  9  2  0
 11 10  1  0
 12 11  2  0
 12  7  1  0
 13 19  1  0
 14 13  2  0
 16 15  1  6
 16 17  1  0
 18 16  1  0
 18 19  1  1
 20 27  1  0
 20 18  1  0
 21 20  2  0
 23 22  1  1
 23 24  1  0
 25 23  1  0
 26 25  1  1
 26 27  1  0
 28 26  1  0
 28 29  1  0
 30 28  2  0
M  END
$$$$
