WVL.pdb
     RDKit          3D

 30 31  0  0  1  0  0  0  0  0999 V2000
    5.9820  -18.4944   25.0235 N   0  0  0  0  0  0  0  0  0  0  0  0
    6.2851  -17.0986   24.8453 C   0  0  1  0  0  0  0  0  0  0  0  0
    6.6640  -16.4919   26.1552 C   0  0  0  0  0  0  0  0  0  0  0  0
    5.9484  -15.2491   26.4208 C   0  0  0  0  0  0  0  0  0  0  0  0
    4.6173  -15.1148   26.8197 C   0  0  0  0  0  0  0  0  0  0  0  0
    4.3133  -13.8285   27.0101 N   0  0  0  0  0  0  0  0  0  0  0  0
    5.4376  -13.1128   26.7378 C   0  0  0  0  0  0  0  0  0  0  0  0
    5.6935  -11.7480   26.7620 C   0  0  0  0  0  0  0  0  0  0  0  0
    6.9306  -11.2342   26.4307 C   0  0  0  0  0  0  0  0  0  0  0  0
    7.9467  -12.0904   26.0641 C   0  0  0  0  0  0  0  0  0  0  0  0
    7.7090  -13.4394   26.0360 C   0  0  0  0  0  0  0  0  0  0  0  0
    6.4645  -13.9579   26.3706 C   0  0  0  0  0  0  0  0  0  0  0  0
    7.3590  -16.9869   23.8283 C   0  0  0  0  0  0  0  0  0  0  0  0
    7.9783  -18.0167   23.4754 O   0  0  0  0  0  0  0  0  0  0  0  0
    9.7416  -14.2683   20.3643 C   0  0  0  0  0  0  0  0  0  0  0  0
    8.7059  -14.3595   21.4356 C   0  0  1  0  0  0  0  0  0  0  0  0
    7.3430  -14.2319   20.7824 C   0  0  0  0  0  0  0  0  0  0  0  0
    8.7260  -15.6522   22.1847 C   0  0  2  0  0  0  0  0  0  0  0  0
    7.7448  -15.7730   23.2128 N   0  0  0  0  0  0  0  0  0  0  0  0
   10.0904  -15.8027   22.8150 C   0  0  0  0  0  0  0  0  0  0  0  0
   11.1146  -15.6477   22.1050 O   0  0  0  0  0  0  0  0  0  0  0  0
   11.1746  -13.7988   26.7627 C   0  0  0  0  0  0  0  0  0  0  0  0
   10.6204  -15.1818   27.0244 C   0  0  2  0  0  0  0  0  0  0  0  0
   10.2408  -15.4314   28.4537 C   0  0  0  0  0  0  0  0  0  0  0  0
   11.3139  -16.2764   26.3192 C   0  0  0  0  0  0  0  0  0  0  0  0
   11.5149  -16.2259   24.8700 C   0  0  2  0  0  0  0  0  0  0  0  0
   10.2146  -16.1154   24.1937 N   0  0  0  0  0  0  0  0  0  0  0  0
   12.4320  -17.1550   24.2246 C   0  0  0  0  0  0  0  0  0  0  0  0
   13.8001  -17.2069   24.4199 O   0  0  0  0  0  0  0  0  0  0  0  0
   11.9984  -18.0037   23.4079 O   0  0  0  0  0  0  0  0  0  0  0  0
  2  1  1  1
  2  3  1  0
  2 13  1  0
  3  4  1  0
  4  5  2  0
  4 12  1  0
  5  6  1  0
  6  7  1  0
  7  8  2  0
  8  9  1  0
 10  9  2  0
 11 10  1  0
 12 11  2  0
 12  7  1  0
 13 19  1  0
 14 13  2  0
 16 15  1  6
 16 17  1  0
 18 16  1  0
 18 19  1  1
 20 27  1  0
 20 18  1  0
 21 20  2  0
 23 22  1  1
 23 24  1  0
 25 23  1  0
 26 25  1  1
 26 27  1  0
 28 26  1  0
 28 29  1  0
 30 28  2  0
M  END
$$$$
