WVL.pdb
     RDKit          3D

 30 31  0  0  1  0  0  0  0  0999 V2000
    5.7769  -18.3215   24.5663 N   0  0  0  0  0  0  0  0  0  0  0  0
    6.4055  -17.0267   24.5473 C   0  0  1  0  0  0  0  0  0  0  0  0
    6.7632  -16.6177   25.9373 C   0  0  0  0  0  0  0  0  0  0  0  0
    6.1983  -15.3226   26.2993 C   0  0  0  0  0  0  0  0  0  0  0  0
    4.9824  -15.0869   26.9436 C   0  0  0  0  0  0  0  0  0  0  0  0
    4.8084  -13.7793   27.1509 N   0  0  0  0  0  0  0  0  0  0  0  0
    5.9038  -13.1504   26.6456 C   0  0  0  0  0  0  0  0  0  0  0  0
    6.2506  -11.8072   26.5795 C   0  0  0  0  0  0  0  0  0  0  0  0
    7.4311  -11.3888   26.0005 C   0  0  0  0  0  0  0  0  0  0  0  0
    8.2965  -12.3214   25.4700 C   0  0  0  0  0  0  0  0  0  0  0  0
    7.9678  -13.6502   25.5283 C   0  0  0  0  0  0  0  0  0  0  0  0
    6.7803  -14.0727   26.1122 C   0  0  0  0  0  0  0  0  0  0  0  0
    7.5833  -17.1000   23.6488 C   0  0  0  0  0  0  0  0  0  0  0  0
    8.0973  -18.2150   23.4018 O   0  0  0  0  0  0  0  0  0  0  0  0
   10.8111  -14.8992   20.5256 C   0  0  0  0  0  0  0  0  0  0  0  0
    9.5343  -14.8629   21.2982 C   0  0  1  0  0  0  0  0  0  0  0  0
    8.3857  -14.9121   20.3087 C   0  0  0  0  0  0  0  0  0  0  0  0
    9.3663  -16.0114   22.2391 C   0  0  2  0  0  0  0  0  0  0  0  0
    8.1837  -15.9754   23.0356 N   0  0  0  0  0  0  0  0  0  0  0  0
   10.5587  -16.0307   23.1661 C   0  0  0  0  0  0  0  0  0  0  0  0
   11.7154  -15.9936   22.6785 O   0  0  0  0  0  0  0  0  0  0  0  0
   10.5806  -13.3856   26.6624 C   0  0  0  0  0  0  0  0  0  0  0  0
   10.1001  -14.7279   27.1681 C   0  0  2  0  0  0  0  0  0  0  0  0
    9.4849  -14.6852   28.5352 C   0  0  0  0  0  0  0  0  0  0  0  0
   10.9971  -15.8625   26.8772 C   0  0  0  0  0  0  0  0  0  0  0  0
   11.4975  -16.0941   25.5211 C   0  0  2  0  0  0  0  0  0  0  0  0
   10.3752  -16.0897   24.5720 N   0  0  0  0  0  0  0  0  0  0  0  0
   12.4714  -17.1472   25.2692 C   0  0  0  0  0  0  0  0  0  0  0  0
   12.2121  -18.3568   24.6512 O   0  0  0  0  0  0  0  0  0  0  0  0
   13.6659  -16.9993   25.6252 O   0  0  0  0  0  0  0  0  0  0  0  0
  2  1  1  1
  2  3  1  0
  2 13  1  0
  3  4  1  0
  4  5  2  0
  4 12  1  0
  5  6  1  0
  6  7  1  0
  7  8  2  0
  8  9  1  0
 10  9  2  0
 11 10  1  0
 12 11  2  0
 12  7  1  0
 13 19  1  0
 14 13  2  0
 16 15  1  6
 16 17  1  0
 18 16  1  0
 18 19  1  1
 20 27  1  0
 20 18  1  0
 21 20  2  0
 23 22  1  1
 23 24  1  0
 25 23  1  0
 26 25  1  1
 26 27  1  0
 28 26  1  0
 28 29  1  0
 30 28  2  0
M  END
$$$$
