WVL.pdb
     RDKit          3D

 30 31  0  0  1  0  0  0  0  0999 V2000
    6.1883  -17.6941   24.1260 N   0  0  0  0  0  0  0  0  0  0  0  0
    7.2381  -16.7101   24.1674 C   0  0  1  0  0  0  0  0  0  0  0  0
    7.3485  -16.1458   25.5446 C   0  0  0  0  0  0  0  0  0  0  0  0
    6.4906  -14.9826   25.7399 C   0  0  0  0  0  0  0  0  0  0  0  0
    5.1929  -14.9727   26.2548 C   0  0  0  0  0  0  0  0  0  0  0  0
    4.7284  -13.7229   26.3289 N   0  0  0  0  0  0  0  0  0  0  0  0
    5.7133  -12.9076   25.8643 C   0  0  0  0  0  0  0  0  0  0  0  0
    5.7756  -11.5290   25.7081 C   0  0  0  0  0  0  0  0  0  0  0  0
    6.8951  -10.9052   25.1965 C   0  0  0  0  0  0  0  0  0  0  0  0
    7.9863  -11.6619   24.8271 C   0  0  0  0  0  0  0  0  0  0  0  0
    7.9394  -13.0231   24.9758 C   0  0  0  0  0  0  0  0  0  0  0  0
    6.8135  -13.6521   25.4920 C   0  0  0  0  0  0  0  0  0  0  0  0
    8.4923  -17.3556   23.7087 C   0  0  0  0  0  0  0  0  0  0  0  0
    8.5081  -18.5921   23.5105 O   0  0  0  0  0  0  0  0  0  0  0  0
   10.6532  -16.9864   20.6187 C   0  0  0  0  0  0  0  0  0  0  0  0
   11.5211  -16.7608   21.8122 C   0  0  1  0  0  0  0  0  0  0  0  0
   11.7271  -15.2660   21.9665 C   0  0  0  0  0  0  0  0  0  0  0  0
   10.9335  -17.2676   23.0891 C   0  0  2  0  0  0  0  0  0  0  0  0
    9.7015  -16.6603   23.4733 N   0  0  0  0  0  0  0  0  0  0  0  0
   11.9399  -17.0298   24.1901 C   0  0  0  0  0  0  0  0  0  0  0  0
   12.7803  -16.1052   24.0638 O   0  0  0  0  0  0  0  0  0  0  0  0
    9.5783  -14.4928   28.0258 C   0  0  0  0  0  0  0  0  0  0  0  0
   10.8824  -15.2514   27.9155 C   0  0  2  0  0  0  0  0  0  0  0  0
   12.0882  -14.4654   28.3370 C   0  0  0  0  0  0  0  0  0  0  0  0
   11.0204  -16.0839   26.7053 C   0  0  0  0  0  0  0  0  0  0  0  0
   11.8596  -17.2834   26.7121 C   0  0  2  0  0  0  0  0  0  0  0  0
   11.9365  -17.8411   25.3544 N   0  0  0  0  0  0  0  0  0  0  0  0
   11.6885  -18.2915   27.7490 C   0  0  0  0  0  0  0  0  0  0  0  0
   10.6265  -19.1712   27.8535 O   0  0  0  0  0  0  0  0  0  0  0  0
   12.5483  -18.4164   28.6548 O   0  0  0  0  0  0  0  0  0  0  0  0
  2  1  1  1
  2  3  1  0
  2 13  1  0
  3  4  1  0
  4  5  2  0
  4 12  1  0
  5  6  1  0
  6  7  1  0
  7  8  2  0
  8  9  1  0
 10  9  2  0
 11 10  1  0
 12 11  2  0
 12  7  1  0
 13 19  1  0
 14 13  2  0
 16 15  1  6
 16 17  1  0
 18 16  1  0
 18 19  1  1
 20 27  1  0
 20 18  1  0
 21 20  2  0
 23 22  1  6
 23 24  1  0
 25 23  1  0
 26 25  1  6
 26 27  1  0
 28 26  1  0
 28 29  1  0
 30 28  2  0
M  END
$$$$
