WVL.pdb
     RDKit          3D

 30 31  0  0  1  0  0  0  0  0999 V2000
    6.0383  -18.2209   24.5110 N   0  0  0  0  0  0  0  0  0  0  0  0
    6.4819  -16.8538   24.4323 C   0  0  1  0  0  0  0  0  0  0  0  0
    6.8222  -16.3530   25.7963 C   0  0  0  0  0  0  0  0  0  0  0  0
    5.9561  -15.2585   26.2196 C   0  0  0  0  0  0  0  0  0  0  0  0
    4.7302  -15.3641   26.8794 C   0  0  0  0  0  0  0  0  0  0  0  0
    4.2370  -14.1524   27.1471 N   0  0  0  0  0  0  0  0  0  0  0  0
    5.1313  -13.2472   26.6663 C   0  0  0  0  0  0  0  0  0  0  0  0
    5.1288  -11.8584   26.6602 C   0  0  0  0  0  0  0  0  0  0  0  0
    6.1573  -11.1320   26.0957 C   0  0  0  0  0  0  0  0  0  0  0  0
    7.2205  -11.7932   25.5194 C   0  0  0  0  0  0  0  0  0  0  0  0
    7.2368  -13.1631   25.5182 C   0  0  0  0  0  0  0  0  0  0  0  0
    6.2027  -13.8955   26.0874 C   0  0  0  0  0  0  0  0  0  0  0  0
    7.6307  -16.7958   23.4957 C   0  0  0  0  0  0  0  0  0  0  0  0
    8.1876  -17.8605   23.1424 O   0  0  0  0  0  0  0  0  0  0  0  0
    7.7283  -14.3134   20.2401 C   0  0  0  0  0  0  0  0  0  0  0  0
    9.0053  -14.3439   21.0128 C   0  0  1  0  0  0  0  0  0  0  0  0
    9.0624  -13.0966   21.8738 C   0  0  0  0  0  0  0  0  0  0  0  0
    9.1318  -15.5233   21.9214 C   0  0  2  0  0  0  0  0  0  0  0  0
    8.1564  -15.5970   22.9594 N   0  0  0  0  0  0  0  0  0  0  0  0
   10.4989  -15.4718   22.5617 C   0  0  0  0  0  0  0  0  0  0  0  0
   11.1837  -14.4239   22.4623 O   0  0  0  0  0  0  0  0  0  0  0  0
    9.7701  -14.9473   27.6522 C   0  0  0  0  0  0  0  0  0  0  0  0
   10.9920  -15.3040   26.8349 C   0  0  2  0  0  0  0  0  0  0  0  0
   12.2212  -14.5236   27.1946 C   0  0  0  0  0  0  0  0  0  0  0  0
   10.7400  -15.5237   25.3979 C   0  0  0  0  0  0  0  0  0  0  0  0
   11.5219  -16.5026   24.6407 C   0  0  2  0  0  0  0  0  0  0  0  0
   11.0045  -16.5941   23.2680 N   0  0  0  0  0  0  0  0  0  0  0  0
   11.8470  -17.7943   25.2297 C   0  0  0  0  0  0  0  0  0  0  0  0
   13.0677  -18.1502   25.7735 O   0  0  0  0  0  0  0  0  0  0  0  0
   10.9825  -18.7031   25.2723 O   0  0  0  0  0  0  0  0  0  0  0  0
  2  1  1  1
  2  3  1  0
  2 13  1  0
  3  4  1  0
  4  5  2  0
  4 12  1  0
  5  6  1  0
  6  7  1  0
  7  8  2  0
  8  9  1  0
 10  9  2  0
 11 10  1  0
 12 11  2  0
 12  7  1  0
 13 19  1  0
 14 13  2  0
 16 15  1  1
 16 17  1  0
 18 16  1  0
 18 19  1  1
 20 27  1  0
 20 18  1  0
 21 20  2  0
 23 22  1  6
 23 24  1  0
 25 23  1  0
 26 25  1  1
 26 27  1  0
 28 26  1  0
 28 29  1  0
 30 28  2  0
M  END
$$$$
