WVL.pdb
     RDKit          3D

 30 31  0  0  1  0  0  0  0  0999 V2000
    5.9341  -18.7061   24.6785 N   0  0  0  0  0  0  0  0  0  0  0  0
    6.2646  -17.3065   24.6185 C   0  0  1  0  0  0  0  0  0  0  0  0
    6.6799  -16.8264   25.9692 C   0  0  0  0  0  0  0  0  0  0  0  0
    6.1750  -15.4903   26.2645 C   0  0  0  0  0  0  0  0  0  0  0  0
    4.8414  -15.1154   26.4383 C   0  0  0  0  0  0  0  0  0  0  0  0
    4.7555  -13.8169   26.7378 N   0  0  0  0  0  0  0  0  0  0  0  0
    6.0264  -13.3325   26.7617 C   0  0  0  0  0  0  0  0  0  0  0  0
    6.5267  -12.0604   27.0072 C   0  0  0  0  0  0  0  0  0  0  0  0
    7.8794  -11.7909   26.9670 C   0  0  0  0  0  0  0  0  0  0  0  0
    8.7666  -12.8048   26.6760 C   0  0  0  0  0  0  0  0  0  0  0  0
    8.2876  -14.0650   26.4319 C   0  0  0  0  0  0  0  0  0  0  0  0
    6.9262  -14.3379   26.4734 C   0  0  0  0  0  0  0  0  0  0  0  0
    7.3227  -17.1269   23.5946 C   0  0  0  0  0  0  0  0  0  0  0  0
    7.9533  -18.1276   23.1830 O   0  0  0  0  0  0  0  0  0  0  0  0
    9.6457  -14.3070   20.2004 C   0  0  0  0  0  0  0  0  0  0  0  0
    8.5423  -14.4884   21.1894 C   0  0  1  0  0  0  0  0  0  0  0  0
    7.2495  -14.6812   20.4199 C   0  0  0  0  0  0  0  0  0  0  0  0
    8.7183  -15.6772   22.0774 C   0  0  2  0  0  0  0  0  0  0  0  0
    7.6808  -15.8779   23.0354 N   0  0  0  0  0  0  0  0  0  0  0  0
   10.0220  -15.5118   22.8220 C   0  0  0  0  0  0  0  0  0  0  0  0
   10.7525  -14.5225   22.5677 O   0  0  0  0  0  0  0  0  0  0  0  0
   10.6052  -15.6756   28.0889 C   0  0  0  0  0  0  0  0  0  0  0  0
   10.4335  -14.5640   27.0774 C   0  0  2  0  0  0  0  0  0  0  0  0
    9.6175  -13.4059   27.5696 C   0  0  0  0  0  0  0  0  0  0  0  0
   10.1868  -15.0114   25.6934 C   0  0  0  0  0  0  0  0  0  0  0  0
   10.9910  -16.0788   25.0959 C   0  0  2  0  0  0  0  0  0  0  0  0
   10.4178  -16.4628   23.7981 N   0  0  0  0  0  0  0  0  0  0  0  0
   11.4203  -17.2123   25.9033 C   0  0  0  0  0  0  0  0  0  0  0  0
   10.6165  -18.2571   26.3215 O   0  0  0  0  0  0  0  0  0  0  0  0
   12.6131  -17.2993   26.2839 O   0  0  0  0  0  0  0  0  0  0  0  0
  2  1  1  1
  2  3  1  0
  2 13  1  0
  3  4  1  0
  4  5  2  0
  4 12  1  0
  5  6  1  0
  6  7  1  0
  7  8  2  0
  8  9  1  0
 10  9  2  0
 11 10  1  0
 12 11  2  0
 12  7  1  0
 13 19  1  0
 14 13  2  0
 16 15  1  6
 16 17  1  0
 18 16  1  0
 18 19  1  1
 20 27  1  0
 20 18  1  0
 21 20  2  0
 23 22  1  1
 23 24  1  0
 25 23  1  0
 26 25  1  1
 26 27  1  0
 28 26  1  0
 28 29  1  0
 30 28  2  0
M  END
$$$$
