WVL.pdb
     RDKit          3D

 30 31  0  0  1  0  0  0  0  0999 V2000
    5.8547  -18.2789   25.1644 N   0  0  0  0  0  0  0  0  0  0  0  0
    6.2376  -16.8989   25.0200 C   0  0  1  0  0  0  0  0  0  0  0  0
    6.5027  -16.3042   26.3629 C   0  0  0  0  0  0  0  0  0  0  0  0
    5.7369  -15.0843   26.5925 C   0  0  0  0  0  0  0  0  0  0  0  0
    4.5029  -14.9756   27.2363 C   0  0  0  0  0  0  0  0  0  0  0  0
    4.1200  -13.6979   27.3013 N   0  0  0  0  0  0  0  0  0  0  0  0
    5.0953  -12.9627   26.7024 C   0  0  0  0  0  0  0  0  0  0  0  0
    5.2187  -11.5975   26.4790 C   0  0  0  0  0  0  0  0  0  0  0  0
    6.3119  -11.0632   25.8282 C   0  0  0  0  0  0  0  0  0  0  0  0
    7.3141  -11.8986   25.3836 C   0  0  0  0  0  0  0  0  0  0  0  0
    7.2062  -13.2476   25.5972 C   0  0  0  0  0  0  0  0  0  0  0  0
    6.1068  -13.7865   26.2534 C   0  0  0  0  0  0  0  0  0  0  0  0
    7.4172  -16.8400   24.1227 C   0  0  0  0  0  0  0  0  0  0  0  0
    8.2353  -17.7883   24.1228 O   0  0  0  0  0  0  0  0  0  0  0  0
   10.0774  -14.4333   20.6206 C   0  0  0  0  0  0  0  0  0  0  0  0
    8.8907  -14.4655   21.5258 C   0  0  1  0  0  0  0  0  0  0  0  0
    7.6454  -14.5486   20.6639 C   0  0  0  0  0  0  0  0  0  0  0  0
    8.8730  -15.6356   22.4549 C   0  0  2  0  0  0  0  0  0  0  0  0
    7.6929  -15.7650   23.2454 N   0  0  0  0  0  0  0  0  0  0  0  0
   10.0538  -15.5058   23.3880 C   0  0  0  0  0  0  0  0  0  0  0  0
   10.0832  -14.5584   24.2118 O   0  0  0  0  0  0  0  0  0  0  0  0
   12.1458  -14.6427   26.8382 C   0  0  0  0  0  0  0  0  0  0  0  0
   11.1750  -15.7661   26.5483 C   0  0  2  0  0  0  0  0  0  0  0  0
   10.3979  -16.2306   27.7440 C   0  0  0  0  0  0  0  0  0  0  0  0
   11.6818  -16.8101   25.6374 C   0  0  0  0  0  0  0  0  0  0  0  0
   12.2110  -16.4613   24.3178 C   0  0  2  0  0  0  0  0  0  0  0  0
   11.1179  -16.4431   23.3353 N   0  0  0  0  0  0  0  0  0  0  0  0
   13.4280  -17.0923   23.8262 C   0  0  0  0  0  0  0  0  0  0  0  0
   14.6962  -16.9195   24.3498 O   0  0  0  0  0  0  0  0  0  0  0  0
   13.3817  -17.8689   22.8413 O   0  0  0  0  0  0  0  0  0  0  0  0
  2  1  1  1
  2  3  1  0
  2 13  1  0
  3  4  1  0
  4  5  2  0
  4 12  1  0
  5  6  1  0
  6  7  1  0
  7  8  2  0
  8  9  1  0
 10  9  2  0
 11 10  1  0
 12 11  2  0
 12  7  1  0
 13 19  1  0
 14 13  2  0
 16 15  1  6
 16 17  1  0
 18 16  1  0
 18 19  1  1
 20 27  1  0
 20 18  1  0
 21 20  2  0
 23 22  1  1
 23 24  1  0
 25 23  1  0
 26 25  1  1
 26 27  1  0
 28 26  1  0
 28 29  1  0
 30 28  2  0
M  END
$$$$
