WVL.pdb
     RDKit          3D

 30 31  0  0  1  0  0  0  0  0999 V2000
    7.9333  -17.6870   26.2276 N   0  0  0  0  0  0  0  0  0  0  0  0
    7.1965  -16.8147   25.3512 C   0  0  1  0  0  0  0  0  0  0  0  0
    7.9776  -15.5669   25.1056 C   0  0  0  0  0  0  0  0  0  0  0  0
    8.0819  -14.7319   26.2969 C   0  0  0  0  0  0  0  0  0  0  0  0
    8.9331  -14.9253   27.3866 C   0  0  0  0  0  0  0  0  0  0  0  0
    8.7858  -13.9401   28.2760 N   0  0  0  0  0  0  0  0  0  0  0  0
    7.8406  -13.0976   27.7788 C   0  0  0  0  0  0  0  0  0  0  0  0
    7.2910  -11.9250   28.2806 C   0  0  0  0  0  0  0  0  0  0  0  0
    6.3169  -11.2275   27.5960 C   0  0  0  0  0  0  0  0  0  0  0  0
    5.8702  -11.6990   26.3802 C   0  0  0  0  0  0  0  0  0  0  0  0
    6.4034  -12.8543   25.8725 C   0  0  0  0  0  0  0  0  0  0  0  0
    7.3850  -13.5567   26.5601 C   0  0  0  0  0  0  0  0  0  0  0  0
    6.8977  -17.5602   24.1042 C   0  0  0  0  0  0  0  0  0  0  0  0
    7.3284  -18.7286   23.9706 O   0  0  0  0  0  0  0  0  0  0  0  0
    4.3939  -18.0423   19.8211 C   0  0  0  0  0  0  0  0  0  0  0  0
    4.5972  -17.3660   21.1364 C   0  0  1  0  0  0  0  0  0  0  0  0
    3.4785  -17.7992   22.0645 C   0  0  0  0  0  0  0  0  0  0  0  0
    5.8906  -17.7132   21.7990 C   0  0  2  0  0  0  0  0  0  0  0  0
    6.1437  -17.0356   23.0284 N   0  0  0  0  0  0  0  0  0  0  0  0
    7.0084  -17.3810   20.8388 C   0  0  0  0  0  0  0  0  0  0  0  0
    7.0557  -17.9637   19.7274 O   0  0  0  0  0  0  0  0  0  0  0  0
    7.2610  -13.9169   18.6969 C   0  0  0  0  0  0  0  0  0  0  0  0
    7.9707  -13.8067   20.0282 C   0  0  2  0  0  0  0  0  0  0  0  0
    8.0258  -12.4140   20.5819 C   0  0  0  0  0  0  0  0  0  0  0  0
    9.1945  -14.6213   20.1530 C   0  0  0  0  0  0  0  0  0  0  0  0
    9.1152  -16.0754   20.3023 C   0  0  2  0  0  0  0  0  0  0  0  0
    7.9940  -16.4215   21.1875 N   0  0  0  0  0  0  0  0  0  0  0  0
   10.3205  -16.8529   20.5549 C   0  0  0  0  0  0  0  0  0  0  0  0
   10.4749  -17.8053   21.5457 O   0  0  0  0  0  0  0  0  0  0  0  0
   11.3404  -16.6835   19.8434 O   0  0  0  0  0  0  0  0  0  0  0  0
  2  1  1  1
  2  3  1  0
  2 13  1  0
  3  4  1  0
  4  5  2  0
  4 12  1  0
  5  6  1  0
  6  7  1  0
  7  8  2  0
  8  9  1  0
 10  9  2  0
 11 10  1  0
 12 11  2  0
 12  7  1  0
 13 19  1  0
 14 13  2  0
 16 15  1  6
 16 17  1  0
 18 16  1  0
 18 19  1  1
 20 27  1  0
 20 18  1  0
 21 20  2  0
 23 22  1  6
 23 24  1  0
 25 23  1  0
 26 25  1  1
 26 27  1  0
 28 26  1  0
 28 29  1  0
 30 28  2  0
M  END
$$$$
