WVL.pdb
     RDKit          3D

 30 31  0  0  1  0  0  0  0  0999 V2000
    5.5131  -18.3296   24.7352 N   0  0  0  0  0  0  0  0  0  0  0  0
    6.1006  -17.0181   24.6519 C   0  0  1  0  0  0  0  0  0  0  0  0
    6.5369  -16.5722   26.0076 C   0  0  0  0  0  0  0  0  0  0  0  0
    6.1133  -15.2094   26.3085 C   0  0  0  0  0  0  0  0  0  0  0  0
    4.8152  -14.7740   26.5814 C   0  0  0  0  0  0  0  0  0  0  0  0
    4.8076  -13.4665   26.8530 N   0  0  0  0  0  0  0  0  0  0  0  0
    6.0949  -13.0366   26.7597 C   0  0  0  0  0  0  0  0  0  0  0  0
    6.6653  -11.7818   26.9299 C   0  0  0  0  0  0  0  0  0  0  0  0
    8.0199  -11.5715   26.7717 C   0  0  0  0  0  0  0  0  0  0  0  0
    8.8376  -12.6288   26.4352 C   0  0  0  0  0  0  0  0  0  0  0  0
    8.2890  -13.8725   26.2643 C   0  0  0  0  0  0  0  0  0  0  0  0
    6.9257  -14.0858   26.4247 C   0  0  0  0  0  0  0  0  0  0  0  0
    7.2184  -17.0755   23.6786 C   0  0  0  0  0  0  0  0  0  0  0  0
    7.7340  -18.1828   23.4021 O   0  0  0  0  0  0  0  0  0  0  0  0
   10.1316  -14.9006   20.2595 C   0  0  0  0  0  0  0  0  0  0  0  0
    8.9091  -14.8868   21.1163 C   0  0  1  0  0  0  0  0  0  0  0  0
    7.7045  -15.0935   20.2181 C   0  0  0  0  0  0  0  0  0  0  0  0
    8.8872  -15.9632   22.1524 C   0  0  2  0  0  0  0  0  0  0  0  0
    7.7582  -15.9437   23.0238 N   0  0  0  0  0  0  0  0  0  0  0  0
   10.1343  -15.8241   22.9932 C   0  0  0  0  0  0  0  0  0  0  0  0
   11.2518  -15.7486   22.4252 O   0  0  0  0  0  0  0  0  0  0  0  0
    9.4478  -13.2791   26.5148 C   0  0  0  0  0  0  0  0  0  0  0  0
    9.5354  -14.7000   27.0263 C   0  0  2  0  0  0  0  0  0  0  0  0
    9.0320  -14.8810   28.4274 C   0  0  0  0  0  0  0  0  0  0  0  0
   10.7725  -15.4185   26.6657 C   0  0  0  0  0  0  0  0  0  0  0  0
   11.2057  -15.5118   25.2704 C   0  0  2  0  0  0  0  0  0  0  0  0
   10.0453  -15.7789   24.4088 N   0  0  0  0  0  0  0  0  0  0  0  0
   12.3852  -16.2908   24.9199 C   0  0  0  0  0  0  0  0  0  0  0  0
   12.4194  -17.3500   24.0314 O   0  0  0  0  0  0  0  0  0  0  0  0
   13.4951  -16.0233   25.4414 O   0  0  0  0  0  0  0  0  0  0  0  0
  2  1  1  1
  2  3  1  0
  2 13  1  0
  3  4  1  0
  4  5  2  0
  4 12  1  0
  5  6  1  0
  6  7  1  0
  7  8  2  0
  8  9  1  0
 10  9  2  0
 11 10  1  0
 12 11  2  0
 12  7  1  0
 13 19  1  0
 14 13  2  0
 16 15  1  6
 16 17  1  0
 18 16  1  0
 18 19  1  1
 20 27  1  0
 20 18  1  0
 21 20  2  0
 23 22  1  1
 23 24  1  0
 25 23  1  0
 26 25  1  1
 26 27  1  0
 28 26  1  0
 28 29  1  0
 30 28  2  0
M  END
$$$$
