YWN.pdb
     RDKit          3D

 35 37  0  0  1  0  0  0  0  0999 V2000
   29.2589  -15.6179  -18.3610 O   0  0  0  0  0  0  0  0  0  0  0  0
   28.5552  -16.5910  -17.6889 C   0  0  0  0  0  0  0  0  0  0  0  0
   28.3812  -17.8120  -18.2831 C   0  0  0  0  0  0  0  0  0  0  0  0
   27.6743  -18.7881  -17.6028 C   0  0  0  0  0  0  0  0  0  0  0  0
   27.1771  -18.4924  -16.3630 C   0  0  0  0  0  0  0  0  0  0  0  0
   26.4156  -19.5702  -15.6509 C   0  0  0  0  0  0  0  0  0  0  0  0
   27.3528  -20.1835  -14.6660 C   0  0  2  0  0  0  0  0  0  0  0  0
   28.3329  -21.0558  -15.2735 N   0  0  0  0  0  0  0  0  0  0  0  0
   26.6465  -20.9269  -13.5970 C   0  0  0  0  0  0  0  0  0  0  0  0
   26.4923  -22.1791  -13.6229 O   0  0  0  0  0  0  0  0  0  0  0  0
   27.3388  -17.2777  -15.7499 C   0  0  0  0  0  0  0  0  0  0  0  0
   28.0441  -16.3069  -16.4303 C   0  0  0  0  0  0  0  0  0  0  0  0
   26.0991  -20.2364  -12.4680 N   0  0  0  0  0  0  0  0  0  0  0  0
   25.4332  -21.0220  -11.3980 C   0  0  1  0  0  0  0  0  0  0  0  0
   25.8141  -20.4465  -10.0644 C   0  0  0  0  0  0  0  0  0  0  0  0
   27.2101  -20.6437   -9.6590 C   0  0  0  0  0  0  0  0  0  0  0  0
   28.2937  -21.1900  -10.3107 C   0  0  0  0  0  0  0  0  0  0  0  0
   29.3733  -21.1710   -9.5188 N   0  0  0  0  0  0  0  0  0  0  0  0
   29.0397  -20.6221   -8.3427 C   0  0  0  0  0  0  0  0  0  0  0  0
   29.8183  -20.3856   -7.2035 C   0  0  0  0  0  0  0  0  0  0  0  0
   29.2348  -19.8018   -6.1115 C   0  0  0  0  0  0  0  0  0  0  0  0
   27.8828  -19.4619   -6.1687 C   0  0  0  0  0  0  0  0  0  0  0  0
   27.1286  -19.6953   -7.2845 C   0  0  0  0  0  0  0  0  0  0  0  0
   27.7130  -20.2892   -8.4034 C   0  0  0  0  0  0  0  0  0  0  0  0
   23.9925  -20.8971  -11.6635 C   0  0  0  0  0  0  0  0  0  0  0  0
   23.5297  -19.9240  -12.2991 O   0  0  0  0  0  0  0  0  0  0  0  0
   19.1688  -21.0370  -12.4501 N   0  0  0  0  0  0  0  0  0  0  0  0
   19.9843  -19.9682  -12.0102 C   0  0  0  0  0  0  0  0  0  0  0  0
   19.5483  -18.8025  -12.0017 O   0  0  0  0  0  0  0  0  0  0  0  0
   21.3613  -20.2488  -11.5559 C   0  0  0  0  0  0  0  0  0  0  0  0
   21.6845  -21.7403  -11.7096 C   0  0  2  0  0  0  0  0  0  0  0  0
   23.0457  -21.8854  -11.2127 N   0  0  0  0  0  0  0  0  0  0  0  0
   21.5598  -22.0232  -13.1536 C   0  0  0  0  0  0  0  0  0  0  0  0
   22.4022  -21.4302  -14.0579 O   0  0  0  0  0  0  0  0  0  0  0  0
   20.6808  -22.8081  -13.5682 O   0  0  0  0  0  0  0  0  0  0  0  0
  2  3  2  0
  2  1  1  0
  4  3  1  0
  5  4  2  0
  6  7  1  0
  6  5  1  0
  7  8  1  6
  9  7  1  0
  9 10  2  0
 11  5  1  0
 11 12  2  0
 12  2  1  0
 13  9  1  0
 14 13  1  0
 14 25  1  0
 15 16  1  0
 14 15  1  1
 16 24  1  0
 17 18  1  0
 17 16  2  0
 18 19  1  0
 19 24  2  0
 19 20  1  0
 20 21  2  0
 21 22  1  0
 23 22  2  0
 24 23  1  0
 25 32  1  0
 26 25  2  0
 28 27  1  0
 29 28  2  0
 30 28  1  0
 31 30  1  6
 32 31  1  0
 33 31  1  0
 34 33  1  0
 35 33  2  0
M  END
$$$$
