YWN.pdb
     RDKit          3D

 35 37  0  0  1  0  0  0  0  0999 V2000
   17.4291  -17.6214  -23.5954 O   0  0  0  0  0  0  0  0  0  0  0  0
   17.8542  -18.5175  -22.6414 C   0  0  0  0  0  0  0  0  0  0  0  0
   17.9371  -18.1073  -21.3380 C   0  0  0  0  0  0  0  0  0  0  0  0
   18.3636  -19.0123  -20.3817 C   0  0  0  0  0  0  0  0  0  0  0  0
   18.6858  -20.2813  -20.7787 C   0  0  0  0  0  0  0  0  0  0  0  0
   19.1447  -21.2389  -19.7199 C   0  0  0  0  0  0  0  0  0  0  0  0
   20.6119  -21.0289  -19.5532 C   0  0  2  0  0  0  0  0  0  0  0  0
   21.4058  -21.7090  -20.5520 N   0  0  0  0  0  0  0  0  0  0  0  0
   21.0928  -21.4232  -18.2087 C   0  0  0  0  0  0  0  0  0  0  0  0
   21.6770  -22.5193  -17.9863 O   0  0  0  0  0  0  0  0  0  0  0  0
   18.6107  -20.7129  -22.0770 C   0  0  0  0  0  0  0  0  0  0  0  0
   18.1850  -19.8087  -23.0278 C   0  0  0  0  0  0  0  0  0  0  0  0
   20.9078  -20.5552  -17.0846 N   0  0  0  0  0  0  0  0  0  0  0  0
   21.3449  -21.0145  -15.7417 C   0  0  1  0  0  0  0  0  0  0  0  0
   21.7592  -19.8204  -14.9310 C   0  0  0  0  0  0  0  0  0  0  0  0
   22.2042  -20.1015  -13.5617 C   0  0  0  0  0  0  0  0  0  0  0  0
   23.3205  -20.7370  -13.0645 C   0  0  0  0  0  0  0  0  0  0  0  0
   23.2816  -20.7708  -11.7264 N   0  0  0  0  0  0  0  0  0  0  0  0
   22.1589  -20.1700  -11.3092 C   0  0  0  0  0  0  0  0  0  0  0  0
   21.6772  -19.9573  -10.0120 C   0  0  0  0  0  0  0  0  0  0  0  0
   20.4842  -19.3067   -9.8465 C   0  0  0  0  0  0  0  0  0  0  0  0
   19.7864  -18.8773  -10.9757 C   0  0  0  0  0  0  0  0  0  0  0  0
   20.2629  -19.0879  -12.2394 C   0  0  0  0  0  0  0  0  0  0  0  0
   21.4778  -19.7492  -12.4199 C   0  0  0  0  0  0  0  0  0  0  0  0
   20.1769  -21.6966  -15.1650 C   0  0  0  0  0  0  0  0  0  0  0  0
   19.0161  -21.2675  -15.3489 O   0  0  0  0  0  0  0  0  0  0  0  0
   21.1531  -26.3744  -14.1409 N   0  0  0  0  0  0  0  0  0  0  0  0
   19.9047  -25.7222  -14.2702 C   0  0  0  0  0  0  0  0  0  0  0  0
   19.1800  -25.9348  -15.2595 O   0  0  0  0  0  0  0  0  0  0  0  0
   19.4651  -24.7862  -13.2157 C   0  0  0  0  0  0  0  0  0  0  0  0
   19.0706  -23.4356  -13.8263 C   0  0  2  0  0  0  0  0  0  0  0  0
   20.3075  -22.8898  -14.3678 N   0  0  0  0  0  0  0  0  0  0  0  0
   18.5263  -22.6415  -12.7066 C   0  0  0  0  0  0  0  0  0  0  0  0
   17.2741  -22.8975  -12.2111 O   0  0  0  0  0  0  0  0  0  0  0  0
   19.2036  -21.7233  -12.1977 O   0  0  0  0  0  0  0  0  0  0  0  0
  2  3  2  0
  2  1  1  0
  4  3  1  0
  5  4  2  0
  6  7  1  0
  6  5  1  0
  7  8  1  6
  9  7  1  0
  9 10  2  0
 11  5  1  0
 11 12  2  0
 12  2  1  0
 13  9  1  0
 14 13  1  0
 14 25  1  0
 15 16  1  0
 14 15  1  1
 16 24  1  0
 17 18  1  0
 17 16  2  0
 18 19  1  0
 19 24  2  0
 19 20  1  0
 20 21  2  0
 21 22  1  0
 23 22  2  0
 24 23  1  0
 25 32  1  0
 26 25  2  0
 28 27  1  0
 29 28  2  0
 30 28  1  0
 31 30  1  1
 32 31  1  0
 33 31  1  0
 34 33  1  0
 35 33  2  0
M  END
$$$$
