YWN.pdb
     RDKit          3D

 35 37  0  0  1  0  0  0  0  0999 V2000
   30.5609  -26.0231  -17.7717 O   0  0  0  0  0  0  0  0  0  0  0  0
   29.8832  -24.9787  -17.1855 C   0  0  0  0  0  0  0  0  0  0  0  0
   30.5876  -23.8778  -16.7781 C   0  0  0  0  0  0  0  0  0  0  0  0
   29.9016  -22.8291  -16.1907 C   0  0  0  0  0  0  0  0  0  0  0  0
   28.5460  -22.9359  -16.0404 C   0  0  0  0  0  0  0  0  0  0  0  0
   27.8307  -21.7837  -15.4004 C   0  0  0  0  0  0  0  0  0  0  0  0
   27.0449  -21.1116  -16.4753 C   0  0  2  0  0  0  0  0  0  0  0  0
   27.8622  -20.3471  -17.3907 N   0  0  0  0  0  0  0  0  0  0  0  0
   25.9801  -20.2341  -15.9360 C   0  0  0  0  0  0  0  0  0  0  0  0
   26.1893  -19.0381  -15.5923 O   0  0  0  0  0  0  0  0  0  0  0  0
   27.8213  -24.0279  -16.4401 C   0  0  0  0  0  0  0  0  0  0  0  0
   28.5077  -25.0714  -17.0256 C   0  0  0  0  0  0  0  0  0  0  0  0
   24.6425  -20.7217  -15.7804 N   0  0  0  0  0  0  0  0  0  0  0  0
   23.6319  -19.8527  -15.1255 C   0  0  1  0  0  0  0  0  0  0  0  0
   22.4952  -19.6254  -16.0801 C   0  0  0  0  0  0  0  0  0  0  0  0
   22.5334  -18.3652  -16.8299 C   0  0  0  0  0  0  0  0  0  0  0  0
   23.4981  -17.7947  -17.6307 C   0  0  0  0  0  0  0  0  0  0  0  0
   23.0816  -16.6079  -18.0903 N   0  0  0  0  0  0  0  0  0  0  0  0
   21.8527  -16.3648  -17.6146 C   0  0  0  0  0  0  0  0  0  0  0  0
   21.0089  -15.2655  -17.8132 C   0  0  0  0  0  0  0  0  0  0  0  0
   19.7810  -15.2548  -17.2081 C   0  0  0  0  0  0  0  0  0  0  0  0
   19.4104  -16.3393  -16.4124 C   0  0  0  0  0  0  0  0  0  0  0  0
   20.2392  -17.4096  -16.2232 C   0  0  0  0  0  0  0  0  0  0  0  0
   21.4925  -17.4315  -16.8355 C   0  0  0  0  0  0  0  0  0  0  0  0
   23.2075  -20.5871  -13.9245 C   0  0  0  0  0  0  0  0  0  0  0  0
   22.9134  -21.8022  -13.9745 O   0  0  0  0  0  0  0  0  0  0  0  0
   25.2800  -21.3933  -10.6753 N   0  0  0  0  0  0  0  0  0  0  0  0
   24.5942  -20.4307   -9.8981 C   0  0  0  0  0  0  0  0  0  0  0  0
   25.1458  -19.9022   -8.9156 O   0  0  0  0  0  0  0  0  0  0  0  0
   23.2142  -20.0542  -10.2660 C   0  0  0  0  0  0  0  0  0  0  0  0
   22.7646  -20.8175  -11.5181 C   0  0  2  0  0  0  0  0  0  0  0  0
   23.1139  -19.9507  -12.6351 N   0  0  0  0  0  0  0  0  0  0  0  0
   21.3083  -21.0059  -11.3623 C   0  0  0  0  0  0  0  0  0  0  0  0
   20.8134  -22.0111  -10.5724 O   0  0  0  0  0  0  0  0  0  0  0  0
   20.5084  -20.2490  -11.9521 O   0  0  0  0  0  0  0  0  0  0  0  0
  2  3  2  0
  2  1  1  0
  4  3  1  0
  5  4  2  0
  6  7  1  0
  6  5  1  0
  7  8  1  1
  9  7  1  0
  9 10  2  0
 11  5  1  0
 11 12  2  0
 12  2  1  0
 13  9  1  0
 14 13  1  0
 14 25  1  0
 15 16  1  0
 14 15  1  6
 16 24  1  0
 17 18  1  0
 17 16  2  0
 18 19  1  0
 19 24  2  0
 19 20  1  0
 20 21  2  0
 21 22  1  0
 23 22  2  0
 24 23  1  0
 25 32  1  0
 26 25  2  0
 28 27  1  0
 29 28  2  0
 30 28  1  0
 31 30  1  1
 32 31  1  0
 33 31  1  0
 34 33  1  0
 35 33  2  0
M  END
$$$$
