YWN.pdb
     RDKit          3D

 35 37  0  0  1  0  0  0  0  0999 V2000
   29.8914  -16.9515  -19.0805 O   0  0  0  0  0  0  0  0  0  0  0  0
   29.1499  -17.4825  -18.0500 C   0  0  0  0  0  0  0  0  0  0  0  0
   29.5305  -17.2267  -16.7601 C   0  0  0  0  0  0  0  0  0  0  0  0
   28.7808  -17.7615  -15.7269 C   0  0  0  0  0  0  0  0  0  0  0  0
   27.6890  -18.5253  -16.0373 C   0  0  0  0  0  0  0  0  0  0  0  0
   26.8969  -19.0909  -14.8966 C   0  0  0  0  0  0  0  0  0  0  0  0
   27.6516  -20.2737  -14.3905 C   0  0  2  0  0  0  0  0  0  0  0  0
   27.7431  -21.3499  -15.3517 N   0  0  0  0  0  0  0  0  0  0  0  0
   27.0915  -20.8062  -13.1267 C   0  0  0  0  0  0  0  0  0  0  0  0
   26.3185  -21.8029  -13.0883 O   0  0  0  0  0  0  0  0  0  0  0  0
   27.2904  -18.7944  -17.3204 C   0  0  0  0  0  0  0  0  0  0  0  0
   28.0394  -18.2597  -18.3480 C   0  0  0  0  0  0  0  0  0  0  0  0
   27.4134  -20.1954  -11.8719 N   0  0  0  0  0  0  0  0  0  0  0  0
   26.7814  -20.7188  -10.6341 C   0  0  1  0  0  0  0  0  0  0  0  0
   27.5373  -20.1984   -9.4455 C   0  0  0  0  0  0  0  0  0  0  0  0
   26.9540  -20.5033   -8.1345 C   0  0  0  0  0  0  0  0  0  0  0  0
   25.7979  -21.1551   -7.7659 C   0  0  0  0  0  0  0  0  0  0  0  0
   25.6761  -21.1722   -6.4325 N   0  0  0  0  0  0  0  0  0  0  0  0
   26.7287  -20.5432   -5.8921 C   0  0  0  0  0  0  0  0  0  0  0  0
   27.0475  -20.3067   -4.5496 C   0  0  0  0  0  0  0  0  0  0  0  0
   28.1998  -19.6305   -4.2512 C   0  0  0  0  0  0  0  0  0  0  0  0
   29.0189  -19.1982   -5.2946 C   0  0  0  0  0  0  0  0  0  0  0  0
   28.7017  -19.4331   -6.6033 C   0  0  0  0  0  0  0  0  0  0  0  0
   27.5303  -20.1217   -6.9189 C   0  0  0  0  0  0  0  0  0  0  0  0
   25.3960  -20.2275  -10.6673 C   0  0  0  0  0  0  0  0  0  0  0  0
   25.1101  -19.1199  -11.1742 O   0  0  0  0  0  0  0  0  0  0  0  0
   21.0501  -19.6881  -12.9631 N   0  0  0  0  0  0  0  0  0  0  0  0
   21.2958  -20.9008  -12.2777 C   0  0  0  0  0  0  0  0  0  0  0  0
   20.3676  -21.6986  -12.0521 O   0  0  0  0  0  0  0  0  0  0  0  0
   22.6689  -21.2151  -11.8336 C   0  0  0  0  0  0  0  0  0  0  0  0
   22.9654  -20.5428  -10.4872 C   0  0  2  0  0  0  0  0  0  0  0  0
   24.3023  -20.9935  -10.1259 N   0  0  0  0  0  0  0  0  0  0  0  0
   21.9193  -21.0294   -9.5656 C   0  0  0  0  0  0  0  0  0  0  0  0
   20.6735  -20.4576   -9.5568 O   0  0  0  0  0  0  0  0  0  0  0  0
   22.1599  -21.9704   -8.7800 O   0  0  0  0  0  0  0  0  0  0  0  0
  2  3  2  0
  2  1  1  0
  4  3  1  0
  5  4  2  0
  6  7  1  0
  6  5  1  0
  7  8  1  6
  9  7  1  0
  9 10  2  0
 11  5  1  0
 11 12  2  0
 12  2  1  0
 13  9  1  0
 14 13  1  0
 14 25  1  0
 15 16  1  0
 14 15  1  1
 16 24  1  0
 17 18  1  0
 17 16  2  0
 18 19  1  0
 19 24  2  0
 19 20  1  0
 20 21  2  0
 21 22  1  0
 23 22  2  0
 24 23  1  0
 25 32  1  0
 26 25  2  0
 28 27  1  0
 29 28  2  0
 30 28  1  0
 31 30  1  6
 32 31  1  0
 33 31  1  0
 34 33  1  0
 35 33  2  0
M  END
$$$$
