YWN.pdb
     RDKit          3D

 35 37  0  0  1  0  0  0  0  0999 V2000
   29.6320  -19.1127  -22.6539 O   0  0  0  0  0  0  0  0  0  0  0  0
   28.8972  -19.6490  -21.6213 C   0  0  0  0  0  0  0  0  0  0  0  0
   28.2267  -20.8247  -21.8266 C   0  0  0  0  0  0  0  0  0  0  0  0
   27.4902  -21.3611  -20.7847 C   0  0  0  0  0  0  0  0  0  0  0  0
   27.4620  -20.6933  -19.5910 C   0  0  0  0  0  0  0  0  0  0  0  0
   26.6556  -21.2992  -18.4814 C   0  0  0  0  0  0  0  0  0  0  0  0
   27.6243  -21.7678  -17.4486 C   0  0  2  0  0  0  0  0  0  0  0  0
   28.3142  -22.9832  -17.8190 N   0  0  0  0  0  0  0  0  0  0  0  0
   26.9919  -21.9604  -16.1230 C   0  0  0  0  0  0  0  0  0  0  0  0
   26.5963  -23.0860  -15.7118 O   0  0  0  0  0  0  0  0  0  0  0  0
   28.1248  -19.5158  -19.3637 C   0  0  0  0  0  0  0  0  0  0  0  0
   28.8581  -18.9838  -20.4039 C   0  0  0  0  0  0  0  0  0  0  0  0
   26.8009  -20.8508  -15.2379 N   0  0  0  0  0  0  0  0  0  0  0  0
   26.3265  -21.1077  -13.8543 C   0  0  1  0  0  0  0  0  0  0  0  0
   26.8707  -20.0410  -12.9484 C   0  0  0  0  0  0  0  0  0  0  0  0
   26.3796  -20.0655  -11.5663 C   0  0  0  0  0  0  0  0  0  0  0  0
   25.1229  -19.8960  -11.0285 C   0  0  0  0  0  0  0  0  0  0  0  0
   25.1701  -19.9860   -9.6933 N   0  0  0  0  0  0  0  0  0  0  0  0
   26.4363  -20.2129   -9.3178 C   0  0  0  0  0  0  0  0  0  0  0  0
   26.9826  -20.3806   -8.0398 C   0  0  0  0  0  0  0  0  0  0  0  0
   28.3275  -20.6051   -7.9183 C   0  0  0  0  0  0  0  0  0  0  0  0
   29.1105  -20.6587   -9.0718 C   0  0  0  0  0  0  0  0  0  0  0  0
   28.5702  -20.4945  -10.3166 C   0  0  0  0  0  0  0  0  0  0  0  0
   27.2008  -20.2659  -10.4523 C   0  0  0  0  0  0  0  0  0  0  0  0
   24.8588  -21.0707  -13.9334 C   0  0  0  0  0  0  0  0  0  0  0  0
   24.2659  -20.2181  -14.6312 O   0  0  0  0  0  0  0  0  0  0  0  0
   19.9460  -23.5482  -14.1945 N   0  0  0  0  0  0  0  0  0  0  0  0
   20.5257  -23.1599  -12.9640 C   0  0  0  0  0  0  0  0  0  0  0  0
   19.8073  -22.8207  -12.0060 O   0  0  0  0  0  0  0  0  0  0  0  0
   21.9960  -23.1638  -12.8241 C   0  0  0  0  0  0  0  0  0  0  0  0
   22.5969  -21.8893  -13.4299 C   0  0  2  0  0  0  0  0  0  0  0  0
   24.0329  -22.0116  -13.2202 N   0  0  0  0  0  0  0  0  0  0  0  0
   21.9927  -20.7726  -12.6761 C   0  0  0  0  0  0  0  0  0  0  0  0
   21.0086  -20.0009  -13.2375 O   0  0  0  0  0  0  0  0  0  0  0  0
   22.3743  -20.5173  -11.5142 O   0  0  0  0  0  0  0  0  0  0  0  0
  2  3  2  0
  2  1  1  0
  4  3  1  0
  5  4  2  0
  6  7  1  0
  6  5  1  0
  7  8  1  6
  9  7  1  0
  9 10  2  0
 11  5  1  0
 11 12  2  0
 12  2  1  0
 13  9  1  0
 14 13  1  0
 14 25  1  0
 15 16  1  0
 14 15  1  1
 16 24  1  0
 17 18  1  0
 17 16  2  0
 18 19  1  0
 19 24  2  0
 19 20  1  0
 20 21  2  0
 21 22  1  0
 23 22  2  0
 24 23  1  0
 25 32  1  0
 26 25  2  0
 28 27  1  0
 29 28  2  0
 30 28  1  0
 31 30  1  1
 32 31  1  0
 33 31  1  0
 34 33  1  0
 35 33  2  0
M  END
$$$$
