YWN.pdb
     RDKit          3D

 35 37  0  0  1  0  0  0  0  0999 V2000
   12.1747  -23.0001    1.7723 O   0  0  0  0  0  0  0  0  0  0  0  0
   13.1403  -22.3691    2.5228 C   0  0  0  0  0  0  0  0  0  0  0  0
   14.4585  -22.5887    2.2256 C   0  0  0  0  0  0  0  0  0  0  0  0
   15.4261  -21.9507    2.9818 C   0  0  0  0  0  0  0  0  0  0  0  0
   15.0253  -21.1260    3.9972 C   0  0  0  0  0  0  0  0  0  0  0  0
   16.0967  -20.4491    4.7988 C   0  0  0  0  0  0  0  0  0  0  0  0
   16.2796  -19.0889    4.2148 C   0  0  2  0  0  0  0  0  0  0  0  0
   16.6657  -19.1101    2.8216 N   0  0  0  0  0  0  0  0  0  0  0  0
   17.2580  -18.2732    4.9710 C   0  0  0  0  0  0  0  0  0  0  0  0
   18.4738  -18.1876    4.6441 O   0  0  0  0  0  0  0  0  0  0  0  0
   13.7124  -20.8922    4.3123 C   0  0  0  0  0  0  0  0  0  0  0  0
   12.7503  -21.5293    3.5565 C   0  0  0  0  0  0  0  0  0  0  0  0
   16.8515  -17.5345    6.1287 N   0  0  0  0  0  0  0  0  0  0  0  0
   17.8354  -16.6446    6.7961 C   0  0  1  0  0  0  0  0  0  0  0  0
   17.1955  -15.3079    7.0377 C   0  0  0  0  0  0  0  0  0  0  0  0
   17.5919  -14.2349    6.1193 C   0  0  0  0  0  0  0  0  0  0  0  0
   16.9837  -13.6998    5.0052 C   0  0  0  0  0  0  0  0  0  0  0  0
   17.7463  -12.7355    4.4745 N   0  0  0  0  0  0  0  0  0  0  0  0
   18.8598  -12.6086    5.2092 C   0  0  0  0  0  0  0  0  0  0  0  0
   19.9490  -11.7427    5.0554 C   0  0  0  0  0  0  0  0  0  0  0  0
   20.9802  -11.8090    5.9533 C   0  0  0  0  0  0  0  0  0  0  0  0
   20.9128  -12.7378    6.9922 C   0  0  0  0  0  0  0  0  0  0  0  0
   19.8458  -13.5799    7.1366 C   0  0  0  0  0  0  0  0  0  0  0  0
   18.7892  -13.5207    6.2278 C   0  0  0  0  0  0  0  0  0  0  0  0
   18.1861  -17.3252    8.0514 C   0  0  0  0  0  0  0  0  0  0  0  0
   17.4146  -18.1574    8.5782 O   0  0  0  0  0  0  0  0  0  0  0  0
   21.5849  -20.6664   10.7010 N   0  0  0  0  0  0  0  0  0  0  0  0
   20.2604  -20.2018   10.5254 C   0  0  0  0  0  0  0  0  0  0  0  0
   19.3583  -20.5539   11.3071 O   0  0  0  0  0  0  0  0  0  0  0  0
   19.9568  -19.2891    9.4046 C   0  0  0  0  0  0  0  0  0  0  0  0
   19.6796  -17.8730    9.9247 C   0  0  2  0  0  0  0  0  0  0  0  0
   19.4309  -17.0744    8.7326 N   0  0  0  0  0  0  0  0  0  0  0  0
   20.9035  -17.4726   10.6474 C   0  0  0  0  0  0  0  0  0  0  0  0
   21.2080  -18.0221   11.8658 O   0  0  0  0  0  0  0  0  0  0  0  0
   21.6770  -16.6244   10.1547 O   0  0  0  0  0  0  0  0  0  0  0  0
  2  3  2  0
  2  1  1  0
  4  3  1  0
  5  4  2  0
  6  7  1  0
  6  5  1  0
  7  8  1  6
  9  7  1  0
  9 10  2  0
 11  5  1  0
 11 12  2  0
 12  2  1  0
 13  9  1  0
 14 13  1  0
 14 25  1  0
 15 16  1  0
 14 15  1  1
 16 24  1  0
 17 18  1  0
 17 16  2  0
 18 19  1  0
 19 24  2  0
 19 20  1  0
 20 21  2  0
 21 22  1  0
 23 22  2  0
 24 23  1  0
 25 32  1  0
 26 25  2  0
 28 27  1  0
 29 28  2  0
 30 28  1  0
 31 30  1  6
 32 31  1  0
 33 31  1  0
 34 33  1  0
 35 33  2  0
M  END
$$$$
