YWN.pdb
     RDKit          3D

 35 37  0  0  1  0  0  0  0  0999 V2000
   20.4496  -11.8242  -23.6428 O   0  0  0  0  0  0  0  0  0  0  0  0
   20.6418  -11.3876  -22.3520 C   0  0  0  0  0  0  0  0  0  0  0  0
   19.8226  -11.8626  -21.3634 C   0  0  0  0  0  0  0  0  0  0  0  0
   20.0208  -11.4220  -20.0665 C   0  0  0  0  0  0  0  0  0  0  0  0
   21.0280  -10.5281  -19.8253 C   0  0  0  0  0  0  0  0  0  0  0  0
   21.2179  -10.0692  -18.4104 C   0  0  0  0  0  0  0  0  0  0  0  0
   22.5493  -10.5743  -17.9668 C   0  0  2  0  0  0  0  0  0  0  0  0
   22.5849  -12.0071  -17.7766 N   0  0  0  0  0  0  0  0  0  0  0  0
   23.0229   -9.9144  -16.7279 C   0  0  0  0  0  0  0  0  0  0  0  0
   23.5149  -10.5545  -15.7581 O   0  0  0  0  0  0  0  0  0  0  0  0
   21.8590  -10.0394  -20.7990 C   0  0  0  0  0  0  0  0  0  0  0  0
   21.6593  -10.4807  -22.0906 C   0  0  0  0  0  0  0  0  0  0  0  0
   22.9378   -8.4923  -16.5808 N   0  0  0  0  0  0  0  0  0  0  0  0
   23.4989   -7.8608  -15.3595 C   0  0  1  0  0  0  0  0  0  0  0  0
   24.9972   -7.9419  -15.4154 C   0  0  0  0  0  0  0  0  0  0  0  0
   25.5696   -9.2854  -15.2763 C   0  0  0  0  0  0  0  0  0  0  0  0
   25.3387  -10.2997  -14.3735 C   0  0  0  0  0  0  0  0  0  0  0  0
   26.1263  -11.3497  -14.6391 N   0  0  0  0  0  0  0  0  0  0  0  0
   26.8863  -11.0639  -15.7051 C   0  0  0  0  0  0  0  0  0  0  0  0
   27.8550  -11.8367  -16.3565 C   0  0  0  0  0  0  0  0  0  0  0  0
   28.5025  -11.3107  -17.4418 C   0  0  0  0  0  0  0  0  0  0  0  0
   28.1769  -10.0211  -17.8633 C   0  0  0  0  0  0  0  0  0  0  0  0
   27.2296   -9.2723  -17.2227 C   0  0  0  0  0  0  0  0  0  0  0  0
   26.5630   -9.7986  -16.1161 C   0  0  0  0  0  0  0  0  0  0  0  0
   23.0186   -6.4713  -15.3847 C   0  0  0  0  0  0  0  0  0  0  0  0
   22.9744   -5.8171  -16.4502 O   0  0  0  0  0  0  0  0  0  0  0  0
   21.3892   -1.8895  -14.9733 N   0  0  0  0  0  0  0  0  0  0  0  0
   22.3527   -2.4837  -15.8214 C   0  0  0  0  0  0  0  0  0  0  0  0
   22.8222   -1.8515  -16.7852 O   0  0  0  0  0  0  0  0  0  0  0  0
   22.8012   -3.8646  -15.5505 C   0  0  0  0  0  0  0  0  0  0  0  0
   22.0115   -4.4665  -14.3815 C   0  0  2  0  0  0  0  0  0  0  0  0
   22.5719   -5.7973  -14.1920 N   0  0  0  0  0  0  0  0  0  0  0  0
   20.6037   -4.4869  -14.8267 C   0  0  0  0  0  0  0  0  0  0  0  0
   19.9027   -3.3195  -14.9841 O   0  0  0  0  0  0  0  0  0  0  0  0
   20.0338   -5.5729  -15.0644 O   0  0  0  0  0  0  0  0  0  0  0  0
  2  3  2  0
  2  1  1  0
  4  3  1  0
  5  4  2  0
  6  7  1  0
  6  5  1  0
  7  8  1  1
  9  7  1  0
  9 10  2  0
 11  5  1  0
 11 12  2  0
 12  2  1  0
 13  9  1  0
 14 13  1  0
 14 25  1  0
 15 16  1  0
 14 15  1  6
 16 24  1  0
 17 18  1  0
 17 16  2  0
 18 19  1  0
 19 24  2  0
 19 20  1  0
 20 21  2  0
 21 22  1  0
 23 22  2  0
 24 23  1  0
 25 32  1  0
 26 25  2  0
 28 27  1  0
 29 28  2  0
 30 28  1  0
 31 30  1  6
 32 31  1  0
 33 31  1  0
 34 33  1  0
 35 33  2  0
M  END
$$$$
