YWN.pdb
     RDKit          3D

 35 37  0  0  1  0  0  0  0  0999 V2000
   17.5123  -13.0734  -21.4302 O   0  0  0  0  0  0  0  0  0  0  0  0
   17.9237  -14.2686  -20.8862 C   0  0  0  0  0  0  0  0  0  0  0  0
   18.0831  -14.3586  -19.5295 C   0  0  0  0  0  0  0  0  0  0  0  0
   18.4954  -15.5631  -18.9866 C   0  0  0  0  0  0  0  0  0  0  0  0
   18.7277  -16.6157  -19.8291 C   0  0  0  0  0  0  0  0  0  0  0  0
   19.1735  -17.9073  -19.2114 C   0  0  0  0  0  0  0  0  0  0  0  0
   20.6191  -17.7515  -18.8788 C   0  0  2  0  0  0  0  0  0  0  0  0
   21.4853  -17.8333  -20.0335 N   0  0  0  0  0  0  0  0  0  0  0  0
   21.0772  -18.7303  -17.8656 C   0  0  0  0  0  0  0  0  0  0  0  0
   21.7270  -19.7698  -18.1647 O   0  0  0  0  0  0  0  0  0  0  0  0
   18.5751  -16.5478  -21.1891 C   0  0  0  0  0  0  0  0  0  0  0  0
   18.1638  -15.3462  -21.7272 C   0  0  0  0  0  0  0  0  0  0  0  0
   20.7929  -18.5290  -16.4764 N   0  0  0  0  0  0  0  0  0  0  0  0
   21.2721  -19.5319  -15.4915 C   0  0  1  0  0  0  0  0  0  0  0  0
   21.9643  -18.8163  -14.3674 C   0  0  0  0  0  0  0  0  0  0  0  0
   22.4255  -19.6614  -13.2605 C   0  0  0  0  0  0  0  0  0  0  0  0
   23.4511  -20.5753  -13.1603 C   0  0  0  0  0  0  0  0  0  0  0  0
   23.4722  -21.1217  -11.9380 N   0  0  0  0  0  0  0  0  0  0  0  0
   22.4790  -20.5942  -11.2093 C   0  0  0  0  0  0  0  0  0  0  0  0
   22.0999  -20.8440   -9.8850 C   0  0  0  0  0  0  0  0  0  0  0  0
   21.0330  -20.1645   -9.3617 C   0  0  0  0  0  0  0  0  0  0  0  0
   20.3572  -19.2455  -10.1651 C   0  0  0  0  0  0  0  0  0  0  0  0
   20.7332  -19.0063  -11.4574 C   0  0  0  0  0  0  0  0  0  0  0  0
   21.8193  -19.6926  -12.0008 C   0  0  0  0  0  0  0  0  0  0  0  0
   20.0653  -20.2386  -15.0378 C   0  0  0  0  0  0  0  0  0  0  0  0
   19.0005  -19.6246  -14.8042 O   0  0  0  0  0  0  0  0  0  0  0  0
   16.4321  -23.5951  -14.3028 N   0  0  0  0  0  0  0  0  0  0  0  0
   17.5706  -24.3849  -14.5872 C   0  0  0  0  0  0  0  0  0  0  0  0
   17.4622  -25.6137  -14.7522 O   0  0  0  0  0  0  0  0  0  0  0  0
   18.8933  -23.7360  -14.6908 C   0  0  0  0  0  0  0  0  0  0  0  0
   18.7792  -22.2340  -14.4018 C   0  0  2  0  0  0  0  0  0  0  0  0
   20.0451  -21.6665  -14.8449 N   0  0  0  0  0  0  0  0  0  0  0  0
   18.5740  -22.1284  -12.9433 C   0  0  0  0  0  0  0  0  0  0  0  0
   17.4110  -21.6095  -12.4361 O   0  0  0  0  0  0  0  0  0  0  0  0
   19.4623  -22.5113  -12.1527 O   0  0  0  0  0  0  0  0  0  0  0  0
  2  3  2  0
  2  1  1  0
  4  3  1  0
  5  4  2  0
  6  7  1  0
  6  5  1  0
  7  8  1  6
  9  7  1  0
  9 10  2  0
 11  5  1  0
 11 12  2  0
 12  2  1  0
 13  9  1  0
 14 13  1  0
 14 25  1  0
 15 16  1  0
 14 15  1  1
 16 24  1  0
 17 18  1  0
 17 16  2  0
 18 19  1  0
 19 24  2  0
 19 20  1  0
 20 21  2  0
 21 22  1  0
 23 22  2  0
 24 23  1  0
 25 32  1  0
 26 25  2  0
 28 27  1  0
 29 28  2  0
 30 28  1  0
 31 30  1  1
 32 31  1  0
 33 31  1  0
 34 33  1  0
 35 33  2  0
M  END
$$$$
