YWN.pdb
     RDKit          3D

 35 37  0  0  1  0  0  0  0  0999 V2000
   37.5794  -36.3185  -19.7364 O   0  0  0  0  0  0  0  0  0  0  0  0
   36.3716  -35.6895  -19.5379 C   0  0  0  0  0  0  0  0  0  0  0  0
   36.1424  -34.4873  -20.1514 C   0  0  0  0  0  0  0  0  0  0  0  0
   34.9256  -33.8592  -19.9503 C   0  0  0  0  0  0  0  0  0  0  0  0
   34.0008  -34.4658  -19.1450 C   0  0  0  0  0  0  0  0  0  0  0  0
   32.6923  -33.7609  -18.9462 C   0  0  0  0  0  0  0  0  0  0  0  0
   32.9418  -32.6492  -17.9836 C   0  0  2  0  0  0  0  0  0  0  0  0
   33.0784  -33.0953  -16.6151 N   0  0  0  0  0  0  0  0  0  0  0  0
   31.8970  -31.6008  -18.0439 C   0  0  0  0  0  0  0  0  0  0  0  0
   31.2610  -31.2106  -17.0263 O   0  0  0  0  0  0  0  0  0  0  0  0
   34.2091  -35.6678  -18.5211 C   0  0  0  0  0  0  0  0  0  0  0  0
   35.4226  -36.2916  -18.7238 C   0  0  0  0  0  0  0  0  0  0  0  0
   31.5614  -30.9765  -19.2884 N   0  0  0  0  0  0  0  0  0  0  0  0
   30.5838  -29.8586  -19.2917 C   0  0  1  0  0  0  0  0  0  0  0  0
   30.6234  -29.1826  -20.6319 C   0  0  0  0  0  0  0  0  0  0  0  0
   29.7481  -28.0154  -20.7845 C   0  0  0  0  0  0  0  0  0  0  0  0
   29.8320  -26.7276  -20.3028 C   0  0  0  0  0  0  0  0  0  0  0  0
   28.7706  -26.0119  -20.6958 N   0  0  0  0  0  0  0  0  0  0  0  0
   27.9699  -26.7922  -21.4344 C   0  0  0  0  0  0  0  0  0  0  0  0
   26.7534  -26.4997  -22.0626 C   0  0  0  0  0  0  0  0  0  0  0  0
   26.1196  -27.4848  -22.7710 C   0  0  0  0  0  0  0  0  0  0  0  0
   26.7059  -28.7488  -22.8433 C   0  0  0  0  0  0  0  0  0  0  0  0
   27.8941  -29.0273  -22.2278 C   0  0  0  0  0  0  0  0  0  0  0  0
   28.5491  -28.0309  -21.5039 C   0  0  0  0  0  0  0  0  0  0  0  0
   29.2793  -30.4822  -19.0249 C   0  0  0  0  0  0  0  0  0  0  0  0
   29.0750  -31.6928  -19.2660 O   0  0  0  0  0  0  0  0  0  0  0  0
   26.0474  -33.4952  -17.0234 N   0  0  0  0  0  0  0  0  0  0  0  0
   26.1961  -32.1804  -16.5236 C   0  0  0  0  0  0  0  0  0  0  0  0
   25.3659  -31.7104  -15.7243 O   0  0  0  0  0  0  0  0  0  0  0  0
   27.3512  -31.3683  -16.9569 C   0  0  0  0  0  0  0  0  0  0  0  0
   26.9764  -30.5033  -18.1668 C   0  0  2  0  0  0  0  0  0  0  0  0
   28.1773  -29.7375  -18.4706 N   0  0  0  0  0  0  0  0  0  0  0  0
   25.8496  -29.6624  -17.7154 C   0  0  0  0  0  0  0  0  0  0  0  0
   26.0654  -28.3845  -17.2686 O   0  0  0  0  0  0  0  0  0  0  0  0
   24.6830  -30.1089  -17.7347 O   0  0  0  0  0  0  0  0  0  0  0  0
  2  3  2  0
  2  1  1  0
  4  3  1  0
  5  4  2  0
  6  7  1  0
  6  5  1  0
  7  8  1  1
  9  7  1  0
  9 10  2  0
 11  5  1  0
 11 12  2  0
 12  2  1  0
 13  9  1  0
 14 13  1  0
 14 25  1  0
 15 16  1  0
 14 15  1  6
 16 24  1  0
 17 18  1  0
 17 16  2  0
 18 19  1  0
 19 24  2  0
 19 20  1  0
 20 21  2  0
 21 22  1  0
 23 22  2  0
 24 23  1  0
 25 32  1  0
 26 25  2  0
 28 27  1  0
 29 28  2  0
 30 28  1  0
 31 30  1  1
 32 31  1  0
 33 31  1  0
 34 33  1  0
 35 33  2  0
M  END
$$$$
