YWN.pdb
     RDKit          3D

 35 37  0  0  1  0  0  0  0  0999 V2000
   28.9291  -14.8057  -17.2000 O   0  0  0  0  0  0  0  0  0  0  0  0
   28.2770  -15.8223  -16.5403 C   0  0  0  0  0  0  0  0  0  0  0  0
   27.9699  -16.9667  -17.2260 C   0  0  0  0  0  0  0  0  0  0  0  0
   27.3156  -17.9870  -16.5580 C   0  0  0  0  0  0  0  0  0  0  0  0
   27.0014  -17.8098  -15.2383 C   0  0  0  0  0  0  0  0  0  0  0  0
   26.2926  -18.9328  -14.5419 C   0  0  0  0  0  0  0  0  0  0  0  0
   27.3018  -19.6122  -13.6789 C   0  0  2  0  0  0  0  0  0  0  0  0
   28.2983  -20.3436  -14.4289 N   0  0  0  0  0  0  0  0  0  0  0  0
   26.6813  -20.5239  -12.6899 C   0  0  0  0  0  0  0  0  0  0  0  0
   26.3830  -21.7206  -12.9569 O   0  0  0  0  0  0  0  0  0  0  0  0
   27.2986  -16.6733  -14.5329 C   0  0  0  0  0  0  0  0  0  0  0  0
   27.9511  -15.6582  -15.2013 C   0  0  0  0  0  0  0  0  0  0  0  0
   26.3896  -20.0708  -11.3629 N   0  0  0  0  0  0  0  0  0  0  0  0
   25.6057  -20.9502  -10.4587 C   0  0  1  0  0  0  0  0  0  0  0  0
   25.9939  -20.6559   -9.0384 C   0  0  0  0  0  0  0  0  0  0  0  0
   27.3979  -20.9068   -8.6951 C   0  0  0  0  0  0  0  0  0  0  0  0
   28.4058  -21.5749   -9.3548 C   0  0  0  0  0  0  0  0  0  0  0  0
   29.5308  -21.5575   -8.6288 N   0  0  0  0  0  0  0  0  0  0  0  0
   29.3023  -20.8901   -7.4895 C   0  0  0  0  0  0  0  0  0  0  0  0
   30.1614  -20.6075   -6.4208 C   0  0  0  0  0  0  0  0  0  0  0  0
   29.6808  -19.8965   -5.3543 C   0  0  0  0  0  0  0  0  0  0  0  0
   28.3502  -19.4769   -5.3664 C   0  0  0  0  0  0  0  0  0  0  0  0
   27.5172  -19.7559   -6.4136 C   0  0  0  0  0  0  0  0  0  0  0  0
   27.9964  -20.4793   -7.5058 C   0  0  0  0  0  0  0  0  0  0  0  0
   24.1968  -20.6253  -10.7259 C   0  0  0  0  0  0  0  0  0  0  0  0
   23.7450  -19.4756  -10.5278 O   0  0  0  0  0  0  0  0  0  0  0  0
   20.3711  -19.6749  -14.3728 N   0  0  0  0  0  0  0  0  0  0  0  0
   20.5364  -20.8494  -13.6021 C   0  0  0  0  0  0  0  0  0  0  0  0
   19.5599  -21.5739  -13.3368 O   0  0  0  0  0  0  0  0  0  0  0  0
   21.8832  -21.2119  -13.1163 C   0  0  0  0  0  0  0  0  0  0  0  0
   21.9473  -21.1136  -11.5869 C   0  0  2  0  0  0  0  0  0  0  0  0
   23.2708  -21.6067  -11.2315 N   0  0  0  0  0  0  0  0  0  0  0  0
   20.8543  -21.9739  -11.0912 C   0  0  0  0  0  0  0  0  0  0  0  0
   21.0836  -23.2906  -10.7866 O   0  0  0  0  0  0  0  0  0  0  0  0
   19.7039  -21.5093  -10.9448 O   0  0  0  0  0  0  0  0  0  0  0  0
  2  3  2  0
  2  1  1  0
  4  3  1  0
  5  4  2  0
  6  7  1  0
  6  5  1  0
  7  8  1  6
  9  7  1  0
  9 10  2  0
 11  5  1  0
 11 12  2  0
 12  2  1  0
 13  9  1  0
 14 13  1  0
 14 25  1  0
 15 16  1  0
 14 15  1  1
 16 24  1  0
 17 18  1  0
 17 16  2  0
 18 19  1  0
 19 24  2  0
 19 20  1  0
 20 21  2  0
 21 22  1  0
 23 22  2  0
 24 23  1  0
 25 32  1  0
 26 25  2  0
 28 27  1  0
 29 28  2  0
 30 28  1  0
 31 30  1  6
 32 31  1  0
 33 31  1  0
 34 33  1  0
 35 33  2  0
M  END
$$$$
