YWN.pdb
     RDKit          3D

 35 37  0  0  1  0  0  0  0  0999 V2000
   29.6138  -17.2895  -21.5309 O   0  0  0  0  0  0  0  0  0  0  0  0
   28.9487  -17.9127  -20.4998 C   0  0  0  0  0  0  0  0  0  0  0  0
   28.0796  -18.9294  -20.7913 C   0  0  0  0  0  0  0  0  0  0  0  0
   27.4141  -19.5544  -19.7510 C   0  0  0  0  0  0  0  0  0  0  0  0
   27.6519  -19.1295  -18.4725 C   0  0  0  0  0  0  0  0  0  0  0  0
   26.9161  -19.8258  -17.3669 C   0  0  0  0  0  0  0  0  0  0  0  0
   27.9412  -20.5204  -16.5354 C   0  0  2  0  0  0  0  0  0  0  0  0
   28.6196  -21.5884  -17.2352 N   0  0  0  0  0  0  0  0  0  0  0  0
   27.3808  -21.0549  -15.2726 C   0  0  0  0  0  0  0  0  0  0  0  0
   26.7270  -22.1328  -15.2174 O   0  0  0  0  0  0  0  0  0  0  0  0
   28.5167  -18.1142  -18.1581 C   0  0  0  0  0  0  0  0  0  0  0  0
   29.1787  -17.4935  -19.1970 C   0  0  0  0  0  0  0  0  0  0  0  0
   27.5639  -20.3518  -14.0383 N   0  0  0  0  0  0  0  0  0  0  0  0
   26.9002  -20.8650  -12.8130 C   0  0  1  0  0  0  0  0  0  0  0  0
   27.4584  -20.1438  -11.6200 C   0  0  0  0  0  0  0  0  0  0  0  0
   26.6897  -20.2748  -10.3775 C   0  0  0  0  0  0  0  0  0  0  0  0
   25.3812  -20.6286  -10.1327 C   0  0  0  0  0  0  0  0  0  0  0  0
   25.1241  -20.5879   -8.8192 N   0  0  0  0  0  0  0  0  0  0  0  0
   26.2351  -20.2125   -8.1706 C   0  0  0  0  0  0  0  0  0  0  0  0
   26.4628  -20.0288   -6.8016 C   0  0  0  0  0  0  0  0  0  0  0  0
   27.7057  -19.6362   -6.3833 C   0  0  0  0  0  0  0  0  0  0  0  0
   28.7053  -19.4310   -7.3349 C   0  0  0  0  0  0  0  0  0  0  0  0
   28.4760  -19.6128   -8.6701 C   0  0  0  0  0  0  0  0  0  0  0  0
   27.2134  -20.0134   -9.1075 C   0  0  0  0  0  0  0  0  0  0  0  0
   25.4679  -20.5930  -13.0038 C   0  0  0  0  0  0  0  0  0  0  0  0
   25.0752  -19.6092  -13.6695 O   0  0  0  0  0  0  0  0  0  0  0  0
   21.0530  -20.0003  -11.5130 N   0  0  0  0  0  0  0  0  0  0  0  0
   21.8672  -19.1144  -12.2568 C   0  0  0  0  0  0  0  0  0  0  0  0
   21.6326  -17.8922  -12.2599 O   0  0  0  0  0  0  0  0  0  0  0  0
   23.0044  -19.6538  -13.0296 C   0  0  0  0  0  0  0  0  0  0  0  0
   23.0843  -21.1777  -12.8757 C   0  0  2  0  0  0  0  0  0  0  0  0
   24.4490  -21.4429  -12.4419 N   0  0  0  0  0  0  0  0  0  0  0  0
   22.7833  -21.7247  -14.2138 C   0  0  0  0  0  0  0  0  0  0  0  0
   23.7702  -22.2965  -14.9742 O   0  0  0  0  0  0  0  0  0  0  0  0
   21.6214  -21.6708  -14.6697 O   0  0  0  0  0  0  0  0  0  0  0  0
  2  3  2  0
  2  1  1  0
  4  3  1  0
  5  4  2  0
  6  7  1  0
  6  5  1  0
  7  8  1  6
  9  7  1  0
  9 10  2  0
 11  5  1  0
 11 12  2  0
 12  2  1  0
 13  9  1  0
 14 13  1  0
 14 25  1  0
 15 16  1  0
 14 15  1  1
 16 24  1  0
 17 18  1  0
 17 16  2  0
 18 19  1  0
 19 24  2  0
 19 20  1  0
 20 21  2  0
 21 22  1  0
 23 22  2  0
 24 23  1  0
 25 32  1  0
 26 25  2  0
 28 27  1  0
 29 28  2  0
 30 28  1  0
 31 30  1  6
 32 31  1  0
 33 31  1  0
 34 33  1  0
 35 33  2  0
M  END
$$$$
