YWN.pdb
     RDKit          3D

 35 37  0  0  1  0  0  0  0  0999 V2000
   29.5937  -14.6656  -18.0571 O   0  0  0  0  0  0  0  0  0  0  0  0
   28.8324  -15.6952  -17.5530 C   0  0  0  0  0  0  0  0  0  0  0  0
   28.3196  -15.5821  -16.2888 C   0  0  0  0  0  0  0  0  0  0  0  0
   27.5532  -16.6194  -15.7866 C   0  0  0  0  0  0  0  0  0  0  0  0
   27.3396  -17.7170  -16.5749 C   0  0  0  0  0  0  0  0  0  0  0  0
   26.5055  -18.8242  -16.0032 C   0  0  0  0  0  0  0  0  0  0  0  0
   27.4361  -19.7361  -15.2771 C   0  0  2  0  0  0  0  0  0  0  0  0
   28.4710  -20.2901  -16.1212 N   0  0  0  0  0  0  0  0  0  0  0  0
   26.7282  -20.8450  -14.5962 C   0  0  0  0  0  0  0  0  0  0  0  0
   26.5345  -21.9675  -15.1391 O   0  0  0  0  0  0  0  0  0  0  0  0
   27.8433  -17.8514  -17.8421 C   0  0  0  0  0  0  0  0  0  0  0  0
   28.6064  -16.8158  -18.3400 C   0  0  0  0  0  0  0  0  0  0  0  0
   26.2249  -20.6807  -13.2654 N   0  0  0  0  0  0  0  0  0  0  0  0
   25.4114  -21.7683  -12.6648 C   0  0  1  0  0  0  0  0  0  0  0  0
   26.0988  -22.2601  -11.4237 C   0  0  0  0  0  0  0  0  0  0  0  0
   26.3077  -21.2604  -10.3707 C   0  0  0  0  0  0  0  0  0  0  0  0
   25.4526  -20.3722   -9.7563 C   0  0  0  0  0  0  0  0  0  0  0  0
   26.1134  -19.6357   -8.8541 N   0  0  0  0  0  0  0  0  0  0  0  0
   27.4004  -20.0091   -8.8472 C   0  0  0  0  0  0  0  0  0  0  0  0
   28.4733  -19.5370   -8.0818 C   0  0  0  0  0  0  0  0  0  0  0  0
   29.7115  -20.0916   -8.2634 C   0  0  0  0  0  0  0  0  0  0  0  0
   29.8647  -21.1088   -9.2059 C   0  0  0  0  0  0  0  0  0  0  0  0
   28.8124  -21.5652   -9.9495 C   0  0  0  0  0  0  0  0  0  0  0  0
   27.5460  -21.0078   -9.7723 C   0  0  0  0  0  0  0  0  0  0  0  0
   24.1058  -21.1597  -12.3700 C   0  0  0  0  0  0  0  0  0  0  0  0
   23.9825  -19.9236  -12.2214 O   0  0  0  0  0  0  0  0  0  0  0  0
   19.4494  -19.7800  -13.0365 N   0  0  0  0  0  0  0  0  0  0  0  0
   20.3318  -20.0586  -14.1064 C   0  0  0  0  0  0  0  0  0  0  0  0
   20.0576  -19.6918  -15.2636 O   0  0  0  0  0  0  0  0  0  0  0  0
   21.5876  -20.7878  -13.8369 C   0  0  0  0  0  0  0  0  0  0  0  0
   21.6491  -21.2278  -12.3688 C   0  0  2  0  0  0  0  0  0  0  0  0
   22.9076  -21.9499  -12.2430 N   0  0  0  0  0  0  0  0  0  0  0  0
   20.4643  -22.0852  -12.1650 C   0  0  0  0  0  0  0  0  0  0  0  0
   19.3229  -21.5786  -11.5997 O   0  0  0  0  0  0  0  0  0  0  0  0
   20.4902  -23.2868  -12.5059 O   0  0  0  0  0  0  0  0  0  0  0  0
  2  3  2  0
  2  1  1  0
  4  3  1  0
  5  4  2  0
  6  7  1  0
  6  5  1  0
  7  8  1  6
  9  7  1  0
  9 10  2  0
 11  5  1  0
 11 12  2  0
 12  2  1  0
 13  9  1  0
 14 13  1  0
 14 25  1  0
 15 16  1  0
 14 15  1  1
 16 24  1  0
 17 18  1  0
 17 16  2  0
 18 19  1  0
 19 24  2  0
 19 20  1  0
 20 21  2  0
 21 22  1  0
 23 22  2  0
 24 23  1  0
 25 32  1  0
 26 25  2  0
 28 27  1  0
 29 28  2  0
 30 28  1  0
 31 30  1  6
 32 31  1  0
 33 31  1  0
 34 33  1  0
 35 33  2  0
M  END
$$$$
