YWN.pdb
     RDKit          3D

 35 37  0  0  1  0  0  0  0  0999 V2000
   27.8864  -16.9272  -17.2052 O   0  0  0  0  0  0  0  0  0  0  0  0
   27.3670  -17.7255  -16.2118 C   0  0  0  0  0  0  0  0  0  0  0  0
   26.9907  -17.1495  -15.0283 C   0  0  0  0  0  0  0  0  0  0  0  0
   26.4673  -17.9560  -14.0328 C   0  0  0  0  0  0  0  0  0  0  0  0
   26.3479  -19.2977  -14.2722 C   0  0  0  0  0  0  0  0  0  0  0  0
   25.7777  -20.1454  -13.1746 C   0  0  0  0  0  0  0  0  0  0  0  0
   26.8511  -20.3085  -12.1519 C   0  0  2  0  0  0  0  0  0  0  0  0
   27.9718  -21.0947  -12.6172 N   0  0  0  0  0  0  0  0  0  0  0  0
   26.3469  -20.8937  -10.8879 C   0  0  0  0  0  0  0  0  0  0  0  0
   26.5004  -22.1101  -10.5891 O   0  0  0  0  0  0  0  0  0  0  0  0
   26.7184  -19.8952  -15.4483 C   0  0  0  0  0  0  0  0  0  0  0  0
   27.2393  -19.0887  -16.4388 C   0  0  0  0  0  0  0  0  0  0  0  0
   25.6497  -20.0823   -9.9357 N   0  0  0  0  0  0  0  0  0  0  0  0
   25.1746  -20.7029   -8.6730 C   0  0  1  0  0  0  0  0  0  0  0  0
   25.2583  -19.6866   -7.5708 C   0  0  0  0  0  0  0  0  0  0  0  0
   26.6125  -19.3107   -7.1503 C   0  0  0  0  0  0  0  0  0  0  0  0
   27.5413  -18.4472   -7.6880 C   0  0  0  0  0  0  0  0  0  0  0  0
   28.6607  -18.4485   -6.9531 N   0  0  0  0  0  0  0  0  0  0  0  0
   28.5063  -19.2977   -5.9280 C   0  0  0  0  0  0  0  0  0  0  0  0
   29.3897  -19.6380   -4.8966 C   0  0  0  0  0  0  0  0  0  0  0  0
   28.9893  -20.5460   -3.9537 C   0  0  0  0  0  0  0  0  0  0  0  0
   27.7141  -21.1037   -4.0513 C   0  0  0  0  0  0  0  0  0  0  0  0
   26.8565  -20.7665   -5.0609 C   0  0  0  0  0  0  0  0  0  0  0  0
   27.2538  -19.8418   -6.0269 C   0  0  0  0  0  0  0  0  0  0  0  0
   23.7892  -21.1164   -8.9404 C   0  0  0  0  0  0  0  0  0  0  0  0
   23.2462  -20.8967  -10.0458 O   0  0  0  0  0  0  0  0  0  0  0  0
   18.8792  -23.8828   -6.5314 N   0  0  0  0  0  0  0  0  0  0  0  0
   19.8025  -23.6309   -7.5730 C   0  0  0  0  0  0  0  0  0  0  0  0
   19.4933  -23.8502   -8.7585 O   0  0  0  0  0  0  0  0  0  0  0  0
   21.1401  -23.0999   -7.2410 C   0  0  0  0  0  0  0  0  0  0  0  0
   21.6616  -22.2093   -8.3757 C   0  0  2  0  0  0  0  0  0  0  0  0
   22.9921  -21.7963   -7.9511 N   0  0  0  0  0  0  0  0  0  0  0  0
   20.7061  -21.0871   -8.4660 C   0  0  0  0  0  0  0  0  0  0  0  0
   21.0460  -19.8403   -8.0088 O   0  0  0  0  0  0  0  0  0  0  0  0
   19.5726  -21.2631   -8.9608 O   0  0  0  0  0  0  0  0  0  0  0  0
  2  3  2  0
  2  1  1  0
  4  3  1  0
  5  4  2  0
  6  7  1  0
  6  5  1  0
  7  8  1  6
  9  7  1  0
  9 10  2  0
 11  5  1  0
 11 12  2  0
 12  2  1  0
 13  9  1  0
 14 13  1  0
 14 25  1  0
 15 16  1  0
 14 15  1  1
 16 24  1  0
 17 18  1  0
 17 16  2  0
 18 19  1  0
 19 24  2  0
 19 20  1  0
 20 21  2  0
 21 22  1  0
 23 22  2  0
 24 23  1  0
 25 32  1  0
 26 25  2  0
 28 27  1  0
 29 28  2  0
 30 28  1  0
 31 30  1  1
 32 31  1  0
 33 31  1  0
 34 33  1  0
 35 33  2  0
M  END
$$$$
