VFF.pdb
     RDKit          3D

 30 31  0  0  1  0  0  0  0  0999 V2000
   33.3647  -34.1425    1.3331 C   0  0  0  0  0  0  0  0  0  0  0  0
   33.8650  -33.3151    2.5056 C   0  0  1  0  0  0  0  0  0  0  0  0
   34.2992  -34.2532    3.6080 C   0  0  0  0  0  0  0  0  0  0  0  0
   35.0159  -32.4811    1.9879 C   0  0  2  0  0  0  0  0  0  0  0  0
   36.0874  -33.3076    1.4844 N   0  0  0  0  0  0  0  0  0  0  0  0
   35.5105  -31.4991    2.9909 C   0  0  0  0  0  0  0  0  0  0  0  0
   36.4776  -31.7959    3.7706 O   0  0  0  0  0  0  0  0  0  0  0  0
   34.9232  -30.2098    3.1068 N   0  0  0  0  0  0  0  0  0  0  0  0
   35.2993  -29.2599    4.1269 C   0  0  1  0  0  0  0  0  0  0  0  0
   35.1209  -27.8902    3.5020 C   0  0  0  0  0  0  0  0  0  0  0  0
   35.4079  -26.7772    4.4382 C   0  0  0  0  0  0  0  0  0  0  0  0
   35.9298  -26.9797    5.6991 C   0  0  0  0  0  0  0  0  0  0  0  0
   36.1957  -25.9274    6.5615 C   0  0  0  0  0  0  0  0  0  0  0  0
   35.9479  -24.6215    6.1937 C   0  0  0  0  0  0  0  0  0  0  0  0
   35.4259  -24.4109    4.9348 C   0  0  0  0  0  0  0  0  0  0  0  0
   35.1619  -25.4596    4.0776 C   0  0  0  0  0  0  0  0  0  0  0  0
   34.4676  -29.4731    5.3151 C   0  0  0  0  0  0  0  0  0  0  0  0
   33.2277  -29.5400    5.1932 O   0  0  0  0  0  0  0  0  0  0  0  0
   35.0385  -29.6049    6.5948 N   0  0  0  0  0  0  0  0  0  0  0  0
   34.1921  -29.9255    7.7549 C   0  0  1  0  0  0  0  0  0  0  0  0
   34.6425  -31.1992    8.4030 C   0  0  0  0  0  0  0  0  0  0  0  0
   33.9053  -31.5050    9.6441 C   0  0  0  0  0  0  0  0  0  0  0  0
   34.4701  -31.1905   10.8610 C   0  0  0  0  0  0  0  0  0  0  0  0
   33.8087  -31.4487   12.0404 C   0  0  0  0  0  0  0  0  0  0  0  0
   32.5527  -32.0347   12.0162 C   0  0  0  0  0  0  0  0  0  0  0  0
   31.9800  -32.3522   10.8138 C   0  0  0  0  0  0  0  0  0  0  0  0
   32.6590  -32.0856    9.6399 C   0  0  0  0  0  0  0  0  0  0  0  0
   34.0879  -28.7753    8.6649 C   0  0  0  0  0  0  0  0  0  0  0  0
   34.8491  -27.6535    8.4845 O   0  0  0  0  0  0  0  0  0  0  0  0
   33.2912  -28.8051    9.6306 O   0  0  0  0  0  0  0  0  0  0  0  0
  2  1  1  6
  2  3  1  0
  4  2  1  0
  4  5  1  1
  6  7  2  0
  6  4  1  0
  8  6  1  0
  9  8  1  0
 10 11  1  0
  9 10  1  6
 11 12  2  0
 11 16  1  0
 12 13  1  0
 13 14  2  0
 15 14  1  0
 16 15  2  0
 17  9  1  0
 17 18  2  0
 19 17  1  0
 20 19  1  0
 20 21  1  1
 22 21  1  0
 22 23  2  0
 24 23  1  0
 25 24  2  0
 26 27  2  0
 26 25  1  0
 27 22  1  0
 28 20  1  0
 29 28  1  0
 30 28  2  0
M  END
$$$$
