VFF.pdb
     RDKit          3D

 30 31  0  0  1  0  0  0  0  0999 V2000
   26.6110  -14.3054  -15.5423 C   0  0  0  0  0  0  0  0  0  0  0  0
   26.9713  -15.0251  -16.8313 C   0  0  1  0  0  0  0  0  0  0  0  0
   27.7002  -16.3023  -16.4835 C   0  0  0  0  0  0  0  0  0  0  0  0
   25.6708  -15.2962  -17.5546 C   0  0  2  0  0  0  0  0  0  0  0  0
   25.8583  -16.1989  -18.6657 N   0  0  0  0  0  0  0  0  0  0  0  0
   24.9775  -14.0487  -17.9771 C   0  0  0  0  0  0  0  0  0  0  0  0
   25.3938  -13.3815  -18.9835 O   0  0  0  0  0  0  0  0  0  0  0  0
   23.8379  -13.5693  -17.2757 N   0  0  0  0  0  0  0  0  0  0  0  0
   23.1483  -12.3511  -17.6292 C   0  0  1  0  0  0  0  0  0  0  0  0
   21.7735  -12.7776  -18.1050 C   0  0  0  0  0  0  0  0  0  0  0  0
   20.8867  -11.6358  -18.4326 C   0  0  0  0  0  0  0  0  0  0  0  0
   20.9682  -10.9469  -19.6251 C   0  0  0  0  0  0  0  0  0  0  0  0
   20.1289   -9.8830  -19.9176 C   0  0  0  0  0  0  0  0  0  0  0  0
   19.1680   -9.4633  -19.0218 C   0  0  0  0  0  0  0  0  0  0  0  0
   19.0802  -10.1468  -17.8273 C   0  0  0  0  0  0  0  0  0  0  0  0
   19.9166  -11.2057  -17.5379 C   0  0  0  0  0  0  0  0  0  0  0  0
   23.1139  -11.4609  -16.4649 C   0  0  0  0  0  0  0  0  0  0  0  0
   22.7304  -11.9044  -15.3636 O   0  0  0  0  0  0  0  0  0  0  0  0
   23.5054  -10.1125  -16.5620 N   0  0  0  0  0  0  0  0  0  0  0  0
   23.4669   -9.2420  -15.3763 C   0  0  1  0  0  0  0  0  0  0  0  0
   24.7800   -9.2714  -14.6550 C   0  0  0  0  0  0  0  0  0  0  0  0
   25.9364   -9.3455  -15.5684 C   0  0  0  0  0  0  0  0  0  0  0  0
   26.1728   -8.3093  -16.4455 C   0  0  0  0  0  0  0  0  0  0  0  0
   27.2480   -8.3356  -17.3047 C   0  0  0  0  0  0  0  0  0  0  0  0
   28.1146   -9.4174  -17.2967 C   0  0  0  0  0  0  0  0  0  0  0  0
   27.8914  -10.4536  -16.4302 C   0  0  0  0  0  0  0  0  0  0  0  0
   26.8067  -10.4099  -15.5749 C   0  0  0  0  0  0  0  0  0  0  0  0
   22.9866   -7.8969  -15.7256 C   0  0  0  0  0  0  0  0  0  0  0  0
   22.8521   -7.5053  -17.0290 O   0  0  0  0  0  0  0  0  0  0  0  0
   22.6897   -7.0794  -14.8247 O   0  0  0  0  0  0  0  0  0  0  0  0
  2  1  1  1
  2  3  1  0
  4  2  1  0
  4  5  1  6
  6  7  2  0
  6  4  1  0
  8  6  1  0
  9  8  1  0
 10 11  1  0
  9 10  1  1
 11 12  2  0
 11 16  1  0
 12 13  1  0
 13 14  2  0
 15 14  1  0
 16 15  2  0
 17  9  1  0
 17 18  2  0
 19 17  1  0
 20 19  1  0
 20 21  1  6
 22 21  1  0
 22 23  2  0
 24 23  1  0
 25 24  2  0
 26 27  2  0
 26 25  1  0
 27 22  1  0
 28 20  1  0
 29 28  1  0
 30 28  2  0
M  END
$$$$
