VFF.pdb
     RDKit          3D

 30 31  0  0  1  0  0  0  0  0999 V2000
   23.7976  -17.0047  -18.3411 C   0  0  0  0  0  0  0  0  0  0  0  0
   24.1526  -18.1523  -17.4103 C   0  0  1  0  0  0  0  0  0  0  0  0
   23.4088  -19.3879  -17.8619 C   0  0  0  0  0  0  0  0  0  0  0  0
   25.6519  -18.3326  -17.4965 C   0  0  2  0  0  0  0  0  0  0  0  0
   26.0722  -18.6573  -18.8391 N   0  0  0  0  0  0  0  0  0  0  0  0
   26.1696  -19.3194  -16.5099 C   0  0  0  0  0  0  0  0  0  0  0  0
   26.2065  -20.5644  -16.7925 O   0  0  0  0  0  0  0  0  0  0  0  0
   26.6358  -18.9044  -15.2328 N   0  0  0  0  0  0  0  0  0  0  0  0
   27.0969  -19.8271  -14.2227 C   0  0  1  0  0  0  0  0  0  0  0  0
   27.8735  -18.9920  -13.2238 C   0  0  0  0  0  0  0  0  0  0  0  0
   28.3440  -19.7681  -12.0516 C   0  0  0  0  0  0  0  0  0  0  0  0
   27.7208  -19.7125  -10.8220 C   0  0  0  0  0  0  0  0  0  0  0  0
   28.1715  -20.4474   -9.7364 C   0  0  0  0  0  0  0  0  0  0  0  0
   29.2716  -21.2728   -9.8389 C   0  0  0  0  0  0  0  0  0  0  0  0
   29.9001  -21.3337  -11.0648 C   0  0  0  0  0  0  0  0  0  0  0  0
   29.4501  -20.6015  -12.1445 C   0  0  0  0  0  0  0  0  0  0  0  0
   25.9437  -20.5169  -13.6366 C   0  0  0  0  0  0  0  0  0  0  0  0
   26.1269  -21.5292  -12.9308 O   0  0  0  0  0  0  0  0  0  0  0  0
   24.6298  -20.0608  -13.8528 N   0  0  0  0  0  0  0  0  0  0  0  0
   23.5243  -20.5637  -13.0222 C   0  0  1  0  0  0  0  0  0  0  0  0
   23.4725  -19.8366  -11.7130 C   0  0  0  0  0  0  0  0  0  0  0  0
   22.3400  -20.2573  -10.8659 C   0  0  0  0  0  0  0  0  0  0  0  0
   22.5671  -21.1111   -9.8084 C   0  0  0  0  0  0  0  0  0  0  0  0
   21.5389  -21.5166   -8.9879 C   0  0  0  0  0  0  0  0  0  0  0  0
   20.2489  -21.0651   -9.2192 C   0  0  0  0  0  0  0  0  0  0  0  0
   20.0094  -20.2163  -10.2664 C   0  0  0  0  0  0  0  0  0  0  0  0
   21.0542  -19.8199  -11.0798 C   0  0  0  0  0  0  0  0  0  0  0  0
   22.2606  -20.5686  -13.7739 C   0  0  0  0  0  0  0  0  0  0  0  0
   22.0964  -19.8032  -14.8953 O   0  0  0  0  0  0  0  0  0  0  0  0
   21.3038  -21.2821  -13.3946 O   0  0  0  0  0  0  0  0  0  0  0  0
  2  1  1  6
  2  3  1  0
  4  2  1  0
  4  5  1  6
  6  7  2  0
  6  4  1  0
  8  6  1  0
  9  8  1  0
 10 11  1  0
  9 10  1  1
 11 12  2  0
 11 16  1  0
 12 13  1  0
 13 14  2  0
 15 14  1  0
 16 15  2  0
 17  9  1  0
 17 18  2  0
 19 17  1  0
 20 19  1  0
 20 21  1  1
 22 21  1  0
 22 23  2  0
 24 23  1  0
 25 24  2  0
 26 27  2  0
 26 25  1  0
 27 22  1  0
 28 20  1  0
 29 28  1  0
 30 28  2  0
M  END
$$$$
