VFF.pdb
     RDKit          3D

 30 31  0  0  1  0  0  0  0  0999 V2000
   27.4898  -18.2772  -13.4941 C   0  0  0  0  0  0  0  0  0  0  0  0
   27.5464  -19.5180  -14.3696 C   0  0  1  0  0  0  0  0  0  0  0  0
   28.2144  -19.1567  -15.6762 C   0  0  0  0  0  0  0  0  0  0  0  0
   28.3340  -20.5556  -13.6008 C   0  0  2  0  0  0  0  0  0  0  0  0
   28.6256  -21.7123  -14.4143 N   0  0  0  0  0  0  0  0  0  0  0  0
   27.6801  -20.9408  -12.3205 C   0  0  0  0  0  0  0  0  0  0  0  0
   26.7366  -21.8016  -12.3046 O   0  0  0  0  0  0  0  0  0  0  0  0
   28.0870  -20.3644  -11.0865 N   0  0  0  0  0  0  0  0  0  0  0  0
   27.5033  -20.7251   -9.8163 C   0  0  1  0  0  0  0  0  0  0  0  0
   28.4986  -20.2801   -8.7629 C   0  0  0  0  0  0  0  0  0  0  0  0
   27.9137  -20.1942   -7.4034 C   0  0  0  0  0  0  0  0  0  0  0  0
   27.6994  -21.3043   -6.6127 C   0  0  0  0  0  0  0  0  0  0  0  0
   27.1544  -21.2065   -5.3418 C   0  0  0  0  0  0  0  0  0  0  0  0
   26.7995  -19.9854   -4.8081 C   0  0  0  0  0  0  0  0  0  0  0  0
   27.0104  -18.8709   -5.5924 C   0  0  0  0  0  0  0  0  0  0  0  0
   27.5532  -18.9701   -6.8573 C   0  0  0  0  0  0  0  0  0  0  0  0
   26.1911  -20.0839   -9.6887 C   0  0  0  0  0  0  0  0  0  0  0  0
   26.1174  -18.8393   -9.6423 O   0  0  0  0  0  0  0  0  0  0  0  0
   25.0084  -20.8436   -9.6175 N   0  0  0  0  0  0  0  0  0  0  0  0
   23.7060  -20.1757   -9.4675 C   0  0  1  0  0  0  0  0  0  0  0  0
   23.5046  -19.1592  -10.5499 C   0  0  0  0  0  0  0  0  0  0  0  0
   23.2271  -19.7671  -11.8654 C   0  0  0  0  0  0  0  0  0  0  0  0
   24.2114  -19.7708  -12.8298 C   0  0  0  0  0  0  0  0  0  0  0  0
   23.9953  -20.3390  -14.0649 C   0  0  0  0  0  0  0  0  0  0  0  0
   22.7708  -20.9205  -14.3551 C   0  0  0  0  0  0  0  0  0  0  0  0
   21.7842  -20.9237  -13.4059 C   0  0  0  0  0  0  0  0  0  0  0  0
   22.0193  -20.3484  -12.1714 C   0  0  0  0  0  0  0  0  0  0  0  0
   22.6212  -21.1595   -9.3376 C   0  0  0  0  0  0  0  0  0  0  0  0
   21.3300  -20.7697   -9.1109 O   0  0  0  0  0  0  0  0  0  0  0  0
   22.8652  -22.3841   -9.4337 O   0  0  0  0  0  0  0  0  0  0  0  0
  2  1  1  1
  2  3  1  0
  4  2  1  0
  4  5  1  6
  6  7  2  0
  6  4  1  0
  8  6  1  0
  9  8  1  0
 10 11  1  0
  9 10  1  1
 11 12  2  0
 11 16  1  0
 12 13  1  0
 13 14  2  0
 15 14  1  0
 16 15  2  0
 17  9  1  0
 17 18  2  0
 19 17  1  0
 20 19  1  0
 20 21  1  6
 22 21  1  0
 22 23  2  0
 24 23  1  0
 25 24  2  0
 26 27  2  0
 26 25  1  0
 27 22  1  0
 28 20  1  0
 29 28  1  0
 30 28  2  0
M  END
$$$$
