VFF.pdb
     RDKit          3D

 30 31  0  0  1  0  0  0  0  0999 V2000
   23.8848  -35.5280  -13.6181 C   0  0  0  0  0  0  0  0  0  0  0  0
   24.7340  -35.0640  -14.7898 C   0  0  1  0  0  0  0  0  0  0  0  0
   24.6868  -36.1211  -15.8687 C   0  0  0  0  0  0  0  0  0  0  0  0
   24.1458  -33.7518  -15.2588 C   0  0  2  0  0  0  0  0  0  0  0  0
   24.8674  -33.2197  -16.3905 N   0  0  0  0  0  0  0  0  0  0  0  0
   24.0323  -32.7492  -14.1647 C   0  0  0  0  0  0  0  0  0  0  0  0
   25.0006  -31.9584  -13.9035 O   0  0  0  0  0  0  0  0  0  0  0  0
   22.8482  -32.6449  -13.3852 N   0  0  0  0  0  0  0  0  0  0  0  0
   22.6988  -31.7064  -12.2983 C   0  0  1  0  0  0  0  0  0  0  0  0
   21.3520  -31.0426  -12.5077 C   0  0  0  0  0  0  0  0  0  0  0  0
   20.9887  -30.0995  -11.4232 C   0  0  0  0  0  0  0  0  0  0  0  0
   20.0611  -30.4056  -10.4489 C   0  0  0  0  0  0  0  0  0  0  0  0
   19.7350  -29.5134   -9.4392 C   0  0  0  0  0  0  0  0  0  0  0  0
   20.3283  -28.2707   -9.3641 C   0  0  0  0  0  0  0  0  0  0  0  0
   21.2566  -27.9572  -10.3345 C   0  0  0  0  0  0  0  0  0  0  0  0
   21.5801  -28.8466  -11.3388 C   0  0  0  0  0  0  0  0  0  0  0  0
   22.8056  -32.4229  -11.0239 C   0  0  0  0  0  0  0  0  0  0  0  0
   22.3678  -33.5879  -10.9356 O   0  0  0  0  0  0  0  0  0  0  0  0
   23.3932  -31.8242   -9.8938 N   0  0  0  0  0  0  0  0  0  0  0  0
   23.5550  -32.5907   -8.6483 C   0  0  1  0  0  0  0  0  0  0  0  0
   25.0003  -32.6723   -8.2610 C   0  0  0  0  0  0  0  0  0  0  0  0
   25.8096  -33.4491   -9.2195 C   0  0  0  0  0  0  0  0  0  0  0  0
   25.8749  -34.8199   -9.0944 C   0  0  0  0  0  0  0  0  0  0  0  0
   26.6092  -35.5806   -9.9760 C   0  0  0  0  0  0  0  0  0  0  0  0
   27.2988  -34.9687  -11.0112 C   0  0  0  0  0  0  0  0  0  0  0  0
   27.2423  -33.6075  -11.1469 C   0  0  0  0  0  0  0  0  0  0  0  0
   26.5000  -32.8600  -10.2522 C   0  0  0  0  0  0  0  0  0  0  0  0
   22.6637  -32.0806   -7.5962 C   0  0  0  0  0  0  0  0  0  0  0  0
   21.5303  -32.7551   -7.2346 O   0  0  0  0  0  0  0  0  0  0  0  0
   22.9315  -31.0081   -7.0077 O   0  0  0  0  0  0  0  0  0  0  0  0
  2  1  1  1
  2  3  1  0
  4  2  1  0
  4  5  1  6
  6  7  2  0
  6  4  1  0
  8  6  1  0
  9  8  1  0
 10 11  1  0
  9 10  1  6
 11 12  2  0
 11 16  1  0
 12 13  1  0
 13 14  2  0
 15 14  1  0
 16 15  2  0
 17  9  1  0
 17 18  2  0
 19 17  1  0
 20 19  1  0
 20 21  1  1
 22 21  1  0
 22 23  2  0
 24 23  1  0
 25 24  2  0
 26 27  2  0
 26 25  1  0
 27 22  1  0
 28 20  1  0
 29 28  1  0
 30 28  2  0
M  END
$$$$
