VFF.pdb
     RDKit          3D

 30 31  0  0  1  0  0  0  0  0999 V2000
   21.1115  -23.1178  -21.8525 C   0  0  0  0  0  0  0  0  0  0  0  0
   21.5369  -22.6506  -20.4704 C   0  0  1  0  0  0  0  0  0  0  0  0
   21.2133  -23.7383  -19.4724 C   0  0  0  0  0  0  0  0  0  0  0  0
   23.0224  -22.3753  -20.5438 C   0  0  2  0  0  0  0  0  0  0  0  0
   23.7653  -23.5588  -20.9072 N   0  0  0  0  0  0  0  0  0  0  0  0
   23.5548  -21.7589  -19.2981 C   0  0  0  0  0  0  0  0  0  0  0  0
   24.2719  -22.4400  -18.4899 O   0  0  0  0  0  0  0  0  0  0  0  0
   23.2815  -20.4016  -18.9765 N   0  0  0  0  0  0  0  0  0  0  0  0
   23.7963  -19.7513  -17.7947 C   0  0  1  0  0  0  0  0  0  0  0  0
   24.3361  -18.4136  -18.2611 C   0  0  0  0  0  0  0  0  0  0  0  0
   24.8448  -17.5690  -17.1541 C   0  0  0  0  0  0  0  0  0  0  0  0
   26.0877  -17.7553  -16.5850 C   0  0  0  0  0  0  0  0  0  0  0  0
   26.5501  -16.9543  -15.5523 C   0  0  0  0  0  0  0  0  0  0  0  0
   25.7815  -15.9281  -15.0445 C   0  0  0  0  0  0  0  0  0  0  0  0
   24.5377  -15.7355  -15.6079 C   0  0  0  0  0  0  0  0  0  0  0  0
   24.0790  -16.5337  -16.6360 C   0  0  0  0  0  0  0  0  0  0  0  0
   22.7240  -19.6350  -16.8020 C   0  0  0  0  0  0  0  0  0  0  0  0
   21.5709  -19.3385  -17.1751 O   0  0  0  0  0  0  0  0  0  0  0  0
   22.9668  -19.8516  -15.4326 N   0  0  0  0  0  0  0  0  0  0  0  0
   21.8800  -19.6954  -14.4531 C   0  0  1  0  0  0  0  0  0  0  0  0
   22.3353  -20.1090  -13.0867 C   0  0  0  0  0  0  0  0  0  0  0  0
   21.2641  -20.0297  -12.0751 C   0  0  0  0  0  0  0  0  0  0  0  0
   21.1607  -18.9044  -11.2865 C   0  0  0  0  0  0  0  0  0  0  0  0
   20.1678  -18.7875  -10.3402 C   0  0  0  0  0  0  0  0  0  0  0  0
   19.2505  -19.8125  -10.1684 C   0  0  0  0  0  0  0  0  0  0  0  0
   19.3418  -20.9361  -10.9454 C   0  0  0  0  0  0  0  0  0  0  0  0
   20.3454  -21.0359  -11.8904 C   0  0  0  0  0  0  0  0  0  0  0  0
   21.2951  -18.3484  -14.5254 C   0  0  0  0  0  0  0  0  0  0  0  0
   19.9410  -18.1615  -14.5672 O   0  0  0  0  0  0  0  0  0  0  0  0
   22.0364  -17.3393  -14.5501 O   0  0  0  0  0  0  0  0  0  0  0  0
  2  1  1  6
  2  3  1  0
  4  2  1  0
  4  5  1  1
  6  7  2  0
  6  4  1  0
  8  6  1  0
  9  8  1  0
 10 11  1  0
  9 10  1  6
 11 12  2  0
 11 16  1  0
 12 13  1  0
 13 14  2  0
 15 14  1  0
 16 15  2  0
 17  9  1  0
 17 18  2  0
 19 17  1  0
 20 19  1  0
 20 21  1  1
 22 21  1  0
 22 23  2  0
 24 23  1  0
 25 24  2  0
 26 27  2  0
 26 25  1  0
 27 22  1  0
 28 20  1  0
 29 28  1  0
 30 28  2  0
M  END
$$$$
