VFF.pdb
     RDKit          3D

 30 31  0  0  1  0  0  0  0  0999 V2000
   30.4429    1.7856   -8.9313 C   0  0  0  0  0  0  0  0  0  0  0  0
   29.7763    2.6769   -9.9661 C   0  0  1  0  0  0  0  0  0  0  0  0
   30.4671    2.4738  -11.2948 C   0  0  0  0  0  0  0  0  0  0  0  0
   28.3211    2.2676  -10.0179 C   0  0  2  0  0  0  0  0  0  0  0  0
   27.6278    2.9054  -11.1121 N   0  0  0  0  0  0  0  0  0  0  0  0
   27.6165    2.4860   -8.7252 C   0  0  0  0  0  0  0  0  0  0  0  0
   27.3719    3.6684   -8.3089 O   0  0  0  0  0  0  0  0  0  0  0  0
   27.1979    1.3894   -7.9235 N   0  0  0  0  0  0  0  0  0  0  0  0
   26.5232    1.5496   -6.6572 C   0  0  1  0  0  0  0  0  0  0  0  0
   25.2150    0.7946   -6.7876 C   0  0  0  0  0  0  0  0  0  0  0  0
   24.1658    1.5597   -7.5028 C   0  0  0  0  0  0  0  0  0  0  0  0
   23.9072    1.3923   -8.8475 C   0  0  0  0  0  0  0  0  0  0  0  0
   22.9199    2.1135   -9.5009 C   0  0  0  0  0  0  0  0  0  0  0  0
   22.1469    3.0376   -8.8296 C   0  0  0  0  0  0  0  0  0  0  0  0
   22.3995    3.2108   -7.4851 C   0  0  0  0  0  0  0  0  0  0  0  0
   23.3826    2.4920   -6.8363 C   0  0  0  0  0  0  0  0  0  0  0  0
   27.3849    1.0450   -5.5840 C   0  0  0  0  0  0  0  0  0  0  0  0
   27.6232   -0.1776   -5.5110 O   0  0  0  0  0  0  0  0  0  0  0  0
   27.9518    1.9118   -4.6310 N   0  0  0  0  0  0  0  0  0  0  0  0
   28.9040    1.3971   -3.6342 C   0  0  1  0  0  0  0  0  0  0  0  0
   29.9634    0.5673   -4.2932 C   0  0  0  0  0  0  0  0  0  0  0  0
   30.9602    0.0440   -3.3394 C   0  0  0  0  0  0  0  0  0  0  0  0
   32.1674    0.6935   -3.1985 C   0  0  0  0  0  0  0  0  0  0  0  0
   33.1181    0.2434   -2.3105 C   0  0  0  0  0  0  0  0  0  0  0  0
   32.8684   -0.8811   -1.5394 C   0  0  0  0  0  0  0  0  0  0  0  0
   31.6730   -1.5358   -1.6694 C   0  0  0  0  0  0  0  0  0  0  0  0
   30.7305   -1.0695   -2.5663 C   0  0  0  0  0  0  0  0  0  0  0  0
   29.4131    2.4822   -2.7826 C   0  0  0  0  0  0  0  0  0  0  0  0
   29.6274    2.2962   -1.4447 O   0  0  0  0  0  0  0  0  0  0  0  0
   29.6615    3.6067   -3.2747 O   0  0  0  0  0  0  0  0  0  0  0  0
  2  1  1  1
  2  3  1  0
  4  2  1  0
  4  5  1  6
  6  7  2  0
  6  4  1  0
  8  6  1  0
  9  8  1  0
 10 11  1  0
  9 10  1  6
 11 12  2  0
 11 16  1  0
 12 13  1  0
 13 14  2  0
 15 14  1  0
 16 15  2  0
 17  9  1  0
 17 18  2  0
 19 17  1  0
 20 19  1  0
 20 21  1  6
 22 21  1  0
 22 23  2  0
 24 23  1  0
 25 24  2  0
 26 27  2  0
 26 25  1  0
 27 22  1  0
 28 20  1  0
 29 28  1  0
 30 28  2  0
M  END
$$$$
