VFF.pdb
     RDKit          3D

 30 31  0  0  1  0  0  0  0  0999 V2000
   18.2927  -12.5700  -16.2185 C   0  0  0  0  0  0  0  0  0  0  0  0
   16.9700  -12.5577  -16.9665 C   0  0  1  0  0  0  0  0  0  0  0  0
   16.2249  -13.8339  -16.6506 C   0  0  0  0  0  0  0  0  0  0  0  0
   16.2172  -11.3330  -16.4960 C   0  0  2  0  0  0  0  0  0  0  0  0
   14.8789  -11.2912  -17.0363 N   0  0  0  0  0  0  0  0  0  0  0  0
   16.9531  -10.0676  -16.7650 C   0  0  0  0  0  0  0  0  0  0  0  0
   17.1347   -9.6622  -17.9625 O   0  0  0  0  0  0  0  0  0  0  0  0
   17.4704   -9.2795  -15.7011 N   0  0  0  0  0  0  0  0  0  0  0  0
   18.2965   -8.1143  -15.9114 C   0  0  1  0  0  0  0  0  0  0  0  0
   17.5809   -6.9703  -15.2204 C   0  0  0  0  0  0  0  0  0  0  0  0
   18.3232   -5.6889  -15.2879 C   0  0  0  0  0  0  0  0  0  0  0  0
   18.3284   -4.8887  -16.4117 C   0  0  0  0  0  0  0  0  0  0  0  0
   19.0253   -3.6912  -16.4574 C   0  0  0  0  0  0  0  0  0  0  0  0
   19.7499   -3.2439  -15.3726 C   0  0  0  0  0  0  0  0  0  0  0  0
   19.7498   -4.0382  -14.2454 C   0  0  0  0  0  0  0  0  0  0  0  0
   19.0555   -5.2300  -14.2016 C   0  0  0  0  0  0  0  0  0  0  0  0
   19.6380   -8.3714  -15.3789 C   0  0  0  0  0  0  0  0  0  0  0  0
   19.7628   -8.9641  -14.2881 O   0  0  0  0  0  0  0  0  0  0  0  0
   20.7923   -7.9635  -16.0733 N   0  0  0  0  0  0  0  0  0  0  0  0
   22.1267   -8.2209  -15.5093 C   0  0  1  0  0  0  0  0  0  0  0  0
   22.7552   -9.4153  -16.1603 C   0  0  0  0  0  0  0  0  0  0  0  0
   24.1519   -9.6326  -15.7370 C   0  0  0  0  0  0  0  0  0  0  0  0
   24.4097  -10.4138  -14.6315 C   0  0  0  0  0  0  0  0  0  0  0  0
   25.6995  -10.6501  -14.2123 C   0  0  0  0  0  0  0  0  0  0  0  0
   26.7652  -10.0982  -14.9059 C   0  0  0  0  0  0  0  0  0  0  0  0
   26.5231   -9.3201  -16.0061 C   0  0  0  0  0  0  0  0  0  0  0  0
   25.2216   -9.0938  -16.4121 C   0  0  0  0  0  0  0  0  0  0  0  0
   22.9511   -7.0037  -15.5298 C   0  0  0  0  0  0  0  0  0  0  0  0
   22.7219   -6.0038  -16.4343 O   0  0  0  0  0  0  0  0  0  0  0  0
   23.8870   -6.8618  -14.7099 O   0  0  0  0  0  0  0  0  0  0  0  0
  2  1  1  1
  2  3  1  0
  4  2  1  0
  4  5  1  6
  6  7  2  0
  6  4  1  0
  8  6  1  0
  9  8  1  0
 10 11  1  0
  9 10  1  1
 11 12  2  0
 11 16  1  0
 12 13  1  0
 13 14  2  0
 15 14  1  0
 16 15  2  0
 17  9  1  0
 17 18  2  0
 19 17  1  0
 20 19  1  0
 20 21  1  6
 22 21  1  0
 22 23  2  0
 24 23  1  0
 25 24  2  0
 26 27  2  0
 26 25  1  0
 27 22  1  0
 28 20  1  0
 29 28  1  0
 30 28  2  0
M  END
$$$$
