VFF.pdb
     RDKit          3D

 30 31  0  0  1  0  0  0  0  0999 V2000
   27.1583  -19.4437  -16.6748 C   0  0  0  0  0  0  0  0  0  0  0  0
   27.6530  -20.7411  -17.2924 C   0  0  1  0  0  0  0  0  0  0  0  0
   28.2729  -20.4310  -18.6353 C   0  0  0  0  0  0  0  0  0  0  0  0
   28.6605  -21.3244  -16.3266 C   0  0  2  0  0  0  0  0  0  0  0  0
   29.2951  -22.5031  -16.8676 N   0  0  0  0  0  0  0  0  0  0  0  0
   28.0813  -21.5865  -14.9809 C   0  0  0  0  0  0  0  0  0  0  0  0
   27.2177  -22.5125  -14.8130 O   0  0  0  0  0  0  0  0  0  0  0  0
   28.4727  -20.8175  -13.8513 N   0  0  0  0  0  0  0  0  0  0  0  0
   27.9390  -21.0319  -12.5271 C   0  0  1  0  0  0  0  0  0  0  0  0
   28.8960  -20.3372  -11.5784 C   0  0  0  0  0  0  0  0  0  0  0  0
   28.4086  -20.2986  -10.1789 C   0  0  0  0  0  0  0  0  0  0  0  0
   27.4941  -19.3666   -9.7335 C   0  0  0  0  0  0  0  0  0  0  0  0
   27.0459  -19.3462   -8.4219 C   0  0  0  0  0  0  0  0  0  0  0  0
   27.4984  -20.2639   -7.4973 C   0  0  0  0  0  0  0  0  0  0  0  0
   28.4130  -21.1987   -7.9347 C   0  0  0  0  0  0  0  0  0  0  0  0
   28.8580  -21.2177   -9.2409 C   0  0  0  0  0  0  0  0  0  0  0  0
   26.5718  -20.5063  -12.4669 C   0  0  0  0  0  0  0  0  0  0  0  0
   26.3267  -19.3766  -12.9362 O   0  0  0  0  0  0  0  0  0  0  0  0
   25.5257  -21.2505  -11.8898 N   0  0  0  0  0  0  0  0  0  0  0  0
   24.1474  -20.7360  -11.9165 C   0  0  1  0  0  0  0  0  0  0  0  0
   23.4492  -21.1577  -13.1735 C   0  0  0  0  0  0  0  0  0  0  0  0
   22.0584  -20.6709  -13.2498 C   0  0  0  0  0  0  0  0  0  0  0  0
   21.8097  -19.4097  -13.7463 C   0  0  0  0  0  0  0  0  0  0  0  0
   20.5253  -18.9244  -13.8449 C   0  0  0  0  0  0  0  0  0  0  0  0
   19.4557  -19.7083  -13.4410 C   0  0  0  0  0  0  0  0  0  0  0  0
   19.6888  -20.9632  -12.9459 C   0  0  0  0  0  0  0  0  0  0  0  0
   20.9851  -21.4338  -12.8543 C   0  0  0  0  0  0  0  0  0  0  0  0
   23.4356  -21.0720  -10.6746 C   0  0  0  0  0  0  0  0  0  0  0  0
   22.4258  -20.2828  -10.1971 O   0  0  0  0  0  0  0  0  0  0  0  0
   23.7463  -22.0979  -10.0272 O   0  0  0  0  0  0  0  0  0  0  0  0
  2  1  1  1
  2  3  1  0
  4  2  1  0
  4  5  1  6
  6  7  2  0
  6  4  1  0
  8  6  1  0
  9  8  1  0
 10 11  1  0
  9 10  1  1
 11 12  2  0
 11 16  1  0
 12 13  1  0
 13 14  2  0
 15 14  1  0
 16 15  2  0
 17  9  1  0
 17 18  2  0
 19 17  1  0
 20 19  1  0
 20 21  1  6
 22 21  1  0
 22 23  2  0
 24 23  1  0
 25 24  2  0
 26 27  2  0
 26 25  1  0
 27 22  1  0
 28 20  1  0
 29 28  1  0
 30 28  2  0
M  END
$$$$
