TCI.pdb
     RDKit          3D

 22 21  0  0  1  0  0  0  0  0999 V2000
   28.2614  -21.2694  -15.9746 C   0  0  0  0  0  0  0  0  0  0  0  0
   26.9611  -21.2221  -15.2190 C   0  0  1  0  0  0  0  0  0  0  0  0
   25.9287  -20.8435  -16.0670 O   0  0  0  0  0  0  0  0  0  0  0  0
   26.6614  -22.4981  -14.4787 C   0  0  2  0  0  0  0  0  0  0  0  0
   26.4903  -23.5794  -15.3939 N   0  0  0  0  0  0  0  0  0  0  0  0
   25.4574  -22.2821  -13.6196 C   0  0  0  0  0  0  0  0  0  0  0  0
   24.3441  -22.7961  -13.8950 O   0  0  0  0  0  0  0  0  0  0  0  0
   25.5141  -21.4735  -12.4328 N   0  0  0  0  0  0  0  0  0  0  0  0
   24.3275  -21.1354  -11.6791 C   0  0  1  0  0  0  0  0  0  0  0  0
   24.6865  -20.5393  -10.3213 C   0  0  0  0  0  0  0  0  0  0  0  0
   25.9876  -21.4794   -9.5079 S   0  0  0  0  0  0  0  0  0  0  0  0
   23.4423  -20.2045  -12.4012 C   0  0  0  0  0  0  0  0  0  0  0  0
   23.7920  -19.0867  -12.8468 O   0  0  0  0  0  0  0  0  0  0  0  0
   21.6640  -21.3994  -16.7635 C   0  0  0  0  0  0  0  0  0  0  0  0
   22.0728  -20.6868  -15.4987 C   0  0  0  0  0  0  0  0  0  0  0  0
   20.8401  -20.4459  -14.6659 C   0  0  2  0  0  0  0  0  0  0  0  0
   19.8244  -19.6727  -15.4433 C   0  0  0  0  0  0  0  0  0  0  0  0
   21.1668  -19.7710  -13.3516 C   0  0  2  0  0  0  0  0  0  0  0  0
   22.0925  -20.5980  -12.6102 N   0  0  0  0  0  0  0  0  0  0  0  0
   19.9040  -19.6768  -12.5831 C   0  0  0  0  0  0  0  0  0  0  0  0
   19.3641  -20.6908  -12.0602 O   0  0  0  0  0  0  0  0  0  0  0  0
   19.3003  -18.4378  -12.4357 O   0  0  0  0  0  0  0  0  0  0  0  0
  2  3  1  0
  2  1  1  6
  4  2  1  0
  4  5  1  6
  6  4  1  0
  6  8  1  0
  7  6  2  0
  9  8  1  0
  9 12  1  0
  9 10  1  1
 11 10  1  0
 12 19  1  0
 13 12  2  0
 15 14  1  0
 16 17  1  6
 16 15  1  0
 18 20  1  0
 18 16  1  0
 18 19  1  1
 20 22  1  0
 21 20  2  0
M  END
$$$$
