TCI.pdb
     RDKit          3D

 22 21  0  0  1  0  0  0  0  0999 V2000
   18.7977  -18.7853  -17.5306 C   0  0  0  0  0  0  0  0  0  0  0  0
   19.4066  -17.4550  -17.1792 C   0  0  1  0  0  0  0  0  0  0  0  0
   18.7530  -16.9040  -16.0849 O   0  0  0  0  0  0  0  0  0  0  0  0
   20.8983  -17.5202  -16.9878 C   0  0  2  0  0  0  0  0  0  0  0  0
   21.2262  -18.3848  -15.9011 N   0  0  0  0  0  0  0  0  0  0  0  0
   21.4170  -16.1325  -16.7891 C   0  0  0  0  0  0  0  0  0  0  0  0
   21.7648  -15.7090  -15.6581 O   0  0  0  0  0  0  0  0  0  0  0  0
   21.5436  -15.2116  -17.8851 N   0  0  0  0  0  0  0  0  0  0  0  0
   21.9559  -13.8397  -17.6889 C   0  0  1  0  0  0  0  0  0  0  0  0
   23.0892  -13.4621  -18.6381 C   0  0  0  0  0  0  0  0  0  0  0  0
   23.5219  -11.7213  -18.4943 S   0  0  0  0  0  0  0  0  0  0  0  0
   20.8456  -12.8844  -17.8515 C   0  0  0  0  0  0  0  0  0  0  0  0
   20.0320  -12.8901  -18.8046 O   0  0  0  0  0  0  0  0  0  0  0  0
   16.2599  -10.8704  -15.1217 C   0  0  0  0  0  0  0  0  0  0  0  0
   17.3597  -10.3352  -16.0041 C   0  0  0  0  0  0  0  0  0  0  0  0
   18.5133  -11.3044  -15.9714 C   0  0  2  0  0  0  0  0  0  0  0  0
   19.0291  -11.4594  -14.5772 C   0  0  0  0  0  0  0  0  0  0  0  0
   19.6141  -10.9082  -16.9311 C   0  0  2  0  0  0  0  0  0  0  0  0
   20.6810  -11.8814  -16.8579 N   0  0  0  0  0  0  0  0  0  0  0  0
   20.1409   -9.6007  -16.4759 C   0  0  0  0  0  0  0  0  0  0  0  0
   21.2103   -9.5069  -15.8122 O   0  0  0  0  0  0  0  0  0  0  0  0
   19.4365   -8.4488  -16.7897 O   0  0  0  0  0  0  0  0  0  0  0  0
  2  3  1  0
  2  1  1  1
  4  2  1  0
  4  5  1  1
  6  4  1  0
  6  8  1  0
  7  6  2  0
  9  8  1  0
  9 12  1  0
  9 10  1  6
 11 10  1  0
 12 19  1  0
 13 12  2  0
 15 14  1  0
 16 17  1  1
 16 15  1  0
 18 20  1  0
 18 16  1  0
 18 19  1  1
 20 22  1  0
 21 20  2  0
M  END
$$$$
