TCI.pdb
     RDKit          3D

 22 21  0  0  1  0  0  0  0  0999 V2000
   15.8261  -13.3678  -14.4092 C   0  0  0  0  0  0  0  0  0  0  0  0
   16.4908  -12.1925  -15.0732 C   0  0  1  0  0  0  0  0  0  0  0  0
   17.3491  -12.6305  -16.0731 O   0  0  0  0  0  0  0  0  0  0  0  0
   15.5116  -11.1600  -15.5644 C   0  0  2  0  0  0  0  0  0  0  0  0
   14.6251  -11.7290  -16.5269 N   0  0  0  0  0  0  0  0  0  0  0  0
   16.2753   -9.9966  -16.1099 C   0  0  0  0  0  0  0  0  0  0  0  0
   16.1402   -9.6120  -17.2987 O   0  0  0  0  0  0  0  0  0  0  0  0
   17.2045   -9.2587  -15.2991 N   0  0  0  0  0  0  0  0  0  0  0  0
   17.8526   -8.0579  -15.7773 C   0  0  1  0  0  0  0  0  0  0  0  0
   16.8334   -7.0532  -16.3061 C   0  0  0  0  0  0  0  0  0  0  0  0
   15.6101   -6.6298  -15.0561 S   0  0  0  0  0  0  0  0  0  0  0  0
   18.6835   -7.4120  -14.7459 C   0  0  0  0  0  0  0  0  0  0  0  0
   18.3715   -7.3121  -13.5363 O   0  0  0  0  0  0  0  0  0  0  0  0
   23.2651   -9.4098  -14.6104 C   0  0  0  0  0  0  0  0  0  0  0  0
   21.9649   -8.7068  -14.3107 C   0  0  0  0  0  0  0  0  0  0  0  0
   22.1946   -7.2198  -14.3961 C   0  0  2  0  0  0  0  0  0  0  0  0
   23.2664   -6.7989  -13.4434 C   0  0  0  0  0  0  0  0  0  0  0  0
   20.9186   -6.4357  -14.1800 C   0  0  2  0  0  0  0  0  0  0  0  0
   19.9307   -6.8603  -15.1466 N   0  0  0  0  0  0  0  0  0  0  0  0
   21.2346   -5.0100  -14.4287 C   0  0  0  0  0  0  0  0  0  0  0  0
   21.0240   -4.4655  -15.5477 O   0  0  0  0  0  0  0  0  0  0  0  0
   21.7771   -4.2549  -13.4006 O   0  0  0  0  0  0  0  0  0  0  0  0
  2  3  1  0
  2  1  1  6
  4  2  1  0
  4  5  1  6
  6  4  1  0
  6  8  1  0
  7  6  2  0
  9  8  1  0
  9 12  1  0
  9 10  1  1
 11 10  1  0
 12 19  1  0
 13 12  2  0
 15 14  1  0
 16 17  1  1
 16 15  1  0
 18 20  1  0
 18 16  1  0
 18 19  1  6
 20 22  1  0
 21 20  2  0
M  END
$$$$
