TCI.pdb
     RDKit          3D

 22 21  0  0  1  0  0  0  0  0999 V2000
   26.6061  -19.8649  -17.2169 C   0  0  0  0  0  0  0  0  0  0  0  0
   26.6778  -20.3678  -15.8006 C   0  0  1  0  0  0  0  0  0  0  0  0
   27.4995  -21.4851  -15.7307 O   0  0  0  0  0  0  0  0  0  0  0  0
   27.0697  -19.3005  -14.8140 C   0  0  2  0  0  0  0  0  0  0  0  0
   27.2653  -19.8644  -13.5180 N   0  0  0  0  0  0  0  0  0  0  0  0
   26.0219  -18.2345  -14.8199 C   0  0  0  0  0  0  0  0  0  0  0  0
   25.0059  -18.2977  -14.0829 O   0  0  0  0  0  0  0  0  0  0  0  0
   26.1253  -17.0814  -15.6715 N   0  0  0  0  0  0  0  0  0  0  0  0
   25.0977  -16.0651  -15.7124 C   0  0  1  0  0  0  0  0  0  0  0  0
   25.7048  -14.6695  -15.8214 C   0  0  0  0  0  0  0  0  0  0  0  0
   26.7804  -14.3039  -14.4258 S   0  0  0  0  0  0  0  0  0  0  0  0
   24.1420  -16.2681  -16.8156 C   0  0  0  0  0  0  0  0  0  0  0  0
   24.4544  -16.6292  -17.9742 O   0  0  0  0  0  0  0  0  0  0  0  0
   21.0356  -20.0054  -17.1082 C   0  0  0  0  0  0  0  0  0  0  0  0
   21.8448  -18.7865  -17.4740 C   0  0  0  0  0  0  0  0  0  0  0  0
   21.0105  -17.5604  -17.2057 C   0  0  2  0  0  0  0  0  0  0  0  0
   19.7019  -17.6492  -17.9222 C   0  0  0  0  0  0  0  0  0  0  0  0
   21.7487  -16.2855  -17.5512 C   0  0  2  0  0  0  0  0  0  0  0  0
   22.7641  -16.0390  -16.5518 N   0  0  0  0  0  0  0  0  0  0  0  0
   20.7623  -15.1817  -17.4988 C   0  0  0  0  0  0  0  0  0  0  0  0
   20.1530  -14.7821  -18.5293 O   0  0  0  0  0  0  0  0  0  0  0  0
   20.5033  -14.5721  -16.2811 O   0  0  0  0  0  0  0  0  0  0  0  0
  2  3  1  0
  2  1  1  6
  4  2  1  0
  4  5  1  1
  6  4  1  0
  6  8  1  0
  7  6  2  0
  9  8  1  0
  9 12  1  0
  9 10  1  6
 11 10  1  0
 12 19  1  0
 13 12  2  0
 15 14  1  0
 16 17  1  6
 16 15  1  0
 18 20  1  0
 18 16  1  0
 18 19  1  1
 20 22  1  0
 21 20  2  0
M  END
$$$$
