TCI.pdb
     RDKit          3D

 22 21  0  0  1  0  0  0  0  0999 V2000
   28.5757  -18.0834  -15.3255 C   0  0  0  0  0  0  0  0  0  0  0  0
   27.4836  -18.9390  -14.7430 C   0  0  1  0  0  0  0  0  0  0  0  0
   26.3228  -18.8101  -15.4942 O   0  0  0  0  0  0  0  0  0  0  0  0
   27.8942  -20.3753  -14.5569 C   0  0  2  0  0  0  0  0  0  0  0  0
   28.2374  -20.9641  -15.8105 N   0  0  0  0  0  0  0  0  0  0  0  0
   26.7862  -21.1050  -13.8683 C   0  0  0  0  0  0  0  0  0  0  0  0
   25.9958  -21.8556  -14.4938 O   0  0  0  0  0  0  0  0  0  0  0  0
   26.5699  -20.9835  -12.4527 N   0  0  0  0  0  0  0  0  0  0  0  0
   25.3204  -21.3655  -11.8334 C   0  0  1  0  0  0  0  0  0  0  0  0
   25.3986  -21.2497  -10.3141 C   0  0  0  0  0  0  0  0  0  0  0  0
   25.6386  -19.5447   -9.7909 S   0  0  0  0  0  0  0  0  0  0  0  0
   24.1783  -20.5741  -12.3242 C   0  0  0  0  0  0  0  0  0  0  0  0
   24.2021  -19.3386  -12.5327 O   0  0  0  0  0  0  0  0  0  0  0  0
   22.4995  -20.7058  -16.8222 C   0  0  0  0  0  0  0  0  0  0  0  0
   22.7523  -20.3459  -15.3796 C   0  0  0  0  0  0  0  0  0  0  0  0
   21.6138  -20.8774  -14.5476 C   0  0  2  0  0  0  0  0  0  0  0  0
   20.3057  -20.3716  -15.0641 C   0  0  0  0  0  0  0  0  0  0  0  0
   21.7907  -20.5634  -13.0780 C   0  0  2  0  0  0  0  0  0  0  0  0
   22.9584  -21.2567  -12.5814 N   0  0  0  0  0  0  0  0  0  0  0  0
   20.5989  -21.0888  -12.3724 C   0  0  0  0  0  0  0  0  0  0  0  0
   20.4668  -22.3161  -12.1089 O   0  0  0  0  0  0  0  0  0  0  0  0
   19.6016  -20.2044  -11.9920 O   0  0  0  0  0  0  0  0  0  0  0  0
  2  3  1  0
  2  1  1  6
  4  2  1  0
  4  5  1  6
  6  4  1  0
  6  8  1  0
  7  6  2  0
  9  8  1  0
  9 12  1  0
  9 10  1  1
 11 10  1  0
 12 19  1  0
 13 12  2  0
 15 14  1  0
 16 17  1  6
 16 15  1  0
 18 20  1  0
 18 16  1  0
 18 19  1  1
 20 22  1  0
 21 20  2  0
M  END
$$$$
