TCI.pdb
     RDKit          3D

 22 21  0  0  1  0  0  0  0  0999 V2000
   20.7299  -13.5616  -18.7065 C   0  0  0  0  0  0  0  0  0  0  0  0
   21.2061  -14.8600  -18.1138 C   0  0  1  0  0  0  0  0  0  0  0  0
   21.3369  -15.8203  -19.1083 O   0  0  0  0  0  0  0  0  0  0  0  0
   22.4563  -14.7094  -17.2889 C   0  0  2  0  0  0  0  0  0  0  0  0
   22.8667  -15.9723  -16.7670 N   0  0  0  0  0  0  0  0  0  0  0  0
   22.2022  -13.7031  -16.2131 C   0  0  0  0  0  0  0  0  0  0  0  0
   21.9894  -14.0433  -15.0222 O   0  0  0  0  0  0  0  0  0  0  0  0
   22.1886  -12.2927  -16.4891 N   0  0  0  0  0  0  0  0  0  0  0  0
   21.9842  -11.3107  -15.4478 C   0  0  1  0  0  0  0  0  0  0  0  0
   23.0861  -11.3840  -14.3950 C   0  0  0  0  0  0  0  0  0  0  0  0
   24.6974  -10.9917  -15.0937 S   0  0  0  0  0  0  0  0  0  0  0  0
   21.9021   -9.9359  -15.9721 C   0  0  0  0  0  0  0  0  0  0  0  0
   22.6008   -9.4860  -16.9100 O   0  0  0  0  0  0  0  0  0  0  0  0
   17.3629   -8.5298  -17.5823 C   0  0  0  0  0  0  0  0  0  0  0  0
   18.8605   -8.5663  -17.4077 C   0  0  0  0  0  0  0  0  0  0  0  0
   19.2333   -7.6372  -16.2812 C   0  0  2  0  0  0  0  0  0  0  0  0
   18.8451   -6.2318  -16.6098 C   0  0  0  0  0  0  0  0  0  0  0  0
   20.6999   -7.7401  -15.9231 C   0  0  2  0  0  0  0  0  0  0  0  0
   20.9637   -9.0514  -15.3740 N   0  0  0  0  0  0  0  0  0  0  0  0
   20.9649   -6.7304  -14.8722 C   0  0  0  0  0  0  0  0  0  0  0  0
   21.3688   -5.5676  -15.1510 O   0  0  0  0  0  0  0  0  0  0  0  0
   20.7623   -7.0758  -13.5451 O   0  0  0  0  0  0  0  0  0  0  0  0
  2  3  1  0
  2  1  1  6
  4  2  1  0
  4  5  1  1
  6  4  1  0
  6  8  1  0
  7  6  2  0
  9  8  1  0
  9 12  1  0
  9 10  1  1
 11 10  1  0
 12 19  1  0
 13 12  2  0
 15 14  1  0
 16 17  1  6
 16 15  1  0
 18 20  1  0
 18 16  1  0
 18 19  1  1
 20 22  1  0
 21 20  2  0
M  END
$$$$
