TCI.pdb
     RDKit          3D

 22 21  0  0  1  0  0  0  0  0999 V2000
   26.2754  -21.8802  -14.3319 C   0  0  0  0  0  0  0  0  0  0  0  0
   25.4846  -22.8069  -15.2149 C   0  0  1  0  0  0  0  0  0  0  0  0
   26.3357  -23.6923  -15.8630 O   0  0  0  0  0  0  0  0  0  0  0  0
   24.3687  -23.5074  -14.4868 C   0  0  2  0  0  0  0  0  0  0  0  0
   24.2480  -24.8566  -14.9349 N   0  0  0  0  0  0  0  0  0  0  0  0
   23.1078  -22.7277  -14.6786 C   0  0  0  0  0  0  0  0  0  0  0  0
   22.3623  -22.9051  -15.6747 O   0  0  0  0  0  0  0  0  0  0  0  0
   22.6851  -21.7338  -13.7305 N   0  0  0  0  0  0  0  0  0  0  0  0
   21.5769  -20.8442  -13.9965 C   0  0  1  0  0  0  0  0  0  0  0  0
   20.4825  -20.9947  -12.9440 C   0  0  0  0  0  0  0  0  0  0  0  0
   20.2004  -22.7216  -12.5236 S   0  0  0  0  0  0  0  0  0  0  0  0
   21.9886  -19.4313  -14.0724 C   0  0  0  0  0  0  0  0  0  0  0  0
   22.2439  -18.7072  -13.0820 O   0  0  0  0  0  0  0  0  0  0  0  0
   26.2375  -18.0959  -15.8555 C   0  0  0  0  0  0  0  0  0  0  0  0
   24.8920  -18.0860  -15.1743 C   0  0  0  0  0  0  0  0  0  0  0  0
   23.9020  -17.4016  -16.0813 C   0  0  2  0  0  0  0  0  0  0  0  0
   24.3274  -15.9956  -16.3566 C   0  0  0  0  0  0  0  0  0  0  0  0
   22.4940  -17.4590  -15.5299 C   0  0  2  0  0  0  0  0  0  0  0  0
   22.1064  -18.8417  -15.3605 N   0  0  0  0  0  0  0  0  0  0  0  0
   21.6034  -16.8435  -16.5409 C   0  0  0  0  0  0  0  0  0  0  0  0
   21.0793  -17.5202  -17.4685 O   0  0  0  0  0  0  0  0  0  0  0  0
   21.3400  -15.4848  -16.4631 O   0  0  0  0  0  0  0  0  0  0  0  0
  2  3  1  0
  2  1  1  1
  4  2  1  0
  4  5  1  6
  6  4  1  0
  6  8  1  0
  7  6  2  0
  9  8  1  0
  9 12  1  0
  9 10  1  1
 11 10  1  0
 12 19  1  0
 13 12  2  0
 15 14  1  0
 16 17  1  1
 16 15  1  0
 18 20  1  0
 18 16  1  0
 18 19  1  6
 20 22  1  0
 21 20  2  0
M  END
$$$$
