TCI.pdb
     RDKit          3D

 22 21  0  0  1  0  0  0  0  0999 V2000
   18.8323  -11.2569  -16.2545 C   0  0  0  0  0  0  0  0  0  0  0  0
   17.4570  -11.1964  -16.8618 C   0  0  1  0  0  0  0  0  0  0  0  0
   17.1559  -12.4003  -17.4850 O   0  0  0  0  0  0  0  0  0  0  0  0
   16.3963  -10.7730  -15.8811 C   0  0  2  0  0  0  0  0  0  0  0  0
   15.1086  -10.7970  -16.4952 N   0  0  0  0  0  0  0  0  0  0  0  0
   16.7488   -9.4217  -15.3479 C   0  0  0  0  0  0  0  0  0  0  0  0
   16.6458   -8.3836  -16.0486 O   0  0  0  0  0  0  0  0  0  0  0  0
   17.2244   -9.2431  -14.0035 N   0  0  0  0  0  0  0  0  0  0  0  0
   17.6738   -7.9588  -13.5146 C   0  0  1  0  0  0  0  0  0  0  0  0
   17.0821   -7.6522  -12.1420 C   0  0  0  0  0  0  0  0  0  0  0  0
   17.6754   -8.8034  -10.8925 S   0  0  0  0  0  0  0  0  0  0  0  0
   19.1424   -7.8600  -13.4451 C   0  0  0  0  0  0  0  0  0  0  0  0
   19.9157   -8.8284  -13.2590 O   0  0  0  0  0  0  0  0  0  0  0  0
   23.4993   -7.4601  -16.5300 C   0  0  0  0  0  0  0  0  0  0  0  0
   23.1120   -6.7976  -15.2317 C   0  0  0  0  0  0  0  0  0  0  0  0
   21.6207   -6.9252  -15.0560 C   0  0  2  0  0  0  0  0  0  0  0  0
   20.9006   -6.2548  -16.1811 C   0  0  0  0  0  0  0  0  0  0  0  0
   21.1614   -6.4034  -13.7119 C   0  0  2  0  0  0  0  0  0  0  0  0
   19.7301   -6.5750  -13.5998 N   0  0  0  0  0  0  0  0  0  0  0  0
   21.4632   -4.9535  -13.6798 C   0  0  0  0  0  0  0  0  0  0  0  0
   22.6308   -4.5195  -13.4760 O   0  0  0  0  0  0  0  0  0  0  0  0
   20.4312   -4.0499  -13.8798 O   0  0  0  0  0  0  0  0  0  0  0  0
  2  3  1  0
  2  1  1  1
  4  2  1  0
  4  5  1  6
  6  4  1  0
  6  8  1  0
  7  6  2  0
  9  8  1  0
  9 12  1  0
  9 10  1  1
 11 10  1  0
 12 19  1  0
 13 12  2  0
 15 14  1  0
 16 17  1  6
 16 15  1  0
 18 20  1  0
 18 16  1  0
 18 19  1  6
 20 22  1  0
 21 20  2  0
M  END
$$$$
