TCI.pdb
     RDKit          3D

 22 21  0  0  1  0  0  0  0  0999 V2000
   15.9127  -11.8422  -16.6371 C   0  0  0  0  0  0  0  0  0  0  0  0
   17.0561  -11.1919  -15.9066 C   0  0  1  0  0  0  0  0  0  0  0  0
   17.8571  -12.1592  -15.3142 O   0  0  0  0  0  0  0  0  0  0  0  0
   17.8421  -10.2398  -16.7679 C   0  0  2  0  0  0  0  0  0  0  0  0
   18.4786  -10.9400  -17.8358 N   0  0  0  0  0  0  0  0  0  0  0  0
   18.8180   -9.5071  -15.9046 C   0  0  0  0  0  0  0  0  0  0  0  0
   18.4533   -8.8622  -14.8895 O   0  0  0  0  0  0  0  0  0  0  0  0
   20.2257   -9.5041  -16.1943 N   0  0  0  0  0  0  0  0  0  0  0  0
   21.1827   -8.8423  -15.3359 C   0  0  1  0  0  0  0  0  0  0  0  0
   22.5754   -9.4455  -15.4929 C   0  0  0  0  0  0  0  0  0  0  0  0
   22.7452  -10.9733  -14.5572 S   0  0  0  0  0  0  0  0  0  0  0  0
   21.2511   -7.3899  -15.5755 C   0  0  0  0  0  0  0  0  0  0  0  0
   21.3211   -6.8549  -16.7065 O   0  0  0  0  0  0  0  0  0  0  0  0
   17.6716   -4.1618  -14.8954 C   0  0  0  0  0  0  0  0  0  0  0  0
   18.9935   -4.7381  -15.3369 C   0  0  0  0  0  0  0  0  0  0  0  0
   20.0193   -4.4538  -14.2700 C   0  0  2  0  0  0  0  0  0  0  0  0
   20.1536   -2.9816  -14.0503 C   0  0  0  0  0  0  0  0  0  0  0  0
   21.3544   -5.0939  -14.5822 C   0  0  2  0  0  0  0  0  0  0  0  0
   21.2369   -6.5285  -14.4449 N   0  0  0  0  0  0  0  0  0  0  0  0
   22.3205   -4.6043  -13.5716 C   0  0  0  0  0  0  0  0  0  0  0  0
   22.4469   -5.1601  -12.4455 O   0  0  0  0  0  0  0  0  0  0  0  0
   23.1069   -3.5038  -13.8747 O   0  0  0  0  0  0  0  0  0  0  0  0
  2  3  1  0
  2  1  1  6
  4  2  1  0
  4  5  1  6
  6  4  1  0
  6  8  1  0
  7  6  2  0
  9  8  1  0
  9 12  1  0
  9 10  1  6
 11 10  1  0
 12 19  1  0
 13 12  2  0
 15 14  1  0
 16 17  1  6
 16 15  1  0
 18 20  1  0
 18 16  1  0
 18 19  1  1
 20 22  1  0
 21 20  2  0
M  END
$$$$
