TCI.pdb
     RDKit          3D

 22 21  0  0  1  0  0  0  0  0999 V2000
   21.9139  -16.3689  -18.1184 C   0  0  0  0  0  0  0  0  0  0  0  0
   21.5453  -14.9140  -18.2259 C   0  0  1  0  0  0  0  0  0  0  0  0
   22.4423  -14.2534  -19.0550 O   0  0  0  0  0  0  0  0  0  0  0  0
   20.1131  -14.6963  -18.6351 C   0  0  2  0  0  0  0  0  0  0  0  0
   19.8312  -13.3021  -18.7476 N   0  0  0  0  0  0  0  0  0  0  0  0
   19.2234  -15.3802  -17.6477 C   0  0  0  0  0  0  0  0  0  0  0  0
   19.0572  -14.9356  -16.4841 O   0  0  0  0  0  0  0  0  0  0  0  0
   18.5123  -16.5836  -17.9818 N   0  0  0  0  0  0  0  0  0  0  0  0
   17.7014  -17.2877  -17.0137 C   0  0  1  0  0  0  0  0  0  0  0  0
   16.2381  -17.3285  -17.4438 C   0  0  0  0  0  0  0  0  0  0  0  0
   15.5218  -15.6791  -17.5143 S   0  0  0  0  0  0  0  0  0  0  0  0
   18.1753  -18.6612  -16.7677 C   0  0  0  0  0  0  0  0  0  0  0  0
   18.3854  -19.5151  -17.6604 O   0  0  0  0  0  0  0  0  0  0  0  0
   22.3674  -19.4357  -13.8349 C   0  0  0  0  0  0  0  0  0  0  0  0
   21.2371  -19.5407  -14.8278 C   0  0  0  0  0  0  0  0  0  0  0  0
   20.0855  -20.2542  -14.1675 C   0  0  2  0  0  0  0  0  0  0  0  0
   20.5202  -21.5888  -13.6539 C   0  0  0  0  0  0  0  0  0  0  0  0
   18.8903  -20.3745  -15.0877 C   0  0  2  0  0  0  0  0  0  0  0  0
   18.4131  -19.0511  -15.4217 N   0  0  0  0  0  0  0  0  0  0  0  0
   17.8277  -21.0792  -14.3338 C   0  0  0  0  0  0  0  0  0  0  0  0
   17.0440  -20.4676  -13.5561 O   0  0  0  0  0  0  0  0  0  0  0  0
   17.6927  -22.4500  -14.4892 O   0  0  0  0  0  0  0  0  0  0  0  0
  2  3  1  0
  2  1  1  6
  4  2  1  0
  4  5  1  1
  6  4  1  0
  6  8  1  0
  7  6  2  0
  9  8  1  0
  9 12  1  0
  9 10  1  6
 11 10  1  0
 12 19  1  0
 13 12  2  0
 15 14  1  0
 16 17  1  6
 16 15  1  0
 18 20  1  0
 18 16  1  0
 18 19  1  1
 20 22  1  0
 21 20  2  0
M  END
$$$$
