TCI.pdb
     RDKit          3D

 22 21  0  0  1  0  0  0  0  0999 V2000
   17.6673  -10.2528  -17.2567 C   0  0  0  0  0  0  0  0  0  0  0  0
   17.9823  -11.6749  -16.8797 C   0  0  1  0  0  0  0  0  0  0  0  0
   17.1721  -12.5493  -17.5920 O   0  0  0  0  0  0  0  0  0  0  0  0
   19.4445  -12.0096  -17.0068 C   0  0  2  0  0  0  0  0  0  0  0  0
   19.6603  -13.4023  -16.7837 N   0  0  0  0  0  0  0  0  0  0  0  0
   20.2164  -11.1532  -16.0555 C   0  0  0  0  0  0  0  0  0  0  0  0
   20.1490  -11.3154  -14.8110 O   0  0  0  0  0  0  0  0  0  0  0  0
   21.0762  -10.0989  -16.5188 N   0  0  0  0  0  0  0  0  0  0  0  0
   21.8309   -9.2694  -15.6061 C   0  0  1  0  0  0  0  0  0  0  0  0
   23.3291   -9.5270  -15.7354 C   0  0  0  0  0  0  0  0  0  0  0  0
   23.9009   -9.2792  -17.4237 S   0  0  0  0  0  0  0  0  0  0  0  0
   21.5657   -7.8320  -15.7938 C   0  0  0  0  0  0  0  0  0  0  0  0
   21.0878   -7.3236  -16.8348 O   0  0  0  0  0  0  0  0  0  0  0  0
   18.4247   -3.5509  -15.0428 C   0  0  0  0  0  0  0  0  0  0  0  0
   19.9098   -3.7483  -14.8692 C   0  0  0  0  0  0  0  0  0  0  0  0
   20.1899   -5.2271  -14.7934 C   0  0  2  0  0  0  0  0  0  0  0  0
   19.5350   -5.8242  -13.5899 C   0  0  0  0  0  0  0  0  0  0  0  0
   21.6730   -5.5256  -14.8254 C   0  0  2  0  0  0  0  0  0  0  0  0
   21.8724   -6.9537  -14.7191 N   0  0  0  0  0  0  0  0  0  0  0  0
   22.2745   -4.8790  -13.6362 C   0  0  0  0  0  0  0  0  0  0  0  0
   22.5225   -3.6419  -13.6033 O   0  0  0  0  0  0  0  0  0  0  0  0
   22.5726   -5.6581  -12.5290 O   0  0  0  0  0  0  0  0  0  0  0  0
  2  3  1  0
  2  1  1  6
  4  2  1  0
  4  5  1  1
  6  4  1  0
  6  8  1  0
  7  6  2  0
  9  8  1  0
  9 12  1  0
  9 10  1  6
 11 10  1  0
 12 19  1  0
 13 12  2  0
 15 14  1  0
 16 17  1  1
 16 15  1  0
 18 20  1  0
 18 16  1  0
 18 19  1  1
 20 22  1  0
 21 20  2  0
M  END
$$$$
