TCI.pdb
     RDKit          3D

 22 21  0  0  1  0  0  0  0  0999 V2000
   17.7884  -11.3340  -20.1559 C   0  0  0  0  0  0  0  0  0  0  0  0
   18.3498  -10.7515  -18.8872 C   0  0  1  0  0  0  0  0  0  0  0  0
   17.4259   -9.8935  -18.3051 O   0  0  0  0  0  0  0  0  0  0  0  0
   18.8504  -11.7978  -17.9277 C   0  0  2  0  0  0  0  0  0  0  0  0
   17.7752  -12.6227  -17.4811 N   0  0  0  0  0  0  0  0  0  0  0  0
   19.5528  -11.1154  -16.7984 C   0  0  0  0  0  0  0  0  0  0  0  0
   18.9801  -10.8811  -15.7045 O   0  0  0  0  0  0  0  0  0  0  0  0
   20.9219  -10.6924  -16.9086 N   0  0  0  0  0  0  0  0  0  0  0  0
   21.6005  -10.0064  -15.8318 C   0  0  1  0  0  0  0  0  0  0  0  0
   22.9199  -10.6899  -15.4858 C   0  0  0  0  0  0  0  0  0  0  0  0
   23.8035   -9.8077  -14.1899 S   0  0  0  0  0  0  0  0  0  0  0  0
   21.8520   -8.5859  -16.1330 C   0  0  0  0  0  0  0  0  0  0  0  0
   22.2527   -8.1498  -17.2373 O   0  0  0  0  0  0  0  0  0  0  0  0
   19.5695   -3.6056  -16.8333 C   0  0  0  0  0  0  0  0  0  0  0  0
   20.8001   -4.1151  -16.1258 C   0  0  0  0  0  0  0  0  0  0  0  0
   20.5944   -5.5715  -15.7976 C   0  0  2  0  0  0  0  0  0  0  0  0
   19.4724   -5.7366  -14.8242 C   0  0  0  0  0  0  0  0  0  0  0  0
   21.8646   -6.2252  -15.2988 C   0  0  2  0  0  0  0  0  0  0  0  0
   21.6253   -7.6371  -15.0991 N   0  0  0  0  0  0  0  0  0  0  0  0
   22.1844   -5.6145  -13.9877 C   0  0  0  0  0  0  0  0  0  0  0  0
   22.6891   -4.4613  -13.8942 O   0  0  0  0  0  0  0  0  0  0  0  0
   21.9206   -6.3328  -12.8319 O   0  0  0  0  0  0  0  0  0  0  0  0
  2  3  1  0
  2  1  1  6
  4  2  1  0
  4  5  1  1
  6  4  1  0
  6  8  1  0
  7  6  2  0
  9  8  1  0
  9 12  1  0
  9 10  1  6
 11 10  1  0
 12 19  1  0
 13 12  2  0
 15 14  1  0
 16 17  1  1
 16 15  1  0
 18 20  1  0
 18 16  1  0
 18 19  1  1
 20 22  1  0
 21 20  2  0
M  END
$$$$
