ISM.pdb
     RDKit          3D

 23 22  0  0  1  0  0  0  0  0999 V2000
   15.9059  -11.2956  -19.8148 C   0  0  0  0  0  0  0  0  0  0  0  0
   17.2466  -11.6735  -19.1846 C   0  0  0  0  0  0  0  0  0  0  0  0
   17.7527  -10.5117  -18.3882 C   0  0  2  0  0  0  0  0  0  0  0  0
   17.7236   -9.2188  -19.1623 C   0  0  0  0  0  0  0  0  0  0  0  0
   19.0707  -10.7620  -17.6883 C   0  0  2  0  0  0  0  0  0  0  0  0
   18.9097  -12.0075  -16.9687 N   0  0  0  0  0  0  0  0  0  0  0  0
   19.3675   -9.6275  -16.8154 C   0  0  0  0  0  0  0  0  0  0  0  0
   18.4961   -9.1700  -16.0362 O   0  0  0  0  0  0  0  0  0  0  0  0
   22.9419   -7.7154  -17.2217 O   0  0  0  0  0  0  0  0  0  0  0  0
   22.4200   -7.6046  -15.9245 C   0  0  0  0  0  0  0  0  0  0  0  0
   20.9166   -7.7708  -16.0507 C   0  0  2  0  0  0  0  0  0  0  0  0
   20.6381   -8.9609  -16.7749 N   0  0  0  0  0  0  0  0  0  0  0  0
   20.3841   -6.5394  -16.6811 C   0  0  0  0  0  0  0  0  0  0  0  0
   19.8857   -6.6874  -17.8271 O   0  0  0  0  0  0  0  0  0  0  0  0
   15.1297   -3.0649  -16.3959 C   0  0  0  0  0  0  0  0  0  0  0  0
   15.9281   -3.5170  -17.9794 S   0  0  0  0  0  0  0  0  0  0  0  0
   17.7203   -3.1555  -17.7465 C   0  0  0  0  0  0  0  0  0  0  0  0
   18.3863   -4.3515  -17.1464 C   0  0  0  0  0  0  0  0  0  0  0  0
   19.8022   -4.1114  -16.7710 C   0  0  2  0  0  0  0  0  0  0  0  0
   20.3996   -5.2700  -16.1053 N   0  0  0  0  0  0  0  0  0  0  0  0
   20.0462   -2.8764  -15.9807 C   0  0  0  0  0  0  0  0  0  0  0  0
   20.0074   -2.7863  -14.7447 O   0  0  0  0  0  0  0  0  0  0  0  0
   20.3517   -1.6718  -16.6531 O   0  0  0  0  0  0  0  0  0  0  0  0
  2  1  1  0
  3  4  1  6
  3  2  1  0
  5  6  1  1
  5  3  1  0
  7  5  1  0
  8  7  2  0
  9 10  1  0
 11 10  1  6
 11 12  1  0
 12  7  1  0
 13 11  1  0
 13 20  1  0
 14 13  2  0
 15 16  1  0
 17 16  1  0
 18 17  1  0
 19 20  1  0
 19 18  1  1
 19 21  1  0
 21 23  1  0
 22 21  2  0
M  END
$$$$
