ISM.pdb
     RDKit          3D

 23 22  0  0  1  0  0  0  0  0999 V2000
   14.7382  -13.2148  -11.1195 C   0  0  0  0  0  0  0  0  0  0  0  0
   14.4440  -12.2346   -9.9837 C   0  0  0  0  0  0  0  0  0  0  0  0
   14.8031  -10.8521  -10.4309 C   0  0  2  0  0  0  0  0  0  0  0  0
   16.1981  -10.7671  -10.9954 C   0  0  0  0  0  0  0  0  0  0  0  0
   14.4993   -9.7700   -9.4177 C   0  0  2  0  0  0  0  0  0  0  0  0
   13.1031   -9.9295   -9.0708 N   0  0  0  0  0  0  0  0  0  0  0  0
   14.7999   -8.4677  -10.0097 C   0  0  0  0  0  0  0  0  0  0  0  0
   14.0913   -8.0029  -10.9358 O   0  0  0  0  0  0  0  0  0  0  0  0
   16.2444   -5.5613   -8.0083 O   0  0  0  0  0  0  0  0  0  0  0  0
   15.7891   -5.2609   -9.3005 C   0  0  0  0  0  0  0  0  0  0  0  0
   16.2524   -6.3969  -10.1942 C   0  0  2  0  0  0  0  0  0  0  0  0
   15.8944   -7.6354   -9.5974 N   0  0  0  0  0  0  0  0  0  0  0  0
   17.7090   -6.2274  -10.4104 C   0  0  0  0  0  0  0  0  0  0  0  0
   18.4514   -6.7197   -9.5216 O   0  0  0  0  0  0  0  0  0  0  0  0
   20.2956   -9.5652  -14.8897 C   0  0  0  0  0  0  0  0  0  0  0  0
   21.1804   -9.4485  -13.2919 S   0  0  0  0  0  0  0  0  0  0  0  0
   21.1500   -7.6612  -12.8432 C   0  0  0  0  0  0  0  0  0  0  0  0
   19.8308   -7.3358  -12.2205 C   0  0  0  0  0  0  0  0  0  0  0  0
   19.6484   -5.8880  -11.9484 C   0  0  2  0  0  0  0  0  0  0  0  0
   18.2902   -5.5789  -11.4990 N   0  0  0  0  0  0  0  0  0  0  0  0
   20.0469   -4.9811  -13.0567 C   0  0  0  0  0  0  0  0  0  0  0  0
   21.1874   -4.5383  -13.2575 O   0  0  0  0  0  0  0  0  0  0  0  0
   19.0740   -4.5567  -13.9893 O   0  0  0  0  0  0  0  0  0  0  0  0
  2  1  1  0
  3  4  1  1
  3  2  1  0
  5  6  1  6
  5  3  1  0
  7  5  1  0
  8  7  2  0
  9 10  1  0
 11 10  1  1
 11 12  1  0
 12  7  1  0
 13 11  1  0
 13 20  1  0
 14 13  2  0
 15 16  1  0
 17 16  1  0
 18 17  1  0
 19 20  1  0
 19 18  1  6
 19 21  1  0
 21 23  1  0
 22 21  2  0
M  END
$$$$
