ISM.pdb
     RDKit          3D

 23 22  0  0  1  0  0  0  0  0999 V2000
   20.8488  -28.3588  -11.6385 C   0  0  0  0  0  0  0  0  0  0  0  0
   20.1302  -27.2406  -10.8831 C   0  0  0  0  0  0  0  0  0  0  0  0
   19.7498  -26.1665  -11.8535 C   0  0  2  0  0  0  0  0  0  0  0  0
   20.8884  -25.7692  -12.7576 C   0  0  0  0  0  0  0  0  0  0  0  0
   19.0395  -24.9850  -11.2295 C   0  0  2  0  0  0  0  0  0  0  0  0
   17.9423  -25.5382  -10.4645 N   0  0  0  0  0  0  0  0  0  0  0  0
   18.6021  -24.0797  -12.2906 C   0  0  0  0  0  0  0  0  0  0  0  0
   17.8279  -24.4759  -13.1959 O   0  0  0  0  0  0  0  0  0  0  0  0
   20.4706  -20.6131  -12.5772 O   0  0  0  0  0  0  0  0  0  0  0  0
   19.1929  -20.4357  -13.1281 C   0  0  0  0  0  0  0  0  0  0  0  0
   18.6659  -21.8231  -13.4463 C   0  0  2  0  0  0  0  0  0  0  0  0
   19.0062  -22.7057  -12.3863 N   0  0  0  0  0  0  0  0  0  0  0  0
   19.2184  -22.2176  -14.7640 C   0  0  0  0  0  0  0  0  0  0  0  0
   20.3979  -22.6557  -14.7497 O   0  0  0  0  0  0  0  0  0  0  0  0
   18.7746  -26.3333  -21.1479 C   0  0  0  0  0  0  0  0  0  0  0  0
   18.1173  -25.8878  -19.4990 S   0  0  0  0  0  0  0  0  0  0  0  0
   19.0247  -24.3616  -19.0048 C   0  0  0  0  0  0  0  0  0  0  0  0
   18.4886  -23.8761  -17.6968 C   0  0  0  0  0  0  0  0  0  0  0  0
   19.1262  -22.6201  -17.2281 C   0  0  2  0  0  0  0  0  0  0  0  0
   18.5378  -22.1371  -15.9780 N   0  0  0  0  0  0  0  0  0  0  0  0
   19.1810  -21.5257  -18.2324 C   0  0  0  0  0  0  0  0  0  0  0  0
   18.4809  -20.5024  -18.2294 O   0  0  0  0  0  0  0  0  0  0  0  0
   20.0953  -21.6149  -19.3060 O   0  0  0  0  0  0  0  0  0  0  0  0
  2  1  1  0
  3  4  1  1
  3  2  1  0
  5  6  1  6
  5  3  1  0
  7  5  1  0
  8  7  2  0
  9 10  1  0
 11 10  1  1
 11 12  1  0
 12  7  1  0
 13 11  1  0
 13 20  1  0
 14 13  2  0
 15 16  1  0
 17 16  1  0
 18 17  1  0
 19 20  1  0
 19 18  1  6
 19 21  1  0
 21 23  1  0
 22 21  2  0
M  END
$$$$
