ISM.pdb
     RDKit          3D

 23 22  0  0  1  0  0  0  0  0999 V2000
   13.8998  -12.5471  -15.3965 C   0  0  0  0  0  0  0  0  0  0  0  0
   15.2502  -11.9123  -15.7295 C   0  0  0  0  0  0  0  0  0  0  0  0
   15.7455  -11.1681  -14.5292 C   0  0  2  0  0  0  0  0  0  0  0  0
   14.6868  -10.2921  -13.9099 C   0  0  0  0  0  0  0  0  0  0  0  0
   17.0655  -10.4577  -14.7363 C   0  0  2  0  0  0  0  0  0  0  0  0
   18.0034  -11.4753  -15.1606 N   0  0  0  0  0  0  0  0  0  0  0  0
   17.4530   -9.8028  -13.4882 C   0  0  0  0  0  0  0  0  0  0  0  0
   17.5963  -10.4651  -12.4315 O   0  0  0  0  0  0  0  0  0  0  0  0
   17.9839   -5.7510  -13.4350 O   0  0  0  0  0  0  0  0  0  0  0  0
   18.6991   -6.4276  -12.4360 C   0  0  0  0  0  0  0  0  0  0  0  0
   17.9303   -7.7040  -12.1469 C   0  0  2  0  0  0  0  0  0  0  0  0
   17.6950   -8.3931  -13.3667 N   0  0  0  0  0  0  0  0  0  0  0  0
   16.6967   -7.3249  -11.4176 C   0  0  0  0  0  0  0  0  0  0  0  0
   15.6549   -7.2416  -12.1184 O   0  0  0  0  0  0  0  0  0  0  0  0
   13.3156   -9.6611   -7.3904 C   0  0  0  0  0  0  0  0  0  0  0  0
   12.2484   -8.1827   -7.5474 S   0  0  0  0  0  0  0  0  0  0  0  0
   13.3604   -6.8343   -8.1325 C   0  0  0  0  0  0  0  0  0  0  0  0
   14.5650   -7.4396   -8.7777 C   0  0  0  0  0  0  0  0  0  0  0  0
   15.4382   -6.4434   -9.4475 C   0  0  2  0  0  0  0  0  0  0  0  0
   16.6191   -7.0632  -10.0505 N   0  0  0  0  0  0  0  0  0  0  0  0
   15.8337   -5.2828   -8.6072 C   0  0  0  0  0  0  0  0  0  0  0  0
   16.9446   -5.1108   -8.0841 O   0  0  0  0  0  0  0  0  0  0  0  0
   14.8938   -4.2592   -8.3518 O   0  0  0  0  0  0  0  0  0  0  0  0
  2  1  1  0
  3  4  1  6
  3  2  1  0
  5  6  1  1
  5  3  1  0
  7  5  1  0
  8  7  2  0
  9 10  1  0
 11 10  1  6
 11 12  1  0
 12  7  1  0
 13 11  1  0
 13 20  1  0
 14 13  2  0
 15 16  1  0
 17 16  1  0
 18 17  1  0
 19 20  1  0
 19 18  1  1
 19 21  1  0
 21 23  1  0
 22 21  2  0
M  END
$$$$
