ISM.pdb
     RDKit          3D

 23 22  0  0  1  0  0  0  0  0999 V2000
   14.0606  -13.8417  -11.1116 C   0  0  0  0  0  0  0  0  0  0  0  0
   14.4240  -12.6732  -12.0281 C   0  0  0  0  0  0  0  0  0  0  0  0
   14.6008  -11.4414  -11.1965 C   0  0  2  0  0  0  0  0  0  0  0  0
   13.4624  -11.2210  -10.2336 C   0  0  0  0  0  0  0  0  0  0  0  0
   14.9669  -10.2032  -11.9856 C   0  0  2  0  0  0  0  0  0  0  0  0
   15.9700  -10.6218  -12.9414 N   0  0  0  0  0  0  0  0  0  0  0  0
   15.4455   -9.1761  -11.0620 C   0  0  0  0  0  0  0  0  0  0  0  0
   14.7818   -8.8682  -10.0420 O   0  0  0  0  0  0  0  0  0  0  0  0
   18.5118   -5.4882  -10.3920 O   0  0  0  0  0  0  0  0  0  0  0  0
   18.1091   -6.5367  -11.2320 C   0  0  0  0  0  0  0  0  0  0  0  0
   17.0939   -7.3490  -10.4486 C   0  0  2  0  0  0  0  0  0  0  0  0
   16.6745   -8.4550  -11.2354 N   0  0  0  0  0  0  0  0  0  0  0  0
   15.9963   -6.4324  -10.0583 C   0  0  0  0  0  0  0  0  0  0  0  0
   15.0933   -6.2682  -10.9191 O   0  0  0  0  0  0  0  0  0  0  0  0
   10.7709   -3.4778   -5.2497 C   0  0  0  0  0  0  0  0  0  0  0  0
   12.0547   -4.7468   -5.5512 S   0  0  0  0  0  0  0  0  0  0  0  0
   12.9861   -4.1614   -7.0298 C   0  0  0  0  0  0  0  0  0  0  0  0
   14.0455   -5.1602   -7.3673 C   0  0  0  0  0  0  0  0  0  0  0  0
   14.8391   -4.7952   -8.5675 C   0  0  2  0  0  0  0  0  0  0  0  0
   15.9033   -5.7626   -8.8392 N   0  0  0  0  0  0  0  0  0  0  0  0
   15.3829   -3.4118   -8.5693 C   0  0  0  0  0  0  0  0  0  0  0  0
   16.5821   -3.1034   -8.5057 O   0  0  0  0  0  0  0  0  0  0  0  0
   14.4930   -2.3170   -8.6473 O   0  0  0  0  0  0  0  0  0  0  0  0
  2  1  1  0
  3  4  1  6
  3  2  1  0
  5  6  1  6
  5  3  1  0
  7  5  1  0
  8  7  2  0
  9 10  1  0
 11 10  1  6
 11 12  1  0
 12  7  1  0
 13 11  1  0
 13 20  1  0
 14 13  2  0
 15 16  1  0
 17 16  1  0
 18 17  1  0
 19 20  1  0
 19 18  1  1
 19 21  1  0
 21 23  1  0
 22 21  2  0
M  END
$$$$
