ISM.pdb
     RDKit          3D

 23 22  0  0  1  0  0  0  0  0999 V2000
   12.6528  -11.6791  -12.7945 C   0  0  0  0  0  0  0  0  0  0  0  0
   13.0734  -11.6226  -11.3257 C   0  0  0  0  0  0  0  0  0  0  0  0
   13.0385  -10.1988  -10.8656 C   0  0  2  0  0  0  0  0  0  0  0  0
   13.7244   -9.2603  -11.8250 C   0  0  0  0  0  0  0  0  0  0  0  0
   13.4595   -9.9978   -9.4261 C   0  0  2  0  0  0  0  0  0  0  0  0
   12.5458  -10.7887   -8.6294 N   0  0  0  0  0  0  0  0  0  0  0  0
   13.4097   -8.5710   -9.1119 C   0  0  0  0  0  0  0  0  0  0  0  0
   12.3361   -7.9279   -9.2088 O   0  0  0  0  0  0  0  0  0  0  0  0
   15.1395   -4.6855   -7.0116 O   0  0  0  0  0  0  0  0  0  0  0  0
   15.2341   -6.0753   -7.1752 C   0  0  0  0  0  0  0  0  0  0  0  0
   14.5658   -6.3985   -8.4991 C   0  0  2  0  0  0  0  0  0  0  0  0
   14.5458   -7.8074   -8.6798 N   0  0  0  0  0  0  0  0  0  0  0  0
   15.2967   -5.6623   -9.5579 C   0  0  0  0  0  0  0  0  0  0  0  0
   16.1392   -6.3361  -10.2058 O   0  0  0  0  0  0  0  0  0  0  0  0
   16.4602   -3.8050  -16.3778 C   0  0  0  0  0  0  0  0  0  0  0  0
   15.6831   -4.7027  -14.9852 S   0  0  0  0  0  0  0  0  0  0  0  0
   16.1683   -3.7729  -13.4697 C   0  0  0  0  0  0  0  0  0  0  0  0
   15.5489   -4.4255  -12.2763 C   0  0  0  0  0  0  0  0  0  0  0  0
   15.7917   -3.6903  -11.0099 C   0  0  2  0  0  0  0  0  0  0  0  0
   15.1169   -4.3160   -9.8717 N   0  0  0  0  0  0  0  0  0  0  0  0
   15.4904   -2.2354  -11.0556 C   0  0  0  0  0  0  0  0  0  0  0  0
   14.5324   -1.6751  -10.5030 O   0  0  0  0  0  0  0  0  0  0  0  0
   16.3420   -1.3734  -11.7824 O   0  0  0  0  0  0  0  0  0  0  0  0
  2  1  1  0
  3  4  1  6
  3  2  1  0
  5  6  1  1
  5  3  1  0
  7  5  1  0
  8  7  2  0
  9 10  1  0
 11 10  1  1
 11 12  1  0
 12  7  1  0
 13 11  1  0
 13 20  1  0
 14 13  2  0
 15 16  1  0
 17 16  1  0
 18 17  1  0
 19 20  1  0
 19 18  1  6
 19 21  1  0
 21 23  1  0
 22 21  2  0
M  END
$$$$
