ISM.pdb
     RDKit          3D

 23 22  0  0  1  0  0  0  0  0999 V2000
   18.1379  -15.0492  -19.3348 C   0  0  0  0  0  0  0  0  0  0  0  0
   19.5003  -15.2495  -18.6706 C   0  0  0  0  0  0  0  0  0  0  0  0
   19.8132  -14.0486  -17.8339 C   0  0  2  0  0  0  0  0  0  0  0  0
   19.5568  -12.7519  -18.5583 C   0  0  0  0  0  0  0  0  0  0  0  0
   21.1633  -14.0977  -17.1523 C   0  0  2  0  0  0  0  0  0  0  0  0
   21.2254  -15.3796  -16.4829 N   0  0  0  0  0  0  0  0  0  0  0  0
   21.2739  -12.9642  -16.2359 C   0  0  0  0  0  0  0  0  0  0  0  0
   20.4036  -12.7625  -15.3541 O   0  0  0  0  0  0  0  0  0  0  0  0
   24.4476  -11.3299  -14.3553 O   0  0  0  0  0  0  0  0  0  0  0  0
   23.8966  -10.4571  -15.3050 C   0  0  0  0  0  0  0  0  0  0  0  0
   22.4384  -10.8508  -15.4552 C   0  0  2  0  0  0  0  0  0  0  0  0
   22.3508  -12.0155  -16.2640 N   0  0  0  0  0  0  0  0  0  0  0  0
   21.7148   -9.6781  -16.0016 C   0  0  0  0  0  0  0  0  0  0  0  0
   21.7917   -9.5244  -17.2482 O   0  0  0  0  0  0  0  0  0  0  0  0
   15.3533   -5.5597  -16.8289 C   0  0  0  0  0  0  0  0  0  0  0  0
   16.2228   -6.8619  -15.8815 S   0  0  0  0  0  0  0  0  0  0  0  0
   18.0075   -6.6613  -16.2953 C   0  0  0  0  0  0  0  0  0  0  0  0
   18.7822   -7.7776  -15.6728 C   0  0  0  0  0  0  0  0  0  0  0  0
   20.2487   -7.6594  -15.8703 C   0  0  2  0  0  0  0  0  0  0  0  0
   20.9791   -8.7647  -15.2481 N   0  0  0  0  0  0  0  0  0  0  0  0
   20.8381   -6.3559  -15.4666 C   0  0  0  0  0  0  0  0  0  0  0  0
   21.5610   -6.1614  -14.4783 O   0  0  0  0  0  0  0  0  0  0  0  0
   20.5788   -5.2064  -16.2463 O   0  0  0  0  0  0  0  0  0  0  0  0
  2  1  1  0
  3  4  1  6
  3  2  1  0
  5  6  1  1
  5  3  1  0
  7  5  1  0
  8  7  2  0
  9 10  1  0
 11 10  1  6
 11 12  1  0
 12  7  1  0
 13 11  1  0
 13 20  1  0
 14 13  2  0
 15 16  1  0
 17 16  1  0
 18 17  1  0
 19 20  1  0
 19 18  1  1
 19 21  1  0
 21 23  1  0
 22 21  2  0
M  END
$$$$
