ISM.pdb
     RDKit          3D

 23 22  0  0  1  0  0  0  0  0999 V2000
   28.1738  -21.6898  -10.1923 C   0  0  0  0  0  0  0  0  0  0  0  0
   27.6767  -20.2471  -10.2867 C   0  0  0  0  0  0  0  0  0  0  0  0
   26.4025  -20.2236  -11.0714 C   0  0  2  0  0  0  0  0  0  0  0  0
   25.2419  -20.8167  -10.3144 C   0  0  0  0  0  0  0  0  0  0  0  0
   26.5297  -20.7517  -12.4837 C   0  0  2  0  0  0  0  0  0  0  0  0
   27.7713  -20.2154  -12.9994 N   0  0  0  0  0  0  0  0  0  0  0  0
   25.3592  -20.3345  -13.2536 C   0  0  0  0  0  0  0  0  0  0  0  0
   24.8756  -19.1842  -13.1170 O   0  0  0  0  0  0  0  0  0  0  0  0
   22.6889  -21.0259  -17.1626 O   0  0  0  0  0  0  0  0  0  0  0  0
   23.5457  -21.6610  -16.2517 C   0  0  0  0  0  0  0  0  0  0  0  0
   23.5923  -20.7778  -15.0182 C   0  0  2  0  0  0  0  0  0  0  0  0
   24.6839  -21.1758  -14.2007 N   0  0  0  0  0  0  0  0  0  0  0  0
   22.2711  -20.8727  -14.3528 C   0  0  0  0  0  0  0  0  0  0  0  0
   22.1988  -21.6945  -13.4026 O   0  0  0  0  0  0  0  0  0  0  0  0
   17.2584  -16.4004  -13.8475 C   0  0  0  0  0  0  0  0  0  0  0  0
   17.6036  -17.2638  -12.2712 S   0  0  0  0  0  0  0  0  0  0  0  0
   18.1109  -18.9706  -12.7472 C   0  0  0  0  0  0  0  0  0  0  0  0
   19.3844  -18.9026  -13.5266 C   0  0  0  0  0  0  0  0  0  0  0  0
   19.8902  -20.2335  -13.9467 C   0  0  2  0  0  0  0  0  0  0  0  0
   21.1408  -20.1345  -14.7007 N   0  0  0  0  0  0  0  0  0  0  0  0
   18.9106  -21.0810  -14.6759 C   0  0  0  0  0  0  0  0  0  0  0  0
   18.0762  -21.8364  -14.1562 O   0  0  0  0  0  0  0  0  0  0  0  0
   18.8911  -21.0591  -16.0886 O   0  0  0  0  0  0  0  0  0  0  0  0
  2  1  1  0
  3  4  1  1
  3  2  1  0
  5  6  1  6
  5  3  1  0
  7  5  1  0
  8  7  2  0
  9 10  1  0
 11 10  1  6
 11 12  1  0
 12  7  1  0
 13 11  1  0
 13 20  1  0
 14 13  2  0
 15 16  1  0
 17 16  1  0
 18 17  1  0
 19 20  1  0
 19 18  1  6
 19 21  1  0
 21 23  1  0
 22 21  2  0
M  END
$$$$
