ISM.pdb
     RDKit          3D

 23 22  0  0  1  0  0  0  0  0999 V2000
   22.6096  -31.9406   -8.9582 C   0  0  0  0  0  0  0  0  0  0  0  0
   24.1331  -32.0179   -9.0600 C   0  0  0  0  0  0  0  0  0  0  0  0
   24.6460  -32.9208   -7.9822 C   0  0  2  0  0  0  0  0  0  0  0  0
   24.0296  -32.6305   -6.6377 C   0  0  0  0  0  0  0  0  0  0  0  0
   26.1535  -33.0442   -7.9365 C   0  0  2  0  0  0  0  0  0  0  0  0
   26.5637  -33.4152   -9.2742 N   0  0  0  0  0  0  0  0  0  0  0  0
   26.5181  -34.0367   -6.9270 C   0  0  0  0  0  0  0  0  0  0  0  0
   25.9666  -35.1641   -6.9045 O   0  0  0  0  0  0  0  0  0  0  0  0
   29.2966  -33.1058   -4.0470 O   0  0  0  0  0  0  0  0  0  0  0  0
   29.2803  -34.4543   -4.4326 C   0  0  0  0  0  0  0  0  0  0  0  0
   27.8673  -34.7500   -4.9015 C   0  0  2  0  0  0  0  0  0  0  0  0
   27.5050  -33.8155   -5.9083 N   0  0  0  0  0  0  0  0  0  0  0  0
   26.9883  -34.7261   -3.7082 C   0  0  0  0  0  0  0  0  0  0  0  0
   26.4392  -33.6215   -3.4597 O   0  0  0  0  0  0  0  0  0  0  0  0
   21.5260  -38.8085   -2.0901 C   0  0  0  0  0  0  0  0  0  0  0  0
   23.1651  -38.7000   -1.2833 S   0  0  0  0  0  0  0  0  0  0  0  0
   23.8961  -37.1124   -1.8682 C   0  0  0  0  0  0  0  0  0  0  0  0
   25.2679  -36.9648   -1.2935 C   0  0  0  0  0  0  0  0  0  0  0  0
   25.9264  -35.6860   -1.6605 C   0  0  2  0  0  0  0  0  0  0  0  0
   26.7391  -35.8127   -2.8712 N   0  0  0  0  0  0  0  0  0  0  0  0
   26.7115  -35.0443   -0.5737 C   0  0  0  0  0  0  0  0  0  0  0  0
   27.9229  -34.7828   -0.6107 O   0  0  0  0  0  0  0  0  0  0  0  0
   26.0640  -34.6830    0.6291 O   0  0  0  0  0  0  0  0  0  0  0  0
  2  1  1  0
  3  4  1  1
  3  2  1  0
  5  6  1  6
  5  3  1  0
  7  5  1  0
  8  7  2  0
  9 10  1  0
 11 10  1  1
 11 12  1  0
 12  7  1  0
 13 11  1  0
 13 20  1  0
 14 13  2  0
 15 16  1  0
 17 16  1  0
 18 17  1  0
 19 20  1  0
 19 18  1  1
 19 21  1  0
 21 23  1  0
 22 21  2  0
M  END
$$$$
