ISM.pdb
     RDKit          3D

 23 22  0  0  1  0  0  0  0  0999 V2000
   16.2152  -14.8974  -16.4991 C   0  0  0  0  0  0  0  0  0  0  0  0
   17.3548  -13.8930  -16.6719 C   0  0  0  0  0  0  0  0  0  0  0  0
   17.0928  -12.7070  -15.7974 C   0  0  2  0  0  0  0  0  0  0  0  0
   15.6884  -12.1783  -15.9393 C   0  0  0  0  0  0  0  0  0  0  0  0
   18.1505  -11.6278  -15.8763 C   0  0  2  0  0  0  0  0  0  0  0  0
   19.4163  -12.2931  -15.6521 N   0  0  0  0  0  0  0  0  0  0  0  0
   17.8559  -10.6006  -14.8787 C   0  0  0  0  0  0  0  0  0  0  0  0
   17.7225  -10.9000  -13.6670 O   0  0  0  0  0  0  0  0  0  0  0  0
   18.0700   -6.7180  -15.9226 O   0  0  0  0  0  0  0  0  0  0  0  0
   18.1763   -6.9505  -14.5436 C   0  0  0  0  0  0  0  0  0  0  0  0
   17.3561   -8.1942  -14.2531 C   0  0  2  0  0  0  0  0  0  0  0  0
   17.6988   -9.2077  -15.1878 N   0  0  0  0  0  0  0  0  0  0  0  0
   15.9270   -7.8016  -14.2821 C   0  0  0  0  0  0  0  0  0  0  0  0
   15.3698   -7.8608  -15.4088 O   0  0  0  0  0  0  0  0  0  0  0  0
    8.9058   -7.1320  -10.9600 C   0  0  0  0  0  0  0  0  0  0  0  0
   10.6105   -7.7834  -10.8215 S   0  0  0  0  0  0  0  0  0  0  0  0
   11.5223   -7.0828  -12.2619 C   0  0  0  0  0  0  0  0  0  0  0  0
   12.9467   -7.5317  -12.2041 C   0  0  0  0  0  0  0  0  0  0  0  0
   13.7845   -6.9767  -13.2966 C   0  0  2  0  0  0  0  0  0  0  0  0
   15.1852   -7.3845  -13.1780 N   0  0  0  0  0  0  0  0  0  0  0  0
   13.6869   -5.5053  -13.4833 C   0  0  0  0  0  0  0  0  0  0  0  0
   14.4451   -4.6590  -12.9872 O   0  0  0  0  0  0  0  0  0  0  0  0
   12.6533   -4.9754  -14.2880 O   0  0  0  0  0  0  0  0  0  0  0  0
  2  1  1  0
  3  4  1  6
  3  2  1  0
  5  6  1  1
  5  3  1  0
  7  5  1  0
  8  7  2  0
  9 10  1  0
 11 10  1  6
 11 12  1  0
 12  7  1  0
 13 11  1  0
 13 20  1  0
 14 13  2  0
 15 16  1  0
 17 16  1  0
 18 17  1  0
 19 20  1  0
 19 18  1  1
 19 21  1  0
 21 23  1  0
 22 21  2  0
M  END
$$$$
