AFG.pdb
     RDKit          3D

 21 21  0  0  1  0  0  0  0  0999 V2000
    7.0144  -14.8234   19.7883 C   0  0  0  0  0  0  0  0  0  0  0  0
    7.3356  -13.5867   20.6269 C   0  0  2  0  0  0  0  0  0  0  0  0
    8.1149  -12.7054   19.8133 N   0  0  0  0  0  0  0  0  0  0  0  0
    8.0925  -14.0534   21.8341 C   0  0  0  0  0  0  0  0  0  0  0  0
    9.3453  -13.9432   21.8131 O   0  0  0  0  0  0  0  0  0  0  0  0
    7.4860  -14.5975   22.9670 N   0  0  0  0  0  0  0  0  0  0  0  0
    8.2525  -14.9189   24.1749 C   0  0  1  0  0  0  0  0  0  0  0  0
    7.3707  -14.8887   25.3778 C   0  0  0  0  0  0  0  0  0  0  0  0
    6.9572  -13.5807   25.8567 C   0  0  0  0  0  0  0  0  0  0  0  0
    5.6244  -13.1885   25.9671 C   0  0  0  0  0  0  0  0  0  0  0  0
    5.2387  -11.9515   26.4337 C   0  0  0  0  0  0  0  0  0  0  0  0
    6.2003  -11.0521   26.8115 C   0  0  0  0  0  0  0  0  0  0  0  0
    7.5125  -11.4162   26.7115 C   0  0  0  0  0  0  0  0  0  0  0  0
    7.9107  -12.6610   26.2423 C   0  0  0  0  0  0  0  0  0  0  0  0
    8.8844  -16.2426   24.0583 C   0  0  0  0  0  0  0  0  0  0  0  0
    8.2110  -17.3004   23.9896 O   0  0  0  0  0  0  0  0  0  0  0  0
   10.3091  -16.4128   24.0152 N   0  0  0  0  0  0  0  0  0  0  0  0
   10.8880  -17.7422   24.0275 C   0  0  0  0  0  0  0  0  0  0  0  0
   12.3401  -17.7168   23.7856 C   0  0  0  0  0  0  0  0  0  0  0  0
   13.0809  -16.9319   24.4273 O   0  0  0  0  0  0  0  0  0  0  0  0
   12.8591  -18.5914   22.8233 O   0  0  0  0  0  0  0  0  0  0  0  0
  2  1  1  6
  3  2  1  0
  4  5  2  0
  4  2  1  0
  6  4  1  0
  7  6  1  0
  7 15  1  0
  7  8  1  1
  9  8  1  0
 10  9  2  0
 11 10  1  0
 12 11  2  0
 12 13  1  0
 13 14  2  0
 14  9  1  0
 15 17  1  0
 16 15  2  0
 17 18  1  0
 19 21  1  0
 19 18  1  0
 20 19  2  0
M  END
$$$$
