AFG.pdb
     RDKit          3D

 21 21  0  0  1  0  0  0  0  0999 V2000
    9.7498  -18.6922   21.2261 C   0  0  0  0  0  0  0  0  0  0  0  0
    9.1258  -17.4364   20.6182 C   0  0  2  0  0  0  0  0  0  0  0  0
    9.8813  -17.1021   19.4507 N   0  0  0  0  0  0  0  0  0  0  0  0
    9.1934  -16.3590   21.6588 C   0  0  0  0  0  0  0  0  0  0  0  0
   10.2007  -15.6058   21.6509 O   0  0  0  0  0  0  0  0  0  0  0  0
    8.2078  -16.1508   22.6245 N   0  0  0  0  0  0  0  0  0  0  0  0
    8.2896  -15.0477   23.5869 C   0  0  1  0  0  0  0  0  0  0  0  0
    6.9314  -14.6896   24.0894 C   0  0  0  0  0  0  0  0  0  0  0  0
    6.8606  -13.6708   25.1230 C   0  0  0  0  0  0  0  0  0  0  0  0
    6.9904  -12.3068   24.8681 C   0  0  0  0  0  0  0  0  0  0  0  0
    6.9098  -11.3452   25.8507 C   0  0  0  0  0  0  0  0  0  0  0  0
    6.6918  -11.7328   27.1464 C   0  0  0  0  0  0  0  0  0  0  0  0
    6.5616  -13.0646   27.4180 C   0  0  0  0  0  0  0  0  0  0  0  0
    6.6414  -14.0411   26.4339 C   0  0  0  0  0  0  0  0  0  0  0  0
    9.1580  -15.4037   24.7201 C   0  0  0  0  0  0  0  0  0  0  0  0
    9.6202  -14.5388   25.5048 O   0  0  0  0  0  0  0  0  0  0  0  0
    9.5340  -16.7596   25.0037 N   0  0  0  0  0  0  0  0  0  0  0  0
   10.3983  -17.0594   26.1287 C   0  0  0  0  0  0  0  0  0  0  0  0
   11.7695  -17.3859   25.7029 C   0  0  0  0  0  0  0  0  0  0  0  0
   12.3520  -16.6888   24.8361 O   0  0  0  0  0  0  0  0  0  0  0  0
   12.3933  -18.4910   26.2944 O   0  0  0  0  0  0  0  0  0  0  0  0
  2  1  1  1
  3  2  1  0
  4  5  2  0
  4  2  1  0
  6  4  1  0
  7  6  1  0
  7 15  1  0
  7  8  1  1
  9  8  1  0
 10  9  2  0
 11 10  1  0
 12 11  2  0
 12 13  1  0
 13 14  2  0
 14  9  1  0
 15 17  1  0
 16 15  2  0
 17 18  1  0
 19 21  1  0
 19 18  1  0
 20 19  2  0
M  END
$$$$
