AFG.pdb
     RDKit          3D

 21 21  0  0  1  0  0  0  0  0999 V2000
    7.1247  -15.6605   20.1640 C   0  0  0  0  0  0  0  0  0  0  0  0
    7.0870  -14.2793   20.8172 C   0  0  2  0  0  0  0  0  0  0  0  0
    7.5058  -13.3271   19.8355 N   0  0  0  0  0  0  0  0  0  0  0  0
    8.0160  -14.3192   21.9935 C   0  0  0  0  0  0  0  0  0  0  0  0
    9.1611  -13.8201   21.8468 O   0  0  0  0  0  0  0  0  0  0  0  0
    7.6797  -14.8751   23.2285 N   0  0  0  0  0  0  0  0  0  0  0  0
    8.5633  -14.7620   24.3931 C   0  0  1  0  0  0  0  0  0  0  0  0
    7.7672  -14.7473   25.6547 C   0  0  0  0  0  0  0  0  0  0  0  0
    7.2572  -13.4600   26.0948 C   0  0  0  0  0  0  0  0  0  0  0  0
    5.9345  -13.2477   26.4791 C   0  0  0  0  0  0  0  0  0  0  0  0
    5.4603  -12.0277   26.9074 C   0  0  0  0  0  0  0  0  0  0  0  0
    6.3184  -10.9615   26.9639 C   0  0  0  0  0  0  0  0  0  0  0  0
    7.6190  -11.1477   26.5918 C   0  0  0  0  0  0  0  0  0  0  0  0
    8.1059  -12.3740   26.1588 C   0  0  0  0  0  0  0  0  0  0  0  0
    9.5274  -15.8729   24.4298 C   0  0  0  0  0  0  0  0  0  0  0  0
   10.3586  -16.0054   25.3619 O   0  0  0  0  0  0  0  0  0  0  0  0
    9.5822  -16.8769   23.4053 N   0  0  0  0  0  0  0  0  0  0  0  0
   10.4227  -18.0467   23.5712 C   0  0  0  0  0  0  0  0  0  0  0  0
   11.7981  -17.8125   23.1011 C   0  0  0  0  0  0  0  0  0  0  0  0
   12.1513  -16.6759   22.7008 O   0  0  0  0  0  0  0  0  0  0  0  0
   12.6886  -18.8928   23.1168 O   0  0  0  0  0  0  0  0  0  0  0  0
  2  1  1  6
  3  2  1  0
  4  5  2  0
  4  2  1  0
  6  4  1  0
  7  6  1  0
  7 15  1  0
  7  8  1  1
  9  8  1  0
 10  9  2  0
 11 10  1  0
 12 11  2  0
 12 13  1  0
 13 14  2  0
 14  9  1  0
 15 17  1  0
 16 15  2  0
 17 18  1  0
 19 21  1  0
 19 18  1  0
 20 19  2  0
M  END
$$$$
