AFG.pdb
     RDKit          3D

 21 21  0  0  1  0  0  0  0  0999 V2000
    8.4400  -18.3346   20.4327 C   0  0  0  0  0  0  0  0  0  0  0  0
    8.8557  -16.8732   20.2672 C   0  0  2  0  0  0  0  0  0  0  0  0
   10.1311  -16.8590   19.6200 N   0  0  0  0  0  0  0  0  0  0  0  0
    8.9148  -16.2705   21.6388 C   0  0  0  0  0  0  0  0  0  0  0  0
    9.9980  -16.3688   22.2705 O   0  0  0  0  0  0  0  0  0  0  0  0
    7.8426  -15.6136   22.2440 N   0  0  0  0  0  0  0  0  0  0  0  0
    7.9862  -14.9208   23.5283 C   0  0  1  0  0  0  0  0  0  0  0  0
    6.9848  -13.8212   23.6446 C   0  0  0  0  0  0  0  0  0  0  0  0
    6.9480  -13.0965   24.9034 C   0  0  0  0  0  0  0  0  0  0  0  0
    7.8868  -12.1310   25.2623 C   0  0  0  0  0  0  0  0  0  0  0  0
    7.8391  -11.4385   26.4518 C   0  0  0  0  0  0  0  0  0  0  0  0
    6.8256  -11.7003   27.3353 C   0  0  0  0  0  0  0  0  0  0  0  0
    5.8949  -12.6427   27.0032 C   0  0  0  0  0  0  0  0  0  0  0  0
    5.9350  -13.3457   25.8063 C   0  0  0  0  0  0  0  0  0  0  0  0
    7.8238  -15.8582   24.6507 C   0  0  0  0  0  0  0  0  0  0  0  0
    6.7660  -16.5118   24.8273 O   0  0  0  0  0  0  0  0  0  0  0  0
    8.8608  -16.0876   25.6164 N   0  0  0  0  0  0  0  0  0  0  0  0
    8.7475  -17.1765   26.5672 C   0  0  0  0  0  0  0  0  0  0  0  0
    9.9228  -17.2668   27.4494 C   0  0  0  0  0  0  0  0  0  0  0  0
   11.0837  -17.2094   26.9744 O   0  0  0  0  0  0  0  0  0  0  0  0
    9.7003  -17.4176   28.8234 O   0  0  0  0  0  0  0  0  0  0  0  0
  2  1  1  1
  3  2  1  0
  4  5  2  0
  4  2  1  0
  6  4  1  0
  7  6  1  0
  7 15  1  0
  7  8  1  1
  9  8  1  0
 10  9  2  0
 11 10  1  0
 12 11  2  0
 12 13  1  0
 13 14  2  0
 14  9  1  0
 15 17  1  0
 16 15  2  0
 17 18  1  0
 19 21  1  0
 19 18  1  0
 20 19  2  0
M  END
$$$$
