AFG.pdb
     RDKit          3D

 21 21  0  0  1  0  0  0  0  0999 V2000
    9.6542  -20.0176   19.5119 C   0  0  0  0  0  0  0  0  0  0  0  0
    9.0291  -18.6702   19.1519 C   0  0  2  0  0  0  0  0  0  0  0  0
    9.1321  -18.5128   17.7340 N   0  0  0  0  0  0  0  0  0  0  0  0
    9.7945  -17.6141   19.8915 C   0  0  0  0  0  0  0  0  0  0  0  0
   10.6988  -17.0051   19.2643 O   0  0  0  0  0  0  0  0  0  0  0  0
    9.5583  -17.2757   21.2246 N   0  0  0  0  0  0  0  0  0  0  0  0
   10.2713  -16.1750   21.8804 C   0  0  1  0  0  0  0  0  0  0  0  0
    9.3095  -15.2614   22.5628 C   0  0  0  0  0  0  0  0  0  0  0  0
    8.4211  -14.4881   21.7119 C   0  0  0  0  0  0  0  0  0  0  0  0
    8.8080  -13.3208   21.0562 C   0  0  0  0  0  0  0  0  0  0  0  0
    7.9646  -12.5992   20.2409 C   0  0  0  0  0  0  0  0  0  0  0  0
    6.6801  -13.0375   20.0556 C   0  0  0  0  0  0  0  0  0  0  0  0
    6.2805  -14.1794   20.6889 C   0  0  0  0  0  0  0  0  0  0  0  0
    7.1238  -14.9134   21.5126 C   0  0  0  0  0  0  0  0  0  0  0  0
   11.2436  -16.6888   22.8579 C   0  0  0  0  0  0  0  0  0  0  0  0
   12.0427  -15.9338   23.4652 O   0  0  0  0  0  0  0  0  0  0  0  0
   11.3437  -18.0836   23.1819 N   0  0  0  0  0  0  0  0  0  0  0  0
   12.3122  -18.5402   24.1597 C   0  0  0  0  0  0  0  0  0  0  0  0
   11.7826  -18.4845   25.5324 C   0  0  0  0  0  0  0  0  0  0  0  0
   12.4662  -18.9049   26.4981 O   0  0  0  0  0  0  0  0  0  0  0  0
   10.5017  -17.9509   25.7192 O   0  0  0  0  0  0  0  0  0  0  0  0
  2  1  1  6
  3  2  1  0
  4  5  2  0
  4  2  1  0
  6  4  1  0
  7  6  1  0
  7 15  1  0
  7  8  1  1
  9  8  1  0
 10  9  2  0
 11 10  1  0
 12 11  2  0
 12 13  1  0
 13 14  2  0
 14  9  1  0
 15 17  1  0
 16 15  2  0
 17 18  1  0
 19 21  1  0
 19 18  1  0
 20 19  2  0
M  END
$$$$
