AFG.pdb
     RDKit          3D

 21 21  0  0  1  0  0  0  0  0999 V2000
    9.5267  -18.7746   21.2253 C   0  0  0  0  0  0  0  0  0  0  0  0
    8.6265  -17.6752   20.6626 C   0  0  2  0  0  0  0  0  0  0  0  0
    9.0868  -17.3757   19.3419 N   0  0  0  0  0  0  0  0  0  0  0  0
    8.7422  -16.4943   21.5793 C   0  0  0  0  0  0  0  0  0  0  0  0
    9.5453  -15.5826   21.2539 O   0  0  0  0  0  0  0  0  0  0  0  0
    8.0134  -16.3559   22.7612 N   0  0  0  0  0  0  0  0  0  0  0  0
    8.1889  -15.2002   23.6465 C   0  0  1  0  0  0  0  0  0  0  0  0
    6.9471  -14.9514   24.4348 C   0  0  0  0  0  0  0  0  0  0  0  0
    6.9685  -13.8297   25.3580 C   0  0  0  0  0  0  0  0  0  0  0  0
    6.7846  -13.9622   26.7332 C   0  0  0  0  0  0  0  0  0  0  0  0
    6.8187  -12.8963   27.6045 C   0  0  0  0  0  0  0  0  0  0  0  0
    7.0431  -11.6385   27.1106 C   0  0  0  0  0  0  0  0  0  0  0  0
    7.2259  -11.4863   25.7660 C   0  0  0  0  0  0  0  0  0  0  0  0
    7.1934  -12.5551   24.8800 C   0  0  0  0  0  0  0  0  0  0  0  0
    9.3221  -15.4081   24.5616 C   0  0  0  0  0  0  0  0  0  0  0  0
    9.7651  -14.4900   25.2954 O   0  0  0  0  0  0  0  0  0  0  0  0
    9.9954  -16.6706   24.6767 N   0  0  0  0  0  0  0  0  0  0  0  0
   11.0778  -16.8389   25.6267 C   0  0  0  0  0  0  0  0  0  0  0  0
   10.6379  -17.5250   26.8528 C   0  0  0  0  0  0  0  0  0  0  0  0
   11.4585  -17.7915   27.7650 O   0  0  0  0  0  0  0  0  0  0  0  0
    9.2844  -17.8660   26.9628 O   0  0  0  0  0  0  0  0  0  0  0  0
  2  1  1  1
  3  2  1  0
  4  5  2  0
  4  2  1  0
  6  4  1  0
  7  6  1  0
  7 15  1  0
  7  8  1  1
  9  8  1  0
 10  9  2  0
 11 10  1  0
 12 11  2  0
 12 13  1  0
 13 14  2  0
 14  9  1  0
 15 17  1  0
 16 15  2  0
 17 18  1  0
 19 21  1  0
 19 18  1  0
 20 19  2  0
M  END
$$$$
