AFG.pdb
     RDKit          3D

 21 21  0  0  1  0  0  0  0  0999 V2000
    8.3264  -21.4214   21.8193 C   0  0  0  0  0  0  0  0  0  0  0  0
    7.5106  -20.7295   20.7278 C   0  0  2  0  0  0  0  0  0  0  0  0
    7.7579  -21.4221   19.5010 N   0  0  0  0  0  0  0  0  0  0  0  0
    7.9673  -19.3026   20.6695 C   0  0  0  0  0  0  0  0  0  0  0  0
    8.9049  -19.0244   19.8785 O   0  0  0  0  0  0  0  0  0  0  0  0
    7.4125  -18.2788   21.4385 N   0  0  0  0  0  0  0  0  0  0  0  0
    7.8985  -16.8981   21.3532 C   0  0  1  0  0  0  0  0  0  0  0  0
    6.7977  -15.9364   21.6517 C   0  0  0  0  0  0  0  0  0  0  0  0
    7.1054  -14.5229   21.5163 C   0  0  0  0  0  0  0  0  0  0  0  0
    7.2259  -13.8766   20.2874 C   0  0  0  0  0  0  0  0  0  0  0  0
    7.5054  -12.5335   20.1661 C   0  0  0  0  0  0  0  0  0  0  0  0
    7.6758  -11.7831   21.2994 C   0  0  0  0  0  0  0  0  0  0  0  0
    7.5619  -12.3967   22.5139 C   0  0  0  0  0  0  0  0  0  0  0  0
    7.2803  -13.7501   22.6459 C   0  0  0  0  0  0  0  0  0  0  0  0
    9.0149  -16.6766   22.2856 C   0  0  0  0  0  0  0  0  0  0  0  0
    8.9524  -17.0123   23.4942 O   0  0  0  0  0  0  0  0  0  0  0  0
   10.2470  -16.0636   21.8772 N   0  0  0  0  0  0  0  0  0  0  0  0
   11.2871  -15.7921   22.8503 C   0  0  0  0  0  0  0  0  0  0  0  0
   12.5331  -16.5154   22.5465 C   0  0  0  0  0  0  0  0  0  0  0  0
   13.5990  -16.2312   23.1464 O   0  0  0  0  0  0  0  0  0  0  0  0
   12.4859  -17.5214   21.5739 O   0  0  0  0  0  0  0  0  0  0  0  0
  2  1  1  1
  3  2  1  0
  4  5  2  0
  4  2  1  0
  6  4  1  0
  7  6  1  0
  7 15  1  0
  7  8  1  1
  9  8  1  0
 10  9  2  0
 11 10  1  0
 12 11  2  0
 12 13  1  0
 13 14  2  0
 14  9  1  0
 15 17  1  0
 16 15  2  0
 17 18  1  0
 19 21  1  0
 19 18  1  0
 20 19  2  0
M  END
$$$$
