AFG.pdb
     RDKit          3D

 21 21  0  0  1  0  0  0  0  0999 V2000
    7.5127  -17.2049   20.8729 C   0  0  0  0  0  0  0  0  0  0  0  0
    7.0732  -15.7801   21.2085 C   0  0  2  0  0  0  0  0  0  0  0  0
    7.2128  -14.9954   20.0208 N   0  0  0  0  0  0  0  0  0  0  0  0
    7.9611  -15.2904   22.3130 C   0  0  0  0  0  0  0  0  0  0  0  0
    8.9399  -14.5674   21.9946 O   0  0  0  0  0  0  0  0  0  0  0  0
    7.7602  -15.5917   23.6607 N   0  0  0  0  0  0  0  0  0  0  0  0
    8.6220  -15.0426   24.7122 C   0  0  1  0  0  0  0  0  0  0  0  0
    7.8431  -14.8219   25.9652 C   0  0  0  0  0  0  0  0  0  0  0  0
    7.3778  -13.4693   26.2201 C   0  0  0  0  0  0  0  0  0  0  0  0
    8.1704  -12.3370   26.0407 C   0  0  0  0  0  0  0  0  0  0  0  0
    7.7192  -11.0566   26.2721 C   0  0  0  0  0  0  0  0  0  0  0  0
    6.4312  -10.8707   26.6997 C   0  0  0  0  0  0  0  0  0  0  0  0
    5.6374  -11.9668   26.8818 C   0  0  0  0  0  0  0  0  0  0  0  0
    6.0836  -13.2614   26.6510 C   0  0  0  0  0  0  0  0  0  0  0  0
    9.7539  -15.9421   24.9855 C   0  0  0  0  0  0  0  0  0  0  0  0
   10.6974  -15.6158   25.7475 O   0  0  0  0  0  0  0  0  0  0  0  0
    9.8551  -17.2492   24.4010 N   0  0  0  0  0  0  0  0  0  0  0  0
   10.9427  -18.1340   24.7707 C   0  0  0  0  0  0  0  0  0  0  0  0
   10.7354  -18.7443   26.0945 C   0  0  0  0  0  0  0  0  0  0  0  0
   11.5913  -19.5251   26.5788 O   0  0  0  0  0  0  0  0  0  0  0  0
    9.5607  -18.4251   26.7862 O   0  0  0  0  0  0  0  0  0  0  0  0
  2  1  1  6
  3  2  1  0
  4  5  2  0
  4  2  1  0
  6  4  1  0
  7  6  1  0
  7 15  1  0
  7  8  1  1
  9  8  1  0
 10  9  2  0
 11 10  1  0
 12 11  2  0
 12 13  1  0
 13 14  2  0
 14  9  1  0
 15 17  1  0
 16 15  2  0
 17 18  1  0
 19 21  1  0
 19 18  1  0
 20 19  2  0
M  END
$$$$
