AFG.pdb
     RDKit          3D

 21 21  0  0  1  0  0  0  0  0999 V2000
    7.5033  -20.5771   23.9458 C   0  0  0  0  0  0  0  0  0  0  0  0
    6.1967  -19.8029   24.1169 C   0  0  2  0  0  0  0  0  0  0  0  0
    5.3331  -20.1720   23.0381 N   0  0  0  0  0  0  0  0  0  0  0  0
    6.5388  -18.3433   24.0886 C   0  0  0  0  0  0  0  0  0  0  0  0
    6.5895  -17.7800   22.9651 O   0  0  0  0  0  0  0  0  0  0  0  0
    6.8009  -17.5861   25.2311 N   0  0  0  0  0  0  0  0  0  0  0  0
    7.1512  -16.1645   25.1524 C   0  0  1  0  0  0  0  0  0  0  0  0
    6.7786  -15.4630   26.4151 C   0  0  0  0  0  0  0  0  0  0  0  0
    7.0018  -14.0279   26.4600 C   0  0  0  0  0  0  0  0  0  0  0  0
    8.2299  -13.4505   26.7773 C   0  0  0  0  0  0  0  0  0  0  0  0
    8.4381  -12.0894   26.8058 C   0  0  0  0  0  0  0  0  0  0  0  0
    7.3972  -11.2495   26.5102 C   0  0  0  0  0  0  0  0  0  0  0  0
    6.1852  -11.7946   26.1964 C   0  0  0  0  0  0  0  0  0  0  0  0
    5.9660  -13.1655   26.1651 C   0  0  0  0  0  0  0  0  0  0  0  0
    8.5900  -15.9924   24.8971 C   0  0  0  0  0  0  0  0  0  0  0  0
    9.4655  -16.4694   25.6608 O   0  0  0  0  0  0  0  0  0  0  0  0
    9.0878  -15.2696   23.7612 N   0  0  0  0  0  0  0  0  0  0  0  0
   10.5028  -14.9758   23.6435 C   0  0  0  0  0  0  0  0  0  0  0  0
   11.2411  -16.0615   22.9772 C   0  0  0  0  0  0  0  0  0  0  0  0
   10.6799  -17.1572   22.7297 O   0  0  0  0  0  0  0  0  0  0  0  0
   12.5783  -15.8293   22.6332 O   0  0  0  0  0  0  0  0  0  0  0  0
  2  1  1  6
  3  2  1  0
  4  5  2  0
  4  2  1  0
  6  4  1  0
  7  6  1  0
  7 15  1  0
  7  8  1  1
  9  8  1  0
 10  9  2  0
 11 10  1  0
 12 11  2  0
 12 13  1  0
 13 14  2  0
 14  9  1  0
 15 17  1  0
 16 15  2  0
 17 18  1  0
 19 21  1  0
 19 18  1  0
 20 19  2  0
M  END
$$$$
