AFG.pdb
     RDKit          3D

 21 21  0  0  1  0  0  0  0  0999 V2000
    6.9951  -14.1009   20.5209 C   0  0  0  0  0  0  0  0  0  0  0  0
    7.6190  -15.3784   21.0816 C   0  0  2  0  0  0  0  0  0  0  0  0
    6.5533  -16.2889   21.3665 N   0  0  0  0  0  0  0  0  0  0  0  0
    8.3773  -14.9966   22.3175 C   0  0  0  0  0  0  0  0  0  0  0  0
    9.3519  -14.2131   22.1825 O   0  0  0  0  0  0  0  0  0  0  0  0
    8.0614  -15.4603   23.5952 N   0  0  0  0  0  0  0  0  0  0  0  0
    8.7324  -14.9441   24.7924 C   0  0  1  0  0  0  0  0  0  0  0  0
    7.7490  -14.7354   25.8946 C   0  0  0  0  0  0  0  0  0  0  0  0
    7.3826  -13.3624   26.1972 C   0  0  0  0  0  0  0  0  0  0  0  0
    8.2957  -12.3097   26.2173 C   0  0  0  0  0  0  0  0  0  0  0  0
    7.9397  -11.0080   26.4925 C   0  0  0  0  0  0  0  0  0  0  0  0
    6.6282  -10.7183   26.7615 C   0  0  0  0  0  0  0  0  0  0  0  0
    5.7170  -11.7351   26.7469 C   0  0  0  0  0  0  0  0  0  0  0  0
    6.0667  -13.0503   26.4704 C   0  0  0  0  0  0  0  0  0  0  0  0
    9.7886  -15.8655   25.2400 C   0  0  0  0  0  0  0  0  0  0  0  0
   10.6469  -15.5331   26.0944 O   0  0  0  0  0  0  0  0  0  0  0  0
    9.9082  -17.2024   24.7313 N   0  0  0  0  0  0  0  0  0  0  0  0
   10.9521  -18.0814   25.2217 C   0  0  0  0  0  0  0  0  0  0  0  0
   10.9767  -19.3670   24.5045 C   0  0  0  0  0  0  0  0  0  0  0  0
   10.2273  -19.5613   23.5159 O   0  0  0  0  0  0  0  0  0  0  0  0
   11.8576  -20.3549   24.9610 O   0  0  0  0  0  0  0  0  0  0  0  0
  2  1  1  1
  3  2  1  0
  4  5  2  0
  4  2  1  0
  6  4  1  0
  7  6  1  0
  7 15  1  0
  7  8  1  1
  9  8  1  0
 10  9  2  0
 11 10  1  0
 12 11  2  0
 12 13  1  0
 13 14  2  0
 14  9  1  0
 15 17  1  0
 16 15  2  0
 17 18  1  0
 19 21  1  0
 19 18  1  0
 20 19  2  0
M  END
$$$$
