AFG.pdb
     RDKit          3D

 21 21  0  0  1  0  0  0  0  0999 V2000
    7.4691  -13.8272   18.8813 C   0  0  0  0  0  0  0  0  0  0  0  0
    8.0787  -14.9083   19.7733 C   0  0  2  0  0  0  0  0  0  0  0  0
    7.1016  -15.9416   19.9263 N   0  0  0  0  0  0  0  0  0  0  0  0
    8.4227  -14.2621   21.0818 C   0  0  0  0  0  0  0  0  0  0  0  0
    8.2964  -13.0134   21.1642 O   0  0  0  0  0  0  0  0  0  0  0  0
    8.8706  -14.9663   22.2002 N   0  0  0  0  0  0  0  0  0  0  0  0
    8.7268  -14.4323   23.5582 C   0  0  1  0  0  0  0  0  0  0  0  0
    7.3187  -14.0072   23.8070 C   0  0  0  0  0  0  0  0  0  0  0  0
    7.0701  -13.2279   25.0078 C   0  0  0  0  0  0  0  0  0  0  0  0
    6.2260  -13.6464   26.0349 C   0  0  0  0  0  0  0  0  0  0  0  0
    6.0044  -12.9085   27.1764 C   0  0  0  0  0  0  0  0  0  0  0  0
    6.6371  -11.7026   27.3240 C   0  0  0  0  0  0  0  0  0  0  0  0
    7.4686  -11.2737   26.3294 C   0  0  0  0  0  0  0  0  0  0  0  0
    7.6982  -12.0108   25.1752 C   0  0  0  0  0  0  0  0  0  0  0  0
    9.1254  -15.4334   24.5602 C   0  0  0  0  0  0  0  0  0  0  0  0
    9.1204  -15.1848   25.7912 O   0  0  0  0  0  0  0  0  0  0  0  0
    9.5455  -16.7574   24.1986 N   0  0  0  0  0  0  0  0  0  0  0  0
    9.9442  -17.7039   25.2222 C   0  0  0  0  0  0  0  0  0  0  0  0
   11.3995  -17.6988   25.4457 C   0  0  0  0  0  0  0  0  0  0  0  0
   12.1261  -16.8312   24.9015 O   0  0  0  0  0  0  0  0  0  0  0  0
   11.9377  -18.6869   26.2788 O   0  0  0  0  0  0  0  0  0  0  0  0
  2  1  1  6
  3  2  1  0
  4  5  2  0
  4  2  1  0
  6  4  1  0
  7  6  1  0
  7 15  1  0
  7  8  1  1
  9  8  1  0
 10  9  2  0
 11 10  1  0
 12 11  2  0
 12 13  1  0
 13 14  2  0
 14  9  1  0
 15 17  1  0
 16 15  2  0
 17 18  1  0
 19 21  1  0
 19 18  1  0
 20 19  2  0
M  END
$$$$
