IPI.pdb
     RDKit          3D

 24 24  0  0  1  0  0  0  0  0999 V2000
   29.1397  -21.4550  -15.8501 C   0  0  0  0  0  0  0  0  0  0  0  0
   28.0135  -20.5011  -15.5551 C   0  0  0  0  0  0  0  0  0  0  0  0
   27.7088  -20.3902  -14.0839 C   0  0  2  0  0  0  0  0  0  0  0  0
   27.2475  -21.7461  -13.5932 C   0  0  0  0  0  0  0  0  0  0  0  0
   26.6075  -19.4017  -13.7956 C   0  0  2  0  0  0  0  0  0  0  0  0
   26.9326  -18.0641  -14.1521 N   0  0  0  0  0  0  0  0  0  0  0  0
   26.3106  -19.4550  -12.3445 C   0  0  0  0  0  0  0  0  0  0  0  0
   27.2218  -18.9824  -11.5937 O   0  0  0  0  0  0  0  0  0  0  0  0
   25.0972  -19.9931  -11.7986 N   0  0  0  0  0  0  0  0  0  0  0  0
   24.0019  -20.6418  -12.4442 C   0  0  0  0  0  0  0  0  0  0  0  0
   22.8637  -20.5566  -11.4534 C   0  0  0  0  0  0  0  0  0  0  0  0
   23.5624  -20.7050  -10.1354 C   0  0  0  0  0  0  0  0  0  0  0  0
   24.8260  -19.9197  -10.3756 C   0  0  1  0  0  0  0  0  0  0  0  0
   25.8975  -20.5101   -9.5650 C   0  0  0  0  0  0  0  0  0  0  0  0
   26.6191  -21.4129  -10.0266 O   0  0  0  0  0  0  0  0  0  0  0  0
   28.2116  -18.4173   -4.6630 C   0  0  0  0  0  0  0  0  0  0  0  0
   27.5002  -18.6997   -5.9562 C   0  0  0  0  0  0  0  0  0  0  0  0
   27.9262  -19.9336   -6.6695 C   0  0  2  0  0  0  0  0  0  0  0  0
   28.8527  -19.4945   -7.8183 C   0  0  0  0  0  0  0  0  0  0  0  0
   26.8558  -20.7955   -7.2338 C   0  0  2  0  0  0  0  0  0  0  0  0
   26.1161  -20.0536   -8.2494 N   0  0  0  0  0  0  0  0  0  0  0  0
   25.8979  -21.3485   -6.2637 C   0  0  0  0  0  0  0  0  0  0  0  0
   26.3013  -22.3399   -5.3878 O   0  0  0  0  0  0  0  0  0  0  0  0
   24.6995  -20.9403   -6.2067 O   0  0  0  0  0  0  0  0  0  0  0  0
  2  1  1  0
  3  2  1  0
  3  4  1  6
  5  7  1  0
  5  3  1  0
  5  6  1  1
  7  8  2  0
  9 13  1  0
  9  7  1  0
 10  9  1  0
 11 10  1  0
 11 12  1  0
 12 13  1  0
 14 15  2  0
 13 14  1  1
 17 16  1  0
 17 18  1  0
 18 20  1  0
 18 19  1  6
 20 22  1  0
 20 21  1  6
 21 14  1  0
 22 23  1  0
 24 22  2  0
M  END
$$$$
