IPI.pdb
     RDKit          3D

 24 24  0  0  1  0  0  0  0  0999 V2000
   26.9186  -26.2555  -17.3426 C   0  0  0  0  0  0  0  0  0  0  0  0
   27.2413  -24.8100  -17.6101 C   0  0  0  0  0  0  0  0  0  0  0  0
   26.9770  -23.9207  -16.4232 C   0  0  2  0  0  0  0  0  0  0  0  0
   25.4929  -23.9571  -16.1264 C   0  0  0  0  0  0  0  0  0  0  0  0
   27.3554  -22.4845  -16.6827 C   0  0  2  0  0  0  0  0  0  0  0  0
   28.7466  -22.2911  -16.9042 N   0  0  0  0  0  0  0  0  0  0  0  0
   26.9379  -21.6803  -15.5098 C   0  0  0  0  0  0  0  0  0  0  0  0
   27.6541  -21.8371  -14.4706 O   0  0  0  0  0  0  0  0  0  0  0  0
   25.8159  -20.7852  -15.5158 N   0  0  0  0  0  0  0  0  0  0  0  0
   24.8683  -20.4989  -16.5441 C   0  0  0  0  0  0  0  0  0  0  0  0
   24.2425  -19.1844  -16.1379 C   0  0  0  0  0  0  0  0  0  0  0  0
   24.1926  -19.2911  -14.6434 C   0  0  0  0  0  0  0  0  0  0  0  0
   25.4972  -19.9855  -14.3485 C   0  0  1  0  0  0  0  0  0  0  0  0
   25.3249  -20.7968  -13.1377 C   0  0  0  0  0  0  0  0  0  0  0  0
   24.9613  -21.9844  -13.2155 O   0  0  0  0  0  0  0  0  0  0  0  0
   28.0765  -19.5979   -8.4682 C   0  0  0  0  0  0  0  0  0  0  0  0
   27.3006  -20.4324   -9.4480 C   0  0  0  0  0  0  0  0  0  0  0  0
   25.8332  -20.1903   -9.4800 C   0  0  2  0  0  0  0  0  0  0  0  0
   25.2544  -20.7480   -8.1667 C   0  0  0  0  0  0  0  0  0  0  0  0
   25.0729  -20.7765  -10.6137 C   0  0  2  0  0  0  0  0  0  0  0  0
   25.5723  -20.2299  -11.8711 N   0  0  0  0  0  0  0  0  0  0  0  0
   23.6133  -20.5976  -10.5694 C   0  0  0  0  0  0  0  0  0  0  0  0
   22.8123  -21.6050  -10.0631 O   0  0  0  0  0  0  0  0  0  0  0  0
   23.0609  -19.5366  -10.9875 O   0  0  0  0  0  0  0  0  0  0  0  0
  2  1  1  0
  3  2  1  0
  3  4  1  6
  5  7  1  0
  5  3  1  0
  5  6  1  1
  7  8  2  0
  9 13  1  0
  9  7  1  0
 10  9  1  0
 11 10  1  0
 11 12  1  0
 12 13  1  0
 14 15  2  0
 13 14  1  1
 17 16  1  0
 17 18  1  0
 18 20  1  0
 18 19  1  1
 20 22  1  0
 20 21  1  6
 21 14  1  0
 22 23  1  0
 24 22  2  0
M  END
$$$$
