IPI.pdb
     RDKit          3D

 24 24  0  0  1  0  0  0  0  0999 V2000
   22.1385  -18.5572  -13.8228 C   0  0  0  0  0  0  0  0  0  0  0  0
   22.9281  -19.8342  -13.9273 C   0  0  0  0  0  0  0  0  0  0  0  0
   23.8503  -20.0512  -12.7561 C   0  0  2  0  0  0  0  0  0  0  0  0
   24.8967  -18.9571  -12.7692 C   0  0  0  0  0  0  0  0  0  0  0  0
   24.5715  -21.3733  -12.8267 C   0  0  2  0  0  0  0  0  0  0  0  0
   23.7015  -22.4963  -12.8879 N   0  0  0  0  0  0  0  0  0  0  0  0
   25.4295  -21.4935  -11.6242 C   0  0  0  0  0  0  0  0  0  0  0  0
   24.8082  -21.7640  -10.5480 O   0  0  0  0  0  0  0  0  0  0  0  0
   26.8545  -21.3226  -11.6416 N   0  0  0  0  0  0  0  0  0  0  0  0
   27.7329  -20.9994  -12.7191 C   0  0  0  0  0  0  0  0  0  0  0  0
   29.1048  -21.4108  -12.2361 C   0  0  0  0  0  0  0  0  0  0  0  0
   29.0498  -21.0873  -10.7733 C   0  0  0  0  0  0  0  0  0  0  0  0
   27.6370  -21.4848  -10.4311 C   0  0  1  0  0  0  0  0  0  0  0  0
   27.1685  -20.6270   -9.3363 C   0  0  0  0  0  0  0  0  0  0  0  0
   26.3511  -19.7133   -9.5506 O   0  0  0  0  0  0  0  0  0  0  0  0
   28.2355  -22.3239   -3.9814 C   0  0  0  0  0  0  0  0  0  0  0  0
   27.5189  -21.7476   -5.1701 C   0  0  0  0  0  0  0  0  0  0  0  0
   28.0592  -20.4615   -5.6865 C   0  0  2  0  0  0  0  0  0  0  0  0
   27.9089  -19.4232   -4.5596 C   0  0  0  0  0  0  0  0  0  0  0  0
   27.4381  -19.9099   -6.9182 C   0  0  2  0  0  0  0  0  0  0  0  0
   27.6459  -20.8358   -8.0266 N   0  0  0  0  0  0  0  0  0  0  0  0
   27.8993  -18.5742   -7.3276 C   0  0  0  0  0  0  0  0  0  0  0  0
   27.0942  -17.4715   -7.1074 O   0  0  0  0  0  0  0  0  0  0  0  0
   29.0247  -18.4015   -7.8840 O   0  0  0  0  0  0  0  0  0  0  0  0
  2  1  1  0
  3  2  1  0
  3  4  1  6
  5  7  1  0
  5  3  1  0
  5  6  1  1
  7  8  2  0
  9 13  1  0
  9  7  1  0
 10  9  1  0
 11 10  1  0
 11 12  1  0
 12 13  1  0
 14 15  2  0
 13 14  1  1
 17 16  1  0
 17 18  1  0
 18 20  1  0
 18 19  1  1
 20 22  1  0
 20 21  1  6
 21 14  1  0
 22 23  1  0
 24 22  2  0
M  END
$$$$
