IPI.pdb
     RDKit          3D

 24 24  0  0  1  0  0  0  0  0999 V2000
   23.7647  -22.3423  -18.2184 C   0  0  0  0  0  0  0  0  0  0  0  0
   24.2123  -23.4406  -17.2918 C   0  0  0  0  0  0  0  0  0  0  0  0
   24.8796  -22.9208  -16.0452 C   0  0  2  0  0  0  0  0  0  0  0  0
   23.9176  -21.9798  -15.3515 C   0  0  0  0  0  0  0  0  0  0  0  0
   26.1387  -22.1473  -16.3444 C   0  0  2  0  0  0  0  0  0  0  0  0
   27.1733  -22.9384  -16.9150 N   0  0  0  0  0  0  0  0  0  0  0  0
   26.6275  -21.5569  -15.0759 C   0  0  0  0  0  0  0  0  0  0  0  0
   27.1063  -22.3928  -14.2456 O   0  0  0  0  0  0  0  0  0  0  0  0
   26.5772  -20.1537  -14.7785 N   0  0  0  0  0  0  0  0  0  0  0  0
   26.1704  -19.0517  -15.5892 C   0  0  0  0  0  0  0  0  0  0  0  0
   26.7646  -17.8361  -14.9156 C   0  0  0  0  0  0  0  0  0  0  0  0
   26.6623  -18.1827  -13.4607 C   0  0  0  0  0  0  0  0  0  0  0  0
   26.9859  -19.6544  -13.4794 C   0  0  1  0  0  0  0  0  0  0  0  0
   26.2669  -20.2993  -12.3744 C   0  0  0  0  0  0  0  0  0  0  0  0
   25.3686  -21.1305  -12.6005 O   0  0  0  0  0  0  0  0  0  0  0  0
   27.1294  -20.4143   -6.1570 C   0  0  0  0  0  0  0  0  0  0  0  0
   26.3279  -20.8206   -7.3616 C   0  0  0  0  0  0  0  0  0  0  0  0
   26.7761  -20.2444   -8.6577 C   0  0  2  0  0  0  0  0  0  0  0  0
   26.7196  -18.7124   -8.5148 C   0  0  0  0  0  0  0  0  0  0  0  0
   26.0130  -20.6305   -9.8724 C   0  0  2  0  0  0  0  0  0  0  0  0
   26.5929  -19.9776  -11.0414 N   0  0  0  0  0  0  0  0  0  0  0  0
   24.5698  -20.3465   -9.8419 C   0  0  0  0  0  0  0  0  0  0  0  0
   24.0759  -19.2260  -10.4848 O   0  0  0  0  0  0  0  0  0  0  0  0
   23.7559  -21.1055   -9.2359 O   0  0  0  0  0  0  0  0  0  0  0  0
  2  1  1  0
  3  2  1  0
  3  4  1  6
  5  7  1  0
  5  3  1  0
  5  6  1  1
  7  8  2  0
  9 13  1  0
  9  7  1  0
 10  9  1  0
 11 10  1  0
 11 12  1  0
 12 13  1  0
 14 15  2  0
 13 14  1  1
 17 16  1  0
 17 18  1  0
 18 20  1  0
 18 19  1  1
 20 22  1  0
 20 21  1  6
 21 14  1  0
 22 23  1  0
 24 22  2  0
M  END
$$$$
