IPI.pdb
     RDKit          3D

 24 24  0  0  1  0  0  0  0  0999 V2000
   22.8500  -19.0973  -13.4082 C   0  0  0  0  0  0  0  0  0  0  0  0
   23.7923  -20.2675  -13.4967 C   0  0  0  0  0  0  0  0  0  0  0  0
   24.6750  -20.4029  -12.2834 C   0  0  2  0  0  0  0  0  0  0  0  0
   25.5385  -19.1631  -12.1863 C   0  0  0  0  0  0  0  0  0  0  0  0
   25.5951  -21.5942  -12.3693 C   0  0  2  0  0  0  0  0  0  0  0  0
   24.9137  -22.8324  -12.5256 N   0  0  0  0  0  0  0  0  0  0  0  0
   26.4022  -21.6419  -11.1271 C   0  0  0  0  0  0  0  0  0  0  0  0
   25.7379  -21.8610  -10.0650 O   0  0  0  0  0  0  0  0  0  0  0  0
   27.8252  -21.4579  -11.0938 N   0  0  0  0  0  0  0  0  0  0  0  0
   28.7447  -21.1733  -12.1476 C   0  0  0  0  0  0  0  0  0  0  0  0
   30.0988  -21.5498  -11.5915 C   0  0  0  0  0  0  0  0  0  0  0  0
   29.9809  -21.1635  -10.1478 C   0  0  0  0  0  0  0  0  0  0  0  0
   28.5584  -21.5595   -9.8464 C   0  0  1  0  0  0  0  0  0  0  0  0
   28.0384  -20.6595   -8.8104 C   0  0  0  0  0  0  0  0  0  0  0  0
   27.2577  -19.7361   -9.1048 O   0  0  0  0  0  0  0  0  0  0  0  0
   27.5920  -22.5342   -3.5413 C   0  0  0  0  0  0  0  0  0  0  0  0
   27.3138  -21.7682   -4.8039 C   0  0  0  0  0  0  0  0  0  0  0  0
   28.2260  -20.6257   -5.0783 C   0  0  2  0  0  0  0  0  0  0  0  0
   28.0163  -19.5989   -3.9503 C   0  0  0  0  0  0  0  0  0  0  0  0
   28.0692  -19.9295   -6.3813 C   0  0  2  0  0  0  0  0  0  0  0  0
   28.4237  -20.8383   -7.4663 N   0  0  0  0  0  0  0  0  0  0  0  0
   28.8361  -18.6841   -6.5407 C   0  0  0  0  0  0  0  0  0  0  0  0
   28.2283  -17.4663   -6.2954 O   0  0  0  0  0  0  0  0  0  0  0  0
   30.0507  -18.6933   -6.9020 O   0  0  0  0  0  0  0  0  0  0  0  0
  2  1  1  0
  3  2  1  0
  3  4  1  6
  5  7  1  0
  5  3  1  0
  5  6  1  1
  7  8  2  0
  9 13  1  0
  9  7  1  0
 10  9  1  0
 11 10  1  0
 11 12  1  0
 12 13  1  0
 14 15  2  0
 13 14  1  1
 17 16  1  0
 17 18  1  0
 18 20  1  0
 18 19  1  1
 20 22  1  0
 20 21  1  6
 21 14  1  0
 22 23  1  0
 24 22  2  0
M  END
$$$$
