IPI.pdb
     RDKit          3D

 24 24  0  0  1  0  0  0  0  0999 V2000
   21.8391  -19.0182  -15.4160 C   0  0  0  0  0  0  0  0  0  0  0  0
   21.3195  -18.5889  -14.0703 C   0  0  0  0  0  0  0  0  0  0  0  0
   22.2308  -18.9821  -12.9370 C   0  0  2  0  0  0  0  0  0  0  0  0
   23.5792  -18.3336  -13.1680 C   0  0  0  0  0  0  0  0  0  0  0  0
   22.4481  -20.4721  -12.8615 C   0  0  2  0  0  0  0  0  0  0  0  0
   21.2562  -21.2124  -12.6306 N   0  0  0  0  0  0  0  0  0  0  0  0
   23.4037  -20.7420  -11.7612 C   0  0  0  0  0  0  0  0  0  0  0  0
   22.9924  -20.4161  -10.6027 O   0  0  0  0  0  0  0  0  0  0  0  0
   24.7007  -21.3246  -11.9571 N   0  0  0  0  0  0  0  0  0  0  0  0
   25.3790  -21.6856  -13.1599 C   0  0  0  0  0  0  0  0  0  0  0  0
   26.4607  -22.6454  -12.7205 C   0  0  0  0  0  0  0  0  0  0  0  0
   26.8736  -22.0902  -11.3906 C   0  0  0  0  0  0  0  0  0  0  0  0
   25.5483  -21.6483  -10.8255 C   0  0  1  0  0  0  0  0  0  0  0  0
   25.7821  -20.4963   -9.9468 C   0  0  0  0  0  0  0  0  0  0  0  0
   25.5634  -19.3382  -10.3464 O   0  0  0  0  0  0  0  0  0  0  0  0
   27.6220  -19.4338   -4.0676 C   0  0  0  0  0  0  0  0  0  0  0  0
   27.6013  -19.0316   -5.5154 C   0  0  0  0  0  0  0  0  0  0  0  0
   26.9155  -19.9768   -6.4368 C   0  0  2  0  0  0  0  0  0  0  0  0
   27.4577  -21.3841   -6.1261 C   0  0  0  0  0  0  0  0  0  0  0  0
   27.0606  -19.7297   -7.8945 C   0  0  2  0  0  0  0  0  0  0  0  0
   26.2594  -20.6979   -8.6359 N   0  0  0  0  0  0  0  0  0  0  0  0
   28.4355  -19.7575   -8.4172 C   0  0  0  0  0  0  0  0  0  0  0  0
   28.9276  -20.9129   -8.9966 O   0  0  0  0  0  0  0  0  0  0  0  0
   29.1923  -18.7432   -8.3505 O   0  0  0  0  0  0  0  0  0  0  0  0
  2  1  1  0
  3  2  1  0
  3  4  1  6
  5  7  1  0
  5  3  1  0
  5  6  1  1
  7  8  2  0
  9 13  1  0
  9  7  1  0
 10  9  1  0
 11 10  1  0
 11 12  1  0
 12 13  1  0
 14 15  2  0
 13 14  1  1
 17 16  1  0
 17 18  1  0
 18 20  1  0
 18 19  1  6
 20 22  1  0
 20 21  1  6
 21 14  1  0
 22 23  1  0
 24 22  2  0
M  END
$$$$
