IPI.pdb
     RDKit          3D

 24 24  0  0  1  0  0  0  0  0999 V2000
   22.1034  -18.5368  -13.8425 C   0  0  0  0  0  0  0  0  0  0  0  0
   22.9627  -19.7563  -14.0418 C   0  0  0  0  0  0  0  0  0  0  0  0
   23.8004  -20.0873  -12.8343 C   0  0  2  0  0  0  0  0  0  0  0  0
   24.7760  -18.9515  -12.6100 C   0  0  0  0  0  0  0  0  0  0  0  0
   24.6042  -21.3496  -13.0180 C   0  0  2  0  0  0  0  0  0  0  0  0
   23.8080  -22.5073  -13.2363 N   0  0  0  0  0  0  0  0  0  0  0  0
   25.4258  -21.5523  -11.8013 C   0  0  0  0  0  0  0  0  0  0  0  0
   24.7795  -21.9404  -10.7771 O   0  0  0  0  0  0  0  0  0  0  0  0
   26.8437  -21.3350  -11.7518 N   0  0  0  0  0  0  0  0  0  0  0  0
   27.7612  -20.9850  -12.7876 C   0  0  0  0  0  0  0  0  0  0  0  0
   29.1213  -21.3505  -12.2391 C   0  0  0  0  0  0  0  0  0  0  0  0
   28.9866  -21.0266  -10.7815 C   0  0  0  0  0  0  0  0  0  0  0  0
   27.5729  -21.4694  -10.5052 C   0  0  1  0  0  0  0  0  0  0  0  0
   27.0254  -20.6256   -9.4365 C   0  0  0  0  0  0  0  0  0  0  0  0
   26.1589  -19.7678   -9.6857 O   0  0  0  0  0  0  0  0  0  0  0  0
   28.3673  -21.9554   -3.9866 C   0  0  0  0  0  0  0  0  0  0  0  0
   27.5021  -21.4860   -5.1223 C   0  0  0  0  0  0  0  0  0  0  0  0
   27.9626  -20.2533   -5.8159 C   0  0  2  0  0  0  0  0  0  0  0  0
   27.8952  -19.1061   -4.7911 C   0  0  0  0  0  0  0  0  0  0  0  0
   27.2166  -19.8398   -7.0323 C   0  0  2  0  0  0  0  0  0  0  0  0
   27.4821  -20.7842   -8.1125 N   0  0  0  0  0  0  0  0  0  0  0  0
   27.4870  -18.4784   -7.5201 C   0  0  0  0  0  0  0  0  0  0  0  0
   28.6615  -18.2123   -8.2001 O   0  0  0  0  0  0  0  0  0  0  0  0
   26.6672  -17.5304   -7.3325 O   0  0  0  0  0  0  0  0  0  0  0  0
  2  1  1  0
  3  2  1  0
  3  4  1  6
  5  7  1  0
  5  3  1  0
  5  6  1  1
  7  8  2  0
  9 13  1  0
  9  7  1  0
 10  9  1  0
 11 10  1  0
 11 12  1  0
 12 13  1  0
 14 15  2  0
 13 14  1  1
 17 16  1  0
 17 18  1  0
 18 20  1  0
 18 19  1  1
 20 22  1  0
 20 21  1  6
 21 14  1  0
 22 23  1  0
 24 22  2  0
M  END
$$$$
