IPI.pdb
     RDKit          3D

 24 24  0  0  1  0  0  0  0  0999 V2000
   20.6636  -23.7028  -17.7546 C   0  0  0  0  0  0  0  0  0  0  0  0
   22.1131  -24.1054  -17.7990 C   0  0  0  0  0  0  0  0  0  0  0  0
   22.8629  -23.7369  -16.5454 C   0  0  2  0  0  0  0  0  0  0  0  0
   22.8833  -22.2272  -16.4333 C   0  0  0  0  0  0  0  0  0  0  0  0
   24.2936  -24.2121  -16.5680 C   0  0  2  0  0  0  0  0  0  0  0  0
   24.4255  -25.6279  -16.5693 N   0  0  0  0  0  0  0  0  0  0  0  0
   24.9782  -23.6656  -15.3725 C   0  0  0  0  0  0  0  0  0  0  0  0
   24.7766  -24.3135  -14.2969 O   0  0  0  0  0  0  0  0  0  0  0  0
   25.8105  -22.4965  -15.3957 N   0  0  0  0  0  0  0  0  0  0  0  0
   26.1998  -21.6612  -16.4856 C   0  0  0  0  0  0  0  0  0  0  0  0
   27.4094  -20.9076  -15.9823 C   0  0  0  0  0  0  0  0  0  0  0  0
   27.0821  -20.6875  -14.5360 C   0  0  0  0  0  0  0  0  0  0  0  0
   26.4142  -21.9900  -14.1779 C   0  0  1  0  0  0  0  0  0  0  0  0
   25.4267  -21.7281  -13.1243 C   0  0  0  0  0  0  0  0  0  0  0  0
   24.2117  -21.6817  -13.3900 O   0  0  0  0  0  0  0  0  0  0  0  0
   25.8867  -20.3022   -7.0175 C   0  0  0  0  0  0  0  0  0  0  0  0
   25.0364  -20.5827   -8.2244 C   0  0  0  0  0  0  0  0  0  0  0  0
   25.7756  -20.9526   -9.4612 C   0  0  2  0  0  0  0  0  0  0  0  0
   26.8640  -19.8844   -9.6737 C   0  0  0  0  0  0  0  0  0  0  0  0
   24.9859  -21.0730  -10.7138 C   0  0  2  0  0  0  0  0  0  0  0  0
   25.8532  -21.5262  -11.7961 N   0  0  0  0  0  0  0  0  0  0  0  0
   24.2846  -19.8557  -11.1507 C   0  0  0  0  0  0  0  0  0  0  0  0
   22.9479  -19.6835  -10.8405 O   0  0  0  0  0  0  0  0  0  0  0  0
   24.8747  -18.9501  -11.8121 O   0  0  0  0  0  0  0  0  0  0  0  0
  2  1  1  0
  3  2  1  0
  3  4  1  6
  5  7  1  0
  5  3  1  0
  5  6  1  1
  7  8  2  0
  9 13  1  0
  9  7  1  0
 10  9  1  0
 11 10  1  0
 11 12  1  0
 12 13  1  0
 14 15  2  0
 13 14  1  1
 17 16  1  0
 17 18  1  0
 18 20  1  0
 18 19  1  6
 20 22  1  0
 20 21  1  6
 21 14  1  0
 22 23  1  0
 24 22  2  0
M  END
$$$$
