IPI.pdb
     RDKit          3D

 24 24  0  0  1  0  0  0  0  0999 V2000
   20.7970  -20.3723  -13.6464 C   0  0  0  0  0  0  0  0  0  0  0  0
   22.0692  -20.9993  -14.1499 C   0  0  0  0  0  0  0  0  0  0  0  0
   23.1298  -21.1100  -13.0859 C   0  0  2  0  0  0  0  0  0  0  0  0
   23.4675  -19.7137  -12.6080 C   0  0  0  0  0  0  0  0  0  0  0  0
   24.4010  -21.7358  -13.6011 C   0  0  2  0  0  0  0  0  0  0  0  0
   24.2238  -23.0502  -14.1140 N   0  0  0  0  0  0  0  0  0  0  0  0
   25.3757  -21.7813  -12.4856 C   0  0  0  0  0  0  0  0  0  0  0  0
   25.0560  -22.5526  -11.5262 O   0  0  0  0  0  0  0  0  0  0  0  0
   26.5948  -21.0242  -12.4611 N   0  0  0  0  0  0  0  0  0  0  0  0
   27.1409  -20.1215  -13.4224 C   0  0  0  0  0  0  0  0  0  0  0  0
   28.6047  -20.0121  -13.0621 C   0  0  0  0  0  0  0  0  0  0  0  0
   28.5820  -20.0879  -11.5650 C   0  0  0  0  0  0  0  0  0  0  0  0
   27.5020  -21.1130  -11.3329 C   0  0  1  0  0  0  0  0  0  0  0  0
   26.8460  -20.8112  -10.0553 C   0  0  0  0  0  0  0  0  0  0  0  0
   25.6624  -20.4281  -10.0240 O   0  0  0  0  0  0  0  0  0  0  0  0
   28.6201  -21.1440   -4.0339 C   0  0  0  0  0  0  0  0  0  0  0  0
   27.5864  -20.8010   -5.0695 C   0  0  0  0  0  0  0  0  0  0  0  0
   28.0061  -20.9864   -6.4845 C   0  0  2  0  0  0  0  0  0  0  0  0
   29.3108  -20.1918   -6.6768 C   0  0  0  0  0  0  0  0  0  0  0  0
   27.0444  -20.5710   -7.5379 C   0  0  2  0  0  0  0  0  0  0  0  0
   27.5593  -20.9550   -8.8480 N   0  0  0  0  0  0  0  0  0  0  0  0
   26.7020  -19.1405   -7.5673 C   0  0  0  0  0  0  0  0  0  0  0  0
   25.6080  -18.6806   -6.8572 O   0  0  0  0  0  0  0  0  0  0  0  0
   27.3863  -18.3071   -8.2329 O   0  0  0  0  0  0  0  0  0  0  0  0
  2  1  1  0
  3  2  1  0
  3  4  1  6
  5  7  1  0
  5  3  1  0
  5  6  1  1
  7  8  2  0
  9 13  1  0
  9  7  1  0
 10  9  1  0
 11 10  1  0
 11 12  1  0
 12 13  1  0
 14 15  2  0
 13 14  1  1
 17 16  1  0
 17 18  1  0
 18 20  1  0
 18 19  1  6
 20 22  1  0
 20 21  1  6
 21 14  1  0
 22 23  1  0
 24 22  2  0
M  END
$$$$
