IPI.pdb
     RDKit          3D

 24 24  0  0  1  0  0  0  0  0999 V2000
   21.1283  -21.5473  -13.9131 C   0  0  0  0  0  0  0  0  0  0  0  0
   22.4832  -21.9844  -14.4013 C   0  0  0  0  0  0  0  0  0  0  0  0
   23.5431  -21.9120  -13.3332 C   0  0  2  0  0  0  0  0  0  0  0  0
   23.6423  -20.4765  -12.8623 C   0  0  0  0  0  0  0  0  0  0  0  0
   24.9026  -22.3208  -13.8408 C   0  0  2  0  0  0  0  0  0  0  0  0
   24.9522  -23.6545  -14.3314 N   0  0  0  0  0  0  0  0  0  0  0  0
   25.8701  -22.1810  -12.7267 C   0  0  0  0  0  0  0  0  0  0  0  0
   25.7610  -23.0555  -11.8098 O   0  0  0  0  0  0  0  0  0  0  0  0
   26.8645  -21.1482  -12.6597 N   0  0  0  0  0  0  0  0  0  0  0  0
   27.1723  -20.1012  -13.5796 C   0  0  0  0  0  0  0  0  0  0  0  0
   28.5632  -19.6486  -13.1989 C   0  0  0  0  0  0  0  0  0  0  0  0
   28.5577  -19.7871  -11.7062 C   0  0  0  0  0  0  0  0  0  0  0  0
   27.7639  -21.0553  -11.5255 C   0  0  1  0  0  0  0  0  0  0  0  0
   27.0518  -20.9757  -10.2447 C   0  0  0  0  0  0  0  0  0  0  0  0
   25.8081  -20.9995  -10.2070 O   0  0  0  0  0  0  0  0  0  0  0  0
   28.9004  -20.5271   -4.2500 C   0  0  0  0  0  0  0  0  0  0  0  0
   27.8024  -20.6837   -5.2641 C   0  0  0  0  0  0  0  0  0  0  0  0
   28.2358  -20.6883   -6.6870 C   0  0  2  0  0  0  0  0  0  0  0  0
   29.0585  -19.4066   -6.9130 C   0  0  0  0  0  0  0  0  0  0  0  0
   27.1709  -20.7503   -7.7210 C   0  0  2  0  0  0  0  0  0  0  0  0
   27.7790  -20.8710   -9.0418 N   0  0  0  0  0  0  0  0  0  0  0  0
   26.2262  -19.6226   -7.7388 C   0  0  0  0  0  0  0  0  0  0  0  0
   26.5593  -18.4572   -8.4050 O   0  0  0  0  0  0  0  0  0  0  0  0
   25.1038  -19.6867   -7.1540 O   0  0  0  0  0  0  0  0  0  0  0  0
  2  1  1  0
  3  2  1  0
  3  4  1  6
  5  7  1  0
  5  3  1  0
  5  6  1  1
  7  8  2  0
  9 13  1  0
  9  7  1  0
 10  9  1  0
 11 10  1  0
 11 12  1  0
 12 13  1  0
 14 15  2  0
 13 14  1  1
 17 16  1  0
 17 18  1  0
 18 20  1  0
 18 19  1  6
 20 22  1  0
 20 21  1  6
 21 14  1  0
 22 23  1  0
 24 22  2  0
M  END
$$$$
