IPI.pdb
     RDKit          3D

 24 24  0  0  1  0  0  0  0  0999 V2000
   21.1475  -20.6311  -13.4714 C   0  0  0  0  0  0  0  0  0  0  0  0
   22.4135  -21.2624  -13.9850 C   0  0  0  0  0  0  0  0  0  0  0  0
   23.4896  -21.3570  -12.9351 C   0  0  2  0  0  0  0  0  0  0  0  0
   23.8417  -19.9531  -12.4911 C   0  0  0  0  0  0  0  0  0  0  0  0
   24.7497  -22.0001  -13.4566 C   0  0  2  0  0  0  0  0  0  0  0  0
   24.5608  -23.3288  -13.9267 N   0  0  0  0  0  0  0  0  0  0  0  0
   25.7462  -22.0143  -12.3596 C   0  0  0  0  0  0  0  0  0  0  0  0
   25.4778  -22.8075  -11.4024 O   0  0  0  0  0  0  0  0  0  0  0  0
   26.9322  -21.2060  -12.3499 N   0  0  0  0  0  0  0  0  0  0  0  0
   27.4573  -20.3244  -13.3420 C   0  0  0  0  0  0  0  0  0  0  0  0
   28.9086  -20.1373  -12.9636 C   0  0  0  0  0  0  0  0  0  0  0  0
   28.8624  -20.1476  -11.4652 C   0  0  0  0  0  0  0  0  0  0  0  0
   27.8220  -21.2063  -11.2045 C   0  0  1  0  0  0  0  0  0  0  0  0
   27.1314  -20.8761   -9.9523 C   0  0  0  0  0  0  0  0  0  0  0  0
   25.9318  -20.5449   -9.9569 O   0  0  0  0  0  0  0  0  0  0  0  0
   28.7202  -21.0967   -3.8796 C   0  0  0  0  0  0  0  0  0  0  0  0
   27.7349  -20.7262   -4.9522 C   0  0  0  0  0  0  0  0  0  0  0  0
   28.1867  -20.9593   -6.3502 C   0  0  2  0  0  0  0  0  0  0  0  0
   29.5108  -20.1946   -6.5306 C   0  0  0  0  0  0  0  0  0  0  0  0
   27.2602  -20.5562   -7.4393 C   0  0  2  0  0  0  0  0  0  0  0  0
   27.8292  -20.9332   -8.7289 N   0  0  0  0  0  0  0  0  0  0  0  0
   26.9006  -19.1303   -7.4820 C   0  0  0  0  0  0  0  0  0  0  0  0
   27.7122  -18.2365   -8.1568 O   0  0  0  0  0  0  0  0  0  0  0  0
   25.8582  -18.6905   -6.9113 O   0  0  0  0  0  0  0  0  0  0  0  0
  2  1  1  0
  3  2  1  0
  3  4  1  6
  5  7  1  0
  5  3  1  0
  5  6  1  1
  7  8  2  0
  9 13  1  0
  9  7  1  0
 10  9  1  0
 11 10  1  0
 11 12  1  0
 12 13  1  0
 14 15  2  0
 13 14  1  1
 17 16  1  0
 17 18  1  0
 18 20  1  0
 18 19  1  6
 20 22  1  0
 20 21  1  6
 21 14  1  0
 22 23  1  0
 24 22  2  0
M  END
$$$$
