MMW.pdb
     RDKit          3D

 31 32  0  0  1  0  0  0  0  0999 V2000
   11.3338  -17.8482   16.0087 C   0  0  0  0  0  0  0  0  0  0  0  0
    9.6308  -18.1811   16.4811 S   0  0  0  0  0  0  0  0  0  0  0  0
    9.3873  -18.2161   18.2697 C   0  0  0  0  0  0  0  0  0  0  0  0
   10.5748  -18.8519   18.9428 C   0  0  0  0  0  0  0  0  0  0  0  0
   10.4490  -18.7874   20.4381 C   0  0  2  0  0  0  0  0  0  0  0  0
    9.2373  -19.4241   20.9053 N   0  0  0  0  0  0  0  0  0  0  0  0
   10.4644  -17.3631   20.9356 C   0  0  0  0  0  0  0  0  0  0  0  0
   11.4598  -16.6419   20.7047 O   0  0  0  0  0  0  0  0  0  0  0  0
    7.0144  -12.0803   19.7300 C   0  0  0  0  0  0  0  0  0  0  0  0
    6.6680  -13.8284   19.4246 S   0  0  0  0  0  0  0  0  0  0  0  0
    7.9948  -14.8633   20.1052 C   0  0  0  0  0  0  0  0  0  0  0  0
    8.0579  -14.7545   21.6085 C   0  0  0  0  0  0  0  0  0  0  0  0
    9.1423  -15.5887   22.2279 C   0  0  2  0  0  0  0  0  0  0  0  0
    9.3631  -16.8727   21.6468 N   0  0  0  0  0  0  0  0  0  0  0  0
    9.1892  -15.5851   23.6901 C   0  0  0  0  0  0  0  0  0  0  0  0
    8.5645  -14.6624   24.3326 O   0  0  0  0  0  0  0  0  0  0  0  0
    9.8857  -16.5421   24.4713 N   0  0  0  0  0  0  0  0  0  0  0  0
    9.9888  -16.5118   25.9130 C   0  0  1  0  0  0  0  0  0  0  0  0
    8.6685  -16.5965   26.5926 C   0  0  0  0  0  0  0  0  0  0  0  0
    7.6929  -15.5955   26.1127 C   0  0  0  0  0  0  0  0  0  0  0  0
    6.5579  -15.8279   25.3679 C   0  0  0  0  0  0  0  0  0  0  0  0
    5.9511  -14.6682   25.1418 N   0  0  0  0  0  0  0  0  0  0  0  0
    6.6179  -13.6505   25.6977 C   0  0  0  0  0  0  0  0  0  0  0  0
    6.3924  -12.2941   25.7371 C   0  0  0  0  0  0  0  0  0  0  0  0
    7.2678  -11.4519   26.3999 C   0  0  0  0  0  0  0  0  0  0  0  0
    8.3653  -12.0179   27.0141 C   0  0  0  0  0  0  0  0  0  0  0  0
    8.5819  -13.3794   26.9685 C   0  0  0  0  0  0  0  0  0  0  0  0
    7.7285  -14.2327   26.3181 C   0  0  0  0  0  0  0  0  0  0  0  0
   11.0047  -17.4203   26.4685 C   0  0  0  0  0  0  0  0  0  0  0  0
   11.2314  -17.4918   27.8302 O   0  0  0  0  0  0  0  0  0  0  0  0
   11.6767  -18.1411   25.7063 O   0  0  0  0  0  0  0  0  0  0  0  0
  2  1  1  0
  3  2  1  0
  4  3  1  0
  5  4  1  0
  5  6  1  6
  7  8  2  0
  7  5  1  0
 10  9  1  0
 11 10  1  0
 11 12  1  0
 13 12  1  1
 13 14  1  0
 14  7  1  0
 15 17  1  0
 15 13  1  0
 16 15  2  0
 18 17  1  0
 18 29  1  0
 19 20  1  0
 18 19  1  1
 20 28  1  0
 21 20  2  0
 21 22  1  0
 22 23  1  0
 23 24  1  0
 24 25  2  0
 26 25  1  0
 27 26  2  0
 28 23  2  0
 28 27  1  0
 29 30  1  0
 31 29  2  0
M  END
$$$$
