MMW.pdb
     RDKit          3D

 31 32  0  0  1  0  0  0  0  0999 V2000
    6.9215  -20.0491   26.6498 C   0  0  0  0  0  0  0  0  0  0  0  0
    6.2952  -21.3868   25.6240 S   0  0  0  0  0  0  0  0  0  0  0  0
    6.0900  -20.9142   23.8936 C   0  0  0  0  0  0  0  0  0  0  0  0
    7.1530  -19.9244   23.4965 C   0  0  0  0  0  0  0  0  0  0  0  0
    6.9171  -19.4040   22.1074 C   0  0  2  0  0  0  0  0  0  0  0  0
    6.8856  -20.4699   21.1303 N   0  0  0  0  0  0  0  0  0  0  0  0
    7.9768  -18.4108   21.6992 C   0  0  0  0  0  0  0  0  0  0  0  0
    8.9899  -18.8105   21.0842 O   0  0  0  0  0  0  0  0  0  0  0  0
    7.6644  -12.1075   19.7232 C   0  0  0  0  0  0  0  0  0  0  0  0
    6.2951  -13.2185   20.1230 S   0  0  0  0  0  0  0  0  0  0  0  0
    6.9276  -14.8358   20.6507 C   0  0  0  0  0  0  0  0  0  0  0  0
    8.2570  -14.7022   21.3511 C   0  0  0  0  0  0  0  0  0  0  0  0
    8.7415  -15.9804   21.9731 C   0  0  2  0  0  0  0  0  0  0  0  0
    7.8074  -17.0577   22.0150 N   0  0  0  0  0  0  0  0  0  0  0  0
    9.5292  -15.8323   23.1970 C   0  0  0  0  0  0  0  0  0  0  0  0
   10.5142  -15.0053   23.2094 O   0  0  0  0  0  0  0  0  0  0  0  0
    9.2847  -16.5462   24.3978 N   0  0  0  0  0  0  0  0  0  0  0  0
   10.0582  -16.4075   25.6113 C   0  0  1  0  0  0  0  0  0  0  0  0
    9.2146  -16.2003   26.8186 C   0  0  0  0  0  0  0  0  0  0  0  0
    8.0122  -15.3796   26.5641 C   0  0  0  0  0  0  0  0  0  0  0  0
    6.7431  -15.8281   26.2718 C   0  0  0  0  0  0  0  0  0  0  0  0
    5.9456  -14.7779   26.1127 N   0  0  0  0  0  0  0  0  0  0  0  0
    6.6095  -13.6291   26.2826 C   0  0  0  0  0  0  0  0  0  0  0  0
    6.2270  -12.3092   26.2208 C   0  0  0  0  0  0  0  0  0  0  0  0
    7.1441  -11.2973   26.4442 C   0  0  0  0  0  0  0  0  0  0  0  0
    8.4445  -11.6580   26.7286 C   0  0  0  0  0  0  0  0  0  0  0  0
    8.8174  -12.9847   26.7882 C   0  0  0  0  0  0  0  0  0  0  0  0
    7.9263  -14.0036   26.5705 C   0  0  0  0  0  0  0  0  0  0  0  0
   11.1056  -17.4269   25.7836 C   0  0  0  0  0  0  0  0  0  0  0  0
   12.0065  -17.3560   26.8296 O   0  0  0  0  0  0  0  0  0  0  0  0
   11.1895  -18.3736   24.9781 O   0  0  0  0  0  0  0  0  0  0  0  0
  2  1  1  0
  3  2  1  0
  4  3  1  0
  5  4  1  0
  5  6  1  6
  7  8  2  0
  7  5  1  0
 10  9  1  0
 11 10  1  0
 11 12  1  0
 13 12  1  1
 13 14  1  0
 14  7  1  0
 15 17  1  0
 15 13  1  0
 16 15  2  0
 18 17  1  0
 18 29  1  0
 19 20  1  0
 18 19  1  1
 20 28  1  0
 21 20  2  0
 21 22  1  0
 22 23  1  0
 23 24  1  0
 24 25  2  0
 26 25  1  0
 27 26  2  0
 28 23  2  0
 28 27  1  0
 29 30  1  0
 31 29  2  0
M  END
$$$$
