MMW.pdb
     RDKit          3D

 31 32  0  0  1  0  0  0  0  0999 V2000
    5.1178  -19.2581   24.9761 C   0  0  0  0  0  0  0  0  0  0  0  0
    6.5852  -20.2956   25.0422 S   0  0  0  0  0  0  0  0  0  0  0  0
    7.6556  -20.0989   23.6017 C   0  0  0  0  0  0  0  0  0  0  0  0
    6.8427  -19.6845   22.4039 C   0  0  0  0  0  0  0  0  0  0  0  0
    7.7033  -19.5702   21.1783 C   0  0  2  0  0  0  0  0  0  0  0  0
    8.2998  -20.8376   20.8178 N   0  0  0  0  0  0  0  0  0  0  0  0
    8.8060  -18.5579   21.3666 C   0  0  0  0  0  0  0  0  0  0  0  0
    9.9978  -18.9368   21.3500 O   0  0  0  0  0  0  0  0  0  0  0  0
    7.8337  -11.7998   20.4362 C   0  0  0  0  0  0  0  0  0  0  0  0
    6.8264  -12.9295   21.4253 S   0  0  0  0  0  0  0  0  0  0  0  0
    7.3282  -14.6483   21.1274 C   0  0  0  0  0  0  0  0  0  0  0  0
    8.8303  -14.7868   21.1194 C   0  0  0  0  0  0  0  0  0  0  0  0
    9.3199  -16.0727   21.7215 C   0  0  2  0  0  0  0  0  0  0  0  0
    8.4761  -17.2108   21.5558 N   0  0  0  0  0  0  0  0  0  0  0  0
    9.9122  -15.9643   23.0548 C   0  0  0  0  0  0  0  0  0  0  0  0
   10.7678  -15.0318   23.2841 O   0  0  0  0  0  0  0  0  0  0  0  0
    9.6085  -16.8276   24.1384 N   0  0  0  0  0  0  0  0  0  0  0  0
   10.1460  -16.6946   25.4739 C   0  0  1  0  0  0  0  0  0  0  0  0
    9.0947  -16.6857   26.5260 C   0  0  0  0  0  0  0  0  0  0  0  0
    7.8878  -15.9216   26.1473 C   0  0  0  0  0  0  0  0  0  0  0  0
    6.6994  -16.4246   25.6657 C   0  0  0  0  0  0  0  0  0  0  0  0
    5.8659  -15.4138   25.4466 N   0  0  0  0  0  0  0  0  0  0  0  0
    6.4281  -14.2401   25.7560 C   0  0  0  0  0  0  0  0  0  0  0  0
    5.9753  -12.9423   25.7016 C   0  0  0  0  0  0  0  0  0  0  0  0
    6.7894  -11.8937   26.0922 C   0  0  0  0  0  0  0  0  0  0  0  0
    8.0605  -12.1954   26.5342 C   0  0  0  0  0  0  0  0  0  0  0  0
    8.5045  -13.5004   26.5849 C   0  0  0  0  0  0  0  0  0  0  0  0
    7.7158  -14.5548   26.2032 C   0  0  0  0  0  0  0  0  0  0  0  0
   11.2748  -17.5925   25.7664 C   0  0  0  0  0  0  0  0  0  0  0  0
   11.7076  -18.5217   24.8390 O   0  0  0  0  0  0  0  0  0  0  0  0
   11.8564  -17.5213   26.8658 O   0  0  0  0  0  0  0  0  0  0  0  0
  2  1  1  0
  3  2  1  0
  4  3  1  0
  5  4  1  0
  5  6  1  1
  7  8  2  0
  7  5  1  0
 10  9  1  0
 11 10  1  0
 11 12  1  0
 13 12  1  1
 13 14  1  0
 14  7  1  0
 15 17  1  0
 15 13  1  0
 16 15  2  0
 18 17  1  0
 18 29  1  0
 19 20  1  0
 18 19  1  1
 20 28  1  0
 21 20  2  0
 21 22  1  0
 22 23  1  0
 23 24  1  0
 24 25  2  0
 26 25  1  0
 27 26  2  0
 28 23  2  0
 28 27  1  0
 29 30  1  0
 31 29  2  0
M  END
$$$$
