MMW.pdb
     RDKit          3D

 31 32  0  0  1  0  0  0  0  0999 V2000
   10.1846  -17.4909   15.5980 C   0  0  0  0  0  0  0  0  0  0  0  0
    8.6140  -18.3631   15.6791 S   0  0  0  0  0  0  0  0  0  0  0  0
    7.8528  -18.2978   17.3149 C   0  0  0  0  0  0  0  0  0  0  0  0
    8.5505  -17.2747   18.1715 C   0  0  0  0  0  0  0  0  0  0  0  0
    8.5456  -17.6838   19.6166 C   0  0  2  0  0  0  0  0  0  0  0  0
    7.2184  -18.0318   20.0742 N   0  0  0  0  0  0  0  0  0  0  0  0
    9.0875  -16.5913   20.5048 C   0  0  0  0  0  0  0  0  0  0  0  0
   10.2491  -16.1667   20.3183 O   0  0  0  0  0  0  0  0  0  0  0  0
    6.7190  -10.9951   25.7014 C   0  0  0  0  0  0  0  0  0  0  0  0
    6.2539  -12.3800   24.6361 S   0  0  0  0  0  0  0  0  0  0  0  0
    7.7336  -13.1548   23.9258 C   0  0  0  0  0  0  0  0  0  0  0  0
    7.3674  -14.2851   22.9962 C   0  0  0  0  0  0  0  0  0  0  0  0
    8.5531  -15.0490   22.4803 C   0  0  2  0  0  0  0  0  0  0  0  0
    8.2800  -16.0705   21.5227 N   0  0  0  0  0  0  0  0  0  0  0  0
    9.5488  -15.4287   23.4826 C   0  0  0  0  0  0  0  0  0  0  0  0
   10.2104  -14.5056   24.0864 O   0  0  0  0  0  0  0  0  0  0  0  0
    9.8474  -16.7661   23.8482 N   0  0  0  0  0  0  0  0  0  0  0  0
   10.9280  -17.1595   24.7242 C   0  0  1  0  0  0  0  0  0  0  0  0
   10.4537  -17.7152   26.0199 C   0  0  0  0  0  0  0  0  0  0  0  0
    9.5983  -16.7829   26.7836 C   0  0  0  0  0  0  0  0  0  0  0  0
    8.2223  -16.7735   26.8443 C   0  0  0  0  0  0  0  0  0  0  0  0
    7.8372  -15.7805   27.6381 N   0  0  0  0  0  0  0  0  0  0  0  0
    8.8862  -15.1083   28.1250 C   0  0  0  0  0  0  0  0  0  0  0  0
    8.9952  -14.0269   28.9683 C   0  0  0  0  0  0  0  0  0  0  0  0
   10.2371  -13.5238   29.3142 C   0  0  0  0  0  0  0  0  0  0  0  0
   11.3517  -14.1413   28.7866 C   0  0  0  0  0  0  0  0  0  0  0  0
   11.2311  -15.2252   27.9418 C   0  0  0  0  0  0  0  0  0  0  0  0
   10.0116  -15.7405   27.5856 C   0  0  0  0  0  0  0  0  0  0  0  0
   11.9722  -17.9684   24.0751 C   0  0  0  0  0  0  0  0  0  0  0  0
   11.8343  -18.3978   22.7685 O   0  0  0  0  0  0  0  0  0  0  0  0
   13.0014  -18.2762   24.7060 O   0  0  0  0  0  0  0  0  0  0  0  0
  2  1  1  0
  3  2  1  0
  4  3  1  0
  5  4  1  0
  5  6  1  1
  7  8  2  0
  7  5  1  0
 10  9  1  0
 11 10  1  0
 11 12  1  0
 13 12  1  1
 13 14  1  0
 14  7  1  0
 15 17  1  0
 15 13  1  0
 16 15  2  0
 18 17  1  0
 18 29  1  0
 19 20  1  0
 18 19  1  1
 20 28  1  0
 21 20  2  0
 21 22  1  0
 22 23  1  0
 23 24  1  0
 24 25  2  0
 26 25  1  0
 27 26  2  0
 28 23  2  0
 28 27  1  0
 29 30  1  0
 31 29  2  0
M  END
$$$$
