MMW.pdb
     RDKit          3D

 31 32  0  0  1  0  0  0  0  0999 V2000
    6.2930  -12.1271   19.0721 C   0  0  0  0  0  0  0  0  0  0  0  0
    7.4472  -13.4002   19.6023 S   0  0  0  0  0  0  0  0  0  0  0  0
    6.8493  -15.0736   19.2833 C   0  0  0  0  0  0  0  0  0  0  0  0
    7.8679  -16.0844   19.7395 C   0  0  0  0  0  0  0  0  0  0  0  0
    7.8976  -16.1854   21.2378 C   0  0  2  0  0  0  0  0  0  0  0  0
    7.7190  -14.8965   21.8691 N   0  0  0  0  0  0  0  0  0  0  0  0
    9.1928  -16.7839   21.7284 C   0  0  0  0  0  0  0  0  0  0  0  0
    9.5039  -17.9447   21.3819 O   0  0  0  0  0  0  0  0  0  0  0  0
   13.6287  -13.6008   18.9361 C   0  0  0  0  0  0  0  0  0  0  0  0
   13.8772  -14.2933   20.5877 S   0  0  0  0  0  0  0  0  0  0  0  0
   12.3769  -15.1488   21.1460 C   0  0  0  0  0  0  0  0  0  0  0  0
   12.4530  -15.4862   22.6143 C   0  0  0  0  0  0  0  0  0  0  0  0
   11.3118  -16.3346   23.0975 C   0  0  2  0  0  0  0  0  0  0  0  0
   10.0251  -16.0288   22.5628 N   0  0  0  0  0  0  0  0  0  0  0  0
   11.3022  -16.6295   24.5304 C   0  0  0  0  0  0  0  0  0  0  0  0
   12.3395  -17.1721   25.0632 O   0  0  0  0  0  0  0  0  0  0  0  0
   10.2128  -16.3568   25.3967 N   0  0  0  0  0  0  0  0  0  0  0  0
   10.0959  -16.8445   26.7527 C   0  0  1  0  0  0  0  0  0  0  0  0
    8.6847  -16.9822   27.2018 C   0  0  0  0  0  0  0  0  0  0  0  0
    7.7695  -16.0029   26.5794 C   0  0  0  0  0  0  0  0  0  0  0  0
    6.6601  -16.2713   25.8085 C   0  0  0  0  0  0  0  0  0  0  0  0
    6.1080  -15.1208   25.4401 N   0  0  0  0  0  0  0  0  0  0  0  0
    6.7879  -14.0750   25.9232 C   0  0  0  0  0  0  0  0  0  0  0  0
    6.6123  -12.7147   25.8170 C   0  0  0  0  0  0  0  0  0  0  0  0
    7.4892  -11.8395   26.4336 C   0  0  0  0  0  0  0  0  0  0  0  0
    8.5365  -12.3769   27.1521 C   0  0  0  0  0  0  0  0  0  0  0  0
    8.7034  -13.7425   27.2521 C   0  0  0  0  0  0  0  0  0  0  0  0
    7.8476  -14.6282   26.6500 C   0  0  0  0  0  0  0  0  0  0  0  0
   10.9336  -18.0173   27.0506 C   0  0  0  0  0  0  0  0  0  0  0  0
   11.1202  -18.4506   28.3499 O   0  0  0  0  0  0  0  0  0  0  0  0
   11.4879  -18.6366   26.1225 O   0  0  0  0  0  0  0  0  0  0  0  0
  2  1  1  0
  3  2  1  0
  4  3  1  0
  5  4  1  0
  5  6  1  1
  7  8  2  0
  7  5  1  0
 10  9  1  0
 11 10  1  0
 11 12  1  0
 13 12  1  1
 13 14  1  0
 14  7  1  0
 15 17  1  0
 15 13  1  0
 16 15  2  0
 18 17  1  0
 18 29  1  0
 19 20  1  0
 18 19  1  6
 20 28  1  0
 21 20  2  0
 21 22  1  0
 22 23  1  0
 23 24  1  0
 24 25  2  0
 26 25  1  0
 27 26  2  0
 28 23  2  0
 28 27  1  0
 29 30  1  0
 31 29  2  0
M  END
$$$$
