MMW.pdb
     RDKit          3D

 31 32  0  0  1  0  0  0  0  0999 V2000
    7.5664  -19.7227   27.4507 C   0  0  0  0  0  0  0  0  0  0  0  0
    5.9836  -20.5172   27.1381 S   0  0  0  0  0  0  0  0  0  0  0  0
    5.5872  -20.6362   25.3808 C   0  0  0  0  0  0  0  0  0  0  0  0
    6.4884  -19.7314   24.5831 C   0  0  0  0  0  0  0  0  0  0  0  0
    6.1659  -19.8002   23.1178 C   0  0  2  0  0  0  0  0  0  0  0  0
    6.0673  -21.1655   22.6507 N   0  0  0  0  0  0  0  0  0  0  0  0
    7.2012  -19.0831   22.2870 C   0  0  0  0  0  0  0  0  0  0  0  0
    8.2094  -19.7068   21.8886 O   0  0  0  0  0  0  0  0  0  0  0  0
    6.7856  -11.5512   20.2960 C   0  0  0  0  0  0  0  0  0  0  0  0
    7.3318  -13.1764   19.7221 S   0  0  0  0  0  0  0  0  0  0  0  0
    7.2358  -14.3875   21.0707 C   0  0  0  0  0  0  0  0  0  0  0  0
    7.6679  -15.7570   20.6089 C   0  0  0  0  0  0  0  0  0  0  0  0
    7.9742  -16.7034   21.7341 C   0  0  2  0  0  0  0  0  0  0  0  0
    7.0150  -17.7313   21.9754 N   0  0  0  0  0  0  0  0  0  0  0  0
    8.5041  -16.0909   22.9524 C   0  0  0  0  0  0  0  0  0  0  0  0
    7.6960  -15.4866   23.7500 O   0  0  0  0  0  0  0  0  0  0  0  0
    9.8710  -16.1127   23.3303 N   0  0  0  0  0  0  0  0  0  0  0  0
   10.4016  -15.5222   24.5385 C   0  0  1  0  0  0  0  0  0  0  0  0
    9.6619  -15.9347   25.7612 C   0  0  0  0  0  0  0  0  0  0  0  0
    8.3100  -15.3458   25.8595 C   0  0  0  0  0  0  0  0  0  0  0  0
    7.1047  -15.9959   25.7120 C   0  0  0  0  0  0  0  0  0  0  0  0
    6.1229  -15.1161   25.8743 N   0  0  0  0  0  0  0  0  0  0  0  0
    6.5995  -13.8920   26.1266 C   0  0  0  0  0  0  0  0  0  0  0  0
    5.9910  -12.6805   26.3602 C   0  0  0  0  0  0  0  0  0  0  0  0
    6.7462  -11.5455   26.5980 C   0  0  0  0  0  0  0  0  0  0  0  0
    8.1194  -11.6728   26.5920 C   0  0  0  0  0  0  0  0  0  0  0  0
    8.7194  -12.8924   26.3567 C   0  0  0  0  0  0  0  0  0  0  0  0
    7.9917  -14.0297   26.1190 C   0  0  0  0  0  0  0  0  0  0  0  0
   11.8648  -15.6140   24.6674 C   0  0  0  0  0  0  0  0  0  0  0  0
   12.6395  -16.1443   23.6529 O   0  0  0  0  0  0  0  0  0  0  0  0
   12.4236  -15.2094   25.7047 O   0  0  0  0  0  0  0  0  0  0  0  0
  2  1  1  0
  3  2  1  0
  4  3  1  0
  5  4  1  0
  5  6  1  6
  7  8  2  0
  7  5  1  0
 10  9  1  0
 11 10  1  0
 11 12  1  0
 13 12  1  6
 13 14  1  0
 14  7  1  0
 15 17  1  0
 15 13  1  0
 16 15  2  0
 18 17  1  0
 18 29  1  0
 19 20  1  0
 18 19  1  1
 20 28  1  0
 21 20  2  0
 21 22  1  0
 22 23  1  0
 23 24  1  0
 24 25  2  0
 26 25  1  0
 27 26  2  0
 28 23  2  0
 28 27  1  0
 29 30  1  0
 31 29  2  0
M  END
$$$$
