MMW.pdb
     RDKit          3D

 31 32  0  0  1  0  0  0  0  0999 V2000
    6.6654  -21.1182   26.9482 C   0  0  0  0  0  0  0  0  0  0  0  0
    6.6786  -22.1039   25.4441 S   0  0  0  0  0  0  0  0  0  0  0  0
    6.2602  -21.1496   23.9697 C   0  0  0  0  0  0  0  0  0  0  0  0
    6.6759  -19.7131   24.1462 C   0  0  0  0  0  0  0  0  0  0  0  0
    6.2757  -18.8836   22.9597 C   0  0  2  0  0  0  0  0  0  0  0  0
    6.1549  -19.6817   21.7596 N   0  0  0  0  0  0  0  0  0  0  0  0
    7.2639  -17.7736   22.6995 C   0  0  0  0  0  0  0  0  0  0  0  0
    8.1842  -17.9513   21.8715 O   0  0  0  0  0  0  0  0  0  0  0  0
    6.9731  -11.4610   25.4248 C   0  0  0  0  0  0  0  0  0  0  0  0
    6.6291  -12.9856   26.3338 S   0  0  0  0  0  0  0  0  0  0  0  0
    6.5399  -14.3945   25.1929 C   0  0  0  0  0  0  0  0  0  0  0  0
    7.3690  -14.1514   23.9563 C   0  0  0  0  0  0  0  0  0  0  0  0
    7.9621  -15.4019   23.3731 C   0  0  2  0  0  0  0  0  0  0  0  0
    7.1331  -16.5627   23.3892 N   0  0  0  0  0  0  0  0  0  0  0  0
    9.3574  -15.6664   23.7243 C   0  0  0  0  0  0  0  0  0  0  0  0
   10.2112  -14.7069   23.6562 O   0  0  0  0  0  0  0  0  0  0  0  0
    9.8522  -16.9277   24.1437 N   0  0  0  0  0  0  0  0  0  0  0  0
   11.2365  -17.2091   24.4514 C   0  0  1  0  0  0  0  0  0  0  0  0
   11.7928  -16.3139   25.5009 C   0  0  0  0  0  0  0  0  0  0  0  0
   11.1995  -16.5314   26.8369 C   0  0  0  0  0  0  0  0  0  0  0  0
   11.1761  -17.7047   27.5578 C   0  0  0  0  0  0  0  0  0  0  0  0
   10.5511  -17.4856   28.7092 N   0  0  0  0  0  0  0  0  0  0  0  0
   10.1445  -16.2153   28.8113 C   0  0  0  0  0  0  0  0  0  0  0  0
    9.4703  -15.5243   29.7912 C   0  0  0  0  0  0  0  0  0  0  0  0
    9.1716  -14.1827   29.6305 C   0  0  0  0  0  0  0  0  0  0  0  0
    9.5713  -13.5694   28.4617 C   0  0  0  0  0  0  0  0  0  0  0  0
   10.2470  -14.2717   27.4855 C   0  0  0  0  0  0  0  0  0  0  0  0
   10.5537  -15.6008   27.6229 C   0  0  0  0  0  0  0  0  0  0  0  0
   11.5334  -18.6347   24.6650 C   0  0  0  0  0  0  0  0  0  0  0  0
   10.5360  -19.5895   24.6015 O   0  0  0  0  0  0  0  0  0  0  0  0
   12.7006  -18.9965   24.9076 O   0  0  0  0  0  0  0  0  0  0  0  0
  2  1  1  0
  3  2  1  0
  4  3  1  0
  5  4  1  0
  5  6  1  6
  7  8  2  0
  7  5  1  0
 10  9  1  0
 11 10  1  0
 11 12  1  0
 13 12  1  1
 13 14  1  0
 14  7  1  0
 15 17  1  0
 15 13  1  0
 16 15  2  0
 18 17  1  0
 18 29  1  0
 19 20  1  0
 18 19  1  1
 20 28  1  0
 21 20  2  0
 21 22  1  0
 22 23  1  0
 23 24  1  0
 24 25  2  0
 26 25  1  0
 27 26  2  0
 28 23  2  0
 28 27  1  0
 29 30  1  0
 31 29  2  0
M  END
$$$$
