MMW.pdb
     RDKit          3D

 31 32  0  0  1  0  0  0  0  0999 V2000
    7.5724  -12.0017   19.6369 C   0  0  0  0  0  0  0  0  0  0  0  0
    8.1643  -12.7778   18.1266 S   0  0  0  0  0  0  0  0  0  0  0  0
    7.6410  -14.4980   17.9637 C   0  0  0  0  0  0  0  0  0  0  0  0
    7.4108  -15.1014   19.3239 C   0  0  0  0  0  0  0  0  0  0  0  0
    8.7078  -15.5071   19.9633 C   0  0  2  0  0  0  0  0  0  0  0  0
    9.3265  -16.6164   19.2715 N   0  0  0  0  0  0  0  0  0  0  0  0
    8.5176  -15.8907   21.4100 C   0  0  0  0  0  0  0  0  0  0  0  0
    7.9472  -15.0941   22.1874 O   0  0  0  0  0  0  0  0  0  0  0  0
    9.3520  -22.1492   26.3621 C   0  0  0  0  0  0  0  0  0  0  0  0
    9.2778  -21.5325   24.6641 S   0  0  0  0  0  0  0  0  0  0  0  0
    9.1515  -19.7218   24.6549 C   0  0  0  0  0  0  0  0  0  0  0  0
    8.9709  -19.1924   23.2539 C   0  0  0  0  0  0  0  0  0  0  0  0
    8.9894  -17.6930   23.1694 C   0  0  2  0  0  0  0  0  0  0  0  0
    8.9824  -17.1329   21.8575 N   0  0  0  0  0  0  0  0  0  0  0  0
    9.8959  -17.0160   24.0969 C   0  0  0  0  0  0  0  0  0  0  0  0
   11.1481  -17.3086   24.0715 O   0  0  0  0  0  0  0  0  0  0  0  0
    9.4912  -16.0400   25.0430 N   0  0  0  0  0  0  0  0  0  0  0  0
   10.0722  -15.8744   26.3565 C   0  0  1  0  0  0  0  0  0  0  0  0
    9.0585  -15.6057   27.4113 C   0  0  0  0  0  0  0  0  0  0  0  0
    7.8100  -15.0100   26.8914 C   0  0  0  0  0  0  0  0  0  0  0  0
    6.6451  -15.6682   26.5646 C   0  0  0  0  0  0  0  0  0  0  0  0
    5.7581  -14.7778   26.1349 N   0  0  0  0  0  0  0  0  0  0  0  0
    6.2611  -13.5384   26.1521 C   0  0  0  0  0  0  0  0  0  0  0  0
    5.7408  -12.3123   25.8080 C   0  0  0  0  0  0  0  0  0  0  0  0
    6.5027  -11.1634   25.9280 C   0  0  0  0  0  0  0  0  0  0  0  0
    7.7918  -11.2920   26.4010 C   0  0  0  0  0  0  0  0  0  0  0  0
    8.3037  -12.5264   26.7432 C   0  0  0  0  0  0  0  0  0  0  0  0
    7.5676  -13.6776   26.6328 C   0  0  0  0  0  0  0  0  0  0  0  0
   11.0527  -16.9094   26.7216 C   0  0  0  0  0  0  0  0  0  0  0  0
   11.2904  -17.9917   25.8953 O   0  0  0  0  0  0  0  0  0  0  0  0
   11.6841  -16.8169   27.7916 O   0  0  0  0  0  0  0  0  0  0  0  0
  2  1  1  0
  3  2  1  0
  4  3  1  0
  5  4  1  0
  5  6  1  6
  7  8  2  0
  7  5  1  0
 10  9  1  0
 11 10  1  0
 11 12  1  0
 13 12  1  6
 13 14  1  0
 14  7  1  0
 15 17  1  0
 15 13  1  0
 16 15  2  0
 18 17  1  0
 18 29  1  0
 19 20  1  0
 18 19  1  1
 20 28  1  0
 21 20  2  0
 21 22  1  0
 22 23  1  0
 23 24  1  0
 24 25  2  0
 26 25  1  0
 27 26  2  0
 28 23  2  0
 28 27  1  0
 29 30  1  0
 31 29  2  0
M  END
$$$$
