MMW.pdb
     RDKit          3D

 31 32  0  0  1  0  0  0  0  0999 V2000
    7.2974  -12.3774   19.4972 C   0  0  0  0  0  0  0  0  0  0  0  0
    7.8855  -12.9292   17.8898 S   0  0  0  0  0  0  0  0  0  0  0  0
    7.7438  -14.7143   17.6599 C   0  0  0  0  0  0  0  0  0  0  0  0
    7.2157  -15.3588   18.9141 C   0  0  0  0  0  0  0  0  0  0  0  0
    8.3366  -15.8629   19.7775 C   0  0  2  0  0  0  0  0  0  0  0  0
    8.8599  -17.1240   19.3002 N   0  0  0  0  0  0  0  0  0  0  0  0
    7.8982  -16.0376   21.2105 C   0  0  0  0  0  0  0  0  0  0  0  0
    7.2082  -15.1480   21.7552 O   0  0  0  0  0  0  0  0  0  0  0  0
    6.9493  -21.2528   25.3050 C   0  0  0  0  0  0  0  0  0  0  0  0
    6.4536  -21.0641   23.5765 S   0  0  0  0  0  0  0  0  0  0  0  0
    6.8581  -19.3975   22.9820 C   0  0  0  0  0  0  0  0  0  0  0  0
    7.9625  -18.7768   23.8010 C   0  0  0  0  0  0  0  0  0  0  0  0
    8.3899  -17.4238   23.3089 C   0  0  2  0  0  0  0  0  0  0  0  0
    8.2708  -17.1937   21.9061 N   0  0  0  0  0  0  0  0  0  0  0  0
    9.6237  -16.8967   23.8922 C   0  0  0  0  0  0  0  0  0  0  0  0
   10.7508  -17.3971   23.5266 O   0  0  0  0  0  0  0  0  0  0  0  0
    9.6740  -15.8529   24.8511 N   0  0  0  0  0  0  0  0  0  0  0  0
   10.0371  -16.0259   26.2397 C   0  0  1  0  0  0  0  0  0  0  0  0
    8.8642  -16.0083   27.1543 C   0  0  0  0  0  0  0  0  0  0  0  0
    7.7889  -15.0937   26.7170 C   0  0  0  0  0  0  0  0  0  0  0  0
    6.5691  -15.4383   26.1780 C   0  0  0  0  0  0  0  0  0  0  0  0
    5.8885  -14.3276   25.9182 N   0  0  0  0  0  0  0  0  0  0  0  0
    6.5855  -13.2366   26.2545 C   0  0  0  0  0  0  0  0  0  0  0  0
    6.3118  -11.8906   26.1777 C   0  0  0  0  0  0  0  0  0  0  0  0
    7.2378  -10.9563   26.6074 C   0  0  0  0  0  0  0  0  0  0  0  0
    8.4348  -11.4206   27.1110 C   0  0  0  0  0  0  0  0  0  0  0  0
    8.6991  -12.7725   27.1836 C   0  0  0  0  0  0  0  0  0  0  0  0
    7.7971  -13.7159   26.7641 C   0  0  0  0  0  0  0  0  0  0  0  0
   10.9713  -17.1353   26.4894 C   0  0  0  0  0  0  0  0  0  0  0  0
   10.6639  -18.4279   26.1080 O   0  0  0  0  0  0  0  0  0  0  0  0
   12.0601  -16.9155   27.0534 O   0  0  0  0  0  0  0  0  0  0  0  0
  2  1  1  0
  3  2  1  0
  4  3  1  0
  5  4  1  0
  5  6  1  6
  7  8  2  0
  7  5  1  0
 10  9  1  0
 11 10  1  0
 11 12  1  0
 13 12  1  6
 13 14  1  0
 14  7  1  0
 15 17  1  0
 15 13  1  0
 16 15  2  0
 18 17  1  0
 18 29  1  0
 19 20  1  0
 18 19  1  1
 20 28  1  0
 21 20  2  0
 21 22  1  0
 22 23  1  0
 23 24  1  0
 24 25  2  0
 26 25  1  0
 27 26  2  0
 28 23  2  0
 28 27  1  0
 29 30  1  0
 31 29  2  0
M  END
$$$$
