MMW.pdb
     RDKit          3D

 31 32  0  0  1  0  0  0  0  0999 V2000
    6.2107  -19.7606   25.0939 C   0  0  0  0  0  0  0  0  0  0  0  0
    7.5803  -20.7192   24.4311 S   0  0  0  0  0  0  0  0  0  0  0  0
    8.2304  -20.0482   22.8862 C   0  0  0  0  0  0  0  0  0  0  0  0
    7.0991  -19.6176   21.9907 C   0  0  0  0  0  0  0  0  0  0  0  0
    7.6150  -19.0768   20.6878 C   0  0  2  0  0  0  0  0  0  0  0  0
    8.4390  -20.0407   19.9922 N   0  0  0  0  0  0  0  0  0  0  0  0
    8.4188  -17.8160   20.8894 C   0  0  0  0  0  0  0  0  0  0  0  0
    9.6478  -17.8269   20.6580 O   0  0  0  0  0  0  0  0  0  0  0  0
    7.4739  -12.4084   17.5449 C   0  0  0  0  0  0  0  0  0  0  0  0
    8.1017  -12.8464   19.1829 S   0  0  0  0  0  0  0  0  0  0  0  0
    6.9411  -13.9573   20.0276 C   0  0  0  0  0  0  0  0  0  0  0  0
    7.3601  -14.2042   21.4556 C   0  0  0  0  0  0  0  0  0  0  0  0
    8.3046  -15.3610   21.6149 C   0  0  2  0  0  0  0  0  0  0  0  0
    7.7744  -16.6546   21.3313 N   0  0  0  0  0  0  0  0  0  0  0  0
    9.1644  -15.3204   22.7978 C   0  0  0  0  0  0  0  0  0  0  0  0
   10.0424  -14.3861   22.8998 O   0  0  0  0  0  0  0  0  0  0  0  0
    9.1029  -16.2527   23.8649 N   0  0  0  0  0  0  0  0  0  0  0  0
    9.9435  -16.2166   25.0405 C   0  0  1  0  0  0  0  0  0  0  0  0
    9.1687  -16.2221   26.3102 C   0  0  0  0  0  0  0  0  0  0  0  0
    7.9618  -15.3702   26.2683 C   0  0  0  0  0  0  0  0  0  0  0  0
    6.6554  -15.7818   26.1234 C   0  0  0  0  0  0  0  0  0  0  0  0
    5.8675  -14.7124   26.1349 N   0  0  0  0  0  0  0  0  0  0  0  0
    6.5737  -13.5859   26.2813 C   0  0  0  0  0  0  0  0  0  0  0  0
    6.2161  -12.2592   26.3492 C   0  0  0  0  0  0  0  0  0  0  0  0
    7.1773  -11.2762   26.5064 C   0  0  0  0  0  0  0  0  0  0  0  0
    8.4955  -11.6723   26.5916 C   0  0  0  0  0  0  0  0  0  0  0  0
    8.8432  -13.0054   26.5224 C   0  0  0  0  0  0  0  0  0  0  0  0
    7.9085  -13.9961   26.3671 C   0  0  0  0  0  0  0  0  0  0  0  0
   11.0594  -17.1758   25.0188 C   0  0  0  0  0  0  0  0  0  0  0  0
   12.0151  -17.1828   26.0175 O   0  0  0  0  0  0  0  0  0  0  0  0
   11.1526  -17.9994   24.0887 O   0  0  0  0  0  0  0  0  0  0  0  0
  2  1  1  0
  3  2  1  0
  4  3  1  0
  5  4  1  0
  5  6  1  1
  7  8  2  0
  7  5  1  0
 10  9  1  0
 11 10  1  0
 11 12  1  0
 13 12  1  1
 13 14  1  0
 14  7  1  0
 15 17  1  0
 15 13  1  0
 16 15  2  0
 18 17  1  0
 18 29  1  0
 19 20  1  0
 18 19  1  1
 20 28  1  0
 21 20  2  0
 21 22  1  0
 22 23  1  0
 23 24  1  0
 24 25  2  0
 26 25  1  0
 27 26  2  0
 28 23  2  0
 28 27  1  0
 29 30  1  0
 31 29  2  0
M  END
$$$$
