MMW.pdb
     RDKit          3D

 31 32  0  0  1  0  0  0  0  0999 V2000
    7.3090  -21.4815   16.5587 C   0  0  0  0  0  0  0  0  0  0  0  0
    5.8168  -21.1705   17.5131 S   0  0  0  0  0  0  0  0  0  0  0  0
    6.1523  -20.7889   19.2455 C   0  0  0  0  0  0  0  0  0  0  0  0
    7.1306  -19.6486   19.3456 C   0  0  0  0  0  0  0  0  0  0  0  0
    7.5976  -19.4580   20.7603 C   0  0  2  0  0  0  0  0  0  0  0  0
    6.5068  -19.1193   21.6475 N   0  0  0  0  0  0  0  0  0  0  0  0
    8.6474  -18.3788   20.8579 C   0  0  0  0  0  0  0  0  0  0  0  0
    9.8089  -18.6129   20.4574 O   0  0  0  0  0  0  0  0  0  0  0  0
    6.7329  -12.1013   20.7830 C   0  0  0  0  0  0  0  0  0  0  0  0
    6.7539  -13.3116   19.4399 S   0  0  0  0  0  0  0  0  0  0  0  0
    7.4218  -14.8942   20.0264 C   0  0  0  0  0  0  0  0  0  0  0  0
    8.5354  -14.6835   21.0219 C   0  0  0  0  0  0  0  0  0  0  0  0
    9.0953  -15.9610   21.5789 C   0  0  2  0  0  0  0  0  0  0  0  0
    8.3029  -17.1328   21.3945 N   0  0  0  0  0  0  0  0  0  0  0  0
    9.7053  -15.8619   22.9049 C   0  0  0  0  0  0  0  0  0  0  0  0
   10.5930  -14.9558   23.1178 O   0  0  0  0  0  0  0  0  0  0  0  0
    9.3858  -16.7068   23.9984 N   0  0  0  0  0  0  0  0  0  0  0  0
   10.0491  -16.6791   25.2827 C   0  0  1  0  0  0  0  0  0  0  0  0
    9.1011  -16.5879   26.4252 C   0  0  0  0  0  0  0  0  0  0  0  0
    7.9368  -15.7179   26.1576 C   0  0  0  0  0  0  0  0  0  0  0  0
    6.7012  -16.1007   25.6846 C   0  0  0  0  0  0  0  0  0  0  0  0
    5.9315  -15.0231   25.5809 N   0  0  0  0  0  0  0  0  0  0  0  0
    6.5827  -13.9183   25.9613 C   0  0  0  0  0  0  0  0  0  0  0  0
    6.2178  -12.5937   26.0296 C   0  0  0  0  0  0  0  0  0  0  0  0
    7.1145  -11.6364   26.4708 C   0  0  0  0  0  0  0  0  0  0  0  0
    8.3764  -12.0559   26.8362 C   0  0  0  0  0  0  0  0  0  0  0  0
    8.7319  -13.3868   26.7639 C   0  0  0  0  0  0  0  0  0  0  0  0
    7.8605  -14.3522   26.3301 C   0  0  0  0  0  0  0  0  0  0  0  0
   11.0891  -17.7066   25.4514 C   0  0  0  0  0  0  0  0  0  0  0  0
   11.2586  -18.7117   24.5176 O   0  0  0  0  0  0  0  0  0  0  0  0
   11.8342  -17.6783   26.4494 O   0  0  0  0  0  0  0  0  0  0  0  0
  2  1  1  0
  3  2  1  0
  4  3  1  0
  5  4  1  0
  5  6  1  1
  7  8  2  0
  7  5  1  0
 10  9  1  0
 11 10  1  0
 11 12  1  0
 13 12  1  1
 13 14  1  0
 14  7  1  0
 15 17  1  0
 15 13  1  0
 16 15  2  0
 18 17  1  0
 18 29  1  0
 19 20  1  0
 18 19  1  1
 20 28  1  0
 21 20  2  0
 21 22  1  0
 22 23  1  0
 23 24  1  0
 24 25  2  0
 26 25  1  0
 27 26  2  0
 28 23  2  0
 28 27  1  0
 29 30  1  0
 31 29  2  0
M  END
$$$$
