HGP.pdb
     RDKit          3D

 22 23  0  0  1  0  0  0  0  0999 V2000
    9.0294  -16.0628   19.7572 N   0  0  0  0  0  0  0  0  0  0  0  0
    8.1976  -15.0037   20.2824 C   0  0  1  0  0  0  0  0  0  0  0  0
    7.1174  -14.6112   19.2914 C   0  0  0  0  0  0  0  0  0  0  0  0
    7.7667  -14.2733   18.0102 C   0  0  0  0  0  0  0  0  0  0  0  0
    8.5346  -13.1738   17.7321 C   0  0  0  0  0  0  0  0  0  0  0  0
    8.9131  -13.2815   16.4464 N   0  0  0  0  0  0  0  0  0  0  0  0
    8.4129  -14.4009   15.9145 C   0  0  0  0  0  0  0  0  0  0  0  0
    7.7041  -15.0064   16.8952 N   0  0  0  0  0  0  0  0  0  0  0  0
    7.5546  -15.4122   21.5576 C   0  0  0  0  0  0  0  0  0  0  0  0
    7.4279  -16.6153   21.8763 O   0  0  0  0  0  0  0  0  0  0  0  0
    7.0774  -14.3958   22.4245 N   0  0  0  0  0  0  0  0  0  0  0  0
    6.6135  -14.7421   23.7480 C   0  0  0  0  0  0  0  0  0  0  0  0
    7.6291  -14.4121   24.7790 C   0  0  0  0  0  0  0  0  0  0  0  0
    8.7804  -14.8939   24.6427 O   0  0  0  0  0  0  0  0  0  0  0  0
    7.3136  -13.5801   25.8834 N   0  0  0  0  0  0  0  0  0  0  0  0
    5.9894  -13.0645   26.1709 C   0  0  0  0  0  0  0  0  0  0  0  0
    6.0981  -12.6179   27.6123 C   0  0  0  0  0  0  0  0  0  0  0  0
    7.5075  -12.0110   27.6042 C   0  0  0  0  0  0  0  0  0  0  0  0
    8.2586  -13.1227   26.8841 C   0  0  1  0  0  0  0  0  0  0  0  0
    8.4346  -14.2254   27.8735 C   0  0  0  0  0  0  0  0  0  0  0  0
    7.6247  -15.1933   27.9022 O   0  0  0  0  0  0  0  0  0  0  0  0
    9.4678  -14.2550   28.7956 O   0  0  0  0  0  0  0  0  0  0  0  0
  2  1  1  6
  2  3  1  0
  3  4  1  0
  4  5  2  0
  5  6  1  0
  7  6  1  0
  8  4  1  0
  8  7  2  0
  9  2  1  0
  9 11  1  0
 10  9  2  0
 12 11  1  0
 12 13  1  0
 13 15  1  0
 14 13  2  0
 15 16  1  0
 15 19  1  0
 16 17  1  0
 17 18  1  0
 19 20  1  1
 19 18  1  0
 20 22  1  0
 21 20  2  0
M  END
$$$$
