HGP.pdb
     RDKit          3D

 22 23  0  0  1  0  0  0  0  0999 V2000
    7.4625  -18.2817   20.6038 N   0  0  0  0  0  0  0  0  0  0  0  0
    8.1798  -17.0323   20.7221 C   0  0  1  0  0  0  0  0  0  0  0  0
    8.5868  -16.5015   19.3600 C   0  0  0  0  0  0  0  0  0  0  0  0
    9.5037  -17.4769   18.7393 C   0  0  0  0  0  0  0  0  0  0  0  0
   10.8280  -17.6732   19.0283 C   0  0  0  0  0  0  0  0  0  0  0  0
   11.2581  -18.6587   18.2209 N   0  0  0  0  0  0  0  0  0  0  0  0
   10.2573  -19.0824   17.4431 C   0  0  0  0  0  0  0  0  0  0  0  0
    9.1752  -18.3411   17.7750 N   0  0  0  0  0  0  0  0  0  0  0  0
    7.3555  -16.0065   21.4111 C   0  0  0  0  0  0  0  0  0  0  0  0
    6.1061  -16.0684   21.4300 O   0  0  0  0  0  0  0  0  0  0  0  0
    8.0215  -14.9349   22.0596 N   0  0  0  0  0  0  0  0  0  0  0  0
    7.3224  -14.1525   23.0526 C   0  0  0  0  0  0  0  0  0  0  0  0
    8.0741  -14.1085   24.3317 C   0  0  0  0  0  0  0  0  0  0  0  0
    9.0736  -14.8590   24.4501 O   0  0  0  0  0  0  0  0  0  0  0  0
    7.6798  -13.2483   25.3881 N   0  0  0  0  0  0  0  0  0  0  0  0
    6.5064  -12.3972   25.3592 C   0  0  0  0  0  0  0  0  0  0  0  0
    6.3091  -12.0315   26.8139 C   0  0  0  0  0  0  0  0  0  0  0  0
    7.7682  -11.8329   27.2455 C   0  0  0  0  0  0  0  0  0  0  0  0
    8.3836  -13.0903   26.6464 C   0  0  1  0  0  0  0  0  0  0  0  0
    7.9818  -14.2222   27.5315 C   0  0  0  0  0  0  0  0  0  0  0  0
    6.9361  -14.8854   27.2855 O   0  0  0  0  0  0  0  0  0  0  0  0
    8.7099  -14.6048   28.6460 O   0  0  0  0  0  0  0  0  0  0  0  0
  2  1  1  6
  2  3  1  0
  3  4  1  0
  4  5  2  0
  5  6  1  0
  7  6  1  0
  8  4  1  0
  8  7  2  0
  9  2  1  0
  9 11  1  0
 10  9  2  0
 12 11  1  0
 12 13  1  0
 13 15  1  0
 14 13  2  0
 15 16  1  0
 15 19  1  0
 16 17  1  0
 17 18  1  0
 19 20  1  1
 19 18  1  0
 20 22  1  0
 21 20  2  0
M  END
$$$$
