HGP.pdb
     RDKit          3D

 22 23  0  0  1  0  0  0  0  0999 V2000
    9.2280  -15.3405   20.8208 N   0  0  0  0  0  0  0  0  0  0  0  0
    8.4091  -14.2110   21.1992 C   0  0  1  0  0  0  0  0  0  0  0  0
    7.1671  -14.1182   20.3322 C   0  0  0  0  0  0  0  0  0  0  0  0
    7.5934  -14.0348   18.9221 C   0  0  0  0  0  0  0  0  0  0  0  0
    8.4015  -13.0868   18.3528 C   0  0  0  0  0  0  0  0  0  0  0  0
    8.5176  -13.4079   17.0523 N   0  0  0  0  0  0  0  0  0  0  0  0
    7.8160  -14.5147   16.7900 C   0  0  0  0  0  0  0  0  0  0  0  0
    7.2479  -14.8929   17.9583 N   0  0  0  0  0  0  0  0  0  0  0  0
    7.9956  -14.3044   22.6229 C   0  0  0  0  0  0  0  0  0  0  0  0
    7.3813  -13.3758   23.1933 O   0  0  0  0  0  0  0  0  0  0  0  0
    8.3153  -15.4867   23.3385 N   0  0  0  0  0  0  0  0  0  0  0  0
    7.9655  -15.5955   24.7359 C   0  0  0  0  0  0  0  0  0  0  0  0
    9.1764  -15.6384   25.5932 C   0  0  0  0  0  0  0  0  0  0  0  0
   10.1434  -16.3397   25.2068 O   0  0  0  0  0  0  0  0  0  0  0  0
    9.2431  -14.9125   26.8099 N   0  0  0  0  0  0  0  0  0  0  0  0
    8.1941  -14.0432   27.3058 C   0  0  0  0  0  0  0  0  0  0  0  0
    8.5560  -13.8621   28.7635 C   0  0  0  0  0  0  0  0  0  0  0  0
   10.0822  -13.7471   28.6534 C   0  0  0  0  0  0  0  0  0  0  0  0
   10.3604  -14.9291   27.7346 C   0  0  1  0  0  0  0  0  0  0  0  0
   10.2322  -16.1569   28.5726 C   0  0  0  0  0  0  0  0  0  0  0  0
   11.1848  -16.5269   29.3136 O   0  0  0  0  0  0  0  0  0  0  0  0
    9.0928  -16.9444   28.5892 O   0  0  0  0  0  0  0  0  0  0  0  0
  2  1  1  6
  2  3  1  0
  3  4  1  0
  4  5  2  0
  5  6  1  0
  7  6  1  0
  8  4  1  0
  8  7  2  0
  9  2  1  0
  9 11  1  0
 10  9  2  0
 12 11  1  0
 12 13  1  0
 13 15  1  0
 14 13  2  0
 15 16  1  0
 15 19  1  0
 16 17  1  0
 17 18  1  0
 19 20  1  1
 19 18  1  0
 20 22  1  0
 21 20  2  0
M  END
$$$$
