HGP.pdb
     RDKit          3D

 22 23  0  0  1  0  0  0  0  0999 V2000
    7.1535  -17.9705   21.2287 N   0  0  0  0  0  0  0  0  0  0  0  0
    7.5622  -16.5845   21.2696 C   0  0  1  0  0  0  0  0  0  0  0  0
    6.8088  -15.7593   20.2429 C   0  0  0  0  0  0  0  0  0  0  0  0
    7.5364  -14.4908   20.0459 C   0  0  0  0  0  0  0  0  0  0  0  0
    7.2593  -13.2765   20.6155 C   0  0  0  0  0  0  0  0  0  0  0  0
    8.1789  -12.4124   20.1512 N   0  0  0  0  0  0  0  0  0  0  0  0
    9.0151  -13.0386   19.3175 C   0  0  0  0  0  0  0  0  0  0  0  0
    8.6052  -14.3269   19.2614 N   0  0  0  0  0  0  0  0  0  0  0  0
    7.3352  -16.0004   22.6163 C   0  0  0  0  0  0  0  0  0  0  0  0
    6.2880  -16.2231   23.2636 O   0  0  0  0  0  0  0  0  0  0  0  0
    8.3450  -15.1699   23.1667 N   0  0  0  0  0  0  0  0  0  0  0  0
    8.2125  -14.6811   24.5196 C   0  0  0  0  0  0  0  0  0  0  0  0
    9.3042  -15.1907   25.3865 C   0  0  0  0  0  0  0  0  0  0  0  0
   10.0805  -16.0524   24.9057 O   0  0  0  0  0  0  0  0  0  0  0  0
    9.4687  -14.7224   26.7151 N   0  0  0  0  0  0  0  0  0  0  0  0
    8.5648  -13.8042   27.3797 C   0  0  0  0  0  0  0  0  0  0  0  0
    8.9305  -13.9557   28.8399 C   0  0  0  0  0  0  0  0  0  0  0  0
   10.4570  -14.0667   28.7286 C   0  0  0  0  0  0  0  0  0  0  0  0
   10.5560  -15.0873   27.6030 C   0  0  1  0  0  0  0  0  0  0  0  0
   10.2222  -16.4125   28.2016 C   0  0  0  0  0  0  0  0  0  0  0  0
    9.0497  -16.8732   28.1202 O   0  0  0  0  0  0  0  0  0  0  0  0
   11.1512  -17.1973   28.8648 O   0  0  0  0  0  0  0  0  0  0  0  0
  2  1  1  1
  2  3  1  0
  3  4  1  0
  4  5  2  0
  5  6  1  0
  7  6  1  0
  8  4  1  0
  8  7  2  0
  9  2  1  0
  9 11  1  0
 10  9  2  0
 12 11  1  0
 12 13  1  0
 13 15  1  0
 14 13  2  0
 15 16  1  0
 15 19  1  0
 16 17  1  0
 17 18  1  0
 19 20  1  1
 19 18  1  0
 20 22  1  0
 21 20  2  0
M  END
$$$$
