HGP.pdb
     RDKit          3D

 22 23  0  0  1  0  0  0  0  0999 V2000
    9.5067  -17.6076   23.6485 N   0  0  0  0  0  0  0  0  0  0  0  0
    8.9222  -17.8253   22.3445 C   0  0  1  0  0  0  0  0  0  0  0  0
    8.1492  -19.1303   22.2999 C   0  0  0  0  0  0  0  0  0  0  0  0
    7.7077  -19.4526   23.6705 C   0  0  0  0  0  0  0  0  0  0  0  0
    8.4307  -19.3295   24.8272 C   0  0  0  0  0  0  0  0  0  0  0  0
    7.6311  -19.7370   25.8284 N   0  0  0  0  0  0  0  0  0  0  0  0
    6.4425  -20.1078   25.3426 C   0  0  0  0  0  0  0  0  0  0  0  0
    6.5037  -19.9263   24.0032 N   0  0  0  0  0  0  0  0  0  0  0  0
    8.0092  -16.7130   21.9761 C   0  0  0  0  0  0  0  0  0  0  0  0
    7.8700  -16.3393   20.7903 O   0  0  0  0  0  0  0  0  0  0  0  0
    7.2839  -16.0692   23.0114 N   0  0  0  0  0  0  0  0  0  0  0  0
    7.0851  -14.6391   22.9649 C   0  0  0  0  0  0  0  0  0  0  0  0
    7.9633  -13.9406   23.9365 C   0  0  0  0  0  0  0  0  0  0  0  0
    9.2033  -13.9887   23.7454 O   0  0  0  0  0  0  0  0  0  0  0  0
    7.4238  -13.2406   25.0456 N   0  0  0  0  0  0  0  0  0  0  0  0
    6.0305  -12.8627   25.1791 C   0  0  0  0  0  0  0  0  0  0  0  0
    5.8993  -12.5412   26.6516 C   0  0  0  0  0  0  0  0  0  0  0  0
    7.2337  -11.8232   26.8938 C   0  0  0  0  0  0  0  0  0  0  0  0
    8.1765  -12.8001   26.2046 C   0  0  1  0  0  0  0  0  0  0  0  0
    8.3182  -13.9700   27.1197 C   0  0  0  0  0  0  0  0  0  0  0  0
    7.6154  -15.0044   26.9477 O   0  0  0  0  0  0  0  0  0  0  0  0
    9.2041  -13.9931   28.1843 O   0  0  0  0  0  0  0  0  0  0  0  0
  2  1  1  1
  2  3  1  0
  3  4  1  0
  4  5  2  0
  5  6  1  0
  7  6  1  0
  8  4  1  0
  8  7  2  0
  9  2  1  0
  9 11  1  0
 10  9  2  0
 12 11  1  0
 12 13  1  0
 13 15  1  0
 14 13  2  0
 15 16  1  0
 15 19  1  0
 16 17  1  0
 17 18  1  0
 19 20  1  1
 19 18  1  0
 20 22  1  0
 21 20  2  0
M  END
$$$$
