HGP.pdb
     RDKit          3D

 22 23  0  0  1  0  0  0  0  0999 V2000
    8.9855  -15.6202   20.9154 N   0  0  0  0  0  0  0  0  0  0  0  0
    8.4133  -14.3568   21.3228 C   0  0  1  0  0  0  0  0  0  0  0  0
    7.1613  -14.0387   20.5265 C   0  0  0  0  0  0  0  0  0  0  0  0
    7.5121  -14.0424   19.0933 C   0  0  0  0  0  0  0  0  0  0  0  0
    8.1443  -13.0518   18.3898 C   0  0  0  0  0  0  0  0  0  0  0  0
    8.2542  -13.4871   17.1224 N   0  0  0  0  0  0  0  0  0  0  0  0
    7.7170  -14.7056   17.0090 C   0  0  0  0  0  0  0  0  0  0  0  0
    7.2606  -15.0379   18.2387 N   0  0  0  0  0  0  0  0  0  0  0  0
    8.0739  -14.3658   22.7689 C   0  0  0  0  0  0  0  0  0  0  0  0
    7.6870  -13.3344   23.3618 O   0  0  0  0  0  0  0  0  0  0  0  0
    8.1983  -15.5871   23.4799 N   0  0  0  0  0  0  0  0  0  0  0  0
    7.9816  -15.6103   24.9079 C   0  0  0  0  0  0  0  0  0  0  0  0
    9.2679  -15.6235   25.6484 C   0  0  0  0  0  0  0  0  0  0  0  0
   10.2016  -16.3257   25.1886 O   0  0  0  0  0  0  0  0  0  0  0  0
    9.4410  -14.8691   26.8369 N   0  0  0  0  0  0  0  0  0  0  0  0
    8.4725  -13.9244   27.3580 C   0  0  0  0  0  0  0  0  0  0  0  0
    8.9203  -13.7246   28.7891 C   0  0  0  0  0  0  0  0  0  0  0  0
   10.4428  -13.7051   28.5982 C   0  0  0  0  0  0  0  0  0  0  0  0
   10.6023  -14.9271   27.7039 C   0  0  1  0  0  0  0  0  0  0  0  0
   10.4461  -16.1209   28.5852 C   0  0  0  0  0  0  0  0  0  0  0  0
    9.3310  -16.7054   28.6774 O   0  0  0  0  0  0  0  0  0  0  0  0
   11.4849  -16.6469   29.3354 O   0  0  0  0  0  0  0  0  0  0  0  0
  2  1  1  6
  2  3  1  0
  3  4  1  0
  4  5  2  0
  5  6  1  0
  7  6  1  0
  8  4  1  0
  8  7  2  0
  9  2  1  0
  9 11  1  0
 10  9  2  0
 12 11  1  0
 12 13  1  0
 13 15  1  0
 14 13  2  0
 15 16  1  0
 15 19  1  0
 16 17  1  0
 17 18  1  0
 19 20  1  1
 19 18  1  0
 20 22  1  0
 21 20  2  0
M  END
$$$$
