HGP.pdb
     RDKit          3D

 22 23  0  0  1  0  0  0  0  0999 V2000
    7.6335  -15.6606   19.6980 N   0  0  0  0  0  0  0  0  0  0  0  0
    8.1888  -14.3816   20.0789 C   0  0  1  0  0  0  0  0  0  0  0  0
    7.8102  -13.3002   19.0838 C   0  0  0  0  0  0  0  0  0  0  0  0
    8.2448  -13.7345   17.7423 C   0  0  0  0  0  0  0  0  0  0  0  0
    7.6533  -13.4425   16.5420 C   0  0  0  0  0  0  0  0  0  0  0  0
    8.3880  -14.0465   15.5915 N   0  0  0  0  0  0  0  0  0  0  0  0
    9.4104  -14.7009   16.1506 C   0  0  0  0  0  0  0  0  0  0  0  0
    9.3095  -14.4990   17.4848 N   0  0  0  0  0  0  0  0  0  0  0  0
    7.7210  -13.9771   21.4295 C   0  0  0  0  0  0  0  0  0  0  0  0
    8.1075  -12.9178   21.9713 O   0  0  0  0  0  0  0  0  0  0  0  0
    6.8112  -14.8285   22.1075 N   0  0  0  0  0  0  0  0  0  0  0  0
    6.3198  -14.4571   23.4142 C   0  0  0  0  0  0  0  0  0  0  0  0
    7.4340  -14.2764   24.3780 C   0  0  0  0  0  0  0  0  0  0  0  0
    8.5087  -14.8849   24.1521 O   0  0  0  0  0  0  0  0  0  0  0  0
    7.2936  -13.4447   25.5182 N   0  0  0  0  0  0  0  0  0  0  0  0
    6.0970  -12.6936   25.8441 C   0  0  0  0  0  0  0  0  0  0  0  0
    6.2997  -12.3358   27.3000 C   0  0  0  0  0  0  0  0  0  0  0  0
    7.8002  -12.0145   27.2955 C   0  0  0  0  0  0  0  0  0  0  0  0
    8.3159  -13.2208   26.5224 C   0  0  1  0  0  0  0  0  0  0  0  0
    8.2800  -14.3761   27.4658 C   0  0  0  0  0  0  0  0  0  0  0  0
    9.1793  -14.5145   28.3409 O   0  0  0  0  0  0  0  0  0  0  0  0
    7.2863  -15.3408   27.4411 O   0  0  0  0  0  0  0  0  0  0  0  0
  2  1  1  6
  2  3  1  0
  3  4  1  0
  4  5  2  0
  5  6  1  0
  7  6  1  0
  8  4  1  0
  8  7  2  0
  9  2  1  0
  9 11  1  0
 10  9  2  0
 12 11  1  0
 12 13  1  0
 13 15  1  0
 14 13  2  0
 15 16  1  0
 15 19  1  0
 16 17  1  0
 17 18  1  0
 19 20  1  1
 19 18  1  0
 20 22  1  0
 21 20  2  0
M  END
$$$$
