HGP.pdb
     RDKit          3D

 22 23  0  0  1  0  0  0  0  0999 V2000
    8.5007  -16.7153   20.4037 N   0  0  0  0  0  0  0  0  0  0  0  0
    8.0220  -15.5138   21.0493 C   0  0  1  0  0  0  0  0  0  0  0  0
    6.8106  -14.9495   20.3305 C   0  0  0  0  0  0  0  0  0  0  0  0
    7.2812  -14.2052   19.1465 C   0  0  0  0  0  0  0  0  0  0  0  0
    7.8870  -12.9771   19.1235 C   0  0  0  0  0  0  0  0  0  0  0  0
    8.1400  -12.6946   17.8335 N   0  0  0  0  0  0  0  0  0  0  0  0
    7.7171  -13.6951   17.0547 C   0  0  0  0  0  0  0  0  0  0  0  0
    7.1866  -14.6252   17.8819 N   0  0  0  0  0  0  0  0  0  0  0  0
    7.6612  -15.7764   22.4661 C   0  0  0  0  0  0  0  0  0  0  0  0
    7.0305  -16.8018   22.8067 O   0  0  0  0  0  0  0  0  0  0  0  0
    8.0511  -14.8268   23.4452 N   0  0  0  0  0  0  0  0  0  0  0  0
    7.8517  -15.1184   24.8459 C   0  0  0  0  0  0  0  0  0  0  0  0
    9.1466  -15.2903   25.5507 C   0  0  0  0  0  0  0  0  0  0  0  0
   10.0106  -16.0286   25.0172 O   0  0  0  0  0  0  0  0  0  0  0  0
    9.4037  -14.6435   26.7864 N   0  0  0  0  0  0  0  0  0  0  0  0
    8.4945  -13.7178   27.4333 C   0  0  0  0  0  0  0  0  0  0  0  0
    9.0193  -13.6518   28.8507 C   0  0  0  0  0  0  0  0  0  0  0  0
   10.5302  -13.6612   28.5827 C   0  0  0  0  0  0  0  0  0  0  0  0
   10.6040  -14.8081   27.5839 C   0  0  1  0  0  0  0  0  0  0  0  0
   10.4517  -16.0664   28.3711 C   0  0  0  0  0  0  0  0  0  0  0  0
   11.4352  -16.5520   28.9960 O   0  0  0  0  0  0  0  0  0  0  0  0
    9.2563  -16.7600   28.4625 O   0  0  0  0  0  0  0  0  0  0  0  0
  2  1  1  6
  2  3  1  0
  3  4  1  0
  4  5  2  0
  5  6  1  0
  7  6  1  0
  8  4  1  0
  8  7  2  0
  9  2  1  0
  9 11  1  0
 10  9  2  0
 12 11  1  0
 12 13  1  0
 13 15  1  0
 14 13  2  0
 15 16  1  0
 15 19  1  0
 16 17  1  0
 17 18  1  0
 19 20  1  1
 19 18  1  0
 20 22  1  0
 21 20  2  0
M  END
$$$$
