HGP.pdb
     RDKit          3D

 22 23  0  0  1  0  0  0  0  0999 V2000
    7.3230  -16.1795   20.2217 N   0  0  0  0  0  0  0  0  0  0  0  0
    7.8027  -15.1584   21.1255 C   0  0  1  0  0  0  0  0  0  0  0  0
    7.2936  -13.7864   20.7239 C   0  0  0  0  0  0  0  0  0  0  0  0
    7.7161  -13.5255   19.3344 C   0  0  0  0  0  0  0  0  0  0  0  0
    6.9524  -13.0254   18.3135 C   0  0  0  0  0  0  0  0  0  0  0  0
    7.7488  -12.9567   17.2323 N   0  0  0  0  0  0  0  0  0  0  0  0
    8.9744  -13.3930   17.5386 C   0  0  0  0  0  0  0  0  0  0  0  0
    8.9401  -13.7425   18.8452 N   0  0  0  0  0  0  0  0  0  0  0  0
    7.3789  -15.4387   22.5213 C   0  0  0  0  0  0  0  0  0  0  0  0
    6.5617  -16.3464   22.7926 O   0  0  0  0  0  0  0  0  0  0  0  0
    7.9267  -14.6448   23.5614 N   0  0  0  0  0  0  0  0  0  0  0  0
    7.7685  -15.0570   24.9369 C   0  0  0  0  0  0  0  0  0  0  0  0
    9.0805  -15.3491   25.5667 C   0  0  0  0  0  0  0  0  0  0  0  0
    9.8722  -16.1025   24.9489 O   0  0  0  0  0  0  0  0  0  0  0  0
    9.4322  -14.7973   26.8249 N   0  0  0  0  0  0  0  0  0  0  0  0
    8.6015  -13.8799   27.5802 C   0  0  0  0  0  0  0  0  0  0  0  0
    9.2040  -13.9303   28.9670 C   0  0  0  0  0  0  0  0  0  0  0  0
   10.6964  -13.9841   28.6142 C   0  0  0  0  0  0  0  0  0  0  0  0
   10.6649  -15.0640   27.5412 C   0  0  1  0  0  0  0  0  0  0  0  0
   10.4987  -16.3646   28.2532 C   0  0  0  0  0  0  0  0  0  0  0  0
    9.3618  -16.9070   28.3358 O   0  0  0  0  0  0  0  0  0  0  0  0
   11.5512  -17.0384   28.8506 O   0  0  0  0  0  0  0  0  0  0  0  0
  2  1  1  6
  2  3  1  0
  3  4  1  0
  4  5  2  0
  5  6  1  0
  7  6  1  0
  8  4  1  0
  8  7  2  0
  9  2  1  0
  9 11  1  0
 10  9  2  0
 12 11  1  0
 12 13  1  0
 13 15  1  0
 14 13  2  0
 15 16  1  0
 15 19  1  0
 16 17  1  0
 17 18  1  0
 19 20  1  1
 19 18  1  0
 20 22  1  0
 21 20  2  0
M  END
$$$$
