HGP.pdb
     RDKit          3D

 22 23  0  0  1  0  0  0  0  0999 V2000
    9.3713  -18.2115   21.6116 N   0  0  0  0  0  0  0  0  0  0  0  0
   10.0814  -16.9577   21.4965 C   0  0  1  0  0  0  0  0  0  0  0  0
    9.7358  -16.2477   20.2007 C   0  0  0  0  0  0  0  0  0  0  0  0
   10.2421  -17.0616   19.0789 C   0  0  0  0  0  0  0  0  0  0  0  0
   11.5399  -17.1811   18.6580 C   0  0  0  0  0  0  0  0  0  0  0  0
   11.5306  -18.0226   17.6094 N   0  0  0  0  0  0  0  0  0  0  0  0
   10.2824  -18.4307   17.3614 C   0  0  0  0  0  0  0  0  0  0  0  0
    9.4934  -17.8271   18.2800 N   0  0  0  0  0  0  0  0  0  0  0  0
    9.7658  -16.0588   22.6362 C   0  0  0  0  0  0  0  0  0  0  0  0
   10.3240  -14.9476   22.7737 O   0  0  0  0  0  0  0  0  0  0  0  0
    8.8026  -16.4897   23.5842 N   0  0  0  0  0  0  0  0  0  0  0  0
    8.5654  -15.7039   24.7730 C   0  0  0  0  0  0  0  0  0  0  0  0
    9.6906  -15.8257   25.7333 C   0  0  0  0  0  0  0  0  0  0  0  0
   10.5690  -16.6919   25.5000 O   0  0  0  0  0  0  0  0  0  0  0  0
    9.7747  -14.9930   26.8782 N   0  0  0  0  0  0  0  0  0  0  0  0
    8.8118  -13.9633   27.2170 C   0  0  0  0  0  0  0  0  0  0  0  0
    9.1086  -13.6784   28.6728 C   0  0  0  0  0  0  0  0  0  0  0  0
   10.6414  -13.7510   28.6579 C   0  0  0  0  0  0  0  0  0  0  0  0
   10.8268  -15.0440   27.8754 C   0  0  1  0  0  0  0  0  0  0  0  0
   10.5031  -16.1578   28.8138 C   0  0  0  0  0  0  0  0  0  0  0  0
   11.3450  -16.5305   29.6775 O   0  0  0  0  0  0  0  0  0  0  0  0
    9.2937  -16.8327   28.7964 O   0  0  0  0  0  0  0  0  0  0  0  0
  2  1  1  1
  2  3  1  0
  3  4  1  0
  4  5  2  0
  5  6  1  0
  7  6  1  0
  8  4  1  0
  8  7  2  0
  9  2  1  0
  9 11  1  0
 10  9  2  0
 12 11  1  0
 12 13  1  0
 13 15  1  0
 14 13  2  0
 15 16  1  0
 15 19  1  0
 16 17  1  0
 17 18  1  0
 19 20  1  1
 19 18  1  0
 20 22  1  0
 21 20  2  0
M  END
$$$$
