HGP.pdb
     RDKit          3D

 22 23  0  0  1  0  0  0  0  0999 V2000
    9.7044  -12.8986   20.2441 N   0  0  0  0  0  0  0  0  0  0  0  0
    8.6106  -13.5994   20.8783 C   0  0  1  0  0  0  0  0  0  0  0  0
    8.4452  -14.9941   20.3037 C   0  0  0  0  0  0  0  0  0  0  0  0
    8.3694  -14.8822   18.8343 C   0  0  0  0  0  0  0  0  0  0  0  0
    7.6184  -13.9986   18.1057 C   0  0  0  0  0  0  0  0  0  0  0  0
    7.8621  -14.2605   16.8096 N   0  0  0  0  0  0  0  0  0  0  0  0
    8.7324  -15.2691   16.7026 C   0  0  0  0  0  0  0  0  0  0  0  0
    9.0387  -15.6452   17.9657 N   0  0  0  0  0  0  0  0  0  0  0  0
    8.8233  -13.7057   22.3446 C   0  0  0  0  0  0  0  0  0  0  0  0
    9.9434  -13.5059   22.8647 O   0  0  0  0  0  0  0  0  0  0  0  0
    7.7136  -14.0442   23.1610 N   0  0  0  0  0  0  0  0  0  0  0  0
    7.8034  -13.8861   24.5941 C   0  0  0  0  0  0  0  0  0  0  0  0
    8.8426  -14.7755   25.1706 C   0  0  0  0  0  0  0  0  0  0  0  0
    9.2733  -15.7135   24.4559 O   0  0  0  0  0  0  0  0  0  0  0  0
    9.3356  -14.5758   26.4854 N   0  0  0  0  0  0  0  0  0  0  0  0
    8.8481  -13.5617   27.3997 C   0  0  0  0  0  0  0  0  0  0  0  0
    9.3719  -14.0256   28.7411 C   0  0  0  0  0  0  0  0  0  0  0  0
   10.7655  -14.5216   28.3329 C   0  0  0  0  0  0  0  0  0  0  0  0
   10.3926  -15.3482   27.1096 C   0  0  1  0  0  0  0  0  0  0  0  0
    9.7846  -16.6113   27.6206 C   0  0  0  0  0  0  0  0  0  0  0  0
    8.5328  -16.7725   27.5980 O   0  0  0  0  0  0  0  0  0  0  0  0
   10.5343  -17.6555   28.1366 O   0  0  0  0  0  0  0  0  0  0  0  0
  2  1  1  6
  2  3  1  0
  3  4  1  0
  4  5  2  0
  5  6  1  0
  7  6  1  0
  8  4  1  0
  8  7  2  0
  9  2  1  0
  9 11  1  0
 10  9  2  0
 12 11  1  0
 12 13  1  0
 13 15  1  0
 14 13  2  0
 15 16  1  0
 15 19  1  0
 16 17  1  0
 17 18  1  0
 19 20  1  1
 19 18  1  0
 20 22  1  0
 21 20  2  0
M  END
$$$$
