HGP.pdb
     RDKit          3D

 22 23  0  0  1  0  0  0  0  0999 V2000
    9.4446  -15.7042   19.6595 N   0  0  0  0  0  0  0  0  0  0  0  0
    8.4046  -14.8025   20.1010 C   0  0  1  0  0  0  0  0  0  0  0  0
    7.2773  -14.7263   19.0881 C   0  0  0  0  0  0  0  0  0  0  0  0
    7.8527  -14.3419   17.7848 C   0  0  0  0  0  0  0  0  0  0  0  0
    8.5211  -13.1860   17.4798 C   0  0  0  0  0  0  0  0  0  0  0  0
    8.8617  -13.2672   16.1816 N   0  0  0  0  0  0  0  0  0  0  0  0
    8.4332  -14.4241   15.6678 C   0  0  0  0  0  0  0  0  0  0  0  0
    7.8092  -15.0808   16.6728 N   0  0  0  0  0  0  0  0  0  0  0  0
    7.8469  -15.2305   21.4096 C   0  0  0  0  0  0  0  0  0  0  0  0
    7.9992  -16.3944   21.8424 O   0  0  0  0  0  0  0  0  0  0  0  0
    7.1249  -14.2790   22.1750 N   0  0  0  0  0  0  0  0  0  0  0  0
    6.6803  -14.6190   23.5067 C   0  0  0  0  0  0  0  0  0  0  0  0
    7.7172  -14.2992   24.5195 C   0  0  0  0  0  0  0  0  0  0  0  0
    8.8613  -14.7918   24.3626 O   0  0  0  0  0  0  0  0  0  0  0  0
    7.4293  -13.4649   25.6297 N   0  0  0  0  0  0  0  0  0  0  0  0
    6.1468  -12.8333   25.8713 C   0  0  0  0  0  0  0  0  0  0  0  0
    6.2293  -12.4296   27.3269 C   0  0  0  0  0  0  0  0  0  0  0  0
    7.6878  -11.9578   27.3968 C   0  0  0  0  0  0  0  0  0  0  0  0
    8.3651  -13.1196   26.6827 C   0  0  1  0  0  0  0  0  0  0  0  0
    8.3917  -14.2548   27.6505 C   0  0  0  0  0  0  0  0  0  0  0  0
    7.4941  -15.1419   27.6196 O   0  0  0  0  0  0  0  0  0  0  0  0
    9.3746  -14.4017   28.6155 O   0  0  0  0  0  0  0  0  0  0  0  0
  2  1  1  6
  2  3  1  0
  3  4  1  0
  4  5  2  0
  5  6  1  0
  7  6  1  0
  8  4  1  0
  8  7  2  0
  9  2  1  0
  9 11  1  0
 10  9  2  0
 12 11  1  0
 12 13  1  0
 13 15  1  0
 14 13  2  0
 15 16  1  0
 15 19  1  0
 16 17  1  0
 17 18  1  0
 19 20  1  1
 19 18  1  0
 20 22  1  0
 21 20  2  0
M  END
$$$$
