HGP.pdb
     RDKit          3D

 22 23  0  0  1  0  0  0  0  0999 V2000
    9.2077  -15.7992   20.4883 N   0  0  0  0  0  0  0  0  0  0  0  0
    8.4065  -14.9100   21.2988 C   0  0  1  0  0  0  0  0  0  0  0  0
    7.0982  -14.5682   20.6101 C   0  0  0  0  0  0  0  0  0  0  0  0
    7.4075  -14.0366   19.2688 C   0  0  0  0  0  0  0  0  0  0  0  0
    8.0939  -12.8905   18.9670 C   0  0  0  0  0  0  0  0  0  0  0  0
    8.1345  -12.8058   17.6257 N   0  0  0  0  0  0  0  0  0  0  0  0
    7.5026  -13.8504   17.0820 C   0  0  0  0  0  0  0  0  0  0  0  0
    7.0567  -14.6057   18.1123 N   0  0  0  0  0  0  0  0  0  0  0  0
    8.1092  -15.5161   22.6220 C   0  0  0  0  0  0  0  0  0  0  0  0
    7.9712  -16.7512   22.7655 O   0  0  0  0  0  0  0  0  0  0  0  0
    7.9818  -14.6543   23.7416 N   0  0  0  0  0  0  0  0  0  0  0  0
    7.8025  -15.2149   25.0609 C   0  0  0  0  0  0  0  0  0  0  0  0
    9.1074  -15.5208   25.6987 C   0  0  0  0  0  0  0  0  0  0  0  0
    9.8658  -16.3366   25.1195 O   0  0  0  0  0  0  0  0  0  0  0  0
    9.4889  -14.9137   26.9224 N   0  0  0  0  0  0  0  0  0  0  0  0
    8.7000  -13.9234   27.6286 C   0  0  0  0  0  0  0  0  0  0  0  0
    9.3093  -13.9199   29.0134 C   0  0  0  0  0  0  0  0  0  0  0  0
   10.7960  -14.0523   28.6574 C   0  0  0  0  0  0  0  0  0  0  0  0
   10.7150  -15.1885   27.6469 C   0  0  1  0  0  0  0  0  0  0  0  0
   10.5028  -16.4396   28.4317 C   0  0  0  0  0  0  0  0  0  0  0  0
    9.3457  -16.9300   28.5515 O   0  0  0  0  0  0  0  0  0  0  0  0
   11.5323  -17.1212   29.0594 O   0  0  0  0  0  0  0  0  0  0  0  0
  2  1  1  6
  2  3  1  0
  3  4  1  0
  4  5  2  0
  5  6  1  0
  7  6  1  0
  8  4  1  0
  8  7  2  0
  9  2  1  0
  9 11  1  0
 10  9  2  0
 12 11  1  0
 12 13  1  0
 13 15  1  0
 14 13  2  0
 15 16  1  0
 15 19  1  0
 16 17  1  0
 17 18  1  0
 19 20  1  1
 19 18  1  0
 20 22  1  0
 21 20  2  0
M  END
$$$$
