QGF.pdb
     RDKit          3D

 25 25  0  0  1  0  0  0  0  0999 V2000
   21.3304  -19.9449  -16.6752 N   0  0  0  0  0  0  0  0  0  0  0  0
   21.0249  -20.9522  -15.7329 C   0  0  0  0  0  0  0  0  0  0  0  0
   20.2692  -21.8789  -16.1188 O   0  0  0  0  0  0  0  0  0  0  0  0
   21.5265  -20.9820  -14.3557 C   0  0  0  0  0  0  0  0  0  0  0  0
   22.3683  -19.8515  -13.9325 C   0  0  0  0  0  0  0  0  0  0  0  0
   23.8484  -20.1018  -13.9072 C   0  0  2  0  0  0  0  0  0  0  0  0
   24.0427  -21.5699  -14.0061 N   0  0  0  0  0  0  0  0  0  0  0  0
   24.5392  -19.6043  -12.7007 C   0  0  0  0  0  0  0  0  0  0  0  0
   24.5368  -18.3535  -12.4362 O   0  0  0  0  0  0  0  0  0  0  0  0
   25.2367  -20.4023  -11.7566 N   0  0  0  0  0  0  0  0  0  0  0  0
   25.8812  -19.8410  -10.6002 C   0  0  0  0  0  0  0  0  0  0  0  0
   25.9485  -20.7359   -9.4394 C   0  0  0  0  0  0  0  0  0  0  0  0
   25.4229  -21.8885   -9.5712 O   0  0  0  0  0  0  0  0  0  0  0  0
   26.5328  -20.4486   -8.2021 N   0  0  0  0  0  0  0  0  0  0  0  0
   26.6547  -21.5103   -7.1957 C   0  0  1  0  0  0  0  0  0  0  0  0
   28.1282  -21.5693   -6.7705 C   0  0  0  0  0  0  0  0  0  0  0  0
   28.4421  -20.3612   -5.9490 C   0  0  0  0  0  0  0  0  0  0  0  0
   28.4320  -20.4142   -4.5737 C   0  0  0  0  0  0  0  0  0  0  0  0
   28.7194  -19.3088   -3.7892 C   0  0  0  0  0  0  0  0  0  0  0  0
   29.0250  -18.1182   -4.4050 C   0  0  0  0  0  0  0  0  0  0  0  0
   29.0323  -18.0757   -5.7815 C   0  0  0  0  0  0  0  0  0  0  0  0
   28.7461  -19.1770   -6.5454 C   0  0  0  0  0  0  0  0  0  0  0  0
   25.8351  -21.1870   -6.0244 C   0  0  0  0  0  0  0  0  0  0  0  0
   25.7147  -22.0204   -5.1051 O   0  0  0  0  0  0  0  0  0  0  0  0
   25.2029  -19.9563   -5.9532 O   0  0  0  0  0  0  0  0  0  0  0  0
  2  4  1  0
  2  1  1  0
  3  2  2  0
  5  4  1  0
  6  8  1  0
  6  5  1  0
  6  7  1  1
  8 10  1  0
  9  8  2  0
 10 11  1  0
 11 12  1  0
 12 13  2  0
 12 14  1  0
 14 15  1  0
 15 23  1  0
 15 16  1  1
 17 16  1  0
 18 17  2  0
 19 18  1  0
 20 19  2  0
 20 21  1  0
 21 22  2  0
 22 17  1  0
 23 24  2  0
 23 25  1  0
M  END
$$$$
