QGF.pdb
     RDKit          3D

 25 25  0  0  1  0  0  0  0  0999 V2000
   25.3064  -25.1391  -15.1942 N   0  0  0  0  0  0  0  0  0  0  0  0
   24.6772  -23.9634  -15.6609 C   0  0  0  0  0  0  0  0  0  0  0  0
   24.8962  -23.6391  -16.8550 O   0  0  0  0  0  0  0  0  0  0  0  0
   23.7998  -23.1126  -14.8513 C   0  0  0  0  0  0  0  0  0  0  0  0
   24.2055  -21.7075  -14.6884 C   0  0  0  0  0  0  0  0  0  0  0  0
   25.6760  -21.4262  -14.7995 C   0  0  2  0  0  0  0  0  0  0  0  0
   26.3427  -22.7151  -15.1116 N   0  0  0  0  0  0  0  0  0  0  0  0
   26.2884  -20.8480  -13.5867 C   0  0  0  0  0  0  0  0  0  0  0  0
   25.9095  -19.7014  -13.1671 O   0  0  0  0  0  0  0  0  0  0  0  0
   27.2987  -21.4571  -12.7974 N   0  0  0  0  0  0  0  0  0  0  0  0
   27.7391  -20.9009  -11.5466 C   0  0  0  0  0  0  0  0  0  0  0  0
   26.8194  -21.1111  -10.4229 C   0  0  0  0  0  0  0  0  0  0  0  0
   25.7072  -21.6724  -10.6878 O   0  0  0  0  0  0  0  0  0  0  0  0
   27.0430  -20.7560   -9.0891 N   0  0  0  0  0  0  0  0  0  0  0  0
   26.0373  -21.0903   -8.0733 C   0  0  1  0  0  0  0  0  0  0  0  0
   26.7909  -21.5753   -6.8274 C   0  0  0  0  0  0  0  0  0  0  0  0
   27.5920  -20.4408   -6.2759 C   0  0  0  0  0  0  0  0  0  0  0  0
   28.8611  -20.1757   -6.7379 C   0  0  0  0  0  0  0  0  0  0  0  0
   29.6244  -19.1302   -6.2434 C   0  0  0  0  0  0  0  0  0  0  0  0
   29.0966  -18.3302   -5.2578 C   0  0  0  0  0  0  0  0  0  0  0  0
   27.8260  -18.6039   -4.8024 C   0  0  0  0  0  0  0  0  0  0  0  0
   27.0819  -19.6414   -5.3005 C   0  0  0  0  0  0  0  0  0  0  0  0
   25.2615  -19.8968   -7.7243 C   0  0  0  0  0  0  0  0  0  0  0  0
   25.6648  -18.7717   -8.0791 O   0  0  0  0  0  0  0  0  0  0  0  0
   24.0868  -20.0339   -7.0028 O   0  0  0  0  0  0  0  0  0  0  0  0
  2  4  1  0
  2  1  1  0
  3  2  2  0
  5  4  1  0
  6  8  1  0
  6  5  1  0
  6  7  1  1
  8 10  1  0
  9  8  2  0
 10 11  1  0
 11 12  1  0
 12 13  2  0
 12 14  1  0
 14 15  1  0
 15 23  1  0
 15 16  1  1
 17 16  1  0
 18 17  2  0
 19 18  1  0
 20 19  2  0
 20 21  1  0
 21 22  2  0
 22 17  1  0
 23 24  2  0
 23 25  1  0
M  END
$$$$
