QGF.pdb
     RDKit          3D

 25 25  0  0  1  0  0  0  0  0999 V2000
   27.2452  -14.0847  -22.2418 N   0  0  0  0  0  0  0  0  0  0  0  0
   27.1014  -13.3182  -21.0637 C   0  0  0  0  0  0  0  0  0  0  0  0
   26.4430  -12.2522  -21.1580 O   0  0  0  0  0  0  0  0  0  0  0  0
   27.6641  -13.6837  -19.7603 C   0  0  0  0  0  0  0  0  0  0  0  0
   27.5487  -12.6854  -18.6853 C   0  0  0  0  0  0  0  0  0  0  0  0
   27.3440  -13.2258  -17.2996 C   0  0  2  0  0  0  0  0  0  0  0  0
   26.5719  -14.4862  -17.4344 N   0  0  0  0  0  0  0  0  0  0  0  0
   26.6280  -12.3178  -16.3813 C   0  0  0  0  0  0  0  0  0  0  0  0
   25.5118  -12.6776  -15.8724 O   0  0  0  0  0  0  0  0  0  0  0  0
   27.0666  -11.0284  -15.9816 N   0  0  0  0  0  0  0  0  0  0  0  0
   26.3014  -10.1954  -15.0937 C   0  0  0  0  0  0  0  0  0  0  0  0
   25.2396   -9.4181  -15.7428 C   0  0  0  0  0  0  0  0  0  0  0  0
   25.2446   -9.3901  -17.0161 O   0  0  0  0  0  0  0  0  0  0  0  0
   24.2224   -8.7046  -15.1017 N   0  0  0  0  0  0  0  0  0  0  0  0
   23.1651   -8.0752  -15.9024 C   0  0  1  0  0  0  0  0  0  0  0  0
   22.3969   -9.2003  -16.6091 C   0  0  0  0  0  0  0  0  0  0  0  0
   21.2594   -8.6027  -17.3720 C   0  0  0  0  0  0  0  0  0  0  0  0
   19.9540   -8.8586  -17.0190 C   0  0  0  0  0  0  0  0  0  0  0  0
   18.8817   -8.3170  -17.7096 C   0  0  0  0  0  0  0  0  0  0  0  0
   19.1296   -7.4961  -18.7842 C   0  0  0  0  0  0  0  0  0  0  0  0
   20.4392   -7.2464  -19.1292 C   0  0  0  0  0  0  0  0  0  0  0  0
   21.4906   -7.7888  -18.4372 C   0  0  0  0  0  0  0  0  0  0  0  0
   22.2417   -7.3460  -15.0285 C   0  0  0  0  0  0  0  0  0  0  0  0
   21.8054   -6.2328  -15.3816 O   0  0  0  0  0  0  0  0  0  0  0  0
   21.8641   -7.9042  -13.8180 O   0  0  0  0  0  0  0  0  0  0  0  0
  2  4  1  0
  2  1  1  0
  3  2  2  0
  5  4  1  0
  6  8  1  0
  6  5  1  0
  6  7  1  6
  8 10  1  0
  9  8  2  0
 10 11  1  0
 11 12  1  0
 12 13  2  0
 12 14  1  0
 14 15  1  0
 15 23  1  0
 15 16  1  1
 17 16  1  0
 18 17  2  0
 19 18  1  0
 20 19  2  0
 20 21  1  0
 21 22  2  0
 22 17  1  0
 23 24  2  0
 23 25  1  0
M  END
$$$$
