QGF.pdb
     RDKit          3D

 25 25  0  0  1  0  0  0  0  0999 V2000
   29.5262  -18.7625  -19.5620 N   0  0  0  0  0  0  0  0  0  0  0  0
   29.0023  -20.0542  -19.7924 C   0  0  0  0  0  0  0  0  0  0  0  0
   29.4254  -20.6650  -20.8057 O   0  0  0  0  0  0  0  0  0  0  0  0
   28.0119  -20.7145  -18.9366 C   0  0  0  0  0  0  0  0  0  0  0  0
   27.6073  -19.9977  -17.7167 C   0  0  0  0  0  0  0  0  0  0  0  0
   27.9811  -20.6444  -16.4145 C   0  0  2  0  0  0  0  0  0  0  0  0
   26.9879  -21.7179  -16.1614 N   0  0  0  0  0  0  0  0  0  0  0  0
   28.0085  -19.7301  -15.2554 C   0  0  0  0  0  0  0  0  0  0  0  0
   27.8853  -18.4704  -15.4354 O   0  0  0  0  0  0  0  0  0  0  0  0
   28.1619  -20.1166  -13.8982 N   0  0  0  0  0  0  0  0  0  0  0  0
   27.5098  -19.4221  -12.8211 C   0  0  0  0  0  0  0  0  0  0  0  0
   26.6654  -20.2660  -11.9680 C   0  0  0  0  0  0  0  0  0  0  0  0
   26.5581  -21.4914  -12.2981 O   0  0  0  0  0  0  0  0  0  0  0  0
   25.9665  -19.8579  -10.8278 N   0  0  0  0  0  0  0  0  0  0  0  0
   25.1289  -20.8251  -10.1082 C   0  0  1  0  0  0  0  0  0  0  0  0
   25.0085  -20.3351   -8.6588 C   0  0  0  0  0  0  0  0  0  0  0  0
   26.3767  -20.2450   -8.0647 C   0  0  0  0  0  0  0  0  0  0  0  0
   27.1972  -21.3480   -7.9982 C   0  0  0  0  0  0  0  0  0  0  0  0
   28.4696  -21.2910   -7.4525 C   0  0  0  0  0  0  0  0  0  0  0  0
   28.9286  -20.0922   -6.9605 C   0  0  0  0  0  0  0  0  0  0  0  0
   28.0999  -18.9946   -7.0318 C   0  0  0  0  0  0  0  0  0  0  0  0
   26.8433  -19.0650   -7.5743 C   0  0  0  0  0  0  0  0  0  0  0  0
   23.7916  -20.8723  -10.7060 C   0  0  0  0  0  0  0  0  0  0  0  0
   23.4954  -20.0799  -11.6217 O   0  0  0  0  0  0  0  0  0  0  0  0
   22.8708  -21.7993  -10.2450 O   0  0  0  0  0  0  0  0  0  0  0  0
  2  4  1  0
  2  1  1  0
  3  2  2  0
  5  4  1  0
  6  8  1  0
  6  5  1  0
  6  7  1  1
  8 10  1  0
  9  8  2  0
 10 11  1  0
 11 12  1  0
 12 13  2  0
 12 14  1  0
 14 15  1  0
 15 23  1  0
 15 16  1  1
 17 16  1  0
 18 17  2  0
 19 18  1  0
 20 19  2  0
 20 21  1  0
 21 22  2  0
 22 17  1  0
 23 24  2  0
 23 25  1  0
M  END
$$$$
