QGF.pdb
     RDKit          3D

 25 25  0  0  1  0  0  0  0  0999 V2000
   29.0072  -17.8606  -16.5784 N   0  0  0  0  0  0  0  0  0  0  0  0
   28.5536  -16.5930  -17.0068 C   0  0  0  0  0  0  0  0  0  0  0  0
   29.2229  -16.0258  -17.9063 O   0  0  0  0  0  0  0  0  0  0  0  0
   27.3705  -15.9100  -16.4749 C   0  0  0  0  0  0  0  0  0  0  0  0
   26.5943  -16.6290  -15.4520 C   0  0  0  0  0  0  0  0  0  0  0  0
   25.4153  -17.4154  -15.9475 C   0  0  2  0  0  0  0  0  0  0  0  0
   24.2686  -17.0813  -15.0663 N   0  0  0  0  0  0  0  0  0  0  0  0
   25.6073  -18.8794  -15.9544 C   0  0  0  0  0  0  0  0  0  0  0  0
   26.5019  -19.4004  -16.7045 O   0  0  0  0  0  0  0  0  0  0  0  0
   24.8730  -19.8154  -15.1802 N   0  0  0  0  0  0  0  0  0  0  0  0
   25.1051  -21.2322  -15.2606 C   0  0  0  0  0  0  0  0  0  0  0  0
   25.5023  -21.8624  -13.9965 C   0  0  0  0  0  0  0  0  0  0  0  0
   25.6585  -23.1264  -14.0088 O   0  0  0  0  0  0  0  0  0  0  0  0
   25.7263  -21.2125  -12.7790 N   0  0  0  0  0  0  0  0  0  0  0  0
   25.3664  -21.8837  -11.5239 C   0  0  1  0  0  0  0  0  0  0  0  0
   26.6180  -21.8924  -10.6358 C   0  0  0  0  0  0  0  0  0  0  0  0
   26.4518  -20.8713   -9.5576 C   0  0  0  0  0  0  0  0  0  0  0  0
   26.7007  -19.5387   -9.7958 C   0  0  0  0  0  0  0  0  0  0  0  0
   26.5542  -18.5723   -8.8136 C   0  0  0  0  0  0  0  0  0  0  0  0
   26.1464  -18.9570   -7.5583 C   0  0  0  0  0  0  0  0  0  0  0  0
   25.9000  -20.2926   -7.3304 C   0  0  0  0  0  0  0  0  0  0  0  0
   26.0490  -21.2382   -8.3112 C   0  0  0  0  0  0  0  0  0  0  0  0
   24.3058  -21.1363  -10.8423 C   0  0  0  0  0  0  0  0  0  0  0  0
   23.7054  -21.6537   -9.8800 O   0  0  0  0  0  0  0  0  0  0  0  0
   23.9829  -19.8610  -11.2768 O   0  0  0  0  0  0  0  0  0  0  0  0
  2  4  1  0
  2  1  1  0
  3  2  2  0
  5  4  1  0
  6  8  1  0
  6  5  1  0
  6  7  1  1
  8 10  1  0
  9  8  2  0
 10 11  1  0
 11 12  1  0
 12 13  2  0
 12 14  1  0
 14 15  1  0
 15 23  1  0
 15 16  1  1
 17 16  1  0
 18 17  2  0
 19 18  1  0
 20 19  2  0
 20 21  1  0
 21 22  2  0
 22 17  1  0
 23 24  2  0
 23 25  1  0
M  END
$$$$
