QGF.pdb
     RDKit          3D

 25 25  0  0  1  0  0  0  0  0999 V2000
   23.1581  -19.0594  -15.7479 N   0  0  0  0  0  0  0  0  0  0  0  0
   21.8202  -18.8387  -15.3513 C   0  0  0  0  0  0  0  0  0  0  0  0
   20.9812  -18.6501  -16.2675 O   0  0  0  0  0  0  0  0  0  0  0  0
   21.3584  -18.8161  -13.9601 C   0  0  0  0  0  0  0  0  0  0  0  0
   22.3603  -19.1147  -12.9245 C   0  0  0  0  0  0  0  0  0  0  0  0
   22.6299  -20.5686  -12.6643 C   0  0  2  0  0  0  0  0  0  0  0  0
   21.8042  -20.9612  -11.4951 N   0  0  0  0  0  0  0  0  0  0  0  0
   24.0430  -20.8957  -12.3881 C   0  0  0  0  0  0  0  0  0  0  0  0
   24.9691  -20.3566  -13.0854 O   0  0  0  0  0  0  0  0  0  0  0  0
   24.5070  -21.7842  -11.3831 N   0  0  0  0  0  0  0  0  0  0  0  0
   25.8975  -22.1181  -11.2324 C   0  0  0  0  0  0  0  0  0  0  0  0
   26.6647  -21.1905  -10.3933 C   0  0  0  0  0  0  0  0  0  0  0  0
   26.0384  -20.1833   -9.9293 O   0  0  0  0  0  0  0  0  0  0  0  0
   28.0161  -21.3029  -10.0525 N   0  0  0  0  0  0  0  0  0  0  0  0
   28.5249  -20.5970   -8.8702 C   0  0  1  0  0  0  0  0  0  0  0  0
   27.7779  -21.1528   -7.6502 C   0  0  0  0  0  0  0  0  0  0  0  0
   28.2282  -20.4150   -6.4313 C   0  0  0  0  0  0  0  0  0  0  0  0
   29.1713  -20.9504   -5.5837 C   0  0  0  0  0  0  0  0  0  0  0  0
   29.6057  -20.2869   -4.4475 C   0  0  0  0  0  0  0  0  0  0  0  0
   29.0771  -19.0517   -4.1562 C   0  0  0  0  0  0  0  0  0  0  0  0
   28.1342  -18.5248   -5.0105 C   0  0  0  0  0  0  0  0  0  0  0  0
   27.7134  -19.1920   -6.1312 C   0  0  0  0  0  0  0  0  0  0  0  0
   29.9580  -20.8581   -8.7089 C   0  0  0  0  0  0  0  0  0  0  0  0
   30.4161  -21.9844   -8.9846 O   0  0  0  0  0  0  0  0  0  0  0  0
   30.7880  -19.8477   -8.2508 O   0  0  0  0  0  0  0  0  0  0  0  0
  2  4  1  0
  2  1  1  0
  3  2  2  0
  5  4  1  0
  6  8  1  0
  6  5  1  0
  6  7  1  1
  8 10  1  0
  9  8  2  0
 10 11  1  0
 11 12  1  0
 12 13  2  0
 12 14  1  0
 14 15  1  0
 15 23  1  0
 15 16  1  1
 17 16  1  0
 18 17  2  0
 19 18  1  0
 20 19  2  0
 20 21  1  0
 21 22  2  0
 22 17  1  0
 23 24  2  0
 23 25  1  0
M  END
$$$$
