QGF.pdb
     RDKit          3D

 25 25  0  0  1  0  0  0  0  0999 V2000
   27.7381  -16.9273  -17.0384 N   0  0  0  0  0  0  0  0  0  0  0  0
   26.5533  -17.1522  -17.7743 C   0  0  0  0  0  0  0  0  0  0  0  0
   26.6666  -17.2201  -19.0239 O   0  0  0  0  0  0  0  0  0  0  0  0
   25.2223  -17.3082  -17.1799 C   0  0  0  0  0  0  0  0  0  0  0  0
   25.1657  -17.4923  -15.7210 C   0  0  0  0  0  0  0  0  0  0  0  0
   25.5829  -18.8400  -15.2074 C   0  0  2  0  0  0  0  0  0  0  0  0
   24.4804  -19.7839  -15.5181 N   0  0  0  0  0  0  0  0  0  0  0  0
   25.8659  -18.8893  -13.7591 C   0  0  0  0  0  0  0  0  0  0  0  0
   24.9103  -18.7639  -12.9192 O   0  0  0  0  0  0  0  0  0  0  0  0
   27.1444  -19.0719  -13.1701 N   0  0  0  0  0  0  0  0  0  0  0  0
   27.3788  -18.8831  -11.7640 C   0  0  0  0  0  0  0  0  0  0  0  0
   26.8736  -19.9613  -10.9067 C   0  0  0  0  0  0  0  0  0  0  0  0
   26.3616  -20.9694  -11.4929 O   0  0  0  0  0  0  0  0  0  0  0  0
   26.8987  -19.9918   -9.5090 N   0  0  0  0  0  0  0  0  0  0  0  0
   26.3815  -21.1697   -8.8019 C   0  0  1  0  0  0  0  0  0  0  0  0
   27.5024  -21.6817   -7.8872 C   0  0  0  0  0  0  0  0  0  0  0  0
   27.8189  -20.6283   -6.8757 C   0  0  0  0  0  0  0  0  0  0  0  0
   28.4961  -19.4834   -7.2292 C   0  0  0  0  0  0  0  0  0  0  0  0
   28.8016  -18.4919   -6.3108 C   0  0  0  0  0  0  0  0  0  0  0  0
   28.4155  -18.6567   -5.0017 C   0  0  0  0  0  0  0  0  0  0  0  0
   27.7384  -19.8057   -4.6583 C   0  0  0  0  0  0  0  0  0  0  0  0
   27.4426  -20.7787   -5.5771 C   0  0  0  0  0  0  0  0  0  0  0  0
   25.2301  -20.7933   -7.9768 C   0  0  0  0  0  0  0  0  0  0  0  0
   24.8684  -19.6012   -7.9272 O   0  0  0  0  0  0  0  0  0  0  0  0
   24.5564  -21.7692   -7.2603 O   0  0  0  0  0  0  0  0  0  0  0  0
  2  4  1  0
  2  1  1  0
  3  2  2  0
  5  4  1  0
  6  8  1  0
  6  5  1  0
  6  7  1  1
  8 10  1  0
  9  8  2  0
 10 11  1  0
 11 12  1  0
 12 13  2  0
 12 14  1  0
 14 15  1  0
 15 23  1  0
 15 16  1  1
 17 16  1  0
 18 17  2  0
 19 18  1  0
 20 19  2  0
 20 21  1  0
 21 22  2  0
 22 17  1  0
 23 24  2  0
 23 25  1  0
M  END
$$$$
