QGF.pdb
     RDKit          3D

 25 25  0  0  1  0  0  0  0  0999 V2000
   17.3581  -12.3523  -21.0931 N   0  0  0  0  0  0  0  0  0  0  0  0
   16.8717  -12.2110  -19.7742 C   0  0  0  0  0  0  0  0  0  0  0  0
   15.6319  -12.0561  -19.6410 O   0  0  0  0  0  0  0  0  0  0  0  0
   17.7103  -12.2331  -18.5720 C   0  0  0  0  0  0  0  0  0  0  0  0
   17.3466  -11.3006  -17.4932 C   0  0  0  0  0  0  0  0  0  0  0  0
   17.6537   -9.8518  -17.7393 C   0  0  2  0  0  0  0  0  0  0  0  0
   19.1244   -9.7415  -17.9056 N   0  0  0  0  0  0  0  0  0  0  0  0
   17.2201   -8.9365  -16.6648 C   0  0  0  0  0  0  0  0  0  0  0  0
   15.9952   -8.9194  -16.2991 O   0  0  0  0  0  0  0  0  0  0  0  0
   18.0559   -8.0323  -15.9587 N   0  0  0  0  0  0  0  0  0  0  0  0
   17.9489   -7.8331  -14.5387 C   0  0  0  0  0  0  0  0  0  0  0  0
   18.9175   -6.8851  -13.9766 C   0  0  0  0  0  0  0  0  0  0  0  0
   18.8167   -6.6302  -12.7328 O   0  0  0  0  0  0  0  0  0  0  0  0
   19.9408   -6.2333  -14.6715 N   0  0  0  0  0  0  0  0  0  0  0  0
   20.8496   -5.3363  -13.9472 C   0  0  1  0  0  0  0  0  0  0  0  0
   22.2802   -5.8248  -14.2121 C   0  0  0  0  0  0  0  0  0  0  0  0
   22.3633   -7.2788  -13.8775 C   0  0  0  0  0  0  0  0  0  0  0  0
   22.3453   -7.7099  -12.5705 C   0  0  0  0  0  0  0  0  0  0  0  0
   22.4210   -9.0519  -12.2337 C   0  0  0  0  0  0  0  0  0  0  0  0
   22.5173   -9.9849  -13.2387 C   0  0  0  0  0  0  0  0  0  0  0  0
   22.5345   -9.5433  -14.5430 C   0  0  0  0  0  0  0  0  0  0  0  0
   22.4589   -8.2126  -14.8621 C   0  0  0  0  0  0  0  0  0  0  0  0
   20.7134   -3.9682  -14.4550 C   0  0  0  0  0  0  0  0  0  0  0  0
   19.9379   -3.7349  -15.4028 O   0  0  0  0  0  0  0  0  0  0  0  0
   21.4500   -2.9487  -13.8739 O   0  0  0  0  0  0  0  0  0  0  0  0
  2  4  1  0
  2  1  1  0
  3  2  2  0
  5  4  1  0
  6  8  1  0
  6  5  1  0
  6  7  1  1
  8 10  1  0
  9  8  2  0
 10 11  1  0
 11 12  1  0
 12 13  2  0
 12 14  1  0
 14 15  1  0
 15 23  1  0
 15 16  1  6
 17 16  1  0
 18 17  2  0
 19 18  1  0
 20 19  2  0
 20 21  1  0
 21 22  2  0
 22 17  1  0
 23 24  2  0
 23 25  1  0
M  END
$$$$
