QGF.pdb
     RDKit          3D

 25 25  0  0  1  0  0  0  0  0999 V2000
   20.6291  -20.5798  -13.4569 N   0  0  0  0  0  0  0  0  0  0  0  0
   20.8943  -20.6591  -14.8424 C   0  0  0  0  0  0  0  0  0  0  0  0
   20.0840  -21.3216  -15.5376 O   0  0  0  0  0  0  0  0  0  0  0  0
   22.0376  -20.0269  -15.5074 C   0  0  0  0  0  0  0  0  0  0  0  0
   22.9492  -19.2446  -14.6574 C   0  0  0  0  0  0  0  0  0  0  0  0
   24.3723  -19.7195  -14.6007 C   0  0  2  0  0  0  0  0  0  0  0  0
   24.3563  -21.1755  -14.8885 N   0  0  0  0  0  0  0  0  0  0  0  0
   25.0495  -19.4909  -13.3086 C   0  0  0  0  0  0  0  0  0  0  0  0
   25.1554  -18.3035  -12.8469 O   0  0  0  0  0  0  0  0  0  0  0  0
   25.6209  -20.4945  -12.4834 N   0  0  0  0  0  0  0  0  0  0  0  0
   25.0546  -20.8624  -11.2138 C   0  0  0  0  0  0  0  0  0  0  0  0
   26.0344  -21.0751  -10.1425 C   0  0  0  0  0  0  0  0  0  0  0  0
   27.1297  -21.6371  -10.4689 O   0  0  0  0  0  0  0  0  0  0  0  0
   25.8846  -20.7217   -8.7980 N   0  0  0  0  0  0  0  0  0  0  0  0
   26.6652  -21.4264   -7.7737 C   0  0  1  0  0  0  0  0  0  0  0  0
   28.1038  -20.8978   -7.8523 C   0  0  0  0  0  0  0  0  0  0  0  0
   28.4480  -20.2406   -6.5552 C   0  0  0  0  0  0  0  0  0  0  0  0
   29.1829  -20.9004   -5.5966 C   0  0  0  0  0  0  0  0  0  0  0  0
   29.5152  -20.3136   -4.3861 C   0  0  0  0  0  0  0  0  0  0  0  0
   29.0970  -19.0286   -4.1334 C   0  0  0  0  0  0  0  0  0  0  0  0
   28.3623  -18.3772   -5.0990 C   0  0  0  0  0  0  0  0  0  0  0  0
   28.0405  -18.9696   -6.2922 C   0  0  0  0  0  0  0  0  0  0  0  0
   26.1243  -21.1351   -6.4430 C   0  0  0  0  0  0  0  0  0  0  0  0
   26.5969  -21.7117   -5.4438 O   0  0  0  0  0  0  0  0  0  0  0  0
   25.0922  -20.2202   -6.3117 O   0  0  0  0  0  0  0  0  0  0  0  0
  2  4  1  0
  2  1  1  0
  3  2  2  0
  5  4  1  0
  6  8  1  0
  6  5  1  0
  6  7  1  1
  8 10  1  0
  9  8  2  0
 10 11  1  0
 11 12  1  0
 12 13  2  0
 12 14  1  0
 14 15  1  0
 15 23  1  0
 15 16  1  1
 17 16  1  0
 18 17  2  0
 19 18  1  0
 20 19  2  0
 20 21  1  0
 21 22  2  0
 22 17  1  0
 23 24  2  0
 23 25  1  0
M  END
$$$$
