QGF.pdb
     RDKit          3D

 25 25  0  0  1  0  0  0  0  0999 V2000
   27.6181  -25.2288  -16.5092 N   0  0  0  0  0  0  0  0  0  0  0  0
   27.1839  -24.0741  -17.1978 C   0  0  0  0  0  0  0  0  0  0  0  0
   27.6653  -23.8824  -18.3425 O   0  0  0  0  0  0  0  0  0  0  0  0
   26.2230  -23.1022  -16.6677 C   0  0  0  0  0  0  0  0  0  0  0  0
   26.5350  -21.6795  -16.8782 C   0  0  0  0  0  0  0  0  0  0  0  0
   27.7681  -21.1643  -16.1940 C   0  0  2  0  0  0  0  0  0  0  0  0
   28.6001  -22.3447  -15.8510 N   0  0  0  0  0  0  0  0  0  0  0  0
   27.5138  -20.3813  -14.9683 C   0  0  0  0  0  0  0  0  0  0  0  0
   26.8109  -19.3151  -15.0285 O   0  0  0  0  0  0  0  0  0  0  0  0
   27.9857  -20.7002  -13.6681 N   0  0  0  0  0  0  0  0  0  0  0  0
   27.6608  -19.9058  -12.5144 C   0  0  0  0  0  0  0  0  0  0  0  0
   26.6310  -20.4817  -11.6421 C   0  0  0  0  0  0  0  0  0  0  0  0
   26.2084  -21.6451  -11.9424 O   0  0  0  0  0  0  0  0  0  0  0  0
   26.0673  -19.8795  -10.5131 N   0  0  0  0  0  0  0  0  0  0  0  0
   25.1438  -20.6473   -9.6690 C   0  0  1  0  0  0  0  0  0  0  0  0
   25.1384  -19.9892   -8.2826 C   0  0  0  0  0  0  0  0  0  0  0  0
   26.5332  -19.9821   -7.7464 C   0  0  0  0  0  0  0  0  0  0  0  0
   27.1453  -18.8075   -7.3722 C   0  0  0  0  0  0  0  0  0  0  0  0
   28.4372  -18.7738   -6.8723 C   0  0  0  0  0  0  0  0  0  0  0  0
   29.1317  -19.9534   -6.7455 C   0  0  0  0  0  0  0  0  0  0  0  0
   28.5104  -21.1231   -7.1227 C   0  0  0  0  0  0  0  0  0  0  0  0
   27.2317  -21.1421   -7.6157 C   0  0  0  0  0  0  0  0  0  0  0  0
   23.7897  -20.5901  -10.2269 C   0  0  0  0  0  0  0  0  0  0  0  0
   23.5613  -19.8767  -11.2235 O   0  0  0  0  0  0  0  0  0  0  0  0
   22.7779  -21.3314   -9.6386 O   0  0  0  0  0  0  0  0  0  0  0  0
  2  4  1  0
  2  1  1  0
  3  2  2  0
  5  4  1  0
  6  8  1  0
  6  5  1  0
  6  7  1  1
  8 10  1  0
  9  8  2  0
 10 11  1  0
 11 12  1  0
 12 13  2  0
 12 14  1  0
 14 15  1  0
 15 23  1  0
 15 16  1  1
 17 16  1  0
 18 17  2  0
 19 18  1  0
 20 19  2  0
 20 21  1  0
 21 22  2  0
 22 17  1  0
 23 24  2  0
 23 25  1  0
M  END
$$$$
