QGF.pdb
     RDKit          3D

 25 25  0  0  1  0  0  0  0  0999 V2000
   20.0591  -17.9385  -14.8332 N   0  0  0  0  0  0  0  0  0  0  0  0
   21.3622  -18.2108  -15.3064 C   0  0  0  0  0  0  0  0  0  0  0  0
   22.1190  -17.2234  -15.4827 O   0  0  0  0  0  0  0  0  0  0  0  0
   21.8768  -19.5518  -15.5997 C   0  0  0  0  0  0  0  0  0  0  0  0
   23.1339  -19.9382  -14.9395 C   0  0  0  0  0  0  0  0  0  0  0  0
   23.0285  -20.3322  -13.4946 C   0  0  2  0  0  0  0  0  0  0  0  0
   22.2425  -19.2744  -12.8118 N   0  0  0  0  0  0  0  0  0  0  0  0
   24.3224  -20.4943  -12.8018 C   0  0  0  0  0  0  0  0  0  0  0  0
   25.0201  -21.5480  -12.9950 O   0  0  0  0  0  0  0  0  0  0  0  0
   24.9043  -19.5618  -11.9037 N   0  0  0  0  0  0  0  0  0  0  0  0
   26.1710  -19.7953  -11.2646 C   0  0  0  0  0  0  0  0  0  0  0  0
   26.0980  -20.5707  -10.0210 C   0  0  0  0  0  0  0  0  0  0  0  0
   25.2752  -21.5425   -9.9973 O   0  0  0  0  0  0  0  0  0  0  0  0
   26.8428  -20.3483   -8.8588 N   0  0  0  0  0  0  0  0  0  0  0  0
   26.7758  -21.3194   -7.7599 C   0  0  1  0  0  0  0  0  0  0  0  0
   28.2059  -21.5199   -7.2403 C   0  0  0  0  0  0  0  0  0  0  0  0
   28.5133  -20.4467   -6.2470 C   0  0  0  0  0  0  0  0  0  0  0  0
   28.6258  -20.7308   -4.9050 C   0  0  0  0  0  0  0  0  0  0  0  0
   28.9101  -19.7542   -3.9639 C   0  0  0  0  0  0  0  0  0  0  0  0
   29.0858  -18.4572   -4.3844 C   0  0  0  0  0  0  0  0  0  0  0  0
   28.9711  -18.1834   -5.7292 C   0  0  0  0  0  0  0  0  0  0  0  0
   28.6895  -19.1592   -6.6494 C   0  0  0  0  0  0  0  0  0  0  0  0
   25.9458  -20.7907   -6.6738 C   0  0  0  0  0  0  0  0  0  0  0  0
   25.6257  -21.5315   -5.7236 O   0  0  0  0  0  0  0  0  0  0  0  0
   25.5261  -19.4710   -6.7168 O   0  0  0  0  0  0  0  0  0  0  0  0
  2  4  1  0
  2  1  1  0
  3  2  2  0
  5  4  1  0
  6  8  1  0
  6  5  1  0
  6  7  1  1
  8 10  1  0
  9  8  2  0
 10 11  1  0
 11 12  1  0
 12 13  2  0
 12 14  1  0
 14 15  1  0
 15 23  1  0
 15 16  1  1
 17 16  1  0
 18 17  2  0
 19 18  1  0
 20 19  2  0
 20 21  1  0
 21 22  2  0
 22 17  1  0
 23 24  2  0
 23 25  1  0
M  END
$$$$
