FKS.pdb
     RDKit          3D

 27 27  0  0  1  0  0  0  0  0999 V2000
    6.1715  -16.9739   25.7357 N   0  0  0  0  0  0  0  0  0  0  0  0
    7.1064  -16.1221   25.0422 C   0  0  1  0  0  0  0  0  0  0  0  0
    7.8978  -15.2939   26.0342 C   0  0  0  0  0  0  0  0  0  0  0  0
    7.4105  -13.8908   25.9556 C   0  0  0  0  0  0  0  0  0  0  0  0
    7.9600  -12.9902   25.0656 C   0  0  0  0  0  0  0  0  0  0  0  0
    7.4946  -11.6938   25.0076 C   0  0  0  0  0  0  0  0  0  0  0  0
    6.4778  -11.2624   25.8277 C   0  0  0  0  0  0  0  0  0  0  0  0
    5.9277  -12.1664   26.7197 C   0  0  0  0  0  0  0  0  0  0  0  0
    6.3874  -13.4715   26.7865 C   0  0  0  0  0  0  0  0  0  0  0  0
    8.0772  -16.9841   24.3266 C   0  0  0  0  0  0  0  0  0  0  0  0
    8.4333  -18.0885   24.8065 O   0  0  0  0  0  0  0  0  0  0  0  0
    8.6150  -16.5657   23.0865 N   0  0  0  0  0  0  0  0  0  0  0  0
    9.5676  -17.4174   22.4141 C   0  0  1  0  0  0  0  0  0  0  0  0
    9.5581  -17.1866   20.9210 C   0  0  0  0  0  0  0  0  0  0  0  0
    8.4124  -17.8092   20.2204 C   0  0  0  0  0  0  0  0  0  0  0  0
    8.5348  -17.6198   18.7348 C   0  0  0  0  0  0  0  0  0  0  0  0
    7.4254  -18.3775   18.0461 C   0  0  0  0  0  0  0  0  0  0  0  0
    7.4122  -18.1042   16.6129 N   0  0  0  0  0  0  0  0  0  0  0  0
   10.8911  -17.3188   23.0229 C   0  0  0  0  0  0  0  0  0  0  0  0
   11.4839  -16.2460   23.2935 O   0  0  0  0  0  0  0  0  0  0  0  0
   12.4136  -20.6289   24.8219 O   0  0  0  0  0  0  0  0  0  0  0  0
   13.0260  -19.4122   25.1178 C   0  0  0  0  0  0  0  0  0  0  0  0
   12.9019  -18.5333   23.8798 C   0  0  2  0  0  0  0  0  0  0  0  0
   11.5751  -18.5236   23.3400 N   0  0  0  0  0  0  0  0  0  0  0  0
   13.8769  -18.8994   22.8475 C   0  0  0  0  0  0  0  0  0  0  0  0
   15.2475  -18.8915   23.1009 O   0  0  0  0  0  0  0  0  0  0  0  0
   13.4775  -19.2304   21.7015 O   0  0  0  0  0  0  0  0  0  0  0  0
  2  3  1  0
  2  1  1  1
  4  3  1  0
  5  4  2  0
  6  5  1  0
  7  8  1  0
  7  6  2  0
  8  9  2  0
  9  4  1  0
 10  2  1  0
 11 10  2  0
 12 10  1  0
 13 19  1  0
 13 12  1  0
 13 14  1  6
 15 14  1  0
 16 15  1  0
 17 16  1  0
 18 17  1  0
 19 24  1  0
 20 19  2  0
 22 21  1  0
 23 22  1  1
 23 25  1  0
 24 23  1  0
 25 27  2  0
 25 26  1  0
M  END
$$$$
