FKS.pdb
     RDKit          3D

 27 27  0  0  1  0  0  0  0  0999 V2000
    6.9518  -14.8156   21.0765 N   0  0  0  0  0  0  0  0  0  0  0  0
    7.3836  -14.2950   22.3505 C   0  0  1  0  0  0  0  0  0  0  0  0
    6.1931  -13.7979   23.1454 C   0  0  0  0  0  0  0  0  0  0  0  0
    6.6850  -13.3326   24.4697 C   0  0  0  0  0  0  0  0  0  0  0  0
    7.2967  -12.1039   24.6155 C   0  0  0  0  0  0  0  0  0  0  0  0
    7.7460  -11.6902   25.8515 C   0  0  0  0  0  0  0  0  0  0  0  0
    7.5996  -12.4822   26.9667 C   0  0  0  0  0  0  0  0  0  0  0  0
    6.9861  -13.7140   26.8192 C   0  0  0  0  0  0  0  0  0  0  0  0
    6.5308  -14.1399   25.5821 C   0  0  0  0  0  0  0  0  0  0  0  0
    7.9878  -15.4053   23.1251 C   0  0  0  0  0  0  0  0  0  0  0  0
    7.3515  -16.4684   23.3294 O   0  0  0  0  0  0  0  0  0  0  0  0
    9.2973  -15.2748   23.6448 N   0  0  0  0  0  0  0  0  0  0  0  0
    9.9794  -16.4528   24.1263 C   0  0  1  0  0  0  0  0  0  0  0  0
   10.8829  -17.0403   23.0674 C   0  0  0  0  0  0  0  0  0  0  0  0
   11.5576  -18.2930   23.4755 C   0  0  0  0  0  0  0  0  0  0  0  0
   10.8848  -19.4832   22.8521 C   0  0  0  0  0  0  0  0  0  0  0  0
   11.6025  -20.7395   23.2831 C   0  0  0  0  0  0  0  0  0  0  0  0
   10.8776  -21.9322   22.8575 N   0  0  0  0  0  0  0  0  0  0  0  0
   10.6443  -16.1983   25.4012 C   0  0  0  0  0  0  0  0  0  0  0  0
   11.4363  -15.2509   25.6265 O   0  0  0  0  0  0  0  0  0  0  0  0
    9.3028  -18.0043   28.8856 O   0  0  0  0  0  0  0  0  0  0  0  0
   10.1413  -16.8915   28.9230 C   0  0  0  0  0  0  0  0  0  0  0  0
   11.0824  -16.9970   27.7298 C   0  0  2  0  0  0  0  0  0  0  0  0
   10.3846  -17.0840   26.4819 N   0  0  0  0  0  0  0  0  0  0  0  0
   12.0261  -18.1103   27.8727 C   0  0  0  0  0  0  0  0  0  0  0  0
   12.9631  -18.1465   28.9040 O   0  0  0  0  0  0  0  0  0  0  0  0
   11.9982  -19.0613   27.0498 O   0  0  0  0  0  0  0  0  0  0  0  0
  2  3  1  0
  2  1  1  6
  4  3  1  0
  5  4  2  0
  6  5  1  0
  7  8  1  0
  7  6  2  0
  8  9  2  0
  9  4  1  0
 10  2  1  0
 11 10  2  0
 12 10  1  0
 13 19  1  0
 13 12  1  0
 13 14  1  6
 15 14  1  0
 16 15  1  0
 17 16  1  0
 18 17  1  0
 19 24  1  0
 20 19  2  0
 22 21  1  0
 23 22  1  1
 23 25  1  0
 24 23  1  0
 25 27  2  0
 25 26  1  0
M  END
$$$$
