FKS.pdb
     RDKit          3D

 27 27  0  0  1  0  0  0  0  0999 V2000
    6.8748  -16.8179   25.9085 N   0  0  0  0  0  0  0  0  0  0  0  0
    7.0673  -15.6564   25.0751 C   0  0  1  0  0  0  0  0  0  0  0  0
    8.0227  -14.6859   25.7396 C   0  0  0  0  0  0  0  0  0  0  0  0
    7.2156  -13.6614   26.4546 C   0  0  0  0  0  0  0  0  0  0  0  0
    7.5970  -13.1846   27.6925 C   0  0  0  0  0  0  0  0  0  0  0  0
    6.8356  -12.2347   28.3396 C   0  0  0  0  0  0  0  0  0  0  0  0
    5.6832  -11.7379   27.7762 C   0  0  0  0  0  0  0  0  0  0  0  0
    5.3018  -12.2167   26.5350 C   0  0  0  0  0  0  0  0  0  0  0  0
    6.0592  -13.1711   25.8757 C   0  0  0  0  0  0  0  0  0  0  0  0
    7.7048  -16.0932   23.8100 C   0  0  0  0  0  0  0  0  0  0  0  0
    8.2473  -17.2220   23.7188 O   0  0  0  0  0  0  0  0  0  0  0  0
    7.7071  -15.2344   22.6856 N   0  0  0  0  0  0  0  0  0  0  0  0
    8.4636  -15.6150   21.5161 C   0  0  1  0  0  0  0  0  0  0  0  0
    8.2059  -14.6759   20.3610 C   0  0  0  0  0  0  0  0  0  0  0  0
    8.8788  -15.0672   19.1019 C   0  0  0  0  0  0  0  0  0  0  0  0
    8.5332  -14.1087   17.9976 C   0  0  0  0  0  0  0  0  0  0  0  0
    9.2090  -14.5563   16.7241 C   0  0  0  0  0  0  0  0  0  0  0  0
    8.9501  -13.6215   15.6341 N   0  0  0  0  0  0  0  0  0  0  0  0
    9.8777  -15.7945   21.8329 C   0  0  0  0  0  0  0  0  0  0  0  0
   10.5854  -14.9751   22.4679 O   0  0  0  0  0  0  0  0  0  0  0  0
   11.4780  -18.4933   23.6223 O   0  0  0  0  0  0  0  0  0  0  0  0
   12.1006  -18.5916   22.3790 C   0  0  0  0  0  0  0  0  0  0  0  0
   11.8966  -17.2604   21.6672 C   0  0  2  0  0  0  0  0  0  0  0  0
   10.5175  -16.9855   21.3946 N   0  0  0  0  0  0  0  0  0  0  0  0
   12.6943  -17.1668   20.4403 C   0  0  0  0  0  0  0  0  0  0  0  0
   12.0987  -16.9841   19.1934 O   0  0  0  0  0  0  0  0  0  0  0  0
   13.9477  -17.2521   20.5032 O   0  0  0  0  0  0  0  0  0  0  0  0
  2  3  1  0
  2  1  1  1
  4  3  1  0
  5  4  2  0
  6  5  1  0
  7  8  1  0
  7  6  2  0
  8  9  2  0
  9  4  1  0
 10  2  1  0
 11 10  2  0
 12 10  1  0
 13 19  1  0
 13 12  1  0
 13 14  1  6
 15 14  1  0
 16 15  1  0
 17 16  1  0
 18 17  1  0
 19 24  1  0
 20 19  2  0
 22 21  1  0
 23 22  1  6
 23 25  1  0
 24 23  1  0
 25 27  2  0
 25 26  1  0
M  END
$$$$
