FKS.pdb
     RDKit          3D

 27 27  0  0  1  0  0  0  0  0999 V2000
    6.5416  -17.4547   26.1587 N   0  0  0  0  0  0  0  0  0  0  0  0
    6.7773  -16.1723   25.5418 C   0  0  1  0  0  0  0  0  0  0  0  0
    7.7761  -15.3740   26.3550 C   0  0  0  0  0  0  0  0  0  0  0  0
    7.1994  -14.0246   26.5976 C   0  0  0  0  0  0  0  0  0  0  0  0
    6.0541  -13.6079   25.9496 C   0  0  0  0  0  0  0  0  0  0  0  0
    5.5347  -12.3532   26.1878 C   0  0  0  0  0  0  0  0  0  0  0  0
    6.1366  -11.4866   27.0705 C   0  0  0  0  0  0  0  0  0  0  0  0
    7.2849  -11.9057   27.7196 C   0  0  0  0  0  0  0  0  0  0  0  0
    7.8156  -13.1641   27.4879 C   0  0  0  0  0  0  0  0  0  0  0  0
    7.3887  -16.4027   24.2110 C   0  0  0  0  0  0  0  0  0  0  0  0
    7.9848  -17.4775   23.9539 O   0  0  0  0  0  0  0  0  0  0  0  0
    7.3048  -15.4047   23.2116 N   0  0  0  0  0  0  0  0  0  0  0  0
    8.2173  -15.4558   22.0937 C   0  0  1  0  0  0  0  0  0  0  0  0
    7.9767  -14.3164   21.1310 C   0  0  0  0  0  0  0  0  0  0  0  0
    8.4648  -14.5724   19.7572 C   0  0  0  0  0  0  0  0  0  0  0  0
    8.0266  -13.4763   18.8276 C   0  0  0  0  0  0  0  0  0  0  0  0
    8.4660  -13.8133   17.4232 C   0  0  0  0  0  0  0  0  0  0  0  0
    7.9112  -12.8705   16.4575 N   0  0  0  0  0  0  0  0  0  0  0  0
    9.6018  -15.5731   22.5425 C   0  0  0  0  0  0  0  0  0  0  0  0
   10.1337  -14.8702   23.4361 O   0  0  0  0  0  0  0  0  0  0  0  0
   11.4414  -19.0289   22.1504 O   0  0  0  0  0  0  0  0  0  0  0  0
   12.1141  -18.0619   22.8957 C   0  0  0  0  0  0  0  0  0  0  0  0
   11.8100  -16.7116   22.2595 C   0  0  2  0  0  0  0  0  0  0  0  0
   10.4249  -16.5560   21.9291 N   0  0  0  0  0  0  0  0  0  0  0  0
   12.6527  -16.4558   21.0869 C   0  0  0  0  0  0  0  0  0  0  0  0
   14.0419  -16.3980   21.1839 O   0  0  0  0  0  0  0  0  0  0  0  0
   12.1191  -16.2828   19.9610 O   0  0  0  0  0  0  0  0  0  0  0  0
  2  3  1  0
  2  1  1  1
  4  3  1  0
  5  4  2  0
  6  5  1  0
  7  8  1  0
  7  6  2  0
  8  9  2  0
  9  4  1  0
 10  2  1  0
 11 10  2  0
 12 10  1  0
 13 19  1  0
 13 12  1  0
 13 14  1  1
 15 14  1  0
 16 15  1  0
 17 16  1  0
 18 17  1  0
 19 24  1  0
 20 19  2  0
 22 21  1  0
 23 22  1  6
 23 25  1  0
 24 23  1  0
 25 27  2  0
 25 26  1  0
M  END
$$$$
