FKS.pdb
     RDKit          3D

 27 27  0  0  1  0  0  0  0  0999 V2000
    5.9139  -17.6607   26.0156 N   0  0  0  0  0  0  0  0  0  0  0  0
    6.4292  -16.3884   25.5725 C   0  0  1  0  0  0  0  0  0  0  0  0
    7.1842  -15.7075   26.6961 C   0  0  0  0  0  0  0  0  0  0  0  0
    7.0767  -14.2372   26.4989 C   0  0  0  0  0  0  0  0  0  0  0  0
    8.0174  -13.5419   25.7661 C   0  0  0  0  0  0  0  0  0  0  0  0
    7.9004  -12.1790   25.5944 C   0  0  0  0  0  0  0  0  0  0  0  0
    6.8522  -11.4771   26.1431 C   0  0  0  0  0  0  0  0  0  0  0  0
    5.9097  -12.1754   26.8776 C   0  0  0  0  0  0  0  0  0  0  0  0
    6.0172  -13.5449   27.0566 C   0  0  0  0  0  0  0  0  0  0  0  0
    7.4047  -16.6363   24.4840 C   0  0  0  0  0  0  0  0  0  0  0  0
    8.2289  -17.5804   24.5610 O   0  0  0  0  0  0  0  0  0  0  0  0
    7.4148  -15.8039   23.3399 N   0  0  0  0  0  0  0  0  0  0  0  0
    8.3346  -16.1006   22.2671 C   0  0  1  0  0  0  0  0  0  0  0  0
    8.0074  -15.3079   21.0232 C   0  0  0  0  0  0  0  0  0  0  0  0
    8.8964  -15.5918   19.8742 C   0  0  0  0  0  0  0  0  0  0  0  0
    8.2261  -16.5239   18.9048 C   0  0  0  0  0  0  0  0  0  0  0  0
    9.1516  -16.7746   17.7387 C   0  0  0  0  0  0  0  0  0  0  0  0
   10.0991  -17.8429   18.0390 N   0  0  0  0  0  0  0  0  0  0  0  0
    9.7216  -15.9739   22.7057 C   0  0  0  0  0  0  0  0  0  0  0  0
   10.2504  -14.9191   23.1341 O   0  0  0  0  0  0  0  0  0  0  0  0
   11.8996  -19.4354   23.1902 O   0  0  0  0  0  0  0  0  0  0  0  0
   12.3523  -18.2949   23.8515 C   0  0  0  0  0  0  0  0  0  0  0  0
   11.9362  -17.0935   23.0124 C   0  0  2  0  0  0  0  0  0  0  0  0
   10.5511  -17.1265   22.6491 N   0  0  0  0  0  0  0  0  0  0  0  0
   12.7788  -16.9376   21.8224 C   0  0  0  0  0  0  0  0  0  0  0  0
   14.1506  -16.7116   21.9226 O   0  0  0  0  0  0  0  0  0  0  0  0
   12.2613  -17.0077   20.6781 O   0  0  0  0  0  0  0  0  0  0  0  0
  2  3  1  0
  2  1  1  1
  4  3  1  0
  5  4  2  0
  6  5  1  0
  7  8  1  0
  7  6  2  0
  8  9  2  0
  9  4  1  0
 10  2  1  0
 11 10  2  0
 12 10  1  0
 13 19  1  0
 13 12  1  0
 13 14  1  6
 15 14  1  0
 16 15  1  0
 17 16  1  0
 18 17  1  0
 19 24  1  0
 20 19  2  0
 22 21  1  0
 23 22  1  6
 23 25  1  0
 24 23  1  0
 25 27  2  0
 25 26  1  0
M  END
$$$$
