FKS.pdb
     RDKit          3D

 27 27  0  0  1  0  0  0  0  0999 V2000
    6.2437  -17.4418   25.9314 N   0  0  0  0  0  0  0  0  0  0  0  0
    6.6758  -16.1397   25.4859 C   0  0  1  0  0  0  0  0  0  0  0  0
    7.6389  -15.5349   26.4874 C   0  0  0  0  0  0  0  0  0  0  0  0
    7.1856  -14.1497   26.7842 C   0  0  0  0  0  0  0  0  0  0  0  0
    5.9638  -13.6852   26.3408 C   0  0  0  0  0  0  0  0  0  0  0  0
    5.5612  -12.3978   26.6261 C   0  0  0  0  0  0  0  0  0  0  0  0
    6.3577  -11.5452   27.3548 C   0  0  0  0  0  0  0  0  0  0  0  0
    7.5825  -12.0122   27.7989 C   0  0  0  0  0  0  0  0  0  0  0  0
    7.9972  -13.3038   27.5180 C   0  0  0  0  0  0  0  0  0  0  0  0
    7.4215  -16.3075   24.2157 C   0  0  0  0  0  0  0  0  0  0  0  0
    8.0310  -17.3759   23.9634 O   0  0  0  0  0  0  0  0  0  0  0  0
    7.4527  -15.2560   23.2694 N   0  0  0  0  0  0  0  0  0  0  0  0
    8.1770  -15.4471   22.0350 C   0  0  1  0  0  0  0  0  0  0  0  0
    7.8453  -14.3716   21.0270 C   0  0  0  0  0  0  0  0  0  0  0  0
    8.4149  -14.6078   19.6813 C   0  0  0  0  0  0  0  0  0  0  0  0
    7.9152  -13.5783   18.7075 C   0  0  0  0  0  0  0  0  0  0  0  0
    8.3686  -13.9515   17.3168 C   0  0  0  0  0  0  0  0  0  0  0  0
    7.8089  -13.0451   16.3197 N   0  0  0  0  0  0  0  0  0  0  0  0
    9.6072  -15.6138   22.2781 C   0  0  0  0  0  0  0  0  0  0  0  0
   10.2937  -14.9118   23.0600 O   0  0  0  0  0  0  0  0  0  0  0  0
   13.2576  -18.7002   22.0362 O   0  0  0  0  0  0  0  0  0  0  0  0
   11.9005  -18.4966   21.7914 C   0  0  0  0  0  0  0  0  0  0  0  0
   11.6499  -16.9960   21.8670 C   0  0  2  0  0  0  0  0  0  0  0  0
   10.2899  -16.6480   21.5823 N   0  0  0  0  0  0  0  0  0  0  0  0
   12.5670  -16.2429   21.0055 C   0  0  0  0  0  0  0  0  0  0  0  0
   13.8689  -15.9471   21.4060 O   0  0  0  0  0  0  0  0  0  0  0  0
   12.1796  -15.8493   19.8754 O   0  0  0  0  0  0  0  0  0  0  0  0
  2  3  1  0
  2  1  1  1
  4  3  1  0
  5  4  2  0
  6  5  1  0
  7  8  1  0
  7  6  2  0
  8  9  2  0
  9  4  1  0
 10  2  1  0
 11 10  2  0
 12 10  1  0
 13 19  1  0
 13 12  1  0
 13 14  1  6
 15 14  1  0
 16 15  1  0
 17 16  1  0
 18 17  1  0
 19 24  1  0
 20 19  2  0
 22 21  1  0
 23 22  1  6
 23 25  1  0
 24 23  1  0
 25 27  2  0
 25 26  1  0
M  END
$$$$
