FKS.pdb
     RDKit          3D

 27 27  0  0  1  0  0  0  0  0999 V2000
    5.9963  -16.7740   25.5584 N   0  0  0  0  0  0  0  0  0  0  0  0
    6.5815  -15.8389   24.6292 C   0  0  1  0  0  0  0  0  0  0  0  0
    7.7865  -15.1637   25.2525 C   0  0  0  0  0  0  0  0  0  0  0  0
    7.3346  -13.8833   25.8596 C   0  0  0  0  0  0  0  0  0  0  0  0
    7.2553  -13.7282   27.2288 C   0  0  0  0  0  0  0  0  0  0  0  0
    6.8342  -12.5335   27.7728 C   0  0  0  0  0  0  0  0  0  0  0  0
    6.4834  -11.4694   26.9746 C   0  0  0  0  0  0  0  0  0  0  0  0
    6.5633  -11.6261   25.6018 C   0  0  0  0  0  0  0  0  0  0  0  0
    6.9851  -12.8222   25.0444 C   0  0  0  0  0  0  0  0  0  0  0  0
    7.0709  -16.5975   23.4533 C   0  0  0  0  0  0  0  0  0  0  0  0
    6.2798  -16.9672   22.5510 O   0  0  0  0  0  0  0  0  0  0  0  0
    8.4451  -16.9138   23.3373 N   0  0  0  0  0  0  0  0  0  0  0  0
    9.2526  -16.1864   22.3867 C   0  0  1  0  0  0  0  0  0  0  0  0
    8.5469  -14.9428   21.8989 C   0  0  0  0  0  0  0  0  0  0  0  0
    8.0721  -15.0267   20.4994 C   0  0  0  0  0  0  0  0  0  0  0  0
    8.1436  -13.6807   19.8352 C   0  0  0  0  0  0  0  0  0  0  0  0
    7.6691  -13.8075   18.4077 C   0  0  0  0  0  0  0  0  0  0  0  0
    7.6627  -12.5111   17.7381 N   0  0  0  0  0  0  0  0  0  0  0  0
   10.5956  -15.9435   22.9060 C   0  0  0  0  0  0  0  0  0  0  0  0
   11.4765  -15.2541   22.3366 O   0  0  0  0  0  0  0  0  0  0  0  0
   11.6712  -18.0780   26.2730 O   0  0  0  0  0  0  0  0  0  0  0  0
   12.3460  -16.8645   26.1500 C   0  0  0  0  0  0  0  0  0  0  0  0
   12.2772  -16.4582   24.6834 C   0  0  2  0  0  0  0  0  0  0  0  0
   10.9483  -16.5266   24.1531 N   0  0  0  0  0  0  0  0  0  0  0  0
   13.2046  -17.2355   23.8550 C   0  0  0  0  0  0  0  0  0  0  0  0
   12.7556  -18.0166   22.7915 O   0  0  0  0  0  0  0  0  0  0  0  0
   14.4376  -17.2038   24.1014 O   0  0  0  0  0  0  0  0  0  0  0  0
  2  3  1  0
  2  1  1  1
  4  3  1  0
  5  4  2  0
  6  5  1  0
  7  8  1  0
  7  6  2  0
  8  9  2  0
  9  4  1  0
 10  2  1  0
 11 10  2  0
 12 10  1  0
 13 19  1  0
 13 12  1  0
 13 14  1  1
 15 14  1  0
 16 15  1  0
 17 16  1  0
 18 17  1  0
 19 24  1  0
 20 19  2  0
 22 21  1  0
 23 22  1  1
 23 25  1  0
 24 23  1  0
 25 27  2  0
 25 26  1  0
M  END
$$$$
