FKS.pdb
     RDKit          3D

 27 27  0  0  1  0  0  0  0  0999 V2000
    5.6837  -17.7394   25.3088 N   0  0  0  0  0  0  0  0  0  0  0  0
    6.1293  -16.3676   25.3247 C   0  0  1  0  0  0  0  0  0  0  0  0
    6.8279  -16.0575   26.6331 C   0  0  0  0  0  0  0  0  0  0  0  0
    6.9951  -14.5826   26.7281 C   0  0  0  0  0  0  0  0  0  0  0  0
    5.9081  -13.7470   26.8872 C   0  0  0  0  0  0  0  0  0  0  0  0
    6.0835  -12.3823   26.9733 C   0  0  0  0  0  0  0  0  0  0  0  0
    7.3358  -11.8172   26.9038 C   0  0  0  0  0  0  0  0  0  0  0  0
    8.4249  -12.6561   26.7442 C   0  0  0  0  0  0  0  0  0  0  0  0
    8.2604  -14.0288   26.6566 C   0  0  0  0  0  0  0  0  0  0  0  0
    7.1321  -16.1927   24.2469 C   0  0  0  0  0  0  0  0  0  0  0  0
    8.0453  -17.0370   24.0742 O   0  0  0  0  0  0  0  0  0  0  0  0
    7.0676  -15.0633   23.3971 N   0  0  0  0  0  0  0  0  0  0  0  0
    7.9983  -14.9609   22.2979 C   0  0  1  0  0  0  0  0  0  0  0  0
    7.7196  -13.7425   21.4490 C   0  0  0  0  0  0  0  0  0  0  0  0
    8.6241  -13.5959   20.2865 C   0  0  0  0  0  0  0  0  0  0  0  0
    7.9001  -13.9167   19.0095 C   0  0  0  0  0  0  0  0  0  0  0  0
    8.8474  -13.7444   17.8467 C   0  0  0  0  0  0  0  0  0  0  0  0
    8.1992  -14.0851   16.5847 N   0  0  0  0  0  0  0  0  0  0  0  0
    9.3799  -15.0605   22.7601 C   0  0  0  0  0  0  0  0  0  0  0  0
    9.8668  -14.4220   23.7248 O   0  0  0  0  0  0  0  0  0  0  0  0
   11.4468  -18.3549   22.3506 O   0  0  0  0  0  0  0  0  0  0  0  0
   12.0503  -17.3136   23.0538 C   0  0  0  0  0  0  0  0  0  0  0  0
   11.6562  -16.0154   22.3613 C   0  0  2  0  0  0  0  0  0  0  0  0
   10.2546  -15.9460   22.0740 N   0  0  0  0  0  0  0  0  0  0  0  0
   12.4446  -15.7802   21.1475 C   0  0  0  0  0  0  0  0  0  0  0  0
   13.8335  -15.6701   21.1880 O   0  0  0  0  0  0  0  0  0  0  0  0
   11.8634  -15.6735   20.0370 O   0  0  0  0  0  0  0  0  0  0  0  0
  2  3  1  0
  2  1  1  1
  4  3  1  0
  5  4  2  0
  6  5  1  0
  7  8  1  0
  7  6  2  0
  8  9  2  0
  9  4  1  0
 10  2  1  0
 11 10  2  0
 12 10  1  0
 13 19  1  0
 13 12  1  0
 13 14  1  1
 15 14  1  0
 16 15  1  0
 17 16  1  0
 18 17  1  0
 19 24  1  0
 20 19  2  0
 22 21  1  0
 23 22  1  6
 23 25  1  0
 24 23  1  0
 25 27  2  0
 25 26  1  0
M  END
$$$$
