FKS.pdb
     RDKit          3D

 27 27  0  0  1  0  0  0  0  0999 V2000
    6.1760  -17.9732   25.9042 N   0  0  0  0  0  0  0  0  0  0  0  0
    6.4391  -16.5758   25.6621 C   0  0  1  0  0  0  0  0  0  0  0  0
    7.1807  -15.9700   26.8365 C   0  0  0  0  0  0  0  0  0  0  0  0
    7.1155  -14.4895   26.7085 C   0  0  0  0  0  0  0  0  0  0  0  0
    8.2626  -13.7234   26.6596 C   0  0  0  0  0  0  0  0  0  0  0  0
    8.1817  -12.3523   26.5407 C   0  0  0  0  0  0  0  0  0  0  0  0
    6.9662  -11.7120   26.4679 C   0  0  0  0  0  0  0  0  0  0  0  0
    5.8168  -12.4813   26.5171 C   0  0  0  0  0  0  0  0  0  0  0  0
    5.8863  -13.8598   26.6364 C   0  0  0  0  0  0  0  0  0  0  0  0
    7.3331  -16.4690   24.4843 C   0  0  0  0  0  0  0  0  0  0  0  0
    8.2537  -17.3021   24.2973 O   0  0  0  0  0  0  0  0  0  0  0  0
    7.1545  -15.4184   23.5536 N   0  0  0  0  0  0  0  0  0  0  0  0
    8.0008  -15.3679   22.3847 C   0  0  1  0  0  0  0  0  0  0  0  0
    7.6325  -14.2115   21.4849 C   0  0  0  0  0  0  0  0  0  0  0  0
    8.3088  -14.2307   20.1683 C   0  0  0  0  0  0  0  0  0  0  0  0
    7.8990  -13.0418   19.3459 C   0  0  0  0  0  0  0  0  0  0  0  0
    8.3648  -13.2396   17.9236 C   0  0  0  0  0  0  0  0  0  0  0  0
    9.8216  -13.2614   17.8450 N   0  0  0  0  0  0  0  0  0  0  0  0
    9.4141  -15.4113   22.7494 C   0  0  0  0  0  0  0  0  0  0  0  0
    9.9805  -14.6192   23.5415 O   0  0  0  0  0  0  0  0  0  0  0  0
   11.4994  -18.7898   21.8572 O   0  0  0  0  0  0  0  0  0  0  0  0
   12.0804  -17.9219   22.7804 C   0  0  0  0  0  0  0  0  0  0  0  0
   11.6342  -16.5120   22.4149 C   0  0  2  0  0  0  0  0  0  0  0  0
   10.2255  -16.4244   22.1704 N   0  0  0  0  0  0  0  0  0  0  0  0
   12.3900  -15.9749   21.2789 C   0  0  0  0  0  0  0  0  0  0  0  0
   13.7636  -15.7505   21.3554 O   0  0  0  0  0  0  0  0  0  0  0  0
   11.7942  -15.7065   20.2041 O   0  0  0  0  0  0  0  0  0  0  0  0
  2  3  1  0
  2  1  1  1
  4  3  1  0
  5  4  2  0
  6  5  1  0
  7  8  1  0
  7  6  2  0
  8  9  2  0
  9  4  1  0
 10  2  1  0
 11 10  2  0
 12 10  1  0
 13 19  1  0
 13 12  1  0
 13 14  1  1
 15 14  1  0
 16 15  1  0
 17 16  1  0
 18 17  1  0
 19 24  1  0
 20 19  2  0
 22 21  1  0
 23 22  1  6
 23 25  1  0
 24 23  1  0
 25 27  2  0
 25 26  1  0
M  END
$$$$
