FKS.pdb
     RDKit          3D

 27 27  0  0  1  0  0  0  0  0999 V2000
    7.0791  -16.7975   25.9251 N   0  0  0  0  0  0  0  0  0  0  0  0
    7.1336  -15.5947   25.1308 C   0  0  1  0  0  0  0  0  0  0  0  0
    8.1274  -14.6173   25.7254 C   0  0  0  0  0  0  0  0  0  0  0  0
    7.3653  -13.5871   26.4804 C   0  0  0  0  0  0  0  0  0  0  0  0
    7.8053  -13.1237   27.7038 C   0  0  0  0  0  0  0  0  0  0  0  0
    7.0849  -12.1682   28.3885 C   0  0  0  0  0  0  0  0  0  0  0  0
    5.9163  -11.6525   27.8777 C   0  0  0  0  0  0  0  0  0  0  0  0
    5.4761  -12.1179   26.6509 C   0  0  0  0  0  0  0  0  0  0  0  0
    6.1920  -13.0778   25.9542 C   0  0  0  0  0  0  0  0  0  0  0  0
    7.6326  -15.9517   23.7812 C   0  0  0  0  0  0  0  0  0  0  0  0
    8.1065  -17.0914   23.5509 O   0  0  0  0  0  0  0  0  0  0  0  0
    7.5785  -15.0029   22.7330 N   0  0  0  0  0  0  0  0  0  0  0  0
    8.3105  -15.2626   21.5158 C   0  0  1  0  0  0  0  0  0  0  0  0
    8.0750  -14.1811   20.4874 C   0  0  0  0  0  0  0  0  0  0  0  0
    8.6958  -14.4528   19.1714 C   0  0  0  0  0  0  0  0  0  0  0  0
    8.2640  -13.4275   18.1614 C   0  0  0  0  0  0  0  0  0  0  0  0
    9.1871  -13.4887   16.9684 C   0  0  0  0  0  0  0  0  0  0  0  0
    9.0279  -14.7451   16.2436 N   0  0  0  0  0  0  0  0  0  0  0  0
    9.7203  -15.5266   21.7894 C   0  0  0  0  0  0  0  0  0  0  0  0
   10.4924  -14.7559   22.4104 O   0  0  0  0  0  0  0  0  0  0  0  0
   10.9879  -19.3574   21.7915 O   0  0  0  0  0  0  0  0  0  0  0  0
   11.7698  -18.3788   22.4030 C   0  0  0  0  0  0  0  0  0  0  0  0
   11.6408  -17.1123   21.5664 C   0  0  2  0  0  0  0  0  0  0  0  0
   10.2771  -16.7479   21.3224 N   0  0  0  0  0  0  0  0  0  0  0  0
   12.3829  -17.2102   20.3054 C   0  0  0  0  0  0  0  0  0  0  0  0
   11.7483  -17.0765   19.0716 O   0  0  0  0  0  0  0  0  0  0  0  0
   13.6230  -17.4199   20.3261 O   0  0  0  0  0  0  0  0  0  0  0  0
  2  3  1  0
  2  1  1  1
  4  3  1  0
  5  4  2  0
  6  5  1  0
  7  8  1  0
  7  6  2  0
  8  9  2  0
  9  4  1  0
 10  2  1  0
 11 10  2  0
 12 10  1  0
 13 19  1  0
 13 12  1  0
 13 14  1  6
 15 14  1  0
 16 15  1  0
 17 16  1  0
 18 17  1  0
 19 24  1  0
 20 19  2  0
 22 21  1  0
 23 22  1  6
 23 25  1  0
 24 23  1  0
 25 27  2  0
 25 26  1  0
M  END
$$$$
