NFT.pdb
     RDKit          3D

 27 27  0  0  1  0  0  0  0  0999 V2000
   28.8395  -18.9599  -18.2780 N   0  0  0  0  0  0  0  0  0  0  0  0
   27.8479  -19.9130  -18.5875 C   0  0  0  0  0  0  0  0  0  0  0  0
   27.7224  -20.3169  -19.7586 O   0  0  0  0  0  0  0  0  0  0  0  0
   26.9669  -20.4246  -17.5245 C   0  0  0  0  0  0  0  0  0  0  0  0
   27.7665  -21.2572  -16.5186 C   0  0  2  0  0  0  0  0  0  0  0  0
   28.1290  -22.4816  -17.2082 N   0  0  0  0  0  0  0  0  0  0  0  0
   26.9453  -21.5732  -15.3281 C   0  0  0  0  0  0  0  0  0  0  0  0
   26.1156  -22.5103  -15.4051 O   0  0  0  0  0  0  0  0  0  0  0  0
   27.1036  -20.8266  -14.1369 N   0  0  0  0  0  0  0  0  0  0  0  0
   26.3276  -21.1709  -12.9193 C   0  0  1  0  0  0  0  0  0  0  0  0
   27.1595  -20.7030  -11.7826 C   0  0  0  0  0  0  0  0  0  0  0  0
   26.5107  -20.6252  -10.4680 C   0  0  0  0  0  0  0  0  0  0  0  0
   26.1622  -21.7718   -9.7904 C   0  0  0  0  0  0  0  0  0  0  0  0
   25.5803  -21.7657   -8.5455 C   0  0  0  0  0  0  0  0  0  0  0  0
   25.3366  -20.5261   -7.9507 C   0  0  0  0  0  0  0  0  0  0  0  0
   25.6747  -19.3676   -8.6054 C   0  0  0  0  0  0  0  0  0  0  0  0
   26.2662  -19.4137   -9.8734 C   0  0  0  0  0  0  0  0  0  0  0  0
   25.0079  -20.5903  -13.0987 C   0  0  0  0  0  0  0  0  0  0  0  0
   24.8685  -19.3577  -13.4563 O   0  0  0  0  0  0  0  0  0  0  0  0
   22.6239  -20.5621  -15.5344 C   0  0  0  0  0  0  0  0  0  0  0  0
   21.7646  -20.9841  -14.3649 C   0  0  1  0  0  0  0  0  0  0  0  0
   21.7061  -22.3777  -14.4004 O   0  0  0  0  0  0  0  0  0  0  0  0
   22.4926  -20.5622  -13.1091 C   0  0  2  0  0  0  0  0  0  0  0  0
   23.7444  -21.2296  -12.9318 N   0  0  0  0  0  0  0  0  0  0  0  0
   21.5921  -20.8476  -11.9889 C   0  0  0  0  0  0  0  0  0  0  0  0
   20.3656  -20.2363  -11.9120 O   0  0  0  0  0  0  0  0  0  0  0  0
   21.9234  -21.6483  -11.0873 O   0  0  0  0  0  0  0  0  0  0  0  0
  2  1  1  0
  3  2  2  0
  4  2  1  0
  4  5  1  0
  5  7  1  0
  5  6  1  6
  7  8  2  0
  9 10  1  0
  9  7  1  0
 10 18  1  0
 10 11  1  1
 12 11  1  0
 12 17  2  0
 13 12  1  0
 14 13  2  0
 14 15  1  0
 15 16  2  0
 16 17  1  0
 18 24  1  0
 18 19  2  0
 21 20  1  6
 21 23  1  0
 22 21  1  0
 23 25  1  0
 23 24  1  1
 25 27  2  0
 25 26  1  0
M  END
$$$$
