NFT.pdb
     RDKit          3D

 27 27  0  0  1  0  0  0  0  0999 V2000
   27.8560  -20.7672  -19.9442 N   0  0  0  0  0  0  0  0  0  0  0  0
   27.9333  -20.3751  -18.5922 C   0  0  0  0  0  0  0  0  0  0  0  0
   28.8070  -19.5642  -18.2325 O   0  0  0  0  0  0  0  0  0  0  0  0
   26.9810  -20.9269  -17.6142 C   0  0  0  0  0  0  0  0  0  0  0  0
   27.7144  -21.7698  -16.5671 C   0  0  2  0  0  0  0  0  0  0  0  0
   27.9709  -23.0539  -17.1925 N   0  0  0  0  0  0  0  0  0  0  0  0
   26.8760  -21.9548  -15.3611 C   0  0  0  0  0  0  0  0  0  0  0  0
   26.0077  -22.8594  -15.3690 O   0  0  0  0  0  0  0  0  0  0  0  0
   27.0613  -21.1225  -14.2321 N   0  0  0  0  0  0  0  0  0  0  0  0
   26.2152  -21.2870  -13.0238 C   0  0  1  0  0  0  0  0  0  0  0  0
   27.0653  -20.8447  -11.8903 C   0  0  0  0  0  0  0  0  0  0  0  0
   26.4083  -20.6778  -10.5882 C   0  0  0  0  0  0  0  0  0  0  0  0
   25.9582  -21.7729   -9.8857 C   0  0  0  0  0  0  0  0  0  0  0  0
   25.3629  -21.6848   -8.6503 C   0  0  0  0  0  0  0  0  0  0  0  0
   25.2140  -20.4134   -8.0925 C   0  0  0  0  0  0  0  0  0  0  0  0
   25.6542  -19.3050   -8.7726 C   0  0  0  0  0  0  0  0  0  0  0  0
   26.2563  -19.4344  -10.0298 C   0  0  0  0  0  0  0  0  0  0  0  0
   24.9814  -20.5667  -13.2883 C   0  0  0  0  0  0  0  0  0  0  0  0
   24.9968  -19.3089  -13.5785 O   0  0  0  0  0  0  0  0  0  0  0  0
   22.9256  -19.7739  -15.7644 C   0  0  0  0  0  0  0  0  0  0  0  0
   21.8884  -20.3245  -14.8130 C   0  0  1  0  0  0  0  0  0  0  0  0
   21.7021  -21.6623  -15.1630 O   0  0  0  0  0  0  0  0  0  0  0  0
   22.4878  -20.2660  -13.4266 C   0  0  2  0  0  0  0  0  0  0  0  0
   23.6522  -21.0826  -13.2807 N   0  0  0  0  0  0  0  0  0  0  0  0
   21.4372  -20.6944  -12.4992 C   0  0  0  0  0  0  0  0  0  0  0  0
   20.2761  -19.9715  -12.3848 O   0  0  0  0  0  0  0  0  0  0  0  0
   21.5792  -21.7206  -11.7987 O   0  0  0  0  0  0  0  0  0  0  0  0
  2  1  1  0
  3  2  2  0
  4  2  1  0
  4  5  1  0
  5  7  1  0
  5  6  1  6
  7  8  2  0
  9 10  1  0
  9  7  1  0
 10 18  1  0
 10 11  1  1
 12 11  1  0
 12 17  2  0
 13 12  1  0
 14 13  2  0
 14 15  1  0
 15 16  2  0
 16 17  1  0
 18 24  1  0
 18 19  2  0
 21 20  1  6
 21 23  1  0
 22 21  1  0
 23 25  1  0
 23 24  1  6
 25 27  2  0
 25 26  1  0
M  END
$$$$
