NFT.pdb
     RDKit          3D

 27 27  0  0  1  0  0  0  0  0999 V2000
   16.9386  -22.2642  -12.8363 N   0  0  0  0  0  0  0  0  0  0  0  0
   18.2664  -22.6324  -13.1347 C   0  0  0  0  0  0  0  0  0  0  0  0
   18.5599  -23.8354  -13.2654 O   0  0  0  0  0  0  0  0  0  0  0  0
   19.2973  -21.5928  -13.2897 C   0  0  0  0  0  0  0  0  0  0  0  0
   20.3122  -21.6681  -12.1456 C   0  0  2  0  0  0  0  0  0  0  0  0
   19.6177  -21.1996  -10.9606 N   0  0  0  0  0  0  0  0  0  0  0  0
   21.4799  -20.8009  -12.4216 C   0  0  0  0  0  0  0  0  0  0  0  0
   21.3486  -19.5608  -12.2898 O   0  0  0  0  0  0  0  0  0  0  0  0
   22.7100  -21.3720  -12.8242 N   0  0  0  0  0  0  0  0  0  0  0  0
   23.8750  -20.5104  -13.1457 C   0  0  1  0  0  0  0  0  0  0  0  0
   24.9525  -20.9539  -12.2261 C   0  0  0  0  0  0  0  0  0  0  0  0
   26.3284  -20.5882  -12.5841 C   0  0  0  0  0  0  0  0  0  0  0  0
   27.2246  -21.5499  -12.9928 C   0  0  0  0  0  0  0  0  0  0  0  0
   28.5157  -21.2674  -13.3691 C   0  0  0  0  0  0  0  0  0  0  0  0
   28.9244  -19.9328  -13.3296 C   0  0  0  0  0  0  0  0  0  0  0  0
   28.0500  -18.9545  -12.9258 C   0  0  0  0  0  0  0  0  0  0  0  0
   26.7417  -19.2809  -12.5496 C   0  0  0  0  0  0  0  0  0  0  0  0
   24.0904  -20.6326  -14.5773 C   0  0  0  0  0  0  0  0  0  0  0  0
   24.2062  -21.7916  -15.1340 O   0  0  0  0  0  0  0  0  0  0  0  0
   22.2640  -20.1803  -17.7981 C   0  0  0  0  0  0  0  0  0  0  0  0
   23.4466  -19.2406  -17.8501 C   0  0  1  0  0  0  0  0  0  0  0  0
   23.0030  -18.0191  -17.3423 O   0  0  0  0  0  0  0  0  0  0  0  0
   24.4952  -19.8007  -16.9165 C   0  0  2  0  0  0  0  0  0  0  0  0
   24.1953  -19.5823  -15.5358 N   0  0  0  0  0  0  0  0  0  0  0  0
   25.7617  -19.1583  -17.2778 C   0  0  0  0  0  0  0  0  0  0  0  0
   26.3440  -19.4091  -18.4951 O   0  0  0  0  0  0  0  0  0  0  0  0
   26.3320  -18.3748  -16.4874 O   0  0  0  0  0  0  0  0  0  0  0  0
  2  1  1  0
  3  2  2  0
  4  2  1  0
  4  5  1  0
  5  7  1  0
  5  6  1  1
  7  8  2  0
  9 10  1  0
  9  7  1  0
 10 18  1  0
 10 11  1  1
 12 11  1  0
 12 17  2  0
 13 12  1  0
 14 13  2  0
 14 15  1  0
 15 16  2  0
 16 17  1  0
 18 24  1  0
 18 19  2  0
 21 20  1  1
 21 23  1  0
 22 21  1  0
 23 25  1  0
 23 24  1  1
 25 27  2  0
 25 26  1  0
M  END
$$$$
