NFT.pdb
     RDKit          3D

 27 27  0  0  1  0  0  0  0  0999 V2000
   18.3417  -20.4414  -15.5859 N   0  0  0  0  0  0  0  0  0  0  0  0
   19.3154  -21.0795  -14.7906 C   0  0  0  0  0  0  0  0  0  0  0  0
   19.2449  -22.3068  -14.5928 O   0  0  0  0  0  0  0  0  0  0  0  0
   20.4090  -20.2910  -14.1988 C   0  0  0  0  0  0  0  0  0  0  0  0
   20.8977  -20.9401  -12.9009 C   0  0  2  0  0  0  0  0  0  0  0  0
   19.9371  -20.5680  -11.8788 N   0  0  0  0  0  0  0  0  0  0  0  0
   22.2418  -20.4378  -12.5365 C   0  0  0  0  0  0  0  0  0  0  0  0
   22.3399  -19.2816  -12.0612 O   0  0  0  0  0  0  0  0  0  0  0  0
   23.3812  -21.2549  -12.7254 N   0  0  0  0  0  0  0  0  0  0  0  0
   24.7172  -20.8107  -12.2553 C   0  0  1  0  0  0  0  0  0  0  0  0
   24.9000  -21.4599  -10.9331 C   0  0  0  0  0  0  0  0  0  0  0  0
   26.1152  -21.1179  -10.1837 C   0  0  0  0  0  0  0  0  0  0  0  0
   26.0558  -20.2638   -9.1058 C   0  0  0  0  0  0  0  0  0  0  0  0
   27.1512  -19.9287   -8.3468 C   0  0  0  0  0  0  0  0  0  0  0  0
   28.3797  -20.4912   -8.6992 C   0  0  0  0  0  0  0  0  0  0  0  0
   28.4660  -21.3460   -9.7700 C   0  0  0  0  0  0  0  0  0  0  0  0
   27.3275  -21.6640  -10.5200 C   0  0  0  0  0  0  0  0  0  0  0  0
   25.6518  -21.1306  -13.3207 C   0  0  0  0  0  0  0  0  0  0  0  0
   25.8048  -22.3467  -13.7259 O   0  0  0  0  0  0  0  0  0  0  0  0
   26.4037  -19.0762  -16.7652 C   0  0  0  0  0  0  0  0  0  0  0  0
   27.6766  -19.4932  -16.0651 C   0  0  1  0  0  0  0  0  0  0  0  0
   28.0790  -18.4020  -15.2944 O   0  0  0  0  0  0  0  0  0  0  0  0
   27.3166  -20.6329  -15.1396 C   0  0  2  0  0  0  0  0  0  0  0  0
   26.4866  -20.2314  -14.0470 N   0  0  0  0  0  0  0  0  0  0  0  0
   28.5812  -21.1886  -14.6505 C   0  0  0  0  0  0  0  0  0  0  0  0
   29.4277  -21.8458  -15.5081 O   0  0  0  0  0  0  0  0  0  0  0  0
   28.9097  -21.0753  -13.4492 O   0  0  0  0  0  0  0  0  0  0  0  0
  2  1  1  0
  3  2  2  0
  4  2  1  0
  4  5  1  0
  5  7  1  0
  5  6  1  1
  7  8  2  0
  9 10  1  0
  9  7  1  0
 10 18  1  0
 10 11  1  1
 12 11  1  0
 12 17  2  0
 13 12  1  0
 14 13  2  0
 14 15  1  0
 15 16  2  0
 16 17  1  0
 18 24  1  0
 18 19  2  0
 21 20  1  1
 21 23  1  0
 22 21  1  0
 23 25  1  0
 23 24  1  1
 25 27  2  0
 25 26  1  0
M  END
$$$$
