NFT.pdb
     RDKit          3D

 27 27  0  0  1  0  0  0  0  0999 V2000
   28.9127  -19.9541  -17.5665 N   0  0  0  0  0  0  0  0  0  0  0  0
   27.5341  -19.6982  -17.7138 C   0  0  0  0  0  0  0  0  0  0  0  0
   27.1474  -18.8492  -18.5383 O   0  0  0  0  0  0  0  0  0  0  0  0
   26.5606  -20.4362  -16.8919 C   0  0  0  0  0  0  0  0  0  0  0  0
   27.2770  -21.4308  -15.9743 C   0  0  2  0  0  0  0  0  0  0  0  0
   27.3748  -22.6701  -16.7229 N   0  0  0  0  0  0  0  0  0  0  0  0
   26.5019  -21.6516  -14.7324 C   0  0  0  0  0  0  0  0  0  0  0  0
   25.5217  -22.4327  -14.7699 O   0  0  0  0  0  0  0  0  0  0  0  0
   26.8702  -20.9898  -13.5375 N   0  0  0  0  0  0  0  0  0  0  0  0
   26.0814  -21.1779  -12.2944 C   0  0  1  0  0  0  0  0  0  0  0  0
   26.9945  -20.7870  -11.1913 C   0  0  0  0  0  0  0  0  0  0  0  0
   26.3925  -20.5767   -9.8690 C   0  0  0  0  0  0  0  0  0  0  0  0
   26.6756  -19.4415   -9.1435 C   0  0  0  0  0  0  0  0  0  0  0  0
   26.1216  -19.1730   -7.9149 C   0  0  0  0  0  0  0  0  0  0  0  0
   25.2282  -20.1085   -7.3891 C   0  0  0  0  0  0  0  0  0  0  0  0
   24.9289  -21.2489   -8.0925 C   0  0  0  0  0  0  0  0  0  0  0  0
   25.5135  -21.4880   -9.3419 C   0  0  0  0  0  0  0  0  0  0  0  0
   24.8502  -20.4279  -12.4748 C   0  0  0  0  0  0  0  0  0  0  0  0
   24.8729  -19.1510  -12.6635 O   0  0  0  0  0  0  0  0  0  0  0  0
   22.6660  -19.7025  -14.9996 C   0  0  0  0  0  0  0  0  0  0  0  0
   21.6930  -20.2350  -13.9730 C   0  0  1  0  0  0  0  0  0  0  0  0
   21.5236  -21.5908  -14.2555 O   0  0  0  0  0  0  0  0  0  0  0  0
   22.3603  -20.1015  -12.6233 C   0  0  2  0  0  0  0  0  0  0  0  0
   23.5161  -20.9310  -12.4813 N   0  0  0  0  0  0  0  0  0  0  0  0
   21.3490  -20.4491  -11.6215 C   0  0  0  0  0  0  0  0  0  0  0  0
   20.2120  -19.6912  -11.4921 O   0  0  0  0  0  0  0  0  0  0  0  0
   21.5033  -21.4367  -10.8700 O   0  0  0  0  0  0  0  0  0  0  0  0
  2  1  1  0
  3  2  2  0
  4  2  1  0
  4  5  1  0
  5  7  1  0
  5  6  1  6
  7  8  2  0
  9 10  1  0
  9  7  1  0
 10 18  1  0
 10 11  1  1
 12 11  1  0
 12 17  2  0
 13 12  1  0
 14 13  2  0
 14 15  1  0
 15 16  2  0
 16 17  1  0
 18 24  1  0
 18 19  2  0
 21 20  1  6
 21 23  1  0
 22 21  1  0
 23 25  1  0
 23 24  1  6
 25 27  2  0
 25 26  1  0
M  END
$$$$
