NFT.pdb
     RDKit          3D

 27 27  0  0  1  0  0  0  0  0999 V2000
   28.7899  -19.7921  -15.4914 N   0  0  0  0  0  0  0  0  0  0  0  0
   27.5116  -19.3143  -15.1376 C   0  0  0  0  0  0  0  0  0  0  0  0
   26.9516  -18.4604  -15.8501 O   0  0  0  0  0  0  0  0  0  0  0  0
   26.8468  -19.8276  -13.9283 C   0  0  0  0  0  0  0  0  0  0  0  0
   27.6909  -20.9267  -13.2770 C   0  0  2  0  0  0  0  0  0  0  0  0
   27.5688  -22.0898  -14.1363 N   0  0  0  0  0  0  0  0  0  0  0  0
   27.1843  -21.2448  -11.9228 C   0  0  0  0  0  0  0  0  0  0  0  0
   26.4234  -22.2319  -11.7853 O   0  0  0  0  0  0  0  0  0  0  0  0
   27.5584  -20.4445  -10.8178 N   0  0  0  0  0  0  0  0  0  0  0  0
   27.0473  -20.7463   -9.4574 C   0  0  1  0  0  0  0  0  0  0  0  0
   28.1131  -20.2891   -8.5311 C   0  0  0  0  0  0  0  0  0  0  0  0
   27.7622  -20.1836   -7.1095 C   0  0  0  0  0  0  0  0  0  0  0  0
   27.3320  -21.2889   -6.4107 C   0  0  0  0  0  0  0  0  0  0  0  0
   27.0175  -21.2613   -5.0733 C   0  0  0  0  0  0  0  0  0  0  0  0
   27.1459  -20.0431   -4.4030 C   0  0  0  0  0  0  0  0  0  0  0  0
   27.5729  -18.9258   -5.0768 C   0  0  0  0  0  0  0  0  0  0  0  0
   27.8842  -18.9928   -6.4401 C   0  0  0  0  0  0  0  0  0  0  0  0
   25.7364  -20.1264   -9.3671 C   0  0  0  0  0  0  0  0  0  0  0  0
   25.6114  -18.8421   -9.3264 O   0  0  0  0  0  0  0  0  0  0  0  0
   23.7913  -19.4151  -11.7660 C   0  0  0  0  0  0  0  0  0  0  0  0
   22.7394  -20.1124  -10.9345 C   0  0  1  0  0  0  0  0  0  0  0  0
   22.7020  -21.4361  -11.3741 O   0  0  0  0  0  0  0  0  0  0  0  0
   23.2248  -20.0915   -9.5031 C   0  0  2  0  0  0  0  0  0  0  0  0
   24.4673  -20.7744   -9.3189 N   0  0  0  0  0  0  0  0  0  0  0  0
   22.1705  -20.7109   -8.6957 C   0  0  0  0  0  0  0  0  0  0  0  0
   20.9143  -20.1595   -8.6545 O   0  0  0  0  0  0  0  0  0  0  0  0
   22.3953  -21.7472   -8.0328 O   0  0  0  0  0  0  0  0  0  0  0  0
  2  1  1  0
  3  2  2  0
  4  2  1  0
  4  5  1  0
  5  7  1  0
  5  6  1  6
  7  8  2  0
  9 10  1  0
  9  7  1  0
 10 18  1  0
 10 11  1  1
 12 11  1  0
 12 17  2  0
 13 12  1  0
 14 13  2  0
 14 15  1  0
 15 16  2  0
 16 17  1  0
 18 24  1  0
 18 19  2  0
 21 20  1  6
 21 23  1  0
 22 21  1  0
 23 25  1  0
 23 24  1  6
 25 27  2  0
 25 26  1  0
M  END
$$$$
