NFT.pdb
     RDKit          3D

 27 27  0  0  1  0  0  0  0  0999 V2000
   29.1528  -20.6691  -18.5165 N   0  0  0  0  0  0  0  0  0  0  0  0
   27.7584  -20.5459  -18.6836 C   0  0  0  0  0  0  0  0  0  0  0  0
   27.3055  -19.9268  -19.6645 O   0  0  0  0  0  0  0  0  0  0  0  0
   26.8465  -21.1495  -17.6978 C   0  0  0  0  0  0  0  0  0  0  0  0
   27.6376  -21.9085  -16.6288 C   0  0  2  0  0  0  0  0  0  0  0  0
   27.9559  -23.2013  -17.2062 N   0  0  0  0  0  0  0  0  0  0  0  0
   26.8256  -22.0893  -15.4042 C   0  0  0  0  0  0  0  0  0  0  0  0
   26.0196  -23.0487  -15.3570 O   0  0  0  0  0  0  0  0  0  0  0  0
   26.9663  -21.1924  -14.3192 N   0  0  0  0  0  0  0  0  0  0  0  0
   26.1762  -21.3782  -13.0765 C   0  0  1  0  0  0  0  0  0  0  0  0
   27.0180  -20.8138  -11.9922 C   0  0  0  0  0  0  0  0  0  0  0  0
   26.3832  -20.6290  -10.6815 C   0  0  0  0  0  0  0  0  0  0  0  0
   26.5037  -21.5903   -9.7035 C   0  0  0  0  0  0  0  0  0  0  0  0
   25.9587  -21.4630   -8.4485 C   0  0  0  0  0  0  0  0  0  0  0  0
   25.2497  -20.2937   -8.1660 C   0  0  0  0  0  0  0  0  0  0  0  0
   25.1148  -19.3195   -9.1239 C   0  0  0  0  0  0  0  0  0  0  0  0
   25.6844  -19.4849  -10.3920 C   0  0  0  0  0  0  0  0  0  0  0  0
   24.8752  -20.7817  -13.3270 C   0  0  0  0  0  0  0  0  0  0  0  0
   24.7743  -19.6065  -13.8515 O   0  0  0  0  0  0  0  0  0  0  0  0
   20.2688  -20.4970  -14.5381 C   0  0  0  0  0  0  0  0  0  0  0  0
   21.4814  -21.3724  -14.3208 C   0  0  1  0  0  0  0  0  0  0  0  0
   22.1517  -21.4291  -15.5433 O   0  0  0  0  0  0  0  0  0  0  0  0
   22.3626  -20.6629  -13.3183 C   0  0  2  0  0  0  0  0  0  0  0  0
   23.5925  -21.3465  -13.0652 N   0  0  0  0  0  0  0  0  0  0  0  0
   21.5778  -20.5391  -12.0870 C   0  0  0  0  0  0  0  0  0  0  0  0
   20.5149  -19.6728  -12.0263 O   0  0  0  0  0  0  0  0  0  0  0  0
   21.8614  -21.2163  -11.0746 O   0  0  0  0  0  0  0  0  0  0  0  0
  2  1  1  0
  3  2  2  0
  4  2  1  0
  4  5  1  0
  5  7  1  0
  5  6  1  6
  7  8  2  0
  9 10  1  0
  9  7  1  0
 10 18  1  0
 10 11  1  1
 12 11  1  0
 12 17  2  0
 13 12  1  0
 14 13  2  0
 14 15  1  0
 15 16  2  0
 16 17  1  0
 18 24  1  0
 18 19  2  0
 21 20  1  6
 21 23  1  0
 22 21  1  0
 23 25  1  0
 23 24  1  1
 25 27  2  0
 25 26  1  0
M  END
$$$$
