NFT.pdb
     RDKit          3D

 27 27  0  0  1  0  0  0  0  0999 V2000
   25.7997  -16.0450  -17.8240 N   0  0  0  0  0  0  0  0  0  0  0  0
   25.8196  -16.7936  -16.6295 C   0  0  0  0  0  0  0  0  0  0  0  0
   26.6752  -16.5468  -15.7593 O   0  0  0  0  0  0  0  0  0  0  0  0
   24.8291  -17.8624  -16.4186 C   0  0  0  0  0  0  0  0  0  0  0  0
   25.5288  -19.1972  -16.1476 C   0  0  2  0  0  0  0  0  0  0  0  0
   26.1917  -19.5623  -17.3859 N   0  0  0  0  0  0  0  0  0  0  0  0
   24.5454  -20.2394  -15.7758 C   0  0  0  0  0  0  0  0  0  0  0  0
   23.7741  -20.6777  -16.6620 O   0  0  0  0  0  0  0  0  0  0  0  0
   24.4883  -20.7210  -14.4468 N   0  0  0  0  0  0  0  0  0  0  0  0
   23.6464  -21.8939  -14.1025 C   0  0  1  0  0  0  0  0  0  0  0  0
   24.3802  -22.5951  -13.0195 C   0  0  0  0  0  0  0  0  0  0  0  0
   24.7353  -21.8056  -11.8338 C   0  0  0  0  0  0  0  0  0  0  0  0
   23.7965  -21.5400  -10.8627 C   0  0  0  0  0  0  0  0  0  0  0  0
   24.0742  -20.8333   -9.7173 C   0  0  0  0  0  0  0  0  0  0  0  0
   25.3791  -20.3676   -9.5442 C   0  0  0  0  0  0  0  0  0  0  0  0
   26.3342  -20.6188  -10.4978 C   0  0  0  0  0  0  0  0  0  0  0  0
   26.0136  -21.3428  -11.6524 C   0  0  0  0  0  0  0  0  0  0  0  0
   22.3195  -21.3746  -13.8183 C   0  0  0  0  0  0  0  0  0  0  0  0
   22.1628  -20.3069  -13.1098 O   0  0  0  0  0  0  0  0  0  0  0  0
   19.7799  -19.5955  -15.6406 C   0  0  0  0  0  0  0  0  0  0  0  0
   19.0516  -20.8194  -15.1346 C   0  0  1  0  0  0  0  0  0  0  0  0
   19.1492  -21.7811  -16.1407 O   0  0  0  0  0  0  0  0  0  0  0  0
   19.8069  -21.3105  -13.9208 C   0  0  2  0  0  0  0  0  0  0  0  0
   21.0663  -21.9056  -14.2431 N   0  0  0  0  0  0  0  0  0  0  0  0
   18.9349  -22.2785  -13.2501 C   0  0  0  0  0  0  0  0  0  0  0  0
   17.7265  -21.8821  -12.7339 O   0  0  0  0  0  0  0  0  0  0  0  0
   19.2747  -23.4766  -13.1359 O   0  0  0  0  0  0  0  0  0  0  0  0
  2  1  1  0
  3  2  2  0
  4  2  1  0
  4  5  1  0
  5  7  1  0
  5  6  1  6
  7  8  2  0
  9 10  1  0
  9  7  1  0
 10 18  1  0
 10 11  1  1
 12 11  1  0
 12 17  2  0
 13 12  1  0
 14 13  2  0
 14 15  1  0
 15 16  2  0
 16 17  1  0
 18 24  1  0
 18 19  2  0
 21 20  1  6
 21 23  1  0
 22 21  1  0
 23 25  1  0
 23 24  1  6
 25 27  2  0
 25 26  1  0
M  END
$$$$
