NFT.pdb
     RDKit          3D

 27 27  0  0  1  0  0  0  0  0999 V2000
   27.5744  -21.0916  -19.9155 N   0  0  0  0  0  0  0  0  0  0  0  0
   27.7631  -20.5891  -18.6118 C   0  0  0  0  0  0  0  0  0  0  0  0
   28.5946  -19.6840  -18.4123 O   0  0  0  0  0  0  0  0  0  0  0  0
   26.9763  -21.1375  -17.4947 C   0  0  0  0  0  0  0  0  0  0  0  0
   27.9012  -21.6961  -16.4098 C   0  0  2  0  0  0  0  0  0  0  0  0
   28.3605  -22.9837  -16.8967 N   0  0  0  0  0  0  0  0  0  0  0  0
   27.1692  -21.8711  -15.1349 C   0  0  0  0  0  0  0  0  0  0  0  0
   26.4293  -22.8748  -15.0027 O   0  0  0  0  0  0  0  0  0  0  0  0
   27.3107  -20.9194  -14.0976 N   0  0  0  0  0  0  0  0  0  0  0  0
   26.6314  -21.1159  -12.7927 C   0  0  1  0  0  0  0  0  0  0  0  0
   27.5529  -20.5371  -11.7833 C   0  0  0  0  0  0  0  0  0  0  0  0
   27.0540  -20.4310  -10.4067 C   0  0  0  0  0  0  0  0  0  0  0  0
   26.0774  -19.5156  -10.0847 C   0  0  0  0  0  0  0  0  0  0  0  0
   25.5486  -19.3883   -8.8228 C   0  0  0  0  0  0  0  0  0  0  0  0
   26.0367  -20.2374   -7.8275 C   0  0  0  0  0  0  0  0  0  0  0  0
   27.0105  -21.1591   -8.1225 C   0  0  0  0  0  0  0  0  0  0  0  0
   27.5253  -21.2594   -9.4205 C   0  0  0  0  0  0  0  0  0  0  0  0
   25.3048  -20.5400  -12.9323 C   0  0  0  0  0  0  0  0  0  0  0  0
   25.1482  -19.3290  -13.3513 O   0  0  0  0  0  0  0  0  0  0  0  0
   22.8782  -20.6536  -15.2506 C   0  0  0  0  0  0  0  0  0  0  0  0
   22.0296  -20.9818  -14.0438 C   0  0  1  0  0  0  0  0  0  0  0  0
   21.9329  -22.3729  -13.9955 O   0  0  0  0  0  0  0  0  0  0  0  0
   22.7917  -20.5072  -12.8277 C   0  0  2  0  0  0  0  0  0  0  0  0
   24.0513  -21.1626  -12.6603 N   0  0  0  0  0  0  0  0  0  0  0  0
   21.9254  -20.7504  -11.6711 C   0  0  0  0  0  0  0  0  0  0  0  0
   20.6902  -20.1570  -11.5929 O   0  0  0  0  0  0  0  0  0  0  0  0
   22.2943  -21.4982  -10.7392 O   0  0  0  0  0  0  0  0  0  0  0  0
  2  1  1  0
  3  2  2  0
  4  2  1  0
  4  5  1  0
  5  7  1  0
  5  6  1  6
  7  8  2  0
  9 10  1  0
  9  7  1  0
 10 18  1  0
 10 11  1  1
 12 11  1  0
 12 17  2  0
 13 12  1  0
 14 13  2  0
 14 15  1  0
 15 16  2  0
 16 17  1  0
 18 24  1  0
 18 19  2  0
 21 20  1  6
 21 23  1  0
 22 21  1  0
 23 25  1  0
 23 24  1  1
 25 27  2  0
 25 26  1  0
M  END
$$$$
