NFT.pdb
     RDKit          3D

 27 27  0  0  1  0  0  0  0  0999 V2000
   25.3665  -17.1239  -18.3128 N   0  0  0  0  0  0  0  0  0  0  0  0
   25.4839  -18.4239  -18.8455 C   0  0  0  0  0  0  0  0  0  0  0  0
   25.6990  -18.5764  -20.0624 O   0  0  0  0  0  0  0  0  0  0  0  0
   25.3514  -19.5928  -17.9600 C   0  0  0  0  0  0  0  0  0  0  0  0
   26.6402  -20.4196  -17.9657 C   0  0  2  0  0  0  0  0  0  0  0  0
   26.4249  -21.4934  -18.9179 N   0  0  0  0  0  0  0  0  0  0  0  0
   26.9087  -20.9825  -16.6230 C   0  0  0  0  0  0  0  0  0  0  0  0
   26.4215  -22.1015  -16.3350 O   0  0  0  0  0  0  0  0  0  0  0  0
   27.6990  -20.2633  -15.6958 N   0  0  0  0  0  0  0  0  0  0  0  0
   28.0089  -20.8354  -14.3617 C   0  0  1  0  0  0  0  0  0  0  0  0
   29.4209  -20.4623  -14.0969 C   0  0  0  0  0  0  0  0  0  0  0  0
   29.9723  -20.8237  -12.7852 C   0  0  0  0  0  0  0  0  0  0  0  0
   29.8157  -19.9850  -11.7048 C   0  0  0  0  0  0  0  0  0  0  0  0
   30.2820  -20.2800  -10.4463 C   0  0  0  0  0  0  0  0  0  0  0  0
   30.9461  -21.4956  -10.2703 C   0  0  0  0  0  0  0  0  0  0  0  0
   31.1156  -22.3499  -11.3316 C   0  0  0  0  0  0  0  0  0  0  0  0
   30.6264  -22.0148  -12.5997 C   0  0  0  0  0  0  0  0  0  0  0  0
   26.9808  -20.3463  -13.4591 C   0  0  0  0  0  0  0  0  0  0  0  0
   26.7079  -19.0867  -13.3847 O   0  0  0  0  0  0  0  0  0  0  0  0
   23.5964  -20.0414  -13.4463 C   0  0  0  0  0  0  0  0  0  0  0  0
   23.7717  -20.7531  -12.1245 C   0  0  1  0  0  0  0  0  0  0  0  0
   23.5915  -22.1127  -12.3811 O   0  0  0  0  0  0  0  0  0  0  0  0
   25.2019  -20.5280  -11.6899 C   0  0  2  0  0  0  0  0  0  0  0  0
   26.1593  -21.1094  -12.5783 N   0  0  0  0  0  0  0  0  0  0  0  0
   25.3259  -21.1041  -10.3482 C   0  0  0  0  0  0  0  0  0  0  0  0
   24.5230  -20.6617   -9.3266 O   0  0  0  0  0  0  0  0  0  0  0  0
   26.1615  -22.0038  -10.1111 O   0  0  0  0  0  0  0  0  0  0  0  0
  2  1  1  0
  3  2  2  0
  4  2  1  0
  4  5  1  0
  5  7  1  0
  5  6  1  6
  7  8  2  0
  9 10  1  0
  9  7  1  0
 10 18  1  0
 10 11  1  1
 12 11  1  0
 12 17  2  0
 13 12  1  0
 14 13  2  0
 14 15  1  0
 15 16  2  0
 16 17  1  0
 18 24  1  0
 18 19  2  0
 21 20  1  6
 21 23  1  0
 22 21  1  0
 23 25  1  0
 23 24  1  6
 25 27  2  0
 25 26  1  0
M  END
$$$$
