NFT.pdb
     RDKit          3D

 27 27  0  0  1  0  0  0  0  0999 V2000
   20.8983  -14.8224  -19.5877 N   0  0  0  0  0  0  0  0  0  0  0  0
   19.9626  -14.1679  -18.7607 C   0  0  0  0  0  0  0  0  0  0  0  0
   18.7466  -14.2550  -19.0134 O   0  0  0  0  0  0  0  0  0  0  0  0
   20.4291  -13.3857  -17.6038 C   0  0  0  0  0  0  0  0  0  0  0  0
   21.9589  -13.3838  -17.5384 C   0  0  2  0  0  0  0  0  0  0  0  0
   22.3355  -14.6298  -16.8968 N   0  0  0  0  0  0  0  0  0  0  0  0
   22.4488  -12.2373  -16.7402 C   0  0  0  0  0  0  0  0  0  0  0  0
   22.3677  -12.3001  -15.4905 O   0  0  0  0  0  0  0  0  0  0  0  0
   22.9941  -11.1028  -17.3861 N   0  0  0  0  0  0  0  0  0  0  0  0
   23.4938   -9.9497  -16.5964 C   0  0  1  0  0  0  0  0  0  0  0  0
   24.9107   -9.7826  -17.0058 C   0  0  0  0  0  0  0  0  0  0  0  0
   25.8751  -10.7609  -16.4880 C   0  0  0  0  0  0  0  0  0  0  0  0
   26.3721  -11.7529  -17.3029 C   0  0  0  0  0  0  0  0  0  0  0  0
   27.2982  -12.6787  -16.8864 C   0  0  0  0  0  0  0  0  0  0  0  0
   27.7482  -12.5962  -15.5672 C   0  0  0  0  0  0  0  0  0  0  0  0
   27.2684  -11.6163  -14.7339 C   0  0  0  0  0  0  0  0  0  0  0  0
   26.3249  -10.6902  -15.1942 C   0  0  0  0  0  0  0  0  0  0  0  0
   22.5678   -8.8568  -16.8390 C   0  0  0  0  0  0  0  0  0  0  0  0
   22.3841   -8.3952  -18.0305 O   0  0  0  0  0  0  0  0  0  0  0  0
   18.8489   -8.6042  -16.2726 C   0  0  0  0  0  0  0  0  0  0  0  0
   19.4507   -7.3896  -15.6041 C   0  0  1  0  0  0  0  0  0  0  0  0
   19.6332   -7.7270  -14.2626 O   0  0  0  0  0  0  0  0  0  0  0  0
   20.8058   -7.1660  -16.2355 C   0  0  2  0  0  0  0  0  0  0  0  0
   21.7638   -8.1675  -15.8844 N   0  0  0  0  0  0  0  0  0  0  0  0
   21.2575   -5.8429  -15.7966 C   0  0  0  0  0  0  0  0  0  0  0  0
   22.3868   -5.7157  -15.0269 O   0  0  0  0  0  0  0  0  0  0  0  0
   20.6250   -4.8115  -16.1130 O   0  0  0  0  0  0  0  0  0  0  0  0
  2  1  1  0
  3  2  2  0
  4  2  1  0
  4  5  1  0
  5  7  1  0
  5  6  1  1
  7  8  2  0
  9 10  1  0
  9  7  1  0
 10 18  1  0
 10 11  1  6
 12 11  1  0
 12 17  2  0
 13 12  1  0
 14 13  2  0
 14 15  1  0
 15 16  2  0
 16 17  1  0
 18 24  1  0
 18 19  2  0
 21 20  1  6
 21 23  1  0
 22 21  1  0
 23 25  1  0
 23 24  1  1
 25 27  2  0
 25 26  1  0
M  END
$$$$
