NFT.pdb
     RDKit          3D

 27 27  0  0  1  0  0  0  0  0999 V2000
   25.0116  -16.5394  -18.0961 N   0  0  0  0  0  0  0  0  0  0  0  0
   23.7704  -17.2011  -18.1918 C   0  0  0  0  0  0  0  0  0  0  0  0
   22.8295  -16.6648  -18.8061 O   0  0  0  0  0  0  0  0  0  0  0  0
   23.5943  -18.5216  -17.5648 C   0  0  0  0  0  0  0  0  0  0  0  0
   24.8671  -18.9375  -16.8221 C   0  0  2  0  0  0  0  0  0  0  0  0
   25.8514  -19.2345  -17.8463 N   0  0  0  0  0  0  0  0  0  0  0  0
   24.6225  -20.1399  -15.9938 C   0  0  0  0  0  0  0  0  0  0  0  0
   24.6497  -21.2641  -16.5486 O   0  0  0  0  0  0  0  0  0  0  0  0
   24.3653  -20.0087  -14.6089 N   0  0  0  0  0  0  0  0  0  0  0  0
   24.1429  -21.2083  -13.7636 C   0  0  1  0  0  0  0  0  0  0  0  0
   25.0961  -21.0707  -12.6343 C   0  0  0  0  0  0  0  0  0  0  0  0
   26.5213  -20.9701  -12.9719 C   0  0  0  0  0  0  0  0  0  0  0  0
   27.2776  -19.9169  -12.5095 C   0  0  0  0  0  0  0  0  0  0  0  0
   28.6209  -19.7822  -12.7657 C   0  0  0  0  0  0  0  0  0  0  0  0
   29.2356  -20.7718  -13.5355 C   0  0  0  0  0  0  0  0  0  0  0  0
   28.5038  -21.8326  -14.0089 C   0  0  0  0  0  0  0  0  0  0  0  0
   27.1364  -21.9357  -13.7270 C   0  0  0  0  0  0  0  0  0  0  0  0
   22.7202  -21.2431  -13.4707 C   0  0  0  0  0  0  0  0  0  0  0  0
   22.2268  -22.1395  -12.6836 O   0  0  0  0  0  0  0  0  0  0  0  0
   20.3256  -18.3588  -12.2921 C   0  0  0  0  0  0  0  0  0  0  0  0
   19.6753  -19.0814  -13.4493 C   0  0  1  0  0  0  0  0  0  0  0  0
   19.9805  -18.3466  -14.5955 O   0  0  0  0  0  0  0  0  0  0  0  0
   20.3393  -20.4355  -13.5515 C   0  0  2  0  0  0  0  0  0  0  0  0
   21.7087  -20.3630  -13.9557 N   0  0  0  0  0  0  0  0  0  0  0  0
   19.5566  -21.2124  -14.5165 C   0  0  0  0  0  0  0  0  0  0  0  0
   18.2439  -21.5189  -14.2581 O   0  0  0  0  0  0  0  0  0  0  0  0
   20.0681  -21.6085  -15.5867 O   0  0  0  0  0  0  0  0  0  0  0  0
  2  1  1  0
  3  2  2  0
  4  2  1  0
  4  5  1  0
  5  7  1  0
  5  6  1  6
  7  8  2  0
  9 10  1  0
  9  7  1  0
 10 18  1  0
 10 11  1  1
 12 11  1  0
 12 17  2  0
 13 12  1  0
 14 13  2  0
 14 15  1  0
 15 16  2  0
 16 17  1  0
 18 24  1  0
 18 19  2  0
 21 20  1  1
 21 23  1  0
 22 21  1  0
 23 25  1  0
 23 24  1  6
 25 27  2  0
 25 26  1  0
M  END
$$$$
