NFT.pdb
     RDKit          3D

 27 27  0  0  1  0  0  0  0  0999 V2000
   22.8621  -12.7439  -20.0955 N   0  0  0  0  0  0  0  0  0  0  0  0
   21.5480  -12.5126  -19.6403 C   0  0  0  0  0  0  0  0  0  0  0  0
   20.5802  -12.8702  -20.3372 O   0  0  0  0  0  0  0  0  0  0  0  0
   21.3281  -11.8496  -18.3441 C   0  0  0  0  0  0  0  0  0  0  0  0
   22.6624  -11.4212  -17.7269 C   0  0  2  0  0  0  0  0  0  0  0  0
   23.2264  -12.6132  -17.1212 N   0  0  0  0  0  0  0  0  0  0  0  0
   22.4532  -10.3814  -16.6941 C   0  0  0  0  0  0  0  0  0  0  0  0
   21.8042  -10.6829  -15.6644 O   0  0  0  0  0  0  0  0  0  0  0  0
   22.9795   -9.0811  -16.8777 N   0  0  0  0  0  0  0  0  0  0  0  0
   22.7544   -8.0231  -15.8613 C   0  0  1  0  0  0  0  0  0  0  0  0
   24.1111   -7.5998  -15.4333 C   0  0  0  0  0  0  0  0  0  0  0  0
   25.1656   -8.6210  -15.4506 C   0  0  0  0  0  0  0  0  0  0  0  0
   26.0566   -8.6897  -16.4978 C   0  0  0  0  0  0  0  0  0  0  0  0
   27.0823   -9.6021  -16.5577 C   0  0  0  0  0  0  0  0  0  0  0  0
   27.2147  -10.4983  -15.4952 C   0  0  0  0  0  0  0  0  0  0  0  0
   26.3393  -10.4509  -14.4386 C   0  0  0  0  0  0  0  0  0  0  0  0
   25.3060   -9.5067  -14.4128 C   0  0  0  0  0  0  0  0  0  0  0  0
   21.8840   -7.0393  -16.4821 C   0  0  0  0  0  0  0  0  0  0  0  0
   22.3005   -6.3098  -17.4624 O   0  0  0  0  0  0  0  0  0  0  0  0
   18.6861   -7.2201  -18.4444 C   0  0  0  0  0  0  0  0  0  0  0  0
   18.4117   -6.2715  -17.3001 C   0  0  1  0  0  0  0  0  0  0  0  0
   17.8447   -7.0365  -16.2803 O   0  0  0  0  0  0  0  0  0  0  0  0
   19.7506   -5.7522  -16.8283 C   0  0  2  0  0  0  0  0  0  0  0  0
   20.5305   -6.7392  -16.1489 N   0  0  0  0  0  0  0  0  0  0  0  0
   19.4702   -4.6175  -15.9446 C   0  0  0  0  0  0  0  0  0  0  0  0
   18.8461   -3.4965  -16.4321 O   0  0  0  0  0  0  0  0  0  0  0  0
   19.7935   -4.6496  -14.7369 O   0  0  0  0  0  0  0  0  0  0  0  0
  2  1  1  0
  3  2  2  0
  4  2  1  0
  4  5  1  0
  5  7  1  0
  5  6  1  1
  7  8  2  0
  9 10  1  0
  9  7  1  0
 10 18  1  0
 10 11  1  6
 12 11  1  0
 12 17  2  0
 13 12  1  0
 14 13  2  0
 14 15  1  0
 15 16  2  0
 16 17  1  0
 18 24  1  0
 18 19  2  0
 21 20  1  6
 21 23  1  0
 22 21  1  0
 23 25  1  0
 23 24  1  1
 25 27  2  0
 25 26  1  0
M  END
$$$$
