NFT.pdb
     RDKit          3D

 27 27  0  0  1  0  0  0  0  0999 V2000
   21.1863  -10.1726  -21.0813 N   0  0  0  0  0  0  0  0  0  0  0  0
   19.9087   -9.6838  -20.7403 C   0  0  0  0  0  0  0  0  0  0  0  0
   19.0031   -9.6709  -21.5948 O   0  0  0  0  0  0  0  0  0  0  0  0
   19.6531   -9.1915  -19.3764 C   0  0  0  0  0  0  0  0  0  0  0  0
   20.9028   -9.3489  -18.5057 C   0  0  2  0  0  0  0  0  0  0  0  0
   20.9188  -10.7336  -18.0717 N   0  0  0  0  0  0  0  0  0  0  0  0
   20.8394   -8.4524  -17.3293 C   0  0  0  0  0  0  0  0  0  0  0  0
   20.1567   -8.8105  -16.3403 O   0  0  0  0  0  0  0  0  0  0  0  0
   21.5384   -7.2224  -17.3344 N   0  0  0  0  0  0  0  0  0  0  0  0
   21.4328   -6.2873  -16.1866 C   0  0  1  0  0  0  0  0  0  0  0  0
   22.7338   -6.3906  -15.4797 C   0  0  0  0  0  0  0  0  0  0  0  0
   22.9916   -7.6280  -14.7330 C   0  0  0  0  0  0  0  0  0  0  0  0
   23.9811   -8.4959  -15.1365 C   0  0  0  0  0  0  0  0  0  0  0  0
   24.2902   -9.6537  -14.4639 C   0  0  0  0  0  0  0  0  0  0  0  0
   23.5547   -9.9511  -13.3149 C   0  0  0  0  0  0  0  0  0  0  0  0
   22.5625   -9.1021  -12.8911 C   0  0  0  0  0  0  0  0  0  0  0  0
   22.2761   -7.9311  -13.6029 C   0  0  0  0  0  0  0  0  0  0  0  0
   21.0447   -5.0019  -16.7417 C   0  0  0  0  0  0  0  0  0  0  0  0
   21.7889   -4.4023  -17.6096 O   0  0  0  0  0  0  0  0  0  0  0  0
   17.8544   -3.9361  -18.6334 C   0  0  0  0  0  0  0  0  0  0  0  0
   18.0685   -2.9514  -17.5070 C   0  0  1  0  0  0  0  0  0  0  0  0
   17.3001   -3.4051  -16.4344 O   0  0  0  0  0  0  0  0  0  0  0  0
   19.5287   -3.0314  -17.1242 C   0  0  2  0  0  0  0  0  0  0  0  0
   19.8700   -4.2469  -16.4535 N   0  0  0  0  0  0  0  0  0  0  0  0
   19.7991   -1.8747  -16.2663 C   0  0  0  0  0  0  0  0  0  0  0  0
   19.6673   -0.6002  -16.7585 O   0  0  0  0  0  0  0  0  0  0  0  0
   20.1538   -2.0272  -15.0768 O   0  0  0  0  0  0  0  0  0  0  0  0
  2  1  1  0
  3  2  2  0
  4  2  1  0
  4  5  1  0
  5  7  1  0
  5  6  1  1
  7  8  2  0
  9 10  1  0
  9  7  1  0
 10 18  1  0
 10 11  1  6
 12 11  1  0
 12 17  2  0
 13 12  1  0
 14 13  2  0
 14 15  1  0
 15 16  2  0
 16 17  1  0
 18 24  1  0
 18 19  2  0
 21 20  1  6
 21 23  1  0
 22 21  1  0
 23 25  1  0
 23 24  1  1
 25 27  2  0
 25 26  1  0
M  END
$$$$
