NFT.pdb
     RDKit          3D

 27 27  0  0  1  0  0  0  0  0999 V2000
   18.0696  -11.9770  -13.7695 N   0  0  0  0  0  0  0  0  0  0  0  0
   16.7929  -11.6393  -14.2629 C   0  0  0  0  0  0  0  0  0  0  0  0
   16.2422  -12.3717  -15.1059 O   0  0  0  0  0  0  0  0  0  0  0  0
   16.1188  -10.4231  -13.7787 C   0  0  0  0  0  0  0  0  0  0  0  0
   15.6707  -10.6000  -12.3253 C   0  0  2  0  0  0  0  0  0  0  0  0
   14.5626  -11.5366  -12.3573 N   0  0  0  0  0  0  0  0  0  0  0  0
   15.2242   -9.3098  -11.7529 C   0  0  0  0  0  0  0  0  0  0  0  0
   14.1346   -8.8272  -12.1433 O   0  0  0  0  0  0  0  0  0  0  0  0
   16.0187   -8.6474  -10.7878 N   0  0  0  0  0  0  0  0  0  0  0  0
   15.5959   -7.3392  -10.2285 C   0  0  1  0  0  0  0  0  0  0  0  0
   15.6430   -7.5125   -8.7551 C   0  0  0  0  0  0  0  0  0  0  0  0
   14.3583   -7.5487   -8.0456 C   0  0  0  0  0  0  0  0  0  0  0  0
   13.6181   -8.7084   -7.9966 C   0  0  0  0  0  0  0  0  0  0  0  0
   12.4242   -8.8141   -7.3245 C   0  0  0  0  0  0  0  0  0  0  0  0
   11.9510   -7.6792   -6.6627 C   0  0  0  0  0  0  0  0  0  0  0  0
   12.6701   -6.5102   -6.6961 C   0  0  0  0  0  0  0  0  0  0  0  0
   13.8830   -6.4408   -7.3917 C   0  0  0  0  0  0  0  0  0  0  0  0
   16.4550   -6.3381  -10.8373 C   0  0  0  0  0  0  0  0  0  0  0  0
   17.7393   -6.4108  -10.7277 O   0  0  0  0  0  0  0  0  0  0  0  0
   17.3644   -5.5579  -14.2773 C   0  0  0  0  0  0  0  0  0  0  0  0
   16.8399   -4.2504  -13.7300 C   0  0  1  0  0  0  0  0  0  0  0  0
   15.4805   -4.2088  -14.0418 O   0  0  0  0  0  0  0  0  0  0  0  0
   16.9899   -4.3107  -12.2270 C   0  0  2  0  0  0  0  0  0  0  0  0
   16.0619   -5.2013  -11.6029 N   0  0  0  0  0  0  0  0  0  0  0  0
   16.8047   -2.9433  -11.7340 C   0  0  0  0  0  0  0  0  0  0  0  0
   17.6904   -1.9544  -12.0826 O   0  0  0  0  0  0  0  0  0  0  0  0
   15.8418   -2.6545  -10.9901 O   0  0  0  0  0  0  0  0  0  0  0  0
  2  1  1  0
  3  2  2  0
  4  2  1  0
  4  5  1  0
  5  7  1  0
  5  6  1  6
  7  8  2  0
  9 10  1  0
  9  7  1  0
 10 18  1  0
 10 11  1  1
 12 11  1  0
 12 17  2  0
 13 12  1  0
 14 13  2  0
 14 15  1  0
 15 16  2  0
 16 17  1  0
 18 24  1  0
 18 19  2  0
 21 20  1  6
 21 23  1  0
 22 21  1  0
 23 25  1  0
 23 24  1  1
 25 27  2  0
 25 26  1  0
M  END
$$$$
