NFT.pdb
     RDKit          3D

 27 27  0  0  1  0  0  0  0  0999 V2000
   28.6287  -23.1738  -19.3619 N   0  0  0  0  0  0  0  0  0  0  0  0
   29.1362  -22.5006  -18.2319 C   0  0  0  0  0  0  0  0  0  0  0  0
   30.0647  -21.6817  -18.3652 O   0  0  0  0  0  0  0  0  0  0  0  0
   28.5656  -22.7699  -16.9016 C   0  0  0  0  0  0  0  0  0  0  0  0
   27.4662  -21.7559  -16.5735 C   0  0  2  0  0  0  0  0  0  0  0  0
   28.0920  -20.4483  -16.6413 N   0  0  0  0  0  0  0  0  0  0  0  0
   26.9273  -21.9871  -15.2142 C   0  0  0  0  0  0  0  0  0  0  0  0
   26.3469  -23.0732  -14.9775 O   0  0  0  0  0  0  0  0  0  0  0  0
   27.0713  -20.9965  -14.2145 N   0  0  0  0  0  0  0  0  0  0  0  0
   26.4419  -21.1697  -12.8814 C   0  0  1  0  0  0  0  0  0  0  0  0
   27.3880  -20.5490  -11.9209 C   0  0  0  0  0  0  0  0  0  0  0  0
   26.9572  -20.4636  -10.5201 C   0  0  0  0  0  0  0  0  0  0  0  0
   27.5069  -21.2910   -9.5669 C   0  0  0  0  0  0  0  0  0  0  0  0
   27.1678  -21.2395   -8.2363 C   0  0  0  0  0  0  0  0  0  0  0  0
   26.2162  -20.2949   -7.8466 C   0  0  0  0  0  0  0  0  0  0  0  0
   25.6527  -19.4578   -8.7776 C   0  0  0  0  0  0  0  0  0  0  0  0
   26.0235  -19.5399  -10.1250 C   0  0  0  0  0  0  0  0  0  0  0  0
   25.1012  -20.6200  -12.9886 C   0  0  0  0  0  0  0  0  0  0  0  0
   24.9144  -19.3885  -13.3277 O   0  0  0  0  0  0  0  0  0  0  0  0
   22.6488  -20.6977  -15.3422 C   0  0  0  0  0  0  0  0  0  0  0  0
   21.8370  -21.1280  -14.1422 C   0  0  1  0  0  0  0  0  0  0  0  0
   21.8210  -22.5231  -14.1559 O   0  0  0  0  0  0  0  0  0  0  0  0
   22.5872  -20.6647  -12.9144 C   0  0  2  0  0  0  0  0  0  0  0  0
   23.8635  -21.2911  -12.7636 N   0  0  0  0  0  0  0  0  0  0  0  0
   21.7282  -20.9596  -11.7644 C   0  0  0  0  0  0  0  0  0  0  0  0
   20.5051  -20.3498  -11.6380 O   0  0  0  0  0  0  0  0  0  0  0  0
   22.0925  -21.7674  -10.8820 O   0  0  0  0  0  0  0  0  0  0  0  0
  2  1  1  0
  3  2  2  0
  4  2  1  0
  4  5  1  0
  5  7  1  0
  5  6  1  1
  7  8  2  0
  9 10  1  0
  9  7  1  0
 10 18  1  0
 10 11  1  1
 12 11  1  0
 12 17  2  0
 13 12  1  0
 14 13  2  0
 14 15  1  0
 15 16  2  0
 16 17  1  0
 18 24  1  0
 18 19  2  0
 21 20  1  6
 21 23  1  0
 22 21  1  0
 23 25  1  0
 23 24  1  1
 25 27  2  0
 25 26  1  0
M  END
$$$$
