NFT.pdb
     RDKit          3D

 27 27  0  0  1  0  0  0  0  0999 V2000
   28.5915  -17.9273  -17.0255 N   0  0  0  0  0  0  0  0  0  0  0  0
   28.4171  -17.9831  -15.6276 C   0  0  0  0  0  0  0  0  0  0  0  0
   29.0857  -17.2346  -14.8907 O   0  0  0  0  0  0  0  0  0  0  0  0
   27.4460  -18.9259  -15.0480 C   0  0  0  0  0  0  0  0  0  0  0  0
   28.1685  -20.0381  -14.2827 C   0  0  2  0  0  0  0  0  0  0  0  0
   28.9192  -20.7862  -15.2740 N   0  0  0  0  0  0  0  0  0  0  0  0
   27.1965  -20.9285  -13.6086 C   0  0  0  0  0  0  0  0  0  0  0  0
   26.5717  -21.7660  -14.3019 O   0  0  0  0  0  0  0  0  0  0  0  0
   26.9875  -20.8258  -12.2132 N   0  0  0  0  0  0  0  0  0  0  0  0
   25.9837  -21.6821  -11.5334 C   0  0  1  0  0  0  0  0  0  0  0  0
   26.6466  -22.1455  -10.2888 C   0  0  0  0  0  0  0  0  0  0  0  0
   26.8381  -21.1525   -9.2247 C   0  0  0  0  0  0  0  0  0  0  0  0
   28.0137  -21.1104   -8.5097 C   0  0  0  0  0  0  0  0  0  0  0  0
   28.2649  -20.1872   -7.5234 C   0  0  0  0  0  0  0  0  0  0  0  0
   27.2674  -19.2509   -7.2437 C   0  0  0  0  0  0  0  0  0  0  0  0
   26.0857  -19.2712   -7.9423 C   0  0  0  0  0  0  0  0  0  0  0  0
   25.8660  -20.2275   -8.9408 C   0  0  0  0  0  0  0  0  0  0  0  0
   24.7755  -20.8832  -11.4201 C   0  0  0  0  0  0  0  0  0  0  0  0
   24.8343  -19.6326  -11.1052 O   0  0  0  0  0  0  0  0  0  0  0  0
   21.8942  -21.8605  -14.0127 C   0  0  0  0  0  0  0  0  0  0  0  0
   22.2632  -20.4505  -13.6126 C   0  0  1  0  0  0  0  0  0  0  0  0
   21.1832  -19.6430  -13.9708 O   0  0  0  0  0  0  0  0  0  0  0  0
   22.3963  -20.4409  -12.1069 C   0  0  2  0  0  0  0  0  0  0  0  0
   23.4292  -21.3049  -11.6266 N   0  0  0  0  0  0  0  0  0  0  0  0
   21.0940  -20.8449  -11.5703 C   0  0  0  0  0  0  0  0  0  0  0  0
   19.9890  -20.0538  -11.7626 O   0  0  0  0  0  0  0  0  0  0  0  0
   20.9669  -21.9117  -10.9301 O   0  0  0  0  0  0  0  0  0  0  0  0
  2  1  1  0
  3  2  2  0
  4  2  1  0
  4  5  1  0
  5  7  1  0
  5  6  1  6
  7  8  2  0
  9 10  1  0
  9  7  1  0
 10 18  1  0
 10 11  1  1
 12 11  1  0
 12 17  2  0
 13 12  1  0
 14 13  2  0
 14 15  1  0
 15 16  2  0
 16 17  1  0
 18 24  1  0
 18 19  2  0
 21 20  1  1
 21 23  1  0
 22 21  1  0
 23 25  1  0
 23 24  1  6
 25 27  2  0
 25 26  1  0
M  END
$$$$
