NFT.pdb
     RDKit          3D

 27 27  0  0  1  0  0  0  0  0999 V2000
   21.2834  -14.5091  -19.7172 N   0  0  0  0  0  0  0  0  0  0  0  0
   20.2367  -13.9334  -18.9685 C   0  0  0  0  0  0  0  0  0  0  0  0
   19.0540  -14.1401  -19.2984 O   0  0  0  0  0  0  0  0  0  0  0  0
   20.5483  -13.0914  -17.8015 C   0  0  0  0  0  0  0  0  0  0  0  0
   22.0607  -12.8883  -17.6743 C   0  0  2  0  0  0  0  0  0  0  0  0
   22.5845  -14.1153  -17.1033 N   0  0  0  0  0  0  0  0  0  0  0  0
   22.3639  -11.7470  -16.7815 C   0  0  0  0  0  0  0  0  0  0  0  0
   22.2609  -11.9125  -15.5428 O   0  0  0  0  0  0  0  0  0  0  0  0
   22.7599  -10.5033  -17.3273 N   0  0  0  0  0  0  0  0  0  0  0  0
   23.1213   -9.3687  -16.4412 C   0  0  1  0  0  0  0  0  0  0  0  0
   24.5280   -9.0409  -16.7829 C   0  0  0  0  0  0  0  0  0  0  0  0
   25.5550  -10.0126  -16.3876 C   0  0  0  0  0  0  0  0  0  0  0  0
   26.1448  -10.8288  -17.3263 C   0  0  0  0  0  0  0  0  0  0  0  0
   27.1315  -11.7362  -17.0245 C   0  0  0  0  0  0  0  0  0  0  0  0
   27.5463  -11.8231  -15.6940 C   0  0  0  0  0  0  0  0  0  0  0  0
   26.9742  -11.0204  -14.7385 C   0  0  0  0  0  0  0  0  0  0  0  0
   25.9709  -10.1073  -15.0842 C   0  0  0  0  0  0  0  0  0  0  0  0
   22.1030   -8.3524  -16.6436 C   0  0  0  0  0  0  0  0  0  0  0  0
   21.8822   -7.8588  -17.8158 O   0  0  0  0  0  0  0  0  0  0  0  0
   18.3628   -8.4354  -15.6578 C   0  0  0  0  0  0  0  0  0  0  0  0
   18.9228   -7.1118  -15.1903 C   0  0  1  0  0  0  0  0  0  0  0  0
   19.2635   -7.2793  -13.8476 O   0  0  0  0  0  0  0  0  0  0  0  0
   20.1859   -6.8638  -15.9827 C   0  0  2  0  0  0  0  0  0  0  0  0
   21.2389   -7.7775  -15.6659 N   0  0  0  0  0  0  0  0  0  0  0  0
   20.5943   -5.4859  -15.6966 C   0  0  0  0  0  0  0  0  0  0  0  0
   19.7720   -4.4367  -16.0236 O   0  0  0  0  0  0  0  0  0  0  0  0
   21.6939   -5.2425  -15.1529 O   0  0  0  0  0  0  0  0  0  0  0  0
  2  1  1  0
  3  2  2  0
  4  2  1  0
  4  5  1  0
  5  7  1  0
  5  6  1  1
  7  8  2  0
  9 10  1  0
  9  7  1  0
 10 18  1  0
 10 11  1  6
 12 11  1  0
 12 17  2  0
 13 12  1  0
 14 13  2  0
 14 15  1  0
 15 16  2  0
 16 17  1  0
 18 24  1  0
 18 19  2  0
 21 20  1  6
 21 23  1  0
 22 21  1  0
 23 25  1  0
 23 24  1  1
 25 27  2  0
 25 26  1  0
M  END
$$$$
