KTW.pdb
     RDKit          3D

 31 32  0  0  1  0  0  0  0  0999 V2000
    7.6469  -16.5019   19.4171 N   0  0  0  0  0  0  0  0  0  0  0  0
    8.0954  -15.8201   20.5874 C   0  0  1  0  0  0  0  0  0  0  0  0
    7.1474  -14.7191   20.9870 C   0  0  0  0  0  0  0  0  0  0  0  0
    7.0668  -13.6280   19.9610 C   0  0  0  0  0  0  0  0  0  0  0  0
    8.3913  -13.0554   19.5722 C   0  0  0  0  0  0  0  0  0  0  0  0
    8.3070  -11.9316   18.5709 C   0  0  0  0  0  0  0  0  0  0  0  0
    9.6046  -11.3199   18.3613 N   0  0  0  0  0  0  0  0  0  0  0  0
    8.3237  -16.7851   21.6932 C   0  0  0  0  0  0  0  0  0  0  0  0
    7.4797  -17.6752   21.9822 O   0  0  0  0  0  0  0  0  0  0  0  0
   10.8584  -19.3005   22.1204 C   0  0  0  0  0  0  0  0  0  0  0  0
   11.0651  -18.3605   23.2853 C   0  0  1  0  0  0  0  0  0  0  0  0
   12.1292  -17.5252   22.9544 O   0  0  0  0  0  0  0  0  0  0  0  0
    9.8401  -17.5366   23.5761 C   0  0  2  0  0  0  0  0  0  0  0  0
    9.5329  -16.7078   22.4566 N   0  0  0  0  0  0  0  0  0  0  0  0
   10.1594  -16.7107   24.7979 C   0  0  0  0  0  0  0  0  0  0  0  0
   10.7255  -15.6014   24.6494 O   0  0  0  0  0  0  0  0  0  0  0  0
    9.8342  -17.1614   26.1006 N   0  0  0  0  0  0  0  0  0  0  0  0
   10.2364  -16.4132   27.2824 C   0  0  1  0  0  0  0  0  0  0  0  0
    9.0349  -16.0132   28.0433 C   0  0  0  0  0  0  0  0  0  0  0  0
    7.9402  -15.4170   27.2901 C   0  0  0  0  0  0  0  0  0  0  0  0
    6.8552  -16.1020   26.7210 C   0  0  0  0  0  0  0  0  0  0  0  0
    6.1095  -15.1885   26.1048 N   0  0  0  0  0  0  0  0  0  0  0  0
    6.6437  -13.9641   26.2413 C   0  0  0  0  0  0  0  0  0  0  0  0
    6.2280  -12.7217   25.7928 C   0  0  0  0  0  0  0  0  0  0  0  0
    6.9325  -11.5702   26.0631 C   0  0  0  0  0  0  0  0  0  0  0  0
    8.0912  -11.6882   26.8102 C   0  0  0  0  0  0  0  0  0  0  0  0
    8.5212  -12.9097   27.2639 C   0  0  0  0  0  0  0  0  0  0  0  0
    7.8184  -14.0673   26.9950 C   0  0  0  0  0  0  0  0  0  0  0  0
   11.3250  -17.0777   27.9817 C   0  0  0  0  0  0  0  0  0  0  0  0
   11.8936  -16.4215   29.0982 O   0  0  0  0  0  0  0  0  0  0  0  0
   11.8383  -18.1816   27.7201 O   0  0  0  0  0  0  0  0  0  0  0  0
  2  1  1  6
  3  2  1  0
  3  4  1  0
  5  4  1  0
  6  5  1  0
  7  6  1  0
  8  9  2  0
  8  2  1  0
 11 10  1  6
 11 13  1  0
 12 11  1  0
 13 14  1  6
 14  8  1  0
 15 13  1  0
 15 17  1  0
 16 15  2  0
 18 17  1  0
 18 29  1  0
 18 19  1  1
 19 20  1  0
 20 28  1  0
 21 20  2  0
 21 22  1  0
 22 23  1  0
 23 24  2  0
 24 25  1  0
 26 25  2  0
 27 26  1  0
 28 27  2  0
 28 23  1  0
 29 30  1  0
 31 29  2  0
M  END
$$$$
