KTW.pdb
     RDKit          3D

 31 32  0  0  1  0  0  0  0  0999 V2000
    9.5387  -17.0761   18.7847 N   0  0  0  0  0  0  0  0  0  0  0  0
    9.5408  -16.2521   19.9494 C   0  0  1  0  0  0  0  0  0  0  0  0
    8.5386  -15.1322   19.8400 C   0  0  0  0  0  0  0  0  0  0  0  0
    8.5903  -14.4411   18.5098 C   0  0  0  0  0  0  0  0  0  0  0  0
    8.5349  -12.9501   18.5930 C   0  0  0  0  0  0  0  0  0  0  0  0
    8.5196  -12.2581   17.2537 C   0  0  0  0  0  0  0  0  0  0  0  0
    7.7427  -13.0085   16.2866 N   0  0  0  0  0  0  0  0  0  0  0  0
    9.3230  -17.0754   21.1663 C   0  0  0  0  0  0  0  0  0  0  0  0
    8.5936  -18.1030   21.1507 O   0  0  0  0  0  0  0  0  0  0  0  0
   10.7054  -19.5436   22.3537 C   0  0  0  0  0  0  0  0  0  0  0  0
   11.0075  -18.5693   23.4685 C   0  0  1  0  0  0  0  0  0  0  0  0
   12.2484  -18.0009   23.1913 O   0  0  0  0  0  0  0  0  0  0  0  0
    9.9647  -17.4905   23.5799 C   0  0  2  0  0  0  0  0  0  0  0  0
    9.9551  -16.6973   22.3945 N   0  0  0  0  0  0  0  0  0  0  0  0
   10.3301  -16.6646   24.7887 C   0  0  0  0  0  0  0  0  0  0  0  0
   11.0966  -15.6826   24.6434 O   0  0  0  0  0  0  0  0  0  0  0  0
    9.8272  -16.9751   26.0758 N   0  0  0  0  0  0  0  0  0  0  0  0
   10.1171  -16.1309   27.2254 C   0  0  1  0  0  0  0  0  0  0  0  0
    8.8589  -15.8131   27.9315 C   0  0  0  0  0  0  0  0  0  0  0  0
    7.7824  -15.2325   27.1408 C   0  0  0  0  0  0  0  0  0  0  0  0
    6.7244  -15.9323   26.5396 C   0  0  0  0  0  0  0  0  0  0  0  0
    5.9885  -15.0299   25.8959 N   0  0  0  0  0  0  0  0  0  0  0  0
    6.5038  -13.7988   26.0447 C   0  0  0  0  0  0  0  0  0  0  0  0
    6.0885  -12.5631   25.5779 C   0  0  0  0  0  0  0  0  0  0  0  0
    6.7705  -11.4024   25.8661 C   0  0  0  0  0  0  0  0  0  0  0  0
    7.9056  -11.5041   26.6508 C   0  0  0  0  0  0  0  0  0  0  0  0
    8.3348  -12.7187   27.1232 C   0  0  0  0  0  0  0  0  0  0  0  0
    7.6546  -13.8855   26.8364 C   0  0  0  0  0  0  0  0  0  0  0  0
   11.2427  -16.6474   27.9881 C   0  0  0  0  0  0  0  0  0  0  0  0
   11.7735  -17.9047   27.6168 O   0  0  0  0  0  0  0  0  0  0  0  0
   11.8191  -16.1130   28.9539 O   0  0  0  0  0  0  0  0  0  0  0  0
  2  1  1  6
  3  2  1  0
  3  4  1  0
  5  4  1  0
  6  5  1  0
  7  6  1  0
  8  9  2  0
  8  2  1  0
 11 10  1  6
 11 13  1  0
 12 11  1  0
 13 14  1  6
 14  8  1  0
 15 13  1  0
 15 17  1  0
 16 15  2  0
 18 17  1  0
 18 29  1  0
 18 19  1  1
 19 20  1  0
 20 28  1  0
 21 20  2  0
 21 22  1  0
 22 23  1  0
 23 24  2  0
 24 25  1  0
 26 25  2  0
 27 26  1  0
 28 27  2  0
 28 23  1  0
 29 30  1  0
 31 29  2  0
M  END
$$$$
