KTW.pdb
     RDKit          3D

 31 32  0  0  1  0  0  0  0  0999 V2000
    9.4709  -17.0764   18.5966 N   0  0  0  0  0  0  0  0  0  0  0  0
    9.7262  -16.2837   19.7549 C   0  0  1  0  0  0  0  0  0  0  0  0
    9.0212  -14.9539   19.6849 C   0  0  0  0  0  0  0  0  0  0  0  0
    8.4588  -14.6712   18.3235 C   0  0  0  0  0  0  0  0  0  0  0  0
    7.8524  -13.3126   18.1825 C   0  0  0  0  0  0  0  0  0  0  0  0
    7.2440  -13.0465   16.8290 C   0  0  0  0  0  0  0  0  0  0  0  0
    8.0978  -12.1875   16.0320 N   0  0  0  0  0  0  0  0  0  0  0  0
    9.3717  -17.0362   20.9855 C   0  0  0  0  0  0  0  0  0  0  0  0
    8.2934  -17.6812   21.0817 O   0  0  0  0  0  0  0  0  0  0  0  0
   10.8187  -19.9070   22.3479 C   0  0  0  0  0  0  0  0  0  0  0  0
   11.0198  -18.8801   23.4381 C   0  0  1  0  0  0  0  0  0  0  0  0
   12.3274  -18.4140   23.3263 O   0  0  0  0  0  0  0  0  0  0  0  0
   10.0559  -17.7306   23.3220 C   0  0  2  0  0  0  0  0  0  0  0  0
   10.2744  -17.0328   22.0973 N   0  0  0  0  0  0  0  0  0  0  0  0
   10.3073  -16.8388   24.5130 C   0  0  0  0  0  0  0  0  0  0  0  0
   11.0472  -15.8357   24.3743 O   0  0  0  0  0  0  0  0  0  0  0  0
    9.7273  -17.1112   25.7761 N   0  0  0  0  0  0  0  0  0  0  0  0
    9.9534  -16.2362   26.9169 C   0  0  1  0  0  0  0  0  0  0  0  0
    8.6561  -15.8797   27.5274 C   0  0  0  0  0  0  0  0  0  0  0  0
    7.7025  -15.1652   26.6899 C   0  0  0  0  0  0  0  0  0  0  0  0
    6.6573  -15.7383   25.9487 C   0  0  0  0  0  0  0  0  0  0  0  0
    6.0515  -14.7402   25.3107 N   0  0  0  0  0  0  0  0  0  0  0  0
    6.6382  -13.5659   25.5938 C   0  0  0  0  0  0  0  0  0  0  0  0
    6.3583  -12.2731   25.1842 C   0  0  0  0  0  0  0  0  0  0  0  0
    7.0924  -11.1913   25.6154 C   0  0  0  0  0  0  0  0  0  0  0  0
    8.1393  -11.4336   26.4871 C   0  0  0  0  0  0  0  0  0  0  0  0
    8.4341  -12.7068   26.9051 C   0  0  0  0  0  0  0  0  0  0  0  0
    7.7010  -13.7950   26.4750 C   0  0  0  0  0  0  0  0  0  0  0  0
   11.0173  -16.7446   27.7684 C   0  0  0  0  0  0  0  0  0  0  0  0
   11.5520  -18.0197   27.4707 O   0  0  0  0  0  0  0  0  0  0  0  0
   11.5362  -16.1891   28.7546 O   0  0  0  0  0  0  0  0  0  0  0  0
  2  1  1  6
  3  2  1  0
  3  4  1  0
  5  4  1  0
  6  5  1  0
  7  6  1  0
  8  9  2  0
  8  2  1  0
 11 10  1  6
 11 13  1  0
 12 11  1  0
 13 14  1  6
 14  8  1  0
 15 13  1  0
 15 17  1  0
 16 15  2  0
 18 17  1  0
 18 29  1  0
 18 19  1  1
 19 20  1  0
 20 28  1  0
 21 20  2  0
 21 22  1  0
 22 23  1  0
 23 24  2  0
 24 25  1  0
 26 25  2  0
 27 26  1  0
 28 27  2  0
 28 23  1  0
 29 30  1  0
 31 29  2  0
M  END
$$$$
