KTW.pdb
     RDKit          3D

 31 32  0  0  1  0  0  0  0  0999 V2000
    9.8551  -17.3878   17.8017 N   0  0  0  0  0  0  0  0  0  0  0  0
    9.2297  -16.2034   18.2932 C   0  0  1  0  0  0  0  0  0  0  0  0
    8.1798  -15.6928   17.3406 C   0  0  0  0  0  0  0  0  0  0  0  0
    8.7631  -14.8829   16.2210 C   0  0  0  0  0  0  0  0  0  0  0  0
    7.7847  -13.9747   15.5493 C   0  0  0  0  0  0  0  0  0  0  0  0
    8.3655  -13.1788   14.4082 C   0  0  0  0  0  0  0  0  0  0  0  0
    7.3605  -12.3305   13.7979 N   0  0  0  0  0  0  0  0  0  0  0  0
    8.6801  -16.4346   19.6536 C   0  0  0  0  0  0  0  0  0  0  0  0
    7.5660  -15.9642   20.0081 O   0  0  0  0  0  0  0  0  0  0  0  0
    8.1652  -19.8368   21.0002 C   0  0  0  0  0  0  0  0  0  0  0  0
    9.0469  -19.1214   21.9973 C   0  0  1  0  0  0  0  0  0  0  0  0
   10.3555  -19.5331   21.7572 O   0  0  0  0  0  0  0  0  0  0  0  0
    8.9507  -17.6251   21.8715 C   0  0  2  0  0  0  0  0  0  0  0  0
    9.4309  -17.2115   20.5936 N   0  0  0  0  0  0  0  0  0  0  0  0
    9.7888  -17.0468   22.9850 C   0  0  0  0  0  0  0  0  0  0  0  0
   11.0206  -16.8977   22.8027 O   0  0  0  0  0  0  0  0  0  0  0  0
    9.2144  -16.6713   24.2241 N   0  0  0  0  0  0  0  0  0  0  0  0
   10.0405  -16.2297   25.3380 C   0  0  1  0  0  0  0  0  0  0  0  0
    9.6429  -14.8626   25.7328 C   0  0  0  0  0  0  0  0  0  0  0  0
    8.2158  -14.5793   25.7986 C   0  0  0  0  0  0  0  0  0  0  0  0
    7.1784  -15.5206   25.7087 C   0  0  0  0  0  0  0  0  0  0  0  0
    6.0384  -14.8391   25.7883 N   0  0  0  0  0  0  0  0  0  0  0  0
    6.2759  -13.5244   25.9236 C   0  0  0  0  0  0  0  0  0  0  0  0
    5.4221  -12.4421   26.0546 C   0  0  0  0  0  0  0  0  0  0  0  0
    5.8864  -11.1540   26.1981 C   0  0  0  0  0  0  0  0  0  0  0  0
    7.2569  -10.9642   26.2084 C   0  0  0  0  0  0  0  0  0  0  0  0
    8.1206  -12.0226   26.0795 C   0  0  0  0  0  0  0  0  0  0  0  0
    7.6597  -13.3161   25.9348 C   0  0  0  0  0  0  0  0  0  0  0  0
   10.1393  -17.2585   26.3613 C   0  0  0  0  0  0  0  0  0  0  0  0
   11.1005  -17.0853   27.3843 O   0  0  0  0  0  0  0  0  0  0  0  0
    9.4691  -18.3034   26.4597 O   0  0  0  0  0  0  0  0  0  0  0  0
  2  1  1  6
  3  2  1  0
  3  4  1  0
  5  4  1  0
  6  5  1  0
  7  6  1  0
  8  9  2  0
  8  2  1  0
 11 10  1  6
 11 13  1  0
 12 11  1  0
 13 14  1  6
 14  8  1  0
 15 13  1  0
 15 17  1  0
 16 15  2  0
 18 17  1  0
 18 29  1  0
 18 19  1  1
 19 20  1  0
 20 28  1  0
 21 20  2  0
 21 22  1  0
 22 23  1  0
 23 24  2  0
 24 25  1  0
 26 25  2  0
 27 26  1  0
 28 27  2  0
 28 23  1  0
 29 30  1  0
 31 29  2  0
M  END
$$$$
