KTW.pdb
     RDKit          3D

 31 32  0  0  1  0  0  0  0  0999 V2000
   10.4870  -15.4173   18.2001 N   0  0  0  0  0  0  0  0  0  0  0  0
   10.1686  -14.9506   19.5101 C   0  0  1  0  0  0  0  0  0  0  0  0
    9.1425  -13.8477   19.4732 C   0  0  0  0  0  0  0  0  0  0  0  0
    8.8346  -13.3941   18.0771 C   0  0  0  0  0  0  0  0  0  0  0  0
    7.6698  -14.0901   17.4511 C   0  0  0  0  0  0  0  0  0  0  0  0
    7.2241  -13.4900   16.1418 C   0  0  0  0  0  0  0  0  0  0  0  0
    6.0656  -14.1852   15.6158 N   0  0  0  0  0  0  0  0  0  0  0  0
    9.7381  -16.0810   20.3720 C   0  0  0  0  0  0  0  0  0  0  0  0
    9.2248  -17.1258   19.8892 O   0  0  0  0  0  0  0  0  0  0  0  0
   10.1654  -18.7778   20.9825 C   0  0  0  0  0  0  0  0  0  0  0  0
   10.4696  -18.2509   22.3657 C   0  0  1  0  0  0  0  0  0  0  0  0
   11.8213  -17.9163   22.3890 O   0  0  0  0  0  0  0  0  0  0  0  0
    9.6386  -17.0451   22.7109 C   0  0  2  0  0  0  0  0  0  0  0  0
    9.9070  -15.9884   21.7911 N   0  0  0  0  0  0  0  0  0  0  0  0
   10.0148  -16.6543   24.1190 C   0  0  0  0  0  0  0  0  0  0  0  0
   10.9792  -15.8720   24.2944 O   0  0  0  0  0  0  0  0  0  0  0  0
    9.3041  -17.1509   25.2389 N   0  0  0  0  0  0  0  0  0  0  0  0
    9.5811  -16.6705   26.5845 C   0  0  1  0  0  0  0  0  0  0  0  0
    8.3124  -16.3007   27.2451 C   0  0  0  0  0  0  0  0  0  0  0  0
    7.4269  -15.3974   26.5233 C   0  0  0  0  0  0  0  0  0  0  0  0
    6.2783  -15.7615   25.8032 C   0  0  0  0  0  0  0  0  0  0  0  0
    5.7855  -14.6412   25.2813 N   0  0  0  0  0  0  0  0  0  0  0  0
    6.5411  -13.5837   25.6190 C   0  0  0  0  0  0  0  0  0  0  0  0
    6.4222  -12.2352   25.3278 C   0  0  0  0  0  0  0  0  0  0  0  0
    7.3181  -11.3011   25.7971 C   0  0  0  0  0  0  0  0  0  0  0  0
    8.3625  -11.7535   26.5839 C   0  0  0  0  0  0  0  0  0  0  0  0
    8.4991  -13.0854   26.8841 C   0  0  0  0  0  0  0  0  0  0  0  0
    7.6035  -14.0260   26.4153 C   0  0  0  0  0  0  0  0  0  0  0  0
   10.5068  -17.5517   27.2787 C   0  0  0  0  0  0  0  0  0  0  0  0
   11.0220  -17.1228   28.5242 O   0  0  0  0  0  0  0  0  0  0  0  0
   10.9183  -18.6680   26.9111 O   0  0  0  0  0  0  0  0  0  0  0  0
  2  1  1  6
  3  2  1  0
  3  4  1  0
  5  4  1  0
  6  5  1  0
  7  6  1  0
  8  9  2  0
  8  2  1  0
 11 10  1  6
 11 13  1  0
 12 11  1  0
 13 14  1  6
 14  8  1  0
 15 13  1  0
 15 17  1  0
 16 15  2  0
 18 17  1  0
 18 29  1  0
 18 19  1  1
 19 20  1  0
 20 28  1  0
 21 20  2  0
 21 22  1  0
 22 23  1  0
 23 24  2  0
 24 25  1  0
 26 25  2  0
 27 26  1  0
 28 27  2  0
 28 23  1  0
 29 30  1  0
 31 29  2  0
M  END
$$$$
