KTW.pdb
     RDKit          3D

 31 32  0  0  1  0  0  0  0  0999 V2000
    9.7267  -17.0785   16.4034 N   0  0  0  0  0  0  0  0  0  0  0  0
   10.1178  -17.4994   17.7092 C   0  0  1  0  0  0  0  0  0  0  0  0
   11.6130  -17.6485   17.8208 C   0  0  0  0  0  0  0  0  0  0  0  0
   12.1711  -18.6186   16.8222 C   0  0  0  0  0  0  0  0  0  0  0  0
   12.1574  -20.0415   17.2787 C   0  0  0  0  0  0  0  0  0  0  0  0
   12.8893  -20.9896   16.3631 C   0  0  0  0  0  0  0  0  0  0  0  0
   14.2960  -21.0658   16.7059 N   0  0  0  0  0  0  0  0  0  0  0  0
    9.5738  -16.5741   18.7360 C   0  0  0  0  0  0  0  0  0  0  0  0
    9.6005  -15.3235   18.5833 O   0  0  0  0  0  0  0  0  0  0  0  0
    6.2287  -16.1406   19.8420 C   0  0  0  0  0  0  0  0  0  0  0  0
    6.9653  -16.5749   21.0878 C   0  0  1  0  0  0  0  0  0  0  0  0
    6.7237  -17.9364   21.2534 O   0  0  0  0  0  0  0  0  0  0  0  0
    8.4461  -16.3270   20.9892 C   0  0  2  0  0  0  0  0  0  0  0  0
    9.0024  -17.1101   19.9348 N   0  0  0  0  0  0  0  0  0  0  0  0
    9.0345  -16.7097   22.3249 C   0  0  0  0  0  0  0  0  0  0  0  0
   10.2709  -16.5925   22.4992 O   0  0  0  0  0  0  0  0  0  0  0  0
    8.2223  -17.1956   23.3786 N   0  0  0  0  0  0  0  0  0  0  0  0
    8.3296  -16.6572   24.7265 C   0  0  1  0  0  0  0  0  0  0  0  0
    8.3535  -15.1813   24.6657 C   0  0  0  0  0  0  0  0  0  0  0  0
    8.3613  -14.4647   25.9336 C   0  0  0  0  0  0  0  0  0  0  0  0
    8.9414  -14.9073   27.1328 C   0  0  0  0  0  0  0  0  0  0  0  0
    8.6977  -13.9676   28.0427 N   0  0  0  0  0  0  0  0  0  0  0  0
    8.0008  -12.9526   27.5069 C   0  0  0  0  0  0  0  0  0  0  0  0
    7.5342  -11.7671   28.0493 C   0  0  0  0  0  0  0  0  0  0  0  0
    6.8400  -10.8414   27.3032 C   0  0  0  0  0  0  0  0  0  0  0  0
    6.6156  -11.1319   25.9692 C   0  0  0  0  0  0  0  0  0  0  0  0
    7.0688  -12.3009   25.4118 C   0  0  0  0  0  0  0  0  0  0  0  0
    7.7649  -13.2325   26.1561 C   0  0  0  0  0  0  0  0  0  0  0  0
    7.3966  -17.3107   25.6309 C   0  0  0  0  0  0  0  0  0  0  0  0
    6.0503  -17.4370   25.2161 O   0  0  0  0  0  0  0  0  0  0  0  0
    7.6330  -17.7887   26.7561 O   0  0  0  0  0  0  0  0  0  0  0  0
  2  1  1  6
  3  2  1  0
  3  4  1  0
  5  4  1  0
  6  5  1  0
  7  6  1  0
  8  9  2  0
  8  2  1  0
 11 10  1  6
 11 13  1  0
 12 11  1  0
 13 14  1  6
 14  8  1  0
 15 13  1  0
 15 17  1  0
 16 15  2  0
 18 17  1  0
 18 29  1  0
 18 19  1  6
 19 20  1  0
 20 28  1  0
 21 20  2  0
 21 22  1  0
 22 23  1  0
 23 24  2  0
 24 25  1  0
 26 25  2  0
 27 26  1  0
 28 27  2  0
 28 23  1  0
 29 30  1  0
 31 29  2  0
M  END
$$$$
