KTW.pdb
     RDKit          3D

 31 32  0  0  1  0  0  0  0  0999 V2000
    9.3734  -17.6663   16.2219 N   0  0  0  0  0  0  0  0  0  0  0  0
    9.3499  -18.1073   17.5785 C   0  0  1  0  0  0  0  0  0  0  0  0
   10.3094  -19.2459   17.8097 C   0  0  0  0  0  0  0  0  0  0  0  0
   11.6826  -18.9585   17.2794 C   0  0  0  0  0  0  0  0  0  0  0  0
   12.6669  -20.0609   17.5014 C   0  0  0  0  0  0  0  0  0  0  0  0
   14.0468  -19.7719   16.9675 C   0  0  0  0  0  0  0  0  0  0  0  0
   14.9725  -20.8340   17.3097 N   0  0  0  0  0  0  0  0  0  0  0  0
    9.6072  -16.9690   18.4974 C   0  0  0  0  0  0  0  0  0  0  0  0
   10.3840  -16.0269   18.1858 O   0  0  0  0  0  0  0  0  0  0  0  0
    7.1138  -14.5976   19.9667 C   0  0  0  0  0  0  0  0  0  0  0  0
    7.7684  -15.3349   21.1118 C   0  0  1  0  0  0  0  0  0  0  0  0
    6.9124  -16.3717   21.4747 O   0  0  0  0  0  0  0  0  0  0  0  0
    9.1144  -15.8917   20.7349 C   0  0  2  0  0  0  0  0  0  0  0  0
    8.9590  -16.9344   19.7739 N   0  0  0  0  0  0  0  0  0  0  0  0
    9.7360  -16.4091   22.0088 C   0  0  0  0  0  0  0  0  0  0  0  0
    9.8069  -17.6481   22.1896 O   0  0  0  0  0  0  0  0  0  0  0  0
   10.2376  -15.5278   22.9976 N   0  0  0  0  0  0  0  0  0  0  0  0
    9.5573  -15.3554   24.2726 C   0  0  1  0  0  0  0  0  0  0  0  0
    8.2705  -14.6635   24.0533 C   0  0  0  0  0  0  0  0  0  0  0  0
    7.4001  -14.4987   25.2093 C   0  0  0  0  0  0  0  0  0  0  0  0
    6.6391  -15.5050   25.8248 C   0  0  0  0  0  0  0  0  0  0  0  0
    5.9737  -14.9239   26.8197 N   0  0  0  0  0  0  0  0  0  0  0  0
    6.2575  -13.6130   26.8832 C   0  0  0  0  0  0  0  0  0  0  0  0
    5.8251  -12.6167   27.7422 C   0  0  0  0  0  0  0  0  0  0  0  0
    6.2619  -11.3154   27.6363 C   0  0  0  0  0  0  0  0  0  0  0  0
    7.1631  -11.0220   26.6282 C   0  0  0  0  0  0  0  0  0  0  0  0
    7.6040  -11.9940   25.7659 C   0  0  0  0  0  0  0  0  0  0  0  0
    7.1685  -13.3002   25.8679 C   0  0  0  0  0  0  0  0  0  0  0  0
    9.5734  -16.5850   25.0492 C   0  0  0  0  0  0  0  0  0  0  0  0
    9.3868  -17.8061   24.3604 O   0  0  0  0  0  0  0  0  0  0  0  0
    9.7351  -16.7093   26.2776 O   0  0  0  0  0  0  0  0  0  0  0  0
  2  1  1  6
  3  2  1  0
  3  4  1  0
  5  4  1  0
  6  5  1  0
  7  6  1  0
  8  9  2  0
  8  2  1  0
 11 10  1  6
 11 13  1  0
 12 11  1  0
 13 14  1  6
 14  8  1  0
 15 13  1  0
 15 17  1  0
 16 15  2  0
 18 17  1  0
 18 29  1  0
 18 19  1  6
 19 20  1  0
 20 28  1  0
 21 20  2  0
 21 22  1  0
 22 23  1  0
 23 24  2  0
 24 25  1  0
 26 25  2  0
 27 26  1  0
 28 27  2  0
 28 23  1  0
 29 30  1  0
 31 29  2  0
M  END
$$$$
