KTW.pdb
     RDKit          3D

 31 32  0  0  1  0  0  0  0  0999 V2000
    6.5475  -19.5066   18.2246 N   0  0  0  0  0  0  0  0  0  0  0  0
    6.6269  -18.5137   19.2459 C   0  0  1  0  0  0  0  0  0  0  0  0
    5.2958  -18.3012   19.9194 C   0  0  0  0  0  0  0  0  0  0  0  0
    4.2203  -19.1849   19.3609 C   0  0  0  0  0  0  0  0  0  0  0  0
    2.8823  -18.9980   19.9997 C   0  0  0  0  0  0  0  0  0  0  0  0
    1.7756  -19.7949   19.3571 C   0  0  0  0  0  0  0  0  0  0  0  0
    0.5665  -19.7485   20.1558 N   0  0  0  0  0  0  0  0  0  0  0  0
    7.6938  -18.8575   20.2204 C   0  0  0  0  0  0  0  0  0  0  0  0
    7.7388  -19.9829   20.7857 O   0  0  0  0  0  0  0  0  0  0  0  0
   11.0863  -19.4831   20.0296 C   0  0  0  0  0  0  0  0  0  0  0  0
   11.0459  -18.2519   20.9047 C   0  0  1  0  0  0  0  0  0  0  0  0
   11.3551  -17.1623   20.0943 O   0  0  0  0  0  0  0  0  0  0  0  0
    9.6973  -18.0495   21.5405 C   0  0  2  0  0  0  0  0  0  0  0  0
    8.7018  -17.8890   20.5316 N   0  0  0  0  0  0  0  0  0  0  0  0
    9.8100  -16.8145   22.4001 C   0  0  0  0  0  0  0  0  0  0  0  0
    9.8418  -15.6900   21.8456 O   0  0  0  0  0  0  0  0  0  0  0  0
    9.8799  -16.9004   23.8121 N   0  0  0  0  0  0  0  0  0  0  0  0
   10.0756  -15.7150   24.6335 C   0  0  1  0  0  0  0  0  0  0  0  0
    9.1188  -14.6677   24.2205 C   0  0  0  0  0  0  0  0  0  0  0  0
    7.9057  -14.5267   25.0139 C   0  0  0  0  0  0  0  0  0  0  0  0
    6.9686  -15.5367   25.2830 C   0  0  0  0  0  0  0  0  0  0  0  0
    6.0078  -14.9789   26.0151 N   0  0  0  0  0  0  0  0  0  0  0  0
    6.2666  -13.6795   26.2335 C   0  0  0  0  0  0  0  0  0  0  0  0
    5.5758  -12.7076   26.9376 C   0  0  0  0  0  0  0  0  0  0  0  0
    6.0364  -11.4150   27.0490 C   0  0  0  0  0  0  0  0  0  0  0  0
    7.2325  -11.1050   26.4265 C   0  0  0  0  0  0  0  0  0  0  0  0
    7.9327  -12.0527   25.7234 C   0  0  0  0  0  0  0  0  0  0  0  0
    7.4746  -13.3501   25.6084 C   0  0  0  0  0  0  0  0  0  0  0  0
   10.1775  -16.0609   26.0425 C   0  0  0  0  0  0  0  0  0  0  0  0
   10.6405  -15.0678   26.9368 O   0  0  0  0  0  0  0  0  0  0  0  0
    9.9023  -17.1486   26.5827 O   0  0  0  0  0  0  0  0  0  0  0  0
  2  1  1  6
  3  2  1  0
  3  4  1  0
  5  4  1  0
  6  5  1  0
  7  6  1  0
  8  9  2  0
  8  2  1  0
 11 10  1  6
 11 13  1  0
 12 11  1  0
 13 14  1  6
 14  8  1  0
 15 13  1  0
 15 17  1  0
 16 15  2  0
 18 17  1  0
 18 29  1  0
 18 19  1  1
 19 20  1  0
 20 28  1  0
 21 20  2  0
 21 22  1  0
 22 23  1  0
 23 24  2  0
 24 25  1  0
 26 25  2  0
 27 26  1  0
 28 27  2  0
 28 23  1  0
 29 30  1  0
 31 29  2  0
M  END
$$$$
