KTW.pdb
     RDKit          3D

 31 32  0  0  1  0  0  0  0  0999 V2000
    9.8877  -14.9029   19.1564 N   0  0  0  0  0  0  0  0  0  0  0  0
    8.8726  -14.3735   20.0076 C   0  0  1  0  0  0  0  0  0  0  0  0
    7.6701  -13.9180   19.2220 C   0  0  0  0  0  0  0  0  0  0  0  0
    8.0390  -13.0464   18.0584 C   0  0  0  0  0  0  0  0  0  0  0  0
    8.1037  -13.7671   16.7509 C   0  0  0  0  0  0  0  0  0  0  0  0
    8.3504  -12.8705   15.5642 C   0  0  0  0  0  0  0  0  0  0  0  0
    8.3730  -13.6312   14.3302 N   0  0  0  0  0  0  0  0  0  0  0  0
    8.5094  -15.3607   21.0562 C   0  0  0  0  0  0  0  0  0  0  0  0
    7.3151  -15.5346   21.4190 O   0  0  0  0  0  0  0  0  0  0  0  0
    9.8077  -19.0390   21.1832 C   0  0  0  0  0  0  0  0  0  0  0  0
   10.1798  -18.3176   22.4578 C   0  0  1  0  0  0  0  0  0  0  0  0
   11.5125  -17.9318   22.3365 O   0  0  0  0  0  0  0  0  0  0  0  0
    9.3177  -17.1085   22.6999 C   0  0  2  0  0  0  0  0  0  0  0  0
    9.5387  -16.1393   21.6769 N   0  0  0  0  0  0  0  0  0  0  0  0
    9.7042  -16.5713   24.0559 C   0  0  0  0  0  0  0  0  0  0  0  0
   10.5468  -15.6449   24.1239 O   0  0  0  0  0  0  0  0  0  0  0  0
    9.1372  -17.0901   25.2457 N   0  0  0  0  0  0  0  0  0  0  0  0
    9.6350  -16.6961   26.5554 C   0  0  1  0  0  0  0  0  0  0  0  0
    8.5114  -16.2089   27.3818 C   0  0  0  0  0  0  0  0  0  0  0  0
    7.5143  -15.3771   26.7224 C   0  0  0  0  0  0  0  0  0  0  0  0
    6.4400  -15.8316   25.9416 C   0  0  0  0  0  0  0  0  0  0  0  0
    5.7974  -14.7489   25.5115 N   0  0  0  0  0  0  0  0  0  0  0  0
    6.3876  -13.6311   25.9647 C   0  0  0  0  0  0  0  0  0  0  0  0
    6.0789  -12.2919   25.7952 C   0  0  0  0  0  0  0  0  0  0  0  0
    6.8240  -11.2881   26.3718 C   0  0  0  0  0  0  0  0  0  0  0  0
    7.9124  -11.6592   27.1414 C   0  0  0  0  0  0  0  0  0  0  0  0
    8.2361  -12.9803   27.3219 C   0  0  0  0  0  0  0  0  0  0  0  0
    7.4922  -13.9905   26.7453 C   0  0  0  0  0  0  0  0  0  0  0  0
   10.5292  -17.7033   27.1042 C   0  0  0  0  0  0  0  0  0  0  0  0
   11.2690  -17.3717   28.2632 O   0  0  0  0  0  0  0  0  0  0  0  0
   10.7359  -18.8543   26.6765 O   0  0  0  0  0  0  0  0  0  0  0  0
  2  1  1  6
  3  2  1  0
  3  4  1  0
  5  4  1  0
  6  5  1  0
  7  6  1  0
  8  9  2  0
  8  2  1  0
 11 10  1  6
 11 13  1  0
 12 11  1  0
 13 14  1  6
 14  8  1  0
 15 13  1  0
 15 17  1  0
 16 15  2  0
 18 17  1  0
 18 29  1  0
 18 19  1  1
 19 20  1  0
 20 28  1  0
 21 20  2  0
 21 22  1  0
 22 23  1  0
 23 24  2  0
 24 25  1  0
 26 25  2  0
 27 26  1  0
 28 27  2  0
 28 23  1  0
 29 30  1  0
 31 29  2  0
M  END
$$$$
