KTW.pdb
     RDKit          3D

 31 32  0  0  1  0  0  0  0  0999 V2000
    5.1574  -18.9311   19.7814 N   0  0  0  0  0  0  0  0  0  0  0  0
    5.6405  -18.2309   20.9267 C   0  0  1  0  0  0  0  0  0  0  0  0
    4.8662  -18.5935   22.1675 C   0  0  0  0  0  0  0  0  0  0  0  0
    3.4070  -18.8066   21.8940 C   0  0  0  0  0  0  0  0  0  0  0  0
    2.6057  -19.1728   23.1011 C   0  0  0  0  0  0  0  0  0  0  0  0
    1.1319  -19.3439   22.8341 C   0  0  0  0  0  0  0  0  0  0  0  0
    0.7148  -20.7133   23.0637 N   0  0  0  0  0  0  0  0  0  0  0  0
    7.0985  -18.4582   21.0956 C   0  0  0  0  0  0  0  0  0  0  0  0
    7.5980  -19.6148   21.0643 O   0  0  0  0  0  0  0  0  0  0  0  0
    9.6826  -17.5630   18.9410 C   0  0  0  0  0  0  0  0  0  0  0  0
   10.0424  -16.8236   20.2088 C   0  0  1  0  0  0  0  0  0  0  0  0
    9.6252  -15.5048   20.0470 O   0  0  0  0  0  0  0  0  0  0  0  0
    9.3853  -17.4222   21.4228 C   0  0  2  0  0  0  0  0  0  0  0  0
    7.9666  -17.3379   21.3008 N   0  0  0  0  0  0  0  0  0  0  0  0
    9.8807  -16.6343   22.6105 C   0  0  0  0  0  0  0  0  0  0  0  0
   10.4416  -15.5298   22.4146 O   0  0  0  0  0  0  0  0  0  0  0  0
    9.7253  -17.1151   23.9336 N   0  0  0  0  0  0  0  0  0  0  0  0
   10.0846  -16.2976   25.0828 C   0  0  1  0  0  0  0  0  0  0  0  0
    9.4567  -14.9664   24.9544 C   0  0  0  0  0  0  0  0  0  0  0  0
    8.0455  -14.8622   25.2987 C   0  0  0  0  0  0  0  0  0  0  0  0
    7.0964  -15.8941   25.2290 C   0  0  0  0  0  0  0  0  0  0  0  0
    5.9335  -15.3674   25.6040 N   0  0  0  0  0  0  0  0  0  0  0  0
    6.0740  -14.0674   25.9097 C   0  0  0  0  0  0  0  0  0  0  0  0
    5.1652  -13.1211   26.3527 C   0  0  0  0  0  0  0  0  0  0  0  0
    5.5318  -11.8223   26.6249 C   0  0  0  0  0  0  0  0  0  0  0  0
    6.8594  -11.4790   26.4406 C   0  0  0  0  0  0  0  0  0  0  0  0
    7.7761  -12.4009   26.0019 C   0  0  0  0  0  0  0  0  0  0  0  0
    7.4132  -13.7045   25.7272 C   0  0  0  0  0  0  0  0  0  0  0  0
    9.9243  -17.0359   26.3257 C   0  0  0  0  0  0  0  0  0  0  0  0
    9.4260  -18.3575   26.2516 O   0  0  0  0  0  0  0  0  0  0  0  0
   10.1757  -16.6472   27.4816 O   0  0  0  0  0  0  0  0  0  0  0  0
  2  1  1  6
  3  2  1  0
  3  4  1  0
  5  4  1  0
  6  5  1  0
  7  6  1  0
  8  9  2  0
  8  2  1  0
 11 10  1  6
 11 13  1  0
 12 11  1  0
 13 14  1  6
 14  8  1  0
 15 13  1  0
 15 17  1  0
 16 15  2  0
 18 17  1  0
 18 29  1  0
 18 19  1  1
 19 20  1  0
 20 28  1  0
 21 20  2  0
 21 22  1  0
 22 23  1  0
 23 24  2  0
 24 25  1  0
 26 25  2  0
 27 26  1  0
 28 27  2  0
 28 23  1  0
 29 30  1  0
 31 29  2  0
M  END
$$$$
