KTW.pdb
     RDKit          3D

 31 32  0  0  1  0  0  0  0  0999 V2000
    9.7533  -16.7612   16.1253 N   0  0  0  0  0  0  0  0  0  0  0  0
   10.1052  -17.5548   17.2574 C   0  0  1  0  0  0  0  0  0  0  0  0
   11.5595  -17.3947   17.6181 C   0  0  0  0  0  0  0  0  0  0  0  0
   12.4205  -17.1065   16.4242 C   0  0  0  0  0  0  0  0  0  0  0  0
   13.8863  -17.0987   16.7152 C   0  0  0  0  0  0  0  0  0  0  0  0
   14.7455  -16.7006   15.5421 C   0  0  0  0  0  0  0  0  0  0  0  0
   16.1503  -16.6964   15.9008 N   0  0  0  0  0  0  0  0  0  0  0  0
    9.2117  -17.2471   18.4032 C   0  0  0  0  0  0  0  0  0  0  0  0
    7.9814  -17.0248   18.2446 O   0  0  0  0  0  0  0  0  0  0  0  0
    7.3694  -18.6732   19.7012 C   0  0  0  0  0  0  0  0  0  0  0  0
    8.1268  -18.4347   20.9868 C   0  0  1  0  0  0  0  0  0  0  0  0
    8.9302  -19.5516   21.2027 O   0  0  0  0  0  0  0  0  0  0  0  0
    8.9793  -17.1965   20.9238 C   0  0  2  0  0  0  0  0  0  0  0  0
    9.7556  -17.1994   19.7272 N   0  0  0  0  0  0  0  0  0  0  0  0
    9.8605  -17.2203   22.1484 C   0  0  0  0  0  0  0  0  0  0  0  0
   11.0746  -16.9298   22.0281 O   0  0  0  0  0  0  0  0  0  0  0  0
    9.3460  -17.5622   23.4230 N   0  0  0  0  0  0  0  0  0  0  0  0
    9.4439  -16.6455   24.5492 C   0  0  1  0  0  0  0  0  0  0  0  0
    8.9450  -15.3150   24.1447 C   0  0  0  0  0  0  0  0  0  0  0  0
    7.7879  -14.7945   24.8598 C   0  0  0  0  0  0  0  0  0  0  0  0
    6.6239  -15.5084   25.1852 C   0  0  0  0  0  0  0  0  0  0  0  0
    5.8160  -14.6549   25.8090 N   0  0  0  0  0  0  0  0  0  0  0  0
    6.3845  -13.4421   25.9054 C   0  0  0  0  0  0  0  0  0  0  0  0
    5.9416  -12.2588   26.4720 C   0  0  0  0  0  0  0  0  0  0  0  0
    6.7061  -11.1139   26.4726 C   0  0  0  0  0  0  0  0  0  0  0  0
    7.9549  -11.1769   25.8802 C   0  0  0  0  0  0  0  0  0  0  0  0
    8.4129  -12.3391   25.3126 C   0  0  0  0  0  0  0  0  0  0  0  0
    7.6497  -13.4896   25.3090 C   0  0  0  0  0  0  0  0  0  0  0  0
    8.9299  -17.2508   25.7677 C   0  0  0  0  0  0  0  0  0  0  0  0
    9.6435  -17.0307   26.9689 O   0  0  0  0  0  0  0  0  0  0  0  0
    7.9136  -17.9584   25.8979 O   0  0  0  0  0  0  0  0  0  0  0  0
  2  1  1  6
  3  2  1  0
  3  4  1  0
  5  4  1  0
  6  5  1  0
  7  6  1  0
  8  9  2  0
  8  2  1  0
 11 10  1  6
 11 13  1  0
 12 11  1  0
 13 14  1  6
 14  8  1  0
 15 13  1  0
 15 17  1  0
 16 15  2  0
 18 17  1  0
 18 29  1  0
 18 19  1  6
 19 20  1  0
 20 28  1  0
 21 20  2  0
 21 22  1  0
 22 23  1  0
 23 24  2  0
 24 25  1  0
 26 25  2  0
 27 26  1  0
 28 27  2  0
 28 23  1  0
 29 30  1  0
 31 29  2  0
M  END
$$$$
