KTW.pdb
     RDKit          3D

 31 32  0  0  1  0  0  0  0  0999 V2000
   10.2508  -16.6259   17.4118 N   0  0  0  0  0  0  0  0  0  0  0  0
    9.8471  -15.7943   18.4984 C   0  0  1  0  0  0  0  0  0  0  0  0
    8.8665  -14.7390   18.0565 C   0  0  0  0  0  0  0  0  0  0  0  0
    8.5667  -14.8102   16.5886 C   0  0  0  0  0  0  0  0  0  0  0  0
    7.6701  -13.7215   16.0942 C   0  0  0  0  0  0  0  0  0  0  0  0
    7.4667  -13.7212   14.6004 C   0  0  0  0  0  0  0  0  0  0  0  0
    6.6212  -12.6179   14.1884 N   0  0  0  0  0  0  0  0  0  0  0  0
    9.3107  -16.6199   19.6106 C   0  0  0  0  0  0  0  0  0  0  0  0
    8.4298  -17.5004   19.4186 O   0  0  0  0  0  0  0  0  0  0  0  0
    9.8813  -19.2703   20.5452 C   0  0  0  0  0  0  0  0  0  0  0  0
   10.2793  -18.5917   21.8353 C   0  0  1  0  0  0  0  0  0  0  0  0
   11.6520  -18.3651   21.7729 O   0  0  0  0  0  0  0  0  0  0  0  0
    9.5551  -17.2888   22.0401 C   0  0  2  0  0  0  0  0  0  0  0  0
    9.8025  -16.4153   20.9399 N   0  0  0  0  0  0  0  0  0  0  0  0
   10.0777  -16.7063   23.3302 C   0  0  0  0  0  0  0  0  0  0  0  0
   10.9244  -15.7825   23.2798 O   0  0  0  0  0  0  0  0  0  0  0  0
    9.6332  -17.1800   24.5888 N   0  0  0  0  0  0  0  0  0  0  0  0
   10.0027  -16.5057   25.8245 C   0  0  1  0  0  0  0  0  0  0  0  0
    9.6795  -15.0682   25.7154 C   0  0  0  0  0  0  0  0  0  0  0  0
    8.2710  -14.6997   25.7545 C   0  0  0  0  0  0  0  0  0  0  0  0
    7.1814  -15.5686   25.5865 C   0  0  0  0  0  0  0  0  0  0  0  0
    6.0833  -14.8219   25.6680 N   0  0  0  0  0  0  0  0  0  0  0  0
    6.3962  -13.5329   25.8774 C   0  0  0  0  0  0  0  0  0  0  0  0
    5.6063  -12.4071   26.0391 C   0  0  0  0  0  0  0  0  0  0  0  0
    6.1435  -11.1593   26.2619 C   0  0  0  0  0  0  0  0  0  0  0  0
    7.5220  -11.0563   26.3214 C   0  0  0  0  0  0  0  0  0  0  0  0
    8.3231  -12.1591   26.1633 C   0  0  0  0  0  0  0  0  0  0  0  0
    7.7890  -13.4124   25.9392 C   0  0  0  0  0  0  0  0  0  0  0  0
    9.5400  -17.2461   26.9877 C   0  0  0  0  0  0  0  0  0  0  0  0
    9.9778  -16.8182   28.2627 O   0  0  0  0  0  0  0  0  0  0  0  0
    8.7860  -18.2369   27.0109 O   0  0  0  0  0  0  0  0  0  0  0  0
  2  1  1  6
  3  2  1  0
  3  4  1  0
  5  4  1  0
  6  5  1  0
  7  6  1  0
  8  9  2  0
  8  2  1  0
 11 10  1  6
 11 13  1  0
 12 11  1  0
 13 14  1  6
 14  8  1  0
 15 13  1  0
 15 17  1  0
 16 15  2  0
 18 17  1  0
 18 29  1  0
 18 19  1  6
 19 20  1  0
 20 28  1  0
 21 20  2  0
 21 22  1  0
 22 23  1  0
 23 24  2  0
 24 25  1  0
 26 25  2  0
 27 26  1  0
 28 27  2  0
 28 23  1  0
 29 30  1  0
 31 29  2  0
M  END
$$$$
