KTW.pdb
     RDKit          3D

 31 32  0  0  1  0  0  0  0  0999 V2000
   10.2575  -14.3340   19.6578 N   0  0  0  0  0  0  0  0  0  0  0  0
    8.8704  -14.2625   19.9836 C   0  0  1  0  0  0  0  0  0  0  0  0
    8.0039  -14.3944   18.7580 C   0  0  0  0  0  0  0  0  0  0  0  0
    8.7491  -14.0957   17.4911 C   0  0  0  0  0  0  0  0  0  0  0  0
    7.8999  -13.5231   16.4028 C   0  0  0  0  0  0  0  0  0  0  0  0
    7.7369  -14.4276   15.2076 C   0  0  0  0  0  0  0  0  0  0  0  0
    6.9176  -13.8030   14.1875 N   0  0  0  0  0  0  0  0  0  0  0  0
    8.5286  -15.2732   21.0169 C   0  0  0  0  0  0  0  0  0  0  0  0
    7.3361  -15.4973   21.3573 O   0  0  0  0  0  0  0  0  0  0  0  0
    9.7624  -18.9591   21.1847 C   0  0  0  0  0  0  0  0  0  0  0  0
   10.2242  -18.2010   22.4076 C   0  0  1  0  0  0  0  0  0  0  0  0
   11.5437  -17.8185   22.1789 O   0  0  0  0  0  0  0  0  0  0  0  0
    9.3791  -16.9855   22.6765 C   0  0  2  0  0  0  0  0  0  0  0  0
    9.5770  -16.0168   21.6484 N   0  0  0  0  0  0  0  0  0  0  0  0
    9.8100  -16.4531   24.0210 C   0  0  0  0  0  0  0  0  0  0  0  0
   10.6767  -15.5477   24.0657 O   0  0  0  0  0  0  0  0  0  0  0  0
    9.2578  -16.9531   25.2257 N   0  0  0  0  0  0  0  0  0  0  0  0
    9.7405  -16.5035   26.5231 C   0  0  1  0  0  0  0  0  0  0  0  0
    8.6079  -15.9795   27.3140 C   0  0  0  0  0  0  0  0  0  0  0  0
    7.6015  -15.2059   26.6001 C   0  0  0  0  0  0  0  0  0  0  0  0
    6.4937  -15.7226   25.9100 C   0  0  0  0  0  0  0  0  0  0  0  0
    5.8533  -14.6814   25.3846 N   0  0  0  0  0  0  0  0  0  0  0  0
    6.4763  -13.5322   25.6921 C   0  0  0  0  0  0  0  0  0  0  0  0
    6.1827  -12.2140   25.3861 C   0  0  0  0  0  0  0  0  0  0  0  0
    6.9631  -11.1676   25.8236 C   0  0  0  0  0  0  0  0  0  0  0  0
    8.0717  -11.4729   26.5931 C   0  0  0  0  0  0  0  0  0  0  0  0
    8.3810  -12.7722   26.9074 C   0  0  0  0  0  0  0  0  0  0  0  0
    7.6017  -13.8250   26.4706 C   0  0  0  0  0  0  0  0  0  0  0  0
   10.6261  -17.4873   27.1258 C   0  0  0  0  0  0  0  0  0  0  0  0
   10.8291  -18.7059   26.4372 O   0  0  0  0  0  0  0  0  0  0  0  0
   11.2487  -17.3962   28.2003 O   0  0  0  0  0  0  0  0  0  0  0  0
  2  1  1  6
  3  2  1  0
  3  4  1  0
  5  4  1  0
  6  5  1  0
  7  6  1  0
  8  9  2  0
  8  2  1  0
 11 10  1  6
 11 13  1  0
 12 11  1  0
 13 14  1  6
 14  8  1  0
 15 13  1  0
 15 17  1  0
 16 15  2  0
 18 17  1  0
 18 29  1  0
 18 19  1  1
 19 20  1  0
 20 28  1  0
 21 20  2  0
 21 22  1  0
 22 23  1  0
 23 24  2  0
 24 25  1  0
 26 25  2  0
 27 26  1  0
 28 27  2  0
 28 23  1  0
 29 30  1  0
 31 29  2  0
M  END
$$$$
