KTW.pdb
     RDKit          3D

 31 32  0  0  1  0  0  0  0  0999 V2000
    8.8293  -19.0381   20.0843 N   0  0  0  0  0  0  0  0  0  0  0  0
   10.0982  -18.4222   19.8701 C   0  0  1  0  0  0  0  0  0  0  0  0
   10.5537  -18.5697   18.4414 C   0  0  0  0  0  0  0  0  0  0  0  0
    9.4619  -18.2761   17.4558 C   0  0  0  0  0  0  0  0  0  0  0  0
    9.8628  -18.4569   16.0275 C   0  0  0  0  0  0  0  0  0  0  0  0
   10.9490  -19.4810   15.8170 C   0  0  0  0  0  0  0  0  0  0  0  0
   11.3222  -19.5670   14.4187 N   0  0  0  0  0  0  0  0  0  0  0  0
   10.0622  -17.0002   20.2976 C   0  0  0  0  0  0  0  0  0  0  0  0
   10.9342  -16.1718   19.9216 O   0  0  0  0  0  0  0  0  0  0  0  0
    7.4614  -14.3263   19.7783 C   0  0  0  0  0  0  0  0  0  0  0  0
    7.5310  -14.6627   21.2498 C   0  0  1  0  0  0  0  0  0  0  0  0
    6.5378  -15.6057   21.5023 O   0  0  0  0  0  0  0  0  0  0  0  0
    8.8734  -15.2161   21.6442 C   0  0  2  0  0  0  0  0  0  0  0  0
    9.0116  -16.5510   21.1609 N   0  0  0  0  0  0  0  0  0  0  0  0
    8.9294  -15.1707   23.1514 C   0  0  0  0  0  0  0  0  0  0  0  0
    7.9833  -14.6367   23.7780 O   0  0  0  0  0  0  0  0  0  0  0  0
   10.0230  -15.7162   23.8674 N   0  0  0  0  0  0  0  0  0  0  0  0
   10.0302  -15.7569   25.3222 C   0  0  1  0  0  0  0  0  0  0  0  0
    8.7688  -16.3573   25.8032 C   0  0  0  0  0  0  0  0  0  0  0  0
    7.5992  -15.4912   25.8558 C   0  0  0  0  0  0  0  0  0  0  0  0
    6.3229  -15.7894   25.3533 C   0  0  0  0  0  0  0  0  0  0  0  0
    5.5639  -14.7214   25.5842 N   0  0  0  0  0  0  0  0  0  0  0  0
    6.2681  -13.7589   26.2014 C   0  0  0  0  0  0  0  0  0  0  0  0
    5.9114  -12.4972   26.6466 C   0  0  0  0  0  0  0  0  0  0  0  0
    6.8045  -11.6623   27.2795 C   0  0  0  0  0  0  0  0  0  0  0  0
    8.0952  -12.1257   27.4634 C   0  0  0  0  0  0  0  0  0  0  0  0
    8.4698  -13.3724   27.0296 C   0  0  0  0  0  0  0  0  0  0  0  0
    7.5778  -14.2130   26.3940 C   0  0  0  0  0  0  0  0  0  0  0  0
   11.2934  -16.2697   25.8289 C   0  0  0  0  0  0  0  0  0  0  0  0
   11.4542  -16.3674   27.2307 O   0  0  0  0  0  0  0  0  0  0  0  0
   12.2822  -16.6461   25.1723 O   0  0  0  0  0  0  0  0  0  0  0  0
  2  1  1  6
  3  2  1  0
  3  4  1  0
  5  4  1  0
  6  5  1  0
  7  6  1  0
  8  9  2  0
  8  2  1  0
 11 10  1  6
 11 13  1  0
 12 11  1  0
 13 14  1  1
 14  8  1  0
 15 13  1  0
 15 17  1  0
 16 15  2  0
 18 17  1  0
 18 29  1  0
 18 19  1  6
 19 20  1  0
 20 28  1  0
 21 20  2  0
 21 22  1  0
 22 23  1  0
 23 24  2  0
 24 25  1  0
 26 25  2  0
 27 26  1  0
 28 27  2  0
 28 23  1  0
 29 30  1  0
 31 29  2  0
M  END
$$$$
