KTW.pdb
     RDKit          3D

 31 32  0  0  1  0  0  0  0  0999 V2000
    8.6400  -16.9397   19.2285 N   0  0  0  0  0  0  0  0  0  0  0  0
    8.8842  -16.0461   20.3134 C   0  0  1  0  0  0  0  0  0  0  0  0
    8.0852  -14.7758   20.1781 C   0  0  0  0  0  0  0  0  0  0  0  0
    8.3580  -14.0585   18.8894 C   0  0  0  0  0  0  0  0  0  0  0  0
    7.6040  -12.7780   18.7309 C   0  0  0  0  0  0  0  0  0  0  0  0
    7.9193  -12.0302   17.4603 C   0  0  0  0  0  0  0  0  0  0  0  0
    7.8167  -12.8985   16.3038 N   0  0  0  0  0  0  0  0  0  0  0  0
    8.6322  -16.7252   21.6102 C   0  0  0  0  0  0  0  0  0  0  0  0
    7.4722  -17.0634   21.9679 O   0  0  0  0  0  0  0  0  0  0  0  0
   10.0825  -19.9337   22.7724 C   0  0  0  0  0  0  0  0  0  0  0  0
   10.5181  -18.8793   23.7633 C   0  0  1  0  0  0  0  0  0  0  0  0
   11.8175  -18.5102   23.4247 O   0  0  0  0  0  0  0  0  0  0  0  0
    9.6213  -17.6714   23.7401 C   0  0  2  0  0  0  0  0  0  0  0  0
    9.7322  -17.0058   22.4833 N   0  0  0  0  0  0  0  0  0  0  0  0
   10.0715  -16.7817   24.8726 C   0  0  0  0  0  0  0  0  0  0  0  0
   10.9236  -15.8908   24.6424 O   0  0  0  0  0  0  0  0  0  0  0  0
    9.5534  -16.9326   26.1821 N   0  0  0  0  0  0  0  0  0  0  0  0
   10.1846  -16.2885   27.3244 C   0  0  1  0  0  0  0  0  0  0  0  0
    9.1958  -15.4363   28.0163 C   0  0  0  0  0  0  0  0  0  0  0  0
    8.0595  -14.9690   27.2342 C   0  0  0  0  0  0  0  0  0  0  0  0
    7.0138  -15.7615   26.7355 C   0  0  0  0  0  0  0  0  0  0  0  0
    6.2074  -14.9465   26.0605 N   0  0  0  0  0  0  0  0  0  0  0  0
    6.6661  -13.6849   26.0935 C   0  0  0  0  0  0  0  0  0  0  0  0
    6.1702  -12.5093   25.5554 C   0  0  0  0  0  0  0  0  0  0  0  0
    6.8046  -11.2993   25.7252 C   0  0  0  0  0  0  0  0  0  0  0  0
    7.9751  -11.2873   26.4629 C   0  0  0  0  0  0  0  0  0  0  0  0
    8.4840  -12.4408   27.0045 C   0  0  0  0  0  0  0  0  0  0  0  0
    7.8517  -13.6567   26.8365 C   0  0  0  0  0  0  0  0  0  0  0  0
   10.9628  -17.2396   28.1023 C   0  0  0  0  0  0  0  0  0  0  0  0
   11.7106  -16.7459   29.1966 O   0  0  0  0  0  0  0  0  0  0  0  0
   11.0606  -18.4686   27.9279 O   0  0  0  0  0  0  0  0  0  0  0  0
  2  1  1  6
  3  2  1  0
  3  4  1  0
  5  4  1  0
  6  5  1  0
  7  6  1  0
  8  9  2  0
  8  2  1  0
 11 10  1  6
 11 13  1  0
 12 11  1  0
 13 14  1  6
 14  8  1  0
 15 13  1  0
 15 17  1  0
 16 15  2  0
 18 17  1  0
 18 29  1  0
 18 19  1  1
 19 20  1  0
 20 28  1  0
 21 20  2  0
 21 22  1  0
 22 23  1  0
 23 24  2  0
 24 25  1  0
 26 25  2  0
 27 26  1  0
 28 27  2  0
 28 23  1  0
 29 30  1  0
 31 29  2  0
M  END
$$$$
