RYR.pdb
     RDKit          3D

 35 35  0  0  1  0  0  0  0  0999 V2000
    9.2652  -14.3896   16.8029 N   0  0  0  0  0  0  0  0  0  0  0  0
    8.7234  -13.5297   17.7921 C   0  0  0  0  0  0  0  0  0  0  0  0
    9.1621  -12.3551   18.0388 N   0  0  0  0  0  0  0  0  0  0  0  0
    7.6038  -14.0287   18.5435 N   0  0  0  0  0  0  0  0  0  0  0  0
    7.2554  -15.4409   18.4796 C   0  0  0  0  0  0  0  0  0  0  0  0
    7.2332  -16.1068   19.8060 C   0  0  0  0  0  0  0  0  0  0  0  0
    5.8889  -16.4776   20.3605 C   0  0  0  0  0  0  0  0  0  0  0  0
    5.9648  -17.1696   21.7041 C   0  0  2  0  0  0  0  0  0  0  0  0
    4.6448  -17.5517   22.1571 N   0  0  0  0  0  0  0  0  0  0  0  0
    6.5720  -16.2550   22.7553 C   0  0  0  0  0  0  0  0  0  0  0  0
    6.5105  -15.0209   22.5212 O   0  0  0  0  0  0  0  0  0  0  0  0
    8.7848  -11.6474   18.6625 O   0  0  0  0  0  0  0  0  0  0  0  0
   10.9414  -14.1323   30.2620 C   0  0  0  0  0  0  0  0  0  0  0  0
   10.0525  -14.5730   29.2690 C   0  0  0  0  0  0  0  0  0  0  0  0
    9.6813  -15.8916   29.1472 C   0  0  0  0  0  0  0  0  0  0  0  0
    8.8046  -16.2838   28.1492 C   0  0  0  0  0  0  0  0  0  0  0  0
    8.2816  -15.3585   27.2520 C   0  0  0  0  0  0  0  0  0  0  0  0
    7.4218  -15.8078   26.1619 C   0  0  1  0  0  0  0  0  0  0  0  0
    8.1059  -16.0116   24.8097 N   0  0  0  0  0  0  0  0  0  0  0  0
    7.1686  -16.7336   23.9177 C   0  0  0  0  0  0  0  0  0  0  0  0
    9.3333  -16.7874   24.8581 O   0  0  0  0  0  0  0  0  0  0  0  0
    9.2692  -18.0484   25.1743 C   0  0  0  0  0  0  0  0  0  0  0  0
    8.6667  -14.0600   27.4028 C   0  0  0  0  0  0  0  0  0  0  0  0
    9.5418  -13.6357   28.3892 N   0  0  0  0  0  0  0  0  0  0  0  0
   15.3313  -14.4499   19.7551 C   0  0  0  0  0  0  0  0  0  0  0  0
   13.9561  -14.4932   19.4395 N   0  0  0  0  0  0  0  0  0  0  0  0
   13.5697  -14.0791   18.2834 N   0  0  0  0  0  0  0  0  0  0  0  0
   12.9728  -14.9795   20.3675 C   0  0  0  0  0  0  0  0  0  0  0  0
   13.4562  -15.6218   21.5680 C   0  0  0  0  0  0  0  0  0  0  0  0
   12.3890  -16.1276   22.4900 C   0  0  0  0  0  0  0  0  0  0  0  0
   12.9128  -16.8214   23.7169 C   0  0  2  0  0  0  0  0  0  0  0  0
   11.7810  -17.2607   24.6395 N   0  0  0  0  0  0  0  0  0  0  0  0
   10.6436  -16.3296   24.5926 C   0  0  0  0  0  0  0  0  0  0  0  0
   12.2480  -17.3573   26.0242 O   0  0  0  0  0  0  0  0  0  0  0  0
   11.9913  -16.4322   26.8389 O   0  0  0  0  0  0  0  0  0  0  0  0
  2  3  2  0
  2  1  1  0
  4  2  1  0
  5  4  1  0
  6  5  1  0
  7  8  1  0
  7  6  1  0
  8 10  1  0
  8  9  1  1
 10 11  2  0
 12 13  1  0
 13 14  2  0
 13 23  1  0
 14 15  1  0
 15 16  2  0
 16 17  1  0
 18 17  1  6
 19 10  1  0
 19 18  1  0
 20 18  1  0
 20 32  1  0
 21 20  2  0
 22 16  1  0
 23 22  2  0
 24 25  1  0
 25 27  1  0
 26 25  2  0
 27 28  1  0
 29 28  1  0
 30 29  1  0
 31 33  1  0
 31 32  1  0
 31 30  1  6
 33 35  1  0
 34 33  2  0
M  END
$$$$
