RYR.pdb
     RDKit          3D

 35 35  0  0  1  0  0  0  0  0999 V2000
   10.0447  -15.9967   13.7698 N   0  0  0  0  0  0  0  0  0  0  0  0
    8.7642  -16.4374   14.1912 C   0  0  0  0  0  0  0  0  0  0  0  0
    8.2735  -17.5840   13.9127 N   0  0  0  0  0  0  0  0  0  0  0  0
    7.9935  -15.5238   14.9901 N   0  0  0  0  0  0  0  0  0  0  0  0
    7.7065  -15.8377   16.3825 C   0  0  0  0  0  0  0  0  0  0  0  0
    8.8805  -16.3579   17.1272 C   0  0  0  0  0  0  0  0  0  0  0  0
    9.4426  -15.4845   18.2104 C   0  0  0  0  0  0  0  0  0  0  0  0
    8.3919  -14.6580   18.9196 C   0  0  2  0  0  0  0  0  0  0  0  0
    8.2118  -13.3840   18.2577 N   0  0  0  0  0  0  0  0  0  0  0  0
    8.7944  -14.3828   20.3592 C   0  0  0  0  0  0  0  0  0  0  0  0
   10.0286  -14.2947   20.5846 O   0  0  0  0  0  0  0  0  0  0  0  0
    7.4725  -18.0556   14.3226 O   0  0  0  0  0  0  0  0  0  0  0  0
    6.8759  -12.1396   28.9513 C   0  0  0  0  0  0  0  0  0  0  0  0
    6.9248  -12.3937   27.5716 C   0  0  0  0  0  0  0  0  0  0  0  0
    7.5541  -11.5465   26.6899 C   0  0  0  0  0  0  0  0  0  0  0  0
    7.5743  -11.8335   25.3351 C   0  0  0  0  0  0  0  0  0  0  0  0
    6.9623  -12.9790   24.8372 C   0  0  0  0  0  0  0  0  0  0  0  0
    6.9295  -13.2195   23.3982 C   0  0  1  0  0  0  0  0  0  0  0  0
    8.1450  -13.9380   22.8114 N   0  0  0  0  0  0  0  0  0  0  0  0
    7.8676  -14.2344   21.3863 C   0  0  0  0  0  0  0  0  0  0  0  0
    8.4771  -15.1982   23.4534 O   0  0  0  0  0  0  0  0  0  0  0  0
    7.6872  -16.2188   23.2838 C   0  0  0  0  0  0  0  0  0  0  0  0
    6.3510  -13.7988   25.7379 C   0  0  0  0  0  0  0  0  0  0  0  0
    6.3124  -13.5401   27.0982 N   0  0  0  0  0  0  0  0  0  0  0  0
   15.1141  -18.2052   21.2029 C   0  0  0  0  0  0  0  0  0  0  0  0
   13.9331  -18.4047   20.4559 N   0  0  0  0  0  0  0  0  0  0  0  0
   14.0296  -18.7115   19.2094 N   0  0  0  0  0  0  0  0  0  0  0  0
   12.6268  -18.2719   21.0396 C   0  0  0  0  0  0  0  0  0  0  0  0
   12.5600  -17.9423   22.4447 C   0  0  0  0  0  0  0  0  0  0  0  0
   11.1774  -17.7257   22.9799 C   0  0  0  0  0  0  0  0  0  0  0  0
   11.1276  -17.4152   24.4503 C   0  0  2  0  0  0  0  0  0  0  0  0
    9.7871  -16.8088   24.8509 N   0  0  0  0  0  0  0  0  0  0  0  0
    9.5965  -15.4705   24.2716 C   0  0  0  0  0  0  0  0  0  0  0  0
    9.6782  -16.7064   26.3078 O   0  0  0  0  0  0  0  0  0  0  0  0
    9.9244  -15.6122   26.8800 O   0  0  0  0  0  0  0  0  0  0  0  0
  2  3  2  0
  2  1  1  0
  4  2  1  0
  5  4  1  0
  6  5  1  0
  7  8  1  0
  7  6  1  0
  8 10  1  0
  8  9  1  6
 10 11  2  0
 12 13  1  0
 13 14  2  0
 13 23  1  0
 14 15  1  0
 15 16  2  0
 16 17  1  0
 18 17  1  6
 19 10  1  0
 19 18  1  0
 20 18  1  0
 20 32  1  0
 21 20  2  0
 22 16  1  0
 23 22  2  0
 24 25  1  0
 25 27  1  0
 26 25  2  0
 27 28  1  0
 29 28  1  0
 30 29  1  0
 31 33  1  0
 31 32  1  0
 31 30  1  6
 33 35  1  0
 34 33  2  0
M  END
$$$$
