RYR.pdb
     RDKit          3D

 35 35  0  0  1  0  0  0  0  0999 V2000
    9.1023  -13.5866   12.9687 N   0  0  0  0  0  0  0  0  0  0  0  0
    8.7466  -14.2748   14.1567 C   0  0  0  0  0  0  0  0  0  0  0  0
    8.9520  -15.5209   14.3519 N   0  0  0  0  0  0  0  0  0  0  0  0
    8.1279  -13.4981   15.1964 N   0  0  0  0  0  0  0  0  0  0  0  0
    7.5800  -14.1602   16.3717 C   0  0  0  0  0  0  0  0  0  0  0  0
    8.4942  -14.1450   17.5410 C   0  0  0  0  0  0  0  0  0  0  0  0
    7.8612  -14.1057   18.9011 C   0  0  0  0  0  0  0  0  0  0  0  0
    7.9983  -15.4055   19.6638 C   0  0  2  0  0  0  0  0  0  0  0  0
    7.2850  -16.4698   18.9916 N   0  0  0  0  0  0  0  0  0  0  0  0
    7.4297  -15.2769   21.0675 C   0  0  0  0  0  0  0  0  0  0  0  0
    6.2711  -14.7959   21.1564 O   0  0  0  0  0  0  0  0  0  0  0  0
    8.8193  -16.0680   15.1976 O   0  0  0  0  0  0  0  0  0  0  0  0
    6.4573  -11.9493   28.9851 C   0  0  0  0  0  0  0  0  0  0  0  0
    6.5996  -12.5435   27.7214 C   0  0  0  0  0  0  0  0  0  0  0  0
    6.9739  -11.8260   26.6095 C   0  0  0  0  0  0  0  0  0  0  0  0
    7.0978  -12.4520   25.3802 C   0  0  0  0  0  0  0  0  0  0  0  0
    6.8482  -13.8133   25.2422 C   0  0  0  0  0  0  0  0  0  0  0  0
    6.9094  -14.4342   23.9229 C   0  0  1  0  0  0  0  0  0  0  0  0
    8.2923  -14.8982   23.4644 N   0  0  0  0  0  0  0  0  0  0  0  0
    8.1334  -15.6617   22.2046 C   0  0  0  0  0  0  0  0  0  0  0  0
    8.9879  -15.7619   24.4030 O   0  0  0  0  0  0  0  0  0  0  0  0
    9.3002  -15.2940   25.5768 C   0  0  0  0  0  0  0  0  0  0  0  0
    6.4831  -14.4954   26.3639 C   0  0  0  0  0  0  0  0  0  0  0  0
    6.3496  -13.8992   27.6072 N   0  0  0  0  0  0  0  0  0  0  0  0
   15.7711  -14.9799   22.5345 C   0  0  0  0  0  0  0  0  0  0  0  0
   16.1654  -16.3136   22.2928 N   0  0  0  0  0  0  0  0  0  0  0  0
   17.4129  -16.6194   22.3808 N   0  0  0  0  0  0  0  0  0  0  0  0
   15.2212  -17.3401   21.9471 C   0  0  0  0  0  0  0  0  0  0  0  0
   13.8257  -16.9686   21.9040 C   0  0  0  0  0  0  0  0  0  0  0  0
   13.0298  -17.3530   23.1138 C   0  0  0  0  0  0  0  0  0  0  0  0
   11.5728  -16.9899   23.0337 C   0  0  1  0  0  0  0  0  0  0  0  0
   10.8049  -17.4766   24.2579 N   0  0  0  0  0  0  0  0  0  0  0  0
    9.3839  -17.1026   24.1972 C   0  0  0  0  0  0  0  0  0  0  0  0
   11.3808  -16.9236   25.4856 O   0  0  0  0  0  0  0  0  0  0  0  0
   11.0373  -15.7779   25.8792 O   0  0  0  0  0  0  0  0  0  0  0  0
  2  3  2  0
  2  1  1  0
  4  2  1  0
  5  4  1  0
  6  5  1  0
  7  8  1  0
  7  6  1  0
  8 10  1  0
  8  9  1  6
 10 11  2  0
 12 13  1  0
 13 14  2  0
 13 23  1  0
 14 15  1  0
 15 16  2  0
 16 17  1  0
 18 17  1  6
 19 10  1  0
 19 18  1  0
 20 18  1  0
 20 32  1  0
 21 20  2  0
 22 16  1  0
 23 22  2  0
 24 25  1  0
 25 27  1  0
 26 25  2  0
 27 28  1  0
 29 28  1  0
 30 29  1  0
 31 33  1  0
 31 32  1  0
 31 30  1  6
 33 35  1  0
 34 33  2  0
M  END
$$$$
