RYR.pdb
     RDKit          3D

 35 35  0  0  1  0  0  0  0  0999 V2000
   11.6097  -21.2427   13.5527 N   0  0  0  0  0  0  0  0  0  0  0  0
   11.3677  -20.2378   14.5237 C   0  0  0  0  0  0  0  0  0  0  0  0
   11.3134  -18.9878   14.2633 N   0  0  0  0  0  0  0  0  0  0  0  0
   11.1624  -20.6783   15.8769 N   0  0  0  0  0  0  0  0  0  0  0  0
   10.8694  -19.7079   16.9219 C   0  0  0  0  0  0  0  0  0  0  0  0
   11.9022  -18.6501   17.0554 C   0  0  0  0  0  0  0  0  0  0  0  0
   11.6817  -17.6116   18.1160 C   0  0  0  0  0  0  0  0  0  0  0  0
   10.4983  -17.9102   19.0105 C   0  0  2  0  0  0  0  0  0  0  0  0
    9.2585  -17.5622   18.3506 N   0  0  0  0  0  0  0  0  0  0  0  0
   10.5775  -17.1152   20.3035 C   0  0  0  0  0  0  0  0  0  0  0  0
   11.6537  -16.4989   20.5125 O   0  0  0  0  0  0  0  0  0  0  0  0
   11.1659  -18.2067   14.8959 O   0  0  0  0  0  0  0  0  0  0  0  0
    6.6086  -12.4194   18.1410 C   0  0  0  0  0  0  0  0  0  0  0  0
    6.9618  -13.1912   19.2590 C   0  0  0  0  0  0  0  0  0  0  0  0
    7.7107  -12.6847   20.2952 C   0  0  0  0  0  0  0  0  0  0  0  0
    8.0406  -13.4833   21.3776 C   0  0  0  0  0  0  0  0  0  0  0  0
    7.6241  -14.8089   21.4420 C   0  0  0  0  0  0  0  0  0  0  0  0
    8.0497  -15.6520   22.5545 C   0  0  2  0  0  0  0  0  0  0  0  0
    9.4584  -16.2374   22.4506 N   0  0  0  0  0  0  0  0  0  0  0  0
    9.5317  -17.0590   21.2197 C   0  0  0  0  0  0  0  0  0  0  0  0
    9.8467  -17.0925   23.5591 O   0  0  0  0  0  0  0  0  0  0  0  0
    9.1753  -18.1863   23.7759 C   0  0  0  0  0  0  0  0  0  0  0  0
    6.8805  -15.2782   20.4010 C   0  0  0  0  0  0  0  0  0  0  0  0
    6.5345  -14.5061   19.3042 N   0  0  0  0  0  0  0  0  0  0  0  0
   17.4750  -20.7060   25.1573 C   0  0  0  0  0  0  0  0  0  0  0  0
   16.6144  -21.4004   26.0347 N   0  0  0  0  0  0  0  0  0  0  0  0
   17.0182  -22.5054   26.5574 N   0  0  0  0  0  0  0  0  0  0  0  0
   15.3009  -20.9172   26.3600 C   0  0  0  0  0  0  0  0  0  0  0  0
   14.8264  -19.7559   25.6432 C   0  0  0  0  0  0  0  0  0  0  0  0
   13.3842  -19.4178   25.8679 C   0  0  0  0  0  0  0  0  0  0  0  0
   12.8749  -18.2913   25.0120 C   0  0  1  0  0  0  0  0  0  0  0  0
   11.4080  -17.9882   25.2977 N   0  0  0  0  0  0  0  0  0  0  0  0
   10.9063  -16.8811   24.4698 C   0  0  0  0  0  0  0  0  0  0  0  0
   11.2146  -17.6414   26.7074 O   0  0  0  0  0  0  0  0  0  0  0  0
   10.9446  -16.4547   27.0302 O   0  0  0  0  0  0  0  0  0  0  0  0
  2  3  2  0
  2  1  1  0
  4  2  1  0
  5  4  1  0
  6  5  1  0
  7  8  1  0
  7  6  1  0
  8 10  1  0
  8  9  1  6
 10 11  2  0
 12 13  1  0
 13 14  2  0
 13 23  1  0
 14 15  1  0
 15 16  2  0
 16 17  1  0
 18 17  1  6
 19 10  1  0
 19 18  1  0
 20 18  1  0
 20 32  1  0
 21 20  2  0
 22 16  1  0
 23 22  2  0
 24 25  1  0
 25 27  1  0
 26 25  2  0
 27 28  1  0
 29 28  1  0
 30 29  1  0
 31 33  1  0
 31 32  1  0
 31 30  1  6
 33 35  1  0
 34 33  2  0
M  END
$$$$
