RYR.pdb
     RDKit          3D

 35 35  0  0  1  0  0  0  0  0999 V2000
    6.2927  -15.6096   15.8093 N   0  0  0  0  0  0  0  0  0  0  0  0
    7.1223  -15.3865   14.6808 C   0  0  0  0  0  0  0  0  0  0  0  0
    7.0091  -16.0136   13.5731 N   0  0  0  0  0  0  0  0  0  0  0  0
    8.1396  -14.3790   14.8117 N   0  0  0  0  0  0  0  0  0  0  0  0
    8.3417  -13.7101   16.0890 C   0  0  0  0  0  0  0  0  0  0  0  0
    8.6233  -14.6429   17.2088 C   0  0  0  0  0  0  0  0  0  0  0  0
    8.8679  -14.0341   18.5584 C   0  0  0  0  0  0  0  0  0  0  0  0
    9.0322  -15.0605   19.6582 C   0  0  2  0  0  0  0  0  0  0  0  0
    7.9590  -16.0300   19.6165 N   0  0  0  0  0  0  0  0  0  0  0  0
    9.0119  -14.4009   21.0274 C   0  0  0  0  0  0  0  0  0  0  0  0
    9.0505  -13.1439   21.0399 O   0  0  0  0  0  0  0  0  0  0  0  0
    7.5778  -15.9417   12.7343 O   0  0  0  0  0  0  0  0  0  0  0  0
    6.3121  -11.2812   28.6014 C   0  0  0  0  0  0  0  0  0  0  0  0
    6.6779  -11.8701   27.3808 C   0  0  0  0  0  0  0  0  0  0  0  0
    7.8998  -11.6433   26.7920 C   0  0  0  0  0  0  0  0  0  0  0  0
    8.2178  -12.2416   25.5840 C   0  0  0  0  0  0  0  0  0  0  0  0
    7.3141  -13.0815   24.9418 C   0  0  0  0  0  0  0  0  0  0  0  0
    7.6413  -13.6377   23.6329 C   0  0  1  0  0  0  0  0  0  0  0  0
    8.8362  -14.5908   23.5898 N   0  0  0  0  0  0  0  0  0  0  0  0
    8.9553  -15.1264   22.2134 C   0  0  0  0  0  0  0  0  0  0  0  0
    8.7395  -15.7308   24.4853 O   0  0  0  0  0  0  0  0  0  0  0  0
    8.1196  -16.8005   24.0783 C   0  0  0  0  0  0  0  0  0  0  0  0
    6.1142  -13.2882   25.5539 C   0  0  0  0  0  0  0  0  0  0  0  0
    5.7654  -12.7046   26.7608 N   0  0  0  0  0  0  0  0  0  0  0  0
    7.6085  -22.4803   26.8365 C   0  0  0  0  0  0  0  0  0  0  0  0
    7.2503  -22.0201   28.1219 N   0  0  0  0  0  0  0  0  0  0  0  0
    7.2720  -22.8479   29.1077 N   0  0  0  0  0  0  0  0  0  0  0  0
    6.8577  -20.6596   28.3658 C   0  0  0  0  0  0  0  0  0  0  0  0
    6.6973  -19.8005   27.2153 C   0  0  0  0  0  0  0  0  0  0  0  0
    7.9759  -19.3126   26.6053 C   0  0  0  0  0  0  0  0  0  0  0  0
    7.9156  -17.8992   26.0960 C   0  0  1  0  0  0  0  0  0  0  0  0
    9.1206  -17.0853   26.5548 N   0  0  0  0  0  0  0  0  0  0  0  0
    9.2559  -15.8323   25.7967 C   0  0  0  0  0  0  0  0  0  0  0  0
   10.3561  -17.8573   26.4045 O   0  0  0  0  0  0  0  0  0  0  0  0
   11.0230  -17.7729   25.3398 O   0  0  0  0  0  0  0  0  0  0  0  0
  2  3  2  0
  2  1  1  0
  4  2  1  0
  5  4  1  0
  6  5  1  0
  7  8  1  0
  7  6  1  0
  8 10  1  0
  8  9  1  1
 10 11  2  0
 12 13  1  0
 13 14  2  0
 13 23  1  0
 14 15  1  0
 15 16  2  0
 16 17  1  0
 18 17  1  6
 19 10  1  0
 19 18  1  0
 20 18  1  0
 20 32  1  0
 21 20  2  0
 22 16  1  0
 23 22  2  0
 24 25  1  0
 25 27  1  0
 26 25  2  0
 27 28  1  0
 29 28  1  0
 30 29  1  0
 31 33  1  0
 31 32  1  0
 31 30  1  1
 33 35  1  0
 34 33  2  0
M  END
$$$$
