RYR.pdb
     RDKit          3D

 35 35  0  0  1  0  0  0  0  0999 V2000
    7.8682  -18.3312   16.2306 N   0  0  0  0  0  0  0  0  0  0  0  0
    6.9695  -17.7160   15.3222 C   0  0  0  0  0  0  0  0  0  0  0  0
    6.4588  -18.3052   14.3097 N   0  0  0  0  0  0  0  0  0  0  0  0
    6.6172  -16.3470   15.5841 N   0  0  0  0  0  0  0  0  0  0  0  0
    7.6454  -15.3161   15.5750 C   0  0  0  0  0  0  0  0  0  0  0  0
    8.5344  -15.3548   16.7631 C   0  0  0  0  0  0  0  0  0  0  0  0
    8.7731  -14.0576   17.4787 C   0  0  0  0  0  0  0  0  0  0  0  0
    7.6767  -13.7037   18.4599 C   0  0  2  0  0  0  0  0  0  0  0  0
    7.0595  -12.4445   18.1037 N   0  0  0  0  0  0  0  0  0  0  0  0
    8.2286  -13.5703   19.8698 C   0  0  0  0  0  0  0  0  0  0  0  0
    9.4084  -13.1457   19.9674 O   0  0  0  0  0  0  0  0  0  0  0  0
    5.7285  -17.9832   13.6811 O   0  0  0  0  0  0  0  0  0  0  0  0
    7.8324  -14.1058   28.8331 C   0  0  0  0  0  0  0  0  0  0  0  0
    7.5247  -14.0559   27.4645 C   0  0  0  0  0  0  0  0  0  0  0  0
    7.3801  -15.1909   26.7015 C   0  0  0  0  0  0  0  0  0  0  0  0
    7.0807  -15.0956   25.3526 C   0  0  0  0  0  0  0  0  0  0  0  0
    6.9197  -13.8566   24.7414 C   0  0  0  0  0  0  0  0  0  0  0  0
    6.6818  -13.7800   23.3036 C   0  0  1  0  0  0  0  0  0  0  0  0
    7.9267  -13.8101   22.4162 N   0  0  0  0  0  0  0  0  0  0  0  0
    7.4893  -13.8948   21.0030 C   0  0  0  0  0  0  0  0  0  0  0  0
    8.8192  -14.9311   22.6555 O   0  0  0  0  0  0  0  0  0  0  0  0
    8.5236  -16.0915   22.1452 C   0  0  0  0  0  0  0  0  0  0  0  0
    7.0658  -12.7523   25.5263 C   0  0  0  0  0  0  0  0  0  0  0  0
    7.3657  -12.8136   26.8773 N   0  0  0  0  0  0  0  0  0  0  0  0
   14.0685  -16.8102   19.1765 C   0  0  0  0  0  0  0  0  0  0  0  0
   14.6654  -15.5505   19.3987 N   0  0  0  0  0  0  0  0  0  0  0  0
   15.1928  -14.9275   18.4031 N   0  0  0  0  0  0  0  0  0  0  0  0
   14.7081  -14.9427   20.7000 C   0  0  0  0  0  0  0  0  0  0  0  0
   14.6725  -15.8245   21.8439 C   0  0  0  0  0  0  0  0  0  0  0  0
   13.3208  -16.3799   22.1744 C   0  0  0  0  0  0  0  0  0  0  0  0
   12.2783  -15.3348   22.4602 C   0  0  2  0  0  0  0  0  0  0  0  0
   11.0580  -15.9335   23.1514 N   0  0  0  0  0  0  0  0  0  0  0  0
   10.0194  -14.9227   23.4013 C   0  0  0  0  0  0  0  0  0  0  0  0
   11.4323  -16.5436   24.4291 O   0  0  0  0  0  0  0  0  0  0  0  0
   11.1021  -15.9886   25.5100 O   0  0  0  0  0  0  0  0  0  0  0  0
  2  3  2  0
  2  1  1  0
  4  2  1  0
  5  4  1  0
  6  5  1  0
  7  8  1  0
  7  6  1  0
  8 10  1  0
  8  9  1  6
 10 11  2  0
 12 13  1  0
 13 14  2  0
 13 23  1  0
 14 15  1  0
 15 16  2  0
 16 17  1  0
 18 17  1  6
 19 10  1  0
 19 18  1  0
 20 18  1  0
 20 32  1  0
 21 20  2  0
 22 16  1  0
 23 22  2  0
 24 25  1  0
 25 27  1  0
 26 25  2  0
 27 28  1  0
 29 28  1  0
 30 29  1  0
 31 33  1  0
 31 32  1  0
 31 30  1  6
 33 35  1  0
 34 33  2  0
M  END
$$$$
