RYR.pdb
     RDKit          3D

 35 35  0  0  1  0  0  0  0  0999 V2000
    6.1210  -16.6972   15.9991 N   0  0  0  0  0  0  0  0  0  0  0  0
    6.6977  -16.4933   14.7195 C   0  0  0  0  0  0  0  0  0  0  0  0
    6.3514  -17.1309   13.6676 N   0  0  0  0  0  0  0  0  0  0  0  0
    7.7263  -15.4935   14.6228 N   0  0  0  0  0  0  0  0  0  0  0  0
    8.1330  -14.7505   15.8070 C   0  0  0  0  0  0  0  0  0  0  0  0
    8.8110  -15.5874   16.8284 C   0  0  0  0  0  0  0  0  0  0  0  0
    9.3408  -14.8844   18.0438 C   0  0  0  0  0  0  0  0  0  0  0  0
    8.2926  -14.0691   18.7693 C   0  0  2  0  0  0  0  0  0  0  0  0
    8.1191  -12.7801   18.1353 N   0  0  0  0  0  0  0  0  0  0  0  0
    8.6940  -13.8273   20.2153 C   0  0  0  0  0  0  0  0  0  0  0  0
    9.7482  -13.1660   20.3967 O   0  0  0  0  0  0  0  0  0  0  0  0
    6.7454  -17.0870   12.7322 O   0  0  0  0  0  0  0  0  0  0  0  0
    7.4142  -13.1645   29.0380 C   0  0  0  0  0  0  0  0  0  0  0  0
    7.2631  -13.3133   27.6505 C   0  0  0  0  0  0  0  0  0  0  0  0
    6.7563  -14.4598   27.0848 C   0  0  0  0  0  0  0  0  0  0  0  0
    6.6287  -14.5660   25.7098 C   0  0  0  0  0  0  0  0  0  0  0  0
    7.0076  -13.5213   24.8733 C   0  0  0  0  0  0  0  0  0  0  0  0
    6.9368  -13.6864   23.4251 C   0  0  1  0  0  0  0  0  0  0  0  0
    8.2352  -14.1045   22.7343 N   0  0  0  0  0  0  0  0  0  0  0  0
    7.9532  -14.3022   21.2931 C   0  0  0  0  0  0  0  0  0  0  0  0
    8.8190  -15.3394   23.2291 O   0  0  0  0  0  0  0  0  0  0  0  0
    8.2868  -16.4735   22.8756 C   0  0  0  0  0  0  0  0  0  0  0  0
    7.5022  -12.3983   25.4660 C   0  0  0  0  0  0  0  0  0  0  0  0
    7.6432  -12.2609   26.8372 N   0  0  0  0  0  0  0  0  0  0  0  0
   14.6596  -14.2131   20.5628 C   0  0  0  0  0  0  0  0  0  0  0  0
   13.7766  -15.0150   19.8079 N   0  0  0  0  0  0  0  0  0  0  0  0
   13.7625  -14.8887   18.5268 N   0  0  0  0  0  0  0  0  0  0  0  0
   12.8897  -15.9640   20.4223 C   0  0  0  0  0  0  0  0  0  0  0  0
   12.8578  -16.0015   21.8662 C   0  0  0  0  0  0  0  0  0  0  0  0
   11.9577  -17.0455   22.4534 C   0  0  0  0  0  0  0  0  0  0  0  0
   11.8783  -17.0170   23.9547 C   0  0  2  0  0  0  0  0  0  0  0  0
   10.4473  -16.8063   24.4373 N   0  0  0  0  0  0  0  0  0  0  0  0
    9.9395  -15.4732   24.0796 C   0  0  0  0  0  0  0  0  0  0  0  0
   10.3611  -16.9638   25.8907 O   0  0  0  0  0  0  0  0  0  0  0  0
   10.2724  -15.9469   26.6279 O   0  0  0  0  0  0  0  0  0  0  0  0
  2  3  2  0
  2  1  1  0
  4  2  1  0
  5  4  1  0
  6  5  1  0
  7  8  1  0
  7  6  1  0
  8 10  1  0
  8  9  1  6
 10 11  2  0
 12 13  1  0
 13 14  2  0
 13 23  1  0
 14 15  1  0
 15 16  2  0
 16 17  1  0
 18 17  1  6
 19 10  1  0
 19 18  1  0
 20 18  1  0
 20 32  1  0
 21 20  2  0
 22 16  1  0
 23 22  2  0
 24 25  1  0
 25 27  1  0
 26 25  2  0
 27 28  1  0
 29 28  1  0
 30 29  1  0
 31 33  1  0
 31 32  1  0
 31 30  1  6
 33 35  1  0
 34 33  2  0
M  END
$$$$
