RYR.pdb
     RDKit          3D

 35 35  0  0  1  0  0  0  0  0999 V2000
    7.3948  -13.0734   15.0090 N   0  0  0  0  0  0  0  0  0  0  0  0
    8.1617  -14.1329   15.5572 C   0  0  0  0  0  0  0  0  0  0  0  0
    8.5485  -15.1549   14.8946 N   0  0  0  0  0  0  0  0  0  0  0  0
    8.5240  -14.0223   16.9441 N   0  0  0  0  0  0  0  0  0  0  0  0
    8.0237  -12.9111   17.7409 C   0  0  0  0  0  0  0  0  0  0  0  0
    7.0987  -13.3276   18.8245 C   0  0  0  0  0  0  0  0  0  0  0  0
    7.6473  -13.3423   20.2213 C   0  0  0  0  0  0  0  0  0  0  0  0
    8.1274  -14.7079   20.6625 C   0  0  2  0  0  0  0  0  0  0  0  0
    7.0260  -15.6448   20.7126 N   0  0  0  0  0  0  0  0  0  0  0  0
    8.7503  -14.6459   22.0475 C   0  0  0  0  0  0  0  0  0  0  0  0
    9.6998  -13.8343   22.1945 O   0  0  0  0  0  0  0  0  0  0  0  0
    9.0768  -15.9627   15.2119 O   0  0  0  0  0  0  0  0  0  0  0  0
    6.0376  -10.1871   26.9385 C   0  0  0  0  0  0  0  0  0  0  0  0
    6.4721  -11.4753   26.5890 C   0  0  0  0  0  0  0  0  0  0  0  0
    7.7772  -11.7438   26.2484 C   0  0  0  0  0  0  0  0  0  0  0  0
    8.1619  -13.0294   25.9054 C   0  0  0  0  0  0  0  0  0  0  0  0
    7.2427  -14.0733   25.8978 C   0  0  0  0  0  0  0  0  0  0  0  0
    7.6547  -15.4023   25.4577 C   0  0  2  0  0  0  0  0  0  0  0  0
    8.8393  -15.4509   24.4922 N   0  0  0  0  0  0  0  0  0  0  0  0
    8.3125  -15.4339   23.1074 C   0  0  0  0  0  0  0  0  0  0  0  0
    9.6787  -16.6302   24.6159 O   0  0  0  0  0  0  0  0  0  0  0  0
    9.1139  -17.7896   24.7922 C   0  0  0  0  0  0  0  0  0  0  0  0
    5.9591  -13.7740   26.2438 C   0  0  0  0  0  0  0  0  0  0  0  0
    5.5422  -12.4994   26.5910 N   0  0  0  0  0  0  0  0  0  0  0  0
   14.7664  -14.3824   21.7894 C   0  0  0  0  0  0  0  0  0  0  0  0
   14.3943  -15.0824   20.6215 N   0  0  0  0  0  0  0  0  0  0  0  0
   14.1737  -14.4177   19.5412 N   0  0  0  0  0  0  0  0  0  0  0  0
   14.2490  -16.5118   20.5996 C   0  0  0  0  0  0  0  0  0  0  0  0
   14.3180  -17.2036   21.8661 C   0  0  0  0  0  0  0  0  0  0  0  0
   13.0388  -17.2277   22.6458 C   0  0  0  0  0  0  0  0  0  0  0  0
   13.1301  -17.9580   23.9570 C   0  0  2  0  0  0  0  0  0  0  0  0
   11.7916  -17.9694   24.6875 N   0  0  0  0  0  0  0  0  0  0  0  0
   11.0899  -16.6828   24.5650 C   0  0  0  0  0  0  0  0  0  0  0  0
   11.9789  -18.2652   26.1095 O   0  0  0  0  0  0  0  0  0  0  0  0
   12.4909  -19.3607   26.4604 O   0  0  0  0  0  0  0  0  0  0  0  0
  2  3  2  0
  2  1  1  0
  4  2  1  0
  5  4  1  0
  6  5  1  0
  7  8  1  0
  7  6  1  0
  8 10  1  0
  8  9  1  1
 10 11  2  0
 12 13  1  0
 13 14  2  0
 13 23  1  0
 14 15  1  0
 15 16  2  0
 16 17  1  0
 18 17  1  6
 19 10  1  0
 19 18  1  0
 20 18  1  0
 20 32  1  0
 21 20  2  0
 22 16  1  0
 23 22  2  0
 24 25  1  0
 25 27  1  0
 26 25  2  0
 27 28  1  0
 29 28  1  0
 30 29  1  0
 31 33  1  0
 31 32  1  0
 31 30  1  6
 33 35  1  0
 34 33  2  0
M  END
$$$$
