RYR.pdb
     RDKit          3D

 35 35  0  0  1  0  0  0  0  0999 V2000
   10.9407  -22.6093   17.2313 N   0  0  0  0  0  0  0  0  0  0  0  0
   10.4905  -21.8640   16.1118 C   0  0  0  0  0  0  0  0  0  0  0  0
   10.5211  -22.2907   14.9076 N   0  0  0  0  0  0  0  0  0  0  0  0
    9.9602  -20.5538   16.3748 N   0  0  0  0  0  0  0  0  0  0  0  0
    9.9030  -20.0521   17.7404 C   0  0  0  0  0  0  0  0  0  0  0  0
    9.4045  -18.6575   17.8393 C   0  0  0  0  0  0  0  0  0  0  0  0
    9.3264  -18.0570   19.2124 C   0  0  0  0  0  0  0  0  0  0  0  0
    8.7020  -16.6786   19.2293 C   0  0  2  0  0  0  0  0  0  0  0  0
    9.1524  -15.9000   18.0960 N   0  0  0  0  0  0  0  0  0  0  0  0
    9.0799  -15.9240   20.4934 C   0  0  0  0  0  0  0  0  0  0  0  0
   10.3102  -15.8229   20.7340 O   0  0  0  0  0  0  0  0  0  0  0  0
   10.2285  -21.8238   14.0541 O   0  0  0  0  0  0  0  0  0  0  0  0
    6.8915  -11.4936   28.1265 C   0  0  0  0  0  0  0  0  0  0  0  0
    6.9947  -12.0716   26.8516 C   0  0  0  0  0  0  0  0  0  0  0  0
    7.8595  -11.5932   25.8953 C   0  0  0  0  0  0  0  0  0  0  0  0
    7.9257  -12.1912   24.6478 C   0  0  0  0  0  0  0  0  0  0  0  0
    7.1239  -13.2838   24.3346 C   0  0  0  0  0  0  0  0  0  0  0  0
    7.1553  -13.8474   22.9889 C   0  0  1  0  0  0  0  0  0  0  0  0
    8.3854  -14.6872   22.6430 N   0  0  0  0  0  0  0  0  0  0  0  0
    8.1355  -15.3691   21.3514 C   0  0  0  0  0  0  0  0  0  0  0  0
    8.7133  -15.7171   23.6138 O   0  0  0  0  0  0  0  0  0  0  0  0
    7.9576  -16.7741   23.6902 C   0  0  0  0  0  0  0  0  0  0  0  0
    6.2811  -13.7351   25.3057 C   0  0  0  0  0  0  0  0  0  0  0  0
    6.1904  -13.1592   26.5623 N   0  0  0  0  0  0  0  0  0  0  0  0
   15.8935  -19.9491   26.3298 C   0  0  0  0  0  0  0  0  0  0  0  0
   14.8143  -20.7304   26.7964 N   0  0  0  0  0  0  0  0  0  0  0  0
   15.0478  -21.9223   27.2232 N   0  0  0  0  0  0  0  0  0  0  0  0
   13.4633  -20.2412   26.8061 C   0  0  0  0  0  0  0  0  0  0  0  0
   13.2159  -18.9674   26.1708 C   0  0  0  0  0  0  0  0  0  0  0  0
   11.7800  -18.5407   26.1440 C   0  0  0  0  0  0  0  0  0  0  0  0
   11.5003  -17.3755   25.2356 C   0  0  1  0  0  0  0  0  0  0  0  0
   10.0579  -16.8977   25.3634 N   0  0  0  0  0  0  0  0  0  0  0  0
    9.7948  -15.7196   24.5232 C   0  0  0  0  0  0  0  0  0  0  0  0
    9.7445  -16.5588   26.7533 O   0  0  0  0  0  0  0  0  0  0  0  0
    9.8529  -15.3682   27.1486 O   0  0  0  0  0  0  0  0  0  0  0  0
  2  3  2  0
  2  1  1  0
  4  2  1  0
  5  4  1  0
  6  5  1  0
  7  8  1  0
  7  6  1  0
  8 10  1  0
  8  9  1  6
 10 11  2  0
 12 13  1  0
 13 14  2  0
 13 23  1  0
 14 15  1  0
 15 16  2  0
 16 17  1  0
 18 17  1  6
 19 10  1  0
 19 18  1  0
 20 18  1  0
 20 32  1  0
 21 20  2  0
 22 16  1  0
 23 22  2  0
 24 25  1  0
 25 27  1  0
 26 25  2  0
 27 28  1  0
 29 28  1  0
 30 29  1  0
 31 33  1  0
 31 32  1  0
 31 30  1  6
 33 35  1  0
 34 33  2  0
M  END
$$$$
