RYR.pdb
     RDKit          3D

 35 35  0  0  1  0  0  0  0  0999 V2000
    5.4318  -23.1172   22.9303 N   0  0  0  0  0  0  0  0  0  0  0  0
    6.5543  -22.3865   22.4638 C   0  0  0  0  0  0  0  0  0  0  0  0
    7.2759  -22.7388   21.4697 N   0  0  0  0  0  0  0  0  0  0  0  0
    6.8735  -21.1709   23.1619 N   0  0  0  0  0  0  0  0  0  0  0  0
    6.2210  -20.8650   24.4270 C   0  0  0  0  0  0  0  0  0  0  0  0
    7.1335  -20.9303   25.5959 C   0  0  0  0  0  0  0  0  0  0  0  0
    8.2841  -19.9671   25.6176 C   0  0  0  0  0  0  0  0  0  0  0  0
    8.1304  -18.8729   26.6515 C   0  0  2  0  0  0  0  0  0  0  0  0
    7.3427  -19.3368   27.7730 N   0  0  0  0  0  0  0  0  0  0  0  0
    7.4318  -17.6589   26.0613 C   0  0  0  0  0  0  0  0  0  0  0  0
    6.2006  -17.5567   26.2965 O   0  0  0  0  0  0  0  0  0  0  0  0
    8.0854  -22.2745   21.0683 O   0  0  0  0  0  0  0  0  0  0  0  0
    9.7537  -14.1183   30.5154 C   0  0  0  0  0  0  0  0  0  0  0  0
    9.3633  -14.1912   29.1691 C   0  0  0  0  0  0  0  0  0  0  0  0
   10.1292  -14.8182   28.2144 C   0  0  0  0  0  0  0  0  0  0  0  0
    9.7079  -14.8627   26.8958 C   0  0  0  0  0  0  0  0  0  0  0  0
    8.5068  -14.2780   26.5083 C   0  0  0  0  0  0  0  0  0  0  0  0
    8.1222  -14.2699   25.1006 C   0  0  2  0  0  0  0  0  0  0  0  0
    7.4976  -15.5606   24.5695 N   0  0  0  0  0  0  0  0  0  0  0  0
    8.0962  -16.7025   25.2997 C   0  0  0  0  0  0  0  0  0  0  0  0
    7.7080  -15.8017   23.1523 O   0  0  0  0  0  0  0  0  0  0  0  0
    8.8752  -15.5452   22.6364 C   0  0  0  0  0  0  0  0  0  0  0  0
    7.7703  -13.6684   27.4793 C   0  0  0  0  0  0  0  0  0  0  0  0
    8.1637  -13.6059   28.8061 N   0  0  0  0  0  0  0  0  0  0  0  0
    7.7543  -12.1657   16.4302 C   0  0  0  0  0  0  0  0  0  0  0  0
    8.5081  -12.0761   17.6204 N   0  0  0  0  0  0  0  0  0  0  0  0
    9.0592  -10.9531   17.9248 N   0  0  0  0  0  0  0  0  0  0  0  0
    8.6846  -13.1979   18.5007 C   0  0  0  0  0  0  0  0  0  0  0  0
    8.4162  -14.5111   17.9615 C   0  0  0  0  0  0  0  0  0  0  0  0
    8.5690  -15.6395   18.9352 C   0  0  0  0  0  0  0  0  0  0  0  0
    8.0235  -15.3488   20.3059 C   0  0  1  0  0  0  0  0  0  0  0  0
    7.1427  -16.4858   20.8124 N   0  0  0  0  0  0  0  0  0  0  0  0
    6.7688  -16.3022   22.2228 C   0  0  0  0  0  0  0  0  0  0  0  0
    7.8271  -17.7733   20.6749 O   0  0  0  0  0  0  0  0  0  0  0  0
    8.5287  -18.2152   21.6225 O   0  0  0  0  0  0  0  0  0  0  0  0
  2  3  2  0
  2  1  1  0
  4  2  1  0
  5  4  1  0
  6  5  1  0
  7  8  1  0
  7  6  1  0
  8 10  1  0
  8  9  1  1
 10 11  2  0
 12 13  1  0
 13 14  2  0
 13 23  1  0
 14 15  1  0
 15 16  2  0
 16 17  1  0
 18 17  1  1
 19 10  1  0
 19 18  1  0
 20 18  1  0
 20 32  1  0
 21 20  2  0
 22 16  1  0
 23 22  2  0
 24 25  1  0
 25 27  1  0
 26 25  2  0
 27 28  1  0
 29 28  1  0
 30 29  1  0
 31 33  1  0
 31 32  1  0
 31 30  1  6
 33 35  1  0
 34 33  2  0
M  END
$$$$
