RYR.pdb
     RDKit          3D

 35 35  0  0  1  0  0  0  0  0999 V2000
    7.0018  -14.6766   15.5650 N   0  0  0  0  0  0  0  0  0  0  0  0
    8.1764  -14.3228   14.8533 C   0  0  0  0  0  0  0  0  0  0  0  0
    8.4509  -14.7328   13.6744 N   0  0  0  0  0  0  0  0  0  0  0  0
    9.0952  -13.4373   15.5158 N   0  0  0  0  0  0  0  0  0  0  0  0
    8.8574  -13.0417   16.8966 C   0  0  0  0  0  0  0  0  0  0  0  0
    9.0894  -14.1339   17.8747 C   0  0  0  0  0  0  0  0  0  0  0  0
    8.0573  -14.3184   18.9484 C   0  0  0  0  0  0  0  0  0  0  0  0
    8.3948  -15.4286   19.9198 C   0  0  2  0  0  0  0  0  0  0  0  0
    7.4616  -16.5262   19.7852 N   0  0  0  0  0  0  0  0  0  0  0  0
    8.3303  -14.9352   21.3560 C   0  0  0  0  0  0  0  0  0  0  0  0
    8.0527  -13.7188   21.5142 O   0  0  0  0  0  0  0  0  0  0  0  0
    9.1829  -14.4229   13.0418 O   0  0  0  0  0  0  0  0  0  0  0  0
    5.6997  -10.8348   27.4690 C   0  0  0  0  0  0  0  0  0  0  0  0
    5.9840  -11.9618   26.6820 C   0  0  0  0  0  0  0  0  0  0  0  0
    6.0003  -13.2354   27.2004 C   0  0  0  0  0  0  0  0  0  0  0  0
    6.2905  -14.3192   26.3884 C   0  0  0  0  0  0  0  0  0  0  0  0
    6.5704  -14.1461   25.0370 C   0  0  0  0  0  0  0  0  0  0  0  0
    6.9496  -15.2940   24.2196 C   0  0  2  0  0  0  0  0  0  0  0  0
    8.4364  -15.4154   23.8840 N   0  0  0  0  0  0  0  0  0  0  0  0
    8.5631  -15.7637   22.4493 C   0  0  0  0  0  0  0  0  0  0  0  0
    9.1501  -16.4334   24.6357 O   0  0  0  0  0  0  0  0  0  0  0  0
    8.7462  -17.6687   24.5634 C   0  0  0  0  0  0  0  0  0  0  0  0
    6.5421  -12.8720   24.5545 C   0  0  0  0  0  0  0  0  0  0  0  0
    6.2564  -11.7672   25.3398 N   0  0  0  0  0  0  0  0  0  0  0  0
   16.5546  -18.0423   22.9690 C   0  0  0  0  0  0  0  0  0  0  0  0
   16.1289  -16.9456   23.7492 N   0  0  0  0  0  0  0  0  0  0  0  0
   16.9670  -16.0033   24.0079 N   0  0  0  0  0  0  0  0  0  0  0  0
   14.7925  -16.8485   24.2681 C   0  0  0  0  0  0  0  0  0  0  0  0
   13.8682  -17.9023   23.9179 C   0  0  0  0  0  0  0  0  0  0  0  0
   12.4546  -17.6788   24.3611 C   0  0  0  0  0  0  0  0  0  0  0  0
   12.2704  -17.6722   25.8534 C   0  0  2  0  0  0  0  0  0  0  0  0
   10.8261  -17.3725   26.2395 N   0  0  0  0  0  0  0  0  0  0  0  0
   10.2757  -16.2469   25.4694 C   0  0  0  0  0  0  0  0  0  0  0  0
   10.7250  -17.0557   27.6658 O   0  0  0  0  0  0  0  0  0  0  0  0
   10.8324  -15.8622   28.0525 O   0  0  0  0  0  0  0  0  0  0  0  0
  2  3  2  0
  2  1  1  0
  4  2  1  0
  5  4  1  0
  6  5  1  0
  7  8  1  0
  7  6  1  0
  8 10  1  0
  8  9  1  1
 10 11  2  0
 12 13  1  0
 13 14  2  0
 13 23  1  0
 14 15  1  0
 15 16  2  0
 16 17  1  0
 18 17  1  6
 19 10  1  0
 19 18  1  0
 20 18  1  0
 20 32  1  0
 21 20  2  0
 22 16  1  0
 23 22  2  0
 24 25  1  0
 25 27  1  0
 26 25  2  0
 27 28  1  0
 29 28  1  0
 30 29  1  0
 31 33  1  0
 31 32  1  0
 31 30  1  6
 33 35  1  0
 34 33  2  0
M  END
$$$$
