RYR.pdb
     RDKit          3D

 35 35  0  0  1  0  0  0  0  0999 V2000
    8.6451  -12.3730   16.3070 N   0  0  0  0  0  0  0  0  0  0  0  0
    8.2905  -13.5974   15.6852 C   0  0  0  0  0  0  0  0  0  0  0  0
    7.5403  -13.6868   14.6545 N   0  0  0  0  0  0  0  0  0  0  0  0
    8.8302  -14.7987   16.2620 N   0  0  0  0  0  0  0  0  0  0  0  0
    8.2676  -16.0936   15.9061 C   0  0  0  0  0  0  0  0  0  0  0  0
    8.9429  -17.2363   16.5706 C   0  0  0  0  0  0  0  0  0  0  0  0
    9.6191  -16.9603   17.8815 C   0  0  0  0  0  0  0  0  0  0  0  0
    8.7415  -17.2464   19.0807 C   0  0  2  0  0  0  0  0  0  0  0  0
    7.3442  -17.2338   18.7055 N   0  0  0  0  0  0  0  0  0  0  0  0
    8.9426  -16.2012   20.1657 C   0  0  0  0  0  0  0  0  0  0  0  0
    9.8997  -15.4026   19.9982 O   0  0  0  0  0  0  0  0  0  0  0  0
    7.2157  -14.5172   14.1676 O   0  0  0  0  0  0  0  0  0  0  0  0
    7.0449  -12.4593   28.1238 C   0  0  0  0  0  0  0  0  0  0  0  0
    6.9874  -13.0698   26.8612 C   0  0  0  0  0  0  0  0  0  0  0  0
    6.6784  -14.4003   26.7012 C   0  0  0  0  0  0  0  0  0  0  0  0
    6.6374  -14.9633   25.4364 C   0  0  0  0  0  0  0  0  0  0  0  0
    6.9059  -14.2006   24.3047 C   0  0  0  0  0  0  0  0  0  0  0  0
    6.9331  -14.8339   22.9902 C   0  0  1  0  0  0  0  0  0  0  0  0
    8.3130  -15.2369   22.4692 N   0  0  0  0  0  0  0  0  0  0  0  0
    8.1275  -16.1147   21.2900 C   0  0  0  0  0  0  0  0  0  0  0  0
    9.1346  -15.9661   23.4200 O   0  0  0  0  0  0  0  0  0  0  0  0
    8.8553  -17.2131   23.6673 C   0  0  0  0  0  0  0  0  0  0  0  0
    7.2049  -12.8852   24.4979 C   0  0  0  0  0  0  0  0  0  0  0  0
    7.2548  -12.2923   25.7488 N   0  0  0  0  0  0  0  0  0  0  0  0
   17.2240  -16.6401   26.7957 C   0  0  0  0  0  0  0  0  0  0  0  0
   17.1943  -17.2889   25.5424 N   0  0  0  0  0  0  0  0  0  0  0  0
   18.2875  -17.3952   24.8708 N   0  0  0  0  0  0  0  0  0  0  0  0
   15.9837  -17.8302   24.9892 C   0  0  0  0  0  0  0  0  0  0  0  0
   15.0329  -16.8942   24.4349 C   0  0  0  0  0  0  0  0  0  0  0  0
   13.6231  -17.0651   24.9124 C   0  0  0  0  0  0  0  0  0  0  0  0
   12.6297  -16.1613   24.2363 C   0  0  1  0  0  0  0  0  0  0  0  0
   11.2126  -16.4055   24.7436 N   0  0  0  0  0  0  0  0  0  0  0  0
   10.2469  -15.4749   24.1400 C   0  0  0  0  0  0  0  0  0  0  0  0
   11.1507  -16.2624   26.1998 O   0  0  0  0  0  0  0  0  0  0  0  0
   10.6685  -15.2158   26.7075 O   0  0  0  0  0  0  0  0  0  0  0  0
  2  3  2  0
  2  1  1  0
  4  2  1  0
  5  4  1  0
  6  5  1  0
  7  8  1  0
  7  6  1  0
  8 10  1  0
  8  9  1  6
 10 11  2  0
 12 13  1  0
 13 14  2  0
 13 23  1  0
 14 15  1  0
 15 16  2  0
 16 17  1  0
 18 17  1  6
 19 10  1  0
 19 18  1  0
 20 18  1  0
 20 32  1  0
 21 20  2  0
 22 16  1  0
 23 22  2  0
 24 25  1  0
 25 27  1  0
 26 25  2  0
 27 28  1  0
 29 28  1  0
 30 29  1  0
 31 33  1  0
 31 32  1  0
 31 30  1  6
 33 35  1  0
 34 33  2  0
M  END
$$$$
