RYR.pdb
     RDKit          3D

 35 35  0  0  1  0  0  0  0  0999 V2000
   15.9895  -18.4283   19.8081 N   0  0  0  0  0  0  0  0  0  0  0  0
   15.2177  -19.6014   20.0065 C   0  0  0  0  0  0  0  0  0  0  0  0
   15.6232  -20.7813   19.7300 N   0  0  0  0  0  0  0  0  0  0  0  0
   13.9045  -19.4279   20.5655 N   0  0  0  0  0  0  0  0  0  0  0  0
   13.2713  -18.1170   20.5436 C   0  0  0  0  0  0  0  0  0  0  0  0
   11.8509  -18.1516   20.1140 C   0  0  0  0  0  0  0  0  0  0  0  0
   10.8352  -18.5422   21.1474 C   0  0  0  0  0  0  0  0  0  0  0  0
    9.5144  -17.8200   20.9928 C   0  0  2  0  0  0  0  0  0  0  0  0
    9.2696  -17.4948   19.6043 N   0  0  0  0  0  0  0  0  0  0  0  0
    9.5063  -16.5223   21.7842 C   0  0  0  0  0  0  0  0  0  0  0  0
   10.5061  -15.7740   21.6356 O   0  0  0  0  0  0  0  0  0  0  0  0
   15.1290  -21.6652   19.8125 O   0  0  0  0  0  0  0  0  0  0  0  0
    7.9594  -12.3637   17.3964 C   0  0  0  0  0  0  0  0  0  0  0  0
    7.7800  -12.8220   18.7109 C   0  0  0  0  0  0  0  0  0  0  0  0
    7.0927  -13.9778   18.9993 C   0  0  0  0  0  0  0  0  0  0  0  0
    6.9353  -14.3909   20.3118 C   0  0  0  0  0  0  0  0  0  0  0  0
    7.4660  -13.6510   21.3633 C   0  0  0  0  0  0  0  0  0  0  0  0
    7.2202  -14.0648   22.7410 C   0  0  2  0  0  0  0  0  0  0  0  0
    8.3205  -14.9007   23.3957 N   0  0  0  0  0  0  0  0  0  0  0  0
    8.4634  -16.1625   22.6321 C   0  0  0  0  0  0  0  0  0  0  0  0
    8.0681  -15.2646   24.7794 O   0  0  0  0  0  0  0  0  0  0  0  0
    6.8930  -15.0306   25.2878 C   0  0  0  0  0  0  0  0  0  0  0  0
    8.1444  -12.5134   21.0430 C   0  0  0  0  0  0  0  0  0  0  0  0
    8.3187  -12.0726   19.7413 N   0  0  0  0  0  0  0  0  0  0  0  0
    9.6027  -22.5567   25.7134 C   0  0  0  0  0  0  0  0  0  0  0  0
    8.2897  -22.8080   26.1667 N   0  0  0  0  0  0  0  0  0  0  0  0
    8.0423  -23.9162   26.7735 N   0  0  0  0  0  0  0  0  0  0  0  0
    7.2192  -21.8701   25.9692 C   0  0  0  0  0  0  0  0  0  0  0  0
    7.5358  -20.6394   25.2818 C   0  0  0  0  0  0  0  0  0  0  0  0
    7.8782  -19.4852   26.1737 C   0  0  0  0  0  0  0  0  0  0  0  0
    8.1989  -18.2129   25.4392 C   0  0  1  0  0  0  0  0  0  0  0  0
    8.6010  -17.0975   26.3979 N   0  0  0  0  0  0  0  0  0  0  0  0
    8.9727  -15.8677   25.6821 C   0  0  0  0  0  0  0  0  0  0  0  0
    9.7315  -17.5118   27.2316 O   0  0  0  0  0  0  0  0  0  0  0  0
    9.5517  -18.3316   28.1703 O   0  0  0  0  0  0  0  0  0  0  0  0
  2  3  2  0
  2  1  1  0
  4  2  1  0
  5  4  1  0
  6  5  1  0
  7  8  1  0
  7  6  1  0
  8 10  1  0
  8  9  1  6
 10 11  2  0
 12 13  1  0
 13 14  2  0
 13 23  1  0
 14 15  1  0
 15 16  2  0
 16 17  1  0
 18 17  1  6
 19 10  1  0
 19 18  1  0
 20 18  1  0
 20 32  1  0
 21 20  2  0
 22 16  1  0
 23 22  2  0
 24 25  1  0
 25 27  1  0
 26 25  2  0
 27 28  1  0
 29 28  1  0
 30 29  1  0
 31 33  1  0
 31 32  1  0
 31 30  1  1
 33 35  1  0
 34 33  2  0
M  END
$$$$
