RYR.pdb
     RDKit          3D

 35 35  0  0  1  0  0  0  0  0999 V2000
    6.7214  -13.0503   15.5038 N   0  0  0  0  0  0  0  0  0  0  0  0
    7.9370  -13.5827   15.0035 C   0  0  0  0  0  0  0  0  0  0  0  0
    8.3538  -13.4156   13.8071 N   0  0  0  0  0  0  0  0  0  0  0  0
    8.7387  -14.3449   15.9218 N   0  0  0  0  0  0  0  0  0  0  0  0
    8.2330  -14.6453   17.2537 C   0  0  0  0  0  0  0  0  0  0  0  0
    8.1998  -13.4664   18.1552 C   0  0  0  0  0  0  0  0  0  0  0  0
    7.7584  -13.7020   19.5700 C   0  0  0  0  0  0  0  0  0  0  0  0
    8.3879  -14.9263   20.1983 C   0  0  2  0  0  0  0  0  0  0  0  0
    7.3985  -15.9625   20.4005 N   0  0  0  0  0  0  0  0  0  0  0  0
    8.9975  -14.5933   21.5502 C   0  0  0  0  0  0  0  0  0  0  0  0
    9.9325  -13.7523   21.5468 O   0  0  0  0  0  0  0  0  0  0  0  0
    9.2494  -13.6674   13.3989 O   0  0  0  0  0  0  0  0  0  0  0  0
    9.6104  -14.8785   30.5016 C   0  0  0  0  0  0  0  0  0  0  0  0
    9.1791  -14.9387   29.1671 C   0  0  0  0  0  0  0  0  0  0  0  0
    9.0359  -16.1291   28.4937 C   0  0  0  0  0  0  0  0  0  0  0  0
    8.6119  -16.1422   27.1753 C   0  0  0  0  0  0  0  0  0  0  0  0
    8.3222  -14.9583   26.5051 C   0  0  0  0  0  0  0  0  0  0  0  0
    7.9527  -14.9928   25.0937 C   0  0  1  0  0  0  0  0  0  0  0  0
    9.1116  -14.9598   24.0969 N   0  0  0  0  0  0  0  0  0  0  0  0
    8.5627  -15.1745   22.7374 C   0  0  0  0  0  0  0  0  0  0  0  0
   10.1299  -15.9736   24.3119 O   0  0  0  0  0  0  0  0  0  0  0  0
    9.8682  -17.2072   23.9897 C   0  0  0  0  0  0  0  0  0  0  0  0
    8.4709  -13.7968   27.2022 C   0  0  0  0  0  0  0  0  0  0  0  0
    8.8935  -13.7496   28.5205 N   0  0  0  0  0  0  0  0  0  0  0  0
   17.9404  -18.1373   21.1760 C   0  0  0  0  0  0  0  0  0  0  0  0
   17.8741  -17.3646   22.3555 N   0  0  0  0  0  0  0  0  0  0  0  0
   18.9234  -17.2664   23.0949 N   0  0  0  0  0  0  0  0  0  0  0  0
   16.6730  -16.6880   22.7606 C   0  0  0  0  0  0  0  0  0  0  0  0
   16.2582  -16.8421   24.1359 C   0  0  0  0  0  0  0  0  0  0  0  0
   14.8604  -17.3478   24.3236 C   0  0  0  0  0  0  0  0  0  0  0  0
   13.8228  -16.2650   24.4324 C   0  0  1  0  0  0  0  0  0  0  0  0
   12.4411  -16.8391   24.7265 N   0  0  0  0  0  0  0  0  0  0  0  0
   11.4239  -15.7837   24.8468 C   0  0  0  0  0  0  0  0  0  0  0  0
   12.4555  -17.6167   25.9674 O   0  0  0  0  0  0  0  0  0  0  0  0
   12.1199  -17.0731   27.0525 O   0  0  0  0  0  0  0  0  0  0  0  0
  2  3  2  0
  2  1  1  0
  4  2  1  0
  5  4  1  0
  6  5  1  0
  7  8  1  0
  7  6  1  0
  8 10  1  0
  8  9  1  1
 10 11  2  0
 12 13  1  0
 13 14  2  0
 13 23  1  0
 14 15  1  0
 15 16  2  0
 16 17  1  0
 18 17  1  6
 19 10  1  0
 19 18  1  0
 20 18  1  0
 20 32  1  0
 21 20  2  0
 22 16  1  0
 23 22  2  0
 24 25  1  0
 25 27  1  0
 26 25  2  0
 27 28  1  0
 29 28  1  0
 30 29  1  0
 31 33  1  0
 31 32  1  0
 31 30  1  6
 33 35  1  0
 34 33  2  0
M  END
$$$$
