RYR.pdb
     RDKit          3D

 35 35  0  0  1  0  0  0  0  0999 V2000
    9.0229  -16.8782   17.7174 N   0  0  0  0  0  0  0  0  0  0  0  0
    8.7076  -16.9475   16.3364 C   0  0  0  0  0  0  0  0  0  0  0  0
    8.9306  -17.9683   15.6008 N   0  0  0  0  0  0  0  0  0  0  0  0
    8.0885  -15.7885   15.7528 N   0  0  0  0  0  0  0  0  0  0  0  0
    7.6884  -14.6731   16.5988 C   0  0  0  0  0  0  0  0  0  0  0  0
    7.1273  -15.0928   17.9074 C   0  0  0  0  0  0  0  0  0  0  0  0
    8.0449  -15.0336   19.0933 C   0  0  0  0  0  0  0  0  0  0  0  0
    7.7472  -13.8784   20.0245 C   0  0  2  0  0  0  0  0  0  0  0  0
    8.1542  -12.6243   19.4288 N   0  0  0  0  0  0  0  0  0  0  0  0
    8.4916  -14.0329   21.3407 C   0  0  0  0  0  0  0  0  0  0  0  0
    9.6646  -13.5805   21.3727 O   0  0  0  0  0  0  0  0  0  0  0  0
    8.7271  -18.1052   14.6149 O   0  0  0  0  0  0  0  0  0  0  0  0
    9.7139  -14.0935   30.0811 C   0  0  0  0  0  0  0  0  0  0  0  0
    9.1788  -14.0898   28.7834 C   0  0  0  0  0  0  0  0  0  0  0  0
    8.4912  -15.1638   28.2686 C   0  0  0  0  0  0  0  0  0  0  0  0
    7.9838  -15.1193   26.9807 C   0  0  0  0  0  0  0  0  0  0  0  0
    8.1564  -13.9936   26.1822 C   0  0  0  0  0  0  0  0  0  0  0  0
    7.6808  -14.0003   24.8025 C   0  0  2  0  0  0  0  0  0  0  0  0
    8.5336  -14.7836   23.8039 N   0  0  0  0  0  0  0  0  0  0  0  0
    7.9278  -14.6383   22.4595 C   0  0  0  0  0  0  0  0  0  0  0  0
    8.6367  -16.2072   24.0748 O   0  0  0  0  0  0  0  0  0  0  0  0
    8.1552  -16.6723   25.1911 C   0  0  0  0  0  0  0  0  0  0  0  0
    8.8389  -12.9458   26.7238 C   0  0  0  0  0  0  0  0  0  0  0  0
    9.3593  -12.9590   28.0075 N   0  0  0  0  0  0  0  0  0  0  0  0
   13.4821  -13.8184   18.6318 C   0  0  0  0  0  0  0  0  0  0  0  0
   14.2100  -14.2744   19.7520 N   0  0  0  0  0  0  0  0  0  0  0  0
   15.4296  -13.8898   19.9002 N   0  0  0  0  0  0  0  0  0  0  0  0
   13.6363  -15.1574   20.7297 C   0  0  0  0  0  0  0  0  0  0  0  0
   12.6959  -16.1471   20.2568 C   0  0  0  0  0  0  0  0  0  0  0  0
   12.1834  -17.0866   21.3054 C   0  0  0  0  0  0  0  0  0  0  0  0
   11.4198  -16.4158   22.4136 C   0  0  2  0  0  0  0  0  0  0  0  0
   10.6671  -17.4286   23.2696 N   0  0  0  0  0  0  0  0  0  0  0  0
    9.2154  -17.1943   23.2457 C   0  0  0  0  0  0  0  0  0  0  0  0
   11.1254  -17.3759   24.6596 O   0  0  0  0  0  0  0  0  0  0  0  0
   10.2975  -17.1702   25.5858 O   0  0  0  0  0  0  0  0  0  0  0  0
  2  3  2  0
  2  1  1  0
  4  2  1  0
  5  4  1  0
  6  5  1  0
  7  8  1  0
  7  6  1  0
  8 10  1  0
  8  9  1  6
 10 11  2  0
 12 13  1  0
 13 14  2  0
 13 23  1  0
 14 15  1  0
 15 16  2  0
 16 17  1  0
 18 17  1  6
 19 10  1  0
 19 18  1  0
 20 18  1  0
 20 32  1  0
 21 20  2  0
 22 16  1  0
 23 22  2  0
 24 25  1  0
 25 27  1  0
 26 25  2  0
 27 28  1  0
 29 28  1  0
 30 29  1  0
 31 33  1  0
 31 32  1  0
 31 30  1  6
 33 35  1  0
 34 33  2  0
M  END
$$$$
