WDN.pdb
     RDKit          3D

 31 32  0  0  1  0  0  0  0  0999 V2000
    7.3534  -15.8631   22.8986 N   0  0  0  0  0  0  0  0  0  0  0  0
    8.4561  -15.7353   23.8760 C   0  0  1  0  0  0  0  0  0  0  0  0
    7.9529  -15.9553   25.2566 C   0  0  0  0  0  0  0  0  0  0  0  0
    7.0716  -14.9142   25.7972 C   0  0  0  0  0  0  0  0  0  0  0  0
    5.9405  -15.1175   26.5629 C   0  0  0  0  0  0  0  0  0  0  0  0
    5.3671  -13.9576   26.8581 N   0  0  0  0  0  0  0  0  0  0  0  0
    6.0964  -12.9513   26.3008 C   0  0  0  0  0  0  0  0  0  0  0  0
    5.9398  -11.5758   26.3186 C   0  0  0  0  0  0  0  0  0  0  0  0
    6.8423  -10.7415   25.6754 C   0  0  0  0  0  0  0  0  0  0  0  0
    7.9145  -11.3321   25.0090 C   0  0  0  0  0  0  0  0  0  0  0  0
    8.0530  -12.7006   25.0019 C   0  0  0  0  0  0  0  0  0  0  0  0
    7.1570  -13.5428   25.6407 C   0  0  0  0  0  0  0  0  0  0  0  0
    9.5418  -16.6083   23.4067 C   0  0  0  0  0  0  0  0  0  0  0  0
    9.6845  -17.8046   23.8389 O   0  0  0  0  0  0  0  0  0  0  0  0
   10.5098  -16.1991   22.4457 N   0  0  0  0  0  0  0  0  0  0  0  0
   11.7204  -17.0156   22.1968 C   0  0  1  0  0  0  0  0  0  0  0  0
   12.5118  -16.3723   21.0892 C   0  0  0  0  0  0  0  0  0  0  0  0
   13.7656  -16.9967   20.7264 C   0  0  0  0  0  0  0  0  0  0  0  0
   13.7253  -17.9798   19.9088 O   0  0  0  0  0  0  0  0  0  0  0  0
   12.4493  -17.2070   23.4589 C   0  0  0  0  0  0  0  0  0  0  0  0
   12.8030  -16.1918   24.1100 O   0  0  0  0  0  0  0  0  0  0  0  0
   15.0048  -16.5910   21.2139 O   0  0  0  0  0  0  0  0  0  0  0  0
   14.5160  -19.4025   27.5653 N   0  0  0  0  0  0  0  0  0  0  0  0
   13.1132  -19.5662   27.4917 C   0  0  0  0  0  0  0  0  0  0  0  0
   12.4958  -19.9521   28.5009 O   0  0  0  0  0  0  0  0  0  0  0  0
   12.4507  -19.2607   26.1892 C   0  0  0  0  0  0  0  0  0  0  0  0
   13.4870  -18.6548   25.2294 C   0  0  2  0  0  0  0  0  0  0  0  0
   12.7682  -18.4637   23.9782 N   0  0  0  0  0  0  0  0  0  0  0  0
   14.6778  -19.4898   25.1265 C   0  0  0  0  0  0  0  0  0  0  0  0
   14.9620  -20.3923   24.1149 O   0  0  0  0  0  0  0  0  0  0  0  0
   15.5622  -19.4096   26.0338 O   0  0  0  0  0  0  0  0  0  0  0  0
  2  1  1  6
  2 13  1  0
  2  3  1  0
  3  4  1  0
  4 12  1  0
  4  5  2  0
  5  6  1  0
  7  6  1  0
  7  8  2  0
  9  8  1  0
 10  9  2  0
 11 12  2  0
 11 10  1  0
 12  7  1  0
 13 14  2  0
 15 16  1  0
 15 13  1  0
 17 18  1  0
 16 17  1  6
 18 19  2  0
 20 16  1  0
 20 21  2  0
 22 18  1  0
 23 24  1  0
 24 25  2  0
 24 26  1  0
 27 26  1  1
 27 28  1  0
 28 20  1  0
 29 27  1  0
 29 30  1  0
 31 29  2  0
M  END
$$$$
