WDN.pdb
     RDKit          3D

 31 32  0  0  1  0  0  0  0  0999 V2000
    6.5238  -17.7435   24.2428 N   0  0  0  0  0  0  0  0  0  0  0  0
    7.7203  -16.9491   23.8892 C   0  0  1  0  0  0  0  0  0  0  0  0
    8.2378  -16.2323   25.0835 C   0  0  0  0  0  0  0  0  0  0  0  0
    7.3383  -15.2395   25.6819 C   0  0  0  0  0  0  0  0  0  0  0  0
    6.1467  -15.5014   26.3290 C   0  0  0  0  0  0  0  0  0  0  0  0
    5.5757  -14.3697   26.7225 N   0  0  0  0  0  0  0  0  0  0  0  0
    6.3669  -13.3250   26.3516 C   0  0  0  0  0  0  0  0  0  0  0  0
    6.2374  -11.9581   26.5289 C   0  0  0  0  0  0  0  0  0  0  0  0
    7.2043  -11.0785   26.0645 C   0  0  0  0  0  0  0  0  0  0  0  0
    8.3132  -11.6146   25.4121 C   0  0  0  0  0  0  0  0  0  0  0  0
    8.4239  -12.9755   25.2449 C   0  0  0  0  0  0  0  0  0  0  0  0
    7.4637  -13.8625   25.7044 C   0  0  0  0  0  0  0  0  0  0  0  0
    8.6436  -17.8591   23.1961 C   0  0  0  0  0  0  0  0  0  0  0  0
    8.6670  -19.1156   23.4393 O   0  0  0  0  0  0  0  0  0  0  0  0
    9.5745  -17.4222   22.2110 N   0  0  0  0  0  0  0  0  0  0  0  0
   10.6455  -18.3251   21.7293 C   0  0  1  0  0  0  0  0  0  0  0  0
   10.7953  -18.1391   20.2427 C   0  0  0  0  0  0  0  0  0  0  0  0
   10.8995  -16.7807   19.7556 C   0  0  0  0  0  0  0  0  0  0  0  0
   11.6287  -15.9656   20.4192 O   0  0  0  0  0  0  0  0  0  0  0  0
   11.8665  -18.0990   22.5158 C   0  0  0  0  0  0  0  0  0  0  0  0
   12.9354  -18.6419   22.1380 O   0  0  0  0  0  0  0  0  0  0  0  0
   10.2551  -16.3138   18.6134 O   0  0  0  0  0  0  0  0  0  0  0  0
   14.0651  -15.2255   22.0974 N   0  0  0  0  0  0  0  0  0  0  0  0
   14.5102  -16.0282   23.1733 C   0  0  0  0  0  0  0  0  0  0  0  0
   15.5301  -16.7258   23.0255 O   0  0  0  0  0  0  0  0  0  0  0  0
   13.7177  -15.9877   24.4378 C   0  0  0  0  0  0  0  0  0  0  0  0
   12.9992  -17.3338   24.6227 C   0  0  2  0  0  0  0  0  0  0  0  0
   11.9039  -17.3055   23.6645 N   0  0  0  0  0  0  0  0  0  0  0  0
   12.5921  -17.5405   26.0074 C   0  0  0  0  0  0  0  0  0  0  0  0
   13.4085  -17.9437   27.0511 O   0  0  0  0  0  0  0  0  0  0  0  0
   11.3790  -17.3417   26.3251 O   0  0  0  0  0  0  0  0  0  0  0  0
  2  1  1  1
  2 13  1  0
  2  3  1  0
  3  4  1  0
  4 12  1  0
  4  5  2  0
  5  6  1  0
  7  6  1  0
  7  8  2  0
  9  8  1  0
 10  9  2  0
 11 12  2  0
 11 10  1  0
 12  7  1  0
 13 14  2  0
 15 16  1  0
 15 13  1  0
 17 18  1  0
 16 17  1  6
 18 19  2  0
 20 16  1  0
 20 21  2  0
 22 18  1  0
 23 24  1  0
 24 25  2  0
 24 26  1  0
 27 26  1  1
 27 28  1  0
 28 20  1  0
 29 27  1  0
 29 30  1  0
 31 29  2  0
M  END
$$$$
