WDN.pdb
     RDKit          3D

 31 32  0  0  1  0  0  0  0  0999 V2000
    6.9792  -17.3641   23.9219 N   0  0  0  0  0  0  0  0  0  0  0  0
    7.8274  -16.2474   23.4514 C   0  0  1  0  0  0  0  0  0  0  0  0
    8.4202  -15.5248   24.6064 C   0  0  0  0  0  0  0  0  0  0  0  0
    7.4764  -14.8224   25.4832 C   0  0  0  0  0  0  0  0  0  0  0  0
    6.5811  -15.4084   26.3563 C   0  0  0  0  0  0  0  0  0  0  0  0
    5.8612  -14.4795   26.9730 N   0  0  0  0  0  0  0  0  0  0  0  0
    6.2542  -13.2524   26.5315 C   0  0  0  0  0  0  0  0  0  0  0  0
    5.8374  -11.9738   26.8604 C   0  0  0  0  0  0  0  0  0  0  0  0
    6.4134  -10.8569   26.2729 C   0  0  0  0  0  0  0  0  0  0  0  0
    7.4274  -11.0622   25.3389 C   0  0  0  0  0  0  0  0  0  0  0  0
    7.8276  -12.3402   25.0247 C   0  0  0  0  0  0  0  0  0  0  0  0
    7.2584  -13.4623   25.6052 C   0  0  0  0  0  0  0  0  0  0  0  0
    8.7552  -16.8089   22.4589 C   0  0  0  0  0  0  0  0  0  0  0  0
    9.2698  -17.9730   22.5945 O   0  0  0  0  0  0  0  0  0  0  0  0
    9.1511  -16.1124   21.2816 N   0  0  0  0  0  0  0  0  0  0  0  0
   10.1671  -16.6861   20.3690 C   0  0  1  0  0  0  0  0  0  0  0  0
    9.8157  -16.2981   18.9573 C   0  0  0  0  0  0  0  0  0  0  0  0
    8.5618  -16.7920   18.4308 C   0  0  0  0  0  0  0  0  0  0  0  0
    8.3134  -18.0403   18.5598 O   0  0  0  0  0  0  0  0  0  0  0  0
   11.5085  -16.2828   20.8147 C   0  0  0  0  0  0  0  0  0  0  0  0
   11.6412  -15.1806   21.4042 O   0  0  0  0  0  0  0  0  0  0  0  0
    7.6168  -15.9908   17.7959 O   0  0  0  0  0  0  0  0  0  0  0  0
   14.2712  -17.7401   24.7623 N   0  0  0  0  0  0  0  0  0  0  0  0
   14.2464  -16.6009   23.9247 C   0  0  0  0  0  0  0  0  0  0  0  0
   15.0930  -15.7053   24.0970 O   0  0  0  0  0  0  0  0  0  0  0  0
   13.1913  -16.5432   22.8701 C   0  0  0  0  0  0  0  0  0  0  0  0
   13.7623  -17.1046   21.5582 C   0  0  2  0  0  0  0  0  0  0  0  0
   12.6493  -17.0648   20.6209 N   0  0  0  0  0  0  0  0  0  0  0  0
   14.3511  -18.4247   21.7491 C   0  0  0  0  0  0  0  0  0  0  0  0
   13.6638  -19.6232   21.8468 O   0  0  0  0  0  0  0  0  0  0  0  0
   15.6136  -18.5248   21.8392 O   0  0  0  0  0  0  0  0  0  0  0  0
  2  1  1  1
  2 13  1  0
  2  3  1  0
  3  4  1  0
  4 12  1  0
  4  5  2  0
  5  6  1  0
  7  6  1  0
  7  8  2  0
  9  8  1  0
 10  9  2  0
 11 12  2  0
 11 10  1  0
 12  7  1  0
 13 14  2  0
 15 16  1  0
 15 13  1  0
 17 18  1  0
 16 17  1  6
 18 19  2  0
 20 16  1  0
 20 21  2  0
 22 18  1  0
 23 24  1  0
 24 25  2  0
 24 26  1  0
 27 26  1  1
 27 28  1  0
 28 20  1  0
 29 27  1  0
 29 30  1  0
 31 29  2  0
M  END
$$$$
