WDN.pdb
     RDKit          3D

 31 32  0  0  1  0  0  0  0  0999 V2000
    7.0154  -17.6394   23.6997 N   0  0  0  0  0  0  0  0  0  0  0  0
    8.0571  -16.5962   23.5788 C   0  0  1  0  0  0  0  0  0  0  0  0
    8.4494  -16.0977   24.9224 C   0  0  0  0  0  0  0  0  0  0  0  0
    7.4505  -15.2874   25.6285 C   0  0  0  0  0  0  0  0  0  0  0  0
    6.2713  -15.7447   26.1832 C   0  0  0  0  0  0  0  0  0  0  0  0
    5.5922  -14.7388   26.7202 N   0  0  0  0  0  0  0  0  0  0  0  0
    6.2960  -13.5866   26.5407 C   0  0  0  0  0  0  0  0  0  0  0  0
    6.0409  -12.2788   26.9163 C   0  0  0  0  0  0  0  0  0  0  0  0
    6.9368  -11.2601   26.6263 C   0  0  0  0  0  0  0  0  0  0  0  0
    8.1048  -11.5948   25.9435 C   0  0  0  0  0  0  0  0  0  0  0  0
    8.3405  -12.8998   25.5781 C   0  0  0  0  0  0  0  0  0  0  0  0
    7.4520  -13.9244   25.8623 C   0  0  0  0  0  0  0  0  0  0  0  0
    9.1195  -17.1545   22.7299 C   0  0  0  0  0  0  0  0  0  0  0  0
    9.2145  -18.4102   22.5008 O   0  0  0  0  0  0  0  0  0  0  0  0
   10.1158  -16.3539   22.1019 N   0  0  0  0  0  0  0  0  0  0  0  0
   11.1660  -16.9747   21.2617 C   0  0  1  0  0  0  0  0  0  0  0  0
   11.1519  -16.3110   19.9103 C   0  0  0  0  0  0  0  0  0  0  0  0
   12.1450  -16.7457   18.9521 C   0  0  0  0  0  0  0  0  0  0  0  0
   12.7173  -15.8493   18.2411 O   0  0  0  0  0  0  0  0  0  0  0  0
   12.4525  -16.9257   21.9711 C   0  0  0  0  0  0  0  0  0  0  0  0
   13.4902  -17.2892   21.3620 O   0  0  0  0  0  0  0  0  0  0  0  0
   12.5102  -18.0754   18.7614 O   0  0  0  0  0  0  0  0  0  0  0  0
   10.3936  -17.9803   26.1096 N   0  0  0  0  0  0  0  0  0  0  0  0
   11.8054  -18.0339   26.0472 C   0  0  0  0  0  0  0  0  0  0  0  0
   12.4652  -17.8036   27.0769 O   0  0  0  0  0  0  0  0  0  0  0  0
   12.4254  -18.3688   24.7311 C   0  0  0  0  0  0  0  0  0  0  0  0
   13.3441  -17.2141   24.3012 C   0  0  2  0  0  0  0  0  0  0  0  0
   12.5850  -16.4908   23.2916 N   0  0  0  0  0  0  0  0  0  0  0  0
   14.6445  -17.6991   23.8542 C   0  0  0  0  0  0  0  0  0  0  0  0
   15.6794  -18.1369   24.6638 O   0  0  0  0  0  0  0  0  0  0  0  0
   14.8883  -17.7380   22.6088 O   0  0  0  0  0  0  0  0  0  0  0  0
  2  1  1  1
  2 13  1  0
  2  3  1  0
  3  4  1  0
  4 12  1  0
  4  5  2  0
  5  6  1  0
  7  6  1  0
  7  8  2  0
  9  8  1  0
 10  9  2  0
 11 12  2  0
 11 10  1  0
 12  7  1  0
 13 14  2  0
 15 16  1  0
 15 13  1  0
 17 18  1  0
 16 17  1  6
 18 19  2  0
 20 16  1  0
 20 21  2  0
 22 18  1  0
 23 24  1  0
 24 25  2  0
 24 26  1  0
 27 26  1  6
 27 28  1  0
 28 20  1  0
 29 27  1  0
 29 30  1  0
 31 29  2  0
M  END
$$$$
