WDN.pdb
     RDKit          3D

 31 32  0  0  1  0  0  0  0  0999 V2000
    6.5420  -17.7100   23.7126 N   0  0  0  0  0  0  0  0  0  0  0  0
    7.6545  -16.8653   23.2264 C   0  0  1  0  0  0  0  0  0  0  0  0
    8.3677  -16.2392   24.3697 C   0  0  0  0  0  0  0  0  0  0  0  0
    7.5721  -15.3410   25.2143 C   0  0  0  0  0  0  0  0  0  0  0  0
    6.5124  -15.7041   26.0220 C   0  0  0  0  0  0  0  0  0  0  0  0
    6.0037  -14.6369   26.6252 N   0  0  0  0  0  0  0  0  0  0  0  0
    6.7068  -13.5360   26.2394 C   0  0  0  0  0  0  0  0  0  0  0  0
    6.5931  -12.1992   26.5812 C   0  0  0  0  0  0  0  0  0  0  0  0
    7.4553  -11.2476   26.0564 C   0  0  0  0  0  0  0  0  0  0  0  0
    8.4423  -11.6799   25.1724 C   0  0  0  0  0  0  0  0  0  0  0  0
    8.5392  -13.0122   24.8444 C   0  0  0  0  0  0  0  0  0  0  0  0
    7.6828  -13.9705   25.3623 C   0  0  0  0  0  0  0  0  0  0  0  0
    8.4484  -17.6964   22.3099 C   0  0  0  0  0  0  0  0  0  0  0  0
    8.3809  -18.9745   22.3230 O   0  0  0  0  0  0  0  0  0  0  0  0
    9.3451  -17.1538   21.3457 N   0  0  0  0  0  0  0  0  0  0  0  0
   10.0798  -18.0399   20.4133 C   0  0  1  0  0  0  0  0  0  0  0  0
   10.1267  -17.3784   19.0616 C   0  0  0  0  0  0  0  0  0  0  0  0
   10.8533  -18.0658   18.0162 C   0  0  0  0  0  0  0  0  0  0  0  0
   10.5684  -19.2947   17.8037 O   0  0  0  0  0  0  0  0  0  0  0  0
   11.3880  -18.3805   20.9905 C   0  0  0  0  0  0  0  0  0  0  0  0
   11.8190  -19.5534   20.8551 O   0  0  0  0  0  0  0  0  0  0  0  0
   11.8383  -17.4694   17.2339 O   0  0  0  0  0  0  0  0  0  0  0  0
   14.3992  -14.5959   24.0131 N   0  0  0  0  0  0  0  0  0  0  0  0
   13.7271  -15.4818   23.1393 C   0  0  0  0  0  0  0  0  0  0  0  0
   13.8339  -15.3159   21.9107 O   0  0  0  0  0  0  0  0  0  0  0  0
   12.9202  -16.5770   23.7542 C   0  0  0  0  0  0  0  0  0  0  0  0
   12.9826  -17.8160   22.8469 C   0  0  2  0  0  0  0  0  0  0  0  0
   12.1841  -17.4645   21.6818 N   0  0  0  0  0  0  0  0  0  0  0  0
   12.5436  -19.0176   23.5463 C   0  0  0  0  0  0  0  0  0  0  0  0
   11.3033  -19.2212   24.1283 O   0  0  0  0  0  0  0  0  0  0  0  0
   13.3492  -19.9931   23.6525 O   0  0  0  0  0  0  0  0  0  0  0  0
  2  1  1  1
  2 13  1  0
  2  3  1  0
  3  4  1  0
  4 12  1  0
  4  5  2  0
  5  6  1  0
  7  6  1  0
  7  8  2  0
  9  8  1  0
 10  9  2  0
 11 12  2  0
 11 10  1  0
 12  7  1  0
 13 14  2  0
 15 16  1  0
 15 13  1  0
 17 18  1  0
 16 17  1  6
 18 19  2  0
 20 16  1  0
 20 21  2  0
 22 18  1  0
 23 24  1  0
 24 25  2  0
 24 26  1  0
 27 26  1  1
 27 28  1  0
 28 20  1  0
 29 27  1  0
 29 30  1  0
 31 29  2  0
M  END
$$$$
