WDN.pdb
     RDKit          3D

 31 32  0  0  1  0  0  0  0  0999 V2000
    7.2552  -17.7976   23.7492 N   0  0  0  0  0  0  0  0  0  0  0  0
    8.1712  -16.7038   23.3593 C   0  0  1  0  0  0  0  0  0  0  0  0
    8.6655  -15.9877   24.5637 C   0  0  0  0  0  0  0  0  0  0  0  0
    7.6531  -15.2816   25.3571 C   0  0  0  0  0  0  0  0  0  0  0  0
    6.6624  -15.8643   26.1228 C   0  0  0  0  0  0  0  0  0  0  0  0
    5.9036  -14.9316   26.6849 N   0  0  0  0  0  0  0  0  0  0  0  0
    6.3647  -13.7053   26.3125 C   0  0  0  0  0  0  0  0  0  0  0  0
    5.9438  -12.4243   26.6266 C   0  0  0  0  0  0  0  0  0  0  0  0
    6.5993  -11.3094   26.1250 C   0  0  0  0  0  0  0  0  0  0  0  0
    7.6976  -11.5191   25.2930 C   0  0  0  0  0  0  0  0  0  0  0  0
    8.1005  -12.7994   24.9918 C   0  0  0  0  0  0  0  0  0  0  0  0
    7.4525  -13.9195   25.4870 C   0  0  0  0  0  0  0  0  0  0  0  0
    9.1778  -17.2927   22.4643 C   0  0  0  0  0  0  0  0  0  0  0  0
    9.6398  -18.4723   22.6467 O   0  0  0  0  0  0  0  0  0  0  0  0
    9.7133  -16.6074   21.3366 N   0  0  0  0  0  0  0  0  0  0  0  0
   10.6835  -17.2738   20.4373 C   0  0  1  0  0  0  0  0  0  0  0  0
   10.5492  -16.6765   19.0618 C   0  0  0  0  0  0  0  0  0  0  0  0
    9.6979  -17.3724   18.1213 C   0  0  0  0  0  0  0  0  0  0  0  0
    9.0402  -18.3826   18.5497 O   0  0  0  0  0  0  0  0  0  0  0  0
   12.0284  -17.1972   21.0256 C   0  0  0  0  0  0  0  0  0  0  0  0
   13.0092  -17.5773   20.3377 O   0  0  0  0  0  0  0  0  0  0  0  0
    9.5554  -17.0073   16.7855 O   0  0  0  0  0  0  0  0  0  0  0  0
   14.7388  -16.3770   26.2427 N   0  0  0  0  0  0  0  0  0  0  0  0
   14.7481  -15.8565   24.9277 C   0  0  0  0  0  0  0  0  0  0  0  0
   15.8171  -15.4312   24.4535 O   0  0  0  0  0  0  0  0  0  0  0  0
   13.4564  -15.8503   24.1793 C   0  0  0  0  0  0  0  0  0  0  0  0
   13.5886  -16.7542   22.9432 C   0  0  2  0  0  0  0  0  0  0  0  0
   12.2766  -16.7181   22.3138 N   0  0  0  0  0  0  0  0  0  0  0  0
   14.0567  -18.0882   23.2998 C   0  0  0  0  0  0  0  0  0  0  0  0
   13.3279  -19.0645   23.9586 O   0  0  0  0  0  0  0  0  0  0  0  0
   15.2423  -18.4234   22.9931 O   0  0  0  0  0  0  0  0  0  0  0  0
  2  1  1  1
  2 13  1  0
  2  3  1  0
  3  4  1  0
  4 12  1  0
  4  5  2  0
  5  6  1  0
  7  6  1  0
  7  8  2  0
  9  8  1  0
 10  9  2  0
 11 12  2  0
 11 10  1  0
 12  7  1  0
 13 14  2  0
 15 16  1  0
 15 13  1  0
 17 18  1  0
 16 17  1  6
 18 19  2  0
 20 16  1  0
 20 21  2  0
 22 18  1  0
 23 24  1  0
 24 25  2  0
 24 26  1  0
 27 26  1  1
 27 28  1  0
 28 20  1  0
 29 27  1  0
 29 30  1  0
 31 29  2  0
M  END
$$$$
