WDN.pdb
     RDKit          3D

 31 32  0  0  1  0  0  0  0  0999 V2000
    6.7958  -17.0480   23.0837 N   0  0  0  0  0  0  0  0  0  0  0  0
    8.0281  -16.2626   23.3123 C   0  0  1  0  0  0  0  0  0  0  0  0
    8.1973  -15.9737   24.7600 C   0  0  0  0  0  0  0  0  0  0  0  0
    7.2576  -15.0080   25.3407 C   0  0  0  0  0  0  0  0  0  0  0  0
    5.9796  -15.2790   25.7883 C   0  0  0  0  0  0  0  0  0  0  0  0
    5.3982  -14.1696   26.2272 N   0  0  0  0  0  0  0  0  0  0  0  0
    6.2681  -13.1311   26.0862 C   0  0  0  0  0  0  0  0  0  0  0  0
    6.1617  -11.7864   26.3980 C   0  0  0  0  0  0  0  0  0  0  0  0
    7.2129  -10.9106   26.1700 C   0  0  0  0  0  0  0  0  0  0  0  0
    8.3828  -11.4273   25.6159 C   0  0  0  0  0  0  0  0  0  0  0  0
    8.4695  -12.7661   25.3123 C   0  0  0  0  0  0  0  0  0  0  0  0
    7.4252  -13.6491   25.5355 C   0  0  0  0  0  0  0  0  0  0  0  0
    9.1190  -16.9790   22.6356 C   0  0  0  0  0  0  0  0  0  0  0  0
    9.1548  -18.2570   22.5737 O   0  0  0  0  0  0  0  0  0  0  0  0
   10.2097  -16.3178   22.0023 N   0  0  0  0  0  0  0  0  0  0  0  0
   11.5194  -16.9933   21.8521 C   0  0  1  0  0  0  0  0  0  0  0  0
   12.3671  -16.1878   20.9036 C   0  0  0  0  0  0  0  0  0  0  0  0
   11.9815  -16.1919   19.5091 C   0  0  0  0  0  0  0  0  0  0  0  0
   11.8012  -17.3262   18.9456 O   0  0  0  0  0  0  0  0  0  0  0  0
   12.1075  -17.2212   23.1798 C   0  0  0  0  0  0  0  0  0  0  0  0
   12.2319  -16.2430   23.9592 O   0  0  0  0  0  0  0  0  0  0  0  0
   11.7970  -15.0390   18.7510 O   0  0  0  0  0  0  0  0  0  0  0  0
   12.5219  -18.8170   27.7800 N   0  0  0  0  0  0  0  0  0  0  0  0
   12.2375  -19.9595   26.9965 C   0  0  0  0  0  0  0  0  0  0  0  0
   12.2228  -21.0780   27.5417 O   0  0  0  0  0  0  0  0  0  0  0  0
   11.9680  -19.7495   25.5433 C   0  0  0  0  0  0  0  0  0  0  0  0
   12.9770  -18.7316   24.9881 C   0  0  2  0  0  0  0  0  0  0  0  0
   12.5342  -18.4741   23.6256 N   0  0  0  0  0  0  0  0  0  0  0  0
   14.3476  -19.2157   25.1020 C   0  0  0  0  0  0  0  0  0  0  0  0
   14.9101  -20.2618   24.3894 O   0  0  0  0  0  0  0  0  0  0  0  0
   15.1311  -18.6482   25.9242 O   0  0  0  0  0  0  0  0  0  0  0  0
  2  1  1  1
  2 13  1  0
  2  3  1  0
  3  4  1  0
  4 12  1  0
  4  5  2  0
  5  6  1  0
  7  6  1  0
  7  8  2  0
  9  8  1  0
 10  9  2  0
 11 12  2  0
 11 10  1  0
 12  7  1  0
 13 14  2  0
 15 16  1  0
 15 13  1  0
 17 18  1  0
 16 17  1  6
 18 19  2  0
 20 16  1  0
 20 21  2  0
 22 18  1  0
 23 24  1  0
 24 25  2  0
 24 26  1  0
 27 26  1  6
 27 28  1  0
 28 20  1  0
 29 27  1  0
 29 30  1  0
 31 29  2  0
M  END
$$$$
