WDN.pdb
     RDKit          3D

 31 32  0  0  1  0  0  0  0  0999 V2000
    7.1055  -17.2082   23.4967 N   0  0  0  0  0  0  0  0  0  0  0  0
    8.2239  -16.2415   23.4475 C   0  0  1  0  0  0  0  0  0  0  0  0
    8.5378  -15.7425   24.8114 C   0  0  0  0  0  0  0  0  0  0  0  0
    7.4818  -14.9708   25.4764 C   0  0  0  0  0  0  0  0  0  0  0  0
    6.3969  -15.4878   26.1568 C   0  0  0  0  0  0  0  0  0  0  0  0
    5.6254  -14.5077   26.6102 N   0  0  0  0  0  0  0  0  0  0  0  0
    6.1713  -13.3138   26.2475 C   0  0  0  0  0  0  0  0  0  0  0  0
    5.7747  -12.0074   26.4772 C   0  0  0  0  0  0  0  0  0  0  0  0
    6.5221  -10.9367   26.0090 C   0  0  0  0  0  0  0  0  0  0  0  0
    7.6879  -11.2173   25.2985 C   0  0  0  0  0  0  0  0  0  0  0  0
    8.0653  -12.5218   25.0798 C   0  0  0  0  0  0  0  0  0  0  0  0
    7.3257  -13.5983   25.5426 C   0  0  0  0  0  0  0  0  0  0  0  0
    9.3112  -16.8890   22.6994 C   0  0  0  0  0  0  0  0  0  0  0  0
    9.4358  -18.1619   22.6504 O   0  0  0  0  0  0  0  0  0  0  0  0
   10.3007  -16.1620   21.9782 N   0  0  0  0  0  0  0  0  0  0  0  0
   11.4128  -16.8672   21.2999 C   0  0  1  0  0  0  0  0  0  0  0  0
   11.7592  -16.1159   20.0420 C   0  0  0  0  0  0  0  0  0  0  0  0
   11.0158  -16.4527   18.8472 C   0  0  0  0  0  0  0  0  0  0  0  0
   11.0434  -15.6208   17.8758 O   0  0  0  0  0  0  0  0  0  0  0  0
   12.5231  -17.0530   22.2452 C   0  0  0  0  0  0  0  0  0  0  0  0
   13.5632  -17.6347   21.8457 O   0  0  0  0  0  0  0  0  0  0  0  0
   10.2771  -17.6229   18.6964 O   0  0  0  0  0  0  0  0  0  0  0  0
   11.3408  -19.2850   25.9334 N   0  0  0  0  0  0  0  0  0  0  0  0
   12.4590  -18.4307   26.0751 C   0  0  0  0  0  0  0  0  0  0  0  0
   12.6107  -17.8053   27.1402 O   0  0  0  0  0  0  0  0  0  0  0  0
   13.4016  -18.3315   24.9218 C   0  0  0  0  0  0  0  0  0  0  0  0
   13.5560  -16.8545   24.5258 C   0  0  2  0  0  0  0  0  0  0  0  0
   12.4855  -16.6118   23.5698 N   0  0  0  0  0  0  0  0  0  0  0  0
   14.8955  -16.5686   24.0260 C   0  0  0  0  0  0  0  0  0  0  0  0
   15.2142  -16.0592   22.7781 O   0  0  0  0  0  0  0  0  0  0  0  0
   15.8917  -16.7964   24.7795 O   0  0  0  0  0  0  0  0  0  0  0  0
  2  1  1  1
  2 13  1  0
  2  3  1  0
  3  4  1  0
  4 12  1  0
  4  5  2  0
  5  6  1  0
  7  6  1  0
  7  8  2  0
  9  8  1  0
 10  9  2  0
 11 12  2  0
 11 10  1  0
 12  7  1  0
 13 14  2  0
 15 16  1  0
 15 13  1  0
 17 18  1  0
 16 17  1  6
 18 19  2  0
 20 16  1  0
 20 21  2  0
 22 18  1  0
 23 24  1  0
 24 25  2  0
 24 26  1  0
 27 26  1  6
 27 28  1  0
 28 20  1  0
 29 27  1  0
 29 30  1  0
 31 29  2  0
M  END
$$$$
