WDN.pdb
     RDKit          3D

 31 32  0  0  1  0  0  0  0  0999 V2000
    8.8299  -17.5339   22.1123 N   0  0  0  0  0  0  0  0  0  0  0  0
   10.0398  -16.7292   21.8357 C   0  0  1  0  0  0  0  0  0  0  0  0
    9.9540  -15.4128   22.5194 C   0  0  0  0  0  0  0  0  0  0  0  0
    8.8483  -14.5409   22.1070 C   0  0  0  0  0  0  0  0  0  0  0  0
    7.7482  -14.2003   22.8692 C   0  0  0  0  0  0  0  0  0  0  0  0
    6.9304  -13.4170   22.1769 N   0  0  0  0  0  0  0  0  0  0  0  0
    7.4595  -13.2129   20.9385 C   0  0  0  0  0  0  0  0  0  0  0  0
    7.0174  -12.4748   19.8539 C   0  0  0  0  0  0  0  0  0  0  0  0
    7.7559  -12.4075   18.6815 C   0  0  0  0  0  0  0  0  0  0  0  0
    8.9599  -13.1077   18.6290 C   0  0  0  0  0  0  0  0  0  0  0  0
    9.3823  -13.8360   19.7168 C   0  0  0  0  0  0  0  0  0  0  0  0
    8.6520  -13.9102   20.8920 C   0  0  0  0  0  0  0  0  0  0  0  0
   11.1961  -17.5798   22.1527 C   0  0  0  0  0  0  0  0  0  0  0  0
   11.4391  -17.9766   23.3451 O   0  0  0  0  0  0  0  0  0  0  0  0
   12.1272  -18.0254   21.1717 N   0  0  0  0  0  0  0  0  0  0  0  0
   13.2909  -18.8575   21.5563 C   0  0  1  0  0  0  0  0  0  0  0  0
   13.3743  -20.0282   20.6131 C   0  0  0  0  0  0  0  0  0  0  0  0
   14.4475  -20.9740   20.8300 C   0  0  0  0  0  0  0  0  0  0  0  0
   14.5303  -21.5253   21.9814 O   0  0  0  0  0  0  0  0  0  0  0  0
   14.4944  -18.0160   21.6195 C   0  0  0  0  0  0  0  0  0  0  0  0
   15.5808  -18.5441   21.9668 O   0  0  0  0  0  0  0  0  0  0  0  0
   15.3889  -21.3155   19.8630 O   0  0  0  0  0  0  0  0  0  0  0  0
   13.6610  -14.5213   18.9361 N   0  0  0  0  0  0  0  0  0  0  0  0
   14.9853  -14.7257   19.3887 C   0  0  0  0  0  0  0  0  0  0  0  0
   15.8484  -15.1095   18.5787 O   0  0  0  0  0  0  0  0  0  0  0  0
   15.2694  -14.4638   20.8307 C   0  0  0  0  0  0  0  0  0  0  0  0
   15.6467  -15.7869   21.5158 C   0  0  2  0  0  0  0  0  0  0  0  0
   14.4964  -16.6544   21.3086 N   0  0  0  0  0  0  0  0  0  0  0  0
   16.0130  -15.5841   22.9125 C   0  0  0  0  0  0  0  0  0  0  0  0
   15.4182  -16.1812   24.0116 O   0  0  0  0  0  0  0  0  0  0  0  0
   16.9648  -14.7899   23.1867 O   0  0  0  0  0  0  0  0  0  0  0  0
  2  1  1  1
  2 13  1  0
  2  3  1  0
  3  4  1  0
  4 12  1  0
  4  5  2  0
  5  6  1  0
  7  6  1  0
  7  8  2  0
  9  8  1  0
 10  9  2  0
 11 12  2  0
 11 10  1  0
 12  7  1  0
 13 14  2  0
 15 16  1  0
 15 13  1  0
 17 18  1  0
 16 17  1  6
 18 19  2  0
 20 16  1  0
 20 21  2  0
 22 18  1  0
 23 24  1  0
 24 25  2  0
 24 26  1  0
 27 26  1  1
 27 28  1  0
 28 20  1  0
 29 27  1  0
 29 30  1  0
 31 29  2  0
M  END
$$$$
