WDN.pdb
     RDKit          3D

 31 32  0  0  1  0  0  0  0  0999 V2000
    6.8470  -17.4233   24.0233 N   0  0  0  0  0  0  0  0  0  0  0  0
    7.8335  -16.3647   23.7169 C   0  0  1  0  0  0  0  0  0  0  0  0
    8.2419  -15.6614   24.9604 C   0  0  0  0  0  0  0  0  0  0  0  0
    7.2404  -14.7714   25.5586 C   0  0  0  0  0  0  0  0  0  0  0  0
    6.0353  -15.1536   26.1142 C   0  0  0  0  0  0  0  0  0  0  0  0
    5.3628  -14.0902   26.5367 N   0  0  0  0  0  0  0  0  0  0  0  0
    6.0971  -12.9729   26.2769 C   0  0  0  0  0  0  0  0  0  0  0  0
    5.8599  -11.6317   26.5251 C   0  0  0  0  0  0  0  0  0  0  0  0
    6.7866  -10.6611   26.1735 C   0  0  0  0  0  0  0  0  0  0  0  0
    7.9669  -11.0788   25.5612 C   0  0  0  0  0  0  0  0  0  0  0  0
    8.1844  -12.4159   25.3223 C   0  0  0  0  0  0  0  0  0  0  0  0
    7.2652  -13.3931   25.6689 C   0  0  0  0  0  0  0  0  0  0  0  0
    8.8953  -16.9932   22.9178 C   0  0  0  0  0  0  0  0  0  0  0  0
    9.2763  -18.1976   23.1242 O   0  0  0  0  0  0  0  0  0  0  0  0
    9.5769  -16.3218   21.8630 N   0  0  0  0  0  0  0  0  0  0  0  0
   10.9276  -16.7568   21.4379 C   0  0  1  0  0  0  0  0  0  0  0  0
   11.3070  -15.9943   20.1963 C   0  0  0  0  0  0  0  0  0  0  0  0
   12.6083  -16.2685   19.6263 C   0  0  0  0  0  0  0  0  0  0  0  0
   12.9355  -17.4931   19.4535 O   0  0  0  0  0  0  0  0  0  0  0  0
   11.8616  -16.6244   22.5651 C   0  0  0  0  0  0  0  0  0  0  0  0
   12.0915  -15.4776   23.0252 O   0  0  0  0  0  0  0  0  0  0  0  0
   13.5183  -15.2815   19.2579 O   0  0  0  0  0  0  0  0  0  0  0  0
   11.6894  -20.6631   25.1977 N   0  0  0  0  0  0  0  0  0  0  0  0
   12.7690  -19.8928   24.7067 C   0  0  0  0  0  0  0  0  0  0  0  0
   13.4769  -20.3566   23.7944 O   0  0  0  0  0  0  0  0  0  0  0  0
   12.9951  -18.5515   25.3219 C   0  0  0  0  0  0  0  0  0  0  0  0
   13.4770  -17.5764   24.2360 C   0  0  2  0  0  0  0  0  0  0  0  0
   12.5079  -17.7112   23.1583 N   0  0  0  0  0  0  0  0  0  0  0  0
   14.8580  -17.8409   23.8499 C   0  0  0  0  0  0  0  0  0  0  0  0
   15.2916  -18.3002   22.6172 O   0  0  0  0  0  0  0  0  0  0  0  0
   15.7800  -17.6429   24.7000 O   0  0  0  0  0  0  0  0  0  0  0  0
  2  1  1  1
  2 13  1  0
  2  3  1  0
  3  4  1  0
  4 12  1  0
  4  5  2  0
  5  6  1  0
  7  6  1  0
  7  8  2  0
  9  8  1  0
 10  9  2  0
 11 12  2  0
 11 10  1  0
 12  7  1  0
 13 14  2  0
 15 16  1  0
 15 13  1  0
 17 18  1  0
 16 17  1  6
 18 19  2  0
 20 16  1  0
 20 21  2  0
 22 18  1  0
 23 24  1  0
 24 25  2  0
 24 26  1  0
 27 26  1  1
 27 28  1  0
 28 20  1  0
 29 27  1  0
 29 30  1  0
 31 29  2  0
M  END
$$$$
