WDN.pdb
     RDKit          3D

 31 32  0  0  1  0  0  0  0  0999 V2000
    9.1351  -18.2659   20.6501 N   0  0  0  0  0  0  0  0  0  0  0  0
   10.1492  -17.1997   20.5000 C   0  0  1  0  0  0  0  0  0  0  0  0
   10.0175  -16.2018   21.5930 C   0  0  0  0  0  0  0  0  0  0  0  0
    8.8506  -15.3152   21.5219 C   0  0  0  0  0  0  0  0  0  0  0  0
    7.7291  -15.3744   22.3256 C   0  0  0  0  0  0  0  0  0  0  0  0
    6.8556  -14.4404   21.9703 N   0  0  0  0  0  0  0  0  0  0  0  0
    7.3673  -13.7339   20.9243 C   0  0  0  0  0  0  0  0  0  0  0  0
    6.8714  -12.6630   20.2006 C   0  0  0  0  0  0  0  0  0  0  0  0
    7.6019  -12.0937   19.1678 C   0  0  0  0  0  0  0  0  0  0  0  0
    8.8539  -12.6346   18.8805 C   0  0  0  0  0  0  0  0  0  0  0  0
    9.3295  -13.6991   19.6103 C   0  0  0  0  0  0  0  0  0  0  0  0
    8.6077  -14.2753   20.6432 C   0  0  0  0  0  0  0  0  0  0  0  0
   11.4494  -17.8693   20.3511 C   0  0  0  0  0  0  0  0  0  0  0  0
   11.6529  -19.0578   20.7804 O   0  0  0  0  0  0  0  0  0  0  0  0
   12.5730  -17.2579   19.7253 N   0  0  0  0  0  0  0  0  0  0  0  0
   13.8948  -17.9265   19.7243 C   0  0  1  0  0  0  0  0  0  0  0  0
   14.7539  -17.2864   18.6664 C   0  0  0  0  0  0  0  0  0  0  0  0
   16.0348  -17.9024   18.3957 C   0  0  0  0  0  0  0  0  0  0  0  0
   16.3011  -19.0048   18.9875 O   0  0  0  0  0  0  0  0  0  0  0  0
   14.4544  -17.9064   21.0834 C   0  0  0  0  0  0  0  0  0  0  0  0
   15.6269  -17.4837   21.2457 O   0  0  0  0  0  0  0  0  0  0  0  0
   16.9875  -17.3665   17.5337 O   0  0  0  0  0  0  0  0  0  0  0  0
   14.1125  -19.6080   26.2420 N   0  0  0  0  0  0  0  0  0  0  0  0
   13.9412  -20.5252   25.1792 C   0  0  0  0  0  0  0  0  0  0  0  0
   14.2093  -21.7257   25.3677 O   0  0  0  0  0  0  0  0  0  0  0  0
   13.4418  -19.9885   23.8788 C   0  0  0  0  0  0  0  0  0  0  0  0
   14.3872  -18.8756   23.3993 C   0  0  2  0  0  0  0  0  0  0  0  0
   13.7476  -18.3304   22.2109 N   0  0  0  0  0  0  0  0  0  0  0  0
   15.7412  -19.3739   23.1881 C   0  0  0  0  0  0  0  0  0  0  0  0
   16.1430  -20.2677   22.2094 O   0  0  0  0  0  0  0  0  0  0  0  0
   16.6683  -18.9718   23.9567 O   0  0  0  0  0  0  0  0  0  0  0  0
  2  1  1  1
  2 13  1  0
  2  3  1  0
  3  4  1  0
  4 12  1  0
  4  5  2  0
  5  6  1  0
  7  6  1  0
  7  8  2  0
  9  8  1  0
 10  9  2  0
 11 12  2  0
 11 10  1  0
 12  7  1  0
 13 14  2  0
 15 16  1  0
 15 13  1  0
 17 18  1  0
 16 17  1  6
 18 19  2  0
 20 16  1  0
 20 21  2  0
 22 18  1  0
 23 24  1  0
 24 25  2  0
 24 26  1  0
 27 26  1  6
 27 28  1  0
 28 20  1  0
 29 27  1  0
 29 30  1  0
 31 29  2  0
M  END
$$$$
