WDN.pdb
     RDKit          3D

 31 32  0  0  1  0  0  0  0  0999 V2000
    6.7575  -17.1311   23.2499 N   0  0  0  0  0  0  0  0  0  0  0  0
    7.9766  -16.2980   23.3382 C   0  0  1  0  0  0  0  0  0  0  0  0
    8.2594  -15.9419   24.7527 C   0  0  0  0  0  0  0  0  0  0  0  0
    7.3317  -14.9927   25.3784 C   0  0  0  0  0  0  0  0  0  0  0  0
    6.1308  -15.3033   25.9853 C   0  0  0  0  0  0  0  0  0  0  0  0
    5.5337  -14.2007   26.4205 N   0  0  0  0  0  0  0  0  0  0  0  0
    6.3162  -13.1276   26.1185 C   0  0  0  0  0  0  0  0  0  0  0  0
    6.1615  -11.7730   26.3590 C   0  0  0  0  0  0  0  0  0  0  0  0
    7.1244  -10.8578   25.9595 C   0  0  0  0  0  0  0  0  0  0  0  0
    8.2553  -11.3452   25.3068 C   0  0  0  0  0  0  0  0  0  0  0  0
    8.3909  -12.6944   25.0762 C   0  0  0  0  0  0  0  0  0  0  0  0
    7.4350  -13.6168   25.4706 C   0  0  0  0  0  0  0  0  0  0  0  0
    9.0296  -17.0081   22.5980 C   0  0  0  0  0  0  0  0  0  0  0  0
    9.2302  -18.2640   22.7419 O   0  0  0  0  0  0  0  0  0  0  0  0
    9.9003  -16.3645   21.6729 N   0  0  0  0  0  0  0  0  0  0  0  0
   11.2844  -16.8525   21.4718 C   0  0  1  0  0  0  0  0  0  0  0  0
   11.9745  -15.9429   20.4904 C   0  0  0  0  0  0  0  0  0  0  0  0
   13.2305  -16.4013   19.9375 C   0  0  0  0  0  0  0  0  0  0  0  0
   13.6973  -17.5132   20.3645 O   0  0  0  0  0  0  0  0  0  0  0  0
   11.9495  -16.9884   22.7756 C   0  0  0  0  0  0  0  0  0  0  0  0
   12.1605  -15.9521   23.4549 O   0  0  0  0  0  0  0  0  0  0  0  0
   13.9549  -15.7053   18.9738 O   0  0  0  0  0  0  0  0  0  0  0  0
   14.0250  -18.9659   26.9783 N   0  0  0  0  0  0  0  0  0  0  0  0
   12.7210  -19.4703   26.7655 C   0  0  0  0  0  0  0  0  0  0  0  0
   12.1410  -20.0584   27.6962 O   0  0  0  0  0  0  0  0  0  0  0  0
   12.1124  -19.2622   25.4183 C   0  0  0  0  0  0  0  0  0  0  0  0
   13.0296  -18.3490   24.5893 C   0  0  2  0  0  0  0  0  0  0  0  0
   12.3582  -18.2145   23.3049 N   0  0  0  0  0  0  0  0  0  0  0  0
   14.3874  -18.8749   24.5149 C   0  0  0  0  0  0  0  0  0  0  0  0
   15.5576  -18.1358   24.5675 O   0  0  0  0  0  0  0  0  0  0  0  0
   14.5528  -20.1274   24.3890 O   0  0  0  0  0  0  0  0  0  0  0  0
  2  1  1  1
  2 13  1  0
  2  3  1  0
  3  4  1  0
  4 12  1  0
  4  5  2  0
  5  6  1  0
  7  6  1  0
  7  8  2  0
  9  8  1  0
 10  9  2  0
 11 12  2  0
 11 10  1  0
 12  7  1  0
 13 14  2  0
 15 16  1  0
 15 13  1  0
 17 18  1  0
 16 17  1  6
 18 19  2  0
 20 16  1  0
 20 21  2  0
 22 18  1  0
 23 24  1  0
 24 25  2  0
 24 26  1  0
 27 26  1  1
 27 28  1  0
 28 20  1  0
 29 27  1  0
 29 30  1  0
 31 29  2  0
M  END
$$$$
