WDN.pdb
     RDKit          3D

 31 32  0  0  1  0  0  0  0  0999 V2000
    8.4789  -16.4757   23.2368 N   0  0  0  0  0  0  0  0  0  0  0  0
    9.3654  -15.7693   24.1870 C   0  0  1  0  0  0  0  0  0  0  0  0
    8.7938  -15.8112   25.5579 C   0  0  0  0  0  0  0  0  0  0  0  0
    7.5540  -15.0543   25.7649 C   0  0  0  0  0  0  0  0  0  0  0  0
    6.2699  -15.5602   25.7166 C   0  0  0  0  0  0  0  0  0  0  0  0
    5.3839  -14.5937   25.9223 N   0  0  0  0  0  0  0  0  0  0  0  0
    6.0486  -13.4203   26.1136 C   0  0  0  0  0  0  0  0  0  0  0  0
    5.6021  -12.1362   26.3749 C   0  0  0  0  0  0  0  0  0  0  0  0
    6.4929  -11.0873   26.5497 C   0  0  0  0  0  0  0  0  0  0  0  0
    7.8550  -11.3669   26.4541 C   0  0  0  0  0  0  0  0  0  0  0  0
    8.2795  -12.6490   26.1933 C   0  0  0  0  0  0  0  0  0  0  0  0
    7.3981  -13.7034   26.0165 C   0  0  0  0  0  0  0  0  0  0  0  0
   10.7139  -16.3244   24.0013 C   0  0  0  0  0  0  0  0  0  0  0  0
   11.7261  -15.8753   24.6432 O   0  0  0  0  0  0  0  0  0  0  0  0
   10.9994  -17.3926   23.1039 N   0  0  0  0  0  0  0  0  0  0  0  0
   12.3971  -17.8096   22.8448 C   0  0  1  0  0  0  0  0  0  0  0  0
   12.9771  -16.9079   21.7877 C   0  0  0  0  0  0  0  0  0  0  0  0
   13.0527  -17.4338   20.4419 C   0  0  0  0  0  0  0  0  0  0  0  0
   13.6573  -16.7294   19.5616 O   0  0  0  0  0  0  0  0  0  0  0  0
   13.1394  -17.8475   24.1130 C   0  0  0  0  0  0  0  0  0  0  0  0
   13.4811  -16.7604   24.6434 O   0  0  0  0  0  0  0  0  0  0  0  0
   12.5083  -18.6548   20.0536 O   0  0  0  0  0  0  0  0  0  0  0  0
   10.4642  -20.3153   28.1030 N   0  0  0  0  0  0  0  0  0  0  0  0
   11.3814  -19.2824   27.7994 C   0  0  0  0  0  0  0  0  0  0  0  0
   11.8535  -18.6011   28.7275 O   0  0  0  0  0  0  0  0  0  0  0  0
   11.7316  -19.0712   26.3637 C   0  0  0  0  0  0  0  0  0  0  0  0
   13.2454  -19.2660   26.1828 C   0  0  2  0  0  0  0  0  0  0  0  0
   13.4838  -19.0331   24.7658 N   0  0  0  0  0  0  0  0  0  0  0  0
   13.6816  -20.5701   26.6676 C   0  0  0  0  0  0  0  0  0  0  0  0
   14.3958  -20.8169   27.8284 O   0  0  0  0  0  0  0  0  0  0  0  0
   13.3979  -21.6030   25.9859 O   0  0  0  0  0  0  0  0  0  0  0  0
  2  1  1  6
  2 13  1  0
  2  3  1  0
  3  4  1  0
  4 12  1  0
  4  5  2  0
  5  6  1  0
  7  6  1  0
  7  8  2  0
  9  8  1  0
 10  9  2  0
 11 12  2  0
 11 10  1  0
 12  7  1  0
 13 14  2  0
 15 16  1  0
 15 13  1  0
 17 18  1  0
 16 17  1  6
 18 19  2  0
 20 16  1  0
 20 21  2  0
 22 18  1  0
 23 24  1  0
 24 25  2  0
 24 26  1  0
 27 26  1  6
 27 28  1  0
 28 20  1  0
 29 27  1  0
 29 30  1  0
 31 29  2  0
M  END
$$$$
