RPL.pdb
     RDKit          3D

 27 27  0  0  1  0  0  0  0  0999 V2000
   16.1869  -22.0727  -15.6405 N   0  0  0  0  0  0  0  0  0  0  0  0
   16.5971  -21.7159  -14.3310 C   0  0  0  0  0  0  0  0  0  0  0  0
   15.9765  -22.1738  -13.3001 N   0  0  0  0  0  0  0  0  0  0  0  0
   17.7032  -20.8453  -14.1409 N   0  0  0  0  0  0  0  0  0  0  0  0
   18.4009  -20.2307  -15.2581 C   0  0  0  0  0  0  0  0  0  0  0  0
   19.0808  -21.3021  -16.1201 C   0  0  0  0  0  0  0  0  0  0  0  0
   20.4560  -21.5415  -15.5469 C   0  0  0  0  0  0  0  0  0  0  0  0
   21.2437  -22.5573  -16.3502 C   0  0  2  0  0  0  0  0  0  0  0  0
   20.6391  -23.8576  -16.3431 N   0  0  0  0  0  0  0  0  0  0  0  0
   22.6744  -22.5128  -16.0645 C   0  0  0  0  0  0  0  0  0  0  0  0
   23.0885  -23.2978  -15.1530 O   0  0  0  0  0  0  0  0  0  0  0  0
   16.2804  -21.9293  -12.3474 N   0  0  0  0  0  0  0  0  0  0  0  0
   23.6496  -21.6821  -16.6993 C   0  0  0  0  0  0  0  0  0  0  0  0
   23.3957  -20.7432  -17.7464 C   0  0  0  0  0  0  0  0  0  0  0  0
   24.7234  -20.4861  -18.3994 C   0  0  0  0  0  0  0  0  0  0  0  0
   25.6979  -21.4671  -17.7329 C   0  0  1  0  0  0  0  0  0  0  0  0
   25.0618  -21.6378  -16.3945 C   0  0  0  0  0  0  0  0  0  0  0  0
   25.3990  -20.5932  -15.4082 O   0  0  0  0  0  0  0  0  0  0  0  0
   24.8160  -19.4843  -15.5201 C   0  0  0  0  0  0  0  0  0  0  0  0
   24.4609  -19.9034  -11.3750 C   0  0  2  0  0  0  0  0  0  0  0  0
   25.4797  -21.0304  -11.6037 C   0  0  0  0  0  0  0  0  0  0  0  0
   25.6402  -21.7173  -10.2505 C   0  0  0  0  0  0  0  0  0  0  0  0
   26.7423  -20.3707  -12.0498 C   0  0  2  0  0  0  0  0  0  0  0  0
   26.6844  -19.7197  -13.3969 N   0  0  0  0  0  0  0  0  0  0  0  0
   26.3253  -20.7500  -14.3536 C   0  0  0  0  0  0  0  0  0  0  0  0
   27.9742  -19.0755  -13.7671 O   0  0  0  0  0  0  0  0  0  0  0  0
   28.7886  -19.5995  -14.5877 O   0  0  0  0  0  0  0  0  0  0  0  0
  2  1  1  0
  3  2  2  0
  4  2  1  0
  5  6  1  0
  5  4  1  0
  6  7  1  0
  7  8  1  0
  8  9  1  1
 10  8  1  0
 11 10  2  0
 12 10  1  0
 12 16  1  0
 13 14  1  0
 13 12  1  0
 14 15  1  0
 15 16  1  0
 16 17  1  1
 17 18  2  0
 20 19  1  6
 20 22  1  0
 21 20  1  0
 23 22  1  1
 23 24  1  0
 24 17  1  0
 25 23  1  0
 25 27  1  0
 26 25  2  0
M  END
$$$$
