RPL.pdb
     RDKit          3D

 27 27  0  0  1  0  0  0  0  0999 V2000
   14.8563  -21.2324   -9.1477 N   0  0  0  0  0  0  0  0  0  0  0  0
   13.6848  -21.6321   -9.8391 C   0  0  0  0  0  0  0  0  0  0  0  0
   13.4629  -21.2318  -11.0424 N   0  0  0  0  0  0  0  0  0  0  0  0
   12.7384  -22.4834   -9.2090 N   0  0  0  0  0  0  0  0  0  0  0  0
   12.9284  -22.9784   -7.8556 C   0  0  0  0  0  0  0  0  0  0  0  0
   13.6601  -24.3264   -7.8757 C   0  0  0  0  0  0  0  0  0  0  0  0
   13.7349  -24.8244   -6.4531 C   0  0  0  0  0  0  0  0  0  0  0  0
   14.3762  -26.1945   -6.3576 C   0  0  2  0  0  0  0  0  0  0  0  0
   13.6814  -27.1856   -7.1267 N   0  0  0  0  0  0  0  0  0  0  0  0
   14.7106  -26.5644   -4.9859 C   0  0  0  0  0  0  0  0  0  0  0  0
   13.8612  -27.2908   -4.3784 O   0  0  0  0  0  0  0  0  0  0  0  0
   12.6536  -21.5794  -11.5753 N   0  0  0  0  0  0  0  0  0  0  0  0
   15.8863  -26.1948   -4.2611 C   0  0  0  0  0  0  0  0  0  0  0  0
   16.8960  -25.2883   -4.7096 C   0  0  0  0  0  0  0  0  0  0  0  0
   18.1118  -25.5826   -3.8785 C   0  0  0  0  0  0  0  0  0  0  0  0
   17.7426  -26.8185   -3.0464 C   0  0  1  0  0  0  0  0  0  0  0  0
   16.2621  -26.6651   -2.9470 C   0  0  0  0  0  0  0  0  0  0  0  0
   15.8010  -25.7696   -1.8684 O   0  0  0  0  0  0  0  0  0  0  0  0
   15.9434  -24.5325   -2.0452 C   0  0  0  0  0  0  0  0  0  0  0  0
   13.3467  -28.0603    0.0573 C   0  0  1  0  0  0  0  0  0  0  0  0
   13.0546  -27.0614    1.1874 C   0  0  0  0  0  0  0  0  0  0  0  0
   11.5948  -27.2908    1.5686 C   0  0  0  0  0  0  0  0  0  0  0  0
   13.2760  -25.7014    0.6132 C   0  0  1  0  0  0  0  0  0  0  0  0
   14.7076  -25.3277    0.3832 N   0  0  0  0  0  0  0  0  0  0  0  0
   15.2147  -26.2017   -0.6584 C   0  0  0  0  0  0  0  0  0  0  0  0
   15.5260  -25.4440    1.6211 O   0  0  0  0  0  0  0  0  0  0  0  0
   16.4269  -26.3267    1.7639 O   0  0  0  0  0  0  0  0  0  0  0  0
  2  1  1  0
  3  2  2  0
  4  2  1  0
  5  6  1  0
  5  4  1  0
  6  7  1  0
  7  8  1  0
  8  9  1  1
 10  8  1  0
 11 10  2  0
 12 10  1  0
 12 16  1  0
 13 14  1  0
 13 12  1  0
 14 15  1  0
 15 16  1  0
 16 17  1  1
 17 18  2  0
 20 19  1  1
 20 22  1  0
 21 20  1  0
 23 22  1  6
 23 24  1  0
 24 17  1  0
 25 23  1  0
 25 27  1  0
 26 25  2  0
M  END
$$$$
