RPL.pdb
     RDKit          3D

 27 27  0  0  1  0  0  0  0  0999 V2000
   15.2407  -22.0310   -0.6753 N   0  0  0  0  0  0  0  0  0  0  0  0
   15.1915  -21.5880    0.6708 C   0  0  0  0  0  0  0  0  0  0  0  0
   15.8237  -20.5282    1.0375 N   0  0  0  0  0  0  0  0  0  0  0  0
   14.4400  -22.3121    1.6343 N   0  0  0  0  0  0  0  0  0  0  0  0
   14.3282  -23.7608    1.5943 C   0  0  0  0  0  0  0  0  0  0  0  0
   15.7148  -24.4084    1.6986 C   0  0  0  0  0  0  0  0  0  0  0  0
   15.5157  -25.9034    1.7507 C   0  0  0  0  0  0  0  0  0  0  0  0
   16.8298  -26.6554    1.8203 C   0  0  2  0  0  0  0  0  0  0  0  0
   16.7232  -28.0019    1.3387 N   0  0  0  0  0  0  0  0  0  0  0  0
   17.5089  -26.4834    3.1009 C   0  0  0  0  0  0  0  0  0  0  0  0
   17.1641  -27.2814    4.0296 O   0  0  0  0  0  0  0  0  0  0  0  0
   15.8329  -20.2317    2.0233 N   0  0  0  0  0  0  0  0  0  0  0  0
   18.5135  -25.5158    3.4149 C   0  0  0  0  0  0  0  0  0  0  0  0
   19.0486  -24.5424    2.5158 C   0  0  0  0  0  0  0  0  0  0  0  0
   20.3559  -24.1060    3.1122 C   0  0  0  0  0  0  0  0  0  0  0  0
   20.5717  -25.0211    4.3256 C   0  0  2  0  0  0  0  0  0  0  0  0
   19.1630  -25.3442    4.6947 C   0  0  0  0  0  0  0  0  0  0  0  0
   18.4955  -24.3365    5.5414 O   0  0  0  0  0  0  0  0  0  0  0  0
   18.0425  -23.3115    4.9701 C   0  0  0  0  0  0  0  0  0  0  0  0
   14.8374  -24.3917    8.0471 C   0  0  2  0  0  0  0  0  0  0  0  0
   16.0432  -25.1826    8.5771 C   0  0  0  0  0  0  0  0  0  0  0  0
   15.5307  -25.9388    9.7995 C   0  0  0  0  0  0  0  0  0  0  0  0
   17.0815  -24.1728    8.9384 C   0  0  2  0  0  0  0  0  0  0  0  0
   17.6972  -23.4449    7.7839 N   0  0  0  0  0  0  0  0  0  0  0  0
   18.3309  -24.4412    6.9402 C   0  0  0  0  0  0  0  0  0  0  0  0
   18.6801  -22.4178    8.2251 O   0  0  0  0  0  0  0  0  0  0  0  0
   19.9345  -22.6023    8.1644 O   0  0  0  0  0  0  0  0  0  0  0  0
  2  1  1  0
  3  2  2  0
  4  2  1  0
  5  6  1  0
  5  4  1  0
  6  7  1  0
  7  8  1  0
  8  9  1  1
 10  8  1  0
 11 10  2  0
 12 10  1  0
 12 16  1  0
 13 14  1  0
 13 12  1  0
 14 15  1  0
 15 16  1  0
 16 17  1  1
 17 18  2  0
 20 19  1  6
 20 22  1  0
 21 20  1  0
 23 22  1  6
 23 24  1  0
 24 17  1  0
 25 23  1  0
 25 27  1  0
 26 25  2  0
M  END
$$$$
