RPL.pdb
     RDKit          3D

 27 27  0  0  1  0  0  0  0  0999 V2000
   20.5447  -19.9247  -15.5664 N   0  0  0  0  0  0  0  0  0  0  0  0
   20.2352  -19.8078  -14.1876 C   0  0  0  0  0  0  0  0  0  0  0  0
   19.0970  -20.2026  -13.7337 N   0  0  0  0  0  0  0  0  0  0  0  0
   21.1825  -19.2516  -13.2872 N   0  0  0  0  0  0  0  0  0  0  0  0
   22.4997  -18.8196  -13.7244 C   0  0  0  0  0  0  0  0  0  0  0  0
   23.3543  -20.0285  -14.1258 C   0  0  0  0  0  0  0  0  0  0  0  0
   24.0517  -20.5250  -12.8830 C   0  0  0  0  0  0  0  0  0  0  0  0
   24.9765  -21.6909  -13.1709 C   0  0  2  0  0  0  0  0  0  0  0  0
   24.2956  -22.8034  -13.7669 N   0  0  0  0  0  0  0  0  0  0  0  0
   25.8547  -22.0027  -12.0475 C   0  0  0  0  0  0  0  0  0  0  0  0
   25.4822  -22.9569  -11.2930 O   0  0  0  0  0  0  0  0  0  0  0  0
   18.8956  -20.1878  -12.7242 N   0  0  0  0  0  0  0  0  0  0  0  0
   27.0807  -21.3486  -11.7111 C   0  0  0  0  0  0  0  0  0  0  0  0
   27.6689  -20.2562  -12.4202 C   0  0  0  0  0  0  0  0  0  0  0  0
   29.1154  -20.2351  -12.0171 C   0  0  0  0  0  0  0  0  0  0  0  0
   29.3121  -21.4883  -11.1528 C   0  0  1  0  0  0  0  0  0  0  0  0
   27.9408  -21.6692  -10.5944 C   0  0  0  0  0  0  0  0  0  0  0  0
   27.6452  -20.8588   -9.3971 O   0  0  0  0  0  0  0  0  0  0  0  0
   27.2312  -19.6856   -9.5823 C   0  0  0  0  0  0  0  0  0  0  0  0
   28.9170  -19.1631   -4.5814 C   0  0  1  0  0  0  0  0  0  0  0  0
   28.1320  -20.4745   -4.4256 C   0  0  0  0  0  0  0  0  0  0  0  0
   28.8351  -21.2416   -3.3094 C   0  0  0  0  0  0  0  0  0  0  0  0
   28.2294  -21.1805   -5.7372 C   0  0  1  0  0  0  0  0  0  0  0  0
   27.5420  -20.5036   -6.8823 N   0  0  0  0  0  0  0  0  0  0  0  0
   27.7940  -21.3052   -8.0655 C   0  0  0  0  0  0  0  0  0  0  0  0
   28.0142  -19.1054   -7.0759 O   0  0  0  0  0  0  0  0  0  0  0  0
   29.1585  -18.8306   -7.5517 O   0  0  0  0  0  0  0  0  0  0  0  0
  2  1  1  0
  3  2  2  0
  4  2  1  0
  5  6  1  0
  5  4  1  0
  6  7  1  0
  7  8  1  0
  8  9  1  1
 10  8  1  0
 11 10  2  0
 12 10  1  0
 12 16  1  0
 13 14  1  0
 13 12  1  0
 14 15  1  0
 15 16  1  0
 16 17  1  1
 17 18  2  0
 20 19  1  1
 20 22  1  0
 21 20  1  0
 23 22  1  1
 23 24  1  0
 24 17  1  0
 25 23  1  0
 25 27  1  0
 26 25  2  0
M  END
$$$$
