RPL.pdb
     RDKit          3D

 27 27  0  0  1  0  0  0  0  0999 V2000
   22.5484  -16.4906  -16.7251 N   0  0  0  0  0  0  0  0  0  0  0  0
   21.8538  -17.6881  -17.0317 C   0  0  0  0  0  0  0  0  0  0  0  0
   20.6857  -17.6505  -17.5717 N   0  0  0  0  0  0  0  0  0  0  0  0
   22.4421  -18.9488  -16.7455 N   0  0  0  0  0  0  0  0  0  0  0  0
   23.7921  -19.0676  -16.2200 C   0  0  0  0  0  0  0  0  0  0  0  0
   24.8226  -18.8109  -17.3270 C   0  0  0  0  0  0  0  0  0  0  0  0
   26.1924  -19.0269  -16.7319 C   0  0  0  0  0  0  0  0  0  0  0  0
   26.5179  -20.4972  -16.5594 C   0  0  2  0  0  0  0  0  0  0  0  0
   26.2591  -21.2640  -17.7432 N   0  0  0  0  0  0  0  0  0  0  0  0
   25.9954  -21.0461  -15.3119 C   0  0  0  0  0  0  0  0  0  0  0  0
   25.1270  -21.9687  -15.4259 O   0  0  0  0  0  0  0  0  0  0  0  0
   20.1996  -18.5167  -17.8427 N   0  0  0  0  0  0  0  0  0  0  0  0
   26.3569  -20.6540  -13.9854 C   0  0  0  0  0  0  0  0  0  0  0  0
   27.3778  -19.7162  -13.6384 C   0  0  0  0  0  0  0  0  0  0  0  0
   27.7147  -19.9879  -12.2003 C   0  0  0  0  0  0  0  0  0  0  0  0
   26.9128  -21.2426  -11.8278 C   0  0  2  0  0  0  0  0  0  0  0  0
   25.7542  -21.1294  -12.7606 C   0  0  0  0  0  0  0  0  0  0  0  0
   24.6596  -20.2589  -12.2895 O   0  0  0  0  0  0  0  0  0  0  0  0
   24.6844  -19.0543  -12.6504 C   0  0  0  0  0  0  0  0  0  0  0  0
   21.6544  -21.5045  -14.7236 C   0  0  1  0  0  0  0  0  0  0  0  0
   21.3862  -21.5102  -13.2109 C   0  0  0  0  0  0  0  0  0  0  0  0
   19.9147  -21.8846  -13.0581 C   0  0  0  0  0  0  0  0  0  0  0  0
   21.6639  -20.1246  -12.7300 C   0  0  1  0  0  0  0  0  0  0  0  0
   22.2983  -20.0305  -11.3770 N   0  0  0  0  0  0  0  0  0  0  0  0
   23.5924  -20.6809  -11.4662 C   0  0  0  0  0  0  0  0  0  0  0  0
   21.4603  -20.6553  -10.3173 O   0  0  0  0  0  0  0  0  0  0  0  0
   21.7524  -21.7695   -9.7838 O   0  0  0  0  0  0  0  0  0  0  0  0
  2  1  1  0
  3  2  2  0
  4  2  1  0
  5  6  1  0
  5  4  1  0
  6  7  1  0
  7  8  1  0
  8  9  1  6
 10  8  1  0
 11 10  2  0
 12 10  1  0
 12 16  1  0
 13 14  1  0
 13 12  1  0
 14 15  1  0
 15 16  1  0
 16 17  1  1
 17 18  2  0
 20 19  1  1
 20 22  1  0
 21 20  1  0
 23 22  1  6
 23 24  1  0
 24 17  1  0
 25 23  1  0
 25 27  1  0
 26 25  2  0
M  END
$$$$
