RPL.pdb
     RDKit          3D

 27 27  0  0  1  0  0  0  0  0999 V2000
   19.1069  -19.9903  -13.8360 N   0  0  0  0  0  0  0  0  0  0  0  0
   19.3520  -21.3314  -13.4462 C   0  0  0  0  0  0  0  0  0  0  0  0
   18.4658  -22.2448  -13.6409 N   0  0  0  0  0  0  0  0  0  0  0  0
   20.5842  -21.6839  -12.8340 N   0  0  0  0  0  0  0  0  0  0  0  0
   21.6431  -20.7119  -12.6180 C   0  0  0  0  0  0  0  0  0  0  0  0
   22.6759  -20.7841  -13.7499 C   0  0  0  0  0  0  0  0  0  0  0  0
   23.3271  -22.1439  -13.6850 C   0  0  0  0  0  0  0  0  0  0  0  0
   24.6832  -22.1636  -14.3619 C   0  0  2  0  0  0  0  0  0  0  0  0
   24.7863  -23.1834  -15.3649 N   0  0  0  0  0  0  0  0  0  0  0  0
   25.7876  -22.0845  -13.4108 C   0  0  0  0  0  0  0  0  0  0  0  0
   26.1075  -23.1712  -12.8320 O   0  0  0  0  0  0  0  0  0  0  0  0
   18.6313  -23.2156  -13.3406 N   0  0  0  0  0  0  0  0  0  0  0  0
   26.5392  -20.9184  -13.0656 C   0  0  0  0  0  0  0  0  0  0  0  0
   26.3625  -19.6135  -13.6209 C   0  0  0  0  0  0  0  0  0  0  0  0
   27.6356  -18.8694  -13.3367 C   0  0  0  0  0  0  0  0  0  0  0  0
   28.5815  -19.9086  -12.7191 C   0  0  1  0  0  0  0  0  0  0  0  0
   27.6059  -20.8474  -12.0928 C   0  0  0  0  0  0  0  0  0  0  0  0
   27.1301  -20.4476  -10.7543 O   0  0  0  0  0  0  0  0  0  0  0  0
   25.9258  -20.1001  -10.6501 C   0  0  0  0  0  0  0  0  0  0  0  0
   29.0716  -18.5942   -5.6730 C   0  0  1  0  0  0  0  0  0  0  0  0
   27.9779  -19.5854   -6.0991 C   0  0  0  0  0  0  0  0  0  0  0  0
   27.7826  -20.5164   -4.9058 C   0  0  0  0  0  0  0  0  0  0  0  0
   28.5085  -20.3086   -7.2922 C   0  0  1  0  0  0  0  0  0  0  0  0
   27.4743  -20.7945   -8.2599 N   0  0  0  0  0  0  0  0  0  0  0  0
   27.9275  -20.4276   -9.5888 C   0  0  0  0  0  0  0  0  0  0  0  0
   26.1285  -20.2236   -7.9798 O   0  0  0  0  0  0  0  0  0  0  0  0
   25.8019  -19.0453   -8.3207 O   0  0  0  0  0  0  0  0  0  0  0  0
  2  1  1  0
  3  2  2  0
  4  2  1  0
  5  6  1  0
  5  4  1  0
  6  7  1  0
  7  8  1  0
  8  9  1  1
 10  8  1  0
 11 10  2  0
 12 10  1  0
 12 16  1  0
 13 14  1  0
 13 12  1  0
 14 15  1  0
 15 16  1  0
 16 17  1  1
 17 18  2  0
 20 19  1  1
 20 22  1  0
 21 20  1  0
 23 22  1  6
 23 24  1  0
 24 17  1  0
 25 23  1  0
 25 27  1  0
 26 25  2  0
M  END
$$$$
