RPL.pdb
     RDKit          3D

 27 27  0  0  1  0  0  0  0  0999 V2000
   23.0625  -26.9332  -12.3855 N   0  0  0  0  0  0  0  0  0  0  0  0
   22.0842  -25.9405  -12.6461 C   0  0  0  0  0  0  0  0  0  0  0  0
   20.9275  -25.9939  -12.0834 N   0  0  0  0  0  0  0  0  0  0  0  0
   22.3710  -24.8705  -13.5351 N   0  0  0  0  0  0  0  0  0  0  0  0
   23.6637  -24.7348  -14.1859 C   0  0  0  0  0  0  0  0  0  0  0  0
   24.6424  -23.9762  -13.2806 C   0  0  0  0  0  0  0  0  0  0  0  0
   24.4634  -22.5025  -13.5516 C   0  0  0  0  0  0  0  0  0  0  0  0
   25.4648  -21.6538  -12.7937 C   0  0  2  0  0  0  0  0  0  0  0  0
   25.4347  -21.8923  -11.3800 N   0  0  0  0  0  0  0  0  0  0  0  0
   25.4447  -20.2547  -13.2094 C   0  0  0  0  0  0  0  0  0  0  0  0
   24.6643  -19.4884  -12.5599 O   0  0  0  0  0  0  0  0  0  0  0  0
   20.2287  -25.2539  -12.2385 N   0  0  0  0  0  0  0  0  0  0  0  0
   26.2063  -19.6635  -14.2650 C   0  0  0  0  0  0  0  0  0  0  0  0
   27.1125  -20.3509  -15.1303 C   0  0  0  0  0  0  0  0  0  0  0  0
   28.0032  -19.2938  -15.7170 C   0  0  0  0  0  0  0  0  0  0  0  0
   27.6187  -17.9951  -14.9945 C   0  0  1  0  0  0  0  0  0  0  0  0
   26.1937  -18.2703  -14.6499 C   0  0  0  0  0  0  0  0  0  0  0  0
   25.2273  -17.9863  -15.7285 O   0  0  0  0  0  0  0  0  0  0  0  0
   25.0404  -18.8861  -16.5873 C   0  0  0  0  0  0  0  0  0  0  0  0
   20.8749  -17.5352  -15.6709 C   0  0  2  0  0  0  0  0  0  0  0  0
   21.6856  -16.3927  -15.0402 C   0  0  0  0  0  0  0  0  0  0  0  0
   20.6573  -15.4751  -14.3850 C   0  0  0  0  0  0  0  0  0  0  0  0
   22.4032  -15.7182  -16.1620 C   0  0  2  0  0  0  0  0  0  0  0  0
   23.4542  -16.5426  -16.8386 N   0  0  0  0  0  0  0  0  0  0  0  0
   24.5021  -16.7820  -15.8637 C   0  0  0  0  0  0  0  0  0  0  0  0
   23.9987  -15.8752  -18.0526 O   0  0  0  0  0  0  0  0  0  0  0  0
   25.1287  -15.2971  -18.0654 O   0  0  0  0  0  0  0  0  0  0  0  0
  2  1  1  0
  3  2  2  0
  4  2  1  0
  5  6  1  0
  5  4  1  0
  6  7  1  0
  7  8  1  0
  8  9  1  1
 10  8  1  0
 11 10  2  0
 12 10  1  0
 12 16  1  0
 13 14  1  0
 13 12  1  0
 14 15  1  0
 15 16  1  0
 16 17  1  6
 17 18  2  0
 20 19  1  1
 20 22  1  0
 21 20  1  0
 23 22  1  1
 23 24  1  0
 24 17  1  0
 25 23  1  0
 25 27  1  0
 26 25  2  0
M  END
$$$$
