RPL.pdb
     RDKit          3D

 27 27  0  0  1  0  0  0  0  0999 V2000
   22.7778  -25.5766  -15.7699 N   0  0  0  0  0  0  0  0  0  0  0  0
   23.2996  -25.9686  -14.5111 C   0  0  0  0  0  0  0  0  0  0  0  0
   22.6446  -26.7746  -13.7503 N   0  0  0  0  0  0  0  0  0  0  0  0
   24.5572  -25.4744  -14.0736 N   0  0  0  0  0  0  0  0  0  0  0  0
   25.2116  -24.3504  -14.7227 C   0  0  0  0  0  0  0  0  0  0  0  0
   24.3549  -23.0844  -14.5943 C   0  0  0  0  0  0  0  0  0  0  0  0
   25.2728  -21.8967  -14.7491 C   0  0  0  0  0  0  0  0  0  0  0  0
   25.4064  -21.1033  -13.4646 C   0  0  2  0  0  0  0  0  0  0  0  0
   24.6825  -21.6894  -12.3742 N   0  0  0  0  0  0  0  0  0  0  0  0
   25.2146  -19.6705  -13.6661 C   0  0  0  0  0  0  0  0  0  0  0  0
   24.2290  -19.1458  -13.0564 O   0  0  0  0  0  0  0  0  0  0  0  0
   23.0355  -27.0892  -12.8514 N   0  0  0  0  0  0  0  0  0  0  0  0
   26.0150  -18.8041  -14.4741 C   0  0  0  0  0  0  0  0  0  0  0  0
   27.1914  -19.1798  -15.1933 C   0  0  0  0  0  0  0  0  0  0  0  0
   27.9293  -17.9019  -15.4717 C   0  0  0  0  0  0  0  0  0  0  0  0
   27.1495  -16.8135  -14.7210 C   0  0  1  0  0  0  0  0  0  0  0  0
   25.7773  -17.3985  -14.7128 C   0  0  0  0  0  0  0  0  0  0  0  0
   24.9900  -17.1540  -15.9368 O   0  0  0  0  0  0  0  0  0  0  0  0
   24.7748  -18.1378  -16.6904 C   0  0  0  0  0  0  0  0  0  0  0  0
   21.4141  -17.5529  -17.1676 C   0  0  2  0  0  0  0  0  0  0  0  0
   21.4404  -17.3021  -15.6521 C   0  0  0  0  0  0  0  0  0  0  0  0
   19.9848  -17.0850  -15.2484 C   0  0  0  0  0  0  0  0  0  0  0  0
   22.2676  -16.0771  -15.4436 C   0  0  2  0  0  0  0  0  0  0  0  0
   23.0712  -15.6369  -16.6278 N   0  0  0  0  0  0  0  0  0  0  0  0
   24.4647  -15.9002  -16.3196 C   0  0  0  0  0  0  0  0  0  0  0  0
   22.8594  -14.1991  -16.9492 O   0  0  0  0  0  0  0  0  0  0  0  0
   23.4454  -13.2651  -16.3203 O   0  0  0  0  0  0  0  0  0  0  0  0
  2  1  1  0
  3  2  2  0
  4  2  1  0
  5  6  1  0
  5  4  1  0
  6  7  1  0
  7  8  1  0
  8  9  1  1
 10  8  1  0
 11 10  2  0
 12 10  1  0
 12 16  1  0
 13 14  1  0
 13 12  1  0
 14 15  1  0
 15 16  1  0
 16 17  1  6
 17 18  2  0
 20 19  1  1
 20 22  1  0
 21 20  1  0
 23 22  1  6
 23 24  1  0
 24 17  1  0
 25 23  1  0
 25 27  1  0
 26 25  2  0
M  END
$$$$
