RPL.pdb
     RDKit          3D

 27 27  0  0  1  0  0  0  0  0999 V2000
   19.9824  -20.3293  -16.1834 N   0  0  0  0  0  0  0  0  0  0  0  0
   21.2933  -20.2905  -16.7225 C   0  0  0  0  0  0  0  0  0  0  0  0
   21.6655  -21.1477  -17.6080 N   0  0  0  0  0  0  0  0  0  0  0  0
   22.2149  -19.3002  -16.2897 N   0  0  0  0  0  0  0  0  0  0  0  0
   22.8162  -19.3328  -14.9668 C   0  0  0  0  0  0  0  0  0  0  0  0
   21.9419  -18.5722  -13.9617 C   0  0  0  0  0  0  0  0  0  0  0  0
   22.5761  -18.7243  -12.6009 C   0  0  0  0  0  0  0  0  0  0  0  0
   22.4211  -20.1275  -12.0491 C   0  0  2  0  0  0  0  0  0  0  0  0
   21.0683  -20.4319  -11.6831 N   0  0  0  0  0  0  0  0  0  0  0  0
   23.4436  -20.4597  -11.0619 C   0  0  0  0  0  0  0  0  0  0  0  0
   23.1008  -20.3506   -9.8417 O   0  0  0  0  0  0  0  0  0  0  0  0
   22.6221  -21.1347  -17.9882 N   0  0  0  0  0  0  0  0  0  0  0  0
   24.7811  -20.8904  -11.3254 C   0  0  0  0  0  0  0  0  0  0  0  0
   25.4500  -20.8212  -12.5863 C   0  0  0  0  0  0  0  0  0  0  0  0
   26.5913  -21.7935  -12.5007 C   0  0  0  0  0  0  0  0  0  0  0  0
   26.4095  -22.5122  -11.1566 C   0  0  1  0  0  0  0  0  0  0  0  0
   25.6968  -21.4665  -10.3668 C   0  0  0  0  0  0  0  0  0  0  0  0
   26.5719  -20.4582   -9.7381 O   0  0  0  0  0  0  0  0  0  0  0  0
   26.8702  -19.4459  -10.4226 C   0  0  0  0  0  0  0  0  0  0  0  0
   27.6352  -18.2358   -5.7437 C   0  0  1  0  0  0  0  0  0  0  0  0
   27.4492  -19.7601   -5.6955 C   0  0  0  0  0  0  0  0  0  0  0  0
   27.6119  -20.1455   -4.2279 C   0  0  0  0  0  0  0  0  0  0  0  0
   28.5266  -20.3416   -6.5496 C   0  0  2  0  0  0  0  0  0  0  0  0
   28.4003  -20.0675   -8.0162 N   0  0  0  0  0  0  0  0  0  0  0  0
   27.0954  -20.5495   -8.4296 C   0  0  0  0  0  0  0  0  0  0  0  0
   29.4824  -20.7166   -8.8057 O   0  0  0  0  0  0  0  0  0  0  0  0
   30.6128  -20.1703   -8.9933 O   0  0  0  0  0  0  0  0  0  0  0  0
  2  1  1  0
  3  2  2  0
  4  2  1  0
  5  6  1  0
  5  4  1  0
  6  7  1  0
  7  8  1  0
  8  9  1  1
 10  8  1  0
 11 10  2  0
 12 10  1  0
 12 16  1  0
 13 14  1  0
 13 12  1  0
 14 15  1  0
 15 16  1  0
 16 17  1  1
 17 18  2  0
 20 19  1  1
 20 22  1  0
 21 20  1  0
 23 22  1  1
 23 24  1  0
 24 17  1  0
 25 23  1  0
 25 27  1  0
 26 25  2  0
M  END
$$$$
