RFF.pdb
     RDKit          3D

 34 35  0  0  1  0  0  0  0  0999 V2000
    7.6431  -22.4367   17.8386 N   0  0  0  0  0  0  0  0  0  0  0  0
    8.9894  -22.2969   18.2904 C   0  0  0  0  0  0  0  0  0  0  0  0
    9.8452  -23.2100   18.0322 N   0  0  0  0  0  0  0  0  0  0  0  0
    9.4096  -21.1555   19.0294 N   0  0  0  0  0  0  0  0  0  0  0  0
    8.5154  -20.0985   19.4285 C   0  0  0  0  0  0  0  0  0  0  0  0
    9.2620  -18.9800   20.1055 C   0  0  0  0  0  0  0  0  0  0  0  0
    8.3430  -17.8496   20.5152 C   0  0  0  0  0  0  0  0  0  0  0  0
    8.9282  -16.5049   20.1522 C   0  0  2  0  0  0  0  0  0  0  0  0
   10.1503  -16.6028   19.4187 N   0  0  0  0  0  0  0  0  0  0  0  0
    9.1053  -15.7412   21.4331 C   0  0  0  0  0  0  0  0  0  0  0  0
   10.1989  -15.7739   22.0519 O   0  0  0  0  0  0  0  0  0  0  0  0
   10.8078  -23.1414   18.3910 N   0  0  0  0  0  0  0  0  0  0  0  0
    8.0586  -14.9625   21.9884 C   0  0  1  0  0  0  0  0  0  0  0  0
    8.1521  -14.2551   23.2431 C   0  0  0  0  0  0  0  0  0  0  0  0
    6.8946  -13.4683   23.5468 C   0  0  0  0  0  0  0  0  0  0  0  0
    6.9834  -12.7393   24.8373 C   0  0  0  0  0  0  0  0  0  0  0  0
    6.2062  -13.1199   25.9292 C   0  0  0  0  0  0  0  0  0  0  0  0
    6.2765  -12.4551   27.1317 C   0  0  0  0  0  0  0  0  0  0  0  0
    7.1118  -11.3895   27.3130 C   0  0  0  0  0  0  0  0  0  0  0  0
    7.8948  -10.9918   26.2422 C   0  0  0  0  0  0  0  0  0  0  0  0
    7.8225  -11.6633   25.0307 C   0  0  0  0  0  0  0  0  0  0  0  0
    8.3582  -15.1979   24.3673 O   0  0  0  0  0  0  0  0  0  0  0  0
    7.6701  -16.2433   24.4112 N   0  0  0  0  0  0  0  0  0  0  0  0
    9.2993  -14.9768   25.4019 C   0  0  1  0  0  0  0  0  0  0  0  0
    9.5973  -15.9827   26.4311 C   0  0  0  0  0  0  0  0  0  0  0  0
   10.1566  -17.1709   25.7184 C   0  0  0  0  0  0  0  0  0  0  0  0
   10.6305  -18.2500   26.5792 C   0  0  0  0  0  0  0  0  0  0  0  0
   11.1938  -19.3728   26.0083 C   0  0  0  0  0  0  0  0  0  0  0  0
   11.6652  -20.4363   26.7799 C   0  0  0  0  0  0  0  0  0  0  0  0
   11.5675  -20.3683   28.1593 C   0  0  0  0  0  0  0  0  0  0  0  0
   11.0082  -19.2556   28.7465 C   0  0  0  0  0  0  0  0  0  0  0  0
   10.5419  -18.2008   27.9536 C   0  0  0  0  0  0  0  0  0  0  0  0
   10.5056  -15.3549   27.3914 O   0  0  0  0  0  0  0  0  0  0  0  0
   11.6378  -14.6184   27.0320 O   0  0  0  0  0  0  0  0  0  0  0  0
  2  3  2  0
  2  1  1  0
  4  2  1  0
  5  4  1  0
  6  7  1  0
  6  5  1  0
  8  9  1  1
  8  7  1  0
 10 12  1  0
 10  8  1  0
 11 10  2  0
 13 21  1  0
 13 14  1  1
 13 12  1  0
 15 16  2  0
 15 14  1  0
 17 16  1  0
 18 17  2  0
 19 18  1  0
 19 20  2  0
 20 15  1  0
 21 23  1  0
 22 21  2  0
 23 24  1  0
 24 25  1  1
 25 26  1  0
 26 27  2  0
 26 31  1  0
 27 28  1  0
 28 29  2  0
 30 29  1  0
 31 30  2  0
 32 33  1  0
 32 24  1  0
 34 32  2  0
M  END
$$$$
