RFF.pdb
     RDKit          3D

 34 35  0  0  1  0  0  0  0  0999 V2000
    7.6522  -17.9430   17.0789 N   0  0  0  0  0  0  0  0  0  0  0  0
    8.7184  -18.4498   17.8806 C   0  0  0  0  0  0  0  0  0  0  0  0
    9.8414  -18.7327   17.3406 N   0  0  0  0  0  0  0  0  0  0  0  0
    8.5630  -18.6513   19.2809 N   0  0  0  0  0  0  0  0  0  0  0  0
    7.3680  -18.2964   20.0033 C   0  0  0  0  0  0  0  0  0  0  0  0
    6.3472  -19.4016   19.9437 C   0  0  0  0  0  0  0  0  0  0  0  0
    5.0539  -19.0181   20.6296 C   0  0  0  0  0  0  0  0  0  0  0  0
    5.1551  -19.1832   22.1279 C   0  0  2  0  0  0  0  0  0  0  0  0
    3.9524  -19.6747   22.7222 N   0  0  0  0  0  0  0  0  0  0  0  0
    5.5523  -17.8494   22.6924 C   0  0  0  0  0  0  0  0  0  0  0  0
    5.3948  -16.7980   22.0219 O   0  0  0  0  0  0  0  0  0  0  0  0
   10.6302  -19.0606   17.9153 N   0  0  0  0  0  0  0  0  0  0  0  0
    6.1139  -17.7250   23.9883 C   0  0  1  0  0  0  0  0  0  0  0  0
    6.6862  -16.5070   24.5105 C   0  0  0  0  0  0  0  0  0  0  0  0
    6.5349  -16.4072   26.0137 C   0  0  0  0  0  0  0  0  0  0  0  0
    6.9032  -15.0645   26.5296 C   0  0  0  0  0  0  0  0  0  0  0  0
    8.1841  -14.8111   27.0156 C   0  0  0  0  0  0  0  0  0  0  0  0
    8.5414  -13.5728   27.4971 C   0  0  0  0  0  0  0  0  0  0  0  0
    7.6573  -12.5317   27.5218 C   0  0  0  0  0  0  0  0  0  0  0  0
    6.3774  -12.7585   27.0439 C   0  0  0  0  0  0  0  0  0  0  0  0
    6.0192  -14.0077   26.5589 C   0  0  0  0  0  0  0  0  0  0  0  0
    8.1357  -16.4342   24.2128 O   0  0  0  0  0  0  0  0  0  0  0  0
    8.8405  -17.4532   24.3948 N   0  0  0  0  0  0  0  0  0  0  0  0
    8.7700  -15.2641   23.7298 C   0  0  1  0  0  0  0  0  0  0  0  0
   10.1179  -15.2770   23.1440 C   0  0  0  0  0  0  0  0  0  0  0  0
   10.2627  -14.0034   22.3764 C   0  0  0  0  0  0  0  0  0  0  0  0
    9.2210  -13.7484   21.3865 C   0  0  0  0  0  0  0  0  0  0  0  0
    9.1796  -14.5101   20.2368 C   0  0  0  0  0  0  0  0  0  0  0  0
    8.2070  -14.3132   19.2549 C   0  0  0  0  0  0  0  0  0  0  0  0
    7.2531  -13.3259   19.4344 C   0  0  0  0  0  0  0  0  0  0  0  0
    7.2789  -12.5560   20.5755 C   0  0  0  0  0  0  0  0  0  0  0  0
    8.2632  -12.7707   21.5471 C   0  0  0  0  0  0  0  0  0  0  0  0
   11.0623  -15.4423   24.2495 O   0  0  0  0  0  0  0  0  0  0  0  0
   10.6848  -15.5714   25.5889 O   0  0  0  0  0  0  0  0  0  0  0  0
  2  3  2  0
  2  1  1  0
  4  2  1  0
  5  4  1  0
  6  7  1  0
  6  5  1  0
  8  9  1  1
  8  7  1  0
 10 12  1  0
 10  8  1  0
 11 10  2  0
 13 21  1  0
 13 14  1  1
 13 12  1  0
 15 16  2  0
 15 14  1  0
 17 16  1  0
 18 17  2  0
 19 18  1  0
 19 20  2  0
 20 15  1  0
 21 23  1  0
 22 21  2  0
 23 24  1  0
 24 25  1  6
 25 26  1  0
 26 27  2  0
 26 31  1  0
 27 28  1  0
 28 29  2  0
 30 29  1  0
 31 30  2  0
 32 33  1  0
 32 24  1  0
 34 32  2  0
M  END
$$$$
