RFF.pdb
     RDKit          3D

 34 35  0  0  1  0  0  0  0  0999 V2000
    7.0260  -20.6303   17.1618 N   0  0  0  0  0  0  0  0  0  0  0  0
    7.5051  -21.5900   18.1029 C   0  0  0  0  0  0  0  0  0  0  0  0
    6.6755  -22.2574   18.8094 N   0  0  0  0  0  0  0  0  0  0  0  0
    8.8976  -21.8265   18.2783 N   0  0  0  0  0  0  0  0  0  0  0  0
    9.8486  -20.7805   18.5569 C   0  0  0  0  0  0  0  0  0  0  0  0
    9.2601  -19.7386   19.4707 C   0  0  0  0  0  0  0  0  0  0  0  0
   10.2770  -18.6898   19.8659 C   0  0  0  0  0  0  0  0  0  0  0  0
    9.9100  -17.3318   19.3151 C   0  0  2  0  0  0  0  0  0  0  0  0
   10.8212  -16.8637   18.3191 N   0  0  0  0  0  0  0  0  0  0  0  0
    9.8269  -16.3906   20.4825 C   0  0  0  0  0  0  0  0  0  0  0  0
   10.8672  -15.8769   20.9659 O   0  0  0  0  0  0  0  0  0  0  0  0
    7.0082  -22.9759   19.4674 N   0  0  0  0  0  0  0  0  0  0  0  0
    8.5866  -16.0485   21.0783 C   0  0  2  0  0  0  0  0  0  0  0  0
    8.4501  -15.1914   22.2316 C   0  0  0  0  0  0  0  0  0  0  0  0
    7.0114  -14.7839   22.4695 C   0  0  0  0  0  0  0  0  0  0  0  0
    6.8773  -13.8129   23.5848 C   0  0  0  0  0  0  0  0  0  0  0  0
    7.2158  -12.4726   23.4114 C   0  0  0  0  0  0  0  0  0  0  0  0
    7.0974  -11.5603   24.4345 C   0  0  0  0  0  0  0  0  0  0  0  0
    6.6423  -11.9247   25.6698 C   0  0  0  0  0  0  0  0  0  0  0  0
    6.2993  -13.2519   25.8672 C   0  0  0  0  0  0  0  0  0  0  0  0
    6.4193  -14.1701   24.8346 C   0  0  0  0  0  0  0  0  0  0  0  0
    8.9170  -15.8781   23.4586 O   0  0  0  0  0  0  0  0  0  0  0  0
    8.7539  -17.1159   23.5558 N   0  0  0  0  0  0  0  0  0  0  0  0
    9.5423  -15.2028   24.5346 C   0  0  1  0  0  0  0  0  0  0  0  0
    9.9458  -15.8854   25.7720 C   0  0  0  0  0  0  0  0  0  0  0  0
   10.2600  -14.8163   26.7672 C   0  0  0  0  0  0  0  0  0  0  0  0
   10.5844  -15.2879   28.1098 C   0  0  0  0  0  0  0  0  0  0  0  0
   10.1293  -14.5805   29.2035 C   0  0  0  0  0  0  0  0  0  0  0  0
   10.4069  -14.9830   30.5111 C   0  0  0  0  0  0  0  0  0  0  0  0
   11.1607  -16.1248   30.7230 C   0  0  0  0  0  0  0  0  0  0  0  0
   11.6233  -16.8433   29.6436 C   0  0  0  0  0  0  0  0  0  0  0  0
   11.3330  -16.4216   28.3410 C   0  0  0  0  0  0  0  0  0  0  0  0
    8.8457  -16.7743   26.1475 O   0  0  0  0  0  0  0  0  0  0  0  0
    9.0205  -18.0460   26.7003 O   0  0  0  0  0  0  0  0  0  0  0  0
  2  3  2  0
  2  1  1  0
  4  2  1  0
  5  4  1  0
  6  7  1  0
  6  5  1  0
  8  9  1  6
  8  7  1  0
 10 12  1  0
 10  8  1  0
 11 10  2  0
 13 21  1  0
 13 14  1  6
 13 12  1  0
 15 16  2  0
 15 14  1  0
 17 16  1  0
 18 17  2  0
 19 18  1  0
 19 20  2  0
 20 15  1  0
 21 23  1  0
 22 21  2  0
 23 24  1  0
 24 25  1  1
 25 26  1  0
 26 27  2  0
 26 31  1  0
 27 28  1  0
 28 29  2  0
 30 29  1  0
 31 30  2  0
 32 33  1  0
 32 24  1  0
 34 32  2  0
M  END
$$$$
