RFF.pdb
     RDKit          3D

 34 35  0  0  1  0  0  0  0  0999 V2000
   15.6909  -20.0157   18.5888 N   0  0  0  0  0  0  0  0  0  0  0  0
   15.2283  -19.5812   17.3107 C   0  0  0  0  0  0  0  0  0  0  0  0
   15.8037  -20.0003   16.2496 N   0  0  0  0  0  0  0  0  0  0  0  0
   14.1313  -18.6833   17.1845 N   0  0  0  0  0  0  0  0  0  0  0  0
   13.4670  -18.0824   18.3131 C   0  0  0  0  0  0  0  0  0  0  0  0
   12.4066  -18.9947   18.8699 C   0  0  0  0  0  0  0  0  0  0  0  0
   11.8382  -18.4763   20.1731 C   0  0  0  0  0  0  0  0  0  0  0  0
   10.5311  -17.7512   19.9541 C   0  0  2  0  0  0  0  0  0  0  0  0
   10.5005  -17.0014   18.7384 N   0  0  0  0  0  0  0  0  0  0  0  0
   10.3053  -16.8777   21.1548 C   0  0  0  0  0  0  0  0  0  0  0  0
   11.1972  -16.0825   21.5448 O   0  0  0  0  0  0  0  0  0  0  0  0
   15.5083  -19.6584   15.3245 N   0  0  0  0  0  0  0  0  0  0  0  0
    9.0917  -16.9150   21.8870 C   0  0  1  0  0  0  0  0  0  0  0  0
    8.8251  -16.1116   23.0562 C   0  0  0  0  0  0  0  0  0  0  0  0
    7.4917  -15.4001   22.9646 C   0  0  0  0  0  0  0  0  0  0  0  0
    7.2156  -14.5636   24.1598 C   0  0  0  0  0  0  0  0  0  0  0  0
    7.7874  -13.3006   24.2970 C   0  0  0  0  0  0  0  0  0  0  0  0
    7.5418  -12.5130   25.3981 C   0  0  0  0  0  0  0  0  0  0  0  0
    6.7253  -12.9316   26.4101 C   0  0  0  0  0  0  0  0  0  0  0  0
    6.1447  -14.1838   26.2970 C   0  0  0  0  0  0  0  0  0  0  0  0
    6.3936  -14.9762   25.1861 C   0  0  0  0  0  0  0  0  0  0  0  0
    8.7882  -16.9505   24.2768 O   0  0  0  0  0  0  0  0  0  0  0  0
    8.3713  -18.1279   24.1867 N   0  0  0  0  0  0  0  0  0  0  0  0
    9.2029  -16.4870   25.5488 C   0  0  1  0  0  0  0  0  0  0  0  0
    9.4569  -17.3921   26.6786 C   0  0  0  0  0  0  0  0  0  0  0  0
    9.1320  -16.6276   27.9204 C   0  0  0  0  0  0  0  0  0  0  0  0
    9.6740  -15.2738   27.9807 C   0  0  0  0  0  0  0  0  0  0  0  0
    8.8745  -14.2085   27.6208 C   0  0  0  0  0  0  0  0  0  0  0  0
    9.3370  -12.8919   27.6587 C   0  0  0  0  0  0  0  0  0  0  0  0
   10.6355  -12.6414   28.0688 C   0  0  0  0  0  0  0  0  0  0  0  0
   11.4477  -13.6922   28.4316 C   0  0  0  0  0  0  0  0  0  0  0  0
   10.9633  -15.0044   28.3860 C   0  0  0  0  0  0  0  0  0  0  0  0
    8.6427  -18.5880   26.4590 O   0  0  0  0  0  0  0  0  0  0  0  0
    7.5388  -18.6372   25.6032 O   0  0  0  0  0  0  0  0  0  0  0  0
  2  3  2  0
  2  1  1  0
  4  2  1  0
  5  4  1  0
  6  7  1  0
  6  5  1  0
  8  9  1  6
  8  7  1  0
 10 12  1  0
 10  8  1  0
 11 10  2  0
 13 21  1  0
 13 14  1  1
 13 12  1  0
 15 16  2  0
 15 14  1  0
 17 16  1  0
 18 17  2  0
 19 18  1  0
 19 20  2  0
 20 15  1  0
 21 23  1  0
 22 21  2  0
 23 24  1  0
 24 25  1  1
 25 26  1  0
 26 27  2  0
 26 31  1  0
 27 28  1  0
 28 29  2  0
 30 29  1  0
 31 30  2  0
 32 33  1  0
 32 24  1  0
 34 32  2  0
M  END
$$$$
