RFF.pdb
     RDKit          3D

 34 35  0  0  1  0  0  0  0  0999 V2000
    7.3359  -15.0015   14.7679 N   0  0  0  0  0  0  0  0  0  0  0  0
    8.4300  -14.3178   15.3775 C   0  0  0  0  0  0  0  0  0  0  0  0
    8.4340  -13.0410   15.4276 N   0  0  0  0  0  0  0  0  0  0  0  0
    9.5295  -15.0274   15.9373 N   0  0  0  0  0  0  0  0  0  0  0  0
    9.6128  -16.4656   15.9618 C   0  0  0  0  0  0  0  0  0  0  0  0
    8.9568  -17.0281   17.1947 C   0  0  0  0  0  0  0  0  0  0  0  0
    9.6057  -16.5220   18.4648 C   0  0  0  0  0  0  0  0  0  0  0  0
    8.9491  -17.1112   19.6912 C   0  0  2  0  0  0  0  0  0  0  0  0
    7.5321  -17.2409   19.5634 N   0  0  0  0  0  0  0  0  0  0  0  0
    9.3275  -16.2404   20.8548 C   0  0  0  0  0  0  0  0  0  0  0  0
   10.3614  -15.5269   20.8109 O   0  0  0  0  0  0  0  0  0  0  0  0
    9.1988  -12.5384   15.8992 N   0  0  0  0  0  0  0  0  0  0  0  0
    8.5429  -16.1893   22.0348 C   0  0  1  0  0  0  0  0  0  0  0  0
    8.8591  -15.3753   23.1841 C   0  0  0  0  0  0  0  0  0  0  0  0
    7.8226  -15.5118   24.2793 C   0  0  0  0  0  0  0  0  0  0  0  0
    7.4296  -14.1988   24.8506 C   0  0  0  0  0  0  0  0  0  0  0  0
    6.3646  -14.0966   25.7430 C   0  0  0  0  0  0  0  0  0  0  0  0
    5.9877  -12.8878   26.2813 C   0  0  0  0  0  0  0  0  0  0  0  0
    6.6397  -11.7293   25.9666 C   0  0  0  0  0  0  0  0  0  0  0  0
    7.7020  -11.8049   25.0813 C   0  0  0  0  0  0  0  0  0  0  0  0
    8.0804  -13.0245   24.5398 C   0  0  0  0  0  0  0  0  0  0  0  0
   10.1633  -15.7680   23.7671 O   0  0  0  0  0  0  0  0  0  0  0  0
   11.1230  -14.9670   23.6921 N   0  0  0  0  0  0  0  0  0  0  0  0
   10.3825  -17.0108   24.4094 C   0  0  1  0  0  0  0  0  0  0  0  0
   10.6087  -17.1263   25.8570 C   0  0  0  0  0  0  0  0  0  0  0  0
    9.4418  -16.4752   26.5254 C   0  0  0  0  0  0  0  0  0  0  0  0
    9.7773  -15.5004   27.5585 C   0  0  0  0  0  0  0  0  0  0  0  0
   10.1728  -15.9437   28.8038 C   0  0  0  0  0  0  0  0  0  0  0  0
   10.5067  -15.0592   29.8310 C   0  0  0  0  0  0  0  0  0  0  0  0
   10.4409  -13.6958   29.5993 C   0  0  0  0  0  0  0  0  0  0  0  0
   10.0482  -13.2352   28.3627 C   0  0  0  0  0  0  0  0  0  0  0  0
    9.7180  -14.1399   27.3472 C   0  0  0  0  0  0  0  0  0  0  0  0
   10.7732  -18.5503   26.1512 O   0  0  0  0  0  0  0  0  0  0  0  0
    9.8609  -19.5386   25.7711 O   0  0  0  0  0  0  0  0  0  0  0  0
  2  3  2  0
  2  1  1  0
  4  2  1  0
  5  4  1  0
  6  7  1  0
  6  5  1  0
  8  9  1  6
  8  7  1  0
 10 12  1  0
 10  8  1  0
 11 10  2  0
 13 21  1  0
 13 14  1  1
 13 12  1  0
 15 16  2  0
 15 14  1  0
 17 16  1  0
 18 17  2  0
 19 18  1  0
 19 20  2  0
 20 15  1  0
 21 23  1  0
 22 21  2  0
 23 24  1  0
 24 25  1  1
 25 26  1  0
 26 27  2  0
 26 31  1  0
 27 28  1  0
 28 29  2  0
 30 29  1  0
 31 30  2  0
 32 33  1  0
 32 24  1  0
 34 32  2  0
M  END
$$$$
