RFF.pdb
     RDKit          3D

 34 35  0  0  1  0  0  0  0  0999 V2000
   10.8295  -16.3295   17.1035 N   0  0  0  0  0  0  0  0  0  0  0  0
    9.4518  -16.0335   16.8784 C   0  0  0  0  0  0  0  0  0  0  0  0
    9.0851  -14.8259   16.6781 N   0  0  0  0  0  0  0  0  0  0  0  0
    8.4640  -17.0581   16.8714 N   0  0  0  0  0  0  0  0  0  0  0  0
    8.7284  -18.4145   17.2792 C   0  0  0  0  0  0  0  0  0  0  0  0
    8.7023  -18.5472   18.7787 C   0  0  0  0  0  0  0  0  0  0  0  0
   10.0058  -18.1091   19.4107 C   0  0  0  0  0  0  0  0  0  0  0  0
   10.0294  -18.4118   20.8906 C   0  0  2  0  0  0  0  0  0  0  0  0
    8.8154  -18.9972   21.3646 N   0  0  0  0  0  0  0  0  0  0  0  0
   10.3424  -17.1248   21.5986 C   0  0  0  0  0  0  0  0  0  0  0  0
   11.4593  -16.5677   21.4500 O   0  0  0  0  0  0  0  0  0  0  0  0
    8.0937  -14.6004   16.5163 N   0  0  0  0  0  0  0  0  0  0  0  0
    9.4018  -16.4949   22.4523 C   0  0  1  0  0  0  0  0  0  0  0  0
    9.5883  -15.1909   23.0424 C   0  0  0  0  0  0  0  0  0  0  0  0
    8.3198  -14.3649   23.0076 C   0  0  0  0  0  0  0  0  0  0  0  0
    7.9038  -14.0284   21.6226 C   0  0  0  0  0  0  0  0  0  0  0  0
    6.9220  -14.7708   20.9699 C   0  0  0  0  0  0  0  0  0  0  0  0
    6.5252  -14.4722   19.6867 C   0  0  0  0  0  0  0  0  0  0  0  0
    7.0748  -13.4332   18.9908 C   0  0  0  0  0  0  0  0  0  0  0  0
    8.0530  -12.6799   19.6182 C   0  0  0  0  0  0  0  0  0  0  0  0
    8.4517  -12.9826   20.9118 C   0  0  0  0  0  0  0  0  0  0  0  0
    9.9939  -15.3067   24.4626 O   0  0  0  0  0  0  0  0  0  0  0  0
   10.2685  -14.2632   25.0982 N   0  0  0  0  0  0  0  0  0  0  0  0
   10.0880  -16.5446   25.1435 C   0  0  1  0  0  0  0  0  0  0  0  0
   10.1657  -16.6403   26.6081 C   0  0  0  0  0  0  0  0  0  0  0  0
    8.8340  -16.2150   27.1355 C   0  0  0  0  0  0  0  0  0  0  0  0
    8.6150  -14.7730   27.1900 C   0  0  0  0  0  0  0  0  0  0  0  0
    7.4355  -14.2492   26.7019 C   0  0  0  0  0  0  0  0  0  0  0  0
    7.1693  -12.8791   26.7278 C   0  0  0  0  0  0  0  0  0  0  0  0
    8.1128  -12.0153   27.2576 C   0  0  0  0  0  0  0  0  0  0  0  0
    9.2955  -12.5202   27.7492 C   0  0  0  0  0  0  0  0  0  0  0  0
    9.5416  -13.8975   27.7134 C   0  0  0  0  0  0  0  0  0  0  0  0
   10.5447  -18.0173   26.9265 O   0  0  0  0  0  0  0  0  0  0  0  0
   10.6947  -19.0283   25.9733 O   0  0  0  0  0  0  0  0  0  0  0  0
  2  3  2  0
  2  1  1  0
  4  2  1  0
  5  4  1  0
  6  7  1  0
  6  5  1  0
  8  9  1  1
  8  7  1  0
 10 12  1  0
 10  8  1  0
 11 10  2  0
 13 21  1  0
 13 14  1  6
 13 12  1  0
 15 16  2  0
 15 14  1  0
 17 16  1  0
 18 17  2  0
 19 18  1  0
 19 20  2  0
 20 15  1  0
 21 23  1  0
 22 21  2  0
 23 24  1  0
 24 25  1  1
 25 26  1  0
 26 27  2  0
 26 31  1  0
 27 28  1  0
 28 29  2  0
 30 29  1  0
 31 30  2  0
 32 33  1  0
 32 24  1  0
 34 32  2  0
M  END
$$$$
