RFF.pdb
     RDKit          3D

 34 35  0  0  1  0  0  0  0  0999 V2000
    9.8610  -15.8616   13.5538 N   0  0  0  0  0  0  0  0  0  0  0  0
   11.0342  -16.1719   14.3044 C   0  0  0  0  0  0  0  0  0  0  0  0
   12.1847  -15.8588   13.8450 N   0  0  0  0  0  0  0  0  0  0  0  0
   10.9570  -16.8283   15.5648 N   0  0  0  0  0  0  0  0  0  0  0  0
    9.7706  -17.4953   16.0379 C   0  0  0  0  0  0  0  0  0  0  0  0
    9.4378  -17.0808   17.4465 C   0  0  0  0  0  0  0  0  0  0  0  0
   10.6797  -16.8728   18.2860 C   0  0  0  0  0  0  0  0  0  0  0  0
   10.5626  -17.5652   19.6236 C   0  0  2  0  0  0  0  0  0  0  0  0
    9.4740  -18.4884   19.6858 N   0  0  0  0  0  0  0  0  0  0  0  0
   10.4443  -16.4912   20.6668 C   0  0  0  0  0  0  0  0  0  0  0  0
   11.2937  -15.5670   20.7332 O   0  0  0  0  0  0  0  0  0  0  0  0
   13.0413  -16.2049   14.2993 N   0  0  0  0  0  0  0  0  0  0  0  0
    9.3828  -16.4776   21.6066 C   0  0  1  0  0  0  0  0  0  0  0  0
    9.2845  -15.5466   22.7053 C   0  0  0  0  0  0  0  0  0  0  0  0
    7.9531  -14.8257   22.7216 C   0  0  0  0  0  0  0  0  0  0  0  0
    7.7417  -14.0042   21.5030 C   0  0  0  0  0  0  0  0  0  0  0  0
    8.3966  -12.7855   21.3389 C   0  0  0  0  0  0  0  0  0  0  0  0
    8.2116  -12.0123   20.2159 C   0  0  0  0  0  0  0  0  0  0  0  0
    7.3768  -12.4024   19.2076 C   0  0  0  0  0  0  0  0  0  0  0  0
    6.7140  -13.6104   19.3473 C   0  0  0  0  0  0  0  0  0  0  0  0
    6.9018  -14.3884   20.4801 C   0  0  0  0  0  0  0  0  0  0  0  0
    9.4169  -16.2464   24.0044 O   0  0  0  0  0  0  0  0  0  0  0  0
    8.9901  -17.4196   24.1035 N   0  0  0  0  0  0  0  0  0  0  0  0
   10.0049  -15.6536   25.1479 C   0  0  2  0  0  0  0  0  0  0  0  0
    9.5080  -15.8938   26.5101 C   0  0  0  0  0  0  0  0  0  0  0  0
    8.0330  -15.6587   26.4747 C   0  0  0  0  0  0  0  0  0  0  0  0
    7.6125  -14.2859   26.7368 C   0  0  0  0  0  0  0  0  0  0  0  0
    6.2774  -13.9551   26.6283 C   0  0  0  0  0  0  0  0  0  0  0  0
    5.8157  -12.6595   26.8674 C   0  0  0  0  0  0  0  0  0  0  0  0
    6.7193  -11.6732   27.2243 C   0  0  0  0  0  0  0  0  0  0  0  0
    8.0556  -11.9850   27.3374 C   0  0  0  0  0  0  0  0  0  0  0  0
    8.4966  -13.2906   27.0931 C   0  0  0  0  0  0  0  0  0  0  0  0
    9.9079  -17.2528   26.8769 O   0  0  0  0  0  0  0  0  0  0  0  0
    9.2753  -18.4081   26.4095 O   0  0  0  0  0  0  0  0  0  0  0  0
  2  3  2  0
  2  1  1  0
  4  2  1  0
  5  4  1  0
  6  7  1  0
  6  5  1  0
  8  9  1  6
  8  7  1  0
 10 12  1  0
 10  8  1  0
 11 10  2  0
 13 21  1  0
 13 14  1  1
 13 12  1  0
 15 16  2  0
 15 14  1  0
 17 16  1  0
 18 17  2  0
 19 18  1  0
 19 20  2  0
 20 15  1  0
 21 23  1  0
 22 21  2  0
 23 24  1  0
 24 25  1  6
 25 26  1  0
 26 27  2  0
 26 31  1  0
 27 28  1  0
 28 29  2  0
 30 29  1  0
 31 30  2  0
 32 33  1  0
 32 24  1  0
 34 32  2  0
M  END
$$$$
