RFF.pdb
     RDKit          3D

 34 35  0  0  1  0  0  0  0  0999 V2000
    8.2569  -12.1825   16.3437 N   0  0  0  0  0  0  0  0  0  0  0  0
    7.8607  -13.5472   16.2142 C   0  0  0  0  0  0  0  0  0  0  0  0
    8.0086  -14.1494   15.0969 N   0  0  0  0  0  0  0  0  0  0  0  0
    7.2986  -14.2639   17.3079 N   0  0  0  0  0  0  0  0  0  0  0  0
    7.3792  -13.8132   18.6740 C   0  0  0  0  0  0  0  0  0  0  0  0
    8.4976  -14.5022   19.4097 C   0  0  0  0  0  0  0  0  0  0  0  0
    8.5308  -14.1254   20.8751 C   0  0  0  0  0  0  0  0  0  0  0  0
    8.1375  -15.2907   21.7524 C   0  0  2  0  0  0  0  0  0  0  0  0
    6.7566  -15.6393   21.6391 N   0  0  0  0  0  0  0  0  0  0  0  0
    8.5075  -14.9259   23.1615 C   0  0  0  0  0  0  0  0  0  0  0  0
    8.5631  -13.7217   23.5174 O   0  0  0  0  0  0  0  0  0  0  0  0
    7.7584  -15.1435   15.0013 N   0  0  0  0  0  0  0  0  0  0  0  0
    8.8054  -15.9135   24.1342 C   0  0  1  0  0  0  0  0  0  0  0  0
    9.1524  -15.6230   25.5049 C   0  0  0  0  0  0  0  0  0  0  0  0
    7.9294  -15.5259   26.3922 C   0  0  0  0  0  0  0  0  0  0  0  0
    7.3078  -14.1781   26.3503 C   0  0  0  0  0  0  0  0  0  0  0  0
    8.0755  -13.0300   26.5333 C   0  0  0  0  0  0  0  0  0  0  0  0
    7.5151  -11.7739   26.4975 C   0  0  0  0  0  0  0  0  0  0  0  0
    6.1787  -11.5920   26.2806 C   0  0  0  0  0  0  0  0  0  0  0  0
    5.3942  -12.7182   26.0958 C   0  0  0  0  0  0  0  0  0  0  0  0
    5.9611  -13.9835   26.1323 C   0  0  0  0  0  0  0  0  0  0  0  0
   10.0160  -16.6869   26.0682 O   0  0  0  0  0  0  0  0  0  0  0  0
   10.4810  -16.5383   27.2215 N   0  0  0  0  0  0  0  0  0  0  0  0
   10.3452  -17.8713   25.3656 C   0  0  1  0  0  0  0  0  0  0  0  0
   11.2997  -18.8614   25.8838 C   0  0  0  0  0  0  0  0  0  0  0  0
   10.5568  -20.1528   25.9972 C   0  0  0  0  0  0  0  0  0  0  0  0
    9.3473  -20.1085   26.8129 C   0  0  0  0  0  0  0  0  0  0  0  0
    8.1198  -19.9806   26.1959 C   0  0  0  0  0  0  0  0  0  0  0  0
    6.9291  -19.9333   26.9230 C   0  0  0  0  0  0  0  0  0  0  0  0
    6.9748  -20.0168   28.3042 C   0  0  0  0  0  0  0  0  0  0  0  0
    8.1908  -20.1447   28.9370 C   0  0  0  0  0  0  0  0  0  0  0  0
    9.3724  -20.1900   28.1883 C   0  0  0  0  0  0  0  0  0  0  0  0
   12.4362  -18.8819   24.9623 O   0  0  0  0  0  0  0  0  0  0  0  0
   12.4713  -18.1924   23.7471 O   0  0  0  0  0  0  0  0  0  0  0  0
  2  3  2  0
  2  1  1  0
  4  2  1  0
  5  4  1  0
  6  7  1  0
  6  5  1  0
  8  9  1  1
  8  7  1  0
 10 12  1  0
 10  8  1  0
 11 10  2  0
 13 21  1  0
 13 14  1  1
 13 12  1  0
 15 16  2  0
 15 14  1  0
 17 16  1  0
 18 17  2  0
 19 18  1  0
 19 20  2  0
 20 15  1  0
 21 23  1  0
 22 21  2  0
 23 24  1  0
 24 25  1  1
 25 26  1  0
 26 27  2  0
 26 31  1  0
 27 28  1  0
 28 29  2  0
 30 29  1  0
 31 30  2  0
 32 33  1  0
 32 24  1  0
 34 32  2  0
M  END
$$$$
