RFF.pdb
     RDKit          3D

 34 35  0  0  1  0  0  0  0  0999 V2000
    9.5412  -20.8469   17.2891 N   0  0  0  0  0  0  0  0  0  0  0  0
    8.1764  -21.0189   16.9096 C   0  0  0  0  0  0  0  0  0  0  0  0
    7.8771  -21.8121   15.9535 N   0  0  0  0  0  0  0  0  0  0  0  0
    7.1278  -20.3229   17.5742 N   0  0  0  0  0  0  0  0  0  0  0  0
    7.3594  -19.2952   18.5572 C   0  0  0  0  0  0  0  0  0  0  0  0
    6.7938  -19.6856   19.8968 C   0  0  0  0  0  0  0  0  0  0  0  0
    6.9946  -18.6035   20.9355 C   0  0  0  0  0  0  0  0  0  0  0  0
    6.3660  -18.9837   22.2556 C   0  0  2  0  0  0  0  0  0  0  0  0
    5.3068  -19.9331   22.1216 N   0  0  0  0  0  0  0  0  0  0  0  0
    5.8976  -17.7122   22.9031 C   0  0  0  0  0  0  0  0  0  0  0  0
    5.0519  -16.9774   22.3333 O   0  0  0  0  0  0  0  0  0  0  0  0
    6.8938  -22.0424   15.7534 N   0  0  0  0  0  0  0  0  0  0  0  0
    6.3852  -17.2952   24.1676 C   0  0  1  0  0  0  0  0  0  0  0  0
    6.6205  -15.9185   24.5321 C   0  0  0  0  0  0  0  0  0  0  0  0
    6.6038  -15.7174   26.0327 C   0  0  0  0  0  0  0  0  0  0  0  0
    6.9005  -14.3142   26.4169 C   0  0  0  0  0  0  0  0  0  0  0  0
    8.1642  -13.9500   26.8768 C   0  0  0  0  0  0  0  0  0  0  0  0
    8.4555  -12.6544   27.2368 C   0  0  0  0  0  0  0  0  0  0  0  0
    7.5194  -11.6624   27.1607 C   0  0  0  0  0  0  0  0  0  0  0  0
    6.2553  -11.9994   26.7063 C   0  0  0  0  0  0  0  0  0  0  0  0
    5.9637  -13.3061   26.3439 C   0  0  0  0  0  0  0  0  0  0  0  0
    7.9435  -15.4620   24.0461 O   0  0  0  0  0  0  0  0  0  0  0  0
    8.2599  -14.2599   24.1987 N   0  0  0  0  0  0  0  0  0  0  0  0
    8.8754  -16.3201   23.4136 C   0  0  2  0  0  0  0  0  0  0  0  0
   10.1119  -15.8269   22.7908 C   0  0  0  0  0  0  0  0  0  0  0  0
    9.9084  -14.3695   22.5320 C   0  0  0  0  0  0  0  0  0  0  0  0
    8.9449  -14.0495   21.4836 C   0  0  0  0  0  0  0  0  0  0  0  0
    8.9805  -14.7501   20.2954 C   0  0  0  0  0  0  0  0  0  0  0  0
    8.0847  -14.4893   19.2570 C   0  0  0  0  0  0  0  0  0  0  0  0
    7.1300  -13.4997   19.4182 C   0  0  0  0  0  0  0  0  0  0  0  0
    7.0795  -12.7903   20.5970 C   0  0  0  0  0  0  0  0  0  0  0  0
    7.9875  -13.0683   21.6251 C   0  0  0  0  0  0  0  0  0  0  0  0
   11.2076  -16.1440   23.7073 O   0  0  0  0  0  0  0  0  0  0  0  0
   11.0356  -16.7626   24.9487 O   0  0  0  0  0  0  0  0  0  0  0  0
  2  3  2  0
  2  1  1  0
  4  2  1  0
  5  4  1  0
  6  7  1  0
  6  5  1  0
  8  9  1  6
  8  7  1  0
 10 12  1  0
 10  8  1  0
 11 10  2  0
 13 21  1  0
 13 14  1  1
 13 12  1  0
 15 16  2  0
 15 14  1  0
 17 16  1  0
 18 17  2  0
 19 18  1  0
 19 20  2  0
 20 15  1  0
 21 23  1  0
 22 21  2  0
 23 24  1  0
 24 25  1  6
 25 26  1  0
 26 27  2  0
 26 31  1  0
 27 28  1  0
 28 29  2  0
 30 29  1  0
 31 30  2  0
 32 33  1  0
 32 24  1  0
 34 32  2  0
M  END
$$$$
