RFF.pdb
     RDKit          3D

 34 35  0  0  1  0  0  0  0  0999 V2000
   10.7246  -20.9773   15.8308 N   0  0  0  0  0  0  0  0  0  0  0  0
   11.9795  -20.3009   15.8940 C   0  0  0  0  0  0  0  0  0  0  0  0
   13.0382  -20.8841   15.4794 N   0  0  0  0  0  0  0  0  0  0  0  0
   12.0853  -18.9797   16.4126 N   0  0  0  0  0  0  0  0  0  0  0  0
   10.9465  -18.1958   16.8184 C   0  0  0  0  0  0  0  0  0  0  0  0
   10.4175  -18.6535   18.1516 C   0  0  0  0  0  0  0  0  0  0  0  0
   10.9979  -17.8539   19.2980 C   0  0  0  0  0  0  0  0  0  0  0  0
   10.5180  -18.3758   20.6320 C   0  0  2  0  0  0  0  0  0  0  0  0
    9.3104  -19.1335   20.5383 N   0  0  0  0  0  0  0  0  0  0  0  0
   10.3637  -17.1893   21.5397 C   0  0  0  0  0  0  0  0  0  0  0  0
   11.2599  -16.3102   21.6020 O   0  0  0  0  0  0  0  0  0  0  0  0
   13.9554  -20.4238   15.5618 N   0  0  0  0  0  0  0  0  0  0  0  0
    9.2149  -17.0160   22.3525 C   0  0  1  0  0  0  0  0  0  0  0  0
    9.0098  -15.8947   23.2380 C   0  0  0  0  0  0  0  0  0  0  0  0
    7.5678  -15.7804   23.6853 C   0  0  0  0  0  0  0  0  0  0  0  0
    7.3384  -14.5970   24.5523 C   0  0  0  0  0  0  0  0  0  0  0  0
    6.7049  -14.7261   25.7864 C   0  0  0  0  0  0  0  0  0  0  0  0
    6.4847  -13.6398   26.6017 C   0  0  0  0  0  0  0  0  0  0  0  0
    6.8767  -12.3822   26.2402 C   0  0  0  0  0  0  0  0  0  0  0  0
    7.5088  -12.2279   25.0176 C   0  0  0  0  0  0  0  0  0  0  0  0
    7.7298  -13.3243   24.1972 C   0  0  0  0  0  0  0  0  0  0  0  0
    9.8358  -16.0289   24.4606 O   0  0  0  0  0  0  0  0  0  0  0  0
   10.4423  -15.0217   24.8920 N   0  0  0  0  0  0  0  0  0  0  0  0
    9.9761  -17.2452   25.1718 C   0  0  1  0  0  0  0  0  0  0  0  0
   11.0847  -17.4958   26.1035 C   0  0  0  0  0  0  0  0  0  0  0  0
   11.6308  -16.1592   26.4876 C   0  0  0  0  0  0  0  0  0  0  0  0
   10.8005  -15.3850   27.4048 C   0  0  0  0  0  0  0  0  0  0  0  0
   11.0382  -14.0343   27.5561 C   0  0  0  0  0  0  0  0  0  0  0  0
   10.2770  -13.2424   28.4176 C   0  0  0  0  0  0  0  0  0  0  0  0
    9.2519  -13.8237   29.1443 C   0  0  0  0  0  0  0  0  0  0  0  0
    9.0002  -15.1702   29.0061 C   0  0  0  0  0  0  0  0  0  0  0  0
    9.7759  -15.9454   28.1365 C   0  0  0  0  0  0  0  0  0  0  0  0
   10.5418  -18.2825   27.2115 O   0  0  0  0  0  0  0  0  0  0  0  0
   11.3115  -18.7913   28.2612 O   0  0  0  0  0  0  0  0  0  0  0  0
  2  3  2  0
  2  1  1  0
  4  2  1  0
  5  4  1  0
  6  7  1  0
  6  5  1  0
  8  9  1  6
  8  7  1  0
 10 12  1  0
 10  8  1  0
 11 10  2  0
 13 21  1  0
 13 14  1  1
 13 12  1  0
 15 16  2  0
 15 14  1  0
 17 16  1  0
 18 17  2  0
 19 18  1  0
 19 20  2  0
 20 15  1  0
 21 23  1  0
 22 21  2  0
 23 24  1  0
 24 25  1  1
 25 26  1  0
 26 27  2  0
 26 31  1  0
 27 28  1  0
 28 29  2  0
 30 29  1  0
 31 30  2  0
 32 33  1  0
 32 24  1  0
 34 32  2  0
M  END
$$$$
