RFF.pdb
     RDKit          3D

 34 35  0  0  1  0  0  0  0  0999 V2000
    7.8511  -15.0234   17.0977 N   0  0  0  0  0  0  0  0  0  0  0  0
    8.4104  -13.7122   17.1608 C   0  0  0  0  0  0  0  0  0  0  0  0
    7.8332  -12.7446   16.5578 N   0  0  0  0  0  0  0  0  0  0  0  0
    9.6073  -13.4498   17.8848 N   0  0  0  0  0  0  0  0  0  0  0  0
   10.3889  -14.4797   18.5207 C   0  0  0  0  0  0  0  0  0  0  0  0
   10.0816  -15.8339   17.9390 C   0  0  0  0  0  0  0  0  0  0  0  0
   10.8986  -16.9300   18.5883 C   0  0  0  0  0  0  0  0  0  0  0  0
   10.0867  -17.6897   19.6111 C   0  0  2  0  0  0  0  0  0  0  0  0
    8.7948  -18.0699   19.1341 N   0  0  0  0  0  0  0  0  0  0  0  0
    9.9975  -16.8233   20.8346 C   0  0  0  0  0  0  0  0  0  0  0  0
   11.0369  -16.3580   21.3667 O   0  0  0  0  0  0  0  0  0  0  0  0
    8.2613  -11.8084   16.5418 N   0  0  0  0  0  0  0  0  0  0  0  0
    8.7524  -16.4999   21.4307 C   0  0  1  0  0  0  0  0  0  0  0  0
    8.5934  -15.5682   22.5217 C   0  0  0  0  0  0  0  0  0  0  0  0
    7.1425  -15.1972   22.7449 C   0  0  0  0  0  0  0  0  0  0  0  0
    6.9835  -14.1334   23.7685 C   0  0  0  0  0  0  0  0  0  0  0  0
    6.5001  -14.4309   25.0408 C   0  0  0  0  0  0  0  0  0  0  0  0
    6.3468  -13.4570   26.0005 C   0  0  0  0  0  0  0  0  0  0  0  0
    6.6614  -12.1511   25.7520 C   0  0  0  0  0  0  0  0  0  0  0  0
    7.1440  -11.8300   24.4943 C   0  0  0  0  0  0  0  0  0  0  0  0
    7.2978  -12.8132   23.5282 C   0  0  0  0  0  0  0  0  0  0  0  0
    9.0947  -16.1483   23.7894 O   0  0  0  0  0  0  0  0  0  0  0  0
    8.9241  -17.3706   24.0022 N   0  0  0  0  0  0  0  0  0  0  0  0
    9.7614  -15.3873   24.7800 C   0  0  2  0  0  0  0  0  0  0  0  0
   10.2381  -15.9714   26.0415 C   0  0  0  0  0  0  0  0  0  0  0  0
   10.9074  -14.8697   26.7969 C   0  0  0  0  0  0  0  0  0  0  0  0
   11.1108  -15.1215   28.2200 C   0  0  0  0  0  0  0  0  0  0  0  0
   11.8743  -16.2014   28.6135 C   0  0  0  0  0  0  0  0  0  0  0  0
   12.1043  -16.4921   29.9594 C   0  0  0  0  0  0  0  0  0  0  0  0
   11.5528  -15.6764   30.9327 C   0  0  0  0  0  0  0  0  0  0  0  0
   10.7881  -14.5943   30.5586 C   0  0  0  0  0  0  0  0  0  0  0  0
   10.5704  -14.3213   29.2033 C   0  0  0  0  0  0  0  0  0  0  0  0
    9.0745  -16.5581   26.7071 O   0  0  0  0  0  0  0  0  0  0  0  0
    9.1179  -17.7242   27.4763 O   0  0  0  0  0  0  0  0  0  0  0  0
  2  3  2  0
  2  1  1  0
  4  2  1  0
  5  4  1  0
  6  7  1  0
  6  5  1  0
  8  9  1  6
  8  7  1  0
 10 12  1  0
 10  8  1  0
 11 10  2  0
 13 21  1  0
 13 14  1  1
 13 12  1  0
 15 16  2  0
 15 14  1  0
 17 16  1  0
 18 17  2  0
 19 18  1  0
 19 20  2  0
 20 15  1  0
 21 23  1  0
 22 21  2  0
 23 24  1  0
 24 25  1  1
 25 26  1  0
 26 27  2  0
 26 31  1  0
 27 28  1  0
 28 29  2  0
 30 29  1  0
 31 30  2  0
 32 33  1  0
 32 24  1  0
 34 32  2  0
M  END
$$$$
