RFF.pdb
     RDKit          3D

 34 35  0  0  1  0  0  0  0  0999 V2000
   13.4139  -21.3569   18.8328 N   0  0  0  0  0  0  0  0  0  0  0  0
   12.9317  -21.8181   17.5715 C   0  0  0  0  0  0  0  0  0  0  0  0
   13.3710  -22.9148   17.0847 N   0  0  0  0  0  0  0  0  0  0  0  0
   11.9642  -21.0811   16.8323 N   0  0  0  0  0  0  0  0  0  0  0  0
   11.4776  -19.7867   17.2368 C   0  0  0  0  0  0  0  0  0  0  0  0
   11.9989  -19.4099   18.5981 C   0  0  0  0  0  0  0  0  0  0  0  0
   11.5560  -18.0234   19.0124 C   0  0  0  0  0  0  0  0  0  0  0  0
   10.1099  -18.0149   19.4497 C   0  0  2  0  0  0  0  0  0  0  0  0
    9.1967  -17.8144   18.3694 N   0  0  0  0  0  0  0  0  0  0  0  0
    9.9737  -16.9510   20.5009 C   0  0  0  0  0  0  0  0  0  0  0  0
   10.9237  -16.1641   20.7422 O   0  0  0  0  0  0  0  0  0  0  0  0
   13.0807  -23.2242   16.1467 N   0  0  0  0  0  0  0  0  0  0  0  0
    8.7824  -16.7939   21.2536 C   0  0  1  0  0  0  0  0  0  0  0  0
    8.6050  -15.8101   22.2948 C   0  0  0  0  0  0  0  0  0  0  0  0
    7.1460  -15.4669   22.5094 C   0  0  0  0  0  0  0  0  0  0  0  0
    6.9566  -14.4498   23.5744 C   0  0  0  0  0  0  0  0  0  0  0  0
    6.3939  -14.7946   24.8014 C   0  0  0  0  0  0  0  0  0  0  0  0
    6.2116  -13.8643   25.7986 C   0  0  0  0  0  0  0  0  0  0  0  0
    6.5735  -12.5575   25.6335 C   0  0  0  0  0  0  0  0  0  0  0  0
    7.1352  -12.1898   24.4222 C   0  0  0  0  0  0  0  0  0  0  0  0
    7.3182  -13.1292   23.4182 C   0  0  0  0  0  0  0  0  0  0  0  0
    9.1300  -16.3082   23.5876 O   0  0  0  0  0  0  0  0  0  0  0  0
    8.6980  -17.3951   24.0352 N   0  0  0  0  0  0  0  0  0  0  0  0
   10.1016  -15.6143   24.3487 C   0  0  2  0  0  0  0  0  0  0  0  0
   10.3549  -15.9061   25.7667 C   0  0  0  0  0  0  0  0  0  0  0  0
   10.3649  -14.5924   26.4784 C   0  0  0  0  0  0  0  0  0  0  0  0
   10.6211  -14.6611   27.9136 C   0  0  0  0  0  0  0  0  0  0  0  0
   10.2040  -13.6263   28.7254 C   0  0  0  0  0  0  0  0  0  0  0  0
   10.4201  -13.6363   30.1045 C   0  0  0  0  0  0  0  0  0  0  0  0
   11.0717  -14.7135   30.6805 C   0  0  0  0  0  0  0  0  0  0  0  0
   11.4951  -15.7552   29.8860 C   0  0  0  0  0  0  0  0  0  0  0  0
   11.2679  -15.7245   28.5053 C   0  0  0  0  0  0  0  0  0  0  0  0
    9.3138  -16.8370   26.2036 O   0  0  0  0  0  0  0  0  0  0  0  0
    9.5668  -18.0311   26.8844 O   0  0  0  0  0  0  0  0  0  0  0  0
  2  3  2  0
  2  1  1  0
  4  2  1  0
  5  4  1  0
  6  7  1  0
  6  5  1  0
  8  9  1  6
  8  7  1  0
 10 12  1  0
 10  8  1  0
 11 10  2  0
 13 21  1  0
 13 14  1  1
 13 12  1  0
 15 16  2  0
 15 14  1  0
 17 16  1  0
 18 17  2  0
 19 18  1  0
 19 20  2  0
 20 15  1  0
 21 23  1  0
 22 21  2  0
 23 24  1  0
 24 25  1  1
 25 26  1  0
 26 27  2  0
 26 31  1  0
 27 28  1  0
 28 29  2  0
 30 29  1  0
 31 30  2  0
 32 33  1  0
 32 24  1  0
 34 32  2  0
M  END
$$$$
