RFF.pdb
     RDKit          3D

 34 35  0  0  1  0  0  0  0  0999 V2000
   10.7054  -24.3827   23.3441 N   0  0  0  0  0  0  0  0  0  0  0  0
    9.9235  -24.6331   22.1770 C   0  0  0  0  0  0  0  0  0  0  0  0
    9.3557  -25.7674   22.0229 N   0  0  0  0  0  0  0  0  0  0  0  0
    9.7573  -23.6429   21.1683 N   0  0  0  0  0  0  0  0  0  0  0  0
   10.6373  -22.5119   21.0176 C   0  0  0  0  0  0  0  0  0  0  0  0
   10.9879  -21.9129   22.3537 C   0  0  0  0  0  0  0  0  0  0  0  0
   10.9827  -20.4000   22.3170 C   0  0  0  0  0  0  0  0  0  0  0  0
   10.1794  -19.8801   21.1479 C   0  0  2  0  0  0  0  0  0  0  0  0
   10.6431  -20.3651   19.8866 N   0  0  0  0  0  0  0  0  0  0  0  0
   10.2188  -18.3805   21.2183 C   0  0  0  0  0  0  0  0  0  0  0  0
   11.3125  -17.7649   21.1483 O   0  0  0  0  0  0  0  0  0  0  0  0
    8.8103  -25.9683   21.1731 N   0  0  0  0  0  0  0  0  0  0  0  0
    9.0382  -17.6091   21.3648 C   0  0  2  0  0  0  0  0  0  0  0  0
    9.0175  -16.1692   21.4642 C   0  0  0  0  0  0  0  0  0  0  0  0
    7.6169  -15.6104   21.3282 C   0  0  0  0  0  0  0  0  0  0  0  0
    7.6013  -14.1258   21.3105 C   0  0  0  0  0  0  0  0  0  0  0  0
    7.3062  -13.3995   22.4622 C   0  0  0  0  0  0  0  0  0  0  0  0
    7.2874  -12.0237   22.4627 C   0  0  0  0  0  0  0  0  0  0  0  0
    7.5574  -11.3035   21.3338 C   0  0  0  0  0  0  0  0  0  0  0  0
    7.8538  -12.0029   20.1758 C   0  0  0  0  0  0  0  0  0  0  0  0
    7.8721  -13.3898   20.1773 C   0  0  0  0  0  0  0  0  0  0  0  0
    9.5391  -15.7226   22.7770 O   0  0  0  0  0  0  0  0  0  0  0  0
    9.9086  -14.5331   22.9060 N   0  0  0  0  0  0  0  0  0  0  0  0
    9.6422  -16.5770   23.9015 C   0  0  1  0  0  0  0  0  0  0  0  0
    9.8271  -16.0699   25.2685 C   0  0  0  0  0  0  0  0  0  0  0  0
    8.4811  -16.0873   25.9167 C   0  0  0  0  0  0  0  0  0  0  0  0
    7.8635  -14.7791   26.1099 C   0  0  0  0  0  0  0  0  0  0  0  0
    6.5112  -14.6290   25.8805 C   0  0  0  0  0  0  0  0  0  0  0  0
    5.8651  -13.4031   26.0490 C   0  0  0  0  0  0  0  0  0  0  0  0
    6.5974  -12.3017   26.4582 C   0  0  0  0  0  0  0  0  0  0  0  0
    7.9478  -12.4327   26.6919 C   0  0  0  0  0  0  0  0  0  0  0  0
    8.5754  -13.6714   26.5166 C   0  0  0  0  0  0  0  0  0  0  0  0
   10.8312  -16.9212   25.9076 O   0  0  0  0  0  0  0  0  0  0  0  0
   11.5360  -16.5690   27.0620 O   0  0  0  0  0  0  0  0  0  0  0  0
  2  3  2  0
  2  1  1  0
  4  2  1  0
  5  4  1  0
  6  7  1  0
  6  5  1  0
  8  9  1  6
  8  7  1  0
 10 12  1  0
 10  8  1  0
 11 10  2  0
 13 21  1  0
 13 14  1  6
 13 12  1  0
 15 16  2  0
 15 14  1  0
 17 16  1  0
 18 17  2  0
 19 18  1  0
 19 20  2  0
 20 15  1  0
 21 23  1  0
 22 21  2  0
 23 24  1  0
 24 25  1  1
 25 26  1  0
 26 27  2  0
 26 31  1  0
 27 28  1  0
 28 29  2  0
 30 29  1  0
 31 30  2  0
 32 33  1  0
 32 24  1  0
 34 32  2  0
M  END
$$$$
