RFF.pdb
     RDKit          3D

 34 35  0  0  1  0  0  0  0  0999 V2000
    4.3213  -21.7685   24.3927 N   0  0  0  0  0  0  0  0  0  0  0  0
    4.7110  -22.9923   25.0145 C   0  0  0  0  0  0  0  0  0  0  0  0
    3.9185  -23.9946   24.9984 N   0  0  0  0  0  0  0  0  0  0  0  0
    5.9723  -23.1284   25.6596 N   0  0  0  0  0  0  0  0  0  0  0  0
    6.8904  -22.0327   25.8405 C   0  0  0  0  0  0  0  0  0  0  0  0
    7.8470  -21.9270   24.6826 C   0  0  0  0  0  0  0  0  0  0  0  0
    7.9934  -20.5019   24.1949 C   0  0  0  0  0  0  0  0  0  0  0  0
    7.4465  -20.3397   22.7960 C   0  0  2  0  0  0  0  0  0  0  0  0
    7.7817  -21.4265   21.9313 N   0  0  0  0  0  0  0  0  0  0  0  0
    7.9602  -19.0296   22.2712 C   0  0  0  0  0  0  0  0  0  0  0  0
    9.0488  -18.9733   21.6455 O   0  0  0  0  0  0  0  0  0  0  0  0
    4.1193  -24.8293   25.5668 N   0  0  0  0  0  0  0  0  0  0  0  0
    7.2460  -17.8191   22.4587 C   0  0  2  0  0  0  0  0  0  0  0  0
    7.7039  -16.5286   22.0023 C   0  0  0  0  0  0  0  0  0  0  0  0
    6.5681  -15.5357   21.8735 C   0  0  0  0  0  0  0  0  0  0  0  0
    7.0334  -14.2032   21.4126 C   0  0  0  0  0  0  0  0  0  0  0  0
    7.3174  -13.9698   20.0687 C   0  0  0  0  0  0  0  0  0  0  0  0
    7.7494  -12.7410   19.6253 C   0  0  0  0  0  0  0  0  0  0  0  0
    7.9207  -11.6905   20.4815 C   0  0  0  0  0  0  0  0  0  0  0  0
    7.6449  -11.8975   21.8228 C   0  0  0  0  0  0  0  0  0  0  0  0
    7.2095  -13.1370   22.2678 C   0  0  0  0  0  0  0  0  0  0  0  0
    8.6833  -15.9494   22.9512 O   0  0  0  0  0  0  0  0  0  0  0  0
    9.4555  -15.0503   22.5468 N   0  0  0  0  0  0  0  0  0  0  0  0
    8.7923  -16.3625   24.3012 C   0  0  1  0  0  0  0  0  0  0  0  0
    9.7183  -15.7306   25.2516 C   0  0  0  0  0  0  0  0  0  0  0  0
    8.8821  -15.1761   26.3586 C   0  0  0  0  0  0  0  0  0  0  0  0
    8.1688  -13.9419   26.0452 C   0  0  0  0  0  0  0  0  0  0  0  0
    6.8159  -13.9915   25.7791 C   0  0  0  0  0  0  0  0  0  0  0  0
    6.0806  -12.8448   25.4740 C   0  0  0  0  0  0  0  0  0  0  0  0
    6.7223  -11.6186   25.4357 C   0  0  0  0  0  0  0  0  0  0  0  0
    8.0720  -11.5499   25.6985 C   0  0  0  0  0  0  0  0  0  0  0  0
    8.7898  -12.7123   26.0023 C   0  0  0  0  0  0  0  0  0  0  0  0
   10.6791  -16.7567   25.6581 O   0  0  0  0  0  0  0  0  0  0  0  0
   10.6455  -18.0810   25.2126 O   0  0  0  0  0  0  0  0  0  0  0  0
  2  3  2  0
  2  1  1  0
  4  2  1  0
  5  4  1  0
  6  7  1  0
  6  5  1  0
  8  9  1  6
  8  7  1  0
 10 12  1  0
 10  8  1  0
 11 10  2  0
 13 21  1  0
 13 14  1  6
 13 12  1  0
 15 16  2  0
 15 14  1  0
 17 16  1  0
 18 17  2  0
 19 18  1  0
 19 20  2  0
 20 15  1  0
 21 23  1  0
 22 21  2  0
 23 24  1  0
 24 25  1  1
 25 26  1  0
 26 27  2  0
 26 31  1  0
 27 28  1  0
 28 29  2  0
 30 29  1  0
 31 30  2  0
 32 33  1  0
 32 24  1  0
 34 32  2  0
M  END
$$$$
