ETN.pdb
     RDKit          3D

 25 24  0  0  1  0  0  0  0  0999 V2000
   22.2484  -12.3525  -19.5315 N   0  0  0  0  0  0  0  0  0  0  0  0
   21.2197  -12.5171  -18.4822 C   0  0  1  0  0  0  0  0  0  0  0  0
   21.1934  -13.9834  -18.1810 C   0  0  0  0  0  0  0  0  0  0  0  0
   21.1318  -14.8850  -19.3642 C   0  0  0  0  0  0  0  0  0  0  0  0
   21.0644  -16.3179  -19.0227 C   0  0  0  0  0  0  0  0  0  0  0  0
   20.0122  -16.9765  -19.1816 O   0  0  0  0  0  0  0  0  0  0  0  0
   21.6095  -11.7485  -17.2749 C   0  0  0  0  0  0  0  0  0  0  0  0
   20.9947  -11.7871  -16.1950 O   0  0  0  0  0  0  0  0  0  0  0  0
   22.1869  -16.9676  -18.5110 O   0  0  0  0  0  0  0  0  0  0  0  0
   25.2375   -9.3914  -14.9273 C   0  0  0  0  0  0  0  0  0  0  0  0
   24.6850  -10.2317  -16.0550 C   0  0  1  0  0  0  0  0  0  0  0  0
   25.0122  -11.5617  -15.7576 O   0  0  0  0  0  0  0  0  0  0  0  0
   23.1711  -10.1534  -16.1167 C   0  0  2  0  0  0  0  0  0  0  0  0
   22.7617  -10.8889  -17.2975 N   0  0  0  0  0  0  0  0  0  0  0  0
   22.8151   -8.7010  -16.2491 C   0  0  0  0  0  0  0  0  0  0  0  0
   23.0981   -8.0561  -17.3024 O   0  0  0  0  0  0  0  0  0  0  0  0
   20.9211   -3.9803  -15.4563 N   0  0  0  0  0  0  0  0  0  0  0  0
   19.9458   -5.0038  -15.4113 C   0  0  0  0  0  0  0  0  0  0  0  0
   18.7367   -4.6861  -15.4130 O   0  0  0  0  0  0  0  0  0  0  0  0
   20.3618   -6.4027  -15.3642 C   0  0  0  0  0  0  0  0  0  0  0  0
   21.8633   -6.5762  -15.3491 C   0  0  2  0  0  0  0  0  0  0  0  0
   22.1557   -7.9923  -15.2193 N   0  0  0  0  0  0  0  0  0  0  0  0
   22.5043   -5.7823  -14.2751 C   0  0  0  0  0  0  0  0  0  0  0  0
   22.9647   -4.5203  -14.6101 O   0  0  0  0  0  0  0  0  0  0  0  0
   22.6507   -6.1755  -13.1104 O   0  0  0  0  0  0  0  0  0  0  0  0
  2  1  1  6
  2  7  1  0
  3  2  1  0
  4  5  1  0
  4  3  1  0
  5  9  1  0
  6  5  2  0
  7 14  1  0
  7  8  2  0
 11 10  1  1
 12 11  1  0
 13 11  1  0
 13 14  1  6
 15 13  1  0
 15 22  1  0
 16 15  2  0
 18 17  1  0
 19 18  2  0
 21 20  1  1
 20 18  1  0
 21 22  1  0
 21 23  1  0
 23 24  1  0
 25 23  2  0
M  END
$$$$
