ETN.pdb
     RDKit          3D

 25 24  0  0  1  0  0  0  0  0999 V2000
   18.8199  -12.2022  -16.2139 N   0  0  0  0  0  0  0  0  0  0  0  0
   18.2392  -10.8468  -16.1039 C   0  0  1  0  0  0  0  0  0  0  0  0
   16.8512  -11.0525  -15.5822 C   0  0  0  0  0  0  0  0  0  0  0  0
   15.9323  -11.8134  -16.4729 C   0  0  0  0  0  0  0  0  0  0  0  0
   14.5635  -11.9536  -15.9425 C   0  0  0  0  0  0  0  0  0  0  0  0
   13.5699  -11.5545  -16.5904 O   0  0  0  0  0  0  0  0  0  0  0  0
   19.0355  -10.0376  -15.1493 C   0  0  0  0  0  0  0  0  0  0  0  0
   18.8094   -9.9773  -13.9282 O   0  0  0  0  0  0  0  0  0  0  0  0
   14.3545  -12.5405  -14.6952 O   0  0  0  0  0  0  0  0  0  0  0  0
   22.6027  -10.3281  -14.4658 C   0  0  0  0  0  0  0  0  0  0  0  0
   22.3878   -8.8904  -14.8780 C   0  0  1  0  0  0  0  0  0  0  0  0
   22.6511   -8.8270  -16.2531 O   0  0  0  0  0  0  0  0  0  0  0  0
   20.9438   -8.4666  -14.6856 C   0  0  2  0  0  0  0  0  0  0  0  0
   20.1500   -9.2542  -15.6089 N   0  0  0  0  0  0  0  0  0  0  0  0
   20.8676   -7.0084  -15.0343 C   0  0  0  0  0  0  0  0  0  0  0  0
   20.1883   -6.6126  -16.0279 O   0  0  0  0  0  0  0  0  0  0  0  0
   19.7008   -2.2803  -16.1989 N   0  0  0  0  0  0  0  0  0  0  0  0
   19.8206   -2.7759  -14.8795 C   0  0  0  0  0  0  0  0  0  0  0  0
   19.7592   -1.9717  -13.9245 O   0  0  0  0  0  0  0  0  0  0  0  0
   20.0123   -4.2060  -14.6549 C   0  0  0  0  0  0  0  0  0  0  0  0
   21.4670   -4.6167  -14.6461 C   0  0  2  0  0  0  0  0  0  0  0  0
   21.5407   -6.0199  -14.2811 N   0  0  0  0  0  0  0  0  0  0  0  0
   22.2785   -3.7703  -13.7407 C   0  0  0  0  0  0  0  0  0  0  0  0
   22.5603   -4.2777  -12.4837 O   0  0  0  0  0  0  0  0  0  0  0  0
   22.7141   -2.6502  -14.0378 O   0  0  0  0  0  0  0  0  0  0  0  0
  2  1  1  1
  2  7  1  0
  3  2  1  0
  4  5  1  0
  4  3  1  0
  5  9  1  0
  6  5  2  0
  7 14  1  0
  7  8  2  0
 11 10  1  6
 12 11  1  0
 13 11  1  0
 13 14  1  6
 15 13  1  0
 15 22  1  0
 16 15  2  0
 18 17  1  0
 19 18  2  0
 21 20  1  1
 20 18  1  0
 21 22  1  0
 21 23  1  0
 23 24  1  0
 25 23  2  0
M  END
$$$$
