ETN.pdb
     RDKit          3D

 25 24  0  0  1  0  0  0  0  0999 V2000
   13.0525  -13.1243  -14.9280 N   0  0  0  0  0  0  0  0  0  0  0  0
   14.3245  -12.6307  -14.3582 C   0  0  1  0  0  0  0  0  0  0  0  0
   15.2756  -13.7826  -14.4578 C   0  0  0  0  0  0  0  0  0  0  0  0
   15.0020  -14.9271  -13.5457 C   0  0  0  0  0  0  0  0  0  0  0  0
   15.8867  -16.0875  -13.7586 C   0  0  0  0  0  0  0  0  0  0  0  0
   16.8109  -16.0558  -14.6018 O   0  0  0  0  0  0  0  0  0  0  0  0
   14.8181  -11.4824  -15.1571 C   0  0  0  0  0  0  0  0  0  0  0  0
   14.3426  -11.1402  -16.2536 O   0  0  0  0  0  0  0  0  0  0  0  0
   15.7032  -17.2517  -13.0137 O   0  0  0  0  0  0  0  0  0  0  0  0
   15.4201   -7.1134  -15.6771 C   0  0  0  0  0  0  0  0  0  0  0  0
   15.0796   -8.5161  -15.2302 C   0  0  1  0  0  0  0  0  0  0  0  0
   14.1088   -8.9931  -16.1215 O   0  0  0  0  0  0  0  0  0  0  0  0
   16.2760   -9.4420  -15.3446 C   0  0  2  0  0  0  0  0  0  0  0  0
   15.9122  -10.6796  -14.6823 N   0  0  0  0  0  0  0  0  0  0  0  0
   17.4138   -8.7741  -14.6283 C   0  0  0  0  0  0  0  0  0  0  0  0
   17.3427   -8.5225  -13.3885 O   0  0  0  0  0  0  0  0  0  0  0  0
   22.0761   -6.8234  -13.5230 N   0  0  0  0  0  0  0  0  0  0  0  0
   22.1985   -7.8050  -14.5339 C   0  0  0  0  0  0  0  0  0  0  0  0
   23.3410   -8.1747  -14.8814 O   0  0  0  0  0  0  0  0  0  0  0  0
   21.0000   -8.3667  -15.1506 C   0  0  0  0  0  0  0  0  0  0  0  0
   19.7182   -7.8168  -14.5681 C   0  0  2  0  0  0  0  0  0  0  0  0
   18.6032   -8.3989  -15.2931 N   0  0  0  0  0  0  0  0  0  0  0  0
   19.6822   -6.3362  -14.6016 C   0  0  0  0  0  0  0  0  0  0  0  0
   20.0603   -5.6679  -13.4496 O   0  0  0  0  0  0  0  0  0  0  0  0
   19.3384   -5.6695  -15.5865 O   0  0  0  0  0  0  0  0  0  0  0  0
  2  1  1  6
  2  7  1  0
  3  2  1  0
  4  5  1  0
  4  3  1  0
  5  9  1  0
  6  5  2  0
  7 14  1  0
  7  8  2  0
 11 10  1  6
 12 11  1  0
 13 11  1  0
 13 14  1  1
 15 13  1  0
 15 22  1  0
 16 15  2  0
 18 17  1  0
 19 18  2  0
 21 20  1  6
 20 18  1  0
 21 22  1  0
 21 23  1  0
 23 24  1  0
 25 23  2  0
M  END
$$$$
