ETN.pdb
     RDKit          3D

 25 24  0  0  1  0  0  0  0  0999 V2000
   20.5167  -14.3252  -17.9321 N   0  0  0  0  0  0  0  0  0  0  0  0
   20.0187  -12.9334  -17.9675 C   0  0  1  0  0  0  0  0  0  0  0  0
   18.9109  -12.8841  -16.9617 C   0  0  0  0  0  0  0  0  0  0  0  0
   18.6177  -14.1642  -16.2602 C   0  0  0  0  0  0  0  0  0  0  0  0
   17.4624  -14.0957  -15.3464 C   0  0  0  0  0  0  0  0  0  0  0  0
   17.5913  -14.2944  -14.1175 O   0  0  0  0  0  0  0  0  0  0  0  0
   21.1078  -12.0026  -17.5829 C   0  0  0  0  0  0  0  0  0  0  0  0
   22.0757  -12.3187  -16.8696 O   0  0  0  0  0  0  0  0  0  0  0  0
   16.1934  -13.8049  -15.8455 O   0  0  0  0  0  0  0  0  0  0  0  0
   23.2150  -10.2571  -20.0082 C   0  0  0  0  0  0  0  0  0  0  0  0
   22.6451   -9.1838  -19.1104 C   0  0  1  0  0  0  0  0  0  0  0  0
   21.4894   -8.7071  -19.7440 O   0  0  0  0  0  0  0  0  0  0  0  0
   22.2117   -9.7509  -17.7716 C   0  0  2  0  0  0  0  0  0  0  0  0
   21.0948  -10.6378  -18.0346 N   0  0  0  0  0  0  0  0  0  0  0  0
   21.7760   -8.5889  -16.9267 C   0  0  0  0  0  0  0  0  0  0  0  0
   20.6072   -8.5417  -16.4401 O   0  0  0  0  0  0  0  0  0  0  0  0
   21.5059   -4.7036  -13.7112 N   0  0  0  0  0  0  0  0  0  0  0  0
   21.6206   -6.0686  -13.3585 C   0  0  0  0  0  0  0  0  0  0  0  0
   21.4380   -6.4020  -12.1676 O   0  0  0  0  0  0  0  0  0  0  0  0
   21.9472   -7.0585  -14.3811 C   0  0  0  0  0  0  0  0  0  0  0  0
   22.2327   -6.4451  -15.7328 C   0  0  2  0  0  0  0  0  0  0  0  0
   22.6371   -7.5063  -16.6371 N   0  0  0  0  0  0  0  0  0  0  0  0
   23.2520   -5.3731  -15.6531 C   0  0  0  0  0  0  0  0  0  0  0  0
   22.8124   -4.1063  -15.3086 O   0  0  0  0  0  0  0  0  0  0  0  0
   24.4587   -5.5409  -15.8734 O   0  0  0  0  0  0  0  0  0  0  0  0
  2  1  1  1
  2  7  1  0
  3  2  1  0
  4  5  1  0
  4  3  1  0
  5  9  1  0
  6  5  2  0
  7 14  1  0
  7  8  2  0
 11 10  1  6
 12 11  1  0
 13 11  1  0
 13 14  1  6
 15 13  1  0
 15 22  1  0
 16 15  2  0
 18 17  1  0
 19 18  2  0
 21 20  1  1
 20 18  1  0
 21 22  1  0
 21 23  1  0
 23 24  1  0
 25 23  2  0
M  END
$$$$
