ETN.pdb
     RDKit          3D

 25 24  0  0  1  0  0  0  0  0999 V2000
   21.3301  -10.0006  -15.1227 N   0  0  0  0  0  0  0  0  0  0  0  0
   20.0627   -9.2841  -14.8647 C   0  0  1  0  0  0  0  0  0  0  0  0
   18.9970  -10.3342  -14.9176 C   0  0  0  0  0  0  0  0  0  0  0  0
   18.7289  -10.9155  -16.2618 C   0  0  0  0  0  0  0  0  0  0  0  0
   17.6882  -11.9603  -16.2660 C   0  0  0  0  0  0  0  0  0  0  0  0
   16.4755  -11.6711  -16.3754 O   0  0  0  0  0  0  0  0  0  0  0  0
   20.1063   -8.6593  -13.5200 C   0  0  0  0  0  0  0  0  0  0  0  0
   20.7803   -9.0947  -12.5704 O   0  0  0  0  0  0  0  0  0  0  0  0
   18.0456  -13.3026  -16.1463 O   0  0  0  0  0  0  0  0  0  0  0  0
   21.5197   -5.6593  -12.5659 C   0  0  0  0  0  0  0  0  0  0  0  0
   20.0785   -5.4925  -12.1438 C   0  0  1  0  0  0  0  0  0  0  0  0
   19.4223   -4.8612  -13.2093 O   0  0  0  0  0  0  0  0  0  0  0  0
   19.3997   -6.8341  -11.9409 C   0  0  2  0  0  0  0  0  0  0  0  0
   19.3413   -7.4745  -13.2407 N   0  0  0  0  0  0  0  0  0  0  0  0
   18.0172   -6.5498  -11.4294 C   0  0  0  0  0  0  0  0  0  0  0  0
   17.0221   -6.5471  -12.2138 O   0  0  0  0  0  0  0  0  0  0  0  0
   14.6154   -6.2826   -6.5697 N   0  0  0  0  0  0  0  0  0  0  0  0
   14.7551   -6.7008   -7.9138 C   0  0  0  0  0  0  0  0  0  0  0  0
   13.7261   -6.8755   -8.6018 O   0  0  0  0  0  0  0  0  0  0  0  0
   16.0864   -6.9198   -8.4722 C   0  0  0  0  0  0  0  0  0  0  0  0
   16.4221   -5.9701   -9.5992 C   0  0  2  0  0  0  0  0  0  0  0  0
   17.7622   -6.2753  -10.0667 N   0  0  0  0  0  0  0  0  0  0  0  0
   16.2930   -4.5524   -9.1891 C   0  0  0  0  0  0  0  0  0  0  0  0
   15.0434   -3.9693   -9.3125 O   0  0  0  0  0  0  0  0  0  0  0  0
   17.2247   -3.8669   -8.7480 O   0  0  0  0  0  0  0  0  0  0  0  0
  2  1  1  1
  2  7  1  0
  3  2  1  0
  4  5  1  0
  4  3  1  0
  5  9  1  0
  6  5  2  0
  7 14  1  0
  7  8  2  0
 11 10  1  6
 12 11  1  0
 13 11  1  0
 13 14  1  6
 15 13  1  0
 15 22  1  0
 16 15  2  0
 18 17  1  0
 19 18  2  0
 21 20  1  1
 20 18  1  0
 21 22  1  0
 21 23  1  0
 23 24  1  0
 25 23  2  0
M  END
$$$$
