ETN.pdb
     RDKit          3D

 25 24  0  0  1  0  0  0  0  0999 V2000
   15.2519  -13.8480  -18.1889 N   0  0  0  0  0  0  0  0  0  0  0  0
   15.5165  -13.0968  -16.9430 C   0  0  1  0  0  0  0  0  0  0  0  0
   16.3502  -14.0106  -16.0999 C   0  0  0  0  0  0  0  0  0  0  0  0
   15.6384  -15.1818  -15.5181 C   0  0  0  0  0  0  0  0  0  0  0  0
   16.5048  -16.0794  -14.7318 C   0  0  0  0  0  0  0  0  0  0  0  0
   17.1926  -15.6502  -13.7784 O   0  0  0  0  0  0  0  0  0  0  0  0
   16.2661  -11.8559  -17.2570 C   0  0  0  0  0  0  0  0  0  0  0  0
   17.2181  -11.7992  -18.0545 O   0  0  0  0  0  0  0  0  0  0  0  0
   16.5707  -17.4366  -15.0438 O   0  0  0  0  0  0  0  0  0  0  0  0
   16.1571   -6.9311  -17.2604 C   0  0  0  0  0  0  0  0  0  0  0  0
   15.5480   -8.2810  -16.9604 C   0  0  1  0  0  0  0  0  0  0  0  0
   14.6562   -8.5563  -18.0060 O   0  0  0  0  0  0  0  0  0  0  0  0
   16.5950   -9.3788  -16.9734 C   0  0  2  0  0  0  0  0  0  0  0  0
   15.9131  -10.6115  -16.6292 N   0  0  0  0  0  0  0  0  0  0  0  0
   17.6095   -9.0257  -15.9247 C   0  0  0  0  0  0  0  0  0  0  0  0
   17.3643   -9.2101  -14.6954 O   0  0  0  0  0  0  0  0  0  0  0  0
   23.0330   -8.9171  -14.1962 N   0  0  0  0  0  0  0  0  0  0  0  0
   22.2794   -7.9253  -14.8664 C   0  0  0  0  0  0  0  0  0  0  0  0
   22.5374   -6.7215  -14.6495 O   0  0  0  0  0  0  0  0  0  0  0  0
   21.2215   -8.3186  -15.7929 C   0  0  0  0  0  0  0  0  0  0  0  0
   19.8335   -8.1364  -15.2225 C   0  0  2  0  0  0  0  0  0  0  0  0
   18.8702   -8.4779  -16.2535 N   0  0  0  0  0  0  0  0  0  0  0  0
   19.6206   -6.7649  -14.7045 C   0  0  0  0  0  0  0  0  0  0  0  0
   19.7942   -6.5679  -13.3451 O   0  0  0  0  0  0  0  0  0  0  0  0
   19.3008   -5.7966  -15.4064 O   0  0  0  0  0  0  0  0  0  0  0  0
  2  1  1  6
  2  7  1  0
  3  2  1  0
  4  5  1  0
  4  3  1  0
  5  9  1  0
  6  5  2  0
  7 14  1  0
  7  8  2  0
 11 10  1  6
 12 11  1  0
 13 11  1  0
 13 14  1  1
 15 13  1  0
 15 22  1  0
 16 15  2  0
 18 17  1  0
 19 18  2  0
 21 20  1  6
 20 18  1  0
 21 22  1  0
 21 23  1  0
 23 24  1  0
 25 23  2  0
M  END
$$$$
