ETN.pdb
     RDKit          3D

 25 24  0  0  1  0  0  0  0  0999 V2000
   27.6461  -19.5415  -17.2633 N   0  0  0  0  0  0  0  0  0  0  0  0
   26.2570  -20.0081  -17.0655 C   0  0  1  0  0  0  0  0  0  0  0  0
   26.3793  -21.3406  -16.3942 C   0  0  0  0  0  0  0  0  0  0  0  0
   27.0599  -22.4025  -17.1854 C   0  0  0  0  0  0  0  0  0  0  0  0
   28.5109  -22.4956  -16.9397 C   0  0  0  0  0  0  0  0  0  0  0  0
   28.9614  -22.9002  -15.8444 O   0  0  0  0  0  0  0  0  0  0  0  0
   25.5288  -19.0548  -16.1930 C   0  0  0  0  0  0  0  0  0  0  0  0
   26.0827  -18.2117  -15.4663 O   0  0  0  0  0  0  0  0  0  0  0  0
   29.4132  -22.1292  -17.9374 O   0  0  0  0  0  0  0  0  0  0  0  0
   25.2596  -16.4536  -15.8103 C   0  0  0  0  0  0  0  0  0  0  0  0
   23.7821  -16.7032  -16.0047 C   0  0  1  0  0  0  0  0  0  0  0  0
   23.5700  -16.7796  -17.3880 O   0  0  0  0  0  0  0  0  0  0  0  0
   23.3621  -18.0387  -15.4200 C   0  0  2  0  0  0  0  0  0  0  0  0
   24.0919  -19.0610  -16.1448 N   0  0  0  0  0  0  0  0  0  0  0  0
   21.8861  -18.1738  -15.6585 C   0  0  0  0  0  0  0  0  0  0  0  0
   21.4443  -18.8785  -16.6143 O   0  0  0  0  0  0  0  0  0  0  0  0
   18.8303  -20.2946  -14.6325 N   0  0  0  0  0  0  0  0  0  0  0  0
   18.5274  -19.3718  -13.6041 C   0  0  0  0  0  0  0  0  0  0  0  0
   18.0193  -19.7952  -12.5433 O   0  0  0  0  0  0  0  0  0  0  0  0
   18.8101  -17.9521  -13.7951 C   0  0  0  0  0  0  0  0  0  0  0  0
   19.5086  -17.6556  -15.1024 C   0  0  2  0  0  0  0  0  0  0  0  0
   20.9309  -17.5304  -14.8394 N   0  0  0  0  0  0  0  0  0  0  0  0
   18.9636  -16.4465  -15.7626 C   0  0  0  0  0  0  0  0  0  0  0  0
   18.0046  -16.6387  -16.7425 O   0  0  0  0  0  0  0  0  0  0  0  0
   19.3105  -15.2891  -15.4932 O   0  0  0  0  0  0  0  0  0  0  0  0
  2  1  1  1
  2  7  1  0
  3  2  1  0
  4  5  1  0
  4  3  1  0
  5  9  1  0
  6  5  2  0
  7 14  1  0
  7  8  2  0
 11 10  1  6
 12 11  1  0
 13 11  1  0
 13 14  1  6
 15 13  1  0
 15 22  1  0
 16 15  2  0
 18 17  1  0
 19 18  2  0
 21 20  1  1
 20 18  1  0
 21 22  1  0
 21 23  1  0
 23 24  1  0
 25 23  2  0
M  END
$$$$
