ETN.pdb
     RDKit          3D

 25 24  0  0  1  0  0  0  0  0999 V2000
   14.1036   -9.1920  -14.1744 N   0  0  0  0  0  0  0  0  0  0  0  0
   15.3791   -9.9376  -14.1132 C   0  0  1  0  0  0  0  0  0  0  0  0
   14.9910  -11.3683  -13.9039 C   0  0  0  0  0  0  0  0  0  0  0  0
   14.0137  -11.9222  -14.8810 C   0  0  0  0  0  0  0  0  0  0  0  0
   13.5751  -13.2967  -14.5760 C   0  0  0  0  0  0  0  0  0  0  0  0
   14.1858  -14.2908  -15.0289 O   0  0  0  0  0  0  0  0  0  0  0  0
   16.1107   -9.7827  -15.3943 C   0  0  0  0  0  0  0  0  0  0  0  0
   15.6453  -10.0916  -16.5049 O   0  0  0  0  0  0  0  0  0  0  0  0
   12.4591  -13.5108  -13.7681 O   0  0  0  0  0  0  0  0  0  0  0  0
   17.0902   -6.7127  -16.8324 C   0  0  0  0  0  0  0  0  0  0  0  0
   18.3817   -7.4886  -16.7180 C   0  0  1  0  0  0  0  0  0  0  0  0
   18.9556   -7.1275  -15.4914 O   0  0  0  0  0  0  0  0  0  0  0  0
   18.1293   -8.9836  -16.6635 C   0  0  2  0  0  0  0  0  0  0  0  0
   17.4448   -9.2471  -15.4125 N   0  0  0  0  0  0  0  0  0  0  0  0
   19.4729   -9.6532  -16.6818 C   0  0  0  0  0  0  0  0  0  0  0  0
   19.8358  -10.4076  -15.7308 O   0  0  0  0  0  0  0  0  0  0  0  0
   22.5238  -13.6360  -18.7693 N   0  0  0  0  0  0  0  0  0  0  0  0
   22.5123  -12.5284  -17.8895 C   0  0  0  0  0  0  0  0  0  0  0  0
   23.5307  -12.2908  -17.2046 O   0  0  0  0  0  0  0  0  0  0  0  0
   21.3225  -11.6872  -17.7956 C   0  0  0  0  0  0  0  0  0  0  0  0
   21.6383  -10.2090  -17.7919 C   0  0  2  0  0  0  0  0  0  0  0  0
   20.3855   -9.4768  -17.7465 N   0  0  0  0  0  0  0  0  0  0  0  0
   22.4637   -9.8136  -18.9569 C   0  0  0  0  0  0  0  0  0  0  0  0
   23.8075   -9.5725  -18.7275 O   0  0  0  0  0  0  0  0  0  0  0  0
   22.0282   -9.6876  -20.1089 O   0  0  0  0  0  0  0  0  0  0  0  0
  2  1  1  6
  2  7  1  0
  3  2  1  0
  4  5  1  0
  4  3  1  0
  5  9  1  0
  6  5  2  0
  7 14  1  0
  7  8  2  0
 11 10  1  1
 12 11  1  0
 13 11  1  0
 13 14  1  1
 15 13  1  0
 15 22  1  0
 16 15  2  0
 18 17  1  0
 19 18  2  0
 21 20  1  6
 20 18  1  0
 21 22  1  0
 21 23  1  0
 23 24  1  0
 25 23  2  0
M  END
$$$$
