ETN.pdb
     RDKit          3D

 25 24  0  0  1  0  0  0  0  0999 V2000
   16.2276  -11.8686  -15.8090 N   0  0  0  0  0  0  0  0  0  0  0  0
   17.5189  -11.1925  -16.0575 C   0  0  1  0  0  0  0  0  0  0  0  0
   18.3196  -12.1576  -16.8752 C   0  0  0  0  0  0  0  0  0  0  0  0
   18.6248  -13.4601  -16.2219 C   0  0  0  0  0  0  0  0  0  0  0  0
   19.3700  -14.4004  -17.0794 C   0  0  0  0  0  0  0  0  0  0  0  0
   18.9041  -15.5247  -17.3713 O   0  0  0  0  0  0  0  0  0  0  0  0
   17.2890   -9.9387  -16.8161 C   0  0  0  0  0  0  0  0  0  0  0  0
   16.5035   -9.8376  -17.7745 O   0  0  0  0  0  0  0  0  0  0  0  0
   20.6205  -14.0453  -17.5834 O   0  0  0  0  0  0  0  0  0  0  0  0
   15.2502   -8.1729  -17.2502 C   0  0  0  0  0  0  0  0  0  0  0  0
   16.2108   -7.1642  -16.6647 C   0  0  1  0  0  0  0  0  0  0  0  0
   16.1405   -7.3091  -15.2725 O   0  0  0  0  0  0  0  0  0  0  0  0
   17.6431   -7.4616  -17.0671 C   0  0  2  0  0  0  0  0  0  0  0  0
   17.9912   -8.7342  -16.4652 N   0  0  0  0  0  0  0  0  0  0  0  0
   18.4921   -6.3600  -16.5019 C   0  0  0  0  0  0  0  0  0  0  0  0
   18.3663   -5.1676  -16.9114 O   0  0  0  0  0  0  0  0  0  0  0  0
   22.0648   -3.7651  -13.8024 N   0  0  0  0  0  0  0  0  0  0  0  0
   22.1797   -5.1242  -13.4277 C   0  0  0  0  0  0  0  0  0  0  0  0
   23.0600   -5.4507  -12.6023 O   0  0  0  0  0  0  0  0  0  0  0  0
   21.2770   -6.1161  -14.0051 C   0  0  0  0  0  0  0  0  0  0  0  0
   20.3199   -5.5307  -15.0181 C   0  0  2  0  0  0  0  0  0  0  0  0
   19.4595   -6.5965  -15.4991 N   0  0  0  0  0  0  0  0  0  0  0  0
   21.0301   -4.8547  -16.1286 C   0  0  0  0  0  0  0  0  0  0  0  0
   20.9766   -3.4718  -16.1650 O   0  0  0  0  0  0  0  0  0  0  0  0
   21.6609   -5.4459  -17.0148 O   0  0  0  0  0  0  0  0  0  0  0  0
  2  1  1  6
  2  7  1  0
  3  2  1  0
  4  5  1  0
  4  3  1  0
  5  9  1  0
  6  5  2  0
  7 14  1  0
  7  8  2  0
 11 10  1  6
 12 11  1  0
 13 11  1  0
 13 14  1  1
 15 13  1  0
 15 22  1  0
 16 15  2  0
 18 17  1  0
 19 18  2  0
 21 20  1  1
 20 18  1  0
 21 22  1  0
 21 23  1  0
 23 24  1  0
 25 23  2  0
M  END
$$$$
