ETN.pdb
     RDKit          3D

 25 24  0  0  1  0  0  0  0  0999 V2000
   14.3234  -11.6935  -16.1774 N   0  0  0  0  0  0  0  0  0  0  0  0
   15.4983  -11.2355  -15.4053 C   0  0  1  0  0  0  0  0  0  0  0  0
   16.4942  -12.3489  -15.5033 C   0  0  0  0  0  0  0  0  0  0  0  0
   16.0815  -13.6408  -14.8890 C   0  0  0  0  0  0  0  0  0  0  0  0
   17.0324  -14.7442  -15.1186 C   0  0  0  0  0  0  0  0  0  0  0  0
   17.2199  -15.2149  -16.2630 O   0  0  0  0  0  0  0  0  0  0  0  0
   16.0451   -9.9980  -16.0138 C   0  0  0  0  0  0  0  0  0  0  0  0
   15.9909   -9.7351  -17.2277 O   0  0  0  0  0  0  0  0  0  0  0  0
   17.7452  -15.2858  -14.0498 O   0  0  0  0  0  0  0  0  0  0  0  0
   14.9533   -7.5938  -16.9570 C   0  0  0  0  0  0  0  0  0  0  0  0
   15.9121   -6.9068  -16.0127 C   0  0  1  0  0  0  0  0  0  0  0  0
   15.2451   -6.7869  -14.7859 O   0  0  0  0  0  0  0  0  0  0  0  0
   17.1471   -7.7516  -15.7622 C   0  0  2  0  0  0  0  0  0  0  0  0
   16.6887   -9.0057  -15.1965 N   0  0  0  0  0  0  0  0  0  0  0  0
   17.9932   -7.0037  -14.7730 C   0  0  0  0  0  0  0  0  0  0  0  0
   18.1840   -7.4590  -13.6061 O   0  0  0  0  0  0  0  0  0  0  0  0
   22.4499   -4.9581  -13.5808 N   0  0  0  0  0  0  0  0  0  0  0  0
   22.2111   -6.1846  -14.2437 C   0  0  0  0  0  0  0  0  0  0  0  0
   23.1450   -7.0097  -14.3421 O   0  0  0  0  0  0  0  0  0  0  0  0
   20.8897   -6.4661  -14.7977 C   0  0  0  0  0  0  0  0  0  0  0  0
   19.8750   -5.3881  -14.4923 C   0  0  2  0  0  0  0  0  0  0  0  0
   18.6096   -5.7724  -15.0912 N   0  0  0  0  0  0  0  0  0  0  0  0
   20.3217   -4.0552  -14.9598 C   0  0  0  0  0  0  0  0  0  0  0  0
   20.8401   -3.1923  -14.0093 O   0  0  0  0  0  0  0  0  0  0  0  0
   20.2597   -3.6721  -16.1354 O   0  0  0  0  0  0  0  0  0  0  0  0
  2  1  1  6
  2  7  1  0
  3  2  1  0
  4  5  1  0
  4  3  1  0
  5  9  1  0
  6  5  2  0
  7 14  1  0
  7  8  2  0
 11 10  1  6
 12 11  1  0
 13 11  1  0
 13 14  1  1
 15 13  1  0
 15 22  1  0
 16 15  2  0
 18 17  1  0
 19 18  2  0
 21 20  1  6
 20 18  1  0
 21 22  1  0
 21 23  1  0
 23 24  1  0
 25 23  2  0
M  END
$$$$
