ETN.pdb
     RDKit          3D

 25 24  0  0  1  0  0  0  0  0999 V2000
   19.8479  -14.1666  -17.7076 N   0  0  0  0  0  0  0  0  0  0  0  0
   20.5967  -13.1963  -16.8804 C   0  0  1  0  0  0  0  0  0  0  0  0
   22.0375  -13.4114  -17.2257 C   0  0  0  0  0  0  0  0  0  0  0  0
   22.3860  -13.2626  -18.6655 C   0  0  0  0  0  0  0  0  0  0  0  0
   23.5798  -12.4323  -18.9103 C   0  0  0  0  0  0  0  0  0  0  0  0
   23.5203  -11.3964  -19.6100 O   0  0  0  0  0  0  0  0  0  0  0  0
   20.1819  -11.8158  -17.2304 C   0  0  0  0  0  0  0  0  0  0  0  0
   20.2329  -11.3423  -18.3788 O   0  0  0  0  0  0  0  0  0  0  0  0
   24.8077  -12.7946  -18.3583 O   0  0  0  0  0  0  0  0  0  0  0  0
   17.0610  -10.3565  -17.3762 C   0  0  0  0  0  0  0  0  0  0  0  0
   17.7812   -9.4965  -16.3639 C   0  0  1  0  0  0  0  0  0  0  0  0
   17.4947  -10.0401  -15.1043 O   0  0  0  0  0  0  0  0  0  0  0  0
   19.2860   -9.5687  -16.5432 C   0  0  2  0  0  0  0  0  0  0  0  0
   19.6816  -10.9255  -16.2184 N   0  0  0  0  0  0  0  0  0  0  0  0
   19.8877   -8.5958  -15.5710 C   0  0  0  0  0  0  0  0  0  0  0  0
   20.7434   -8.9757  -14.7172 O   0  0  0  0  0  0  0  0  0  0  0  0
   23.1812   -4.3230  -14.7213 N   0  0  0  0  0  0  0  0  0  0  0  0
   22.3802   -5.3166  -14.1115 C   0  0  0  0  0  0  0  0  0  0  0  0
   22.3172   -5.3597  -12.8637 O   0  0  0  0  0  0  0  0  0  0  0  0
   21.6457   -6.2681  -14.9407 C   0  0  0  0  0  0  0  0  0  0  0  0
   20.1636   -6.2946  -14.6445 C   0  0  2  0  0  0  0  0  0  0  0  0
   19.5337   -7.2276  -15.5612 N   0  0  0  0  0  0  0  0  0  0  0  0
   19.5553   -4.9464  -14.7288 C   0  0  0  0  0  0  0  0  0  0  0  0
   19.2938   -4.4483  -15.9938 O   0  0  0  0  0  0  0  0  0  0  0  0
   19.2705   -4.2477  -13.7473 O   0  0  0  0  0  0  0  0  0  0  0  0
  2  1  1  6
  2  7  1  0
  3  2  1  0
  4  5  1  0
  4  3  1  0
  5  9  1  0
  6  5  2  0
  7 14  1  0
  7  8  2  0
 11 10  1  6
 12 11  1  0
 13 11  1  0
 13 14  1  1
 15 13  1  0
 15 22  1  0
 16 15  2  0
 18 17  1  0
 19 18  2  0
 21 20  1  6
 20 18  1  0
 21 22  1  0
 21 23  1  0
 23 24  1  0
 25 23  2  0
M  END
$$$$
