ETN.pdb
     RDKit          3D

 25 24  0  0  1  0  0  0  0  0999 V2000
   30.3527  -24.2872  -16.8206 N   0  0  0  0  0  0  0  0  0  0  0  0
   29.9163  -23.1204  -17.6173 C   0  0  1  0  0  0  0  0  0  0  0  0
   29.1589  -23.6930  -18.7747 C   0  0  0  0  0  0  0  0  0  0  0  0
   29.9146  -24.6459  -19.6335 C   0  0  0  0  0  0  0  0  0  0  0  0
   29.4467  -26.0409  -19.5360 C   0  0  0  0  0  0  0  0  0  0  0  0
   30.1211  -26.9142  -18.9454 O   0  0  0  0  0  0  0  0  0  0  0  0
   29.0317  -22.2574  -16.7968 C   0  0  0  0  0  0  0  0  0  0  0  0
   29.3542  -21.7725  -15.6984 O   0  0  0  0  0  0  0  0  0  0  0  0
   28.2304  -26.4113  -20.1081 O   0  0  0  0  0  0  0  0  0  0  0  0
   28.9786  -19.6268  -16.3761 C   0  0  0  0  0  0  0  0  0  0  0  0
   27.5069  -19.6151  -16.7184 C   0  0  1  0  0  0  0  0  0  0  0  0
   27.4185  -19.3152  -18.0846 O   0  0  0  0  0  0  0  0  0  0  0  0
   26.8804  -20.9835  -16.5260 C   0  0  2  0  0  0  0  0  0  0  0  0
   27.7079  -21.9283  -17.2509 N   0  0  0  0  0  0  0  0  0  0  0  0
   25.5042  -20.9202  -17.1225 C   0  0  0  0  0  0  0  0  0  0  0  0
   24.9713  -21.9480  -17.6371 O   0  0  0  0  0  0  0  0  0  0  0  0
   20.7155  -20.1167  -16.0203 N   0  0  0  0  0  0  0  0  0  0  0  0
   21.7266  -20.4024  -15.0732 C   0  0  0  0  0  0  0  0  0  0  0  0
   21.3934  -20.7953  -13.9342 O   0  0  0  0  0  0  0  0  0  0  0  0
   23.1309  -20.2358  -15.4368 C   0  0  0  0  0  0  0  0  0  0  0  0
   23.3240  -19.7358  -16.8502 C   0  0  2  0  0  0  0  0  0  0  0  0
   24.7467  -19.7271  -17.1387 N   0  0  0  0  0  0  0  0  0  0  0  0
   22.7134  -18.4020  -17.0566 C   0  0  0  0  0  0  0  0  0  0  0  0
   21.5002  -18.3576  -17.7221 O   0  0  0  0  0  0  0  0  0  0  0  0
   23.2175  -17.3379  -16.6740 O   0  0  0  0  0  0  0  0  0  0  0  0
  2  1  1  1
  2  7  1  0
  3  2  1  0
  4  5  1  0
  4  3  1  0
  5  9  1  0
  6  5  2  0
  7 14  1  0
  7  8  2  0
 11 10  1  6
 12 11  1  0
 13 11  1  0
 13 14  1  6
 15 13  1  0
 15 22  1  0
 16 15  2  0
 18 17  1  0
 19 18  2  0
 21 20  1  1
 20 18  1  0
 21 22  1  0
 21 23  1  0
 23 24  1  0
 25 23  2  0
M  END
$$$$
