IWI.pdb
     RDKit          3D

 31 32  0  0  1  0  0  0  0  0999 V2000
   23.1531  -20.9690  -20.5025 C   0  0  0  0  0  0  0  0  0  0  0  0
   23.3057  -19.4565  -20.2952 C   0  0  0  0  0  0  0  0  0  0  0  0
   24.5494  -19.2568  -19.4665 C   0  0  2  0  0  0  0  0  0  0  0  0
   25.7978  -19.2079  -20.2829 C   0  0  0  0  0  0  0  0  0  0  0  0
   24.7296  -20.2817  -18.3842 C   0  0  2  0  0  0  0  0  0  0  0  0
   23.3778  -20.6973  -17.9914 N   0  0  0  0  0  0  0  0  0  0  0  0
   25.4613  -19.7481  -17.2115 C   0  0  0  0  0  0  0  0  0  0  0  0
   26.5929  -19.2337  -17.3916 O   0  0  0  0  0  0  0  0  0  0  0  0
   24.9500  -19.7879  -15.8992 N   0  0  0  0  0  0  0  0  0  0  0  0
   25.7216  -19.2861  -14.7330 C   0  0  1  0  0  0  0  0  0  0  0  0
   24.6884  -18.8545  -13.7435 C   0  0  0  0  0  0  0  0  0  0  0  0
   25.2049  -18.5211  -12.4016 C   0  0  0  0  0  0  0  0  0  0  0  0
   26.1123  -17.5594  -12.0251 C   0  0  0  0  0  0  0  0  0  0  0  0
   26.3241  -17.6166  -10.7031 N   0  0  0  0  0  0  0  0  0  0  0  0
   25.5768  -18.6012  -10.1687 C   0  0  0  0  0  0  0  0  0  0  0  0
   25.4270  -19.0728   -8.8664 C   0  0  0  0  0  0  0  0  0  0  0  0
   24.5808  -20.1138   -8.5909 C   0  0  0  0  0  0  0  0  0  0  0  0
   23.8873  -20.6718   -9.6541 C   0  0  0  0  0  0  0  0  0  0  0  0
   24.0178  -20.2233  -10.9532 C   0  0  0  0  0  0  0  0  0  0  0  0
   24.8803  -19.1671  -11.2125 C   0  0  0  0  0  0  0  0  0  0  0  0
   26.5047  -20.4196  -14.2231 C   0  0  0  0  0  0  0  0  0  0  0  0
   25.9879  -21.5904  -14.3661 O   0  0  0  0  0  0  0  0  0  0  0  0
   31.8331  -22.0803  -11.3980 C   0  0  0  0  0  0  0  0  0  0  0  0
   30.3658  -22.3865  -11.7352 C   0  0  0  0  0  0  0  0  0  0  0  0
   29.7111  -21.1744  -12.3498 C   0  0  2  0  0  0  0  0  0  0  0  0
   29.7897  -19.9897  -11.4136 C   0  0  0  0  0  0  0  0  0  0  0  0
   28.2843  -21.4307  -12.7977 C   0  0  2  0  0  0  0  0  0  0  0  0
   27.7881  -20.3234  -13.5907 N   0  0  0  0  0  0  0  0  0  0  0  0
   27.3919  -21.8383  -11.7182 C   0  0  0  0  0  0  0  0  0  0  0  0
   27.1044  -21.0240  -10.8061 O   0  0  0  0  0  0  0  0  0  0  0  0
   26.8149  -23.0993  -11.6174 O   0  0  0  0  0  0  0  0  0  0  0  0
  2  3  1  0
  2  1  1  0
  3  4  1  6
  5  6  1  1
  5  3  1  0
  7  8  2  0
  7  5  1  0
  9  7  1  0
 10 21  1  0
 10  9  1  0
 10 11  1  1
 12 11  1  0
 13 12  2  0
 14 13  1  0
 15 14  1  0
 15 20  2  0
 16 15  1  0
 17 16  2  0
 17 18  1  0
 18 19  2  0
 19 20  1  0
 20 12  1  0
 21 28  1  0
 22 21  2  0
 23 24  1  0
 24 25  1  0
 25 26  1  1
 25 27  1  0
 27 29  1  0
 27 28  1  1
 29 30  2  0
 29 31  1  0
M  END
$$$$
