IWI.pdb
     RDKit          3D

 31 32  0  0  1  0  0  0  0  0999 V2000
   25.4912  -19.5991  -17.2120 C   0  0  0  0  0  0  0  0  0  0  0  0
   26.6960  -19.9403  -16.3253 C   0  0  0  0  0  0  0  0  0  0  0  0
   26.1418  -20.3917  -14.9976 C   0  0  2  0  0  0  0  0  0  0  0  0
   25.2373  -19.3865  -14.3661 C   0  0  0  0  0  0  0  0  0  0  0  0
   27.1946  -20.7770  -13.9990 C   0  0  2  0  0  0  0  0  0  0  0  0
   27.9070  -21.9200  -14.5826 N   0  0  0  0  0  0  0  0  0  0  0  0
   26.6224  -21.1487  -12.6839 C   0  0  0  0  0  0  0  0  0  0  0  0
   25.8885  -22.1655  -12.6129 O   0  0  0  0  0  0  0  0  0  0  0  0
   26.8611  -20.4170  -11.5037 N   0  0  0  0  0  0  0  0  0  0  0  0
   26.2912  -20.8208  -10.1924 C   0  0  1  0  0  0  0  0  0  0  0  0
   27.1858  -20.1935   -9.1732 C   0  0  0  0  0  0  0  0  0  0  0  0
   26.7896  -20.4152   -7.7687 C   0  0  0  0  0  0  0  0  0  0  0  0
   25.6991  -21.0795   -7.2594 C   0  0  0  0  0  0  0  0  0  0  0  0
   25.7046  -21.0181   -5.9207 N   0  0  0  0  0  0  0  0  0  0  0  0
   26.7806  -20.3230   -5.5055 C   0  0  0  0  0  0  0  0  0  0  0  0
   27.2486  -19.9727   -4.2410 C   0  0  0  0  0  0  0  0  0  0  0  0
   28.3981  -19.2422   -4.0965 C   0  0  0  0  0  0  0  0  0  0  0  0
   29.0682  -18.8706   -5.2523 C   0  0  0  0  0  0  0  0  0  0  0  0
   28.6257  -19.2048   -6.5165 C   0  0  0  0  0  0  0  0  0  0  0  0
   27.4587  -19.9455   -6.6424 C   0  0  0  0  0  0  0  0  0  0  0  0
   24.9358  -20.2582  -10.1278 C   0  0  0  0  0  0  0  0  0  0  0  0
   24.7875  -19.0554  -10.5632 O   0  0  0  0  0  0  0  0  0  0  0  0
   20.9776  -20.0512  -13.5935 C   0  0  0  0  0  0  0  0  0  0  0  0
   21.0084  -20.0314  -12.0575 C   0  0  0  0  0  0  0  0  0  0  0  0
   22.3374  -20.5423  -11.5588 C   0  0  2  0  0  0  0  0  0  0  0  0
   22.6226  -21.9213  -12.1095 C   0  0  0  0  0  0  0  0  0  0  0  0
   22.4562  -20.5160  -10.0464 C   0  0  2  0  0  0  0  0  0  0  0  0
   23.7776  -20.9400   -9.6277 N   0  0  0  0  0  0  0  0  0  0  0  0
   21.3653  -21.1965   -9.3575 C   0  0  0  0  0  0  0  0  0  0  0  0
   20.1753  -20.9010   -9.6300 O   0  0  0  0  0  0  0  0  0  0  0  0
   21.5460  -22.1799   -8.3914 O   0  0  0  0  0  0  0  0  0  0  0  0
  2  3  1  0
  2  1  1  0
  3  4  1  1
  5  6  1  6
  5  3  1  0
  7  8  2  0
  7  5  1  0
  9  7  1  0
 10 21  1  0
 10  9  1  0
 10 11  1  1
 12 11  1  0
 13 12  2  0
 14 13  1  0
 15 14  1  0
 15 20  2  0
 16 15  1  0
 17 16  2  0
 17 18  1  0
 18 19  2  0
 19 20  1  0
 20 12  1  0
 21 28  1  0
 22 21  2  0
 23 24  1  0
 24 25  1  0
 25 26  1  1
 25 27  1  0
 27 29  1  0
 27 28  1  6
 29 30  2  0
 29 31  1  0
M  END
$$$$
