IWI.pdb
     RDKit          3D

 31 32  0  0  1  0  0  0  0  0999 V2000
   25.9830  -18.1367  -15.6068 C   0  0  0  0  0  0  0  0  0  0  0  0
   26.5769  -19.3974  -14.9650 C   0  0  0  0  0  0  0  0  0  0  0  0
   27.7263  -18.9426  -14.1014 C   0  0  2  0  0  0  0  0  0  0  0  0
   28.7801  -18.2106  -14.8637 C   0  0  0  0  0  0  0  0  0  0  0  0
   28.3819  -20.0509  -13.3293 C   0  0  2  0  0  0  0  0  0  0  0  0
   28.8689  -21.0081  -14.3300 N   0  0  0  0  0  0  0  0  0  0  0  0
   27.4497  -20.7205  -12.3925 C   0  0  0  0  0  0  0  0  0  0  0  0
   26.9599  -21.8294  -12.7212 O   0  0  0  0  0  0  0  0  0  0  0  0
   27.0835  -20.1747  -11.1463 N   0  0  0  0  0  0  0  0  0  0  0  0
   26.1209  -20.8499  -10.2380 C   0  0  1  0  0  0  0  0  0  0  0  0
   26.3757  -20.2524   -8.8924 C   0  0  0  0  0  0  0  0  0  0  0  0
   27.5715  -20.7641   -8.1946 C   0  0  0  0  0  0  0  0  0  0  0  0
   28.5209  -21.6610   -8.6238 C   0  0  0  0  0  0  0  0  0  0  0  0
   29.4265  -21.8721   -7.6589 N   0  0  0  0  0  0  0  0  0  0  0  0
   29.1128  -21.1346   -6.5767 C   0  0  0  0  0  0  0  0  0  0  0  0
   29.7114  -20.9885   -5.3272 C   0  0  0  0  0  0  0  0  0  0  0  0
   29.1727  -20.1528   -4.3853 C   0  0  0  0  0  0  0  0  0  0  0  0
   28.0173  -19.4662   -4.7266 C   0  0  0  0  0  0  0  0  0  0  0  0
   27.4047  -19.5934   -5.9571 C   0  0  0  0  0  0  0  0  0  0  0  0
   27.9658  -20.4450   -6.8986 C   0  0  0  0  0  0  0  0  0  0  0  0
   24.7749  -20.5148  -10.7218 C   0  0  0  0  0  0  0  0  0  0  0  0
   24.4386  -19.2723  -10.6817 O   0  0  0  0  0  0  0  0  0  0  0  0
   21.3681  -21.8195  -15.5030 C   0  0  0  0  0  0  0  0  0  0  0  0
   21.3651  -21.1627  -14.1141 C   0  0  0  0  0  0  0  0  0  0  0  0
   22.5589  -21.6279  -13.3178 C   0  0  2  0  0  0  0  0  0  0  0  0
   22.5776  -23.1360  -13.2108 C   0  0  0  0  0  0  0  0  0  0  0  0
   22.6541  -20.9760  -11.9511 C   0  0  2  0  0  0  0  0  0  0  0  0
   23.8199  -21.4538  -11.2342 N   0  0  0  0  0  0  0  0  0  0  0  0
   21.4158  -21.0347  -11.1824 C   0  0  0  0  0  0  0  0  0  0  0  0
   20.3767  -20.4906  -11.6318 O   0  0  0  0  0  0  0  0  0  0  0  0
   21.2917  -21.6678   -9.9507 O   0  0  0  0  0  0  0  0  0  0  0  0
  2  3  1  0
  2  1  1  0
  3  4  1  6
  5  6  1  6
  5  3  1  0
  7  8  2  0
  7  5  1  0
  9  7  1  0
 10 21  1  0
 10  9  1  0
 10 11  1  1
 12 11  1  0
 13 12  2  0
 14 13  1  0
 15 14  1  0
 15 20  2  0
 16 15  1  0
 17 16  2  0
 17 18  1  0
 18 19  2  0
 19 20  1  0
 20 12  1  0
 21 28  1  0
 22 21  2  0
 23 24  1  0
 24 25  1  0
 25 26  1  1
 25 27  1  0
 27 29  1  0
 27 28  1  1
 29 30  2  0
 29 31  1  0
M  END
$$$$
