IWI.pdb
     RDKit          3D

 31 32  0  0  1  0  0  0  0  0999 V2000
   29.5459  -20.3263  -16.8529 C   0  0  0  0  0  0  0  0  0  0  0  0
   28.7613  -19.0078  -16.8642 C   0  0  0  0  0  0  0  0  0  0  0  0
   28.1579  -18.8517  -15.4913 C   0  0  2  0  0  0  0  0  0  0  0  0
   29.1708  -18.5636  -14.4337 C   0  0  0  0  0  0  0  0  0  0  0  0
   27.3342  -20.0277  -15.0522 C   0  0  2  0  0  0  0  0  0  0  0  0
   26.3925  -20.2932  -16.1464 N   0  0  0  0  0  0  0  0  0  0  0  0
   26.5958  -19.7672  -13.7943 C   0  0  0  0  0  0  0  0  0  0  0  0
   26.0720  -18.6379  -13.6272 O   0  0  0  0  0  0  0  0  0  0  0  0
   26.4504  -20.7259  -12.7721 N   0  0  0  0  0  0  0  0  0  0  0  0
   25.5324  -20.5238  -11.6215 C   0  0  1  0  0  0  0  0  0  0  0  0
   24.4410  -21.5252  -11.8181 C   0  0  0  0  0  0  0  0  0  0  0  0
   23.0973  -20.9547  -12.0363 C   0  0  0  0  0  0  0  0  0  0  0  0
   21.9589  -21.0753  -11.2750 C   0  0  0  0  0  0  0  0  0  0  0  0
   20.9444  -20.4184  -11.8538 N   0  0  0  0  0  0  0  0  0  0  0  0
   21.3696  -19.8501  -12.9983 C   0  0  0  0  0  0  0  0  0  0  0  0
   20.7301  -19.0731  -13.9616 C   0  0  0  0  0  0  0  0  0  0  0  0
   21.4118  -18.6129  -15.0568 C   0  0  0  0  0  0  0  0  0  0  0  0
   22.7523  -18.9511  -15.1631 C   0  0  0  0  0  0  0  0  0  0  0  0
   23.4093  -19.7194  -14.2229 C   0  0  0  0  0  0  0  0  0  0  0  0
   22.7014  -20.1764  -13.1200 C   0  0  0  0  0  0  0  0  0  0  0  0
   26.3057  -20.8124  -10.4063 C   0  0  0  0  0  0  0  0  0  0  0  0
   27.1061  -21.8200  -10.4559 O   0  0  0  0  0  0  0  0  0  0  0  0
   29.1091  -19.1107   -5.2885 C   0  0  0  0  0  0  0  0  0  0  0  0
   28.3016  -20.2022   -6.0076 C   0  0  0  0  0  0  0  0  0  0  0  0
   27.5570  -19.6101   -7.1784 C   0  0  2  0  0  0  0  0  0  0  0  0
   26.6819  -18.4608   -6.7316 C   0  0  0  0  0  0  0  0  0  0  0  0
   26.7614  -20.6387   -7.9602 C   0  0  2  0  0  0  0  0  0  0  0  0
   26.2420  -20.0634   -9.1852 N   0  0  0  0  0  0  0  0  0  0  0  0
   25.7641  -21.3432   -7.1624 C   0  0  0  0  0  0  0  0  0  0  0  0
   24.5421  -21.1528   -7.3821 O   0  0  0  0  0  0  0  0  0  0  0  0
   26.0707  -22.2394   -6.1445 O   0  0  0  0  0  0  0  0  0  0  0  0
  2  3  1  0
  2  1  1  0
  3  4  1  1
  5  6  1  6
  5  3  1  0
  7  8  2  0
  7  5  1  0
  9  7  1  0
 10 21  1  0
 10  9  1  0
 10 11  1  6
 12 11  1  0
 13 12  2  0
 14 13  1  0
 15 14  1  0
 15 20  2  0
 16 15  1  0
 17 16  2  0
 17 18  1  0
 18 19  2  0
 19 20  1  0
 20 12  1  0
 21 28  1  0
 22 21  2  0
 23 24  1  0
 24 25  1  0
 25 26  1  1
 25 27  1  0
 27 29  1  0
 27 28  1  6
 29 30  2  0
 29 31  1  0
M  END
$$$$
