IWI.pdb
     RDKit          3D

 31 32  0  0  1  0  0  0  0  0999 V2000
   12.4005  -11.2221  -15.3019 C   0  0  0  0  0  0  0  0  0  0  0  0
   13.8667  -10.9741  -15.6799 C   0  0  0  0  0  0  0  0  0  0  0  0
   14.5422  -10.4193  -14.4513 C   0  0  2  0  0  0  0  0  0  0  0  0
   13.8556   -9.2160  -13.8962 C   0  0  0  0  0  0  0  0  0  0  0  0
   15.9927  -10.0880  -14.6526 C   0  0  2  0  0  0  0  0  0  0  0  0
   16.6633  -11.3625  -14.9362 N   0  0  0  0  0  0  0  0  0  0  0  0
   16.5995   -9.4444  -13.4640 C   0  0  0  0  0  0  0  0  0  0  0  0
   16.9893  -10.1734  -12.5184 O   0  0  0  0  0  0  0  0  0  0  0  0
   16.7627   -8.0504  -13.3401 N   0  0  0  0  0  0  0  0  0  0  0  0
   17.5025   -7.4372  -12.2069 C   0  0  1  0  0  0  0  0  0  0  0  0
   18.6309   -6.6910  -12.8415 C   0  0  0  0  0  0  0  0  0  0  0  0
   19.8027   -7.5127  -13.2023 C   0  0  0  0  0  0  0  0  0  0  0  0
   20.1154   -8.1179  -14.3964 C   0  0  0  0  0  0  0  0  0  0  0  0
   21.2649   -8.7973  -14.2828 N   0  0  0  0  0  0  0  0  0  0  0  0
   21.7440   -8.6671  -13.0310 C   0  0  0  0  0  0  0  0  0  0  0  0
   22.8822   -9.1626  -12.3988 C   0  0  0  0  0  0  0  0  0  0  0  0
   23.1370   -8.8718  -11.0848 C   0  0  0  0  0  0  0  0  0  0  0  0
   22.2215   -8.0711  -10.4188 C   0  0  0  0  0  0  0  0  0  0  0  0
   21.0864   -7.5676  -11.0220 C   0  0  0  0  0  0  0  0  0  0  0  0
   20.8456   -7.8734  -12.3543 C   0  0  0  0  0  0  0  0  0  0  0  0
   16.5695   -6.5209  -11.5376 C   0  0  0  0  0  0  0  0  0  0  0  0
   15.8274   -5.7936  -12.2984 O   0  0  0  0  0  0  0  0  0  0  0  0
   12.6581   -6.0602   -6.9457 C   0  0  0  0  0  0  0  0  0  0  0  0
   13.5247   -5.2642   -7.9337 C   0  0  0  0  0  0  0  0  0  0  0  0
   14.6238   -6.1401   -8.4819 C   0  0  2  0  0  0  0  0  0  0  0  0
   15.5246   -6.6292   -7.3703 C   0  0  0  0  0  0  0  0  0  0  0  0
   15.4219   -5.4732   -9.5866 C   0  0  2  0  0  0  0  0  0  0  0  0
   16.4199   -6.3801  -10.1184 N   0  0  0  0  0  0  0  0  0  0  0  0
   15.9419   -4.1587   -9.2269 C   0  0  0  0  0  0  0  0  0  0  0  0
   17.1697   -4.0131   -9.0057 O   0  0  0  0  0  0  0  0  0  0  0  0
   15.1585   -3.0163   -9.1068 O   0  0  0  0  0  0  0  0  0  0  0  0
  2  3  1  0
  2  1  1  0
  3  4  1  6
  5  6  1  1
  5  3  1  0
  7  8  2  0
  7  5  1  0
  9  7  1  0
 10 21  1  0
 10  9  1  0
 10 11  1  6
 12 11  1  0
 13 12  2  0
 14 13  1  0
 15 14  1  0
 15 20  2  0
 16 15  1  0
 17 16  2  0
 17 18  1  0
 18 19  2  0
 19 20  1  0
 20 12  1  0
 21 28  1  0
 22 21  2  0
 23 24  1  0
 24 25  1  0
 25 26  1  1
 25 27  1  0
 27 29  1  0
 27 28  1  1
 29 30  2  0
 29 31  1  0
M  END
$$$$
