IWI.pdb
     RDKit          3D

 31 32  0  0  1  0  0  0  0  0999 V2000
   16.1057   -8.5162  -19.8973 C   0  0  0  0  0  0  0  0  0  0  0  0
   16.0270   -9.3684  -18.6240 C   0  0  0  0  0  0  0  0  0  0  0  0
   16.6874   -8.5707  -17.5281 C   0  0  2  0  0  0  0  0  0  0  0  0
   16.1612   -7.1786  -17.4159 C   0  0  0  0  0  0  0  0  0  0  0  0
   18.1831   -8.5054  -17.6407 C   0  0  2  0  0  0  0  0  0  0  0  0
   18.6485   -9.8974  -17.6606 N   0  0  0  0  0  0  0  0  0  0  0  0
   18.8072   -7.7739  -16.5136 C   0  0  0  0  0  0  0  0  0  0  0  0
   18.4008   -8.0050  -15.3478 O   0  0  0  0  0  0  0  0  0  0  0  0
   19.8380   -6.8285  -16.6834 N   0  0  0  0  0  0  0  0  0  0  0  0
   20.4358   -6.0942  -15.5385 C   0  0  1  0  0  0  0  0  0  0  0  0
   21.8976   -6.3963  -15.6073 C   0  0  0  0  0  0  0  0  0  0  0  0
   22.2979   -7.6953  -15.0320 C   0  0  0  0  0  0  0  0  0  0  0  0
   22.8745   -8.7842  -15.6418 C   0  0  0  0  0  0  0  0  0  0  0  0
   23.0459   -9.7736  -14.7542 N   0  0  0  0  0  0  0  0  0  0  0  0
   22.5964   -9.3797  -13.5475 C   0  0  0  0  0  0  0  0  0  0  0  0
   22.5408  -10.0125  -12.3075 C   0  0  0  0  0  0  0  0  0  0  0  0
   22.0208   -9.3701  -11.2154 C   0  0  0  0  0  0  0  0  0  0  0  0
   21.5570   -8.0759  -11.3966 C   0  0  0  0  0  0  0  0  0  0  0  0
   21.6007   -7.4267  -12.6142 C   0  0  0  0  0  0  0  0  0  0  0  0
   22.1313   -8.0943  -13.7092 C   0  0  0  0  0  0  0  0  0  0  0  0
   20.1770   -4.6666  -15.7687 C   0  0  0  0  0  0  0  0  0  0  0  0
   20.3327   -4.2374  -16.9728 O   0  0  0  0  0  0  0  0  0  0  0  0
   16.4835   -0.1068  -15.4605 C   0  0  0  0  0  0  0  0  0  0  0  0
   17.9823   -0.4442  -15.4409 C   0  0  0  0  0  0  0  0  0  0  0  0
   18.1843   -1.8852  -15.0428 C   0  0  2  0  0  0  0  0  0  0  0  0
   17.5886   -2.1534  -13.6792 C   0  0  0  0  0  0  0  0  0  0  0  0
   19.6355   -2.3233  -15.1076 C   0  0  2  0  0  0  0  0  0  0  0  0
   19.7639   -3.7266  -14.7676 N   0  0  0  0  0  0  0  0  0  0  0  0
   20.5485   -1.4477  -14.3814 C   0  0  0  0  0  0  0  0  0  0  0  0
   20.7317   -0.2704  -14.7790 O   0  0  0  0  0  0  0  0  0  0  0  0
   21.2546   -1.8270  -13.2452 O   0  0  0  0  0  0  0  0  0  0  0  0
  2  3  1  0
  2  1  1  0
  3  4  1  6
  5  6  1  1
  5  3  1  0
  7  8  2  0
  7  5  1  0
  9  7  1  0
 10 21  1  0
 10  9  1  0
 10 11  1  6
 12 11  1  0
 13 12  2  0
 14 13  1  0
 15 14  1  0
 15 20  2  0
 16 15  1  0
 17 16  2  0
 17 18  1  0
 18 19  2  0
 19 20  1  0
 20 12  1  0
 21 28  1  0
 22 21  2  0
 23 24  1  0
 24 25  1  0
 25 26  1  1
 25 27  1  0
 27 29  1  0
 27 28  1  1
 29 30  2  0
 29 31  1  0
M  END
$$$$
