IWI.pdb
     RDKit          3D

 31 32  0  0  1  0  0  0  0  0999 V2000
   29.1856  -32.5524  -15.8508 C   0  0  0  0  0  0  0  0  0  0  0  0
   28.0233  -31.5942  -16.1418 C   0  0  0  0  0  0  0  0  0  0  0  0
   27.2602  -32.1799  -17.3029 C   0  0  2  0  0  0  0  0  0  0  0  0
   28.0787  -32.2957  -18.5455 C   0  0  0  0  0  0  0  0  0  0  0  0
   25.9960  -31.4408  -17.6341 C   0  0  2  0  0  0  0  0  0  0  0  0
   26.4151  -30.1249  -18.1313 N   0  0  0  0  0  0  0  0  0  0  0  0
   25.1047  -31.2838  -16.4610 C   0  0  0  0  0  0  0  0  0  0  0  0
   24.8936  -30.1283  -16.0162 O   0  0  0  0  0  0  0  0  0  0  0  0
   24.4789  -32.3693  -15.8165 N   0  0  0  0  0  0  0  0  0  0  0  0
   23.5010  -32.1791  -14.7143 C   0  0  1  0  0  0  0  0  0  0  0  0
   22.2516  -32.8486  -15.1871 C   0  0  0  0  0  0  0  0  0  0  0  0
   21.1274  -32.8270  -14.2308 C   0  0  0  0  0  0  0  0  0  0  0  0
   20.9753  -33.4981  -13.0406 C   0  0  0  0  0  0  0  0  0  0  0  0
   19.7824  -33.2148  -12.4999 N   0  0  0  0  0  0  0  0  0  0  0  0
   19.1158  -32.3610  -13.3000 C   0  0  0  0  0  0  0  0  0  0  0  0
   17.8605  -31.7638  -13.2070 C   0  0  0  0  0  0  0  0  0  0  0  0
   17.4142  -30.9145  -14.1844 C   0  0  0  0  0  0  0  0  0  0  0  0
   18.2578  -30.6781  -15.2592 C   0  0  0  0  0  0  0  0  0  0  0  0
   19.5056  -31.2571  -15.3752 C   0  0  0  0  0  0  0  0  0  0  0  0
   19.9404  -32.1149  -14.3744 C   0  0  0  0  0  0  0  0  0  0  0  0
   24.0540  -32.8584  -13.5349 C   0  0  0  0  0  0  0  0  0  0  0  0
   24.5594  -34.0275  -13.7248 O   0  0  0  0  0  0  0  0  0  0  0  0
   26.0063  -32.0195   -7.6705 C   0  0  0  0  0  0  0  0  0  0  0  0
   25.6394  -32.9834   -8.8092 C   0  0  0  0  0  0  0  0  0  0  0  0
   25.0151  -32.2221   -9.9522 C   0  0  2  0  0  0  0  0  0  0  0  0
   23.8343  -31.4082   -9.4730 C   0  0  0  0  0  0  0  0  0  0  0  0
   24.6354  -33.1100  -11.1225 C   0  0  2  0  0  0  0  0  0  0  0  0
   24.0786  -32.3229  -12.2049 N   0  0  0  0  0  0  0  0  0  0  0  0
   23.8274  -34.2653  -10.7481 C   0  0  0  0  0  0  0  0  0  0  0  0
   24.3891  -35.3204  -10.3623 O   0  0  0  0  0  0  0  0  0  0  0  0
   22.4377  -34.2900  -10.7853 O   0  0  0  0  0  0  0  0  0  0  0  0
  2  3  1  0
  2  1  1  0
  3  4  1  6
  5  6  1  1
  5  3  1  0
  7  8  2  0
  7  5  1  0
  9  7  1  0
 10 21  1  0
 10  9  1  0
 10 11  1  6
 12 11  1  0
 13 12  2  0
 14 13  1  0
 15 14  1  0
 15 20  2  0
 16 15  1  0
 17 16  2  0
 17 18  1  0
 18 19  2  0
 19 20  1  0
 20 12  1  0
 21 28  1  0
 22 21  2  0
 23 24  1  0
 24 25  1  0
 25 26  1  1
 25 27  1  0
 27 29  1  0
 27 28  1  6
 29 30  2  0
 29 31  1  0
M  END
$$$$
