IWI.pdb
     RDKit          3D

 31 32  0  0  1  0  0  0  0  0999 V2000
   27.5754  -16.4986  -16.7597 C   0  0  0  0  0  0  0  0  0  0  0  0
   28.1533  -16.9219  -15.4030 C   0  0  0  0  0  0  0  0  0  0  0  0
   27.4542  -18.2003  -15.0150 C   0  0  2  0  0  0  0  0  0  0  0  0
   25.9664  -18.0830  -15.0259 C   0  0  0  0  0  0  0  0  0  0  0  0
   27.8780  -18.7441  -13.6812 C   0  0  2  0  0  0  0  0  0  0  0  0
   29.2990  -19.0863  -13.8168 N   0  0  0  0  0  0  0  0  0  0  0  0
   27.1002  -19.9400  -13.2812 C   0  0  0  0  0  0  0  0  0  0  0  0
   27.3195  -21.0259  -13.8730 O   0  0  0  0  0  0  0  0  0  0  0  0
   26.1232  -19.9211  -12.2661 N   0  0  0  0  0  0  0  0  0  0  0  0
   25.3686  -21.1382  -11.8704 C   0  0  1  0  0  0  0  0  0  0  0  0
   25.1040  -20.9702  -10.4094 C   0  0  0  0  0  0  0  0  0  0  0  0
   26.2824  -20.6142   -9.5949 C   0  0  0  0  0  0  0  0  0  0  0  0
   26.3993  -19.7015   -8.5735 C   0  0  0  0  0  0  0  0  0  0  0  0
   27.6613  -19.6706   -8.1238 N   0  0  0  0  0  0  0  0  0  0  0  0
   28.4098  -20.5470   -8.8204 C   0  0  0  0  0  0  0  0  0  0  0  0
   29.7562  -20.8992   -8.7567 C   0  0  0  0  0  0  0  0  0  0  0  0
   30.2746  -21.8431   -9.6030 C   0  0  0  0  0  0  0  0  0  0  0  0
   29.4093  -22.4262  -10.5163 C   0  0  0  0  0  0  0  0  0  0  0  0
   28.0718  -22.0949  -10.5998 C   0  0  0  0  0  0  0  0  0  0  0  0
   27.5650  -21.1362   -9.7336 C   0  0  0  0  0  0  0  0  0  0  0  0
   24.1179  -21.1310  -12.6410 C   0  0  0  0  0  0  0  0  0  0  0  0
   23.6347  -19.9776  -12.9484 O   0  0  0  0  0  0  0  0  0  0  0  0
   21.1776  -24.0842  -17.1016 C   0  0  0  0  0  0  0  0  0  0  0  0
   21.0625  -23.0585  -15.9635 C   0  0  0  0  0  0  0  0  0  0  0  0
   22.2407  -23.1855  -15.0299 C   0  0  2  0  0  0  0  0  0  0  0  0
   22.3364  -24.5887  -14.4749 C   0  0  0  0  0  0  0  0  0  0  0  0
   22.2350  -22.1515  -13.9195 C   0  0  2  0  0  0  0  0  0  0  0  0
   23.4054  -22.2967  -13.0766 N   0  0  0  0  0  0  0  0  0  0  0  0
   20.9764  -22.0815  -13.1856 C   0  0  0  0  0  0  0  0  0  0  0  0
   19.9230  -21.7510  -13.7845 O   0  0  0  0  0  0  0  0  0  0  0  0
   20.8474  -22.3625  -11.8300 O   0  0  0  0  0  0  0  0  0  0  0  0
  2  3  1  0
  2  1  1  0
  3  4  1  1
  5  6  1  6
  5  3  1  0
  7  8  2  0
  7  5  1  0
  9  7  1  0
 10 21  1  0
 10  9  1  0
 10 11  1  1
 12 11  1  0
 13 12  2  0
 14 13  1  0
 15 14  1  0
 15 20  2  0
 16 15  1  0
 17 16  2  0
 17 18  1  0
 18 19  2  0
 19 20  1  0
 20 12  1  0
 21 28  1  0
 22 21  2  0
 23 24  1  0
 24 25  1  0
 25 26  1  1
 25 27  1  0
 27 29  1  0
 27 28  1  1
 29 30  2  0
 29 31  1  0
M  END
$$$$
