IWI.pdb
     RDKit          3D

 31 32  0  0  1  0  0  0  0  0999 V2000
   28.5361  -20.0045  -14.6536 C   0  0  0  0  0  0  0  0  0  0  0  0
   27.0835  -19.7023  -14.2627 C   0  0  0  0  0  0  0  0  0  0  0  0
   26.6995  -20.7125  -13.2112 C   0  0  2  0  0  0  0  0  0  0  0  0
   26.8794  -22.1246  -13.6596 C   0  0  0  0  0  0  0  0  0  0  0  0
   25.2978  -20.5522  -12.6976 C   0  0  2  0  0  0  0  0  0  0  0  0
   25.0233  -19.1103  -12.7141 N   0  0  0  0  0  0  0  0  0  0  0  0
   25.1292  -21.0890  -11.3270 C   0  0  0  0  0  0  0  0  0  0  0  0
   25.1667  -22.3332  -11.1595 O   0  0  0  0  0  0  0  0  0  0  0  0
   24.9287  -20.2714  -10.1972 N   0  0  0  0  0  0  0  0  0  0  0  0
   24.7357  -20.8348   -8.8361 C   0  0  1  0  0  0  0  0  0  0  0  0
   25.4260  -19.8768   -7.9204 C   0  0  0  0  0  0  0  0  0  0  0  0
   26.8617  -20.1409   -7.7020 C   0  0  0  0  0  0  0  0  0  0  0  0
   27.7802  -20.7373   -8.5330 C   0  0  0  0  0  0  0  0  0  0  0  0
   28.9742  -20.8055   -7.9285 N   0  0  0  0  0  0  0  0  0  0  0  0
   28.8881  -20.2657   -6.6978 C   0  0  0  0  0  0  0  0  0  0  0  0
   29.8190  -20.0891   -5.6765 C   0  0  0  0  0  0  0  0  0  0  0  0
   29.4595  -19.4970   -4.4950 C   0  0  0  0  0  0  0  0  0  0  0  0
   28.1419  -19.0857   -4.3617 C   0  0  0  0  0  0  0  0  0  0  0  0
   27.2004  -19.2491   -5.3580 C   0  0  0  0  0  0  0  0  0  0  0  0
   27.5840  -19.8513   -6.5482 C   0  0  0  0  0  0  0  0  0  0  0  0
   23.2880  -20.8575   -8.5878 C   0  0  0  0  0  0  0  0  0  0  0  0
   22.6336  -19.7888   -8.8842 O   0  0  0  0  0  0  0  0  0  0  0  0
   19.1698  -21.5083  -11.2796 C   0  0  0  0  0  0  0  0  0  0  0  0
   19.7595  -21.0850   -9.9255 C   0  0  0  0  0  0  0  0  0  0  0  0
   20.4638  -22.2519   -9.2790 C   0  0  2  0  0  0  0  0  0  0  0  0
   19.5282  -23.4310   -9.1363 C   0  0  0  0  0  0  0  0  0  0  0  0
   21.1112  -21.8968   -7.9535 C   0  0  2  0  0  0  0  0  0  0  0  0
   22.5556  -21.9679   -8.0520 N   0  0  0  0  0  0  0  0  0  0  0  0
   20.5549  -22.6179   -6.8140 C   0  0  0  0  0  0  0  0  0  0  0  0
   21.2963  -23.3609   -6.1241 O   0  0  0  0  0  0  0  0  0  0  0  0
   19.2240  -22.5436   -6.4184 O   0  0  0  0  0  0  0  0  0  0  0  0
  2  3  1  0
  2  1  1  0
  3  4  1  6
  5  6  1  1
  5  3  1  0
  7  8  2  0
  7  5  1  0
  9  7  1  0
 10 21  1  0
 10  9  1  0
 10 11  1  1
 12 11  1  0
 13 12  2  0
 14 13  1  0
 15 14  1  0
 15 20  2  0
 16 15  1  0
 17 16  2  0
 17 18  1  0
 18 19  2  0
 19 20  1  0
 20 12  1  0
 21 28  1  0
 22 21  2  0
 23 24  1  0
 24 25  1  0
 25 26  1  1
 25 27  1  0
 27 29  1  0
 27 28  1  6
 29 30  2  0
 29 31  1  0
M  END
$$$$
