IWI.pdb
     RDKit          3D

 31 32  0  0  1  0  0  0  0  0999 V2000
   23.1445  -19.0553  -14.4620 C   0  0  0  0  0  0  0  0  0  0  0  0
   24.1434  -20.2190  -14.5058 C   0  0  0  0  0  0  0  0  0  0  0  0
   24.1110  -20.8683  -13.1453 C   0  0  2  0  0  0  0  0  0  0  0  0
   22.7539  -21.3542  -12.7583 C   0  0  0  0  0  0  0  0  0  0  0  0
   24.6351  -19.9948  -12.0424 C   0  0  2  0  0  0  0  0  0  0  0  0
   25.9903  -19.6018  -12.4468 N   0  0  0  0  0  0  0  0  0  0  0  0
   24.6734  -20.6907  -10.7349 C   0  0  0  0  0  0  0  0  0  0  0  0
   25.1709  -21.8427  -10.6810 O   0  0  0  0  0  0  0  0  0  0  0  0
   24.1785  -20.1234   -9.5439 N   0  0  0  0  0  0  0  0  0  0  0  0
   24.3096  -20.8025   -8.2290 C   0  0  1  0  0  0  0  0  0  0  0  0
   24.8896  -19.7701   -7.3177 C   0  0  0  0  0  0  0  0  0  0  0  0
   26.3642  -19.7402   -7.2608 C   0  0  0  0  0  0  0  0  0  0  0  0
   27.2764  -19.5193   -8.2653 C   0  0  0  0  0  0  0  0  0  0  0  0
   28.5239  -19.6098   -7.7845 N   0  0  0  0  0  0  0  0  0  0  0  0
   28.4806  -19.8888   -6.4677 C   0  0  0  0  0  0  0  0  0  0  0  0
   29.4736  -20.0833   -5.5102 C   0  0  0  0  0  0  0  0  0  0  0  0
   29.1480  -20.3622   -4.2094 C   0  0  0  0  0  0  0  0  0  0  0  0
   27.8007  -20.4416   -3.8912 C   0  0  0  0  0  0  0  0  0  0  0  0
   26.7978  -20.2531   -4.8209 C   0  0  0  0  0  0  0  0  0  0  0  0
   27.1477  -19.9713   -6.1341 C   0  0  0  0  0  0  0  0  0  0  0  0
   22.9532  -21.1797   -7.8095 C   0  0  0  0  0  0  0  0  0  0  0  0
   22.0483  -20.2670   -7.8894 O   0  0  0  0  0  0  0  0  0  0  0  0
   20.3056  -25.2980   -9.6903 C   0  0  0  0  0  0  0  0  0  0  0  0
   20.7101  -23.9353   -9.1074 C   0  0  0  0  0  0  0  0  0  0  0  0
   20.6623  -23.9810   -7.6003 C   0  0  2  0  0  0  0  0  0  0  0  0
   19.2683  -24.3129   -7.1177 C   0  0  0  0  0  0  0  0  0  0  0  0
   21.1854  -22.7144   -6.9489 C   0  0  2  0  0  0  0  0  0  0  0  0
   22.5634  -22.4731   -7.3284 N   0  0  0  0  0  0  0  0  0  0  0  0
   20.9417  -22.6465   -5.5124 C   0  0  0  0  0  0  0  0  0  0  0  0
   21.8373  -23.0101   -4.7102 O   0  0  0  0  0  0  0  0  0  0  0  0
   19.7565  -22.1947   -4.9429 O   0  0  0  0  0  0  0  0  0  0  0  0
  2  3  1  0
  2  1  1  0
  3  4  1  1
  5  6  1  6
  5  3  1  0
  7  8  2  0
  7  5  1  0
  9  7  1  0
 10 21  1  0
 10  9  1  0
 10 11  1  1
 12 11  1  0
 13 12  2  0
 14 13  1  0
 15 14  1  0
 15 20  2  0
 16 15  1  0
 17 16  2  0
 17 18  1  0
 18 19  2  0
 19 20  1  0
 20 12  1  0
 21 28  1  0
 22 21  2  0
 23 24  1  0
 24 25  1  0
 25 26  1  6
 25 27  1  0
 27 29  1  0
 27 28  1  1
 29 30  2  0
 29 31  1  0
M  END
$$$$
