IWI.pdb
     RDKit          3D

 31 32  0  0  1  0  0  0  0  0999 V2000
   27.3470  -19.6771  -14.6004 C   0  0  0  0  0  0  0  0  0  0  0  0
   25.8991  -19.5811  -14.1021 C   0  0  0  0  0  0  0  0  0  0  0  0
   25.8119  -20.4312  -12.8598 C   0  0  2  0  0  0  0  0  0  0  0  0
   26.2669  -21.8361  -13.0762 C   0  0  0  0  0  0  0  0  0  0  0  0
   24.4443  -20.4649  -12.2412 C   0  0  2  0  0  0  0  0  0  0  0  0
   24.0139  -19.0656  -12.1347 N   0  0  0  0  0  0  0  0  0  0  0  0
   24.4401  -21.1041  -10.9046 C   0  0  0  0  0  0  0  0  0  0  0  0
   24.5943  -22.3485  -10.8325 O   0  0  0  0  0  0  0  0  0  0  0  0
   24.2717  -20.3841   -9.7052 N   0  0  0  0  0  0  0  0  0  0  0  0
   24.1711  -21.0574   -8.3847 C   0  0  1  0  0  0  0  0  0  0  0  0
   24.8846  -20.1517   -7.4343 C   0  0  0  0  0  0  0  0  0  0  0  0
   26.3548  -20.2829   -7.4260 C   0  0  0  0  0  0  0  0  0  0  0  0
   27.2081  -20.6527   -8.4385 C   0  0  0  0  0  0  0  0  0  0  0  0
   28.4720  -20.6716   -7.9935 N   0  0  0  0  0  0  0  0  0  0  0  0
   28.4978  -20.3209   -6.6936 C   0  0  0  0  0  0  0  0  0  0  0  0
   29.5338  -20.1859   -5.7719 C   0  0  0  0  0  0  0  0  0  0  0  0
   29.2783  -19.8072   -4.4807 C   0  0  0  0  0  0  0  0  0  0  0  0
   27.9571  -19.5669   -4.1351 C   0  0  0  0  0  0  0  0  0  0  0  0
   26.9127  -19.6935   -5.0290 C   0  0  0  0  0  0  0  0  0  0  0  0
   27.1917  -20.0782   -6.3331 C   0  0  0  0  0  0  0  0  0  0  0  0
   22.7408  -21.1459   -8.0617 C   0  0  0  0  0  0  0  0  0  0  0  0
   22.0578  -20.0584   -8.1581 O   0  0  0  0  0  0  0  0  0  0  0  0
   17.5959  -23.2884   -9.5500 C   0  0  0  0  0  0  0  0  0  0  0  0
   18.3422  -22.8042   -8.2973 C   0  0  0  0  0  0  0  0  0  0  0  0
   19.8316  -22.8433   -8.5334 C   0  0  2  0  0  0  0  0  0  0  0  0
   20.2809  -24.2411   -8.8946 C   0  0  0  0  0  0  0  0  0  0  0  0
   20.6337  -22.2883   -7.3712 C   0  0  2  0  0  0  0  0  0  0  0  0
   22.0540  -22.3380   -7.6572 N   0  0  0  0  0  0  0  0  0  0  0  0
   20.2657  -22.8533   -6.0778 C   0  0  0  0  0  0  0  0  0  0  0  0
   21.1265  -23.4634   -5.3963 O   0  0  0  0  0  0  0  0  0  0  0  0
   18.9944  -22.7655   -5.5217 O   0  0  0  0  0  0  0  0  0  0  0  0
  2  3  1  0
  2  1  1  0
  3  4  1  6
  5  6  1  1
  5  3  1  0
  7  8  2  0
  7  5  1  0
  9  7  1  0
 10 21  1  0
 10  9  1  0
 10 11  1  1
 12 11  1  0
 13 12  2  0
 14 13  1  0
 15 14  1  0
 15 20  2  0
 16 15  1  0
 17 16  2  0
 17 18  1  0
 18 19  2  0
 19 20  1  0
 20 12  1  0
 21 28  1  0
 22 21  2  0
 23 24  1  0
 24 25  1  0
 25 26  1  1
 25 27  1  0
 27 29  1  0
 27 28  1  6
 29 30  2  0
 29 31  1  0
M  END
$$$$
