IWI.pdb
     RDKit          3D

 31 32  0  0  1  0  0  0  0  0999 V2000
   27.7922  -19.1615  -17.6755 C   0  0  0  0  0  0  0  0  0  0  0  0
   28.6635  -19.9500  -16.6890 C   0  0  0  0  0  0  0  0  0  0  0  0
   27.7670  -20.3507  -15.5448 C   0  0  2  0  0  0  0  0  0  0  0  0
   27.0847  -19.1909  -14.8991 C   0  0  0  0  0  0  0  0  0  0  0  0
   28.4619  -21.1468  -14.4783 C   0  0  2  0  0  0  0  0  0  0  0  0
   28.8506  -22.4144  -15.1082 N   0  0  0  0  0  0  0  0  0  0  0  0
   27.5950  -21.4041  -13.3046 C   0  0  0  0  0  0  0  0  0  0  0  0
   26.6213  -22.1865  -13.4359 O   0  0  0  0  0  0  0  0  0  0  0  0
   27.8085  -20.8136  -12.0433 N   0  0  0  0  0  0  0  0  0  0  0  0
   26.9364  -21.1025  -10.8757 C   0  0  1  0  0  0  0  0  0  0  0  0
   27.6846  -20.5742   -9.6950 C   0  0  0  0  0  0  0  0  0  0  0  0
   26.9390  -20.5894   -8.4213 C   0  0  0  0  0  0  0  0  0  0  0  0
   25.6411  -20.9662   -8.1690 C   0  0  0  0  0  0  0  0  0  0  0  0
   25.3543  -20.7948   -6.8713 N   0  0  0  0  0  0  0  0  0  0  0  0
   26.4342  -20.3071   -6.2313 C   0  0  0  0  0  0  0  0  0  0  0  0
   26.6670  -19.9570   -4.9031 C   0  0  0  0  0  0  0  0  0  0  0  0
   27.8861  -19.4729   -4.5092 C   0  0  0  0  0  0  0  0  0  0  0  0
   28.8679  -19.3480   -5.4804 C   0  0  0  0  0  0  0  0  0  0  0  0
   28.6628  -19.6877   -6.8027 C   0  0  0  0  0  0  0  0  0  0  0  0
   27.4205  -20.1765   -7.1825 C   0  0  0  0  0  0  0  0  0  0  0  0
   25.6857  -20.3615  -11.0869 C   0  0  0  0  0  0  0  0  0  0  0  0
   25.7829  -19.0821  -11.1962 O   0  0  0  0  0  0  0  0  0  0  0  0
   21.8054  -21.7094  -14.7098 C   0  0  0  0  0  0  0  0  0  0  0  0
   22.2749  -21.6451  -13.2483 C   0  0  0  0  0  0  0  0  0  0  0  0
   22.8216  -20.2735  -12.9390 C   0  0  2  0  0  0  0  0  0  0  0  0
   23.9535  -19.9230  -13.8783 C   0  0  0  0  0  0  0  0  0  0  0  0
   23.2368  -20.1108  -11.4888 C   0  0  2  0  0  0  0  0  0  0  0  0
   24.3807  -20.9478  -11.1850 N   0  0  0  0  0  0  0  0  0  0  0  0
   22.1348  -20.2404  -10.5420 C   0  0  0  0  0  0  0  0  0  0  0  0
   21.1338  -19.4885  -10.6437 O   0  0  0  0  0  0  0  0  0  0  0  0
   22.1046  -21.1625   -9.5018 O   0  0  0  0  0  0  0  0  0  0  0  0
  2  3  1  0
  2  1  1  0
  3  4  1  1
  5  6  1  6
  5  3  1  0
  7  8  2  0
  7  5  1  0
  9  7  1  0
 10 21  1  0
 10  9  1  0
 10 11  1  1
 12 11  1  0
 13 12  2  0
 14 13  1  0
 15 14  1  0
 15 20  2  0
 16 15  1  0
 17 16  2  0
 17 18  1  0
 18 19  2  0
 19 20  1  0
 20 12  1  0
 21 28  1  0
 22 21  2  0
 23 24  1  0
 24 25  1  0
 25 26  1  6
 25 27  1  0
 27 29  1  0
 27 28  1  1
 29 30  2  0
 29 31  1  0
M  END
$$$$
