IWI.pdb
     RDKit          3D

 31 32  0  0  1  0  0  0  0  0999 V2000
   29.6987  -19.0869  -15.7947 C   0  0  0  0  0  0  0  0  0  0  0  0
   30.1024  -19.1955  -14.3185 C   0  0  0  0  0  0  0  0  0  0  0  0
   28.9480  -19.8486  -13.6013 C   0  0  2  0  0  0  0  0  0  0  0  0
   27.6651  -19.1006  -13.7501 C   0  0  0  0  0  0  0  0  0  0  0  0
   29.1948  -20.0820  -12.1388 C   0  0  2  0  0  0  0  0  0  0  0  0
   30.3383  -20.9992  -12.0628 N   0  0  0  0  0  0  0  0  0  0  0  0
   28.0217  -20.6695  -11.4506 C   0  0  0  0  0  0  0  0  0  0  0  0
   27.8567  -21.9137  -11.4989 O   0  0  0  0  0  0  0  0  0  0  0  0
   27.0780  -19.9004  -10.7413 N   0  0  0  0  0  0  0  0  0  0  0  0
   25.9480  -20.5188  -10.0009 C   0  0  1  0  0  0  0  0  0  0  0  0
   25.6690  -19.5825   -8.8703 C   0  0  0  0  0  0  0  0  0  0  0  0
   26.8124  -19.3227   -7.9737 C   0  0  0  0  0  0  0  0  0  0  0  0
   27.7950  -18.3650   -8.0602 C   0  0  0  0  0  0  0  0  0  0  0  0
   28.6629  -18.5011   -7.0483 N   0  0  0  0  0  0  0  0  0  0  0  0
   28.2906  -19.5357   -6.2708 C   0  0  0  0  0  0  0  0  0  0  0  0
   28.8345  -20.0927   -5.1154 C   0  0  0  0  0  0  0  0  0  0  0  0
   28.2423  -21.1694   -4.5106 C   0  0  0  0  0  0  0  0  0  0  0  0
   27.0900  -21.6753   -5.0930 C   0  0  0  0  0  0  0  0  0  0  0  0
   26.5312  -21.1419   -6.2371 C   0  0  0  0  0  0  0  0  0  0  0  0
   27.1458  -20.0508   -6.8355 C   0  0  0  0  0  0  0  0  0  0  0  0
   24.8136  -20.5798  -10.9323 C   0  0  0  0  0  0  0  0  0  0  0  0
   24.5834  -19.5244  -11.6333 O   0  0  0  0  0  0  0  0  0  0  0  0
   24.1841  -24.6575  -14.2427 C   0  0  0  0  0  0  0  0  0  0  0  0
   24.2230  -23.2615  -13.6023 C   0  0  0  0  0  0  0  0  0  0  0  0
   22.9024  -22.9580  -12.9393 C   0  0  2  0  0  0  0  0  0  0  0  0
   21.7807  -22.9577  -13.9533 C   0  0  0  0  0  0  0  0  0  0  0  0
   22.9210  -21.6711  -12.1358 C   0  0  2  0  0  0  0  0  0  0  0  0
   23.9563  -21.7136  -11.1221 N   0  0  0  0  0  0  0  0  0  0  0  0
   21.6113  -21.2704  -11.6342 C   0  0  0  0  0  0  0  0  0  0  0  0
   20.6795  -21.0345  -12.4428 O   0  0  0  0  0  0  0  0  0  0  0  0
   21.3034  -21.1253  -10.2861 O   0  0  0  0  0  0  0  0  0  0  0  0
  2  3  1  0
  2  1  1  0
  3  4  1  1
  5  6  1  6
  5  3  1  0
  7  8  2  0
  7  5  1  0
  9  7  1  0
 10 21  1  0
 10  9  1  0
 10 11  1  1
 12 11  1  0
 13 12  2  0
 14 13  1  0
 15 14  1  0
 15 20  2  0
 16 15  1  0
 17 16  2  0
 17 18  1  0
 18 19  2  0
 19 20  1  0
 20 12  1  0
 21 28  1  0
 22 21  2  0
 23 24  1  0
 24 25  1  0
 25 26  1  6
 25 27  1  0
 27 29  1  0
 27 28  1  1
 29 30  2  0
 29 31  1  0
M  END
$$$$
