IWI.pdb
     RDKit          3D

 31 32  0  0  1  0  0  0  0  0999 V2000
   22.6141  -19.8271  -15.0070 C   0  0  0  0  0  0  0  0  0  0  0  0
   24.1294  -20.0178  -14.8608 C   0  0  0  0  0  0  0  0  0  0  0  0
   24.3700  -20.5084  -13.4555 C   0  0  2  0  0  0  0  0  0  0  0  0
   23.7371  -19.6453  -12.4154 C   0  0  0  0  0  0  0  0  0  0  0  0
   25.8214  -20.6796  -13.1117 C   0  0  2  0  0  0  0  0  0  0  0  0
   26.3478  -21.6691  -14.0595 N   0  0  0  0  0  0  0  0  0  0  0  0
   26.0253  -21.1458  -11.7202 C   0  0  0  0  0  0  0  0  0  0  0  0
   25.5778  -22.2724  -11.3915 O   0  0  0  0  0  0  0  0  0  0  0  0
   26.6990  -20.3866  -10.7429 N   0  0  0  0  0  0  0  0  0  0  0  0
   26.9692  -20.9117   -9.3795 C   0  0  1  0  0  0  0  0  0  0  0  0
   28.1696  -20.1578   -8.9066 C   0  0  0  0  0  0  0  0  0  0  0  0
   28.6637  -20.5394   -7.5691 C   0  0  0  0  0  0  0  0  0  0  0  0
   29.2666  -21.7039   -7.1562 C   0  0  0  0  0  0  0  0  0  0  0  0
   29.5312  -21.6468   -5.8437 N   0  0  0  0  0  0  0  0  0  0  0  0
   29.1195  -20.4627   -5.3518 C   0  0  0  0  0  0  0  0  0  0  0  0
   29.1557  -19.9061   -4.0751 C   0  0  0  0  0  0  0  0  0  0  0  0
   28.6554  -18.6525   -3.8425 C   0  0  0  0  0  0  0  0  0  0  0  0
   28.1169  -17.9693   -4.9223 C   0  0  0  0  0  0  0  0  0  0  0  0
   28.0690  -18.4981   -6.1966 C   0  0  0  0  0  0  0  0  0  0  0  0
   28.5811  -19.7700   -6.4124 C   0  0  0  0  0  0  0  0  0  0  0  0
   25.7892  -20.5980   -8.5627 C   0  0  0  0  0  0  0  0  0  0  0  0
   25.2734  -19.4282   -8.7169 O   0  0  0  0  0  0  0  0  0  0  0  0
   20.2637  -21.8604   -7.2580 C   0  0  0  0  0  0  0  0  0  0  0  0
   21.5169  -21.2291   -6.6321 C   0  0  0  0  0  0  0  0  0  0  0  0
   22.7507  -21.6825   -7.3723 C   0  0  2  0  0  0  0  0  0  0  0  0
   22.8544  -23.1910   -7.3688 C   0  0  0  0  0  0  0  0  0  0  0  0
   24.0247  -21.0401   -6.8561 C   0  0  2  0  0  0  0  0  0  0  0  0
   25.1717  -21.4867   -7.6218 N   0  0  0  0  0  0  0  0  0  0  0  0
   24.1945  -21.1455   -5.4112 C   0  0  0  0  0  0  0  0  0  0  0  0
   25.1612  -21.7965   -4.9429 O   0  0  0  0  0  0  0  0  0  0  0  0
   23.3419  -20.5613   -4.4811 O   0  0  0  0  0  0  0  0  0  0  0  0
  2  3  1  0
  2  1  1  0
  3  4  1  1
  5  6  1  6
  5  3  1  0
  7  8  2  0
  7  5  1  0
  9  7  1  0
 10 21  1  0
 10  9  1  0
 10 11  1  1
 12 11  1  0
 13 12  2  0
 14 13  1  0
 15 14  1  0
 15 20  2  0
 16 15  1  0
 17 16  2  0
 17 18  1  0
 18 19  2  0
 19 20  1  0
 20 12  1  0
 21 28  1  0
 22 21  2  0
 23 24  1  0
 24 25  1  0
 25 26  1  1
 25 27  1  0
 27 29  1  0
 27 28  1  6
 29 30  2  0
 29 31  1  0
M  END
$$$$
