QTI.pdb
     RDKit          3D

 25 24  0  0  1  0  0  0  0  0999 V2000
    7.4746  -12.7762   16.6958 N   0  0  0  0  0  0  0  0  0  0  0  0
    8.0234  -14.0235   16.3397 C   0  0  0  0  0  0  0  0  0  0  0  0
    7.7636  -14.5324   15.2091 O   0  0  0  0  0  0  0  0  0  0  0  0
    8.9077  -14.7065   17.3338 C   0  0  0  0  0  0  0  0  0  0  0  0
    8.9697  -13.8288   18.5559 C   0  0  0  0  0  0  0  0  0  0  0  0
    9.8481  -14.4082   19.6351 C   0  0  2  0  0  0  0  0  0  0  0  0
   10.5040  -15.5774   19.0874 N   0  0  0  0  0  0  0  0  0  0  0  0
    8.9833  -14.7684   20.7988 C   0  0  0  0  0  0  0  0  0  0  0  0
    8.2106  -13.9138   21.3097 O   0  0  0  0  0  0  0  0  0  0  0  0
    7.1757  -18.4492   21.6400 C   0  0  0  0  0  0  0  0  0  0  0  0
    7.9713  -17.8375   22.7461 C   0  0  1  0  0  0  0  0  0  0  0  0
    9.2434  -18.3901   22.8867 O   0  0  0  0  0  0  0  0  0  0  0  0
    8.1814  -16.3320   22.5459 C   0  0  2  0  0  0  0  0  0  0  0  0
    8.9746  -16.0613   21.3901 N   0  0  0  0  0  0  0  0  0  0  0  0
    8.7162  -15.7320   23.7887 C   0  0  0  0  0  0  0  0  0  0  0  0
    9.9633  -15.5596   23.8420 O   0  0  0  0  0  0  0  0  0  0  0  0
    6.0375  -11.9923   26.4983 C   0  0  0  0  0  0  0  0  0  0  0  0
    7.1885  -12.7180   25.8344 C   0  0  0  0  0  0  0  0  0  0  0  0
    7.6566  -13.8039   26.7779 C   0  0  2  0  0  0  0  0  0  0  0  0
    8.3031  -13.1733   27.9709 C   0  0  0  0  0  0  0  0  0  0  0  0
    8.5561  -14.7999   26.0820 C   0  0  2  0  0  0  0  0  0  0  0  0
    7.9459  -15.3479   24.8935 N   0  0  0  0  0  0  0  0  0  0  0  0
    8.8662  -15.8857   27.0701 C   0  0  0  0  0  0  0  0  0  0  0  0
    9.9430  -15.8038   27.9415 O   0  0  0  0  0  0  0  0  0  0  0  0
    8.1434  -16.9125   27.1310 O   0  0  0  0  0  0  0  0  0  0  0  0
  2  1  1  0
  3  2  2  0
  4  2  1  0
  5  4  1  0
  6  5  1  0
  6  7  1  6
  8  9  2  0
  8  6  1  0
 11 10  1  6
 11 12  1  0
 13 11  1  0
 13 14  1  6
 14  8  1  0
 15 13  1  0
 15 16  2  0
 18 19  1  0
 18 17  1  0
 19 21  1  0
 19 20  1  1
 21 22  1  6
 21 23  1  0
 22 15  1  0
 23 25  2  0
 23 24  1  0
M  END
$$$$
