QTI.pdb
     RDKit          3D

 25 24  0  0  1  0  0  0  0  0999 V2000
   11.5934  -13.9821   20.0700 N   0  0  0  0  0  0  0  0  0  0  0  0
   11.4225  -13.6080   18.7229 C   0  0  0  0  0  0  0  0  0  0  0  0
   12.3780  -13.7382   17.9014 O   0  0  0  0  0  0  0  0  0  0  0  0
   10.0918  -13.0620   18.3133 C   0  0  0  0  0  0  0  0  0  0  0  0
    9.0890  -13.5034   19.3464 C   0  0  0  0  0  0  0  0  0  0  0  0
    8.8033  -14.9816   19.2746 C   0  0  2  0  0  0  0  0  0  0  0  0
    7.9524  -15.2095   18.1251 N   0  0  0  0  0  0  0  0  0  0  0  0
    8.1226  -15.3884   20.5407 C   0  0  0  0  0  0  0  0  0  0  0  0
    6.9531  -15.8576   20.5155 O   0  0  0  0  0  0  0  0  0  0  0  0
    7.4542  -17.9193   21.4963 C   0  0  0  0  0  0  0  0  0  0  0  0
    8.2696  -17.5224   22.6832 C   0  0  1  0  0  0  0  0  0  0  0  0
    9.6178  -17.8577   22.5681 O   0  0  0  0  0  0  0  0  0  0  0  0
    8.2274  -16.0110   22.9369 C   0  0  2  0  0  0  0  0  0  0  0  0
    8.7309  -15.2766   21.8208 N   0  0  0  0  0  0  0  0  0  0  0  0
    8.9109  -15.6987   24.2121 C   0  0  0  0  0  0  0  0  0  0  0  0
   10.1663  -15.5982   24.1707 O   0  0  0  0  0  0  0  0  0  0  0  0
    5.8776  -12.4391   26.8633 C   0  0  0  0  0  0  0  0  0  0  0  0
    7.1098  -12.9791   26.1689 C   0  0  0  0  0  0  0  0  0  0  0  0
    7.8775  -13.8129   27.1709 C   0  0  2  0  0  0  0  0  0  0  0  0
    8.5106  -12.9080   28.1805 C   0  0  0  0  0  0  0  0  0  0  0  0
    8.8756  -14.7236   26.4928 C   0  0  2  0  0  0  0  0  0  0  0  0
    8.2707  -15.5097   25.4433 N   0  0  0  0  0  0  0  0  0  0  0  0
    9.4603  -15.6105   27.5525 C   0  0  0  0  0  0  0  0  0  0  0  0
   10.5456  -15.2202   28.3239 O   0  0  0  0  0  0  0  0  0  0  0  0
    8.9702  -16.7479   27.7682 O   0  0  0  0  0  0  0  0  0  0  0  0
  2  1  1  0
  3  2  2  0
  4  2  1  0
  5  4  1  0
  6  5  1  0
  6  7  1  6
  8  9  2  0
  8  6  1  0
 11 10  1  6
 11 12  1  0
 13 11  1  0
 13 14  1  6
 14  8  1  0
 15 13  1  0
 15 16  2  0
 18 19  1  0
 18 17  1  0
 19 21  1  0
 19 20  1  1
 21 22  1  6
 21 23  1  0
 22 15  1  0
 23 25  2  0
 23 24  1  0
M  END
$$$$
