QTI.pdb
     RDKit          3D

 25 24  0  0  1  0  0  0  0  0999 V2000
   14.9119  -16.4782   20.7105 N   0  0  0  0  0  0  0  0  0  0  0  0
   14.6762  -17.4601   19.7286 C   0  0  0  0  0  0  0  0  0  0  0  0
   15.6227  -18.2037   19.3337 O   0  0  0  0  0  0  0  0  0  0  0  0
   13.2888  -17.5839   19.1840 C   0  0  0  0  0  0  0  0  0  0  0  0
   12.4347  -16.5702   19.8987 C   0  0  0  0  0  0  0  0  0  0  0  0
   10.9759  -16.6934   19.5399 C   0  0  2  0  0  0  0  0  0  0  0  0
   10.8489  -16.4337   18.1209 N   0  0  0  0  0  0  0  0  0  0  0  0
   10.2107  -15.6932   20.3435 C   0  0  0  0  0  0  0  0  0  0  0  0
   10.3723  -14.4585   20.1491 O   0  0  0  0  0  0  0  0  0  0  0  0
    6.7742  -14.7302   20.2220 C   0  0  0  0  0  0  0  0  0  0  0  0
    7.0167  -15.1545   21.6334 C   0  0  1  0  0  0  0  0  0  0  0  0
    6.6286  -16.4680   21.8930 O   0  0  0  0  0  0  0  0  0  0  0  0
    8.4976  -15.0644   22.0200 C   0  0  2  0  0  0  0  0  0  0  0  0
    9.2766  -16.0569   21.3518 N   0  0  0  0  0  0  0  0  0  0  0  0
    8.6325  -15.0946   23.4937 C   0  0  0  0  0  0  0  0  0  0  0  0
    9.3005  -16.0456   23.9808 O   0  0  0  0  0  0  0  0  0  0  0  0
    5.6373  -11.7271   26.9776 C   0  0  0  0  0  0  0  0  0  0  0  0
    6.1469  -12.8951   26.1601 C   0  0  0  0  0  0  0  0  0  0  0  0
    7.5879  -13.1395   26.5508 C   0  0  2  0  0  0  0  0  0  0  0  0
    8.3696  -11.8780   26.3594 C   0  0  0  0  0  0  0  0  0  0  0  0
    8.1784  -14.3138   25.8041 C   0  0  2  0  0  0  0  0  0  0  0  0
    8.0786  -14.1550   24.3722 N   0  0  0  0  0  0  0  0  0  0  0  0
    7.4452  -15.5425   26.2557 C   0  0  0  0  0  0  0  0  0  0  0  0
    7.6844  -16.1320   27.4888 O   0  0  0  0  0  0  0  0  0  0  0  0
    6.5821  -16.0746   25.5124 O   0  0  0  0  0  0  0  0  0  0  0  0
  2  1  1  0
  3  2  2  0
  4  2  1  0
  5  4  1  0
  6  5  1  0
  6  7  1  6
  8  9  2  0
  8  6  1  0
 11 10  1  6
 11 12  1  0
 13 11  1  0
 13 14  1  6
 14  8  1  0
 15 13  1  0
 15 16  2  0
 18 19  1  0
 18 17  1  0
 19 21  1  0
 19 20  1  6
 21 22  1  6
 21 23  1  0
 22 15  1  0
 23 25  2  0
 23 24  1  0
M  END
$$$$
