QTI.pdb
     RDKit          3D

 25 24  0  0  1  0  0  0  0  0999 V2000
    8.2811  -12.9207   16.1940 N   0  0  0  0  0  0  0  0  0  0  0  0
    8.5717  -14.2894   16.0322 C   0  0  0  0  0  0  0  0  0  0  0  0
    9.5016  -14.6535   15.2528 O   0  0  0  0  0  0  0  0  0  0  0  0
    7.7517  -15.2732   16.8043 C   0  0  0  0  0  0  0  0  0  0  0  0
    7.4622  -14.6585   18.1482 C   0  0  0  0  0  0  0  0  0  0  0  0
    8.5945  -14.8519   19.1241 C   0  0  2  0  0  0  0  0  0  0  0  0
    9.3477  -16.0134   18.6988 N   0  0  0  0  0  0  0  0  0  0  0  0
    8.0102  -15.0543   20.4841 C   0  0  0  0  0  0  0  0  0  0  0  0
    7.0686  -14.3219   20.8908 O   0  0  0  0  0  0  0  0  0  0  0  0
    6.9670  -18.5262   22.1322 C   0  0  0  0  0  0  0  0  0  0  0  0
    7.7980  -17.7086   23.0658 C   0  0  1  0  0  0  0  0  0  0  0  0
    9.1244  -18.1307   23.1433 O   0  0  0  0  0  0  0  0  0  0  0  0
    7.8450  -16.2313   22.6585 C   0  0  2  0  0  0  0  0  0  0  0  0
    8.4643  -16.0571   21.3839 N   0  0  0  0  0  0  0  0  0  0  0  0
    8.4703  -15.4345   23.7378 C   0  0  0  0  0  0  0  0  0  0  0  0
    9.6881  -15.1445   23.5934 O   0  0  0  0  0  0  0  0  0  0  0  0
    5.8327  -11.8204   27.2216 C   0  0  0  0  0  0  0  0  0  0  0  0
    6.3326  -13.1004   26.5863 C   0  0  0  0  0  0  0  0  0  0  0  0
    7.7476  -12.8581   26.1091 C   0  0  2  0  0  0  0  0  0  0  0  0
    7.7147  -11.9717   24.9040 C   0  0  0  0  0  0  0  0  0  0  0  0
    8.4846  -14.1548   25.8628 C   0  0  2  0  0  0  0  0  0  0  0  0
    7.8143  -14.9866   24.8912 N   0  0  0  0  0  0  0  0  0  0  0  0
    8.5955  -14.8611   27.1820 C   0  0  0  0  0  0  0  0  0  0  0  0
    7.9591  -16.0695   27.4268 O   0  0  0  0  0  0  0  0  0  0  0  0
    9.2803  -14.3637   28.1116 O   0  0  0  0  0  0  0  0  0  0  0  0
  2  1  1  0
  3  2  2  0
  4  2  1  0
  5  4  1  0
  6  5  1  0
  6  7  1  6
  8  9  2  0
  8  6  1  0
 11 10  1  6
 11 12  1  0
 13 11  1  0
 13 14  1  6
 14  8  1  0
 15 13  1  0
 15 16  2  0
 18 19  1  0
 18 17  1  0
 19 21  1  0
 19 20  1  6
 21 22  1  6
 21 23  1  0
 22 15  1  0
 23 25  2  0
 23 24  1  0
M  END
$$$$
