QTI.pdb
     RDKit          3D

 25 24  0  0  1  0  0  0  0  0999 V2000
   12.6097  -18.8866   20.4507 N   0  0  0  0  0  0  0  0  0  0  0  0
   13.0681  -18.6707   19.1366 C   0  0  0  0  0  0  0  0  0  0  0  0
   13.9286  -19.4490   18.6280 O   0  0  0  0  0  0  0  0  0  0  0  0
   12.5065  -17.5069   18.3837 C   0  0  0  0  0  0  0  0  0  0  0  0
   11.5226  -16.8180   19.2920 C   0  0  0  0  0  0  0  0  0  0  0  0
   10.2101  -17.5539   19.3804 C   0  0  2  0  0  0  0  0  0  0  0  0
    9.6708  -17.6532   18.0401 N   0  0  0  0  0  0  0  0  0  0  0  0
    9.2985  -16.7783   20.2744 C   0  0  0  0  0  0  0  0  0  0  0  0
    8.6736  -15.7756   19.8356 O   0  0  0  0  0  0  0  0  0  0  0  0
    6.1627  -17.7543   21.6066 C   0  0  0  0  0  0  0  0  0  0  0  0
    6.9331  -17.2972   22.8017 C   0  0  1  0  0  0  0  0  0  0  0  0
    7.4652  -18.3439   23.5532 O   0  0  0  0  0  0  0  0  0  0  0  0
    8.1182  -16.4022   22.4205 C   0  0  2  0  0  0  0  0  0  0  0  0
    9.0815  -17.1099   21.6398 N   0  0  0  0  0  0  0  0  0  0  0  0
    8.6825  -15.7748   23.6365 C   0  0  0  0  0  0  0  0  0  0  0  0
    9.8785  -16.0574   23.9153 O   0  0  0  0  0  0  0  0  0  0  0  0
    6.1100  -11.5479   26.0278 C   0  0  0  0  0  0  0  0  0  0  0  0
    7.2752  -12.2781   25.3943 C   0  0  0  0  0  0  0  0  0  0  0  0
    7.7356  -13.3440   26.3642 C   0  0  2  0  0  0  0  0  0  0  0  0
    8.4137  -12.6905   27.5269 C   0  0  0  0  0  0  0  0  0  0  0  0
    8.6031  -14.3799   25.6863 C   0  0  2  0  0  0  0  0  0  0  0  0
    7.9918  -14.9023   24.4868 N   0  0  0  0  0  0  0  0  0  0  0  0
    8.8461  -15.4767   26.6809 C   0  0  0  0  0  0  0  0  0  0  0  0
    9.9969  -15.5287   27.4544 O   0  0  0  0  0  0  0  0  0  0  0  0
    7.9961  -16.3896   26.8378 O   0  0  0  0  0  0  0  0  0  0  0  0
  2  1  1  0
  3  2  2  0
  4  2  1  0
  5  4  1  0
  6  5  1  0
  6  7  1  6
  8  9  2  0
  8  6  1  0
 11 10  1  6
 11 12  1  0
 13 11  1  0
 13 14  1  1
 14  8  1  0
 15 13  1  0
 15 16  2  0
 18 19  1  0
 18 17  1  0
 19 21  1  0
 19 20  1  1
 21 22  1  6
 21 23  1  0
 22 15  1  0
 23 25  2  0
 23 24  1  0
M  END
$$$$
