QTI.pdb
     RDKit          3D

 25 24  0  0  1  0  0  0  0  0999 V2000
   13.6771  -19.2892   20.7507 N   0  0  0  0  0  0  0  0  0  0  0  0
   13.5789  -17.8924   20.5982 C   0  0  0  0  0  0  0  0  0  0  0  0
   14.5586  -17.1497   20.9036 O   0  0  0  0  0  0  0  0  0  0  0  0
   12.2946  -17.3362   20.0712 C   0  0  0  0  0  0  0  0  0  0  0  0
   11.3759  -18.5003   19.8096 C   0  0  0  0  0  0  0  0  0  0  0  0
   10.0756  -18.0748   19.1770 C   0  0  2  0  0  0  0  0  0  0  0  0
   10.3823  -17.5105   17.8791 N   0  0  0  0  0  0  0  0  0  0  0  0
    9.4309  -17.0636   20.0680 C   0  0  0  0  0  0  0  0  0  0  0  0
    9.2382  -15.8856   19.6635 O   0  0  0  0  0  0  0  0  0  0  0  0
    6.0464  -17.6211   20.9962 C   0  0  0  0  0  0  0  0  0  0  0  0
    6.7226  -17.2646   22.2792 C   0  0  1  0  0  0  0  0  0  0  0  0
    7.0282  -18.3699   23.0719 O   0  0  0  0  0  0  0  0  0  0  0  0
    8.0465  -16.5256   22.0515 C   0  0  2  0  0  0  0  0  0  0  0  0
    9.0044  -17.3544   21.3927 N   0  0  0  0  0  0  0  0  0  0  0  0
    8.5295  -15.9590   23.3308 C   0  0  0  0  0  0  0  0  0  0  0  0
    9.6911  -16.2881   23.6920 O   0  0  0  0  0  0  0  0  0  0  0  0
    5.8572  -11.7572   25.7603 C   0  0  0  0  0  0  0  0  0  0  0  0
    7.0089  -12.5063   25.1242 C   0  0  0  0  0  0  0  0  0  0  0  0
    7.4222  -13.6106   26.0721 C   0  0  2  0  0  0  0  0  0  0  0  0
    8.0227  -13.0040   27.3011 C   0  0  0  0  0  0  0  0  0  0  0  0
    8.3399  -14.6080   25.4026 C   0  0  2  0  0  0  0  0  0  0  0  0
    7.7980  -15.0959   24.1561 N   0  0  0  0  0  0  0  0  0  0  0  0
    8.5516  -15.7363   26.3688 C   0  0  0  0  0  0  0  0  0  0  0  0
    9.6296  -15.7665   27.2419 O   0  0  0  0  0  0  0  0  0  0  0  0
    7.7414  -16.6968   26.4089 O   0  0  0  0  0  0  0  0  0  0  0  0
  2  1  1  0
  3  2  2  0
  4  2  1  0
  5  4  1  0
  6  5  1  0
  6  7  1  6
  8  9  2  0
  8  6  1  0
 11 10  1  6
 11 12  1  0
 13 11  1  0
 13 14  1  1
 14  8  1  0
 15 13  1  0
 15 16  2  0
 18 19  1  0
 18 17  1  0
 19 21  1  0
 19 20  1  1
 21 22  1  6
 21 23  1  0
 22 15  1  0
 23 25  2  0
 23 24  1  0
M  END
$$$$
