QTI.pdb
     RDKit          3D

 25 24  0  0  1  0  0  0  0  0999 V2000
   12.3370  -14.8061   18.0951 N   0  0  0  0  0  0  0  0  0  0  0  0
   11.8932  -13.8286   19.0069 C   0  0  0  0  0  0  0  0  0  0  0  0
   12.4707  -13.6955   20.1265 O   0  0  0  0  0  0  0  0  0  0  0  0
   10.7348  -12.9729   18.6040 C   0  0  0  0  0  0  0  0  0  0  0  0
    9.5996  -13.2840   19.5433 C   0  0  0  0  0  0  0  0  0  0  0  0
    8.9008  -14.5726   19.1926 C   0  0  2  0  0  0  0  0  0  0  0  0
    7.9132  -14.2746   18.1763 N   0  0  0  0  0  0  0  0  0  0  0  0
    8.2585  -15.1082   20.4306 C   0  0  0  0  0  0  0  0  0  0  0  0
    7.0945  -14.7487   20.7537 O   0  0  0  0  0  0  0  0  0  0  0  0
    7.7470  -18.4699   23.9383 C   0  0  0  0  0  0  0  0  0  0  0  0
    8.3555  -17.9971   22.6588 C   0  0  1  0  0  0  0  0  0  0  0  0
    7.7595  -18.5458   21.5243 O   0  0  0  0  0  0  0  0  0  0  0  0
    8.2574  -16.4757   22.4971 C   0  0  2  0  0  0  0  0  0  0  0  0
    8.8989  -16.0319   21.3013 N   0  0  0  0  0  0  0  0  0  0  0  0
    8.7547  -15.8094   23.7217 C   0  0  0  0  0  0  0  0  0  0  0  0
   10.0023  -15.6604   23.8172 O   0  0  0  0  0  0  0  0  0  0  0  0
    5.8457  -11.8782   25.9200 C   0  0  0  0  0  0  0  0  0  0  0  0
    6.9460  -12.7223   25.3127 C   0  0  0  0  0  0  0  0  0  0  0  0
    7.5408  -13.5700   26.4156 C   0  0  2  0  0  0  0  0  0  0  0  0
    8.1616  -12.6757   27.4422 C   0  0  0  0  0  0  0  0  0  0  0  0
    8.5074  -14.5973   25.8719 C   0  0  2  0  0  0  0  0  0  0  0  0
    7.9488  -15.3398   24.7664 N   0  0  0  0  0  0  0  0  0  0  0  0
    8.8641  -15.5156   27.0037 C   0  0  0  0  0  0  0  0  0  0  0  0
   10.0061  -15.3317   27.7701 O   0  0  0  0  0  0  0  0  0  0  0  0
    8.1219  -16.4898   27.2873 O   0  0  0  0  0  0  0  0  0  0  0  0
  2  1  1  0
  3  2  2  0
  4  2  1  0
  5  4  1  0
  6  5  1  0
  6  7  1  6
  8  9  2  0
  8  6  1  0
 11 10  1  1
 11 12  1  0
 13 11  1  0
 13 14  1  6
 14  8  1  0
 15 13  1  0
 15 16  2  0
 18 19  1  0
 18 17  1  0
 19 21  1  0
 19 20  1  1
 21 22  1  6
 21 23  1  0
 22 15  1  0
 23 25  2  0
 23 24  1  0
M  END
$$$$
