QTI.pdb
     RDKit          3D

 25 24  0  0  1  0  0  0  0  0999 V2000
   13.4614  -18.4604   16.7134 N   0  0  0  0  0  0  0  0  0  0  0  0
   12.0629  -18.4281   16.5492 C   0  0  0  0  0  0  0  0  0  0  0  0
   11.5622  -18.1427   15.4211 O   0  0  0  0  0  0  0  0  0  0  0  0
   11.2128  -18.7388   17.7397 C   0  0  0  0  0  0  0  0  0  0  0  0
   10.8425  -17.4274   18.3806 C   0  0  0  0  0  0  0  0  0  0  0  0
   10.9219  -17.4807   19.8849 C   0  0  2  0  0  0  0  0  0  0  0  0
   10.5754  -18.8254   20.2959 N   0  0  0  0  0  0  0  0  0  0  0  0
    9.9606  -16.4807   20.4396 C   0  0  0  0  0  0  0  0  0  0  0  0
   10.0158  -15.2737   20.0812 O   0  0  0  0  0  0  0  0  0  0  0  0
    6.0783  -16.6966   20.5466 C   0  0  0  0  0  0  0  0  0  0  0  0
    6.6000  -16.3569   21.9042 C   0  0  1  0  0  0  0  0  0  0  0  0
    6.6184  -17.4417   22.7797 O   0  0  0  0  0  0  0  0  0  0  0  0
    8.0369  -15.8242   21.8570 C   0  0  2  0  0  0  0  0  0  0  0  0
    8.9490  -16.8143   21.3814 N   0  0  0  0  0  0  0  0  0  0  0  0
    8.4048  -15.2603   23.1752 C   0  0  0  0  0  0  0  0  0  0  0  0
    9.4716  -15.6854   23.6940 O   0  0  0  0  0  0  0  0  0  0  0  0
    6.8709  -10.9771   27.3511 C   0  0  0  0  0  0  0  0  0  0  0  0
    7.6063  -12.2715   27.0759 C   0  0  0  0  0  0  0  0  0  0  0  0
    7.1286  -12.8003   25.7414 C   0  0  2  0  0  0  0  0  0  0  0  0
    5.7275  -13.3052   25.8861 C   0  0  0  0  0  0  0  0  0  0  0  0
    8.0717  -13.8410   25.1823 C   0  0  2  0  0  0  0  0  0  0  0  0
    7.6624  -14.3020   23.8764 N   0  0  0  0  0  0  0  0  0  0  0  0
    8.1099  -14.9784   26.1603 C   0  0  0  0  0  0  0  0  0  0  0  0
    7.3641  -16.1340   25.9763 O   0  0  0  0  0  0  0  0  0  0  0  0
    8.8320  -14.9074   27.1869 O   0  0  0  0  0  0  0  0  0  0  0  0
  2  1  1  0
  3  2  2  0
  4  2  1  0
  5  4  1  0
  6  5  1  0
  6  7  1  1
  8  9  2  0
  8  6  1  0
 11 10  1  6
 11 12  1  0
 13 11  1  0
 13 14  1  1
 14  8  1  0
 15 13  1  0
 15 16  2  0
 18 19  1  0
 18 17  1  0
 19 21  1  0
 19 20  1  1
 21 22  1  6
 21 23  1  0
 22 15  1  0
 23 25  2  0
 23 24  1  0
M  END
$$$$
