QTI.pdb
     RDKit          3D

 25 24  0  0  1  0  0  0  0  0999 V2000
   10.1634  -12.1458   19.6098 N   0  0  0  0  0  0  0  0  0  0  0  0
    9.4939  -12.7727   18.5409 C   0  0  0  0  0  0  0  0  0  0  0  0
   10.1535  -13.2473   17.5690 O   0  0  0  0  0  0  0  0  0  0  0  0
    8.0017  -12.8520   18.6021 C   0  0  0  0  0  0  0  0  0  0  0  0
    7.6452  -13.6495   19.8287 C   0  0  0  0  0  0  0  0  0  0  0  0
    8.2124  -15.0454   19.7910 C   0  0  2  0  0  0  0  0  0  0  0  0
    7.4781  -15.7914   18.7903 N   0  0  0  0  0  0  0  0  0  0  0  0
    8.0498  -15.6530   21.1461 C   0  0  0  0  0  0  0  0  0  0  0  0
    6.9152  -15.7024   21.6926 O   0  0  0  0  0  0  0  0  0  0  0  0
    9.4762  -18.5976   24.7794 C   0  0  0  0  0  0  0  0  0  0  0  0
    9.6766  -18.0425   23.4074 C   0  0  1  0  0  0  0  0  0  0  0  0
    9.2385  -18.8939   22.3943 O   0  0  0  0  0  0  0  0  0  0  0  0
    8.9307  -16.7187   23.2025 C   0  0  2  0  0  0  0  0  0  0  0  0
    9.1325  -16.1999   21.8878 N   0  0  0  0  0  0  0  0  0  0  0  0
    9.2919  -15.7692   24.2790 C   0  0  0  0  0  0  0  0  0  0  0  0
   10.4237  -15.2218   24.1935 O   0  0  0  0  0  0  0  0  0  0  0  0
    6.0112  -12.0873   26.2109 C   0  0  0  0  0  0  0  0  0  0  0  0
    7.2207  -12.8359   25.6925 C   0  0  0  0  0  0  0  0  0  0  0  0
    7.8251  -13.5977   26.8515 C   0  0  2  0  0  0  0  0  0  0  0  0
    8.2823  -12.6257   27.8932 C   0  0  0  0  0  0  0  0  0  0  0  0
    8.9252  -14.5289   26.3958 C   0  0  2  0  0  0  0  0  0  0  0  0
    8.4772  -15.4410   25.3698 N   0  0  0  0  0  0  0  0  0  0  0  0
    9.4017  -15.2798   27.6043 C   0  0  0  0  0  0  0  0  0  0  0  0
    8.9965  -16.5797   27.8714 O   0  0  0  0  0  0  0  0  0  0  0  0
   10.1933  -14.7371   28.4163 O   0  0  0  0  0  0  0  0  0  0  0  0
  2  1  1  0
  3  2  2  0
  4  2  1  0
  5  4  1  0
  6  5  1  0
  6  7  1  6
  8  9  2  0
  8  6  1  0
 11 10  1  1
 11 12  1  0
 13 11  1  0
 13 14  1  6
 14  8  1  0
 15 13  1  0
 15 16  2  0
 18 19  1  0
 18 17  1  0
 19 21  1  0
 19 20  1  1
 21 22  1  6
 21 23  1  0
 22 15  1  0
 23 25  2  0
 23 24  1  0
M  END
$$$$
