QTI.pdb
     RDKit          3D

 25 24  0  0  1  0  0  0  0  0999 V2000
    7.9696  -12.5915   15.5969 N   0  0  0  0  0  0  0  0  0  0  0  0
    7.7216  -13.8598   16.1570 C   0  0  0  0  0  0  0  0  0  0  0  0
    7.8271  -14.9011   15.4432 O   0  0  0  0  0  0  0  0  0  0  0  0
    7.3366  -13.9223   17.6007 C   0  0  0  0  0  0  0  0  0  0  0  0
    8.6069  -14.0572   18.3980 C   0  0  0  0  0  0  0  0  0  0  0  0
    8.8269  -15.4634   18.8943 C   0  0  2  0  0  0  0  0  0  0  0  0
    8.3512  -16.3703   17.8703 N   0  0  0  0  0  0  0  0  0  0  0  0
    8.0628  -15.6351   20.1665 C   0  0  0  0  0  0  0  0  0  0  0  0
    6.8192  -15.8383   20.1429 O   0  0  0  0  0  0  0  0  0  0  0  0
    6.7130  -17.8270   21.4246 C   0  0  0  0  0  0  0  0  0  0  0  0
    7.6138  -17.4900   22.5672 C   0  0  1  0  0  0  0  0  0  0  0  0
    8.8334  -18.1644   22.5307 O   0  0  0  0  0  0  0  0  0  0  0  0
    7.9553  -15.9961   22.6157 C   0  0  2  0  0  0  0  0  0  0  0  0
    8.6700  -15.5823   21.4510 N   0  0  0  0  0  0  0  0  0  0  0  0
    8.6518  -15.6832   23.8838 C   0  0  0  0  0  0  0  0  0  0  0  0
    9.9105  -15.7399   23.8663 O   0  0  0  0  0  0  0  0  0  0  0  0
    6.1908  -11.7301   26.2526 C   0  0  0  0  0  0  0  0  0  0  0  0
    7.2504  -12.5999   25.6100 C   0  0  0  0  0  0  0  0  0  0  0  0
    7.8375  -13.4855   26.6869 C   0  0  2  0  0  0  0  0  0  0  0  0
    8.5629  -12.6348   27.6813 C   0  0  0  0  0  0  0  0  0  0  0  0
    8.7076  -14.5748   26.1024 C   0  0  2  0  0  0  0  0  0  0  0  0
    8.0203  -15.3337   25.0840 N   0  0  0  0  0  0  0  0  0  0  0  0
    9.1288  -15.4639   27.2353 C   0  0  0  0  0  0  0  0  0  0  0  0
   10.2668  -15.2099   27.9876 O   0  0  0  0  0  0  0  0  0  0  0  0
    8.4469  -16.4772   27.5330 O   0  0  0  0  0  0  0  0  0  0  0  0
  2  1  1  0
  3  2  2  0
  4  2  1  0
  5  4  1  0
  6  5  1  0
  6  7  1  6
  8  9  2  0
  8  6  1  0
 11 10  1  6
 11 12  1  0
 13 11  1  0
 13 14  1  6
 14  8  1  0
 15 13  1  0
 15 16  2  0
 18 19  1  0
 18 17  1  0
 19 21  1  0
 19 20  1  1
 21 22  1  6
 21 23  1  0
 22 15  1  0
 23 25  2  0
 23 24  1  0
M  END
$$$$
