QTI.pdb
     RDKit          3D

 25 24  0  0  1  0  0  0  0  0999 V2000
   13.2660  -16.7722   21.5226 N   0  0  0  0  0  0  0  0  0  0  0  0
   14.1675  -16.6294   20.4498 C   0  0  0  0  0  0  0  0  0  0  0  0
   15.0731  -17.4949   20.2616 O   0  0  0  0  0  0  0  0  0  0  0  0
   14.0120  -15.4364   19.5614 C   0  0  0  0  0  0  0  0  0  0  0  0
   12.8094  -14.6704   20.0458 C   0  0  0  0  0  0  0  0  0  0  0  0
   11.5316  -15.1371   19.3967 C   0  0  2  0  0  0  0  0  0  0  0  0
   11.5603  -14.7104   18.0131 N   0  0  0  0  0  0  0  0  0  0  0  0
   10.3836  -14.5224   20.1287 C   0  0  0  0  0  0  0  0  0  0  0  0
   10.0794  -13.3137   19.9415 O   0  0  0  0  0  0  0  0  0  0  0  0
    6.8614  -14.6179   19.9368 C   0  0  0  0  0  0  0  0  0  0  0  0
    7.1572  -15.0285   21.3420 C   0  0  1  0  0  0  0  0  0  0  0  0
    7.1111  -16.4077   21.5391 O   0  0  0  0  0  0  0  0  0  0  0  0
    8.5514  -14.5804   21.7961 C   0  0  2  0  0  0  0  0  0  0  0  0
    9.5812  -15.2389   21.0583 N   0  0  0  0  0  0  0  0  0  0  0  0
    8.6750  -14.7396   23.2625 C   0  0  0  0  0  0  0  0  0  0  0  0
    9.5575  -15.5407   23.6716 O   0  0  0  0  0  0  0  0  0  0  0  0
    5.5567  -11.8139   27.0532 C   0  0  0  0  0  0  0  0  0  0  0  0
    6.0440  -12.9439   26.1713 C   0  0  0  0  0  0  0  0  0  0  0  0
    7.5155  -13.1507   26.4552 C   0  0  2  0  0  0  0  0  0  0  0  0
    8.2407  -11.8570   26.2570 C   0  0  0  0  0  0  0  0  0  0  0  0
    8.0915  -14.2779   25.6289 C   0  0  2  0  0  0  0  0  0  0  0  0
    7.8922  -14.0731   24.2134 N   0  0  0  0  0  0  0  0  0  0  0  0
    7.4285  -15.5455   26.0817 C   0  0  0  0  0  0  0  0  0  0  0  0
    7.7354  -16.1452   27.2948 O   0  0  0  0  0  0  0  0  0  0  0  0
    6.5641  -16.1021   25.3581 O   0  0  0  0  0  0  0  0  0  0  0  0
  2  1  1  0
  3  2  2  0
  4  2  1  0
  5  4  1  0
  6  5  1  0
  6  7  1  6
  8  9  2  0
  8  6  1  0
 11 10  1  6
 11 12  1  0
 13 11  1  0
 13 14  1  6
 14  8  1  0
 15 13  1  0
 15 16  2  0
 18 19  1  0
 18 17  1  0
 19 21  1  0
 19 20  1  6
 21 22  1  6
 21 23  1  0
 22 15  1  0
 23 25  2  0
 23 24  1  0
M  END
$$$$
