QTI.pdb
     RDKit          3D

 25 24  0  0  1  0  0  0  0  0999 V2000
    8.2041  -13.5211   16.0024 N   0  0  0  0  0  0  0  0  0  0  0  0
    8.7968  -13.3897   17.2733 C   0  0  0  0  0  0  0  0  0  0  0  0
   10.0313  -13.6292   17.4263 O   0  0  0  0  0  0  0  0  0  0  0  0
    7.9236  -12.9641   18.4103 C   0  0  0  0  0  0  0  0  0  0  0  0
    7.1135  -14.1633   18.8267 C   0  0  0  0  0  0  0  0  0  0  0  0
    7.9778  -15.3522   19.1606 C   0  0  2  0  0  0  0  0  0  0  0  0
    7.7440  -16.3631   18.1503 N   0  0  0  0  0  0  0  0  0  0  0  0
    7.5924  -15.8441   20.5175 C   0  0  0  0  0  0  0  0  0  0  0  0
    6.6590  -16.6801   20.6532 O   0  0  0  0  0  0  0  0  0  0  0  0
    7.3572  -18.2370   21.8643 C   0  0  0  0  0  0  0  0  0  0  0  0
    8.2252  -17.5678   22.8789 C   0  0  1  0  0  0  0  0  0  0  0  0
    9.5884  -17.7151   22.6274 O   0  0  0  0  0  0  0  0  0  0  0  0
    7.9680  -16.0584   22.9575 C   0  0  2  0  0  0  0  0  0  0  0  0
    8.2340  -15.4145   21.7113 N   0  0  0  0  0  0  0  0  0  0  0  0
    8.7165  -15.4821   24.0969 C   0  0  0  0  0  0  0  0  0  0  0  0
    9.8979  -15.1092   23.8664 O   0  0  0  0  0  0  0  0  0  0  0  0
    6.0343  -11.9066   26.6232 C   0  0  0  0  0  0  0  0  0  0  0  0
    7.1053  -12.7105   25.9171 C   0  0  0  0  0  0  0  0  0  0  0  0
    7.8805  -13.4729   26.9690 C   0  0  2  0  0  0  0  0  0  0  0  0
    8.5452  -12.4997   27.8910 C   0  0  0  0  0  0  0  0  0  0  0  0
    8.8527  -14.4502   26.3486 C   0  0  2  0  0  0  0  0  0  0  0  0
    8.2124  -15.3242   25.3940 N   0  0  0  0  0  0  0  0  0  0  0  0
    9.4639  -15.2410   27.4678 C   0  0  0  0  0  0  0  0  0  0  0  0
    9.1357  -16.5697   27.6963 O   0  0  0  0  0  0  0  0  0  0  0  0
   10.3024  -14.7066   28.2372 O   0  0  0  0  0  0  0  0  0  0  0  0
  2  1  1  0
  3  2  2  0
  4  2  1  0
  5  4  1  0
  6  5  1  0
  6  7  1  6
  8  9  2  0
  8  6  1  0
 11 10  1  6
 11 12  1  0
 13 11  1  0
 13 14  1  6
 14  8  1  0
 15 13  1  0
 15 16  2  0
 18 19  1  0
 18 17  1  0
 19 21  1  0
 19 20  1  6
 21 22  1  6
 21 23  1  0
 22 15  1  0
 23 25  2  0
 23 24  1  0
M  END
$$$$
