QTI.pdb
     RDKit          3D

 25 24  0  0  1  0  0  0  0  0999 V2000
    7.5269  -15.2362   15.8488 N   0  0  0  0  0  0  0  0  0  0  0  0
    8.4327  -14.1966   16.1360 C   0  0  0  0  0  0  0  0  0  0  0  0
    9.6307  -14.2677   15.7302 O   0  0  0  0  0  0  0  0  0  0  0  0
    7.9292  -13.0297   16.9243 C   0  0  0  0  0  0  0  0  0  0  0  0
    7.4320  -13.5606   18.2429 C   0  0  0  0  0  0  0  0  0  0  0  0
    8.5377  -13.7067   19.2568 C   0  0  2  0  0  0  0  0  0  0  0  0
    9.5265  -14.6076   18.7019 N   0  0  0  0  0  0  0  0  0  0  0  0
    7.9491  -14.2577   20.5145 C   0  0  0  0  0  0  0  0  0  0  0  0
    7.0623  -13.6165   21.1397 O   0  0  0  0  0  0  0  0  0  0  0  0
    6.9879  -18.1183   21.2813 C   0  0  0  0  0  0  0  0  0  0  0  0
    7.7736  -17.4940   22.3876 C   0  0  1  0  0  0  0  0  0  0  0  0
    9.1119  -17.8837   22.4070 O   0  0  0  0  0  0  0  0  0  0  0  0
    7.7777  -15.9631   22.3041 C   0  0  2  0  0  0  0  0  0  0  0  0
    8.3388  -15.5055   21.0735 N   0  0  0  0  0  0  0  0  0  0  0  0
    8.4348  -15.3985   23.5042 C   0  0  0  0  0  0  0  0  0  0  0  0
    9.6622  -15.1316   23.4037 O   0  0  0  0  0  0  0  0  0  0  0  0
    6.1511  -11.6433   26.4330 C   0  0  0  0  0  0  0  0  0  0  0  0
    7.1432  -12.4794   25.6529 C   0  0  0  0  0  0  0  0  0  0  0  0
    7.6824  -13.5444   26.5822 C   0  0  2  0  0  0  0  0  0  0  0  0
    8.4320  -12.8885   27.6989 C   0  0  0  0  0  0  0  0  0  0  0  0
    8.5130  -14.5662   25.8397 C   0  0  2  0  0  0  0  0  0  0  0  0
    7.7986  -15.1436   24.7255 N   0  0  0  0  0  0  0  0  0  0  0  0
    8.9033  -15.6256   26.8282 C   0  0  0  0  0  0  0  0  0  0  0  0
   10.0455  -15.5203   27.6089 O   0  0  0  0  0  0  0  0  0  0  0  0
    8.1902  -16.6508   26.9730 O   0  0  0  0  0  0  0  0  0  0  0  0
  2  1  1  0
  3  2  2  0
  4  2  1  0
  5  4  1  0
  6  5  1  0
  6  7  1  6
  8  9  2  0
  8  6  1  0
 11 10  1  6
 11 12  1  0
 13 11  1  0
 13 14  1  6
 14  8  1  0
 15 13  1  0
 15 16  2  0
 18 19  1  0
 18 17  1  0
 19 21  1  0
 19 20  1  1
 21 22  1  6
 21 23  1  0
 22 15  1  0
 23 25  2  0
 23 24  1  0
M  END
$$$$
