QTI.pdb
     RDKit          3D

 25 24  0  0  1  0  0  0  0  0999 V2000
   11.6073  -19.3371   17.1854 N   0  0  0  0  0  0  0  0  0  0  0  0
   11.0658  -20.4913   17.7841 C   0  0  0  0  0  0  0  0  0  0  0  0
   11.4292  -21.6400   17.3927 O   0  0  0  0  0  0  0  0  0  0  0  0
   10.0642  -20.3054   18.8789 C   0  0  0  0  0  0  0  0  0  0  0  0
    9.9688  -18.8277   19.1530 C   0  0  0  0  0  0  0  0  0  0  0  0
    9.6716  -18.5302   20.6004 C   0  0  2  0  0  0  0  0  0  0  0  0
    8.5909  -19.4005   21.0151 N   0  0  0  0  0  0  0  0  0  0  0  0
    9.2814  -17.0924   20.7117 C   0  0  0  0  0  0  0  0  0  0  0  0
    9.0087  -16.4223   19.6797 O   0  0  0  0  0  0  0  0  0  0  0  0
    7.0071  -15.4332   20.1848 C   0  0  0  0  0  0  0  0  0  0  0  0
    7.2147  -15.0052   21.6005 C   0  0  1  0  0  0  0  0  0  0  0  0
    6.5179  -15.7831   22.5239 O   0  0  0  0  0  0  0  0  0  0  0  0
    8.6891  -15.0705   22.0162 C   0  0  2  0  0  0  0  0  0  0  0  0
    9.1942  -16.4044   21.9528 N   0  0  0  0  0  0  0  0  0  0  0  0
    8.8647  -14.4297   23.3388 C   0  0  0  0  0  0  0  0  0  0  0  0
    9.1198  -13.1957   23.3396 O   0  0  0  0  0  0  0  0  0  0  0  0
    7.3268  -11.1873   27.1173 C   0  0  0  0  0  0  0  0  0  0  0  0
    8.2346  -12.3974   27.1781 C   0  0  0  0  0  0  0  0  0  0  0  0
    7.9175  -13.2739   25.9864 C   0  0  2  0  0  0  0  0  0  0  0  0
    6.5185  -13.7892   26.1139 C   0  0  0  0  0  0  0  0  0  0  0  0
    8.9358  -14.3784   25.8179 C   0  0  2  0  0  0  0  0  0  0  0  0
    8.7690  -15.0879   24.5713 N   0  0  0  0  0  0  0  0  0  0  0  0
    8.7803  -15.3088   26.9848 C   0  0  0  0  0  0  0  0  0  0  0  0
    8.3833  -16.6290   26.8270 O   0  0  0  0  0  0  0  0  0  0  0  0
    9.0107  -14.9046   28.1527 O   0  0  0  0  0  0  0  0  0  0  0  0
  2  1  1  0
  3  2  2  0
  4  2  1  0
  5  4  1  0
  6  5  1  0
  6  7  1  6
  8  9  2  0
  8  6  1  0
 11 10  1  6
 11 12  1  0
 13 11  1  0
 13 14  1  1
 14  8  1  0
 15 13  1  0
 15 16  2  0
 18 19  1  0
 18 17  1  0
 19 21  1  0
 19 20  1  1
 21 22  1  6
 21 23  1  0
 22 15  1  0
 23 25  2  0
 23 24  1  0
M  END
$$$$
