QTI.pdb
     RDKit          3D

 25 24  0  0  1  0  0  0  0  0999 V2000
    8.8316  -12.2513   18.1726 N   0  0  0  0  0  0  0  0  0  0  0  0
    8.3105  -13.3583   17.4749 C   0  0  0  0  0  0  0  0  0  0  0  0
    8.6758  -13.5877   16.2838 O   0  0  0  0  0  0  0  0  0  0  0  0
    7.3278  -14.2326   18.1865 C   0  0  0  0  0  0  0  0  0  0  0  0
    7.8055  -15.6534   18.0424 C   0  0  0  0  0  0  0  0  0  0  0  0
    8.7581  -16.0531   19.1400 C   0  0  2  0  0  0  0  0  0  0  0  0
    9.2138  -17.3985   18.8580 N   0  0  0  0  0  0  0  0  0  0  0  0
    8.0256  -15.9914   20.4405 C   0  0  0  0  0  0  0  0  0  0  0  0
    6.8074  -15.6698   20.4735 O   0  0  0  0  0  0  0  0  0  0  0  0
    6.5780  -18.3984   22.3092 C   0  0  0  0  0  0  0  0  0  0  0  0
    7.5054  -17.7563   23.2881 C   0  0  1  0  0  0  0  0  0  0  0  0
    8.7166  -18.4315   23.4310 O   0  0  0  0  0  0  0  0  0  0  0  0
    7.8638  -16.3194   22.8914 C   0  0  2  0  0  0  0  0  0  0  0  0
    8.6360  -16.2827   21.6911 N   0  0  0  0  0  0  0  0  0  0  0  0
    8.5058  -15.6305   24.0334 C   0  0  0  0  0  0  0  0  0  0  0  0
    9.7337  -15.3716   23.9195 O   0  0  0  0  0  0  0  0  0  0  0  0
    5.7926  -11.8681   26.7576 C   0  0  0  0  0  0  0  0  0  0  0  0
    6.8327  -12.6377   25.9716 C   0  0  0  0  0  0  0  0  0  0  0  0
    7.5774  -13.5302   26.9398 C   0  0  2  0  0  0  0  0  0  0  0  0
    8.2640  -12.6807   27.9625 C   0  0  0  0  0  0  0  0  0  0  0  0
    8.5247  -14.4653   26.2232 C   0  0  2  0  0  0  0  0  0  0  0  0
    7.8549  -15.2516   25.2141 N   0  0  0  0  0  0  0  0  0  0  0  0
    9.1466  -15.3511   27.2624 C   0  0  0  0  0  0  0  0  0  0  0  0
   10.2520  -14.9559   28.0020 O   0  0  0  0  0  0  0  0  0  0  0  0
    8.6704  -16.4922   27.4897 O   0  0  0  0  0  0  0  0  0  0  0  0
  2  1  1  0
  3  2  2  0
  4  2  1  0
  5  4  1  0
  6  5  1  0
  6  7  1  6
  8  9  2  0
  8  6  1  0
 11 10  1  6
 11 12  1  0
 13 11  1  0
 13 14  1  6
 14  8  1  0
 15 13  1  0
 15 16  2  0
 18 19  1  0
 18 17  1  0
 19 21  1  0
 19 20  1  1
 21 22  1  6
 21 23  1  0
 22 15  1  0
 23 25  2  0
 23 24  1  0
M  END
$$$$
