KEC.pdb
     RDKit          3D

 25 24  0  0  1  0  0  0  0  0999 V2000
    8.1532  -16.4873   18.9665 N   0  0  0  0  0  0  0  0  0  0  0  0
    8.7881  -15.5783   19.8611 C   0  0  1  0  0  0  0  0  0  0  0  0
    8.6436  -14.1232   19.4873 C   0  0  0  0  0  0  0  0  0  0  0  0
    7.6293  -13.8868   18.4160 C   0  0  0  0  0  0  0  0  0  0  0  0
    8.3405  -13.7378   17.0944 C   0  0  0  0  0  0  0  0  0  0  0  0
    7.4234  -13.4071   15.9477 C   0  0  0  0  0  0  0  0  0  0  0  0
    8.1694  -13.2803   14.6963 N   0  0  0  0  0  0  0  0  0  0  0  0
    8.3447  -15.8152   21.2532 C   0  0  0  0  0  0  0  0  0  0  0  0
    7.1087  -15.8813   21.5251 O   0  0  0  0  0  0  0  0  0  0  0  0
    9.3225  -15.9633   22.2571 N   0  0  0  0  0  0  0  0  0  0  0  0
    8.8885  -16.2501   23.6406 C   0  0  1  0  0  0  0  0  0  0  0  0
    9.8491  -17.2567   24.1563 C   0  0  0  0  0  0  0  0  0  0  0  0
    9.7281  -17.5893   25.6055 C   0  0  0  0  0  0  0  0  0  0  0  0
   10.7132  -18.6145   25.9985 C   0  0  0  0  0  0  0  0  0  0  0  0
   11.8977  -18.2890   26.3527 O   0  0  0  0  0  0  0  0  0  0  0  0
    8.7187  -14.9835   24.3289 C   0  0  0  0  0  0  0  0  0  0  0  0
    9.5910  -14.0836   24.2135 O   0  0  0  0  0  0  0  0  0  0  0  0
   10.3350  -19.9434   25.9786 O   0  0  0  0  0  0  0  0  0  0  0  0
    7.5883  -14.7214   25.1382 N   0  0  0  0  0  0  0  0  0  0  0  0
    7.5257  -13.4650   25.8540 C   0  0  1  0  0  0  0  0  0  0  0  0
    6.0476  -13.0739   25.9141 C   0  0  0  0  0  0  0  0  0  0  0  0
    5.7945  -11.6240   26.9675 S   0  0  0  0  0  0  0  0  0  0  0  0
    8.1086  -13.5582   27.2021 C   0  0  0  0  0  0  0  0  0  0  0  0
    8.1331  -14.6720   27.7773 O   0  0  0  0  0  0  0  0  0  0  0  0
    8.6179  -12.4276   27.8144 O   0  0  0  0  0  0  0  0  0  0  0  0
  2  8  1  0
  2  1  1  6
  3  2  1  0
  4  5  1  0
  4  3  1  0
  6  7  1  0
  6  5  1  0
  8  9  2  0
 10 11  1  0
 10  8  1  0
 11 12  1  1
 12 13  1  0
 13 14  1  0
 14 18  1  0
 14 15  2  0
 16 17  2  0
 16 11  1  0
 19 16  1  0
 20 23  1  0
 20 19  1  0
 20 21  1  1
 22 21  1  0
 23 25  1  0
 24 23  2  0
M  END
$$$$
