KEC.pdb
     RDKit          3D

 25 24  0  0  1  0  0  0  0  0999 V2000
    8.5470  -17.7535   19.2122 N   0  0  0  0  0  0  0  0  0  0  0  0
    7.4888  -17.4924   20.1297 C   0  0  1  0  0  0  0  0  0  0  0  0
    6.3558  -18.4884   20.0834 C   0  0  0  0  0  0  0  0  0  0  0  0
    5.2467  -18.1656   21.0311 C   0  0  0  0  0  0  0  0  0  0  0  0
    4.1906  -19.2374   20.9302 C   0  0  0  0  0  0  0  0  0  0  0  0
    3.0240  -19.0264   21.8575 C   0  0  0  0  0  0  0  0  0  0  0  0
    2.0648  -20.1257   21.7558 N   0  0  0  0  0  0  0  0  0  0  0  0
    8.0114  -17.3467   21.5068 C   0  0  0  0  0  0  0  0  0  0  0  0
    7.4756  -17.9844   22.4618 O   0  0  0  0  0  0  0  0  0  0  0  0
    9.1082  -16.4892   21.7253 N   0  0  0  0  0  0  0  0  0  0  0  0
    9.6509  -16.3577   23.0938 C   0  0  1  0  0  0  0  0  0  0  0  0
   11.1248  -16.3015   22.9316 C   0  0  0  0  0  0  0  0  0  0  0  0
   11.9097  -16.0908   24.1825 C   0  0  0  0  0  0  0  0  0  0  0  0
   13.3558  -16.0306   23.8976 C   0  0  0  0  0  0  0  0  0  0  0  0
   13.8495  -15.0876   23.1894 O   0  0  0  0  0  0  0  0  0  0  0  0
    8.9472  -15.2725   23.7528 C   0  0  0  0  0  0  0  0  0  0  0  0
    8.8176  -14.1634   23.1724 O   0  0  0  0  0  0  0  0  0  0  0  0
   14.1770  -17.0162   24.4111 O   0  0  0  0  0  0  0  0  0  0  0  0
    8.3932  -15.4211   25.0460 N   0  0  0  0  0  0  0  0  0  0  0  0
    8.1467  -14.2325   25.8343 C   0  0  1  0  0  0  0  0  0  0  0  0
    6.6582  -13.9125   25.6816 C   0  0  0  0  0  0  0  0  0  0  0  0
    6.1310  -12.6572   26.8743 S   0  0  0  0  0  0  0  0  0  0  0  0
    8.5120  -14.4120   27.2486 C   0  0  0  0  0  0  0  0  0  0  0  0
    8.7490  -15.5680   27.6724 O   0  0  0  0  0  0  0  0  0  0  0  0
    8.5891  -13.3148   28.0869 O   0  0  0  0  0  0  0  0  0  0  0  0
  2  8  1  0
  2  1  1  6
  3  2  1  0
  4  5  1  0
  4  3  1  0
  6  7  1  0
  6  5  1  0
  8  9  2  0
 10 11  1  0
 10  8  1  0
 11 12  1  6
 12 13  1  0
 13 14  1  0
 14 18  1  0
 14 15  2  0
 16 17  2  0
 16 11  1  0
 19 16  1  0
 20 23  1  0
 20 19  1  0
 20 21  1  1
 22 21  1  0
 23 25  1  0
 24 23  2  0
M  END
$$$$
