KEC.pdb
     RDKit          3D

 25 24  0  0  1  0  0  0  0  0999 V2000
    6.4127  -16.0400   19.8166 N   0  0  0  0  0  0  0  0  0  0  0  0
    7.5642  -15.3218   20.2503 C   0  0  1  0  0  0  0  0  0  0  0  0
    7.4785  -13.8261   20.0680 C   0  0  0  0  0  0  0  0  0  0  0  0
    7.1579  -13.4195   18.6665 C   0  0  0  0  0  0  0  0  0  0  0  0
    8.2014  -13.9927   17.7408 C   0  0  0  0  0  0  0  0  0  0  0  0
    8.0332  -13.5724   16.3054 C   0  0  0  0  0  0  0  0  0  0  0  0
    9.1174  -14.0934   15.4736 N   0  0  0  0  0  0  0  0  0  0  0  0
    7.9031  -15.6675   21.6489 C   0  0  0  0  0  0  0  0  0  0  0  0
    6.9864  -15.7816   22.5165 O   0  0  0  0  0  0  0  0  0  0  0  0
    9.2571  -15.8640   21.9867 N   0  0  0  0  0  0  0  0  0  0  0  0
    9.5931  -16.3374   23.3459 C   0  0  1  0  0  0  0  0  0  0  0  0
   10.9511  -16.9253   23.2360 C   0  0  0  0  0  0  0  0  0  0  0  0
   12.0004  -16.3054   24.0962 C   0  0  0  0  0  0  0  0  0  0  0  0
   12.9239  -17.3266   24.6257 C   0  0  0  0  0  0  0  0  0  0  0  0
   13.9929  -17.6379   23.9974 O   0  0  0  0  0  0  0  0  0  0  0  0
    9.3412  -15.2504   24.2743 C   0  0  0  0  0  0  0  0  0  0  0  0
    9.3335  -14.0613   23.8625 O   0  0  0  0  0  0  0  0  0  0  0  0
   12.6151  -17.9476   25.8208 O   0  0  0  0  0  0  0  0  0  0  0  0
    9.1004  -15.4855   25.6484 N   0  0  0  0  0  0  0  0  0  0  0  0
    8.9135  -14.3476   26.5231 C   0  0  1  0  0  0  0  0  0  0  0  0
    7.5283  -13.7803   26.2059 C   0  0  0  0  0  0  0  0  0  0  0  0
    7.0668  -12.4809   27.3784 S   0  0  0  0  0  0  0  0  0  0  0  0
    9.0300  -14.7084   27.9451 C   0  0  0  0  0  0  0  0  0  0  0  0
    9.0542  -15.9208   28.2638 O   0  0  0  0  0  0  0  0  0  0  0  0
    9.1105  -13.7164   28.9054 O   0  0  0  0  0  0  0  0  0  0  0  0
  2  8  1  0
  2  1  1  1
  3  2  1  0
  4  5  1  0
  4  3  1  0
  6  7  1  0
  6  5  1  0
  8  9  2  0
 10 11  1  0
 10  8  1  0
 11 12  1  6
 12 13  1  0
 13 14  1  0
 14 18  1  0
 14 15  2  0
 16 17  2  0
 16 11  1  0
 19 16  1  0
 20 23  1  0
 20 19  1  0
 20 21  1  1
 22 21  1  0
 23 25  1  0
 24 23  2  0
M  END
$$$$
