KEC.pdb
     RDKit          3D

 25 24  0  0  1  0  0  0  0  0999 V2000
    7.2475  -16.3018   19.2314 N   0  0  0  0  0  0  0  0  0  0  0  0
    7.9218  -15.3628   20.0642 C   0  0  1  0  0  0  0  0  0  0  0  0
    7.4190  -13.9445   19.9486 C   0  0  0  0  0  0  0  0  0  0  0  0
    8.0951  -13.1645   18.8685 C   0  0  0  0  0  0  0  0  0  0  0  0
    7.8486  -13.8464   17.5461 C   0  0  0  0  0  0  0  0  0  0  0  0
    8.5649  -13.2018   16.3901 C   0  0  0  0  0  0  0  0  0  0  0  0
    8.2647  -13.8895   15.1348 N   0  0  0  0  0  0  0  0  0  0  0  0
    7.9189  -15.8138   21.4739 C   0  0  0  0  0  0  0  0  0  0  0  0
    6.8274  -16.1111   22.0450 O   0  0  0  0  0  0  0  0  0  0  0  0
    9.1485  -15.9027   22.1567 N   0  0  0  0  0  0  0  0  0  0  0  0
    9.1523  -16.3446   23.5671 C   0  0  1  0  0  0  0  0  0  0  0  0
   10.3102  -17.2643   23.6908 C   0  0  0  0  0  0  0  0  0  0  0  0
   10.5900  -17.7778   25.0631 C   0  0  0  0  0  0  0  0  0  0  0  0
   11.8107  -18.6057   25.0811 C   0  0  0  0  0  0  0  0  0  0  0  0
   12.8865  -18.2062   24.5175 O   0  0  0  0  0  0  0  0  0  0  0  0
    9.0648  -15.1640   24.4071 C   0  0  0  0  0  0  0  0  0  0  0  0
    9.8152  -14.1783   24.1858 O   0  0  0  0  0  0  0  0  0  0  0  0
   11.7754  -19.8298   25.7212 O   0  0  0  0  0  0  0  0  0  0  0  0
    8.1505  -15.0822   25.4836 N   0  0  0  0  0  0  0  0  0  0  0  0
    8.1398  -13.8823   26.2930 C   0  0  1  0  0  0  0  0  0  0  0  0
    6.7246  -13.3085   26.1983 C   0  0  0  0  0  0  0  0  0  0  0  0
    6.4985  -11.9266   27.3452 S   0  0  0  0  0  0  0  0  0  0  0  0
    8.5168  -14.1459   27.6910 C   0  0  0  0  0  0  0  0  0  0  0  0
    8.5247  -15.3294   28.1050 O   0  0  0  0  0  0  0  0  0  0  0  0
    8.8547  -13.0959   28.5252 O   0  0  0  0  0  0  0  0  0  0  0  0
  2  8  1  0
  2  1  1  6
  3  2  1  0
  4  5  1  0
  4  3  1  0
  6  7  1  0
  6  5  1  0
  8  9  2  0
 10 11  1  0
 10  8  1  0
 11 12  1  1
 12 13  1  0
 13 14  1  0
 14 18  1  0
 14 15  2  0
 16 17  2  0
 16 11  1  0
 19 16  1  0
 20 23  1  0
 20 19  1  0
 20 21  1  1
 22 21  1  0
 23 25  1  0
 24 23  2  0
M  END
$$$$
