KEC.pdb
     RDKit          3D

 25 24  0  0  1  0  0  0  0  0999 V2000
    7.0636  -17.6870   21.2373 N   0  0  0  0  0  0  0  0  0  0  0  0
    8.0736  -16.8251   21.7538 C   0  0  1  0  0  0  0  0  0  0  0  0
    7.7068  -15.3611   21.7637 C   0  0  0  0  0  0  0  0  0  0  0  0
    7.2821  -14.8498   20.4257 C   0  0  0  0  0  0  0  0  0  0  0  0
    8.0808  -13.6128   20.0995 C   0  0  0  0  0  0  0  0  0  0  0  0
    7.6319  -12.9166   18.8429 C   0  0  0  0  0  0  0  0  0  0  0  0
    8.3495  -11.6564   18.6539 N   0  0  0  0  0  0  0  0  0  0  0  0
    8.5098  -17.2720   23.0957 C   0  0  0  0  0  0  0  0  0  0  0  0
    7.9664  -18.2798   23.6389 O   0  0  0  0  0  0  0  0  0  0  0  0
    9.5339  -16.5550   23.7462 N   0  0  0  0  0  0  0  0  0  0  0  0
   10.1572  -17.1363   24.9537 C   0  0  1  0  0  0  0  0  0  0  0  0
   10.9532  -18.2919   24.4713 C   0  0  0  0  0  0  0  0  0  0  0  0
   11.9448  -17.9963   23.3968 C   0  0  0  0  0  0  0  0  0  0  0  0
   12.7731  -19.1800   23.0990 C   0  0  0  0  0  0  0  0  0  0  0  0
   13.3932  -19.8014   24.0285 O   0  0  0  0  0  0  0  0  0  0  0  0
   10.8011  -16.0619   25.6873 C   0  0  0  0  0  0  0  0  0  0  0  0
   11.8020  -16.3061   26.4100 O   0  0  0  0  0  0  0  0  0  0  0  0
   12.8707  -19.6120   21.7901 O   0  0  0  0  0  0  0  0  0  0  0  0
   10.3345  -14.7282   25.6168 N   0  0  0  0  0  0  0  0  0  0  0  0
    9.9614  -14.0595   26.8451 C   0  0  1  0  0  0  0  0  0  0  0  0
    8.5427  -13.5264   26.6343 C   0  0  0  0  0  0  0  0  0  0  0  0
    7.9216  -12.7064   28.1236 S   0  0  0  0  0  0  0  0  0  0  0  0
   10.0280  -14.9533   28.0124 C   0  0  0  0  0  0  0  0  0  0  0  0
    9.6195  -16.1332   27.8979 O   0  0  0  0  0  0  0  0  0  0  0  0
   10.5353  -14.4870   29.2116 O   0  0  0  0  0  0  0  0  0  0  0  0
  2  8  1  0
  2  1  1  1
  3  2  1  0
  4  5  1  0
  4  3  1  0
  6  7  1  0
  6  5  1  0
  8  9  2  0
 10 11  1  0
 10  8  1  0
 11 12  1  6
 12 13  1  0
 13 14  1  0
 14 18  1  0
 14 15  2  0
 16 17  2  0
 16 11  1  0
 19 16  1  0
 20 23  1  0
 20 19  1  0
 20 21  1  6
 22 21  1  0
 23 25  1  0
 24 23  2  0
M  END
$$$$
