KEC.pdb
     RDKit          3D

 25 24  0  0  1  0  0  0  0  0999 V2000
    7.0315  -17.2540   20.0138 N   0  0  0  0  0  0  0  0  0  0  0  0
    7.7743  -16.1511   20.5254 C   0  0  1  0  0  0  0  0  0  0  0  0
    7.2258  -14.7955   20.1518 C   0  0  0  0  0  0  0  0  0  0  0  0
    7.4145  -14.4596   18.7083 C   0  0  0  0  0  0  0  0  0  0  0  0
    8.4150  -13.3368   18.5949 C   0  0  0  0  0  0  0  0  0  0  0  0
    8.7319  -12.9499   17.1753 C   0  0  0  0  0  0  0  0  0  0  0  0
    7.6209  -13.2731   16.2808 N   0  0  0  0  0  0  0  0  0  0  0  0
    7.9469  -16.2684   21.9907 C   0  0  0  0  0  0  0  0  0  0  0  0
    6.9445  -16.4876   22.7343 O   0  0  0  0  0  0  0  0  0  0  0  0
    9.2412  -16.1310   22.5310 N   0  0  0  0  0  0  0  0  0  0  0  0
    9.4327  -16.3209   23.9842 C   0  0  1  0  0  0  0  0  0  0  0  0
   10.7966  -16.8862   24.1334 C   0  0  0  0  0  0  0  0  0  0  0  0
   10.9687  -18.2983   23.6845 C   0  0  0  0  0  0  0  0  0  0  0  0
   12.1405  -18.9208   24.3291 C   0  0  0  0  0  0  0  0  0  0  0  0
   13.1442  -19.3084   23.6385 O   0  0  0  0  0  0  0  0  0  0  0  0
    9.0803  -15.0796   24.6490 C   0  0  0  0  0  0  0  0  0  0  0  0
    9.4526  -13.9795   24.1642 O   0  0  0  0  0  0  0  0  0  0  0  0
   12.1386  -19.0806   25.7015 O   0  0  0  0  0  0  0  0  0  0  0  0
    8.3207  -15.0635   25.8423 N   0  0  0  0  0  0  0  0  0  0  0  0
    8.0841  -13.7936   26.4953 C   0  0  1  0  0  0  0  0  0  0  0  0
    6.6153  -13.4451   26.2456 C   0  0  0  0  0  0  0  0  0  0  0  0
    6.1332  -11.9502   27.1450 S   0  0  0  0  0  0  0  0  0  0  0  0
    8.3849  -13.8390   27.9352 C   0  0  0  0  0  0  0  0  0  0  0  0
    8.5851  -14.9509   28.4789 O   0  0  0  0  0  0  0  0  0  0  0  0
    8.4427  -12.6665   28.6663 O   0  0  0  0  0  0  0  0  0  0  0  0
  2  8  1  0
  2  1  1  1
  3  2  1  0
  4  5  1  0
  4  3  1  0
  6  7  1  0
  6  5  1  0
  8  9  2  0
 10 11  1  0
 10  8  1  0
 11 12  1  6
 12 13  1  0
 13 14  1  0
 14 18  1  0
 14 15  2  0
 16 17  2  0
 16 11  1  0
 19 16  1  0
 20 23  1  0
 20 19  1  0
 20 21  1  1
 22 21  1  0
 23 25  1  0
 24 23  2  0
M  END
$$$$
