KEC.pdb
     RDKit          3D

 25 24  0  0  1  0  0  0  0  0999 V2000
    9.9009  -12.8494   19.5612 N   0  0  0  0  0  0  0  0  0  0  0  0
    8.6404  -13.3516   19.9959 C   0  0  1  0  0  0  0  0  0  0  0  0
    7.7741  -13.9147   18.8958 C   0  0  0  0  0  0  0  0  0  0  0  0
    8.5233  -14.1768   17.6300 C   0  0  0  0  0  0  0  0  0  0  0  0
    7.5517  -14.6435   16.5751 C   0  0  0  0  0  0  0  0  0  0  0  0
    8.1988  -14.9574   15.2530 C   0  0  0  0  0  0  0  0  0  0  0  0
    7.2153  -15.4487   14.2886 N   0  0  0  0  0  0  0  0  0  0  0  0
    8.8149  -14.3336   21.0894 C   0  0  0  0  0  0  0  0  0  0  0  0
    7.8022  -14.8215   21.6746 O   0  0  0  0  0  0  0  0  0  0  0  0
   10.1225  -14.7075   21.4586 N   0  0  0  0  0  0  0  0  0  0  0  0
   10.3032  -15.7520   22.4886 C   0  0  1  0  0  0  0  0  0  0  0  0
   11.5505  -16.4642   22.1158 C   0  0  0  0  0  0  0  0  0  0  0  0
   11.9599  -17.5771   23.0208 C   0  0  0  0  0  0  0  0  0  0  0  0
   13.1690  -18.2544   22.5153 C   0  0  0  0  0  0  0  0  0  0  0  0
   14.0682  -18.6831   23.3167 O   0  0  0  0  0  0  0  0  0  0  0  0
   10.1834  -15.1228   23.7912 C   0  0  0  0  0  0  0  0  0  0  0  0
   10.4179  -13.8929   23.9190 O   0  0  0  0  0  0  0  0  0  0  0  0
   13.3177  -18.4209   21.1517 O   0  0  0  0  0  0  0  0  0  0  0  0
    9.8063  -15.8563   24.9406 N   0  0  0  0  0  0  0  0  0  0  0  0
    9.6791  -15.1533   26.1994 C   0  0  1  0  0  0  0  0  0  0  0  0
    8.4834  -14.2104   26.0501 C   0  0  0  0  0  0  0  0  0  0  0  0
    8.0836  -13.4035   27.6202 S   0  0  0  0  0  0  0  0  0  0  0  0
    9.4981  -16.0692   27.3371 C   0  0  0  0  0  0  0  0  0  0  0  0
    9.1947  -17.2648   27.1118 O   0  0  0  0  0  0  0  0  0  0  0  0
    9.6627  -15.6063   28.6299 O   0  0  0  0  0  0  0  0  0  0  0  0
  2  8  1  0
  2  1  1  6
  3  2  1  0
  4  5  1  0
  4  3  1  0
  6  7  1  0
  6  5  1  0
  8  9  2  0
 10 11  1  0
 10  8  1  0
 11 12  1  1
 12 13  1  0
 13 14  1  0
 14 18  1  0
 14 15  2  0
 16 17  2  0
 16 11  1  0
 19 16  1  0
 20 23  1  0
 20 19  1  0
 20 21  1  6
 22 21  1  0
 23 25  1  0
 24 23  2  0
M  END
$$$$
