KEC.pdb
     RDKit          3D

 25 24  0  0  1  0  0  0  0  0999 V2000
    5.9844  -16.9138   21.2721 N   0  0  0  0  0  0  0  0  0  0  0  0
    7.2412  -16.3408   21.6212 C   0  0  1  0  0  0  0  0  0  0  0  0
    7.4138  -14.9006   21.2042 C   0  0  0  0  0  0  0  0  0  0  0  0
    7.7686  -14.7421   19.7615 C   0  0  0  0  0  0  0  0  0  0  0  0
    8.0553  -13.2874   19.4860 C   0  0  0  0  0  0  0  0  0  0  0  0
    8.3643  -12.9944   18.0424 C   0  0  0  0  0  0  0  0  0  0  0  0
    8.5352  -11.5589   17.8212 N   0  0  0  0  0  0  0  0  0  0  0  0
    7.5130  -16.5112   23.0661 C   0  0  0  0  0  0  0  0  0  0  0  0
    6.5779  -16.3742   23.9104 O   0  0  0  0  0  0  0  0  0  0  0  0
    8.8248  -16.8261   23.4737 N   0  0  0  0  0  0  0  0  0  0  0  0
    9.1137  -16.9517   24.9178 C   0  0  1  0  0  0  0  0  0  0  0  0
   10.1721  -17.9865   25.0213 C   0  0  0  0  0  0  0  0  0  0  0  0
   10.6840  -18.2589   26.3957 C   0  0  0  0  0  0  0  0  0  0  0  0
   11.7875  -19.2374   26.3666 C   0  0  0  0  0  0  0  0  0  0  0  0
   11.6300  -20.4222   26.8205 O   0  0  0  0  0  0  0  0  0  0  0  0
    9.3412  -15.6194   25.4471 C   0  0  0  0  0  0  0  0  0  0  0  0
   10.1961  -14.8676   24.9106 O   0  0  0  0  0  0  0  0  0  0  0  0
   13.0045  -18.8527   25.8375 O   0  0  0  0  0  0  0  0  0  0  0  0
    8.6236  -15.1291   26.5634 N   0  0  0  0  0  0  0  0  0  0  0  0
    9.1096  -13.9404   27.2310 C   0  0  1  0  0  0  0  0  0  0  0  0
    7.8809  -13.0803   27.5333 C   0  0  0  0  0  0  0  0  0  0  0  0
    6.8087  -12.9342   26.0823 S   0  0  0  0  0  0  0  0  0  0  0  0
    9.8575  -14.2536   28.4593 C   0  0  0  0  0  0  0  0  0  0  0  0
    9.9650  -15.4507   28.8161 O   0  0  0  0  0  0  0  0  0  0  0  0
   10.4279  -13.2343   29.1997 O   0  0  0  0  0  0  0  0  0  0  0  0
  2  8  1  0
  2  1  1  1
  3  2  1  0
  4  5  1  0
  4  3  1  0
  6  7  1  0
  6  5  1  0
  8  9  2  0
 10 11  1  0
 10  8  1  0
 11 12  1  6
 12 13  1  0
 13 14  1  0
 14 18  1  0
 14 15  2  0
 16 17  2  0
 16 11  1  0
 19 16  1  0
 20 23  1  0
 20 19  1  0
 20 21  1  1
 22 21  1  0
 23 25  1  0
 24 23  2  0
M  END
$$$$
