KEC.pdb
     RDKit          3D

 25 24  0  0  1  0  0  0  0  0999 V2000
    6.0644  -17.9618   21.7501 N   0  0  0  0  0  0  0  0  0  0  0  0
    7.2291  -17.1529   21.6121 C   0  0  1  0  0  0  0  0  0  0  0  0
    6.9631  -15.7400   21.1530 C   0  0  0  0  0  0  0  0  0  0  0  0
    8.2010  -15.0073   20.7493 C   0  0  0  0  0  0  0  0  0  0  0  0
    7.8208  -13.6221   20.2899 C   0  0  0  0  0  0  0  0  0  0  0  0
    8.9848  -12.8102   19.7886 C   0  0  0  0  0  0  0  0  0  0  0  0
    8.5548  -11.4774   19.3671 N   0  0  0  0  0  0  0  0  0  0  0  0
    8.0276  -17.1645   22.8583 C   0  0  0  0  0  0  0  0  0  0  0  0
    7.4519  -17.0799   23.9840 O   0  0  0  0  0  0  0  0  0  0  0  0
    9.4294  -17.2709   22.7608 N   0  0  0  0  0  0  0  0  0  0  0  0
   10.2290  -17.3380   24.0020 C   0  0  1  0  0  0  0  0  0  0  0  0
   11.5999  -17.7073   23.5705 C   0  0  0  0  0  0  0  0  0  0  0  0
   12.6287  -17.7645   24.6492 C   0  0  0  0  0  0  0  0  0  0  0  0
   13.9491  -18.1324   24.1041 C   0  0  0  0  0  0  0  0  0  0  0  0
   14.4688  -19.2744   24.3498 O   0  0  0  0  0  0  0  0  0  0  0  0
   10.0036  -16.1130   24.7474 C   0  0  0  0  0  0  0  0  0  0  0  0
    9.9227  -15.0137   24.1402 O   0  0  0  0  0  0  0  0  0  0  0  0
   14.6226  -17.2178   23.3172 O   0  0  0  0  0  0  0  0  0  0  0  0
    9.8696  -16.1123   26.1558 N   0  0  0  0  0  0  0  0  0  0  0  0
    9.8032  -14.8409   26.8442 C   0  0  1  0  0  0  0  0  0  0  0  0
    8.3520  -14.3672   26.7402 C   0  0  0  0  0  0  0  0  0  0  0  0
    8.0597  -12.9139   27.7788 S   0  0  0  0  0  0  0  0  0  0  0  0
   10.2332  -14.9404   28.2482 C   0  0  0  0  0  0  0  0  0  0  0  0
   10.4612  -16.0734   28.7345 O   0  0  0  0  0  0  0  0  0  0  0  0
   10.3796  -13.7948   29.0089 O   0  0  0  0  0  0  0  0  0  0  0  0
  2  8  1  0
  2  1  1  1
  3  2  1  0
  4  5  1  0
  4  3  1  0
  6  7  1  0
  6  5  1  0
  8  9  2  0
 10 11  1  0
 10  8  1  0
 11 12  1  6
 12 13  1  0
 13 14  1  0
 14 18  1  0
 14 15  2  0
 16 17  2  0
 16 11  1  0
 19 16  1  0
 20 23  1  0
 20 19  1  0
 20 21  1  1
 22 21  1  0
 23 25  1  0
 24 23  2  0
M  END
$$$$
