KEC.pdb
     RDKit          3D

 25 24  0  0  1  0  0  0  0  0999 V2000
    5.6375  -19.1190   21.5798 N   0  0  0  0  0  0  0  0  0  0  0  0
    5.2826  -18.9908   22.9537 C   0  0  1  0  0  0  0  0  0  0  0  0
    4.8871  -20.2835   23.6247 C   0  0  0  0  0  0  0  0  0  0  0  0
    4.0272  -21.1545   22.7678 C   0  0  0  0  0  0  0  0  0  0  0  0
    4.9129  -22.0309   21.9182 C   0  0  0  0  0  0  0  0  0  0  0  0
    4.1568  -23.0429   21.1000 C   0  0  0  0  0  0  0  0  0  0  0  0
    5.0715  -23.9079   20.3557 N   0  0  0  0  0  0  0  0  0  0  0  0
    6.3538  -18.3057   23.7112 C   0  0  0  0  0  0  0  0  0  0  0  0
    6.3546  -18.3324   24.9782 O   0  0  0  0  0  0  0  0  0  0  0  0
    7.3615  -17.6300   22.9942 N   0  0  0  0  0  0  0  0  0  0  0  0
    8.4640  -16.9901   23.7422 C   0  0  1  0  0  0  0  0  0  0  0  0
    9.6491  -17.0786   22.8536 C   0  0  0  0  0  0  0  0  0  0  0  0
   10.8842  -16.4028   23.3465 C   0  0  0  0  0  0  0  0  0  0  0  0
   12.0143  -16.6250   22.4248 C   0  0  0  0  0  0  0  0  0  0  0  0
   12.2260  -17.7743   21.9064 O   0  0  0  0  0  0  0  0  0  0  0  0
    7.9974  -15.6976   24.2101 C   0  0  0  0  0  0  0  0  0  0  0  0
    7.3758  -14.9329   23.4274 O   0  0  0  0  0  0  0  0  0  0  0  0
   12.8484  -15.5645   22.1266 O   0  0  0  0  0  0  0  0  0  0  0  0
    8.2213  -15.2609   25.5369 N   0  0  0  0  0  0  0  0  0  0  0  0
    7.8835  -13.8967   25.8830 C   0  0  1  0  0  0  0  0  0  0  0  0
    6.3595  -13.7920   25.7944 C   0  0  0  0  0  0  0  0  0  0  0  0
    5.7673  -12.2296   26.4903 S   0  0  0  0  0  0  0  0  0  0  0  0
    8.3676  -13.5215   27.2212 C   0  0  0  0  0  0  0  0  0  0  0  0
    8.9091  -14.3960   27.9382 O   0  0  0  0  0  0  0  0  0  0  0  0
    8.2216  -12.2213   27.6694 O   0  0  0  0  0  0  0  0  0  0  0  0
  2  8  1  0
  2  1  1  6
  3  2  1  0
  4  5  1  0
  4  3  1  0
  6  7  1  0
  6  5  1  0
  8  9  2  0
 10 11  1  0
 10  8  1  0
 11 12  1  6
 12 13  1  0
 13 14  1  0
 14 18  1  0
 14 15  2  0
 16 17  2  0
 16 11  1  0
 19 16  1  0
 20 23  1  0
 20 19  1  0
 20 21  1  1
 22 21  1  0
 23 25  1  0
 24 23  2  0
M  END
$$$$
