KEC.pdb
     RDKit          3D

 25 24  0  0  1  0  0  0  0  0999 V2000
   -1.9916  -26.8519   27.2639 N   0  0  0  0  0  0  0  0  0  0  0  0
   -2.3570  -25.6835   26.5350 C   0  0  1  0  0  0  0  0  0  0  0  0
   -2.1205  -25.7706   25.0469 C   0  0  0  0  0  0  0  0  0  0  0  0
   -1.3241  -26.9690   24.6448 C   0  0  0  0  0  0  0  0  0  0  0  0
    0.1183  -26.7471   25.0255 C   0  0  0  0  0  0  0  0  0  0  0  0
    1.0367  -27.8569   24.5895 C   0  0  0  0  0  0  0  0  0  0  0  0
    2.3669  -27.7013   25.1771 N   0  0  0  0  0  0  0  0  0  0  0  0
   -3.7552  -25.2971   26.8285 C   0  0  0  0  0  0  0  0  0  0  0  0
   -4.3072  -24.3610   26.1767 O   0  0  0  0  0  0  0  0  0  0  0  0
   -4.4487  -25.9899   27.8411 N   0  0  0  0  0  0  0  0  0  0  0  0
   -5.8558  -25.6317   28.1170 C   0  0  1  0  0  0  0  0  0  0  0  0
   -6.4469  -26.8245   28.7726 C   0  0  0  0  0  0  0  0  0  0  0  0
   -7.8672  -26.6910   29.2086 C   0  0  0  0  0  0  0  0  0  0  0  0
   -8.3454  -27.9323   29.8462 C   0  0  0  0  0  0  0  0  0  0  0  0
   -8.7090  -28.9365   29.1434 O   0  0  0  0  0  0  0  0  0  0  0  0
   -5.8673  -24.3468   28.7923 C   0  0  0  0  0  0  0  0  0  0  0  0
   -5.1147  -24.1501   29.7816 O   0  0  0  0  0  0  0  0  0  0  0  0
   -8.3953  -27.9955   31.2256 O   0  0  0  0  0  0  0  0  0  0  0  0
   -6.7091  -23.2912   28.3701 N   0  0  0  0  0  0  0  0  0  0  0  0
   -6.7362  -22.0727   29.1509 C   0  0  1  0  0  0  0  0  0  0  0  0
   -6.4805  -20.9251   28.1718 C   0  0  0  0  0  0  0  0  0  0  0  0
   -4.7157  -20.7535   27.8080 S   0  0  0  0  0  0  0  0  0  0  0  0
   -8.0108  -21.8922   29.8641 C   0  0  0  0  0  0  0  0  0  0  0  0
   -8.9813  -22.6292   29.5691 O   0  0  0  0  0  0  0  0  0  0  0  0
   -8.1237  -20.9211   30.8424 O   0  0  0  0  0  0  0  0  0  0  0  0
  2  8  1  0
  2  1  1  1
  3  2  1  0
  4  5  1  0
  4  3  1  0
  6  7  1  0
  6  5  1  0
  8  9  2  0
 10 11  1  0
 10  8  1  0
 11 12  1  1
 12 13  1  0
 13 14  1  0
 14 18  1  0
 14 15  2  0
 16 17  2  0
 16 11  1  0
 19 16  1  0
 20 23  1  0
 20 19  1  0
 20 21  1  6
 22 21  1  0
 23 25  1  0
 24 23  2  0
M  END
$$$$
