KEC.pdb
     RDKit          3D

 25 24  0  0  1  0  0  0  0  0999 V2000
    8.6108  -18.9689   17.3877 N   0  0  0  0  0  0  0  0  0  0  0  0
    8.3917  -17.8684   18.2656 C   0  0  1  0  0  0  0  0  0  0  0  0
    7.1249  -17.9566   19.0812 C   0  0  0  0  0  0  0  0  0  0  0  0
    6.4146  -19.2622   18.9294 C   0  0  0  0  0  0  0  0  0  0  0  0
    5.0674  -19.1662   19.6004 C   0  0  0  0  0  0  0  0  0  0  0  0
    4.2776  -20.4467   19.5578 C   0  0  0  0  0  0  0  0  0  0  0  0
    3.6930  -20.6612   18.2345 N   0  0  0  0  0  0  0  0  0  0  0  0
    9.5688  -17.6479   19.1354 C   0  0  0  0  0  0  0  0  0  0  0  0
    9.9372  -18.5476   19.9483 O   0  0  0  0  0  0  0  0  0  0  0  0
   10.2610  -16.4244   19.0370 N   0  0  0  0  0  0  0  0  0  0  0  0
   11.4250  -16.1891   19.9170 C   0  0  1  0  0  0  0  0  0  0  0  0
   12.3543  -15.3440   19.1271 C   0  0  0  0  0  0  0  0  0  0  0  0
   13.5970  -14.9109   19.8295 C   0  0  0  0  0  0  0  0  0  0  0  0
   14.5062  -14.2011   18.9100 C   0  0  0  0  0  0  0  0  0  0  0  0
   14.1884  -14.0088   17.6866 O   0  0  0  0  0  0  0  0  0  0  0  0
   10.9303  -15.7266   21.2009 C   0  0  0  0  0  0  0  0  0  0  0  0
   10.1998  -14.7036   21.2614 O   0  0  0  0  0  0  0  0  0  0  0  0
   15.7169  -13.7427   19.3931 O   0  0  0  0  0  0  0  0  0  0  0  0
   11.2462  -16.3969   22.4060 N   0  0  0  0  0  0  0  0  0  0  0  0
   10.7007  -15.8863   23.6457 C   0  0  1  0  0  0  0  0  0  0  0  0
    9.1798  -16.0091   23.5327 C   0  0  0  0  0  0  0  0  0  0  0  0
    8.3666  -15.5402   25.0803 S   0  0  0  0  0  0  0  0  0  0  0  0
   11.2090  -16.6102   24.8219 C   0  0  0  0  0  0  0  0  0  0  0  0
   11.7142  -17.7468   24.6639 O   0  0  0  0  0  0  0  0  0  0  0  0
   11.1248  -16.0350   26.0768 O   0  0  0  0  0  0  0  0  0  0  0  0
  2  8  1  0
  2  1  1  1
  3  2  1  0
  4  5  1  0
  4  3  1  0
  6  7  1  0
  6  5  1  0
  8  9  2  0
 10 11  1  0
 10  8  1  0
 11 12  1  6
 12 13  1  0
 13 14  1  0
 14 18  1  0
 14 15  2  0
 16 17  2  0
 16 11  1  0
 19 16  1  0
 20 23  1  0
 20 19  1  0
 20 21  1  6
 22 21  1  0
 23 25  1  0
 24 23  2  0
M  END
$$$$
