KEC.pdb
     RDKit          3D

 25 24  0  0  1  0  0  0  0  0999 V2000
    6.1122  -16.5651   21.4370 N   0  0  0  0  0  0  0  0  0  0  0  0
    7.3805  -15.9405   21.6134 C   0  0  1  0  0  0  0  0  0  0  0  0
    7.3452  -14.4316   21.6065 C   0  0  0  0  0  0  0  0  0  0  0  0
    6.9993  -13.8553   20.2722 C   0  0  0  0  0  0  0  0  0  0  0  0
    8.2741  -13.5102   19.5439 C   0  0  0  0  0  0  0  0  0  0  0  0
    8.0503  -12.9458   18.1667 C   0  0  0  0  0  0  0  0  0  0  0  0
    9.3003  -12.4515   17.5905 N   0  0  0  0  0  0  0  0  0  0  0  0
    8.0525  -16.4500   22.8297 C   0  0  0  0  0  0  0  0  0  0  0  0
    7.3738  -16.7271   23.8634 O   0  0  0  0  0  0  0  0  0  0  0  0
    9.4517  -16.6168   22.8082 N   0  0  0  0  0  0  0  0  0  0  0  0
   10.1350  -17.0808   24.0340 C   0  0  1  0  0  0  0  0  0  0  0  0
   11.3824  -17.7357   23.5682 C   0  0  0  0  0  0  0  0  0  0  0  0
   12.3064  -18.2117   24.6382 C   0  0  0  0  0  0  0  0  0  0  0  0
   13.5184  -18.8219   24.0598 C   0  0  0  0  0  0  0  0  0  0  0  0
   13.9843  -19.9220   24.5153 O   0  0  0  0  0  0  0  0  0  0  0  0
   10.1984  -15.9659   24.9613 C   0  0  0  0  0  0  0  0  0  0  0  0
   10.3804  -14.7982   24.5287 O   0  0  0  0  0  0  0  0  0  0  0  0
   14.1490  -18.1828   23.0096 O   0  0  0  0  0  0  0  0  0  0  0  0
   10.0605  -16.1497   26.3573 N   0  0  0  0  0  0  0  0  0  0  0  0
   10.1922  -14.9977   27.2235 C   0  0  1  0  0  0  0  0  0  0  0  0
    8.8565  -14.2539   27.1612 C   0  0  0  0  0  0  0  0  0  0  0  0
    8.7817  -12.9341   28.3976 S   0  0  0  0  0  0  0  0  0  0  0  0
   10.5312  -15.3716   28.6060 C   0  0  0  0  0  0  0  0  0  0  0  0
   10.8800  -14.4745   29.4095 O   0  0  0  0  0  0  0  0  0  0  0  0
   10.4625  -16.6954   29.0003 O   0  0  0  0  0  0  0  0  0  0  0  0
  2  8  1  0
  2  1  1  1
  3  2  1  0
  4  5  1  0
  4  3  1  0
  6  7  1  0
  6  5  1  0
  8  9  2  0
 10 11  1  0
 10  8  1  0
 11 12  1  6
 12 13  1  0
 13 14  1  0
 14 18  1  0
 14 15  2  0
 16 17  2  0
 16 11  1  0
 19 16  1  0
 20 23  1  0
 20 19  1  0
 20 21  1  1
 22 21  1  0
 23 25  1  0
 24 23  2  0
M  END
$$$$
