KEC.pdb
     RDKit          3D

 25 24  0  0  1  0  0  0  0  0999 V2000
    6.7046  -17.3382   21.6942 N   0  0  0  0  0  0  0  0  0  0  0  0
    7.9329  -16.6170   21.6613 C   0  0  1  0  0  0  0  0  0  0  0  0
    7.7913  -15.1470   21.3498 C   0  0  0  0  0  0  0  0  0  0  0  0
    7.3477  -14.8806   19.9482 C   0  0  0  0  0  0  0  0  0  0  0  0
    7.9609  -13.5848   19.4798 C   0  0  0  0  0  0  0  0  0  0  0  0
    7.5646  -13.1991   18.0800 C   0  0  0  0  0  0  0  0  0  0  0  0
    8.2760  -11.9983   17.6432 N   0  0  0  0  0  0  0  0  0  0  0  0
    8.6969  -16.8233   22.9121 C   0  0  0  0  0  0  0  0  0  0  0  0
    8.0930  -17.1248   23.9846 O   0  0  0  0  0  0  0  0  0  0  0  0
   10.0981  -16.6768   22.8792 N   0  0  0  0  0  0  0  0  0  0  0  0
   10.8681  -16.8880   24.1229 C   0  0  1  0  0  0  0  0  0  0  0  0
   12.2687  -17.1140   23.6881 C   0  0  0  0  0  0  0  0  0  0  0  0
   13.2695  -17.2880   24.7805 C   0  0  0  0  0  0  0  0  0  0  0  0
   14.6323  -17.4293   24.2339 C   0  0  0  0  0  0  0  0  0  0  0  0
   15.1614  -18.5819   24.0719 O   0  0  0  0  0  0  0  0  0  0  0  0
   10.5530  -15.8036   25.0350 C   0  0  0  0  0  0  0  0  0  0  0  0
   10.5657  -14.6139   24.6250 O   0  0  0  0  0  0  0  0  0  0  0  0
   15.3356  -16.2889   23.8963 O   0  0  0  0  0  0  0  0  0  0  0  0
   10.2269  -16.0420   26.3908 N   0  0  0  0  0  0  0  0  0  0  0  0
   10.0593  -14.9064   27.2725 C   0  0  1  0  0  0  0  0  0  0  0  0
    8.6126  -14.4374   27.1046 C   0  0  0  0  0  0  0  0  0  0  0  0
    8.1920  -13.1598   28.3158 S   0  0  0  0  0  0  0  0  0  0  0  0
   10.3538  -15.2380   28.6758 C   0  0  0  0  0  0  0  0  0  0  0  0
   10.5097  -16.4403   28.9958 O   0  0  0  0  0  0  0  0  0  0  0  0
   10.4543  -14.2302   29.6175 O   0  0  0  0  0  0  0  0  0  0  0  0
  2  8  1  0
  2  1  1  1
  3  2  1  0
  4  5  1  0
  4  3  1  0
  6  7  1  0
  6  5  1  0
  8  9  2  0
 10 11  1  0
 10  8  1  0
 11 12  1  6
 12 13  1  0
 13 14  1  0
 14 18  1  0
 14 15  2  0
 16 17  2  0
 16 11  1  0
 19 16  1  0
 20 23  1  0
 20 19  1  0
 20 21  1  1
 22 21  1  0
 23 25  1  0
 24 23  2  0
M  END
$$$$
