SGA.pdb
     RDKit          3D

 16 15  0  0  1  0  0  0  0  0999 V2000
   16.0238  -11.2394  -16.4601 O   0  0  0  0  0  0  0  0  0  0  0  0
   17.4108  -11.2259  -16.6012 C   0  0  0  0  0  0  0  0  0  0  0  0
   18.0597  -10.6642  -15.3701 C   0  0  2  0  0  0  0  0  0  0  0  0
   17.5291   -9.3628  -15.0141 N   0  0  0  0  0  0  0  0  0  0  0  0
   19.5119  -10.5845  -15.4227 C   0  0  0  0  0  0  0  0  0  0  0  0
   20.1554  -11.6687  -15.6352 O   0  0  0  0  0  0  0  0  0  0  0  0
   20.2880   -9.4091  -15.2594 N   0  0  0  0  0  0  0  0  0  0  0  0
   21.7107   -9.3524  -15.5159 C   0  0  0  0  0  0  0  0  0  0  0  0
   22.1643   -7.9344  -15.3491 C   0  0  0  0  0  0  0  0  0  0  0  0
   23.3909   -7.6224  -15.3939 O   0  0  0  0  0  0  0  0  0  0  0  0
   20.5633   -4.6118  -15.4172 C   0  0  0  0  0  0  0  0  0  0  0  0
   21.6906   -5.5198  -14.9260 C   0  0  2  0  0  0  0  0  0  0  0  0
   21.2500   -6.8742  -15.1337 N   0  0  0  0  0  0  0  0  0  0  0  0
   21.9198   -5.2318  -13.4790 C   0  0  0  0  0  0  0  0  0  0  0  0
   21.5524   -6.0512  -12.6003 O   0  0  0  0  0  0  0  0  0  0  0  0
   22.5383   -4.0590  -13.1125 O   0  0  0  0  0  0  0  0  0  0  0  0
  2  1  1  0
  3  2  1  0
  3  4  1  6
  5  3  1  0
  6  5  2  0
  7  5  1  0
  8  7  1  0
  9 13  1  0
  9  8  1  0
 10  9  2  0
 12 11  1  1
 12 13  1  0
 12 14  1  0
 14 16  1  0
 15 14  2  0
M  END
$$$$
