SGA.pdb
     RDKit          3D

 16 15  0  0  1  0  0  0  0  0999 V2000
   18.4266   -9.8430  -14.5159 O   0  0  0  0  0  0  0  0  0  0  0  0
   19.3129   -8.7685  -14.4565 C   0  0  0  0  0  0  0  0  0  0  0  0
   19.8516   -8.6069  -13.0651 C   0  0  2  0  0  0  0  0  0  0  0  0
   18.8070   -8.3227  -12.1008 N   0  0  0  0  0  0  0  0  0  0  0  0
   20.9066   -7.6140  -12.9259 C   0  0  0  0  0  0  0  0  0  0  0  0
   21.9902   -7.9800  -12.3547 O   0  0  0  0  0  0  0  0  0  0  0  0
   20.8467   -6.2678  -13.3673 N   0  0  0  0  0  0  0  0  0  0  0  0
   21.9422   -5.3337  -13.2244 C   0  0  0  0  0  0  0  0  0  0  0  0
   21.4924   -3.9976  -13.7311 C   0  0  0  0  0  0  0  0  0  0  0  0
   22.2374   -2.9761  -13.6554 O   0  0  0  0  0  0  0  0  0  0  0  0
   18.9700   -2.7078  -16.0225 C   0  0  0  0  0  0  0  0  0  0  0  0
   19.7529   -2.5075  -14.7250 C   0  0  2  0  0  0  0  0  0  0  0  0
   20.2174   -3.8077  -14.3181 N   0  0  0  0  0  0  0  0  0  0  0  0
   18.8293   -1.9123  -13.7141 C   0  0  0  0  0  0  0  0  0  0  0  0
   18.4919   -0.7045  -13.7924 O   0  0  0  0  0  0  0  0  0  0  0  0
   18.3480   -2.6976  -12.6924 O   0  0  0  0  0  0  0  0  0  0  0  0
  2  1  1  0
  3  2  1  0
  3  4  1  1
  5  3  1  0
  6  5  2  0
  7  5  1  0
  8  7  1  0
  9 13  1  0
  9  8  1  0
 10  9  2  0
 12 11  1  6
 12 13  1  0
 12 14  1  0
 14 16  1  0
 15 14  2  0
M  END
$$$$
