SGA.pdb
     RDKit          3D

 16 15  0  0  1  0  0  0  0  0999 V2000
   36.3721  -10.0384   -8.7478 O   0  0  0  0  0  0  0  0  0  0  0  0
   37.5858   -9.3897   -8.9712 C   0  0  0  0  0  0  0  0  0  0  0  0
   38.6989  -10.0933   -8.2515 C   0  0  2  0  0  0  0  0  0  0  0  0
   38.4061  -10.2907   -6.8453 N   0  0  0  0  0  0  0  0  0  0  0  0
   40.0062   -9.4663   -8.3788 C   0  0  0  0  0  0  0  0  0  0  0  0
   40.4483   -8.8132   -7.3727 O   0  0  0  0  0  0  0  0  0  0  0  0
   40.8434   -9.5112   -9.5224 N   0  0  0  0  0  0  0  0  0  0  0  0
   42.1745   -8.9455   -9.5570 C   0  0  0  0  0  0  0  0  0  0  0  0
   42.0710   -7.5229  -10.0152 C   0  0  0  0  0  0  0  0  0  0  0  0
   40.9700   -7.0307  -10.4020 O   0  0  0  0  0  0  0  0  0  0  0  0
   44.5019   -4.7048  -10.4137 C   0  0  0  0  0  0  0  0  0  0  0  0
   43.0967   -5.2997  -10.5042 C   0  0  2  0  0  0  0  0  0  0  0  0
   43.1930   -6.6586  -10.0396 N   0  0  0  0  0  0  0  0  0  0  0  0
   42.6578   -5.2356  -11.9299 C   0  0  0  0  0  0  0  0  0  0  0  0
   42.0695   -4.2165  -12.3702 O   0  0  0  0  0  0  0  0  0  0  0  0
   42.9027   -6.3036  -12.7616 O   0  0  0  0  0  0  0  0  0  0  0  0
  2  1  1  0
  3  2  1  0
  3  4  1  1
  5  3  1  0
  6  5  2  0
  7  5  1  0
  8  7  1  0
  9 13  1  0
  9  8  1  0
 10  9  2  0
 12 11  1  6
 12 13  1  0
 12 14  1  0
 14 16  1  0
 15 14  2  0
M  END
$$$$
