SGA.pdb
     RDKit          3D

 16 15  0  0  1  0  0  0  0  0999 V2000
   18.1732  -13.1895  -15.5060 O   0  0  0  0  0  0  0  0  0  0  0  0
   19.3135  -12.3902  -15.5729 C   0  0  0  0  0  0  0  0  0  0  0  0
   18.9460  -10.9771  -15.9199 C   0  0  2  0  0  0  0  0  0  0  0  0
   18.4088  -10.8624  -17.2616 N   0  0  0  0  0  0  0  0  0  0  0  0
   20.0167  -10.0053  -15.7545 C   0  0  0  0  0  0  0  0  0  0  0  0
   20.5098   -9.8636  -14.5835 O   0  0  0  0  0  0  0  0  0  0  0  0
   20.5699   -9.1935  -16.7771 N   0  0  0  0  0  0  0  0  0  0  0  0
   21.6684   -8.2776  -16.5596 C   0  0  0  0  0  0  0  0  0  0  0  0
   21.1446   -7.0761  -15.8340 C   0  0  0  0  0  0  0  0  0  0  0  0
   19.9691   -6.6463  -16.0280 O   0  0  0  0  0  0  0  0  0  0  0  0
   22.2518   -5.1081  -12.8990 C   0  0  0  0  0  0  0  0  0  0  0  0
   21.4131   -5.2334  -14.1708 C   0  0  2  0  0  0  0  0  0  0  0  0
   21.9322   -6.3618  -14.8982 N   0  0  0  0  0  0  0  0  0  0  0  0
   21.5565   -3.9658  -14.9466 C   0  0  0  0  0  0  0  0  0  0  0  0
   22.2828   -3.9244  -15.9710 O   0  0  0  0  0  0  0  0  0  0  0  0
   20.8857   -2.8389  -14.5312 O   0  0  0  0  0  0  0  0  0  0  0  0
  2  1  1  0
  3  2  1  0
  3  4  1  6
  5  3  1  0
  6  5  2  0
  7  5  1  0
  8  7  1  0
  9 13  1  0
  9  8  1  0
 10  9  2  0
 12 11  1  1
 12 13  1  0
 12 14  1  0
 14 16  1  0
 15 14  2  0
M  END
$$$$
