SGA.pdb
     RDKit          3D

 16 15  0  0  1  0  0  0  0  0999 V2000
   18.5266  -14.4719  -16.2691 O   0  0  0  0  0  0  0  0  0  0  0  0
   18.1651  -13.1592  -16.5692 C   0  0  0  0  0  0  0  0  0  0  0  0
   19.3749  -12.2713  -16.5875 C   0  0  2  0  0  0  0  0  0  0  0  0
   20.2560  -12.5195  -15.4632 N   0  0  0  0  0  0  0  0  0  0  0  0
   19.0901  -10.8459  -16.6595 C   0  0  0  0  0  0  0  0  0  0  0  0
   18.4884  -10.4160  -17.7025 O   0  0  0  0  0  0  0  0  0  0  0  0
   19.4191   -9.8801  -15.6749 N   0  0  0  0  0  0  0  0  0  0  0  0
   19.1909   -8.4615  -15.8438 C   0  0  0  0  0  0  0  0  0  0  0  0
   20.4334   -7.7315  -15.4342 C   0  0  0  0  0  0  0  0  0  0  0  0
   21.4358   -8.3447  -14.9616 O   0  0  0  0  0  0  0  0  0  0  0  0
   21.6273   -4.2114  -15.7674 C   0  0  0  0  0  0  0  0  0  0  0  0
   21.7700   -5.6330  -15.2242 C   0  0  2  0  0  0  0  0  0  0  0  0
   20.5516   -6.3250  -15.5535 N   0  0  0  0  0  0  0  0  0  0  0  0
   21.9713   -5.5463  -13.7473 C   0  0  0  0  0  0  0  0  0  0  0  0
   23.0708   -5.1630  -13.2755 O   0  0  0  0  0  0  0  0  0  0  0  0
   20.9412   -5.8902  -12.9029 O   0  0  0  0  0  0  0  0  0  0  0  0
  2  1  1  0
  3  2  1  0
  3  4  1  1
  5  3  1  0
  6  5  2  0
  7  5  1  0
  8  7  1  0
  9 13  1  0
  9  8  1  0
 10  9  2  0
 12 11  1  1
 12 13  1  0
 12 14  1  0
 14 16  1  0
 15 14  2  0
M  END
$$$$
