SGA.pdb
     RDKit          3D

 16 15  0  0  1  0  0  0  0  0999 V2000
   14.0077  -13.8286  -12.0264 O   0  0  0  0  0  0  0  0  0  0  0  0
   13.8464  -12.9570  -13.1025 C   0  0  0  0  0  0  0  0  0  0  0  0
   15.1814  -12.5393  -13.6461 C   0  0  2  0  0  0  0  0  0  0  0  0
   15.9545  -13.6659  -14.1309 N   0  0  0  0  0  0  0  0  0  0  0  0
   16.0023  -11.7618  -12.7297 C   0  0  0  0  0  0  0  0  0  0  0  0
   17.2098  -12.1419  -12.5510 O   0  0  0  0  0  0  0  0  0  0  0  0
   15.5869  -10.6128  -12.0099 N   0  0  0  0  0  0  0  0  0  0  0  0
   16.4730   -9.8357  -11.1709 C   0  0  0  0  0  0  0  0  0  0  0  0
   15.6911   -8.7018  -10.5815 C   0  0  0  0  0  0  0  0  0  0  0  0
   14.4474   -8.5785  -10.7867 O   0  0  0  0  0  0  0  0  0  0  0  0
   14.5544   -7.1690   -8.2413 C   0  0  0  0  0  0  0  0  0  0  0  0
   15.5561   -6.5974   -9.2446 C   0  0  2  0  0  0  0  0  0  0  0  0
   16.2985   -7.7138   -9.7684 N   0  0  0  0  0  0  0  0  0  0  0  0
   16.4422   -5.6392   -8.5194 C   0  0  0  0  0  0  0  0  0  0  0  0
   16.0056   -4.5191   -8.1543 O   0  0  0  0  0  0  0  0  0  0  0  0
   17.7447   -5.9918   -8.2525 O   0  0  0  0  0  0  0  0  0  0  0  0
  2  1  1  0
  3  2  1  0
  3  4  1  1
  5  3  1  0
  6  5  2  0
  7  5  1  0
  8  7  1  0
  9 13  1  0
  9  8  1  0
 10  9  2  0
 12 11  1  1
 12 13  1  0
 12 14  1  0
 14 16  1  0
 15 14  2  0
M  END
$$$$
