SGA.pdb
     RDKit          3D

 16 15  0  0  1  0  0  0  0  0999 V2000
   18.5022  -14.1400  -15.0748 O   0  0  0  0  0  0  0  0  0  0  0  0
   18.9528  -13.0380  -15.8002 C   0  0  0  0  0  0  0  0  0  0  0  0
   18.1468  -11.8186  -15.4599 C   0  0  2  0  0  0  0  0  0  0  0  0
   16.7391  -11.9881  -15.7624 N   0  0  0  0  0  0  0  0  0  0  0  0
   18.6157  -10.5824  -16.0684 C   0  0  0  0  0  0  0  0  0  0  0  0
   18.2442  -10.3361  -17.2666 O   0  0  0  0  0  0  0  0  0  0  0  0
   19.4526   -9.6168  -15.4536 N   0  0  0  0  0  0  0  0  0  0  0  0
   20.0097   -8.4824  -16.1578 C   0  0  0  0  0  0  0  0  0  0  0  0
   20.8999   -7.7323  -15.2148 C   0  0  0  0  0  0  0  0  0  0  0  0
   20.9400   -8.0107  -13.9799 O   0  0  0  0  0  0  0  0  0  0  0  0
   23.4864   -5.0611  -15.6195 C   0  0  0  0  0  0  0  0  0  0  0  0
   22.6541   -6.0143  -14.7620 C   0  0  2  0  0  0  0  0  0  0  0  0
   21.7388   -6.6783  -15.6525 N   0  0  0  0  0  0  0  0  0  0  0  0
   21.9331   -5.2041  -13.7359 C   0  0  0  0  0  0  0  0  0  0  0  0
   22.4987   -4.8908  -12.6587 O   0  0  0  0  0  0  0  0  0  0  0  0
   20.6403   -4.8011  -13.9783 O   0  0  0  0  0  0  0  0  0  0  0  0
  2  1  1  0
  3  2  1  0
  3  4  1  6
  5  3  1  0
  6  5  2  0
  7  5  1  0
  8  7  1  0
  9 13  1  0
  9  8  1  0
 10  9  2  0
 12 11  1  6
 12 13  1  0
 12 14  1  0
 14 16  1  0
 15 14  2  0
M  END
$$$$
