SGA.pdb
     RDKit          3D

 16 15  0  0  1  0  0  0  0  0999 V2000
   23.1594   -4.0696  -14.7201 O   0  0  0  0  0  0  0  0  0  0  0  0
   22.5680   -5.1608  -14.0851 C   0  0  0  0  0  0  0  0  0  0  0  0
   21.2007   -5.4192  -14.6470 C   0  0  2  0  0  0  0  0  0  0  0  0
   20.3462   -4.2503  -14.5736 N   0  0  0  0  0  0  0  0  0  0  0  0
   20.5007   -6.5540  -14.0634 C   0  0  0  0  0  0  0  0  0  0  0  0
   19.8824   -6.3629  -12.9609 O   0  0  0  0  0  0  0  0  0  0  0  0
   20.4386   -7.8627  -14.6058 N   0  0  0  0  0  0  0  0  0  0  0  0
   19.7183   -8.9503  -13.9802 C   0  0  0  0  0  0  0  0  0  0  0  0
   18.7499   -9.5101  -14.9769 C   0  0  0  0  0  0  0  0  0  0  0  0
   18.5906   -8.9786  -16.1153 O   0  0  0  0  0  0  0  0  0  0  0  0
   17.0194  -12.7222  -15.4129 C   0  0  0  0  0  0  0  0  0  0  0  0
   17.0654  -11.2166  -15.6728 C   0  0  2  0  0  0  0  0  0  0  0  0
   17.9662  -10.6569  -14.6996 N   0  0  0  0  0  0  0  0  0  0  0  0
   15.6820  -10.6772  -15.5161 C   0  0  0  0  0  0  0  0  0  0  0  0
   15.2609  -10.3218  -14.3870 O   0  0  0  0  0  0  0  0  0  0  0  0
   14.8682  -10.5715  -16.6200 O   0  0  0  0  0  0  0  0  0  0  0  0
  2  1  1  0
  3  2  1  0
  3  4  1  1
  5  3  1  0
  6  5  2  0
  7  5  1  0
  8  7  1  0
  9 13  1  0
  9  8  1  0
 10  9  2  0
 12 11  1  1
 12 13  1  0
 12 14  1  0
 14 16  1  0
 15 14  2  0
M  END
$$$$
