SGA.pdb
     RDKit          3D

 16 15  0  0  1  0  0  0  0  0999 V2000
   17.2196  -12.0878  -16.8005 O   0  0  0  0  0  0  0  0  0  0  0  0
   18.5170  -11.7650  -17.1954 C   0  0  0  0  0  0  0  0  0  0  0  0
   19.3458  -11.3706  -16.0081 C   0  0  2  0  0  0  0  0  0  0  0  0
   18.6699  -10.4072  -15.1614 N   0  0  0  0  0  0  0  0  0  0  0  0
   20.6754  -10.8706  -16.3253 C   0  0  0  0  0  0  0  0  0  0  0  0
   21.4841  -11.6717  -16.9073 O   0  0  0  0  0  0  0  0  0  0  0  0
   21.1635   -9.5685  -16.0481 N   0  0  0  0  0  0  0  0  0  0  0  0
   22.4379   -9.0777  -16.5257 C   0  0  0  0  0  0  0  0  0  0  0  0
   22.6033   -7.6632  -16.0607 C   0  0  0  0  0  0  0  0  0  0  0  0
   23.6978   -7.0427  -16.2055 O   0  0  0  0  0  0  0  0  0  0  0  0
   20.3454   -4.9238  -15.0980 C   0  0  0  0  0  0  0  0  0  0  0  0
   21.7141   -5.5944  -14.9821 C   0  0  2  0  0  0  0  0  0  0  0  0
   21.5499   -6.9497  -15.4382 N   0  0  0  0  0  0  0  0  0  0  0  0
   22.1352   -5.5430  -13.5506 C   0  0  0  0  0  0  0  0  0  0  0  0
   22.0449   -6.5633  -12.8229 O   0  0  0  0  0  0  0  0  0  0  0  0
   22.6245   -4.3670  -13.0312 O   0  0  0  0  0  0  0  0  0  0  0  0
  2  1  1  0
  3  2  1  0
  3  4  1  6
  5  3  1  0
  6  5  2  0
  7  5  1  0
  8  7  1  0
  9 13  1  0
  9  8  1  0
 10  9  2  0
 12 11  1  1
 12 13  1  0
 12 14  1  0
 14 16  1  0
 15 14  2  0
M  END
$$$$
