SGA.pdb
     RDKit          3D

 16 15  0  0  1  0  0  0  0  0999 V2000
   24.2366  -13.6001  -18.6843 O   0  0  0  0  0  0  0  0  0  0  0  0
   23.4153  -12.9673  -17.7521 C   0  0  0  0  0  0  0  0  0  0  0  0
   24.2380  -12.1808  -16.7740 C   0  0  2  0  0  0  0  0  0  0  0  0
   25.2271  -13.0012  -16.1028 N   0  0  0  0  0  0  0  0  0  0  0  0
   23.4727  -11.4502  -15.7747 C   0  0  0  0  0  0  0  0  0  0  0  0
   23.0719  -12.0981  -14.7480 O   0  0  0  0  0  0  0  0  0  0  0  0
   23.1261  -10.0764  -15.8317 N   0  0  0  0  0  0  0  0  0  0  0  0
   22.3573   -9.4061  -14.8056 C   0  0  0  0  0  0  0  0  0  0  0  0
   22.2838   -7.9493  -15.1468 C   0  0  0  0  0  0  0  0  0  0  0  0
   23.0781   -7.4243  -15.9820 O   0  0  0  0  0  0  0  0  0  0  0  0
   19.8650   -5.2123  -14.4278 C   0  0  0  0  0  0  0  0  0  0  0  0
   21.2287   -5.6979  -14.9190 C   0  0  2  0  0  0  0  0  0  0  0  0
   21.3273   -7.0873  -14.5564 N   0  0  0  0  0  0  0  0  0  0  0  0
   22.2810   -4.8783  -14.2482 C   0  0  0  0  0  0  0  0  0  0  0  0
   22.6332   -3.7736  -14.7321 O   0  0  0  0  0  0  0  0  0  0  0  0
   22.8652   -5.3422  -13.0924 O   0  0  0  0  0  0  0  0  0  0  0  0
  2  1  1  0
  3  2  1  0
  3  4  1  1
  5  3  1  0
  6  5  2  0
  7  5  1  0
  8  7  1  0
  9 13  1  0
  9  8  1  0
 10  9  2  0
 12 11  1  1
 12 13  1  0
 12 14  1  0
 14 16  1  0
 15 14  2  0
M  END
$$$$
