SGA.pdb
     RDKit          3D

 16 15  0  0  1  0  0  0  0  0999 V2000
   16.5467  -12.5449  -15.5916 O   0  0  0  0  0  0  0  0  0  0  0  0
   17.1295  -11.4967  -16.3024 C   0  0  0  0  0  0  0  0  0  0  0  0
   18.5830  -11.3672  -15.9519 C   0  0  2  0  0  0  0  0  0  0  0  0
   18.7956  -11.2519  -14.5224 N   0  0  0  0  0  0  0  0  0  0  0  0
   19.2829  -10.2820  -16.6232 C   0  0  0  0  0  0  0  0  0  0  0  0
   19.3685  -10.3338  -17.8978 O   0  0  0  0  0  0  0  0  0  0  0  0
   19.8840   -9.1630  -15.9930 N   0  0  0  0  0  0  0  0  0  0  0  0
   20.6317   -8.1525  -16.7093 C   0  0  0  0  0  0  0  0  0  0  0  0
   21.0343   -7.0858  -15.7376 C   0  0  0  0  0  0  0  0  0  0  0  0
   20.6499   -7.1105  -14.5311 O   0  0  0  0  0  0  0  0  0  0  0  0
   23.2922   -4.1079  -15.9042 C   0  0  0  0  0  0  0  0  0  0  0  0
   22.3237   -5.0272  -15.1601 C   0  0  2  0  0  0  0  0  0  0  0  0
   21.8613   -5.9997  -16.1153 N   0  0  0  0  0  0  0  0  0  0  0  0
   21.2014   -4.1922  -14.6382 C   0  0  0  0  0  0  0  0  0  0  0  0
   20.1530   -4.0398  -15.3136 O   0  0  0  0  0  0  0  0  0  0  0  0
   21.3229   -3.5883  -13.4082 O   0  0  0  0  0  0  0  0  0  0  0  0
  2  1  1  0
  3  2  1  0
  3  4  1  1
  5  3  1  0
  6  5  2  0
  7  5  1  0
  8  7  1  0
  9 13  1  0
  9  8  1  0
 10  9  2  0
 12 11  1  6
 12 13  1  0
 12 14  1  0
 14 16  1  0
 15 14  2  0
M  END
$$$$
