SGA.pdb
     RDKit          3D

 16 15  0  0  1  0  0  0  0  0999 V2000
   13.6033  -10.6068  -16.0205 O   0  0  0  0  0  0  0  0  0  0  0  0
   14.9912  -10.4997  -15.9433 C   0  0  0  0  0  0  0  0  0  0  0  0
   15.3851   -9.1750  -15.3583 C   0  0  2  0  0  0  0  0  0  0  0  0
   15.0657   -8.0684  -16.2388 N   0  0  0  0  0  0  0  0  0  0  0  0
   16.7798   -9.0714  -14.9554 C   0  0  0  0  0  0  0  0  0  0  0  0
   17.1942   -9.8740  -14.0506 O   0  0  0  0  0  0  0  0  0  0  0  0
   17.7311   -8.1573  -15.4751 N   0  0  0  0  0  0  0  0  0  0  0  0
   19.1294   -8.1668  -15.1041 C   0  0  0  0  0  0  0  0  0  0  0  0
   19.5331   -6.7685  -14.7490 C   0  0  0  0  0  0  0  0  0  0  0  0
   18.7687   -5.7829  -14.9692 O   0  0  0  0  0  0  0  0  0  0  0  0
   22.3894   -5.2599  -12.8821 C   0  0  0  0  0  0  0  0  0  0  0  0
   21.1523   -5.1384  -13.7717 C   0  0  2  0  0  0  0  0  0  0  0  0
   20.7839   -6.4770  -14.1517 N   0  0  0  0  0  0  0  0  0  0  0  0
   21.5156   -4.3098  -14.9593 C   0  0  0  0  0  0  0  0  0  0  0  0
   21.9195   -4.8547  -16.0169 O   0  0  0  0  0  0  0  0  0  0  0  0
   21.4051   -2.9405  -14.8881 O   0  0  0  0  0  0  0  0  0  0  0  0
  2  1  1  0
  3  2  1  0
  3  4  1  6
  5  3  1  0
  6  5  2  0
  7  5  1  0
  8  7  1  0
  9 13  1  0
  9  8  1  0
 10  9  2  0
 12 11  1  1
 12 13  1  0
 12 14  1  0
 14 16  1  0
 15 14  2  0
M  END
$$$$
