SGA.pdb
     RDKit          3D

 16 15  0  0  1  0  0  0  0  0999 V2000
   15.8527  -11.9228  -14.1876 O   0  0  0  0  0  0  0  0  0  0  0  0
   16.5493  -10.7982  -14.6278 C   0  0  0  0  0  0  0  0  0  0  0  0
   17.6041  -11.1881  -15.6217 C   0  0  2  0  0  0  0  0  0  0  0  0
   18.4911  -12.2134  -15.1082 N   0  0  0  0  0  0  0  0  0  0  0  0
   18.4030  -10.0850  -16.1346 C   0  0  0  0  0  0  0  0  0  0  0  0
   17.7866   -9.1367  -16.7306 O   0  0  0  0  0  0  0  0  0  0  0  0
   19.8120   -9.9606  -16.0354 N   0  0  0  0  0  0  0  0  0  0  0  0
   20.5628   -8.8928  -16.6592 C   0  0  0  0  0  0  0  0  0  0  0  0
   21.1357   -8.0257  -15.5801 C   0  0  0  0  0  0  0  0  0  0  0  0
   20.9310   -8.2721  -14.3548 O   0  0  0  0  0  0  0  0  0  0  0  0
   23.6268   -5.2572  -15.5148 C   0  0  0  0  0  0  0  0  0  0  0  0
   22.5588   -6.1142  -14.8354 C   0  0  2  0  0  0  0  0  0  0  0  0
   21.9319   -6.8913  -15.8722 N   0  0  0  0  0  0  0  0  0  0  0  0
   21.5854   -5.1988  -14.1693 C   0  0  0  0  0  0  0  0  0  0  0  0
   20.5520   -4.8183  -14.7742 O   0  0  0  0  0  0  0  0  0  0  0  0
   21.8279   -4.7730  -12.8839 O   0  0  0  0  0  0  0  0  0  0  0  0
  2  1  1  0
  3  2  1  0
  3  4  1  1
  5  3  1  0
  6  5  2  0
  7  5  1  0
  8  7  1  0
  9 13  1  0
  9  8  1  0
 10  9  2  0
 12 11  1  6
 12 13  1  0
 12 14  1  0
 14 16  1  0
 15 14  2  0
M  END
$$$$
