CIP.pdb
     RDKit          3D

 22 22  0  0  1  0  0  0  0  0999 V2000
    5.1386  -19.5899   25.3041 N   0  0  0  0  0  0  0  0  0  0  0  0
    6.0338  -18.7030   26.0167 C   0  0  1  0  0  0  0  0  0  0  0  0
    7.3019  -19.4649   26.2798 C   0  0  0  0  0  0  0  0  0  0  0  0
    8.4020  -18.5777   27.4131 S   0  0  0  0  0  0  0  0  0  0  0  0
    6.2063  -17.4706   25.2643 C   0  0  0  0  0  0  0  0  0  0  0  0
    6.0841  -17.5174   24.0068 O   0  0  0  0  0  0  0  0  0  0  0  0
    6.0141  -12.2511   27.3380 C   0  0  0  0  0  0  0  0  0  0  0  0
    5.8980  -13.3929   26.3688 C   0  0  0  0  0  0  0  0  0  0  0  0
    7.2377  -13.9014   25.9549 C   0  0  2  0  0  0  0  0  0  0  0  0
    8.0381  -12.8404   25.1984 C   0  0  0  0  0  0  0  0  0  0  0  0
    7.1089  -15.1031   25.0473 C   0  0  2  0  0  0  0  0  0  0  0  0
    6.5010  -16.2072   25.8027 N   0  0  0  0  0  0  0  0  0  0  0  0
    8.3485  -15.5214   24.3946 C   0  0  0  0  0  0  0  0  0  0  0  0
    9.1202  -16.3088   25.0731 O   0  0  0  0  0  0  0  0  0  0  0  0
    8.7848  -15.1587   23.1086 N   0  0  0  0  0  0  0  0  0  0  0  0
    8.3416  -14.0263   22.3344 C   0  0  0  0  0  0  0  0  0  0  0  0
    8.5790  -14.4112   20.8675 C   0  0  0  0  0  0  0  0  0  0  0  0
    8.9522  -15.8616   20.9661 C   0  0  0  0  0  0  0  0  0  0  0  0
    9.7718  -15.8671   22.2662 C   0  0  1  0  0  0  0  0  0  0  0  0
   10.9650  -15.0368   22.0337 C   0  0  0  0  0  0  0  0  0  0  0  0
   12.0000  -15.5850   21.2985 O   0  0  0  0  0  0  0  0  0  0  0  0
   11.1155  -13.8618   22.4548 O   0  0  0  0  0  0  0  0  0  0  0  0
  2  1  1  6
  2  5  1  0
  2  3  1  0
  4  3  1  0
  5  6  2  0
  7  8  1  0
  8  9  1  0
  9 10  1  6
  9 11  1  0
 11 12  1  1
 12  5  1  0
 13 11  1  0
 13 15  1  0
 14 13  2  0
 15 16  1  0
 17 18  1  0
 17 16  1  0
 18 19  1  0
 19 15  1  0
 19 20  1  6
 20 22  2  0
 20 21  1  0
M  END
$$$$
