CIP.pdb
     RDKit          3D

 22 22  0  0  1  0  0  0  0  0999 V2000
   11.7773  -17.1107   16.3218 N   0  0  0  0  0  0  0  0  0  0  0  0
   10.5717  -17.4979   17.0236 C   0  0  1  0  0  0  0  0  0  0  0  0
   10.6117  -18.9906   17.1908 C   0  0  0  0  0  0  0  0  0  0  0  0
    9.2146  -19.5999   18.1698 S   0  0  0  0  0  0  0  0  0  0  0  0
   10.4625  -16.7468   18.2641 C   0  0  0  0  0  0  0  0  0  0  0  0
   11.5180  -16.5320   18.9261 O   0  0  0  0  0  0  0  0  0  0  0  0
    7.3408  -12.3557   19.3457 C   0  0  0  0  0  0  0  0  0  0  0  0
    8.4575  -13.3595   19.3871 C   0  0  0  0  0  0  0  0  0  0  0  0
    8.0626  -14.5913   20.1297 C   0  0  2  0  0  0  0  0  0  0  0  0
    7.7055  -14.2862   21.5851 C   0  0  0  0  0  0  0  0  0  0  0  0
    9.1841  -15.6044   20.1421 C   0  0  2  0  0  0  0  0  0  0  0  0
    9.2801  -16.2247   18.8135 N   0  0  0  0  0  0  0  0  0  0  0  0
    9.0956  -16.6127   21.1971 C   0  0  0  0  0  0  0  0  0  0  0  0
    8.4118  -17.6770   20.9218 O   0  0  0  0  0  0  0  0  0  0  0  0
    9.6777  -16.5454   22.4747 N   0  0  0  0  0  0  0  0  0  0  0  0
   10.1725  -15.3640   23.1364 C   0  0  0  0  0  0  0  0  0  0  0  0
   11.2350  -15.8605   24.1269 C   0  0  0  0  0  0  0  0  0  0  0  0
   11.3796  -17.3070   23.7536 C   0  0  0  0  0  0  0  0  0  0  0  0
    9.9272  -17.6677   23.4042 C   0  0  1  0  0  0  0  0  0  0  0  0
    9.1331  -17.5242   24.6355 C   0  0  0  0  0  0  0  0  0  0  0  0
    9.2931  -18.4798   25.6221 O   0  0  0  0  0  0  0  0  0  0  0  0
    8.3168  -16.5947   24.8594 O   0  0  0  0  0  0  0  0  0  0  0  0
  2  1  1  1
  2  5  1  0
  2  3  1  0
  4  3  1  0
  5  6  2  0
  7  8  1  0
  8  9  1  0
  9 10  1  1
  9 11  1  0
 11 12  1  6
 12  5  1  0
 13 11  1  0
 13 15  1  0
 14 13  2  0
 15 16  1  0
 17 18  1  0
 17 16  1  0
 18 19  1  0
 19 15  1  0
 19 20  1  1
 20 22  2  0
 20 21  1  0
M  END
$$$$
