CIP.pdb
     RDKit          3D

 22 22  0  0  1  0  0  0  0  0999 V2000
    4.8066  -19.2589   24.0886 N   0  0  0  0  0  0  0  0  0  0  0  0
    5.6820  -18.7108   25.1031 C   0  0  1  0  0  0  0  0  0  0  0  0
    6.6730  -19.7811   25.4639 C   0  0  0  0  0  0  0  0  0  0  0  0
    7.6219  -19.3532   26.9465 S   0  0  0  0  0  0  0  0  0  0  0  0
    6.2701  -17.4693   24.6261 C   0  0  0  0  0  0  0  0  0  0  0  0
    6.5365  -17.3702   23.3943 O   0  0  0  0  0  0  0  0  0  0  0  0
    6.0433  -12.4829   27.1460 C   0  0  0  0  0  0  0  0  0  0  0  0
    6.1111  -13.5650   26.1063 C   0  0  0  0  0  0  0  0  0  0  0  0
    7.4689  -14.1788   26.0391 C   0  0  2  0  0  0  0  0  0  0  0  0
    8.5366  -13.1533   25.6558 C   0  0  0  0  0  0  0  0  0  0  0  0
    7.5168  -15.2868   25.0123 C   0  0  2  0  0  0  0  0  0  0  0  0
    6.5787  -16.3456   25.4102 N   0  0  0  0  0  0  0  0  0  0  0  0
    8.8492  -15.8264   24.7457 C   0  0  0  0  0  0  0  0  0  0  0  0
    9.3049  -16.6859   25.5999 O   0  0  0  0  0  0  0  0  0  0  0  0
    9.6820  -15.5096   23.6586 N   0  0  0  0  0  0  0  0  0  0  0  0
    9.5864  -14.3499   22.8076 C   0  0  0  0  0  0  0  0  0  0  0  0
   10.2251  -14.7631   21.4743 C   0  0  0  0  0  0  0  0  0  0  0  0
   10.4330  -16.2385   21.6544 C   0  0  0  0  0  0  0  0  0  0  0  0
   10.8174  -16.3024   23.1410 C   0  0  1  0  0  0  0  0  0  0  0  0
   12.0878  -15.5745   23.2954 C   0  0  0  0  0  0  0  0  0  0  0  0
   12.0725  -14.3947   24.0164 O   0  0  0  0  0  0  0  0  0  0  0  0
   13.1905  -15.9457   22.8193 O   0  0  0  0  0  0  0  0  0  0  0  0
  2  1  1  6
  2  5  1  0
  2  3  1  0
  4  3  1  0
  5  6  2  0
  7  8  1  0
  8  9  1  0
  9 10  1  6
  9 11  1  0
 11 12  1  1
 12  5  1  0
 13 11  1  0
 13 15  1  0
 14 13  2  0
 15 16  1  0
 17 18  1  0
 17 16  1  0
 18 19  1  0
 19 15  1  0
 19 20  1  6
 20 22  2  0
 20 21  1  0
M  END
$$$$
