CIP.pdb
     RDKit          3D

 22 22  0  0  1  0  0  0  0  0999 V2000
    7.1012  -15.0484   20.2156 N   0  0  0  0  0  0  0  0  0  0  0  0
    6.5302  -15.5172   21.4607 C   0  0  1  0  0  0  0  0  0  0  0  0
    6.2500  -16.9846   21.2993 C   0  0  0  0  0  0  0  0  0  0  0  0
    5.5516  -17.7100   22.8052 S   0  0  0  0  0  0  0  0  0  0  0  0
    7.4158  -15.1819   22.5643 C   0  0  0  0  0  0  0  0  0  0  0  0
    8.6626  -15.2004   22.3554 O   0  0  0  0  0  0  0  0  0  0  0  0
    6.1322  -11.6477   26.4375 C   0  0  0  0  0  0  0  0  0  0  0  0
    6.9198  -12.4765   25.4630 C   0  0  0  0  0  0  0  0  0  0  0  0
    7.2946  -13.7987   26.0426 C   0  0  2  0  0  0  0  0  0  0  0  0
    8.2869  -13.6514   27.1968 C   0  0  0  0  0  0  0  0  0  0  0  0
    7.9385  -14.6874   25.0034 C   0  0  2  0  0  0  0  0  0  0  0  0
    7.0197  -14.8325   23.8658 N   0  0  0  0  0  0  0  0  0  0  0  0
    8.3892  -15.9884   25.4951 C   0  0  0  0  0  0  0  0  0  0  0  0
    7.4650  -16.8497   25.7781 O   0  0  0  0  0  0  0  0  0  0  0  0
    9.7196  -16.3986   25.6889 N   0  0  0  0  0  0  0  0  0  0  0  0
   10.8975  -15.5709   25.6131 C   0  0  0  0  0  0  0  0  0  0  0  0
   12.0475  -16.5221   25.2538 C   0  0  0  0  0  0  0  0  0  0  0  0
   11.3286  -17.8036   24.9478 C   0  0  0  0  0  0  0  0  0  0  0  0
   10.1997  -17.7641   25.9898 C   0  0  1  0  0  0  0  0  0  0  0  0
   10.8298  -17.8247   27.3190 C   0  0  0  0  0  0  0  0  0  0  0  0
   10.8896  -16.6582   28.0591 O   0  0  0  0  0  0  0  0  0  0  0  0
   11.3200  -18.8611   27.8347 O   0  0  0  0  0  0  0  0  0  0  0  0
  2  1  1  6
  2  5  1  0
  2  3  1  0
  4  3  1  0
  5  6  2  0
  7  8  1  0
  8  9  1  0
  9 10  1  1
  9 11  1  0
 11 12  1  6
 12  5  1  0
 13 11  1  0
 13 15  1  0
 14 13  2  0
 15 16  1  0
 17 18  1  0
 17 16  1  0
 18 19  1  0
 19 15  1  0
 19 20  1  1
 20 22  2  0
 20 21  1  0
M  END
$$$$
