CIP.pdb
     RDKit          3D

 22 22  0  0  1  0  0  0  0  0999 V2000
    8.7819  -16.6310   13.6578 N   0  0  0  0  0  0  0  0  0  0  0  0
    8.4461  -17.0533   15.0013 C   0  0  1  0  0  0  0  0  0  0  0  0
    8.8059  -18.5078   15.1155 C   0  0  0  0  0  0  0  0  0  0  0  0
    8.7490  -19.0865   16.8312 S   0  0  0  0  0  0  0  0  0  0  0  0
    9.0995  -16.1845   15.9672 C   0  0  0  0  0  0  0  0  0  0  0  0
   10.2190  -15.6848   15.6584 O   0  0  0  0  0  0  0  0  0  0  0  0
    7.9813  -12.0416   20.2703 C   0  0  0  0  0  0  0  0  0  0  0  0
    8.9722  -12.9650   19.6207 C   0  0  0  0  0  0  0  0  0  0  0  0
    8.2945  -14.0086   18.7985 C   0  0  2  0  0  0  0  0  0  0  0  0
    7.3231  -14.8452   19.6321 C   0  0  0  0  0  0  0  0  0  0  0  0
    9.2984  -14.9581   18.1860 C   0  0  2  0  0  0  0  0  0  0  0  0
    8.6040  -15.8366   17.2346 N   0  0  0  0  0  0  0  0  0  0  0  0
   10.0875  -15.7283   19.1460 C   0  0  0  0  0  0  0  0  0  0  0  0
    9.6423  -16.9066   19.4449 O   0  0  0  0  0  0  0  0  0  0  0  0
   11.2777  -15.3218   19.7736 N   0  0  0  0  0  0  0  0  0  0  0  0
   11.7698  -13.9726   19.8991 C   0  0  0  0  0  0  0  0  0  0  0  0
   13.2927  -14.1006   20.0423 C   0  0  0  0  0  0  0  0  0  0  0  0
   13.5265  -15.5562   19.7609 C   0  0  0  0  0  0  0  0  0  0  0  0
   12.2887  -16.1859   20.4191 C   0  0  1  0  0  0  0  0  0  0  0  0
   12.3759  -15.9138   21.8633 C   0  0  0  0  0  0  0  0  0  0  0  0
   11.4743  -15.0175   22.4072 O   0  0  0  0  0  0  0  0  0  0  0  0
   13.2116  -16.4368   22.6434 O   0  0  0  0  0  0  0  0  0  0  0  0
  2  1  1  6
  2  5  1  0
  2  3  1  0
  4  3  1  0
  5  6  2  0
  7  8  1  0
  8  9  1  0
  9 10  1  1
  9 11  1  0
 11 12  1  6
 12  5  1  0
 13 11  1  0
 13 15  1  0
 14 13  2  0
 15 16  1  0
 17 18  1  0
 17 16  1  0
 18 19  1  0
 19 15  1  0
 19 20  1  1
 20 22  2  0
 20 21  1  0
M  END
$$$$
