CIP.pdb
     RDKit          3D

 22 22  0  0  1  0  0  0  0  0999 V2000
    5.1120  -19.7543   25.2792 N   0  0  0  0  0  0  0  0  0  0  0  0
    5.8703  -18.8037   26.0649 C   0  0  1  0  0  0  0  0  0  0  0  0
    6.9930  -19.5588   26.7185 C   0  0  0  0  0  0  0  0  0  0  0  0
    6.4480  -20.4201   28.2160 S   0  0  0  0  0  0  0  0  0  0  0  0
    6.2886  -17.6937   25.2236 C   0  0  0  0  0  0  0  0  0  0  0  0
    6.2868  -17.8615   23.9705 O   0  0  0  0  0  0  0  0  0  0  0  0
    8.2080  -12.7259   27.3972 C   0  0  0  0  0  0  0  0  0  0  0  0
    8.0230  -14.1189   26.8664 C   0  0  0  0  0  0  0  0  0  0  0  0
    7.4069  -14.1126   25.5080 C   0  0  2  0  0  0  0  0  0  0  0  0
    5.9312  -13.7145   25.5563 C   0  0  0  0  0  0  0  0  0  0  0  0
    7.4859  -15.4789   24.8665 C   0  0  2  0  0  0  0  0  0  0  0  0
    6.7031  -16.4281   25.6699 N   0  0  0  0  0  0  0  0  0  0  0  0
    8.8410  -15.9726   24.6267 C   0  0  0  0  0  0  0  0  0  0  0  0
    9.3025  -16.8288   25.4810 O   0  0  0  0  0  0  0  0  0  0  0  0
    9.6899  -15.6151   23.5649 N   0  0  0  0  0  0  0  0  0  0  0  0
    9.5781  -14.4481   22.7260 C   0  0  0  0  0  0  0  0  0  0  0  0
   10.2627  -14.8232   21.4043 C   0  0  0  0  0  0  0  0  0  0  0  0
   10.5137  -16.2934   21.5716 C   0  0  0  0  0  0  0  0  0  0  0  0
   10.8629  -16.3644   23.0665 C   0  0  1  0  0  0  0  0  0  0  0  0
   12.1048  -15.5983   23.2619 C   0  0  0  0  0  0  0  0  0  0  0  0
   13.3006  -16.2137   22.9401 O   0  0  0  0  0  0  0  0  0  0  0  0
   12.1612  -14.4217   23.7009 O   0  0  0  0  0  0  0  0  0  0  0  0
  2  1  1  6
  2  5  1  0
  2  3  1  0
  4  3  1  0
  5  6  2  0
  7  8  1  0
  8  9  1  0
  9 10  1  1
  9 11  1  0
 11 12  1  1
 12  5  1  0
 13 11  1  0
 13 15  1  0
 14 13  2  0
 15 16  1  0
 17 18  1  0
 17 16  1  0
 18 19  1  0
 19 15  1  0
 19 20  1  6
 20 22  2  0
 20 21  1  0
M  END
$$$$
