CIP.pdb
     RDKit          3D

 22 22  0  0  1  0  0  0  0  0999 V2000
    9.5738  -15.1391   20.4955 N   0  0  0  0  0  0  0  0  0  0  0  0
    8.8704  -15.8566   21.5377 C   0  0  1  0  0  0  0  0  0  0  0  0
    9.3268  -17.2871   21.4817 C   0  0  0  0  0  0  0  0  0  0  0  0
    8.4989  -18.3111   22.7258 S   0  0  0  0  0  0  0  0  0  0  0  0
    9.0815  -15.1974   22.8166 C   0  0  0  0  0  0  0  0  0  0  0  0
   10.2271  -14.7214   23.0602 O   0  0  0  0  0  0  0  0  0  0  0  0
    5.5638  -12.0760   25.6642 C   0  0  0  0  0  0  0  0  0  0  0  0
    6.8286  -12.6681   25.1109 C   0  0  0  0  0  0  0  0  0  0  0  0
    7.1749  -13.9531   25.7844 C   0  0  2  0  0  0  0  0  0  0  0  0
    7.4282  -13.7594   27.2800 C   0  0  0  0  0  0  0  0  0  0  0  0
    8.4238  -14.5620   25.1894 C   0  0  2  0  0  0  0  0  0  0  0  0
    8.1232  -15.0320   23.8300 N   0  0  0  0  0  0  0  0  0  0  0  0
    9.0428  -15.6144   25.9936 C   0  0  0  0  0  0  0  0  0  0  0  0
    8.9589  -16.8199   25.5292 O   0  0  0  0  0  0  0  0  0  0  0  0
    9.7197  -15.4506   27.2145 N   0  0  0  0  0  0  0  0  0  0  0  0
    9.5708  -14.3588   28.1441 C   0  0  0  0  0  0  0  0  0  0  0  0
   10.8959  -14.2905   28.9158 C   0  0  0  0  0  0  0  0  0  0  0  0
   11.7628  -15.2575   28.1635 C   0  0  0  0  0  0  0  0  0  0  0  0
   10.7413  -16.3460   27.7979 C   0  0  1  0  0  0  0  0  0  0  0  0
   10.2681  -16.9419   29.0582 C   0  0  0  0  0  0  0  0  0  0  0  0
   11.1282  -17.7858   29.7365 O   0  0  0  0  0  0  0  0  0  0  0  0
    9.1362  -16.7410   29.5670 O   0  0  0  0  0  0  0  0  0  0  0  0
  2  1  1  6
  2  5  1  0
  2  3  1  0
  4  3  1  0
  5  6  2  0
  7  8  1  0
  8  9  1  0
  9 10  1  1
  9 11  1  0
 11 12  1  6
 12  5  1  0
 13 11  1  0
 13 15  1  0
 14 13  2  0
 15 16  1  0
 17 18  1  0
 17 16  1  0
 18 19  1  0
 19 15  1  0
 19 20  1  1
 20 22  2  0
 20 21  1  0
M  END
$$$$
