CIP.pdb
     RDKit          3D

 22 22  0  0  1  0  0  0  0  0999 V2000
    4.8366  -19.5278   24.9225 N   0  0  0  0  0  0  0  0  0  0  0  0
    5.8213  -18.7910   25.6863 C   0  0  1  0  0  0  0  0  0  0  0  0
    7.0025  -19.6981   25.8858 C   0  0  0  0  0  0  0  0  0  0  0  0
    8.2775  -18.9320   26.9197 S   0  0  0  0  0  0  0  0  0  0  0  0
    6.1217  -17.5346   25.0184 C   0  0  0  0  0  0  0  0  0  0  0  0
    6.0877  -17.5078   23.7549 O   0  0  0  0  0  0  0  0  0  0  0  0
    5.9321  -12.2968   27.1686 C   0  0  0  0  0  0  0  0  0  0  0  0
    5.8611  -13.4275   26.1822 C   0  0  0  0  0  0  0  0  0  0  0  0
    7.2024  -14.0352   25.9447 C   0  0  2  0  0  0  0  0  0  0  0  0
    8.1876  -13.0236   25.3578 C   0  0  0  0  0  0  0  0  0  0  0  0
    7.1134  -15.1933   24.9775 C   0  0  2  0  0  0  0  0  0  0  0  0
    6.4527  -16.3226   25.6464 N   0  0  0  0  0  0  0  0  0  0  0  0
    8.3838  -15.5973   24.3772 C   0  0  0  0  0  0  0  0  0  0  0  0
    9.1020  -16.4340   25.0555 O   0  0  0  0  0  0  0  0  0  0  0  0
    8.9018  -15.1728   23.1414 N   0  0  0  0  0  0  0  0  0  0  0  0
    8.5888  -13.9474   22.4496 C   0  0  0  0  0  0  0  0  0  0  0  0
    8.8525  -14.2331   20.9646 C   0  0  0  0  0  0  0  0  0  0  0  0
    9.0963  -15.7140   20.9547 C   0  0  0  0  0  0  0  0  0  0  0  0
    9.8585  -15.8959   22.2768 C   0  0  1  0  0  0  0  0  0  0  0  0
   11.1267  -15.1583   22.1548 C   0  0  0  0  0  0  0  0  0  0  0  0
   11.3109  -14.0523   22.9641 O   0  0  0  0  0  0  0  0  0  0  0  0
   12.0594  -15.4588   21.3673 O   0  0  0  0  0  0  0  0  0  0  0  0
  2  1  1  6
  2  5  1  0
  2  3  1  0
  4  3  1  0
  5  6  2  0
  7  8  1  0
  8  9  1  0
  9 10  1  6
  9 11  1  0
 11 12  1  1
 12  5  1  0
 13 11  1  0
 13 15  1  0
 14 13  2  0
 15 16  1  0
 17 18  1  0
 17 16  1  0
 18 19  1  0
 19 15  1  0
 19 20  1  6
 20 22  2  0
 20 21  1  0
M  END
$$$$
