CIP.pdb
     RDKit          3D

 22 22  0  0  1  0  0  0  0  0999 V2000
    5.2385  -19.6468   25.5479 N   0  0  0  0  0  0  0  0  0  0  0  0
    6.0851  -18.6923   26.2321 C   0  0  1  0  0  0  0  0  0  0  0  0
    7.3931  -19.3763   26.5135 C   0  0  0  0  0  0  0  0  0  0  0  0
    7.9333  -19.1265   28.2245 S   0  0  0  0  0  0  0  0  0  0  0  0
    6.1895  -17.4746   25.4440 C   0  0  0  0  0  0  0  0  0  0  0  0
    6.0459  -17.5611   24.1909 O   0  0  0  0  0  0  0  0  0  0  0  0
    5.9983  -12.2400   27.4669 C   0  0  0  0  0  0  0  0  0  0  0  0
    5.8660  -13.3965   26.5175 C   0  0  0  0  0  0  0  0  0  0  0  0
    7.1978  -13.8846   26.0562 C   0  0  2  0  0  0  0  0  0  0  0  0
    7.9467  -12.8183   25.2558 C   0  0  0  0  0  0  0  0  0  0  0  0
    7.0563  -15.0998   25.1687 C   0  0  2  0  0  0  0  0  0  0  0  0
    6.4386  -16.1854   25.9428 N   0  0  0  0  0  0  0  0  0  0  0  0
    8.2910  -15.5408   24.5217 C   0  0  0  0  0  0  0  0  0  0  0  0
    9.0329  -16.3617   25.1937 O   0  0  0  0  0  0  0  0  0  0  0  0
    8.7516  -15.1672   23.2473 N   0  0  0  0  0  0  0  0  0  0  0  0
    8.3762  -13.9898   22.5050 C   0  0  0  0  0  0  0  0  0  0  0  0
    8.5963  -14.3458   21.0281 C   0  0  0  0  0  0  0  0  0  0  0  0
    8.8858  -15.8174   21.0859 C   0  0  0  0  0  0  0  0  0  0  0  0
    9.6994  -15.9066   22.3867 C   0  0  1  0  0  0  0  0  0  0  0  0
   10.9388  -15.1395   22.1801 C   0  0  0  0  0  0  0  0  0  0  0  0
   11.9365  -15.7177   21.4169 O   0  0  0  0  0  0  0  0  0  0  0  0
   11.1603  -13.9935   22.6470 O   0  0  0  0  0  0  0  0  0  0  0  0
  2  1  1  6
  2  5  1  0
  2  3  1  0
  4  3  1  0
  5  6  2  0
  7  8  1  0
  8  9  1  0
  9 10  1  6
  9 11  1  0
 11 12  1  1
 12  5  1  0
 13 11  1  0
 13 15  1  0
 14 13  2  0
 15 16  1  0
 17 18  1  0
 17 16  1  0
 18 19  1  0
 19 15  1  0
 19 20  1  6
 20 22  2  0
 20 21  1  0
M  END
$$$$
