CIP.pdb
     RDKit          3D

 22 22  0  0  1  0  0  0  0  0999 V2000
    9.2986  -14.9318   20.4947 N   0  0  0  0  0  0  0  0  0  0  0  0
    8.5909  -15.6654   21.5227 C   0  0  1  0  0  0  0  0  0  0  0  0
    8.9625  -17.1138   21.3743 C   0  0  0  0  0  0  0  0  0  0  0  0
    8.2175  -18.1399   22.6680 S   0  0  0  0  0  0  0  0  0  0  0  0
    8.8827  -15.0901   22.8261 C   0  0  0  0  0  0  0  0  0  0  0  0
   10.0567  -14.6757   23.0457 O   0  0  0  0  0  0  0  0  0  0  0  0
    5.4996  -12.0284   25.8927 C   0  0  0  0  0  0  0  0  0  0  0  0
    6.7260  -12.6166   25.2552 C   0  0  0  0  0  0  0  0  0  0  0  0
    7.1209  -13.9005   25.9037 C   0  0  2  0  0  0  0  0  0  0  0  0
    7.4545  -13.7094   27.3838 C   0  0  0  0  0  0  0  0  0  0  0  0
    8.3407  -14.4954   25.2384 C   0  0  2  0  0  0  0  0  0  0  0  0
    7.9750  -14.9448   23.8880 N   0  0  0  0  0  0  0  0  0  0  0  0
    9.0014  -15.5583   25.9942 C   0  0  0  0  0  0  0  0  0  0  0  0
    8.9223  -16.7523   25.5000 O   0  0  0  0  0  0  0  0  0  0  0  0
    9.7135  -15.4157   27.1977 N   0  0  0  0  0  0  0  0  0  0  0  0
    9.5765  -14.3515   28.1605 C   0  0  0  0  0  0  0  0  0  0  0  0
   10.9239  -14.2816   28.8925 C   0  0  0  0  0  0  0  0  0  0  0  0
   11.7820  -15.2138   28.0880 C   0  0  0  0  0  0  0  0  0  0  0  0
   10.7669  -16.3090   27.7248 C   0  0  1  0  0  0  0  0  0  0  0  0
   10.3428  -16.9460   28.9825 C   0  0  0  0  0  0  0  0  0  0  0  0
   11.2360  -17.7954   29.6094 O   0  0  0  0  0  0  0  0  0  0  0  0
    9.2253  -16.7756   29.5326 O   0  0  0  0  0  0  0  0  0  0  0  0
  2  1  1  6
  2  5  1  0
  2  3  1  0
  4  3  1  0
  5  6  2  0
  7  8  1  0
  8  9  1  0
  9 10  1  1
  9 11  1  0
 11 12  1  6
 12  5  1  0
 13 11  1  0
 13 15  1  0
 14 13  2  0
 15 16  1  0
 17 18  1  0
 17 16  1  0
 18 19  1  0
 19 15  1  0
 19 20  1  1
 20 22  2  0
 20 21  1  0
M  END
$$$$
