CIP.pdb
     RDKit          3D

 22 22  0  0  1  0  0  0  0  0999 V2000
    7.5857  -14.8425   19.8700 N   0  0  0  0  0  0  0  0  0  0  0  0
    6.8042  -15.0704   21.0673 C   0  0  1  0  0  0  0  0  0  0  0  0
    6.3056  -16.4868   21.0127 C   0  0  0  0  0  0  0  0  0  0  0  0
    7.6658  -17.6831   20.9956 S   0  0  0  0  0  0  0  0  0  0  0  0
    7.5988  -14.7471   22.2416 C   0  0  0  0  0  0  0  0  0  0  0  0
    8.8582  -14.7650   22.1329 O   0  0  0  0  0  0  0  0  0  0  0  0
    5.9117  -11.4498   26.2027 C   0  0  0  0  0  0  0  0  0  0  0  0
    6.7137  -12.2353   25.2046 C   0  0  0  0  0  0  0  0  0  0  0  0
    7.1761  -13.5352   25.7715 C   0  0  2  0  0  0  0  0  0  0  0  0
    8.1263  -13.3331   26.9525 C   0  0  0  0  0  0  0  0  0  0  0  0
    7.9114  -14.3523   24.7341 C   0  0  2  0  0  0  0  0  0  0  0  0
    7.0999  -14.4099   23.5105 N   0  0  0  0  0  0  0  0  0  0  0  0
    8.3150  -15.6880   25.1707 C   0  0  0  0  0  0  0  0  0  0  0  0
    7.3791  -16.5797   25.2391 O   0  0  0  0  0  0  0  0  0  0  0  0
    9.6122  -16.1016   25.5201 N   0  0  0  0  0  0  0  0  0  0  0  0
   10.7727  -15.2610   25.6784 C   0  0  0  0  0  0  0  0  0  0  0  0
   11.9802  -16.1711   25.4141 C   0  0  0  0  0  0  0  0  0  0  0  0
   11.3371  -17.4298   24.9094 C   0  0  0  0  0  0  0  0  0  0  0  0
   10.0711  -17.4828   25.7791 C   0  0  1  0  0  0  0  0  0  0  0  0
   10.5073  -17.6445   27.1759 C   0  0  0  0  0  0  0  0  0  0  0  0
   10.4111  -16.5485   28.0135 O   0  0  0  0  0  0  0  0  0  0  0  0
   10.9627  -18.7082   27.6675 O   0  0  0  0  0  0  0  0  0  0  0  0
  2  1  1  6
  2  5  1  0
  2  3  1  0
  4  3  1  0
  5  6  2  0
  7  8  1  0
  8  9  1  0
  9 10  1  1
  9 11  1  0
 11 12  1  6
 12  5  1  0
 13 11  1  0
 13 15  1  0
 14 13  2  0
 15 16  1  0
 17 18  1  0
 17 16  1  0
 18 19  1  0
 19 15  1  0
 19 20  1  1
 20 22  2  0
 20 21  1  0
M  END
$$$$
