CIP.pdb
     RDKit          3D

 22 22  0  0  1  0  0  0  0  0999 V2000
    9.2926  -14.8962   20.4825 N   0  0  0  0  0  0  0  0  0  0  0  0
    8.5488  -15.5829   21.5175 C   0  0  1  0  0  0  0  0  0  0  0  0
    8.8706  -17.0462   21.4030 C   0  0  0  0  0  0  0  0  0  0  0  0
    8.0420  -18.0237   22.6834 S   0  0  0  0  0  0  0  0  0  0  0  0
    8.8471  -14.9910   22.8119 C   0  0  0  0  0  0  0  0  0  0  0  0
   10.0367  -14.6309   23.0431 O   0  0  0  0  0  0  0  0  0  0  0  0
    5.6325  -11.6696   25.7106 C   0  0  0  0  0  0  0  0  0  0  0  0
    6.8402  -12.3561   25.1392 C   0  0  0  0  0  0  0  0  0  0  0  0
    7.1262  -13.6407   25.8413 C   0  0  2  0  0  0  0  0  0  0  0  0
    7.4628  -13.4182   27.3164 C   0  0  0  0  0  0  0  0  0  0  0  0
    8.2996  -14.3567   25.2128 C   0  0  2  0  0  0  0  0  0  0  0  0
    7.9299  -14.7740   23.8532 N   0  0  0  0  0  0  0  0  0  0  0  0
    8.8296  -15.4762   25.9895 C   0  0  0  0  0  0  0  0  0  0  0  0
    8.4776  -16.6617   25.6067 O   0  0  0  0  0  0  0  0  0  0  0  0
    9.6819  -15.3965   27.1045 N   0  0  0  0  0  0  0  0  0  0  0  0
    9.8485  -14.2666   27.9842 C   0  0  0  0  0  0  0  0  0  0  0  0
   11.2569  -14.4102   28.5777 C   0  0  0  0  0  0  0  0  0  0  0  0
   11.8361  -15.5392   27.7761 C   0  0  0  0  0  0  0  0  0  0  0  0
   10.6031  -16.4400   27.6024 C   0  0  1  0  0  0  0  0  0  0  0  0
   10.2075  -16.9022   28.9430 C   0  0  0  0  0  0  0  0  0  0  0  0
   11.0108  -17.8394   29.5662 O   0  0  0  0  0  0  0  0  0  0  0  0
    9.1901  -16.5077   29.5674 O   0  0  0  0  0  0  0  0  0  0  0  0
  2  1  1  6
  2  5  1  0
  2  3  1  0
  4  3  1  0
  5  6  2  0
  7  8  1  0
  8  9  1  0
  9 10  1  1
  9 11  1  0
 11 12  1  6
 12  5  1  0
 13 11  1  0
 13 15  1  0
 14 13  2  0
 15 16  1  0
 17 18  1  0
 17 16  1  0
 18 19  1  0
 19 15  1  0
 19 20  1  1
 20 22  2  0
 20 21  1  0
M  END
$$$$
