CIP.pdb
     RDKit          3D

 22 22  0  0  1  0  0  0  0  0999 V2000
    9.9697  -15.7584   20.4052 N   0  0  0  0  0  0  0  0  0  0  0  0
    8.9419  -16.1049   21.3640 C   0  0  1  0  0  0  0  0  0  0  0  0
    8.9974  -17.5937   21.5603 C   0  0  0  0  0  0  0  0  0  0  0  0
   10.6169  -18.1370   22.1635 S   0  0  0  0  0  0  0  0  0  0  0  0
    9.1170  -15.3217   22.5768 C   0  0  0  0  0  0  0  0  0  0  0  0
   10.2515  -14.8089   22.7969 O   0  0  0  0  0  0  0  0  0  0  0  0
    6.3168  -11.9212   26.8226 C   0  0  0  0  0  0  0  0  0  0  0  0
    7.5035  -12.7498   26.4207 C   0  0  0  0  0  0  0  0  0  0  0  0
    7.1938  -13.6238   25.2524 C   0  0  2  0  0  0  0  0  0  0  0  0
    6.0533  -14.5957   25.5575 C   0  0  0  0  0  0  0  0  0  0  0  0
    8.3961  -14.4483   24.8536 C   0  0  2  0  0  0  0  0  0  0  0  0
    8.1346  -15.0714   23.5488 N   0  0  0  0  0  0  0  0  0  0  0  0
    8.8235  -15.4375   25.8417 C   0  0  0  0  0  0  0  0  0  0  0  0
    8.5893  -16.6779   25.5546 O   0  0  0  0  0  0  0  0  0  0  0  0
    9.4629  -15.1796   27.0666 N   0  0  0  0  0  0  0  0  0  0  0  0
    9.2708  -14.0301   27.9151 C   0  0  0  0  0  0  0  0  0  0  0  0
   10.5723  -13.8866   28.7162 C   0  0  0  0  0  0  0  0  0  0  0  0
   11.4751  -14.8872   28.0555 C   0  0  0  0  0  0  0  0  0  0  0  0
   10.4813  -16.0155   27.7373 C   0  0  1  0  0  0  0  0  0  0  0  0
    9.9818  -16.5328   29.0219 C   0  0  0  0  0  0  0  0  0  0  0  0
   10.8378  -17.3076   29.7828 O   0  0  0  0  0  0  0  0  0  0  0  0
    8.8309  -16.3228   29.4820 O   0  0  0  0  0  0  0  0  0  0  0  0
  2  1  1  6
  2  5  1  0
  2  3  1  0
  4  3  1  0
  5  6  2  0
  7  8  1  0
  8  9  1  0
  9 10  1  1
  9 11  1  0
 11 12  1  6
 12  5  1  0
 13 11  1  0
 13 15  1  0
 14 13  2  0
 15 16  1  0
 17 18  1  0
 17 16  1  0
 18 19  1  0
 19 15  1  0
 19 20  1  1
 20 22  2  0
 20 21  1  0
M  END
$$$$
