ESN.pdb
     RDKit          3D

 24 23  0  0  1  0  0  0  0  0999 V2000
   17.6374  -11.3797  -18.4205 N   0  0  0  0  0  0  0  0  0  0  0  0
   16.9836  -10.4508  -17.5556 C   0  0  1  0  0  0  0  0  0  0  0  0
   16.8769  -11.0047  -16.1815 C   0  0  0  0  0  0  0  0  0  0  0  0
   16.0820  -12.2533  -16.0299 C   0  0  0  0  0  0  0  0  0  0  0  0
   16.0819  -12.8202  -14.6768 C   0  0  0  0  0  0  0  0  0  0  0  0
   15.6119  -12.1822  -13.7137 O   0  0  0  0  0  0  0  0  0  0  0  0
   17.6975   -9.1328  -17.5009 C   0  0  0  0  0  0  0  0  0  0  0  0
   18.9370   -9.1191  -17.7165 O   0  0  0  0  0  0  0  0  0  0  0  0
   16.6060  -14.0874  -14.4253 O   0  0  0  0  0  0  0  0  0  0  0  0
   15.8135   -5.8986  -16.0455 O   0  0  0  0  0  0  0  0  0  0  0  0
   16.5885   -5.6016  -17.1785 C   0  0  0  0  0  0  0  0  0  0  0  0
   17.6620   -6.6967  -17.2499 C   0  0  2  0  0  0  0  0  0  0  0  0
   16.9748   -7.9449  -17.2121 N   0  0  0  0  0  0  0  0  0  0  0  0
   18.5953   -6.4896  -16.1289 C   0  0  0  0  0  0  0  0  0  0  0  0
   18.5025   -7.2061  -15.1010 O   0  0  0  0  0  0  0  0  0  0  0  0
   22.2304   -5.0618  -12.7746 N   0  0  0  0  0  0  0  0  0  0  0  0
   22.4774   -6.0845  -13.7223 C   0  0  0  0  0  0  0  0  0  0  0  0
   23.4661   -6.8379  -13.5508 O   0  0  0  0  0  0  0  0  0  0  0  0
   21.6168   -6.3025  -14.9086 C   0  0  0  0  0  0  0  0  0  0  0  0
   20.5244   -5.2962  -15.0306 C   0  0  2  0  0  0  0  0  0  0  0  0
   19.6353   -5.4977  -16.1256 N   0  0  0  0  0  0  0  0  0  0  0  0
   21.0974   -3.9158  -15.0004 C   0  0  0  0  0  0  0  0  0  0  0  0
   21.6982   -3.5079  -13.8195 O   0  0  0  0  0  0  0  0  0  0  0  0
   21.0609   -3.1382  -15.9589 O   0  0  0  0  0  0  0  0  0  0  0  0
  2  1  1  6
  3  2  1  0
  3  4  1  0
  4  5  1  0
  5  6  2  0
  5  9  1  0
  7  2  1  0
  7  8  2  0
 10 11  1  0
 12 11  1  1
 12 13  1  0
 13  7  1  0
 14 12  1  0
 15 14  2  0
 17 16  1  0
 17 18  2  0
 20 19  1  6
 19 17  1  0
 20 21  1  0
 21 14  1  0
 22 20  1  0
 23 22  1  0
 24 22  2  0
M  END
$$$$
