ESN.pdb
     RDKit          3D

 24 23  0  0  1  0  0  0  0  0999 V2000
   25.2666  -13.3477  -16.2178 N   0  0  0  0  0  0  0  0  0  0  0  0
   26.3731  -12.4958  -16.5147 C   0  0  1  0  0  0  0  0  0  0  0  0
   27.3709  -13.2105  -17.3514 C   0  0  0  0  0  0  0  0  0  0  0  0
   26.8471  -14.2915  -18.2294 C   0  0  0  0  0  0  0  0  0  0  0  0
   27.8722  -15.0163  -18.9885 C   0  0  0  0  0  0  0  0  0  0  0  0
   27.6102  -16.0993  -19.5487 O   0  0  0  0  0  0  0  0  0  0  0  0
   25.9464  -11.2428  -17.2202 C   0  0  0  0  0  0  0  0  0  0  0  0
   26.8264  -10.3861  -17.4941 O   0  0  0  0  0  0  0  0  0  0  0  0
   29.1691  -14.5184  -19.1072 O   0  0  0  0  0  0  0  0  0  0  0  0
   22.3851  -11.1226  -18.9362 O   0  0  0  0  0  0  0  0  0  0  0  0
   23.3485  -10.2186  -19.4131 C   0  0  0  0  0  0  0  0  0  0  0  0
   24.1981   -9.8312  -18.1947 C   0  0  2  0  0  0  0  0  0  0  0  0
   24.5814  -11.0488  -17.5605 N   0  0  0  0  0  0  0  0  0  0  0  0
   23.3906   -8.9386  -17.3450 C   0  0  0  0  0  0  0  0  0  0  0  0
   22.4928   -9.4220  -16.6110 O   0  0  0  0  0  0  0  0  0  0  0  0
   21.1417   -4.9784  -14.8658 N   0  0  0  0  0  0  0  0  0  0  0  0
   22.1398   -5.7814  -14.2626 C   0  0  0  0  0  0  0  0  0  0  0  0
   22.2739   -5.7393  -13.0156 O   0  0  0  0  0  0  0  0  0  0  0  0
   23.0330   -6.6701  -15.0423 C   0  0  0  0  0  0  0  0  0  0  0  0
   22.7431   -6.6527  -16.5040 C   0  0  2  0  0  0  0  0  0  0  0  0
   23.5604   -7.5124  -17.2934 N   0  0  0  0  0  0  0  0  0  0  0  0
   22.7359   -5.2445  -17.0055 C   0  0  0  0  0  0  0  0  0  0  0  0
   21.8224   -4.3747  -16.4304 O   0  0  0  0  0  0  0  0  0  0  0  0
   23.4906   -4.8288  -17.8901 O   0  0  0  0  0  0  0  0  0  0  0  0
  2  1  1  6
  3  2  1  0
  3  4  1  0
  4  5  1  0
  5  6  2  0
  5  9  1  0
  7  2  1  0
  7  8  2  0
 10 11  1  0
 12 11  1  6
 12 13  1  0
 13  7  1  0
 14 12  1  0
 15 14  2  0
 17 16  1  0
 17 18  2  0
 20 19  1  1
 19 17  1  0
 20 21  1  0
 21 14  1  0
 22 20  1  0
 23 22  1  0
 24 22  2  0
M  END
$$$$
