ESN.pdb
     RDKit          3D

 24 23  0  0  1  0  0  0  0  0999 V2000
   14.2541  -10.8931  -17.4214 N   0  0  0  0  0  0  0  0  0  0  0  0
   14.9597  -10.2327  -16.3705 C   0  0  1  0  0  0  0  0  0  0  0  0
   15.8998  -11.1705  -15.7047 C   0  0  0  0  0  0  0  0  0  0  0  0
   16.8289  -11.9197  -16.5930 C   0  0  0  0  0  0  0  0  0  0  0  0
   17.9121  -12.6217  -15.8957 C   0  0  0  0  0  0  0  0  0  0  0  0
   17.7319  -13.7543  -15.4057 O   0  0  0  0  0  0  0  0  0  0  0  0
   15.7227   -9.0403  -16.8662 C   0  0  0  0  0  0  0  0  0  0  0  0
   15.5661   -8.6910  -18.0648 O   0  0  0  0  0  0  0  0  0  0  0  0
   19.1745  -12.0460  -15.7591 O   0  0  0  0  0  0  0  0  0  0  0  0
   15.5748   -5.7788  -15.3722 O   0  0  0  0  0  0  0  0  0  0  0  0
   16.0261   -6.1303  -16.6548 C   0  0  0  0  0  0  0  0  0  0  0  0
   17.1798   -7.1192  -16.4360 C   0  0  2  0  0  0  0  0  0  0  0  0
   16.5926   -8.3390  -15.9898 N   0  0  0  0  0  0  0  0  0  0  0  0
   18.1173   -6.5152  -15.4732 C   0  0  0  0  0  0  0  0  0  0  0  0
   18.2316   -7.0076  -14.3230 O   0  0  0  0  0  0  0  0  0  0  0  0
   23.1960   -4.2539  -14.4220 N   0  0  0  0  0  0  0  0  0  0  0  0
   22.2170   -5.1487  -13.9260 C   0  0  0  0  0  0  0  0  0  0  0  0
   22.2432   -5.4555  -12.7096 O   0  0  0  0  0  0  0  0  0  0  0  0
   21.1622   -5.7381  -14.7836 C   0  0  0  0  0  0  0  0  0  0  0  0
   19.9454   -4.8836  -14.8835 C   0  0  2  0  0  0  0  0  0  0  0  0
   18.9350   -5.3694  -15.7629 N   0  0  0  0  0  0  0  0  0  0  0  0
   20.3370   -3.4718  -15.1801 C   0  0  0  0  0  0  0  0  0  0  0  0
   20.7480   -2.6929  -14.1095 O   0  0  0  0  0  0  0  0  0  0  0  0
   20.3118   -2.9775  -16.3115 O   0  0  0  0  0  0  0  0  0  0  0  0
  2  1  1  6
  3  2  1  0
  3  4  1  0
  4  5  1  0
  5  6  2  0
  5  9  1  0
  7  2  1  0
  7  8  2  0
 10 11  1  0
 12 11  1  1
 12 13  1  0
 13  7  1  0
 14 12  1  0
 15 14  2  0
 17 16  1  0
 17 18  2  0
 20 19  1  6
 19 17  1  0
 20 21  1  0
 21 14  1  0
 22 20  1  0
 23 22  1  0
 24 22  2  0
M  END
$$$$
