ESN.pdb
     RDKit          3D

 24 23  0  0  1  0  0  0  0  0999 V2000
   23.5908  -20.6883   -9.9719 N   0  0  0  0  0  0  0  0  0  0  0  0
   24.2116  -19.9537  -11.0270 C   0  0  1  0  0  0  0  0  0  0  0  0
   25.3127  -20.7443  -11.6344 C   0  0  0  0  0  0  0  0  0  0  0  0
   26.5185  -20.9594  -10.7898 C   0  0  0  0  0  0  0  0  0  0  0  0
   27.6766  -21.5101  -11.5024 C   0  0  0  0  0  0  0  0  0  0  0  0
   27.6204  -21.7580  -12.7234 O   0  0  0  0  0  0  0  0  0  0  0  0
   23.2337  -19.5687  -12.0971 C   0  0  0  0  0  0  0  0  0  0  0  0
   22.0190  -19.8438  -11.9189 O   0  0  0  0  0  0  0  0  0  0  0  0
   28.8741  -21.7732  -10.8386 O   0  0  0  0  0  0  0  0  0  0  0  0
   24.6317  -18.6412  -15.6909 O   0  0  0  0  0  0  0  0  0  0  0  0
   23.5123  -17.8489  -15.3883 C   0  0  0  0  0  0  0  0  0  0  0  0
   22.7452  -18.6081  -14.2966 C   0  0  2  0  0  0  0  0  0  0  0  0
   23.6879  -18.9121  -13.2716 N   0  0  0  0  0  0  0  0  0  0  0  0
   22.1284  -19.7932  -14.9175 C   0  0  0  0  0  0  0  0  0  0  0  0
   22.8266  -20.8137  -15.1404 O   0  0  0  0  0  0  0  0  0  0  0  0
   18.3950  -23.4063  -14.9180 N   0  0  0  0  0  0  0  0  0  0  0  0
   19.1592  -22.9502  -13.8168 C   0  0  0  0  0  0  0  0  0  0  0  0
   19.1561  -23.6273  -12.7603 O   0  0  0  0  0  0  0  0  0  0  0  0
   19.9630  -21.7062  -13.8595 C   0  0  0  0  0  0  0  0  0  0  0  0
   19.9684  -21.0601  -15.2025 C   0  0  2  0  0  0  0  0  0  0  0  0
   20.7446  -19.8691  -15.2981 N   0  0  0  0  0  0  0  0  0  0  0  0
   18.5655  -20.8735  -15.6839 C   0  0  0  0  0  0  0  0  0  0  0  0
   18.1961  -19.5944  -16.0703 O   0  0  0  0  0  0  0  0  0  0  0  0
   17.7377  -21.7872  -15.7519 O   0  0  0  0  0  0  0  0  0  0  0  0
  2  1  1  1
  3  2  1  0
  3  4  1  0
  4  5  1  0
  5  6  2  0
  5  9  1  0
  7  2  1  0
  7  8  2  0
 10 11  1  0
 12 11  1  6
 12 13  1  0
 13  7  1  0
 14 12  1  0
 15 14  2  0
 17 16  1  0
 17 18  2  0
 20 19  1  1
 19 17  1  0
 20 21  1  0
 21 14  1  0
 22 20  1  0
 23 22  1  0
 24 22  2  0
M  END
$$$$
