ESN.pdb
     RDKit          3D

 24 23  0  0  1  0  0  0  0  0999 V2000
   23.8749  -20.4948  -17.2275 N   0  0  0  0  0  0  0  0  0  0  0  0
   23.6381  -19.4177  -16.3209 C   0  0  1  0  0  0  0  0  0  0  0  0
   24.2962  -18.1765  -16.8035 C   0  0  0  0  0  0  0  0  0  0  0  0
   25.7605  -18.2573  -17.0548 C   0  0  0  0  0  0  0  0  0  0  0  0
   26.3384  -17.0739  -17.7013 C   0  0  0  0  0  0  0  0  0  0  0  0
   27.5545  -17.0202  -17.9725 O   0  0  0  0  0  0  0  0  0  0  0  0
   22.1740  -19.1551  -16.1275 C   0  0  0  0  0  0  0  0  0  0  0  0
   21.4215  -19.2154  -17.1341 O   0  0  0  0  0  0  0  0  0  0  0  0
   25.5480  -15.9741  -18.0322 O   0  0  0  0  0  0  0  0  0  0  0  0
   20.7917  -18.5497  -12.3902 O   0  0  0  0  0  0  0  0  0  0  0  0
   19.8964  -19.1551  -13.2872 C   0  0  0  0  0  0  0  0  0  0  0  0
   20.2733  -18.6234  -14.6772 C   0  0  2  0  0  0  0  0  0  0  0  0
   21.6719  -18.8488  -14.8350 N   0  0  0  0  0  0  0  0  0  0  0  0
   19.8816  -17.2046  -14.7407 C   0  0  0  0  0  0  0  0  0  0  0  0
   20.7614  -16.3225  -14.9029 O   0  0  0  0  0  0  0  0  0  0  0  0
   17.3547  -12.7035  -15.3222 N   0  0  0  0  0  0  0  0  0  0  0  0
   18.1311  -13.3843  -16.2911 C   0  0  0  0  0  0  0  0  0  0  0  0
   18.4737  -12.7681  -17.3292 O   0  0  0  0  0  0  0  0  0  0  0  0
   18.5562  -14.7946  -16.1306 C   0  0  0  0  0  0  0  0  0  0  0  0
   18.1392  -15.3857  -14.8277 C   0  0  2  0  0  0  0  0  0  0  0  0
   18.5255  -16.7424  -14.6271 N   0  0  0  0  0  0  0  0  0  0  0  0
   16.6763  -15.1656  -14.6131 C   0  0  0  0  0  0  0  0  0  0  0  0
   15.8702  -16.2921  -14.5591 O   0  0  0  0  0  0  0  0  0  0  0  0
   16.1634  -14.0497  -14.4844 O   0  0  0  0  0  0  0  0  0  0  0  0
  2  1  1  6
  3  2  1  0
  3  4  1  0
  4  5  1  0
  5  6  2  0
  5  9  1  0
  7  2  1  0
  7  8  2  0
 10 11  1  0
 12 11  1  1
 12 13  1  0
 13  7  1  0
 14 12  1  0
 15 14  2  0
 17 16  1  0
 17 18  2  0
 20 19  1  6
 19 17  1  0
 20 21  1  0
 21 14  1  0
 22 20  1  0
 23 22  1  0
 24 22  2  0
M  END
$$$$
