ESN.pdb
     RDKit          3D

 24 23  0  0  1  0  0  0  0  0999 V2000
   13.4424  -10.2170  -10.2821 N   0  0  0  0  0  0  0  0  0  0  0  0
   14.8509  -10.0364  -10.1345 C   0  0  1  0  0  0  0  0  0  0  0  0
   15.5901  -10.9097  -11.0818 C   0  0  0  0  0  0  0  0  0  0  0  0
   15.4587  -12.3767  -10.8713 C   0  0  0  0  0  0  0  0  0  0  0  0
   14.1645  -12.9404  -11.2708 C   0  0  0  0  0  0  0  0  0  0  0  0
   13.3750  -13.4000  -10.4217 O   0  0  0  0  0  0  0  0  0  0  0  0
   15.2627   -8.6111  -10.3554 C   0  0  0  0  0  0  0  0  0  0  0  0
   15.0149   -8.0873  -11.4722 O   0  0  0  0  0  0  0  0  0  0  0  0
   13.7769  -12.9801  -12.6094 O   0  0  0  0  0  0  0  0  0  0  0  0
   14.7094   -5.7277   -7.9662 O   0  0  0  0  0  0  0  0  0  0  0  0
   16.0930   -5.8063   -8.1944 C   0  0  0  0  0  0  0  0  0  0  0  0
   16.2547   -6.5250   -9.5413 C   0  0  2  0  0  0  0  0  0  0  0  0
   15.9133   -7.8909   -9.3187 N   0  0  0  0  0  0  0  0  0  0  0  0
   17.6389   -6.3181  -10.0015 C   0  0  0  0  0  0  0  0  0  0  0  0
   18.5831   -6.9091   -9.4204 O   0  0  0  0  0  0  0  0  0  0  0  0
   21.8682   -5.3561  -12.8817 N   0  0  0  0  0  0  0  0  0  0  0  0
   21.2349   -6.6026  -12.6579 C   0  0  0  0  0  0  0  0  0  0  0  0
   21.8424   -7.6526  -12.9789 O   0  0  0  0  0  0  0  0  0  0  0  0
   19.8841   -6.7194  -12.0602 C   0  0  0  0  0  0  0  0  0  0  0  0
   19.3103   -5.4058  -11.6525 C   0  0  2  0  0  0  0  0  0  0  0  0
   17.9983   -5.4636  -11.0998 N   0  0  0  0  0  0  0  0  0  0  0  0
   19.4176   -4.4307  -12.7806 C   0  0  0  0  0  0  0  0  0  0  0  0
   20.6773   -3.9228  -13.0577 O   0  0  0  0  0  0  0  0  0  0  0  0
   18.4557   -4.0644  -13.4628 O   0  0  0  0  0  0  0  0  0  0  0  0
  2  1  1  6
  3  2  1  0
  3  4  1  0
  4  5  1  0
  5  6  2  0
  5  9  1  0
  7  2  1  0
  7  8  2  0
 10 11  1  0
 12 11  1  1
 12 13  1  0
 13  7  1  0
 14 12  1  0
 15 14  2  0
 17 16  1  0
 17 18  2  0
 20 19  1  6
 19 17  1  0
 20 21  1  0
 21 14  1  0
 22 20  1  0
 23 22  1  0
 24 22  2  0
M  END
$$$$
