ESN.pdb
     RDKit          3D

 24 23  0  0  1  0  0  0  0  0999 V2000
   19.1908  -13.2693  -16.2930 N   0  0  0  0  0  0  0  0  0  0  0  0
   18.8768  -11.8812  -16.4062 C   0  0  1  0  0  0  0  0  0  0  0  0
   17.4403  -11.6463  -16.1101 C   0  0  0  0  0  0  0  0  0  0  0  0
   16.4614  -12.2585  -17.0486 C   0  0  0  0  0  0  0  0  0  0  0  0
   15.0586  -11.9281  -16.7738 C   0  0  0  0  0  0  0  0  0  0  0  0
   14.5198  -10.9319  -17.2960 O   0  0  0  0  0  0  0  0  0  0  0  0
   19.7125  -11.0377  -15.4897 C   0  0  0  0  0  0  0  0  0  0  0  0
   19.7606  -11.3516  -14.2722 O   0  0  0  0  0  0  0  0  0  0  0  0
   14.2853  -12.7156  -15.9221 O   0  0  0  0  0  0  0  0  0  0  0  0
   22.9367   -9.4434  -16.5735 O   0  0  0  0  0  0  0  0  0  0  0  0
   22.6213   -9.5072  -15.2064 C   0  0  0  0  0  0  0  0  0  0  0  0
   21.1474   -9.0919  -15.0973 C   0  0  2  0  0  0  0  0  0  0  0  0
   20.4219   -9.9197  -16.0030 N   0  0  0  0  0  0  0  0  0  0  0  0
   21.0594   -7.6519  -15.3960 C   0  0  0  0  0  0  0  0  0  0  0  0
   21.0857   -7.2610  -16.5898 O   0  0  0  0  0  0  0  0  0  0  0  0
   17.7555   -3.7250  -15.4350 N   0  0  0  0  0  0  0  0  0  0  0  0
   18.5780   -4.7361  -14.8818 C   0  0  0  0  0  0  0  0  0  0  0  0
   18.2200   -5.9332  -14.9970 O   0  0  0  0  0  0  0  0  0  0  0  0
   19.8446   -4.4398  -14.1723 C   0  0  0  0  0  0  0  0  0  0  0  0
   20.9978   -5.2368  -14.6782 C   0  0  2  0  0  0  0  0  0  0  0  0
   20.9423   -6.6313  -14.3910 N   0  0  0  0  0  0  0  0  0  0  0  0
   22.2821   -4.6093  -14.2407 C   0  0  0  0  0  0  0  0  0  0  0  0
   22.5272   -3.3124  -14.6649 O   0  0  0  0  0  0  0  0  0  0  0  0
   23.1174   -5.1810  -13.5335 O   0  0  0  0  0  0  0  0  0  0  0  0
  2  1  1  1
  3  2  1  0
  3  4  1  0
  4  5  1  0
  5  6  2  0
  5  9  1  0
  7  2  1  0
  7  8  2  0
 10 11  1  0
 12 11  1  6
 12 13  1  0
 13  7  1  0
 14 12  1  0
 15 14  2  0
 17 16  1  0
 17 18  2  0
 20 19  1  1
 19 17  1  0
 20 21  1  0
 21 14  1  0
 22 20  1  0
 23 22  1  0
 24 22  2  0
M  END
$$$$
