ESN.pdb
     RDKit          3D

 24 23  0  0  1  0  0  0  0  0999 V2000
   20.6738  -21.3908  -13.7008 N   0  0  0  0  0  0  0  0  0  0  0  0
   21.4027  -20.9141  -14.8321 C   0  0  1  0  0  0  0  0  0  0  0  0
   20.5364  -20.0656  -15.6901 C   0  0  0  0  0  0  0  0  0  0  0  0
   19.3295  -20.7188  -16.2650 C   0  0  0  0  0  0  0  0  0  0  0  0
   19.0635  -20.3888  -17.6695 C   0  0  0  0  0  0  0  0  0  0  0  0
   18.1087  -20.9080  -18.2811 O   0  0  0  0  0  0  0  0  0  0  0  0
   22.6169  -20.1303  -14.4308 C   0  0  0  0  0  0  0  0  0  0  0  0
   22.4523  -19.0934  -13.7374 O   0  0  0  0  0  0  0  0  0  0  0  0
   19.8682  -19.4862  -18.3636 O   0  0  0  0  0  0  0  0  0  0  0  0
   25.9159  -21.7860  -14.6564 O   0  0  0  0  0  0  0  0  0  0  0  0
   26.2787  -20.4562  -14.9257 C   0  0  0  0  0  0  0  0  0  0  0  0
   24.9881  -19.6355  -14.7934 C   0  0  2  0  0  0  0  0  0  0  0  0
   23.9077  -20.5644  -14.8333 N   0  0  0  0  0  0  0  0  0  0  0  0
   24.9690  -18.6432  -15.8822 C   0  0  0  0  0  0  0  0  0  0  0  0
   23.8772  -18.3281  -16.4182 O   0  0  0  0  0  0  0  0  0  0  0  0
   25.9174  -14.1781  -18.2812 N   0  0  0  0  0  0  0  0  0  0  0  0
   25.5193  -14.3133  -16.9291 C   0  0  0  0  0  0  0  0  0  0  0  0
   25.0918  -13.3009  -16.3234 O   0  0  0  0  0  0  0  0  0  0  0  0
   25.5862  -15.6009  -16.1989 C   0  0  0  0  0  0  0  0  0  0  0  0
   26.1190  -16.7169  -17.0305 C   0  0  2  0  0  0  0  0  0  0  0  0
   26.1436  -17.9900  -16.3911 N   0  0  0  0  0  0  0  0  0  0  0  0
   27.4450  -16.3357  -17.6059 C   0  0  0  0  0  0  0  0  0  0  0  0
   27.4765  -15.2269  -18.4374 O   0  0  0  0  0  0  0  0  0  0  0  0
   28.4919  -16.9502  -17.3795 O   0  0  0  0  0  0  0  0  0  0  0  0
  2  1  1  1
  3  2  1  0
  3  4  1  0
  4  5  1  0
  5  6  2  0
  5  9  1  0
  7  2  1  0
  7  8  2  0
 10 11  1  0
 12 11  1  6
 12 13  1  0
 13  7  1  0
 14 12  1  0
 15 14  2  0
 17 16  1  0
 17 18  2  0
 20 19  1  1
 19 17  1  0
 20 21  1  0
 21 14  1  0
 22 20  1  0
 23 22  1  0
 24 22  2  0
M  END
$$$$
