ESN.pdb
     RDKit          3D

 24 23  0  0  1  0  0  0  0  0999 V2000
   18.0190  -12.0255  -15.2499 N   0  0  0  0  0  0  0  0  0  0  0  0
   17.0246  -11.2261  -14.6093 C   0  0  1  0  0  0  0  0  0  0  0  0
   15.9962  -12.0869  -13.9706 C   0  0  0  0  0  0  0  0  0  0  0  0
   15.1252  -12.8705  -14.8878 C   0  0  0  0  0  0  0  0  0  0  0  0
   14.1243  -13.7078  -14.2173 C   0  0  0  0  0  0  0  0  0  0  0  0
   13.0394  -13.2276  -13.8328 O   0  0  0  0  0  0  0  0  0  0  0  0
   17.6148  -10.3144  -13.5747 C   0  0  0  0  0  0  0  0  0  0  0  0
   18.8543  -10.3747  -13.3672 O   0  0  0  0  0  0  0  0  0  0  0  0
   14.3538  -15.0639  -13.9893 O   0  0  0  0  0  0  0  0  0  0  0  0
   17.4564   -6.6289  -13.3004 O   0  0  0  0  0  0  0  0  0  0  0  0
   18.2964   -7.5933  -12.7199 C   0  0  0  0  0  0  0  0  0  0  0  0
   17.3743   -8.5244  -11.9203 C   0  0  2  0  0  0  0  0  0  0  0  0
   16.7792   -9.4154  -12.8604 N   0  0  0  0  0  0  0  0  0  0  0  0
   16.4073   -7.6863  -11.1902 C   0  0  0  0  0  0  0  0  0  0  0  0
   15.4363   -7.1776  -11.8040 O   0  0  0  0  0  0  0  0  0  0  0  0
   13.0234   -6.7128   -6.8155 N   0  0  0  0  0  0  0  0  0  0  0  0
   14.3401   -6.2058   -6.9355 C   0  0  0  0  0  0  0  0  0  0  0  0
   14.5984   -5.0797   -6.4461 O   0  0  0  0  0  0  0  0  0  0  0  0
   15.4264   -6.9498   -7.6151 C   0  0  0  0  0  0  0  0  0  0  0  0
   15.5163   -6.6506   -9.0723 C   0  0  2  0  0  0  0  0  0  0  0  0
   16.4969   -7.3997   -9.7847 N   0  0  0  0  0  0  0  0  0  0  0  0
   15.6524   -5.1769   -9.2825 C   0  0  0  0  0  0  0  0  0  0  0  0
   14.4806   -4.4433   -9.3845 O   0  0  0  0  0  0  0  0  0  0  0  0
   16.7381   -4.5948   -9.3678 O   0  0  0  0  0  0  0  0  0  0  0  0
  2  1  1  1
  3  2  1  0
  3  4  1  0
  4  5  1  0
  5  6  2  0
  5  9  1  0
  7  2  1  0
  7  8  2  0
 10 11  1  0
 12 11  1  6
 12 13  1  0
 13  7  1  0
 14 12  1  0
 15 14  2  0
 17 16  1  0
 17 18  2  0
 20 19  1  1
 19 17  1  0
 20 21  1  0
 21 14  1  0
 22 20  1  0
 23 22  1  0
 24 22  2  0
M  END
$$$$
