EVE.pdb
     RDKit          3D

 26 25  0  0  1  0  0  0  0  0999 V2000
   10.7579  -17.2749   18.7624 N   0  0  0  0  0  0  0  0  0  0  0  0
   10.0152  -17.8164   19.8792 C   0  0  1  0  0  0  0  0  0  0  0  0
   10.2034  -19.2961   19.9176 C   0  0  0  0  0  0  0  0  0  0  0  0
   10.0779  -19.9213   18.5528 C   0  0  0  0  0  0  0  0  0  0  0  0
   10.2485  -21.3892   18.5681 C   0  0  0  0  0  0  0  0  0  0  0  0
    9.5253  -22.0782   19.3162 O   0  0  0  0  0  0  0  0  0  0  0  0
   10.4858  -17.1767   21.1731 C   0  0  0  0  0  0  0  0  0  0  0  0
   11.7039  -16.9148   21.3015 O   0  0  0  0  0  0  0  0  0  0  0  0
   11.1864  -22.0278   17.7777 O   0  0  0  0  0  0  0  0  0  0  0  0
    7.4075  -15.8011   23.8694 C   0  0  0  0  0  0  0  0  0  0  0  0
    8.8119  -15.1776   23.7904 C   0  0  1  0  0  0  0  0  0  0  0  0
    9.0359  -14.7053   25.2315 C   0  0  0  0  0  0  0  0  0  0  0  0
    9.7986  -16.2854   23.4920 C   0  0  2  0  0  0  0  0  0  0  0  0
    9.5792  -16.8897   22.1898 N   0  0  0  0  0  0  0  0  0  0  0  0
    9.9838  -17.2796   24.5173 C   0  0  0  0  0  0  0  0  0  0  0  0
    9.0332  -18.1623   24.6516 O   0  0  0  0  0  0  0  0  0  0  0  0
   11.0380  -17.4792   25.4206 N   0  0  0  0  0  0  0  0  0  0  0  0
   11.0902  -18.5441   26.4165 C   0  0  1  0  0  0  0  0  0  0  0  0
   12.4862  -19.0947   26.4240 C   0  0  0  0  0  0  0  0  0  0  0  0
   12.9158  -19.6812   25.1141 C   0  0  0  0  0  0  0  0  0  0  0  0
   14.2850  -20.2010   25.2297 C   0  0  0  0  0  0  0  0  0  0  0  0
   14.9157  -20.1819   26.2911 O   0  0  0  0  0  0  0  0  0  0  0  0
   10.6988  -18.0463   27.7586 C   0  0  0  0  0  0  0  0  0  0  0  0
   10.5362  -16.8333   27.9710 O   0  0  0  0  0  0  0  0  0  0  0  0
   14.8965  -20.7389   24.0880 O   0  0  0  0  0  0  0  0  0  0  0  0
   10.5142  -18.9481   28.7830 O   0  0  0  0  0  0  0  0  0  0  0  0
  2  1  1  6
  2  3  1  0
  4  5  1  0
  4  3  1  0
  5  6  2  0
  7  2  1  0
  8  7  2  0
  9  5  1  0
 11 10  1  1
 11 13  1  0
 12 11  1  0
 13 14  1  6
 14  7  1  0
 15 13  1  0
 15 16  2  0
 17 15  1  0
 18 19  1  1
 18 17  1  0
 20 21  1  0
 20 19  1  0
 21 22  2  0
 23 18  1  0
 24 23  2  0
 25 21  1  0
 26 23  1  0
M  END
$$$$
