EVE.pdb
     RDKit          3D

 26 25  0  0  1  0  0  0  0  0999 V2000
    7.5875  -14.4200   20.1020 N   0  0  0  0  0  0  0  0  0  0  0  0
    7.2677  -15.1832   21.2884 C   0  0  1  0  0  0  0  0  0  0  0  0
    7.4068  -16.6373   20.9842 C   0  0  0  0  0  0  0  0  0  0  0  0
    6.6172  -17.0421   19.7668 C   0  0  0  0  0  0  0  0  0  0  0  0
    6.5903  -18.5039   19.5512 C   0  0  0  0  0  0  0  0  0  0  0  0
    5.5006  -19.0643   19.3149 O   0  0  0  0  0  0  0  0  0  0  0  0
    8.1854  -14.7778   22.4279 C   0  0  0  0  0  0  0  0  0  0  0  0
    9.3871  -14.5366   22.1701 O   0  0  0  0  0  0  0  0  0  0  0  0
    7.7371  -19.2750   19.6024 O   0  0  0  0  0  0  0  0  0  0  0  0
    7.3476  -12.1232   24.9645 C   0  0  0  0  0  0  0  0  0  0  0  0
    7.6279  -13.3721   25.8183 C   0  0  1  0  0  0  0  0  0  0  0  0
    6.2171  -13.9234   26.0550 C   0  0  0  0  0  0  0  0  0  0  0  0
    8.3900  -14.3609   24.9633 C   0  0  2  0  0  0  0  0  0  0  0  0
    7.6964  -14.6779   23.7274 N   0  0  0  0  0  0  0  0  0  0  0  0
    8.8749  -15.5461   25.6222 C   0  0  0  0  0  0  0  0  0  0  0  0
    8.0860  -16.5845   25.6088 O   0  0  0  0  0  0  0  0  0  0  0  0
   10.0829  -15.7940   26.2905 N   0  0  0  0  0  0  0  0  0  0  0  0
   10.4745  -17.0827   26.8510 C   0  0  1  0  0  0  0  0  0  0  0  0
   11.8751  -17.3721   26.3962 C   0  0  0  0  0  0  0  0  0  0  0  0
   12.4765  -18.5946   27.0194 C   0  0  0  0  0  0  0  0  0  0  0  0
   13.8451  -18.7827   26.5195 C   0  0  0  0  0  0  0  0  0  0  0  0
   14.1718  -19.7498   25.8247 O   0  0  0  0  0  0  0  0  0  0  0  0
   10.3777  -17.0780   28.3318 C   0  0  0  0  0  0  0  0  0  0  0  0
   10.1610  -16.0272   28.9576 O   0  0  0  0  0  0  0  0  0  0  0  0
   14.8158  -17.8249   26.8465 O   0  0  0  0  0  0  0  0  0  0  0  0
   10.5319  -18.2612   29.0196 O   0  0  0  0  0  0  0  0  0  0  0  0
  2  1  1  6
  2  3  1  0
  4  5  1  0
  4  3  1  0
  5  6  2  0
  7  2  1  0
  8  7  2  0
  9  5  1  0
 11 10  1  6
 11 13  1  0
 12 11  1  0
 13 14  1  6
 14  7  1  0
 15 13  1  0
 15 16  2  0
 17 15  1  0
 18 19  1  1
 18 17  1  0
 20 21  1  0
 20 19  1  0
 21 22  2  0
 23 18  1  0
 24 23  2  0
 25 21  1  0
 26 23  1  0
M  END
$$$$
