EVE.pdb
     RDKit          3D

 26 25  0  0  1  0  0  0  0  0999 V2000
    8.2342  -17.3498   16.0982 N   0  0  0  0  0  0  0  0  0  0  0  0
    8.0071  -17.7593   17.4668 C   0  0  1  0  0  0  0  0  0  0  0  0
    8.4324  -19.1805   17.6268 C   0  0  0  0  0  0  0  0  0  0  0  0
    7.2582  -20.1219   17.6932 C   0  0  0  0  0  0  0  0  0  0  0  0
    7.6498  -21.5216   17.9605 C   0  0  0  0  0  0  0  0  0  0  0  0
    7.6116  -21.9513   19.1315 O   0  0  0  0  0  0  0  0  0  0  0  0
    8.7758  -16.8540   18.4125 C   0  0  0  0  0  0  0  0  0  0  0  0
   10.0211  -16.7880   18.2962 O   0  0  0  0  0  0  0  0  0  0  0  0
    8.0589  -22.3750   16.9522 O   0  0  0  0  0  0  0  0  0  0  0  0
    6.5740  -15.1031   21.7467 C   0  0  0  0  0  0  0  0  0  0  0  0
    7.5601  -14.2626   20.9169 C   0  0  1  0  0  0  0  0  0  0  0  0
    8.1965  -13.3656   21.9849 C   0  0  0  0  0  0  0  0  0  0  0  0
    8.6255  -15.1912   20.3764 C   0  0  2  0  0  0  0  0  0  0  0  0
    8.1060  -16.1161   19.3845 N   0  0  0  0  0  0  0  0  0  0  0  0
    9.4538  -15.8591   21.3468 C   0  0  0  0  0  0  0  0  0  0  0  0
    9.0230  -17.0082   21.7884 O   0  0  0  0  0  0  0  0  0  0  0  0
   10.6813  -15.4879   21.9147 N   0  0  0  0  0  0  0  0  0  0  0  0
   11.4551  -16.3127   22.8363 C   0  0  1  0  0  0  0  0  0  0  0  0
   12.8992  -15.9322   22.6875 C   0  0  0  0  0  0  0  0  0  0  0  0
   13.8158  -16.6410   23.6372 C   0  0  0  0  0  0  0  0  0  0  0  0
   15.2019  -16.2178   23.3961 C   0  0  0  0  0  0  0  0  0  0  0  0
   16.1630  -16.7236   23.9837 O   0  0  0  0  0  0  0  0  0  0  0  0
   10.9920  -16.1373   24.2352 C   0  0  0  0  0  0  0  0  0  0  0  0
   10.3695  -15.1201   24.5825 O   0  0  0  0  0  0  0  0  0  0  0  0
   15.4389  -15.1992   22.4618 O   0  0  0  0  0  0  0  0  0  0  0  0
   11.2594  -17.1216   25.1606 O   0  0  0  0  0  0  0  0  0  0  0  0
  2  1  1  6
  2  3  1  0
  4  5  1  0
  4  3  1  0
  5  6  2  0
  7  2  1  0
  8  7  2  0
  9  5  1  0
 11 10  1  1
 11 13  1  0
 12 11  1  0
 13 14  1  1
 14  7  1  0
 15 13  1  0
 15 16  2  0
 17 15  1  0
 18 19  1  1
 18 17  1  0
 20 21  1  0
 20 19  1  0
 21 22  2  0
 23 18  1  0
 24 23  2  0
 25 21  1  0
 26 23  1  0
M  END
$$$$
