EVE.pdb
     RDKit          3D

 26 25  0  0  1  0  0  0  0  0999 V2000
    6.6684  -17.4597   18.3788 N   0  0  0  0  0  0  0  0  0  0  0  0
    8.0224  -17.3766   17.8769 C   0  0  1  0  0  0  0  0  0  0  0  0
    7.9940  -16.8358   16.4865 C   0  0  0  0  0  0  0  0  0  0  0  0
    9.3764  -16.6764   15.9096 C   0  0  0  0  0  0  0  0  0  0  0  0
    9.4486  -17.0127   14.4723 C   0  0  0  0  0  0  0  0  0  0  0  0
   10.4814  -17.5514   14.0245 O   0  0  0  0  0  0  0  0  0  0  0  0
    8.8580  -16.4924   18.7851 C   0  0  0  0  0  0  0  0  0  0  0  0
   10.0928  -16.4286   18.5856 O   0  0  0  0  0  0  0  0  0  0  0  0
    8.4057  -16.7495   13.6032 O   0  0  0  0  0  0  0  0  0  0  0  0
    7.7675  -13.0230   19.8758 C   0  0  0  0  0  0  0  0  0  0  0  0
    8.0773  -13.7401   21.2013 C   0  0  1  0  0  0  0  0  0  0  0  0
    6.6801  -14.1532   21.6781 C   0  0  0  0  0  0  0  0  0  0  0  0
    8.8630  -14.9932   20.8819 C   0  0  2  0  0  0  0  0  0  0  0  0
    8.2594  -15.7711   19.8144 N   0  0  0  0  0  0  0  0  0  0  0  0
    9.2407  -15.8214   21.9979 C   0  0  0  0  0  0  0  0  0  0  0  0
    8.3754  -16.7214   22.3748 O   0  0  0  0  0  0  0  0  0  0  0  0
   10.4104  -15.8391   22.7716 N   0  0  0  0  0  0  0  0  0  0  0  0
   10.6454  -16.7277   23.9045 C   0  0  1  0  0  0  0  0  0  0  0  0
   11.3706  -17.9381   23.3931 C   0  0  0  0  0  0  0  0  0  0  0  0
   12.6255  -17.6214   22.6386 C   0  0  0  0  0  0  0  0  0  0  0  0
   13.2590  -18.8675   22.1863 C   0  0  0  0  0  0  0  0  0  0  0  0
   12.6241  -19.9135   22.0203 O   0  0  0  0  0  0  0  0  0  0  0  0
   11.4183  -16.0464   24.9725 C   0  0  0  0  0  0  0  0  0  0  0  0
   11.8777  -14.9047   24.8036 O   0  0  0  0  0  0  0  0  0  0  0  0
   14.6386  -18.8653   21.9348 O   0  0  0  0  0  0  0  0  0  0  0  0
   11.6274  -16.6948   26.1694 O   0  0  0  0  0  0  0  0  0  0  0  0
  2  1  1  1
  2  3  1  0
  4  5  1  0
  4  3  1  0
  5  6  2  0
  7  2  1  0
  8  7  2  0
  9  5  1  0
 11 10  1  6
 11 13  1  0
 12 11  1  0
 13 14  1  6
 14  7  1  0
 15 13  1  0
 15 16  2  0
 17 15  1  0
 18 19  1  6
 18 17  1  0
 20 21  1  0
 20 19  1  0
 21 22  2  0
 23 18  1  0
 24 23  2  0
 25 21  1  0
 26 23  1  0
M  END
$$$$
