EVE.pdb
     RDKit          3D

 26 25  0  0  1  0  0  0  0  0999 V2000
    7.4047  -14.6778   20.9955 N   0  0  0  0  0  0  0  0  0  0  0  0
    7.8492  -15.5754   22.0391 C   0  0  1  0  0  0  0  0  0  0  0  0
    8.9397  -16.4420   21.5041 C   0  0  0  0  0  0  0  0  0  0  0  0
    9.4300  -17.4351   22.5252 C   0  0  0  0  0  0  0  0  0  0  0  0
   10.4792  -18.3355   22.0032 C   0  0  0  0  0  0  0  0  0  0  0  0
   10.3449  -18.8317   20.8660 O   0  0  0  0  0  0  0  0  0  0  0  0
    8.3301  -14.7777   23.2380 C   0  0  0  0  0  0  0  0  0  0  0  0
    9.5019  -14.3356   23.2304 O   0  0  0  0  0  0  0  0  0  0  0  0
   11.6099  -18.6479   22.7355 O   0  0  0  0  0  0  0  0  0  0  0  0
    6.8628  -12.2550   27.2686 C   0  0  0  0  0  0  0  0  0  0  0  0
    6.5257  -12.9537   25.9399 C   0  0  1  0  0  0  0  0  0  0  0  0
    6.4282  -11.7708   24.9697 C   0  0  0  0  0  0  0  0  0  0  0  0
    7.7150  -13.8006   25.5426 C   0  0  2  0  0  0  0  0  0  0  0  0
    7.4828  -14.5460   24.3180 N   0  0  0  0  0  0  0  0  0  0  0  0
    8.2911  -14.6287   26.5704 C   0  0  0  0  0  0  0  0  0  0  0  0
    8.7158  -14.0175   27.6413 O   0  0  0  0  0  0  0  0  0  0  0  0
    8.4770  -16.0175   26.6314 N   0  0  0  0  0  0  0  0  0  0  0  0
    8.9140  -16.7473   27.8167 C   0  0  1  0  0  0  0  0  0  0  0  0
    8.1972  -18.0657   27.8316 C   0  0  0  0  0  0  0  0  0  0  0  0
    8.3070  -18.8322   26.5491 C   0  0  0  0  0  0  0  0  0  0  0  0
    7.6327  -20.1300   26.6888 C   0  0  0  0  0  0  0  0  0  0  0  0
    7.6339  -20.7692   27.7452 O   0  0  0  0  0  0  0  0  0  0  0  0
   10.3864  -16.9330   27.8227 C   0  0  0  0  0  0  0  0  0  0  0  0
   11.0762  -16.6253   26.8367 O   0  0  0  0  0  0  0  0  0  0  0  0
    6.9629  -20.6605   25.5767 O   0  0  0  0  0  0  0  0  0  0  0  0
   10.9937  -17.4562   28.9426 O   0  0  0  0  0  0  0  0  0  0  0  0
  2  1  1  6
  2  3  1  0
  4  5  1  0
  4  3  1  0
  5  6  2  0
  7  2  1  0
  8  7  2  0
  9  5  1  0
 11 10  1  1
 11 13  1  0
 12 11  1  0
 13 14  1  6
 14  7  1  0
 15 13  1  0
 15 16  2  0
 17 15  1  0
 18 19  1  6
 18 17  1  0
 20 21  1  0
 20 19  1  0
 21 22  2  0
 23 18  1  0
 24 23  2  0
 25 21  1  0
 26 23  1  0
M  END
$$$$
