EVE.pdb
     RDKit          3D

 26 25  0  0  1  0  0  0  0  0999 V2000
    8.4643  -15.1496   20.5779 N   0  0  0  0  0  0  0  0  0  0  0  0
    7.7290  -15.5746   21.7488 C   0  0  1  0  0  0  0  0  0  0  0  0
    7.7206  -17.0657   21.8039 C   0  0  0  0  0  0  0  0  0  0  0  0
    7.1148  -17.6774   20.5678 C   0  0  0  0  0  0  0  0  0  0  0  0
    7.0492  -19.1528   20.6219 C   0  0  0  0  0  0  0  0  0  0  0  0
    7.5740  -19.8193   19.7066 O   0  0  0  0  0  0  0  0  0  0  0  0
    8.3624  -14.9898   22.9985 C   0  0  0  0  0  0  0  0  0  0  0  0
    9.6116  -14.9823   23.0876 O   0  0  0  0  0  0  0  0  0  0  0  0
    6.4233  -19.8227   21.6571 O   0  0  0  0  0  0  0  0  0  0  0  0
    7.3867  -12.6420   27.3275 C   0  0  0  0  0  0  0  0  0  0  0  0
    6.8842  -13.0965   25.9461 C   0  0  1  0  0  0  0  0  0  0  0  0
    6.8634  -11.7795   25.1618 C   0  0  0  0  0  0  0  0  0  0  0  0
    7.9376  -13.9974   25.3392 C   0  0  2  0  0  0  0  0  0  0  0  0
    7.5673  -14.4747   24.0185 N   0  0  0  0  0  0  0  0  0  0  0  0
    8.4350  -15.0621   26.1715 C   0  0  0  0  0  0  0  0  0  0  0  0
    7.5972  -16.0209   26.4540 O   0  0  0  0  0  0  0  0  0  0  0  0
    9.6992  -15.2629   26.7449 N   0  0  0  0  0  0  0  0  0  0  0  0
   10.0807  -16.4320   27.5299 C   0  0  1  0  0  0  0  0  0  0  0  0
   11.2604  -17.0696   26.8561 C   0  0  0  0  0  0  0  0  0  0  0  0
   11.8238  -18.2427   27.5983 C   0  0  0  0  0  0  0  0  0  0  0  0
   12.9487  -18.8118   26.8439 C   0  0  0  0  0  0  0  0  0  0  0  0
   13.9373  -18.1458   26.5213 O   0  0  0  0  0  0  0  0  0  0  0  0
   10.3951  -16.0604   28.9318 C   0  0  0  0  0  0  0  0  0  0  0  0
   10.5921  -14.8769   29.2534 O   0  0  0  0  0  0  0  0  0  0  0  0
   12.8941  -20.1643   26.4774 O   0  0  0  0  0  0  0  0  0  0  0  0
   10.4692  -17.0480   29.8889 O   0  0  0  0  0  0  0  0  0  0  0  0
  2  1  1  6
  2  3  1  0
  4  5  1  0
  4  3  1  0
  5  6  2  0
  7  2  1  0
  8  7  2  0
  9  5  1  0
 11 10  1  1
 11 13  1  0
 12 11  1  0
 13 14  1  6
 14  7  1  0
 15 13  1  0
 15 16  2  0
 17 15  1  0
 18 19  1  6
 18 17  1  0
 20 21  1  0
 20 19  1  0
 21 22  2  0
 23 18  1  0
 24 23  2  0
 25 21  1  0
 26 23  1  0
M  END
$$$$
