EVE.pdb
     RDKit          3D

 26 25  0  0  1  0  0  0  0  0999 V2000
    7.9949  -15.9913   16.1280 N   0  0  0  0  0  0  0  0  0  0  0  0
    8.1048  -16.7474   17.3561 C   0  0  1  0  0  0  0  0  0  0  0  0
    8.7891  -18.0424   17.0712 C   0  0  0  0  0  0  0  0  0  0  0  0
    8.9850  -18.8683   18.3157 C   0  0  0  0  0  0  0  0  0  0  0  0
    9.6782  -20.1483   18.0605 C   0  0  0  0  0  0  0  0  0  0  0  0
    9.6752  -20.6225   16.9061 O   0  0  0  0  0  0  0  0  0  0  0  0
    8.8728  -15.9451   18.3912 C   0  0  0  0  0  0  0  0  0  0  0  0
   10.0336  -15.5663   18.1124 O   0  0  0  0  0  0  0  0  0  0  0  0
   10.3332  -20.8413   19.0621 O   0  0  0  0  0  0  0  0  0  0  0  0
    7.3150  -13.0166   19.9980 C   0  0  0  0  0  0  0  0  0  0  0  0
    7.8075  -13.8217   21.2132 C   0  0  1  0  0  0  0  0  0  0  0  0
    6.5356  -14.5589   21.6478 C   0  0  0  0  0  0  0  0  0  0  0  0
    8.8081  -14.8446   20.7212 C   0  0  2  0  0  0  0  0  0  0  0  0
    8.2944  -15.6402   19.6201 N   0  0  0  0  0  0  0  0  0  0  0  0
    9.4401  -15.6643   21.7225 C   0  0  0  0  0  0  0  0  0  0  0  0
    8.8508  -16.7917   22.0096 O   0  0  0  0  0  0  0  0  0  0  0  0
   10.6149  -15.4650   22.4623 N   0  0  0  0  0  0  0  0  0  0  0  0
   11.1004  -16.3574   23.5093 C   0  0  1  0  0  0  0  0  0  0  0  0
   12.5966  -16.2466   23.5466 C   0  0  0  0  0  0  0  0  0  0  0  0
   13.2730  -16.7230   22.2977 C   0  0  0  0  0  0  0  0  0  0  0  0
   14.6974  -16.3653   22.3390 C   0  0  0  0  0  0  0  0  0  0  0  0
   15.2107  -15.7912   23.3042 O   0  0  0  0  0  0  0  0  0  0  0  0
   10.5011  -16.0211   24.8246 C   0  0  0  0  0  0  0  0  0  0  0  0
   10.6596  -16.7604   25.8101 O   0  0  0  0  0  0  0  0  0  0  0  0
   15.5022  -16.6898   21.2374 O   0  0  0  0  0  0  0  0  0  0  0  0
    9.7570  -14.8690   24.9499 O   0  0  0  0  0  0  0  0  0  0  0  0
  2  1  1  6
  2  3  1  0
  4  5  1  0
  4  3  1  0
  5  6  2  0
  7  2  1  0
  8  7  2  0
  9  5  1  0
 11 10  1  6
 11 13  1  0
 12 11  1  0
 13 14  1  6
 14  7  1  0
 15 13  1  0
 15 16  2  0
 17 15  1  0
 18 19  1  1
 18 17  1  0
 20 21  1  0
 20 19  1  0
 21 22  2  0
 23 18  1  0
 24 23  2  0
 25 21  1  0
 26 23  1  0
M  END
$$$$
