EVE.pdb
     RDKit          3D

 26 25  0  0  1  0  0  0  0  0999 V2000
    8.2642  -14.6735   20.3938 N   0  0  0  0  0  0  0  0  0  0  0  0
    7.5397  -15.0177   21.5975 C   0  0  1  0  0  0  0  0  0  0  0  0
    7.2014  -16.4706   21.5636 C   0  0  0  0  0  0  0  0  0  0  0  0
    7.6706  -17.1347   20.2954 C   0  0  0  0  0  0  0  0  0  0  0  0
    6.6364  -17.9824   19.6664 C   0  0  0  0  0  0  0  0  0  0  0  0
    6.2645  -17.7263   18.5030 O   0  0  0  0  0  0  0  0  0  0  0  0
    8.3774  -14.6849   22.8192 C   0  0  0  0  0  0  0  0  0  0  0  0
    9.5940  -14.9824   22.8084 O   0  0  0  0  0  0  0  0  0  0  0  0
    6.0644  -19.0546   20.3263 O   0  0  0  0  0  0  0  0  0  0  0  0
    6.2811  -13.4461   26.4781 C   0  0  0  0  0  0  0  0  0  0  0  0
    7.5418  -12.7210   25.9758 C   0  0  1  0  0  0  0  0  0  0  0  0
    8.2641  -12.3863   27.2859 C   0  0  0  0  0  0  0  0  0  0  0  0
    8.3809  -13.7199   25.2093 C   0  0  2  0  0  0  0  0  0  0  0  0
    7.8007  -14.0627   23.9229 N   0  0  0  0  0  0  0  0  0  0  0  0
    8.8112  -14.8904   25.9297 C   0  0  0  0  0  0  0  0  0  0  0  0
    7.9001  -15.7902   26.1767 O   0  0  0  0  0  0  0  0  0  0  0  0
   10.0739  -15.2506   26.4225 N   0  0  0  0  0  0  0  0  0  0  0  0
   10.3460  -16.4376   27.2258 C   0  0  1  0  0  0  0  0  0  0  0  0
   11.5271  -17.1382   26.6205 C   0  0  0  0  0  0  0  0  0  0  0  0
   11.3271  -17.5439   25.1922 C   0  0  0  0  0  0  0  0  0  0  0  0
   12.5611  -18.1479   24.6718 C   0  0  0  0  0  0  0  0  0  0  0  0
   12.6249  -19.3293   24.3180 O   0  0  0  0  0  0  0  0  0  0  0  0
   10.5980  -16.0820   28.6444 C   0  0  0  0  0  0  0  0  0  0  0  0
   10.7311  -14.8979   28.9954 O   0  0  0  0  0  0  0  0  0  0  0  0
   13.7094  -17.3489   24.5749 O   0  0  0  0  0  0  0  0  0  0  0  0
   10.6853  -17.0851   29.5840 O   0  0  0  0  0  0  0  0  0  0  0  0
  2  1  1  6
  2  3  1  0
  4  5  1  0
  4  3  1  0
  5  6  2  0
  7  2  1  0
  8  7  2  0
  9  5  1  0
 11 10  1  1
 11 13  1  0
 12 11  1  0
 13 14  1  6
 14  7  1  0
 15 13  1  0
 15 16  2  0
 17 15  1  0
 18 19  1  6
 18 17  1  0
 20 21  1  0
 20 19  1  0
 21 22  2  0
 23 18  1  0
 24 23  2  0
 25 21  1  0
 26 23  1  0
M  END
$$$$
