EVE.pdb
     RDKit          3D

 26 25  0  0  1  0  0  0  0  0999 V2000
   10.9954  -17.0156   16.7880 N   0  0  0  0  0  0  0  0  0  0  0  0
    9.7523  -17.1139   17.5210 C   0  0  1  0  0  0  0  0  0  0  0  0
    9.4772  -18.5489   17.8231 C   0  0  0  0  0  0  0  0  0  0  0  0
   10.6784  -19.4233   17.5742 C   0  0  0  0  0  0  0  0  0  0  0  0
   10.4245  -20.8525   17.8516 C   0  0  0  0  0  0  0  0  0  0  0  0
   10.8033  -21.3385   18.9368 O   0  0  0  0  0  0  0  0  0  0  0  0
    9.8386  -16.2982   18.7986 C   0  0  0  0  0  0  0  0  0  0  0  0
   10.9563  -16.1651   19.3480 O   0  0  0  0  0  0  0  0  0  0  0  0
    9.7783  -21.6730   16.9452 O   0  0  0  0  0  0  0  0  0  0  0  0
    7.2990  -13.2530   21.8576 C   0  0  0  0  0  0  0  0  0  0  0  0
    7.3891  -13.9751   20.5020 C   0  0  1  0  0  0  0  0  0  0  0  0
    7.7956  -12.8378   19.5578 C   0  0  0  0  0  0  0  0  0  0  0  0
    8.5303  -14.9660   20.5755 C   0  0  2  0  0  0  0  0  0  0  0  0
    8.6980  -15.7137   19.3419 N   0  0  0  0  0  0  0  0  0  0  0  0
    8.5662  -15.8260   21.7300 C   0  0  0  0  0  0  0  0  0  0  0  0
    7.6876  -16.7892   21.7667 O   0  0  0  0  0  0  0  0  0  0  0  0
    9.4062  -15.8179   22.8532 N   0  0  0  0  0  0  0  0  0  0  0  0
    9.3761  -16.8105   23.9219 C   0  0  1  0  0  0  0  0  0  0  0  0
   10.6813  -16.7289   24.6582 C   0  0  0  0  0  0  0  0  0  0  0  0
   10.8051  -15.5278   25.5451 C   0  0  0  0  0  0  0  0  0  0  0  0
   12.1341  -15.5098   26.1712 C   0  0  0  0  0  0  0  0  0  0  0  0
   12.4751  -14.6432   26.9820 O   0  0  0  0  0  0  0  0  0  0  0  0
    8.2268  -16.5859   24.8336 C   0  0  0  0  0  0  0  0  0  0  0  0
    7.6095  -15.5081   24.8347 O   0  0  0  0  0  0  0  0  0  0  0  0
   13.0486  -16.5175   25.8321 O   0  0  0  0  0  0  0  0  0  0  0  0
    7.8422  -17.5923   25.6915 O   0  0  0  0  0  0  0  0  0  0  0  0
  2  1  1  1
  2  3  1  0
  4  5  1  0
  4  3  1  0
  5  6  2  0
  7  2  1  0
  8  7  2  0
  9  5  1  0
 11 10  1  1
 11 13  1  0
 12 11  1  0
 13 14  1  6
 14  7  1  0
 15 13  1  0
 15 16  2  0
 17 15  1  0
 18 19  1  1
 18 17  1  0
 20 21  1  0
 20 19  1  0
 21 22  2  0
 23 18  1  0
 24 23  2  0
 25 21  1  0
 26 23  1  0
M  END
$$$$
