EVE.pdb
     RDKit          3D

 26 25  0  0  1  0  0  0  0  0999 V2000
    8.2764  -17.5412   16.2624 N   0  0  0  0  0  0  0  0  0  0  0  0
    7.6604  -17.5472   17.5712 C   0  0  1  0  0  0  0  0  0  0  0  0
    7.5984  -18.9507   18.0738 C   0  0  0  0  0  0  0  0  0  0  0  0
    7.9828  -19.9516   17.0157 C   0  0  0  0  0  0  0  0  0  0  0  0
    8.3366  -21.2755   17.5691 C   0  0  0  0  0  0  0  0  0  0  0  0
    7.7467  -22.2900   17.1446 O   0  0  0  0  0  0  0  0  0  0  0  0
    8.4529  -16.6663   18.5204 C   0  0  0  0  0  0  0  0  0  0  0  0
    9.6911  -16.5739   18.3564 O   0  0  0  0  0  0  0  0  0  0  0  0
    9.3037  -21.4287   18.5456 O   0  0  0  0  0  0  0  0  0  0  0  0
    8.0122  -13.2313   22.1454 C   0  0  0  0  0  0  0  0  0  0  0  0
    7.3167  -14.1500   21.1257 C   0  0  1  0  0  0  0  0  0  0  0  0
    6.9065  -13.1608   20.0286 C   0  0  0  0  0  0  0  0  0  0  0  0
    8.3579  -15.0893   20.5571 C   0  0  2  0  0  0  0  0  0  0  0  0
    7.8120  -15.9792   19.5475 N   0  0  0  0  0  0  0  0  0  0  0  0
    9.1767  -15.7977   21.5065 C   0  0  0  0  0  0  0  0  0  0  0  0
    8.6387  -16.8400   22.0767 O   0  0  0  0  0  0  0  0  0  0  0  0
   10.4913  -15.5651   21.9365 N   0  0  0  0  0  0  0  0  0  0  0  0
   11.2184  -16.4049   22.8823 C   0  0  1  0  0  0  0  0  0  0  0  0
   12.6814  -16.1106   22.7238 C   0  0  0  0  0  0  0  0  0  0  0  0
   13.5598  -16.8634   23.6758 C   0  0  0  0  0  0  0  0  0  0  0  0
   14.9703  -16.5860   23.3726 C   0  0  0  0  0  0  0  0  0  0  0  0
   15.8865  -16.8782   24.1472 O   0  0  0  0  0  0  0  0  0  0  0  0
   10.7667  -16.1632   24.2752 C   0  0  0  0  0  0  0  0  0  0  0  0
   11.0411  -16.9614   25.1865 O   0  0  0  0  0  0  0  0  0  0  0  0
   15.2847  -15.9648   22.1552 O   0  0  0  0  0  0  0  0  0  0  0  0
   10.0310  -15.0337   24.5572 O   0  0  0  0  0  0  0  0  0  0  0  0
  2  1  1  6
  2  3  1  0
  4  5  1  0
  4  3  1  0
  5  6  2  0
  7  2  1  0
  8  7  2  0
  9  5  1  0
 11 10  1  1
 11 13  1  0
 12 11  1  0
 13 14  1  1
 14  7  1  0
 15 13  1  0
 15 16  2  0
 17 15  1  0
 18 19  1  1
 18 17  1  0
 20 21  1  0
 20 19  1  0
 21 22  2  0
 23 18  1  0
 24 23  2  0
 25 21  1  0
 26 23  1  0
M  END
$$$$
