EVE.pdb
     RDKit          3D

 26 25  0  0  1  0  0  0  0  0999 V2000
    8.8756  -17.0428   15.6685 N   0  0  0  0  0  0  0  0  0  0  0  0
    8.1171  -17.2060   16.8893 C   0  0  1  0  0  0  0  0  0  0  0  0
    8.0565  -18.6562   17.2348 C   0  0  0  0  0  0  0  0  0  0  0  0
    7.1948  -19.4344   16.2750 C   0  0  0  0  0  0  0  0  0  0  0  0
    7.0879  -20.8672   16.6205 C   0  0  0  0  0  0  0  0  0  0  0  0
    7.6839  -21.7089   15.9178 O   0  0  0  0  0  0  0  0  0  0  0  0
    8.7609  -16.4086   18.0094 C   0  0  0  0  0  0  0  0  0  0  0  0
   10.0111  -16.3750   18.0767 O   0  0  0  0  0  0  0  0  0  0  0  0
    6.3466  -21.3089   17.7012 O   0  0  0  0  0  0  0  0  0  0  0  0
    7.7505  -13.2529   21.7914 C   0  0  0  0  0  0  0  0  0  0  0  0
    7.2255  -14.0685   20.5970 C   0  0  1  0  0  0  0  0  0  0  0  0
    6.9221  -12.9735   19.5679 C   0  0  0  0  0  0  0  0  0  0  0  0
    8.3650  -14.9146   20.0723 C   0  0  2  0  0  0  0  0  0  0  0  0
    7.9740  -15.7319   18.9373 N   0  0  0  0  0  0  0  0  0  0  0  0
    9.1083  -15.6728   21.0451 C   0  0  0  0  0  0  0  0  0  0  0  0
    8.5701  -16.7904   21.4480 O   0  0  0  0  0  0  0  0  0  0  0  0
   10.3481  -15.4211   21.6507 N   0  0  0  0  0  0  0  0  0  0  0  0
   11.0241  -16.3289   22.5712 C   0  0  1  0  0  0  0  0  0  0  0  0
   12.4901  -16.0098   22.5335 C   0  0  0  0  0  0  0  0  0  0  0  0
   13.3075  -16.7887   23.5182 C   0  0  0  0  0  0  0  0  0  0  0  0
   14.7265  -16.4375   23.3711 C   0  0  0  0  0  0  0  0  0  0  0  0
   15.1548  -15.7900   22.4108 O   0  0  0  0  0  0  0  0  0  0  0  0
   10.4799  -16.2057   23.9464 C   0  0  0  0  0  0  0  0  0  0  0  0
   10.7168  -17.0665   24.8099 O   0  0  0  0  0  0  0  0  0  0  0  0
   15.6268  -16.8561   24.3614 O   0  0  0  0  0  0  0  0  0  0  0  0
    9.6992  -15.1170   24.2657 O   0  0  0  0  0  0  0  0  0  0  0  0
  2  1  1  6
  2  3  1  0
  4  5  1  0
  4  3  1  0
  5  6  2  0
  7  2  1  0
  8  7  2  0
  9  5  1  0
 11 10  1  1
 11 13  1  0
 12 11  1  0
 13 14  1  6
 14  7  1  0
 15 13  1  0
 15 16  2  0
 17 15  1  0
 18 19  1  1
 18 17  1  0
 20 21  1  0
 20 19  1  0
 21 22  2  0
 23 18  1  0
 24 23  2  0
 25 21  1  0
 26 23  1  0
M  END
$$$$
