EVE.pdb
     RDKit          3D

 26 25  0  0  1  0  0  0  0  0999 V2000
    7.9260  -13.5257   19.9697 N   0  0  0  0  0  0  0  0  0  0  0  0
    7.0600  -13.9207   21.0588 C   0  0  1  0  0  0  0  0  0  0  0  0
    6.4940  -15.2698   20.7662 C   0  0  0  0  0  0  0  0  0  0  0  0
    7.5612  -16.2671   20.3977 C   0  0  0  0  0  0  0  0  0  0  0  0
    7.0230  -17.6103   20.0980 C   0  0  0  0  0  0  0  0  0  0  0  0
    5.7918  -17.8021   20.1677 O   0  0  0  0  0  0  0  0  0  0  0  0
    7.8388  -13.9310   22.3620 C   0  0  0  0  0  0  0  0  0  0  0  0
    9.0098  -14.3754   22.3547 O   0  0  0  0  0  0  0  0  0  0  0  0
    7.8411  -18.6666   19.7413 O   0  0  0  0  0  0  0  0  0  0  0  0
    5.7234  -13.4529   26.1945 C   0  0  0  0  0  0  0  0  0  0  0  0
    6.9235  -12.5693   25.8118 C   0  0  1  0  0  0  0  0  0  0  0  0
    7.6508  -12.4160   27.1525 C   0  0  0  0  0  0  0  0  0  0  0  0
    7.8086  -13.3635   24.8762 C   0  0  2  0  0  0  0  0  0  0  0  0
    7.2593  -13.4554   23.5350 N   0  0  0  0  0  0  0  0  0  0  0  0
    8.2704  -14.6416   25.3526 C   0  0  0  0  0  0  0  0  0  0  0  0
    7.4725  -15.6561   25.1657 O   0  0  0  0  0  0  0  0  0  0  0  0
    9.4634  -15.0038   25.9951 N   0  0  0  0  0  0  0  0  0  0  0  0
    9.8047  -16.3590   26.4139 C   0  0  1  0  0  0  0  0  0  0  0  0
   11.0036  -16.7934   25.6226 C   0  0  0  0  0  0  0  0  0  0  0  0
   11.5281  -18.1436   26.0052 C   0  0  0  0  0  0  0  0  0  0  0  0
   12.6646  -18.4956   25.1433 C   0  0  0  0  0  0  0  0  0  0  0  0
   13.0784  -17.7487   24.2512 O   0  0  0  0  0  0  0  0  0  0  0  0
   10.0690  -16.4217   27.8729 C   0  0  0  0  0  0  0  0  0  0  0  0
   10.2699  -17.5069   28.4427 O   0  0  0  0  0  0  0  0  0  0  0  0
   13.3016  -19.7286   25.3441 O   0  0  0  0  0  0  0  0  0  0  0  0
   10.0903  -15.2543   28.6033 O   0  0  0  0  0  0  0  0  0  0  0  0
  2  1  1  6
  2  3  1  0
  4  5  1  0
  4  3  1  0
  5  6  2  0
  7  2  1  0
  8  7  2  0
  9  5  1  0
 11 10  1  1
 11 13  1  0
 12 11  1  0
 13 14  1  6
 14  7  1  0
 15 13  1  0
 15 16  2  0
 17 15  1  0
 18 19  1  6
 18 17  1  0
 20 21  1  0
 20 19  1  0
 21 22  2  0
 23 18  1  0
 24 23  2  0
 25 21  1  0
 26 23  1  0
M  END
$$$$
