EVE.pdb
     RDKit          3D

 26 25  0  0  1  0  0  0  0  0999 V2000
    8.0883  -17.6314   16.2878 N   0  0  0  0  0  0  0  0  0  0  0  0
    7.6499  -17.7252   17.6630 C   0  0  1  0  0  0  0  0  0  0  0  0
    7.7396  -19.1469   18.1068 C   0  0  0  0  0  0  0  0  0  0  0  0
    8.1743  -20.0642   16.9937 C   0  0  0  0  0  0  0  0  0  0  0  0
    8.4554  -21.4409   17.4514 C   0  0  0  0  0  0  0  0  0  0  0  0
    7.5016  -22.2017   17.7139 O   0  0  0  0  0  0  0  0  0  0  0  0
    8.5043  -16.8287   18.5412 C   0  0  0  0  0  0  0  0  0  0  0  0
    9.7504  -16.9268   18.4618 O   0  0  0  0  0  0  0  0  0  0  0  0
    9.7454  -21.9168   17.5991 O   0  0  0  0  0  0  0  0  0  0  0  0
    6.4750  -14.5900   21.6785 C   0  0  0  0  0  0  0  0  0  0  0  0
    7.5577  -13.9212   20.8135 C   0  0  1  0  0  0  0  0  0  0  0  0
    8.2789  -13.0310   21.8321 C   0  0  0  0  0  0  0  0  0  0  0  0
    8.5183  -14.9963   20.3540 C   0  0  2  0  0  0  0  0  0  0  0  0
    7.9103  -15.9198   19.4124 N   0  0  0  0  0  0  0  0  0  0  0  0
    9.2536  -15.6880   21.3809 C   0  0  0  0  0  0  0  0  0  0  0  0
    8.7379  -16.8043   21.8154 O   0  0  0  0  0  0  0  0  0  0  0  0
   10.4652  -15.3708   22.0123 N   0  0  0  0  0  0  0  0  0  0  0  0
   11.1835  -16.2530   22.9255 C   0  0  1  0  0  0  0  0  0  0  0  0
   12.6452  -15.9300   22.8178 C   0  0  0  0  0  0  0  0  0  0  0  0
   13.5003  -16.6390   23.8230 C   0  0  0  0  0  0  0  0  0  0  0  0
   14.9043  -16.2447   23.6443 C   0  0  0  0  0  0  0  0  0  0  0  0
   15.7100  -16.2135   24.5796 O   0  0  0  0  0  0  0  0  0  0  0  0
   10.6974  -16.0975   24.3190 C   0  0  0  0  0  0  0  0  0  0  0  0
   10.1146  -15.0630   24.6838 O   0  0  0  0  0  0  0  0  0  0  0  0
   15.3429  -15.8904   22.3603 O   0  0  0  0  0  0  0  0  0  0  0  0
   10.8984  -17.1199   25.2195 O   0  0  0  0  0  0  0  0  0  0  0  0
  2  1  1  6
  2  3  1  0
  4  5  1  0
  4  3  1  0
  5  6  2  0
  7  2  1  0
  8  7  2  0
  9  5  1  0
 11 10  1  1
 11 13  1  0
 12 11  1  0
 13 14  1  1
 14  7  1  0
 15 13  1  0
 15 16  2  0
 17 15  1  0
 18 19  1  1
 18 17  1  0
 20 21  1  0
 20 19  1  0
 21 22  2  0
 23 18  1  0
 24 23  2  0
 25 21  1  0
 26 23  1  0
M  END
$$$$
