EVE.pdb
     RDKit          3D

 26 25  0  0  1  0  0  0  0  0999 V2000
    8.1062  -14.0866   20.2690 N   0  0  0  0  0  0  0  0  0  0  0  0
    7.5976  -14.8406   21.3938 C   0  0  1  0  0  0  0  0  0  0  0  0
    7.9840  -16.2729   21.2346 C   0  0  0  0  0  0  0  0  0  0  0  0
    7.4213  -16.8775   19.9748 C   0  0  0  0  0  0  0  0  0  0  0  0
    7.6405  -18.3361   19.8819 C   0  0  0  0  0  0  0  0  0  0  0  0
    8.2547  -18.9189   20.7988 O   0  0  0  0  0  0  0  0  0  0  0  0
    8.1475  -14.2719   22.6896 C   0  0  0  0  0  0  0  0  0  0  0  0
    9.3535  -13.9362   22.7304 O   0  0  0  0  0  0  0  0  0  0  0  0
    7.1859  -19.0802   18.8087 O   0  0  0  0  0  0  0  0  0  0  0  0
    7.0736  -12.6482   27.2721 C   0  0  0  0  0  0  0  0  0  0  0  0
    6.5308  -13.1442   25.9205 C   0  0  1  0  0  0  0  0  0  0  0  0
    6.2003  -11.8297   25.2044 C   0  0  0  0  0  0  0  0  0  0  0  0
    7.6653  -13.8190   25.1809 C   0  0  2  0  0  0  0  0  0  0  0  0
    7.3249  -14.1287   23.8035 N   0  0  0  0  0  0  0  0  0  0  0  0
    8.2928  -14.9354   25.8395 C   0  0  0  0  0  0  0  0  0  0  0  0
    7.5550  -15.9956   26.0195 O   0  0  0  0  0  0  0  0  0  0  0  0
    9.5967  -15.0948   26.3311 N   0  0  0  0  0  0  0  0  0  0  0  0
   10.1065  -16.3088   26.9594 C   0  0  1  0  0  0  0  0  0  0  0  0
   11.4372  -16.6201   26.3391 C   0  0  0  0  0  0  0  0  0  0  0  0
   12.1845  -17.7229   27.0244 C   0  0  0  0  0  0  0  0  0  0  0  0
   13.4896  -17.9132   26.3771 C   0  0  0  0  0  0  0  0  0  0  0  0
   13.8618  -17.2297   25.4184 O   0  0  0  0  0  0  0  0  0  0  0  0
   10.2210  -16.1471   28.4301 C   0  0  0  0  0  0  0  0  0  0  0  0
   10.2319  -17.1333   29.1853 O   0  0  0  0  0  0  0  0  0  0  0  0
   14.3431  -18.9109   26.8697 O   0  0  0  0  0  0  0  0  0  0  0  0
   10.3161  -14.8804   28.9622 O   0  0  0  0  0  0  0  0  0  0  0  0
  2  1  1  6
  2  3  1  0
  4  5  1  0
  4  3  1  0
  5  6  2  0
  7  2  1  0
  8  7  2  0
  9  5  1  0
 11 10  1  1
 11 13  1  0
 12 11  1  0
 13 14  1  6
 14  7  1  0
 15 13  1  0
 15 16  2  0
 17 15  1  0
 18 19  1  6
 18 17  1  0
 20 21  1  0
 20 19  1  0
 21 22  2  0
 23 18  1  0
 24 23  2  0
 25 21  1  0
 26 23  1  0
M  END
$$$$
