EVE.pdb
     RDKit          3D

 26 25  0  0  1  0  0  0  0  0999 V2000
    6.4874  -17.0261   22.3178 N   0  0  0  0  0  0  0  0  0  0  0  0
    7.8870  -17.3566   22.4731 C   0  0  1  0  0  0  0  0  0  0  0  0
    8.5167  -17.4554   21.1240 C   0  0  0  0  0  0  0  0  0  0  0  0
    8.4544  -16.1526   20.3702 C   0  0  0  0  0  0  0  0  0  0  0  0
    8.9963  -16.2483   18.9986 C   0  0  0  0  0  0  0  0  0  0  0  0
   10.1322  -15.7901   18.7596 O   0  0  0  0  0  0  0  0  0  0  0  0
    8.5778  -16.3007   23.3174 C   0  0  0  0  0  0  0  0  0  0  0  0
    9.8236  -16.1964   23.2419 O   0  0  0  0  0  0  0  0  0  0  0  0
    8.2839  -16.8313   17.9666 O   0  0  0  0  0  0  0  0  0  0  0  0
    7.9083  -12.6237   26.6453 C   0  0  0  0  0  0  0  0  0  0  0  0
    7.2733  -13.5462   25.5901 C   0  0  1  0  0  0  0  0  0  0  0  0
    7.1546  -12.6150   24.3782 C   0  0  0  0  0  0  0  0  0  0  0  0
    8.2713  -14.6347   25.2602 C   0  0  2  0  0  0  0  0  0  0  0  0
    7.8377  -15.4701   24.1543 N   0  0  0  0  0  0  0  0  0  0  0  0
    8.7586  -15.4210   26.3640 C   0  0  0  0  0  0  0  0  0  0  0  0
    7.8792  -16.1501   26.9931 O   0  0  0  0  0  0  0  0  0  0  0  0
   10.0497  -15.5528   26.8959 N   0  0  0  0  0  0  0  0  0  0  0  0
   10.4065  -16.4286   28.0067 C   0  0  1  0  0  0  0  0  0  0  0  0
   11.6575  -17.1645   27.6247 C   0  0  0  0  0  0  0  0  0  0  0  0
   12.2139  -18.0257   28.7170 C   0  0  0  0  0  0  0  0  0  0  0  0
   13.4380  -18.6897   28.2487 C   0  0  0  0  0  0  0  0  0  0  0  0
   13.8921  -18.5219   27.1128 O   0  0  0  0  0  0  0  0  0  0  0  0
   10.5949  -15.6583   29.2612 C   0  0  0  0  0  0  0  0  0  0  0  0
   10.6283  -16.2273   30.3648 O   0  0  0  0  0  0  0  0  0  0  0  0
   14.1141  -19.5470   29.1287 O   0  0  0  0  0  0  0  0  0  0  0  0
   10.7342  -14.2897   29.1956 O   0  0  0  0  0  0  0  0  0  0  0  0
  2  1  1  6
  2  3  1  0
  4  5  1  0
  4  3  1  0
  5  6  2  0
  7  2  1  0
  8  7  2  0
  9  5  1  0
 11 10  1  1
 11 13  1  0
 12 11  1  0
 13 14  1  6
 14  7  1  0
 15 13  1  0
 15 16  2  0
 17 15  1  0
 18 19  1  6
 18 17  1  0
 20 21  1  0
 20 19  1  0
 21 22  2  0
 23 18  1  0
 24 23  2  0
 25 21  1  0
 26 23  1  0
M  END
$$$$
