EVE.pdb
     RDKit          3D

 26 25  0  0  1  0  0  0  0  0999 V2000
    8.7732  -17.0442   16.2250 N   0  0  0  0  0  0  0  0  0  0  0  0
    8.7601  -17.6865   17.5210 C   0  0  1  0  0  0  0  0  0  0  0  0
    9.5327  -18.9605   17.4410 C   0  0  0  0  0  0  0  0  0  0  0  0
    9.1950  -19.7541   16.2059 C   0  0  0  0  0  0  0  0  0  0  0  0
    9.9158  -21.0419   16.1276 C   0  0  0  0  0  0  0  0  0  0  0  0
    9.7745  -21.7579   15.1152 O   0  0  0  0  0  0  0  0  0  0  0  0
    9.3533  -16.7578   18.5652 C   0  0  0  0  0  0  0  0  0  0  0  0
   10.5946  -16.5916   18.5807 O   0  0  0  0  0  0  0  0  0  0  0  0
   10.7453  -21.4822   17.1426 O   0  0  0  0  0  0  0  0  0  0  0  0
    6.6626  -15.3025   21.6702 C   0  0  0  0  0  0  0  0  0  0  0  0
    7.7054  -14.3722   21.0264 C   0  0  1  0  0  0  0  0  0  0  0  0
    8.1547  -13.5188   22.2180 C   0  0  0  0  0  0  0  0  0  0  0  0
    8.8753  -15.2210   20.5787 C   0  0  2  0  0  0  0  0  0  0  0  0
    8.5310  -16.1083   19.4817 N   0  0  0  0  0  0  0  0  0  0  0  0
    9.6080  -15.9079   21.6108 C   0  0  0  0  0  0  0  0  0  0  0  0
    9.1581  -17.0802   21.9631 O   0  0  0  0  0  0  0  0  0  0  0  0
   10.7575  -15.5341   22.3223 N   0  0  0  0  0  0  0  0  0  0  0  0
   11.4191  -16.3592   23.3272 C   0  0  1  0  0  0  0  0  0  0  0  0
   12.8615  -15.9481   23.3785 C   0  0  0  0  0  0  0  0  0  0  0  0
   13.8238  -17.0918   23.2766 C   0  0  0  0  0  0  0  0  0  0  0  0
   15.1321  -16.6868   23.8084 C   0  0  0  0  0  0  0  0  0  0  0  0
   15.3459  -15.5566   24.2578 O   0  0  0  0  0  0  0  0  0  0  0  0
   10.7695  -16.2169   24.6539 C   0  0  0  0  0  0  0  0  0  0  0  0
    9.9656  -15.2973   24.8796 O   0  0  0  0  0  0  0  0  0  0  0  0
   16.1766  -17.6225   23.8036 O   0  0  0  0  0  0  0  0  0  0  0  0
   11.0665  -17.1219   25.6487 O   0  0  0  0  0  0  0  0  0  0  0  0
  2  1  1  6
  2  3  1  0
  4  5  1  0
  4  3  1  0
  5  6  2  0
  7  2  1  0
  8  7  2  0
  9  5  1  0
 11 10  1  1
 11 13  1  0
 12 11  1  0
 13 14  1  6
 14  7  1  0
 15 13  1  0
 15 16  2  0
 17 15  1  0
 18 19  1  1
 18 17  1  0
 20 21  1  0
 20 19  1  0
 21 22  2  0
 23 18  1  0
 24 23  2  0
 25 21  1  0
 26 23  1  0
M  END
$$$$
