FEI.pdb
     RDKit          3D

 29 29  0  0  1  0  0  0  0  0999 V2000
    5.8545  -16.5799   24.0211 N   0  0  0  0  0  0  0  0  0  0  0  0
    6.9522  -16.3896   23.0964 C   0  0  1  0  0  0  0  0  0  0  0  0
    6.9226  -14.9712   22.6035 C   0  0  0  0  0  0  0  0  0  0  0  0
    6.7301  -14.0864   23.7706 C   0  0  0  0  0  0  0  0  0  0  0  0
    5.9859  -14.5159   24.8343 C   0  0  0  0  0  0  0  0  0  0  0  0
    5.8228  -13.6589   25.9193 C   0  0  0  0  0  0  0  0  0  0  0  0
    6.4014  -12.4134   25.9089 C   0  0  0  0  0  0  0  0  0  0  0  0
    7.1471  -11.9963   24.8313 C   0  0  0  0  0  0  0  0  0  0  0  0
    7.3039  -12.8433   23.7673 C   0  0  0  0  0  0  0  0  0  0  0  0
    8.2487  -16.6410   23.8472 C   0  0  0  0  0  0  0  0  0  0  0  0
    8.2060  -16.9240   25.0674 O   0  0  0  0  0  0  0  0  0  0  0  0
    9.4909  -16.5580   23.1817 N   0  0  0  0  0  0  0  0  0  0  0  0
   10.7711  -16.9783   23.6862 C   0  0  1  0  0  0  0  0  0  0  0  0
   11.8744  -17.0654   22.6467 C   0  0  0  0  0  0  0  0  0  0  0  0
   13.1345  -17.5721   23.2459 C   0  0  0  0  0  0  0  0  0  0  0  0
   14.2176  -17.7330   22.2255 C   0  0  0  0  0  0  0  0  0  0  0  0
   14.4936  -18.8728   21.7802 O   0  0  0  0  0  0  0  0  0  0  0  0
   11.1680  -16.4028   24.9594 C   0  0  0  0  0  0  0  0  0  0  0  0
   11.9423  -15.3845   24.9373 O   0  0  0  0  0  0  0  0  0  0  0  0
   14.9131  -16.6318   21.7731 O   0  0  0  0  0  0  0  0  0  0  0  0
    9.4950  -13.0444   27.8462 C   0  0  0  0  0  0  0  0  0  0  0  0
   10.4843  -14.0021   27.2149 C   0  0  0  0  0  0  0  0  0  0  0  0
   10.5188  -15.2455   28.0785 C   0  0  2  0  0  0  0  0  0  0  0  0
   10.9221  -14.8856   29.4725 C   0  0  0  0  0  0  0  0  0  0  0  0
   11.3656  -16.3371   27.4699 C   0  0  2  0  0  0  0  0  0  0  0  0
   10.7870  -16.8507   26.2413 N   0  0  0  0  0  0  0  0  0  0  0  0
   11.4107  -17.4540   28.4468 C   0  0  0  0  0  0  0  0  0  0  0  0
   10.5633  -18.3561   28.3648 O   0  0  0  0  0  0  0  0  0  0  0  0
   12.3679  -17.5193   29.4446 O   0  0  0  0  0  0  0  0  0  0  0  0
  2  1  1  1
  2 10  1  0
  3  2  1  0
  4  3  1  0
  5  4  2  0
  6  5  1  0
  7  8  1  0
  7  6  2  0
  8  9  2  0
  9  4  1  0
 10 11  2  0
 12 10  1  0
 12 13  1  0
 13 14  1  6
 15 14  1  0
 16 20  1  0
 16 15  1  0
 17 16  2  0
 18 26  1  0
 18 13  1  0
 19 18  2  0
 21 22  1  0
 22 23  1  0
 23 25  1  0
 23 24  1  1
 25 27  1  0
 25 26  1  6
 27 29  1  0
 28 27  2  0
M  END
$$$$
