FEI.pdb
     RDKit          3D

 29 29  0  0  1  0  0  0  0  0999 V2000
    7.4284  -15.0550   23.7061 N   0  0  0  0  0  0  0  0  0  0  0  0
    7.1202  -16.3349   23.1034 C   0  0  1  0  0  0  0  0  0  0  0  0
    6.5004  -16.0932   21.7569 C   0  0  0  0  0  0  0  0  0  0  0  0
    7.0329  -14.8195   21.2314 C   0  0  0  0  0  0  0  0  0  0  0  0
    6.7129  -13.6422   21.8488 C   0  0  0  0  0  0  0  0  0  0  0  0
    7.2303  -12.4585   21.3298 C   0  0  0  0  0  0  0  0  0  0  0  0
    8.0423  -12.4866   20.2226 C   0  0  0  0  0  0  0  0  0  0  0  0
    8.3549  -13.6790   19.6130 C   0  0  0  0  0  0  0  0  0  0  0  0
    7.8432  -14.8397   20.1279 C   0  0  0  0  0  0  0  0  0  0  0  0
    8.4210  -17.1012   22.9353 C   0  0  0  0  0  0  0  0  0  0  0  0
    8.3866  -18.3473   22.8051 O   0  0  0  0  0  0  0  0  0  0  0  0
    9.6582  -16.4213   22.9252 N   0  0  0  0  0  0  0  0  0  0  0  0
   10.9037  -16.8856   23.4758 C   0  0  1  0  0  0  0  0  0  0  0  0
   12.0708  -16.8981   22.5047 C   0  0  0  0  0  0  0  0  0  0  0  0
   13.2945  -17.4403   23.1466 C   0  0  0  0  0  0  0  0  0  0  0  0
   14.4620  -17.4537   22.2101 C   0  0  0  0  0  0  0  0  0  0  0  0
   14.3047  -17.8148   21.0190 O   0  0  0  0  0  0  0  0  0  0  0  0
   11.2191  -16.4117   24.8121 C   0  0  0  0  0  0  0  0  0  0  0  0
   12.2616  -15.6839   24.9554 O   0  0  0  0  0  0  0  0  0  0  0  0
   15.7103  -17.0703   22.6526 O   0  0  0  0  0  0  0  0  0  0  0  0
    8.3558  -13.1644   27.0521 C   0  0  0  0  0  0  0  0  0  0  0  0
    9.5127  -14.0276   26.5930 C   0  0  0  0  0  0  0  0  0  0  0  0
    9.7760  -15.0430   27.6849 C   0  0  2  0  0  0  0  0  0  0  0  0
   10.1102  -14.3413   28.9622 C   0  0  0  0  0  0  0  0  0  0  0  0
   10.8066  -16.0665   27.2731 C   0  0  2  0  0  0  0  0  0  0  0  0
   10.4895  -16.6697   25.9912 N   0  0  0  0  0  0  0  0  0  0  0  0
   10.7876  -17.1441   28.2940 C   0  0  0  0  0  0  0  0  0  0  0  0
    9.9876  -18.0825   28.1596 O   0  0  0  0  0  0  0  0  0  0  0  0
   11.6339  -17.1336   29.3893 O   0  0  0  0  0  0  0  0  0  0  0  0
  2  1  1  6
  2 10  1  0
  3  2  1  0
  4  3  1  0
  5  4  2  0
  6  5  1  0
  7  8  1  0
  7  6  2  0
  8  9  2  0
  9  4  1  0
 10 11  2  0
 12 10  1  0
 12 13  1  0
 13 14  1  6
 15 14  1  0
 16 20  1  0
 16 15  1  0
 17 16  2  0
 18 26  1  0
 18 13  1  0
 19 18  2  0
 21 22  1  0
 22 23  1  0
 23 25  1  0
 23 24  1  1
 25 27  1  0
 25 26  1  6
 27 29  1  0
 28 27  2  0
M  END
$$$$
