FEI.pdb
     RDKit          3D

 29 29  0  0  1  0  0  0  0  0999 V2000
    5.7637  -16.0951   25.0687 N   0  0  0  0  0  0  0  0  0  0  0  0
    7.0554  -15.5592   24.6939 C   0  0  1  0  0  0  0  0  0  0  0  0
    7.5387  -14.6601   25.7956 C   0  0  0  0  0  0  0  0  0  0  0  0
    6.8997  -13.3399   25.6206 C   0  0  0  0  0  0  0  0  0  0  0  0
    7.4607  -12.4188   24.7799 C   0  0  0  0  0  0  0  0  0  0  0  0
    6.8349  -11.1835   24.6361 C   0  0  0  0  0  0  0  0  0  0  0  0
    5.6810  -10.9091   25.3284 C   0  0  0  0  0  0  0  0  0  0  0  0
    5.1293  -11.8462   26.1702 C   0  0  0  0  0  0  0  0  0  0  0  0
    5.7491  -13.0590   26.3075 C   0  0  0  0  0  0  0  0  0  0  0  0
    8.0173  -16.7231   24.5273 C   0  0  0  0  0  0  0  0  0  0  0  0
    7.9498  -17.6928   25.3185 O   0  0  0  0  0  0  0  0  0  0  0  0
    8.9788  -16.7171   23.4938 N   0  0  0  0  0  0  0  0  0  0  0  0
   10.3316  -17.2012   23.5693 C   0  0  1  0  0  0  0  0  0  0  0  0
   11.1306  -17.0793   22.2840 C   0  0  0  0  0  0  0  0  0  0  0  0
   12.4431  -17.7624   22.4037 C   0  0  0  0  0  0  0  0  0  0  0  0
   13.2361  -17.6826   21.1368 C   0  0  0  0  0  0  0  0  0  0  0  0
   14.4788  -17.5180   21.1857 O   0  0  0  0  0  0  0  0  0  0  0  0
   11.0574  -16.8608   24.7806 C   0  0  0  0  0  0  0  0  0  0  0  0
   11.9161  -15.9147   24.7146 O   0  0  0  0  0  0  0  0  0  0  0  0
   12.6049  -17.7896   19.9157 O   0  0  0  0  0  0  0  0  0  0  0  0
    9.3592  -14.0230   28.2313 C   0  0  0  0  0  0  0  0  0  0  0  0
   10.4192  -14.7395   27.4205 C   0  0  0  0  0  0  0  0  0  0  0  0
   10.6323  -16.0957   28.0593 C   0  0  2  0  0  0  0  0  0  0  0  0
   11.0662  -15.9262   29.4800 C   0  0  0  0  0  0  0  0  0  0  0  0
   11.5593  -16.9674   27.2469 C   0  0  2  0  0  0  0  0  0  0  0  0
   10.9173  -17.4692   26.0453 N   0  0  0  0  0  0  0  0  0  0  0  0
   11.9128  -18.1373   28.0897 C   0  0  0  0  0  0  0  0  0  0  0  0
   12.7317  -17.9877   29.0092 O   0  0  0  0  0  0  0  0  0  0  0  0
   11.3572  -19.3879   27.8809 O   0  0  0  0  0  0  0  0  0  0  0  0
  2  1  1  1
  2 10  1  0
  3  2  1  0
  4  3  1  0
  5  4  2  0
  6  5  1  0
  7  8  1  0
  7  6  2  0
  8  9  2  0
  9  4  1  0
 10 11  2  0
 12 10  1  0
 12 13  1  0
 13 14  1  6
 15 14  1  0
 16 20  1  0
 16 15  1  0
 17 16  2  0
 18 26  1  0
 18 13  1  0
 19 18  2  0
 21 22  1  0
 22 23  1  0
 23 25  1  0
 23 24  1  1
 25 27  1  0
 25 26  1  6
 27 29  1  0
 28 27  2  0
M  END
$$$$
