FEI.pdb
     RDKit          3D

 29 29  0  0  1  0  0  0  0  0999 V2000
    7.4091  -17.9429   19.2946 N   0  0  0  0  0  0  0  0  0  0  0  0
    7.8647  -16.7155   19.9127 C   0  0  1  0  0  0  0  0  0  0  0  0
    6.7707  -15.6919   19.8081 C   0  0  0  0  0  0  0  0  0  0  0  0
    7.2711  -14.4284   20.3869 C   0  0  0  0  0  0  0  0  0  0  0  0
    7.9523  -13.5422   19.5992 C   0  0  0  0  0  0  0  0  0  0  0  0
    8.4113  -12.3601   20.1739 C   0  0  0  0  0  0  0  0  0  0  0  0
    8.1786  -12.1022   21.5026 C   0  0  0  0  0  0  0  0  0  0  0  0
    7.4918  -13.0037   22.2815 C   0  0  0  0  0  0  0  0  0  0  0  0
    7.0429  -14.1643   21.7109 C   0  0  0  0  0  0  0  0  0  0  0  0
    8.1536  -17.0047   21.3758 C   0  0  0  0  0  0  0  0  0  0  0  0
    7.2570  -17.5123   22.0895 O   0  0  0  0  0  0  0  0  0  0  0  0
    9.4171  -16.7065   21.9303 N   0  0  0  0  0  0  0  0  0  0  0  0
    9.8776  -17.0298   23.2545 C   0  0  1  0  0  0  0  0  0  0  0  0
   11.0869  -17.9463   23.3085 C   0  0  0  0  0  0  0  0  0  0  0  0
   12.2080  -17.3999   22.5033 C   0  0  0  0  0  0  0  0  0  0  0  0
   13.4002  -18.3048   22.5125 C   0  0  0  0  0  0  0  0  0  0  0  0
   13.3658  -19.3788   23.1600 O   0  0  0  0  0  0  0  0  0  0  0  0
    9.8951  -15.9300   24.2031 C   0  0  0  0  0  0  0  0  0  0  0  0
   10.6692  -14.9419   23.9553 O   0  0  0  0  0  0  0  0  0  0  0  0
   14.5365  -17.9616   21.8112 O   0  0  0  0  0  0  0  0  0  0  0  0
    6.0902  -12.9839   26.1655 C   0  0  0  0  0  0  0  0  0  0  0  0
    7.3984  -13.5439   25.6465 C   0  0  0  0  0  0  0  0  0  0  0  0
    8.1465  -14.1113   26.8346 C   0  0  2  0  0  0  0  0  0  0  0  0
    8.3884  -13.0354   27.8443 C   0  0  0  0  0  0  0  0  0  0  0  0
    9.4015  -14.8411   26.4205 C   0  0  2  0  0  0  0  0  0  0  0  0
    9.1389  -15.8289   25.3893 N   0  0  0  0  0  0  0  0  0  0  0  0
    9.9046  -15.5626   27.6163 C   0  0  0  0  0  0  0  0  0  0  0  0
   10.5522  -14.9336   28.4670 O   0  0  0  0  0  0  0  0  0  0  0  0
    9.6735  -16.9135   27.8106 O   0  0  0  0  0  0  0  0  0  0  0  0
  2  1  1  6
  2 10  1  0
  3  2  1  0
  4  3  1  0
  5  4  2  0
  6  5  1  0
  7  8  1  0
  7  6  2  0
  8  9  2  0
  9  4  1  0
 10 11  2  0
 12 10  1  0
 12 13  1  0
 13 14  1  6
 15 14  1  0
 16 20  1  0
 16 15  1  0
 17 16  2  0
 18 26  1  0
 18 13  1  0
 19 18  2  0
 21 22  1  0
 22 23  1  0
 23 25  1  0
 23 24  1  1
 25 27  1  0
 25 26  1  6
 27 29  1  0
 28 27  2  0
M  END
$$$$
