FEI.pdb
     RDKit          3D

 29 29  0  0  1  0  0  0  0  0999 V2000
    6.3292  -17.9154   19.4388 N   0  0  0  0  0  0  0  0  0  0  0  0
    7.0782  -16.7363   19.8197 C   0  0  1  0  0  0  0  0  0  0  0  0
    6.1379  -15.5661   19.8666 C   0  0  0  0  0  0  0  0  0  0  0  0
    6.8844  -14.4014   20.3843 C   0  0  0  0  0  0  0  0  0  0  0  0
    7.6360  -13.6414   19.5314 C   0  0  0  0  0  0  0  0  0  0  0  0
    8.3280  -12.5502   20.0494 C   0  0  0  0  0  0  0  0  0  0  0  0
    8.2491  -12.2545   21.3882 C   0  0  0  0  0  0  0  0  0  0  0  0
    7.4888  -13.0287   22.2331 C   0  0  0  0  0  0  0  0  0  0  0  0
    6.8106  -14.1005   21.7180 C   0  0  0  0  0  0  0  0  0  0  0  0
    7.6624  -16.9761   21.2013 C   0  0  0  0  0  0  0  0  0  0  0  0
    6.9043  -17.3274   22.1355 O   0  0  0  0  0  0  0  0  0  0  0  0
    9.0441  -16.8062   21.4355 N   0  0  0  0  0  0  0  0  0  0  0  0
    9.7462  -17.0376   22.6699 C   0  0  1  0  0  0  0  0  0  0  0  0
   11.0715  -17.7648   22.5290 C   0  0  0  0  0  0  0  0  0  0  0  0
   11.7239  -17.9478   23.8498 C   0  0  0  0  0  0  0  0  0  0  0  0
   13.0237  -18.6814   23.7382 C   0  0  0  0  0  0  0  0  0  0  0  0
   14.0338  -18.2620   24.3526 O   0  0  0  0  0  0  0  0  0  0  0  0
    9.7467  -15.9327   23.6127 C   0  0  0  0  0  0  0  0  0  0  0  0
   10.4892  -14.9247   23.3487 O   0  0  0  0  0  0  0  0  0  0  0  0
   13.1144  -19.8172   22.9618 O   0  0  0  0  0  0  0  0  0  0  0  0
    6.6231  -11.8018   26.1793 C   0  0  0  0  0  0  0  0  0  0  0  0
    7.8394  -12.6474   26.4954 C   0  0  0  0  0  0  0  0  0  0  0  0
    7.7999  -13.8512   25.5778 C   0  0  2  0  0  0  0  0  0  0  0  0
    6.5378  -14.6207   25.8024 C   0  0  0  0  0  0  0  0  0  0  0  0
    9.0471  -14.6942   25.6919 C   0  0  2  0  0  0  0  0  0  0  0  0
    9.0053  -15.8463   24.8094 N   0  0  0  0  0  0  0  0  0  0  0  0
    9.1102  -15.1985   27.0867 C   0  0  0  0  0  0  0  0  0  0  0  0
    8.7349  -16.3570   27.3223 O   0  0  0  0  0  0  0  0  0  0  0  0
    9.5742  -14.4166   28.1304 O   0  0  0  0  0  0  0  0  0  0  0  0
  2  1  1  1
  2 10  1  0
  3  2  1  0
  4  3  1  0
  5  4  2  0
  6  5  1  0
  7  8  1  0
  7  6  2  0
  8  9  2  0
  9  4  1  0
 10 11  2  0
 12 10  1  0
 12 13  1  0
 13 14  1  6
 15 14  1  0
 16 20  1  0
 16 15  1  0
 17 16  2  0
 18 26  1  0
 18 13  1  0
 19 18  2  0
 21 22  1  0
 22 23  1  0
 23 25  1  0
 23 24  1  1
 25 27  1  0
 25 26  1  6
 27 29  1  0
 28 27  2  0
M  END
$$$$
