FEI.pdb
     RDKit          3D

 29 29  0  0  1  0  0  0  0  0999 V2000
    6.2691  -16.7645   21.3306 N   0  0  0  0  0  0  0  0  0  0  0  0
    7.4606  -16.0847   21.7938 C   0  0  1  0  0  0  0  0  0  0  0  0
    7.0987  -14.6702   22.1454 C   0  0  0  0  0  0  0  0  0  0  0  0
    7.4120  -13.8163   20.9815 C   0  0  0  0  0  0  0  0  0  0  0  0
    6.5008  -13.6831   19.9707 C   0  0  0  0  0  0  0  0  0  0  0  0
    6.8253  -12.8713   18.8872 C   0  0  0  0  0  0  0  0  0  0  0  0
    8.0362  -12.2247   18.8468 C   0  0  0  0  0  0  0  0  0  0  0  0
    8.9421  -12.3690   19.8715 C   0  0  0  0  0  0  0  0  0  0  0  0
    8.6174  -13.1685   20.9342 C   0  0  0  0  0  0  0  0  0  0  0  0
    7.9614  -16.8056   23.0337 C   0  0  0  0  0  0  0  0  0  0  0  0
    7.1890  -16.9576   24.0090 O   0  0  0  0  0  0  0  0  0  0  0  0
    9.2821  -17.3009   23.0915 N   0  0  0  0  0  0  0  0  0  0  0  0
   10.0462  -17.5878   24.2763 C   0  0  1  0  0  0  0  0  0  0  0  0
   11.1856  -18.5725   24.0835 C   0  0  0  0  0  0  0  0  0  0  0  0
   11.9255  -18.7890   25.3521 C   0  0  0  0  0  0  0  0  0  0  0  0
   11.6520  -20.1381   25.9395 C   0  0  0  0  0  0  0  0  0  0  0  0
   11.3589  -21.0997   25.1891 O   0  0  0  0  0  0  0  0  0  0  0  0
   10.3542  -16.4468   25.1208 C   0  0  0  0  0  0  0  0  0  0  0  0
   11.2745  -15.6482   24.7308 O   0  0  0  0  0  0  0  0  0  0  0  0
   11.7213  -20.3275   27.3035 O   0  0  0  0  0  0  0  0  0  0  0  0
    7.0068  -13.0443   27.7823 C   0  0  0  0  0  0  0  0  0  0  0  0
    7.8534  -14.2977   27.7012 C   0  0  0  0  0  0  0  0  0  0  0  0
    9.2280  -13.8807   27.2223 C   0  0  2  0  0  0  0  0  0  0  0  0
    9.1165  -13.1740   25.9095 C   0  0  0  0  0  0  0  0  0  0  0  0
   10.1983  -15.0371   27.2027 C   0  0  2  0  0  0  0  0  0  0  0  0
    9.7391  -16.1155   26.3460 N   0  0  0  0  0  0  0  0  0  0  0  0
   10.2788  -15.5662   28.5874 C   0  0  0  0  0  0  0  0  0  0  0  0
    9.8314  -16.6989   28.8228 O   0  0  0  0  0  0  0  0  0  0  0  0
   10.8370  -14.8353   29.6220 O   0  0  0  0  0  0  0  0  0  0  0  0
  2  1  1  1
  2 10  1  0
  3  2  1  0
  4  3  1  0
  5  4  2  0
  6  5  1  0
  7  8  1  0
  7  6  2  0
  8  9  2  0
  9  4  1  0
 10 11  2  0
 12 10  1  0
 12 13  1  0
 13 14  1  6
 15 14  1  0
 16 20  1  0
 16 15  1  0
 17 16  2  0
 18 26  1  0
 18 13  1  0
 19 18  2  0
 21 22  1  0
 22 23  1  0
 23 25  1  0
 23 24  1  6
 25 27  1  0
 25 26  1  6
 27 29  1  0
 28 27  2  0
M  END
$$$$
