FEI.pdb
     RDKit          3D

 29 29  0  0  1  0  0  0  0  0999 V2000
    7.6270  -17.6491   19.0861 N   0  0  0  0  0  0  0  0  0  0  0  0
    7.9875  -16.4985   19.8876 C   0  0  1  0  0  0  0  0  0  0  0  0
    6.8985  -15.4712   19.7678 C   0  0  0  0  0  0  0  0  0  0  0  0
    7.1905  -14.3831   20.7231 C   0  0  0  0  0  0  0  0  0  0  0  0
    6.7922  -14.4969   22.0262 C   0  0  0  0  0  0  0  0  0  0  0  0
    7.0822  -13.4546   22.9024 C   0  0  0  0  0  0  0  0  0  0  0  0
    7.7535  -12.3430   22.4553 C   0  0  0  0  0  0  0  0  0  0  0  0
    8.1474  -12.2436   21.1414 C   0  0  0  0  0  0  0  0  0  0  0  0
    7.8595  -13.2718   20.2846 C   0  0  0  0  0  0  0  0  0  0  0  0
    8.1048  -16.9503   21.3332 C   0  0  0  0  0  0  0  0  0  0  0  0
    7.1353  -17.5314   21.8749 O   0  0  0  0  0  0  0  0  0  0  0  0
    9.2911  -16.7204   22.0629 N   0  0  0  0  0  0  0  0  0  0  0  0
    9.5937  -17.1874   23.3898 C   0  0  1  0  0  0  0  0  0  0  0  0
   10.4323  -18.4516   23.4506 C   0  0  0  0  0  0  0  0  0  0  0  0
   11.8230  -18.1927   23.0007 C   0  0  0  0  0  0  0  0  0  0  0  0
   12.6630  -19.4311   23.0292 C   0  0  0  0  0  0  0  0  0  0  0  0
   13.8692  -19.3772   22.6883 O   0  0  0  0  0  0  0  0  0  0  0  0
    9.9542  -16.1619   24.3532 C   0  0  0  0  0  0  0  0  0  0  0  0
   11.0163  -15.4837   24.1320 O   0  0  0  0  0  0  0  0  0  0  0  0
   12.1152  -20.6315   23.4290 O   0  0  0  0  0  0  0  0  0  0  0  0
    7.1574  -12.1229   25.5399 C   0  0  0  0  0  0  0  0  0  0  0  0
    8.2833  -13.1016   25.2770 C   0  0  0  0  0  0  0  0  0  0  0  0
    8.6808  -13.6972   26.6112 C   0  0  2  0  0  0  0  0  0  0  0  0
    9.1175  -12.6122   27.5427 C   0  0  0  0  0  0  0  0  0  0  0  0
    9.6954  -14.8048   26.4597 C   0  0  2  0  0  0  0  0  0  0  0  0
    9.2495  -15.8246   25.5275 N   0  0  0  0  0  0  0  0  0  0  0  0
    9.8465  -15.4467   27.7897 C   0  0  0  0  0  0  0  0  0  0  0  0
    9.1157  -16.4066   28.0780 O   0  0  0  0  0  0  0  0  0  0  0  0
   10.7765  -15.0075   28.7162 O   0  0  0  0  0  0  0  0  0  0  0  0
  2  1  1  6
  2 10  1  0
  3  2  1  0
  4  3  1  0
  5  4  2  0
  6  5  1  0
  7  8  1  0
  7  6  2  0
  8  9  2  0
  9  4  1  0
 10 11  2  0
 12 10  1  0
 12 13  1  0
 13 14  1  6
 15 14  1  0
 16 20  1  0
 16 15  1  0
 17 16  2  0
 18 26  1  0
 18 13  1  0
 19 18  2  0
 21 22  1  0
 22 23  1  0
 23 25  1  0
 23 24  1  1
 25 27  1  0
 25 26  1  6
 27 29  1  0
 28 27  2  0
M  END
$$$$
