FEI.pdb
     RDKit          3D

 29 29  0  0  1  0  0  0  0  0999 V2000
    6.0846  -16.3928   21.6383 N   0  0  0  0  0  0  0  0  0  0  0  0
    7.4901  -16.0868   21.8032 C   0  0  1  0  0  0  0  0  0  0  0  0
    7.6325  -14.6143   22.0621 C   0  0  0  0  0  0  0  0  0  0  0  0
    7.7089  -13.9267   20.7570 C   0  0  0  0  0  0  0  0  0  0  0  0
    6.8318  -12.9186   20.4669 C   0  0  0  0  0  0  0  0  0  0  0  0
    6.9292  -12.2900   19.2286 C   0  0  0  0  0  0  0  0  0  0  0  0
    7.8887  -12.6829   18.3281 C   0  0  0  0  0  0  0  0  0  0  0  0
    8.7636  -13.6986   18.6349 C   0  0  0  0  0  0  0  0  0  0  0  0
    8.6630  -14.3130   19.8541 C   0  0  0  0  0  0  0  0  0  0  0  0
    8.0039  -16.8668   23.0012 C   0  0  0  0  0  0  0  0  0  0  0  0
    7.2580  -17.0252   23.9959 O   0  0  0  0  0  0  0  0  0  0  0  0
    9.3072  -17.4094   22.9989 N   0  0  0  0  0  0  0  0  0  0  0  0
   10.1071  -17.7409   24.1480 C   0  0  1  0  0  0  0  0  0  0  0  0
   11.2679  -18.6803   23.8736 C   0  0  0  0  0  0  0  0  0  0  0  0
   11.9565  -19.0611   25.1324 C   0  0  0  0  0  0  0  0  0  0  0  0
   13.0936  -20.0032   24.8886 C   0  0  0  0  0  0  0  0  0  0  0  0
   14.1197  -19.6034   24.2875 O   0  0  0  0  0  0  0  0  0  0  0  0
   10.4041  -16.6413   25.0492 C   0  0  0  0  0  0  0  0  0  0  0  0
   11.1121  -15.6759   24.5981 O   0  0  0  0  0  0  0  0  0  0  0  0
   13.0170  -21.3096   25.3226 O   0  0  0  0  0  0  0  0  0  0  0  0
    7.6022  -12.9538   26.5813 C   0  0  0  0  0  0  0  0  0  0  0  0
    8.7980  -13.8122   26.2242 C   0  0  0  0  0  0  0  0  0  0  0  0
    9.2958  -14.4444   27.5070 C   0  0  2  0  0  0  0  0  0  0  0  0
    9.6515  -13.3793   28.4942 C   0  0  0  0  0  0  0  0  0  0  0  0
   10.4107  -15.4316   27.2589 C   0  0  2  0  0  0  0  0  0  0  0  0
    9.9902  -16.5175   26.3919 N   0  0  0  0  0  0  0  0  0  0  0  0
   10.7760  -16.0203   28.5719 C   0  0  0  0  0  0  0  0  0  0  0  0
   11.3656  -15.3126   29.4025 O   0  0  0  0  0  0  0  0  0  0  0  0
   10.4790  -17.3327   28.8967 O   0  0  0  0  0  0  0  0  0  0  0  0
  2  1  1  1
  2 10  1  0
  3  2  1  0
  4  3  1  0
  5  4  2  0
  6  5  1  0
  7  8  1  0
  7  6  2  0
  8  9  2  0
  9  4  1  0
 10 11  2  0
 12 10  1  0
 12 13  1  0
 13 14  1  6
 15 14  1  0
 16 20  1  0
 16 15  1  0
 17 16  2  0
 18 26  1  0
 18 13  1  0
 19 18  2  0
 21 22  1  0
 22 23  1  0
 23 25  1  0
 23 24  1  1
 25 27  1  0
 25 26  1  6
 27 29  1  0
 28 27  2  0
M  END
$$$$
