FEI.pdb
     RDKit          3D

 29 29  0  0  1  0  0  0  0  0999 V2000
    5.8468  -18.0262   23.5429 N   0  0  0  0  0  0  0  0  0  0  0  0
    6.4996  -16.7509   23.7516 C   0  0  1  0  0  0  0  0  0  0  0  0
    5.7497  -15.9970   24.8123 C   0  0  0  0  0  0  0  0  0  0  0  0
    6.2803  -14.6191   24.8543 C   0  0  0  0  0  0  0  0  0  0  0  0
    7.0683  -14.1623   23.8343 C   0  0  0  0  0  0  0  0  0  0  0  0
    7.5531  -12.8591   23.9028 C   0  0  0  0  0  0  0  0  0  0  0  0
    7.2397  -12.0610   24.9755 C   0  0  0  0  0  0  0  0  0  0  0  0
    6.4459  -12.5353   25.9935 C   0  0  0  0  0  0  0  0  0  0  0  0
    5.9721  -13.8175   25.9206 C   0  0  0  0  0  0  0  0  0  0  0  0
    7.9179  -17.0202   24.2244 C   0  0  0  0  0  0  0  0  0  0  0  0
    8.0992  -17.6373   25.3001 O   0  0  0  0  0  0  0  0  0  0  0  0
    9.0233  -16.5820   23.4636 N   0  0  0  0  0  0  0  0  0  0  0  0
   10.4102  -16.8804   23.7036 C   0  0  1  0  0  0  0  0  0  0  0  0
   11.3176  -16.7341   22.4951 C   0  0  0  0  0  0  0  0  0  0  0  0
   12.7342  -16.9926   22.8558 C   0  0  0  0  0  0  0  0  0  0  0  0
   13.6497  -16.8444   21.6811 C   0  0  0  0  0  0  0  0  0  0  0  0
   14.8900  -16.9501   21.8370 O   0  0  0  0  0  0  0  0  0  0  0  0
   10.9582  -16.3752   24.9503 C   0  0  0  0  0  0  0  0  0  0  0  0
   11.6915  -15.3281   24.8978 O   0  0  0  0  0  0  0  0  0  0  0  0
   13.1340  -16.5919   20.4276 O   0  0  0  0  0  0  0  0  0  0  0  0
    8.8103  -13.5234   28.1138 C   0  0  0  0  0  0  0  0  0  0  0  0
    9.9865  -14.1825   27.4236 C   0  0  0  0  0  0  0  0  0  0  0  0
   10.2697  -15.4767   28.1569 C   0  0  2  0  0  0  0  0  0  0  0  0
   10.6166  -15.1881   29.5824 C   0  0  0  0  0  0  0  0  0  0  0  0
   11.3005  -16.3195   27.4455 C   0  0  2  0  0  0  0  0  0  0  0  0
   10.7677  -16.9216   26.2365 N   0  0  0  0  0  0  0  0  0  0  0  0
   11.6792  -17.4203   28.3666 C   0  0  0  0  0  0  0  0  0  0  0  0
   12.4217  -17.1684   29.3278 O   0  0  0  0  0  0  0  0  0  0  0  0
   11.2298  -18.7170   28.1859 O   0  0  0  0  0  0  0  0  0  0  0  0
  2  1  1  1
  2 10  1  0
  3  2  1  0
  4  3  1  0
  5  4  2  0
  6  5  1  0
  7  8  1  0
  7  6  2  0
  8  9  2  0
  9  4  1  0
 10 11  2  0
 12 10  1  0
 12 13  1  0
 13 14  1  6
 15 14  1  0
 16 20  1  0
 16 15  1  0
 17 16  2  0
 18 26  1  0
 18 13  1  0
 19 18  2  0
 21 22  1  0
 22 23  1  0
 23 25  1  0
 23 24  1  1
 25 27  1  0
 25 26  1  6
 27 29  1  0
 28 27  2  0
M  END
$$$$
