FEI.pdb
     RDKit          3D

 29 29  0  0  1  0  0  0  0  0999 V2000
    5.6675  -17.7346   20.7499 N   0  0  0  0  0  0  0  0  0  0  0  0
    6.6426  -16.6644   20.7588 C   0  0  1  0  0  0  0  0  0  0  0  0
    5.9164  -15.3540   20.6535 C   0  0  0  0  0  0  0  0  0  0  0  0
    6.9248  -14.2826   20.5235 C   0  0  0  0  0  0  0  0  0  0  0  0
    7.4772  -14.0129   19.3021 C   0  0  0  0  0  0  0  0  0  0  0  0
    8.4249  -12.9971   19.2119 C   0  0  0  0  0  0  0  0  0  0  0  0
    8.7880  -12.2898   20.3317 C   0  0  0  0  0  0  0  0  0  0  0  0
    8.2232  -12.5732   21.5532 C   0  0  0  0  0  0  0  0  0  0  0  0
    7.2918  -13.5731   21.6356 C   0  0  0  0  0  0  0  0  0  0  0  0
    7.3955  -16.7250   22.0768 C   0  0  0  0  0  0  0  0  0  0  0  0
    6.7570  -16.9026   23.1406 O   0  0  0  0  0  0  0  0  0  0  0  0
    8.7997  -16.5833   22.1082 N   0  0  0  0  0  0  0  0  0  0  0  0
    9.6736  -16.8793   23.2123 C   0  0  1  0  0  0  0  0  0  0  0  0
   10.9925  -17.5282   22.8320 C   0  0  0  0  0  0  0  0  0  0  0  0
   11.7921  -17.8604   24.0377 C   0  0  0  0  0  0  0  0  0  0  0  0
   13.1044  -18.4887   23.6868 C   0  0  0  0  0  0  0  0  0  0  0  0
   13.9165  -17.8741   22.9543 O   0  0  0  0  0  0  0  0  0  0  0  0
    9.7639  -15.8551   24.2382 C   0  0  0  0  0  0  0  0  0  0  0  0
   10.4014  -14.7827   23.9549 O   0  0  0  0  0  0  0  0  0  0  0  0
   13.4237  -19.7413   24.1662 O   0  0  0  0  0  0  0  0  0  0  0  0
    6.1346  -13.2215   26.9535 C   0  0  0  0  0  0  0  0  0  0  0  0
    7.3582  -13.7065   26.2038 C   0  0  0  0  0  0  0  0  0  0  0  0
    8.2570  -14.3948   27.2095 C   0  0  2  0  0  0  0  0  0  0  0  0
    8.5225  -13.4814   28.3631 C   0  0  0  0  0  0  0  0  0  0  0  0
    9.5124  -14.9387   26.5712 C   0  0  2  0  0  0  0  0  0  0  0  0
    9.2161  -15.9131   25.5366 N   0  0  0  0  0  0  0  0  0  0  0  0
   10.2808  -15.6324   27.6353 C   0  0  0  0  0  0  0  0  0  0  0  0
   10.0631  -16.8356   27.8437 O   0  0  0  0  0  0  0  0  0  0  0  0
   11.2311  -14.9785   28.4004 O   0  0  0  0  0  0  0  0  0  0  0  0
  2  1  1  1
  2 10  1  0
  3  2  1  0
  4  3  1  0
  5  4  2  0
  6  5  1  0
  7  8  1  0
  7  6  2  0
  8  9  2  0
  9  4  1  0
 10 11  2  0
 12 10  1  0
 12 13  1  0
 13 14  1  6
 15 14  1  0
 16 20  1  0
 16 15  1  0
 17 16  2  0
 18 26  1  0
 18 13  1  0
 19 18  2  0
 21 22  1  0
 22 23  1  0
 23 25  1  0
 23 24  1  1
 25 27  1  0
 25 26  1  6
 27 29  1  0
 28 27  2  0
M  END
$$$$
