FEI.pdb
     RDKit          3D

 29 29  0  0  1  0  0  0  0  0999 V2000
    7.1593  -18.2750   20.9086 N   0  0  0  0  0  0  0  0  0  0  0  0
    7.6358  -16.9455   21.2272 C   0  0  1  0  0  0  0  0  0  0  0  0
    6.4598  -16.0951   21.6138 C   0  0  0  0  0  0  0  0  0  0  0  0
    6.9275  -14.6996   21.7394 C   0  0  0  0  0  0  0  0  0  0  0  0
    6.9135  -14.0849   22.9608 C   0  0  0  0  0  0  0  0  0  0  0  0
    7.3605  -12.7692   23.0468 C   0  0  0  0  0  0  0  0  0  0  0  0
    7.8028  -12.1151   21.9231 C   0  0  0  0  0  0  0  0  0  0  0  0
    7.8105  -12.7473   20.7018 C   0  0  0  0  0  0  0  0  0  0  0  0
    7.3698  -14.0410   20.6234 C   0  0  0  0  0  0  0  0  0  0  0  0
    8.5917  -17.0575   22.4026 C   0  0  0  0  0  0  0  0  0  0  0  0
    8.1895  -17.5685   23.4739 O   0  0  0  0  0  0  0  0  0  0  0  0
    9.9201  -16.5923   22.2940 N   0  0  0  0  0  0  0  0  0  0  0  0
   10.9601  -16.7094   23.2814 C   0  0  1  0  0  0  0  0  0  0  0  0
   12.3627  -16.8667   22.7219 C   0  0  0  0  0  0  0  0  0  0  0  0
   12.6052  -18.2600   22.2709 C   0  0  0  0  0  0  0  0  0  0  0  0
   13.8285  -18.3694   21.4155 C   0  0  0  0  0  0  0  0  0  0  0  0
   14.4519  -19.4561   21.3509 O   0  0  0  0  0  0  0  0  0  0  0  0
   10.8486  -15.8201   24.4243 C   0  0  0  0  0  0  0  0  0  0  0  0
   11.4727  -14.7043   24.3740 O   0  0  0  0  0  0  0  0  0  0  0  0
   14.2726  -17.2790   20.6980 O   0  0  0  0  0  0  0  0  0  0  0  0
    7.3287  -12.9167   26.4877 C   0  0  0  0  0  0  0  0  0  0  0  0
    8.6290  -13.5659   26.0607 C   0  0  0  0  0  0  0  0  0  0  0  0
    9.0539  -14.4963   27.1772 C   0  0  2  0  0  0  0  0  0  0  0  0
    9.1793  -13.7321   28.4562 C   0  0  0  0  0  0  0  0  0  0  0  0
   10.2929  -15.2822   26.8218 C   0  0  2  0  0  0  0  0  0  0  0  0
   10.1146  -16.0547   25.6056 N   0  0  0  0  0  0  0  0  0  0  0  0
   10.5389  -16.2390   27.9300 C   0  0  0  0  0  0  0  0  0  0  0  0
   11.0665  -15.8244   28.9732 O   0  0  0  0  0  0  0  0  0  0  0  0
   10.1981  -17.5772   27.8345 O   0  0  0  0  0  0  0  0  0  0  0  0
  2  1  1  1
  2 10  1  0
  3  2  1  0
  4  3  1  0
  5  4  2  0
  6  5  1  0
  7  8  1  0
  7  6  2  0
  8  9  2  0
  9  4  1  0
 10 11  2  0
 12 10  1  0
 12 13  1  0
 13 14  1  6
 15 14  1  0
 16 20  1  0
 16 15  1  0
 17 16  2  0
 18 26  1  0
 18 13  1  0
 19 18  2  0
 21 22  1  0
 22 23  1  0
 23 25  1  0
 23 24  1  1
 25 27  1  0
 25 26  1  6
 27 29  1  0
 28 27  2  0
M  END
$$$$
