FEI.pdb
     RDKit          3D

 29 29  0  0  1  0  0  0  0  0999 V2000
    5.9794  -18.4596   23.0493 N   0  0  0  0  0  0  0  0  0  0  0  0
    6.6348  -17.1881   23.2728 C   0  0  1  0  0  0  0  0  0  0  0  0
    5.8838  -16.4432   24.3390 C   0  0  0  0  0  0  0  0  0  0  0  0
    6.5124  -15.1159   24.4972 C   0  0  0  0  0  0  0  0  0  0  0  0
    7.0815  -14.4997   23.4173 C   0  0  0  0  0  0  0  0  0  0  0  0
    7.6660  -13.2492   23.5985 C   0  0  0  0  0  0  0  0  0  0  0  0
    7.6644  -12.6591   24.8385 C   0  0  0  0  0  0  0  0  0  0  0  0
    7.0878  -13.2919   25.9149 C   0  0  0  0  0  0  0  0  0  0  0  0
    6.5146  -14.5213   25.7306 C   0  0  0  0  0  0  0  0  0  0  0  0
    8.0511  -17.4658   23.7469 C   0  0  0  0  0  0  0  0  0  0  0  0
    8.2316  -18.2188   24.7324 O   0  0  0  0  0  0  0  0  0  0  0  0
    9.1555  -16.8842   23.0874 N   0  0  0  0  0  0  0  0  0  0  0  0
   10.5470  -17.0756   23.3994 C   0  0  1  0  0  0  0  0  0  0  0  0
   11.4938  -16.9466   22.2195 C   0  0  0  0  0  0  0  0  0  0  0  0
   11.1852  -17.9541   21.1739 C   0  0  0  0  0  0  0  0  0  0  0  0
   12.0793  -17.8188   19.9812 C   0  0  0  0  0  0  0  0  0  0  0  0
   12.9484  -18.6929   19.7481 O   0  0  0  0  0  0  0  0  0  0  0  0
   11.0088  -16.4583   24.6304 C   0  0  0  0  0  0  0  0  0  0  0  0
   11.5811  -15.3172   24.5464 O   0  0  0  0  0  0  0  0  0  0  0  0
   11.9506  -16.7359   19.1376 O   0  0  0  0  0  0  0  0  0  0  0  0
    9.3233  -13.6324   29.1265 C   0  0  0  0  0  0  0  0  0  0  0  0
   10.4869  -14.5521   28.8191 C   0  0  0  0  0  0  0  0  0  0  0  0
   10.1607  -15.2725   27.5278 C   0  0  2  0  0  0  0  0  0  0  0  0
    8.8056  -15.8972   27.6223 C   0  0  0  0  0  0  0  0  0  0  0  0
   11.2449  -16.2444   27.1293 C   0  0  2  0  0  0  0  0  0  0  0  0
   10.8937  -16.9877   25.9327 N   0  0  0  0  0  0  0  0  0  0  0  0
   11.3890  -17.2204   28.2386 C   0  0  0  0  0  0  0  0  0  0  0  0
   10.7751  -18.2963   28.1734 O   0  0  0  0  0  0  0  0  0  0  0  0
   12.1861  -16.9669   29.3415 O   0  0  0  0  0  0  0  0  0  0  0  0
  2  1  1  1
  2 10  1  0
  3  2  1  0
  4  3  1  0
  5  4  2  0
  6  5  1  0
  7  8  1  0
  7  6  2  0
  8  9  2  0
  9  4  1  0
 10 11  2  0
 12 10  1  0
 12 13  1  0
 13 14  1  6
 15 14  1  0
 16 20  1  0
 16 15  1  0
 17 16  2  0
 18 26  1  0
 18 13  1  0
 19 18  2  0
 21 22  1  0
 22 23  1  0
 23 25  1  0
 23 24  1  1
 25 27  1  0
 25 26  1  6
 27 29  1  0
 28 27  2  0
M  END
$$$$
