YSR.pdb
     RDKit          3D

 30 30  0  0  1  0  0  0  0  0999 V2000
    7.0795  -12.6443   17.3564 O   0  0  0  0  0  0  0  0  0  0  0  0
    7.4908  -13.3926   18.4415 C   0  0  0  0  0  0  0  0  0  0  0  0
    8.8221  -13.4092   18.8482 C   0  0  0  0  0  0  0  0  0  0  0  0
    9.2241  -14.1588   19.9324 C   0  0  0  0  0  0  0  0  0  0  0  0
    8.2746  -14.9147   20.6335 C   0  0  0  0  0  0  0  0  0  0  0  0
    8.7500  -15.7127   21.7766 C   0  0  0  0  0  0  0  0  0  0  0  0
   10.1991  -15.4173   22.0716 C   0  0  2  0  0  0  0  0  0  0  0  0
   10.9614  -16.0947   21.0230 N   0  0  0  0  0  0  0  0  0  0  0  0
   10.5467  -15.9721   23.3989 C   0  0  0  0  0  0  0  0  0  0  0  0
   11.2767  -16.9737   23.4783 O   0  0  0  0  0  0  0  0  0  0  0  0
    6.9594  -14.8994   20.2325 C   0  0  0  0  0  0  0  0  0  0  0  0
    6.5646  -14.1452   19.1449 C   0  0  0  0  0  0  0  0  0  0  0  0
    8.4050  -15.0448   26.7252 O   0  0  0  0  0  0  0  0  0  0  0  0
    9.7620  -15.0234   26.9820 C   0  0  0  0  0  0  0  0  0  0  0  0
   10.4630  -15.8280   25.8986 C   0  0  2  0  0  0  0  0  0  0  0  0
   10.0502  -15.3640   24.5817 N   0  0  0  0  0  0  0  0  0  0  0  0
   10.1227  -17.2433   26.0313 C   0  0  0  0  0  0  0  0  0  0  0  0
    9.5395  -17.8225   25.0512 O   0  0  0  0  0  0  0  0  0  0  0  0
   12.5208  -18.5935   21.1181 N   0  0  0  0  0  0  0  0  0  0  0  0
   11.8103  -19.8582   21.2169 C   0  0  0  0  0  0  0  0  0  0  0  0
   11.0716  -20.2566   20.2607 N   0  0  0  0  0  0  0  0  0  0  0  0
   11.9344  -20.6592   22.3714 N   0  0  0  0  0  0  0  0  0  0  0  0
   12.3073  -20.2242   23.6500 C   0  0  0  0  0  0  0  0  0  0  0  0
   11.3063  -20.0690   24.7267 C   0  0  0  0  0  0  0  0  0  0  0  0
   11.8751  -19.5960   26.0359 C   0  0  0  0  0  0  0  0  0  0  0  0
   10.7322  -19.4493   27.0195 C   0  0  2  0  0  0  0  0  0  0  0  0
   10.3817  -18.0592   27.1673 N   0  0  0  0  0  0  0  0  0  0  0  0
   11.0473  -20.0912   28.3286 C   0  0  0  0  0  0  0  0  0  0  0  0
   11.9801  -19.6070   29.0068 O   0  0  0  0  0  0  0  0  0  0  0  0
   10.3722  -21.1829   28.8315 O   0  0  0  0  0  0  0  0  0  0  0  0
  2  1  1  0
  3  2  2  0
  4  3  1  0
  5 11  1  0
  5  4  2  0
  6  5  1  0
  7  6  1  0
  7  8  1  6
  9  7  1  0
  9 10  2  0
 11 12  2  0
 12  2  1  0
 13 14  1  0
 15 14  1  1
 15 16  1  0
 16  9  1  0
 17 15  1  0
 18 17  2  0
 19 20  1  0
 20 22  1  0
 21 20  2  0
 22 23  1  0
 23 24  1  0
 24 25  1  0
 26 25  1  6
 26 28  1  0
 26 27  1  0
 27 17  1  0
 28 30  1  0
 29 28  2  0
M  END
$$$$
