YSR.pdb
     RDKit          3D

 30 30  0  0  1  0  0  0  0  0999 V2000
    6.9328  -12.5757   16.4557 O   0  0  0  0  0  0  0  0  0  0  0  0
    7.2585  -13.1691   17.6592 C   0  0  0  0  0  0  0  0  0  0  0  0
    8.4551  -13.8606   17.8262 C   0  0  0  0  0  0  0  0  0  0  0  0
    8.7725  -14.4499   19.0309 C   0  0  0  0  0  0  0  0  0  0  0  0
    7.8738  -14.3489   20.1016 C   0  0  0  0  0  0  0  0  0  0  0  0
    8.2460  -15.0059   21.3662 C   0  0  0  0  0  0  0  0  0  0  0  0
    8.1938  -16.5066   21.2270 C   0  0  2  0  0  0  0  0  0  0  0  0
    6.7730  -16.8474   21.1578 N   0  0  0  0  0  0  0  0  0  0  0  0
    8.8129  -17.1261   22.4200 C   0  0  0  0  0  0  0  0  0  0  0  0
    8.1646  -17.2185   23.4753 O   0  0  0  0  0  0  0  0  0  0  0  0
    6.6914  -13.6664   19.9376 C   0  0  0  0  0  0  0  0  0  0  0  0
    6.3808  -13.0784   18.7272 C   0  0  0  0  0  0  0  0  0  0  0  0
   12.3205  -19.1171   21.9713 O   0  0  0  0  0  0  0  0  0  0  0  0
   11.5522  -19.4854   23.0586 C   0  0  0  0  0  0  0  0  0  0  0  0
   10.7560  -18.2712   23.5106 C   0  0  2  0  0  0  0  0  0  0  0  0
   10.1440  -17.6162   22.3632 N   0  0  0  0  0  0  0  0  0  0  0  0
   11.6384  -17.3208   24.1849 C   0  0  0  0  0  0  0  0  0  0  0  0
   12.0966  -16.3342   23.5118 O   0  0  0  0  0  0  0  0  0  0  0  0
   11.6497  -20.2694   28.6255 N   0  0  0  0  0  0  0  0  0  0  0  0
   12.2042  -20.1158   29.9608 C   0  0  0  0  0  0  0  0  0  0  0  0
   12.2432  -21.1065   30.7582 N   0  0  0  0  0  0  0  0  0  0  0  0
   12.7083  -18.8689   30.3861 N   0  0  0  0  0  0  0  0  0  0  0  0
   12.6678  -17.6663   29.6684 C   0  0  0  0  0  0  0  0  0  0  0  0
   12.8717  -17.6426   28.2044 C   0  0  0  0  0  0  0  0  0  0  0  0
   12.7468  -16.2782   27.5849 C   0  0  0  0  0  0  0  0  0  0  0  0
   12.9653  -16.4177   26.0923 C   0  0  2  0  0  0  0  0  0  0  0  0
   12.0469  -17.3848   25.5458 N   0  0  0  0  0  0  0  0  0  0  0  0
   14.3843  -16.7479   25.7726 C   0  0  0  0  0  0  0  0  0  0  0  0
   14.6532  -17.9292   25.4616 O   0  0  0  0  0  0  0  0  0  0  0  0
   15.4121  -15.8295   25.8002 O   0  0  0  0  0  0  0  0  0  0  0  0
  2  1  1  0
  3  2  2  0
  4  3  1  0
  5 11  1  0
  5  4  2  0
  6  5  1  0
  7  6  1  0
  7  8  1  1
  9  7  1  0
  9 10  2  0
 11 12  2  0
 12  2  1  0
 13 14  1  0
 15 14  1  6
 15 16  1  0
 16  9  1  0
 17 15  1  0
 18 17  2  0
 19 20  1  0
 20 22  1  0
 21 20  2  0
 22 23  1  0
 23 24  1  0
 24 25  1  0
 26 25  1  1
 26 28  1  0
 26 27  1  0
 27 17  1  0
 28 30  1  0
 29 28  2  0
M  END
$$$$
