YSR.pdb
     RDKit          3D

 30 30  0  0  1  0  0  0  0  0999 V2000
    7.8759  -14.7669   12.7164 O   0  0  0  0  0  0  0  0  0  0  0  0
    8.2535  -14.8101   14.0439 C   0  0  0  0  0  0  0  0  0  0  0  0
    7.7897  -13.8706   14.9605 C   0  0  0  0  0  0  0  0  0  0  0  0
    8.1715  -13.9211   16.2838 C   0  0  0  0  0  0  0  0  0  0  0  0
    9.0401  -14.9357   16.7088 C   0  0  0  0  0  0  0  0  0  0  0  0
    9.4339  -14.9435   18.1279 C   0  0  0  0  0  0  0  0  0  0  0  0
    8.6327  -13.9353   18.9128 C   0  0  2  0  0  0  0  0  0  0  0  0
    9.1142  -12.6242   18.4784 N   0  0  0  0  0  0  0  0  0  0  0  0
    8.8947  -14.1259   20.3569 C   0  0  0  0  0  0  0  0  0  0  0  0
    9.9103  -13.6296   20.8716 O   0  0  0  0  0  0  0  0  0  0  0  0
    9.4990  -15.8640   15.8041 C   0  0  0  0  0  0  0  0  0  0  0  0
    9.1115  -15.8066   14.4797 C   0  0  0  0  0  0  0  0  0  0  0  0
    6.5075  -16.7120   22.5684 O   0  0  0  0  0  0  0  0  0  0  0  0
    7.0287  -15.6395   23.2655 C   0  0  0  0  0  0  0  0  0  0  0  0
    8.2870  -15.1741   22.5496 C   0  0  2  0  0  0  0  0  0  0  0  0
    7.9900  -14.8724   21.1565 N   0  0  0  0  0  0  0  0  0  0  0  0
    9.3052  -16.2215   22.6018 C   0  0  0  0  0  0  0  0  0  0  0  0
    9.8884  -16.5568   21.5138 O   0  0  0  0  0  0  0  0  0  0  0  0
   12.0093  -13.8070   19.6483 N   0  0  0  0  0  0  0  0  0  0  0  0
   13.3178  -14.4272   19.5167 C   0  0  0  0  0  0  0  0  0  0  0  0
   13.9094  -14.4465   18.3905 N   0  0  0  0  0  0  0  0  0  0  0  0
   13.9478  -15.0107   20.6359 N   0  0  0  0  0  0  0  0  0  0  0  0
   13.4192  -15.1120   21.9294 C   0  0  0  0  0  0  0  0  0  0  0  0
   12.4264  -16.1531   22.2702 C   0  0  0  0  0  0  0  0  0  0  0  0
   12.0276  -16.1761   23.7198 C   0  0  0  0  0  0  0  0  0  0  0  0
   11.0892  -17.3466   23.9308 C   0  0  2  0  0  0  0  0  0  0  0  0
    9.7220  -16.9204   23.7684 N   0  0  0  0  0  0  0  0  0  0  0  0
   11.3192  -18.0053   25.2492 C   0  0  0  0  0  0  0  0  0  0  0  0
   10.7965  -17.4865   26.2602 O   0  0  0  0  0  0  0  0  0  0  0  0
   12.0718  -19.1482   25.4165 O   0  0  0  0  0  0  0  0  0  0  0  0
  2  1  1  0
  3  2  2  0
  4  3  1  0
  5 11  1  0
  5  4  2  0
  6  5  1  0
  7  6  1  0
  7  8  1  6
  9  7  1  0
  9 10  2  0
 11 12  2  0
 12  2  1  0
 13 14  1  0
 15 14  1  1
 15 16  1  0
 16  9  1  0
 17 15  1  0
 18 17  2  0
 19 20  1  0
 20 22  1  0
 21 20  2  0
 22 23  1  0
 23 24  1  0
 24 25  1  0
 26 25  1  1
 26 28  1  0
 26 27  1  0
 27 17  1  0
 28 30  1  0
 29 28  2  0
M  END
$$$$
