YSR.pdb
     RDKit          3D

 30 30  0  0  1  0  0  0  0  0999 V2000
    4.6351  -10.3086   26.7768 O   0  0  0  0  0  0  0  0  0  0  0  0
    5.5052  -11.3236   26.4317 C   0  0  0  0  0  0  0  0  0  0  0  0
    5.7801  -11.6215   25.0999 C   0  0  0  0  0  0  0  0  0  0  0  0
    6.6501  -12.6362   24.7642 C   0  0  0  0  0  0  0  0  0  0  0  0
    7.2652  -13.3772   25.7825 C   0  0  0  0  0  0  0  0  0  0  0  0
    8.1762  -14.4619   25.3790 C   0  0  0  0  0  0  0  0  0  0  0  0
    7.4189  -15.5721   24.6946 C   0  0  2  0  0  0  0  0  0  0  0  0
    6.6870  -16.2632   25.7558 N   0  0  0  0  0  0  0  0  0  0  0  0
    8.3832  -16.4928   24.0524 C   0  0  0  0  0  0  0  0  0  0  0  0
    8.8046  -17.4804   24.6766 O   0  0  0  0  0  0  0  0  0  0  0  0
    6.9941  -13.0841   27.0983 C   0  0  0  0  0  0  0  0  0  0  0  0
    6.1212  -12.0653   27.4264 C   0  0  0  0  0  0  0  0  0  0  0  0
   10.4327  -15.4315   20.5769 O   0  0  0  0  0  0  0  0  0  0  0  0
    9.9831  -16.7365   20.6300 C   0  0  0  0  0  0  0  0  0  0  0  0
    9.8104  -17.1202   22.0912 C   0  0  2  0  0  0  0  0  0  0  0  0
    8.8279  -16.2529   22.7257 N   0  0  0  0  0  0  0  0  0  0  0  0
   11.0850  -16.9876   22.7943 C   0  0  0  0  0  0  0  0  0  0  0  0
   11.4021  -15.8419   23.2665 O   0  0  0  0  0  0  0  0  0  0  0  0
   11.7173  -21.9654   28.7910 N   0  0  0  0  0  0  0  0  0  0  0  0
   11.8314  -20.5601   29.1462 C   0  0  0  0  0  0  0  0  0  0  0  0
   11.8273  -20.2037   30.3676 N   0  0  0  0  0  0  0  0  0  0  0  0
   11.9516  -19.5768   28.1420 N   0  0  0  0  0  0  0  0  0  0  0  0
   12.6782  -19.6898   26.9494 C   0  0  0  0  0  0  0  0  0  0  0  0
   12.6686  -18.6069   25.9430 C   0  0  0  0  0  0  0  0  0  0  0  0
   13.5097  -18.8849   24.7279 C   0  0  0  0  0  0  0  0  0  0  0  0
   13.2590  -17.7819   23.7202 C   0  0  2  0  0  0  0  0  0  0  0  0
   12.0288  -18.0293   23.0111 N   0  0  0  0  0  0  0  0  0  0  0  0
   14.4157  -17.6094   22.7943 C   0  0  0  0  0  0  0  0  0  0  0  0
   15.4835  -17.1651   23.2704 O   0  0  0  0  0  0  0  0  0  0  0  0
   14.3752  -17.9103   21.4495 O   0  0  0  0  0  0  0  0  0  0  0  0
  2  1  1  0
  3  2  2  0
  4  3  1  0
  5 11  1  0
  5  4  2  0
  6  5  1  0
  7  6  1  0
  7  8  1  1
  9  7  1  0
  9 10  2  0
 11 12  2  0
 12  2  1  0
 13 14  1  0
 15 14  1  6
 15 16  1  0
 16  9  1  0
 17 15  1  0
 18 17  2  0
 19 20  1  0
 20 22  1  0
 21 20  2  0
 22 23  1  0
 23 24  1  0
 24 25  1  0
 26 25  1  1
 26 28  1  0
 26 27  1  0
 27 17  1  0
 28 30  1  0
 29 28  2  0
M  END
$$$$
