YSR.pdb
     RDKit          3D

 30 30  0  0  1  0  0  0  0  0999 V2000
    7.9369  -11.8161   18.4582 O   0  0  0  0  0  0  0  0  0  0  0  0
    8.1473  -12.7800   19.4242 C   0  0  0  0  0  0  0  0  0  0  0  0
    7.4525  -12.7614   20.6304 C   0  0  0  0  0  0  0  0  0  0  0  0
    7.6685  -13.7275   21.5892 C   0  0  0  0  0  0  0  0  0  0  0  0
    8.6030  -14.7424   21.3419 C   0  0  0  0  0  0  0  0  0  0  0  0
    8.8132  -15.7458   22.3994 C   0  0  0  0  0  0  0  0  0  0  0  0
    8.4070  -17.1185   21.9252 C   0  0  2  0  0  0  0  0  0  0  0  0
    6.9446  -17.1289   21.9527 N   0  0  0  0  0  0  0  0  0  0  0  0
    8.9453  -18.1330   22.8586 C   0  0  0  0  0  0  0  0  0  0  0  0
    8.2743  -18.4855   23.8424 O   0  0  0  0  0  0  0  0  0  0  0  0
    9.2900  -14.7615   20.1509 C   0  0  0  0  0  0  0  0  0  0  0  0
    9.0676  -13.7898   19.1950 C   0  0  0  0  0  0  0  0  0  0  0  0
   12.2932  -20.3055   21.7610 O   0  0  0  0  0  0  0  0  0  0  0  0
   11.2934  -20.8972   22.5081 C   0  0  0  0  0  0  0  0  0  0  0  0
   10.6922  -19.8388   23.4196 C   0  0  2  0  0  0  0  0  0  0  0  0
   10.2246  -18.7058   22.6338 N   0  0  0  0  0  0  0  0  0  0  0  0
   11.6984  -19.3730   24.3721 C   0  0  0  0  0  0  0  0  0  0  0  0
   12.2875  -18.2618   24.1387 O   0  0  0  0  0  0  0  0  0  0  0  0
   14.3269  -20.9521   32.9638 N   0  0  0  0  0  0  0  0  0  0  0  0
   13.2334  -21.1592   32.0281 C   0  0  0  0  0  0  0  0  0  0  0  0
   12.2795  -21.9492   32.3193 N   0  0  0  0  0  0  0  0  0  0  0  0
   13.2154  -20.4846   30.7894 N   0  0  0  0  0  0  0  0  0  0  0  0
   14.3104  -20.2722   29.9415 C   0  0  0  0  0  0  0  0  0  0  0  0
   14.1467  -19.5983   28.6359 C   0  0  0  0  0  0  0  0  0  0  0  0
   13.0235  -20.1413   27.7965 C   0  0  0  0  0  0  0  0  0  0  0  0
   13.0978  -19.4875   26.4319 C   0  0  2  0  0  0  0  0  0  0  0  0
   12.0961  -20.0471   25.5597 N   0  0  0  0  0  0  0  0  0  0  0  0
   14.4675  -19.5849   25.8491 C   0  0  0  0  0  0  0  0  0  0  0  0
   14.7189  -20.5610   25.1085 O   0  0  0  0  0  0  0  0  0  0  0  0
   15.4678  -18.6647   26.0793 O   0  0  0  0  0  0  0  0  0  0  0  0
  2  1  1  0
  3  2  2  0
  4  3  1  0
  5 11  1  0
  5  4  2  0
  6  5  1  0
  7  6  1  0
  7  8  1  1
  9  7  1  0
  9 10  2  0
 11 12  2  0
 12  2  1  0
 13 14  1  0
 15 14  1  6
 15 16  1  0
 16  9  1  0
 17 15  1  0
 18 17  2  0
 19 20  1  0
 20 22  1  0
 21 20  2  0
 22 23  1  0
 23 24  1  0
 24 25  1  0
 26 25  1  1
 26 28  1  0
 26 27  1  0
 27 17  1  0
 28 30  1  0
 29 28  2  0
M  END
$$$$
