YSR.pdb
     RDKit          3D

 30 30  0  0  1  0  0  0  0  0999 V2000
    6.1280  -10.2585   26.9722 O   0  0  0  0  0  0  0  0  0  0  0  0
    6.3659  -11.4073   26.2440 C   0  0  0  0  0  0  0  0  0  0  0  0
    6.3093  -12.6659   26.8361 C   0  0  0  0  0  0  0  0  0  0  0  0
    6.5480  -13.8074   26.1019 C   0  0  0  0  0  0  0  0  0  0  0  0
    6.8522  -13.6948   24.7383 C   0  0  0  0  0  0  0  0  0  0  0  0
    7.1147  -14.9389   23.9950 C   0  0  0  0  0  0  0  0  0  0  0  0
    7.5414  -16.0427   24.9299 C   0  0  2  0  0  0  0  0  0  0  0  0
    8.3547  -15.3958   25.9592 N   0  0  0  0  0  0  0  0  0  0  0  0
    8.3515  -17.0279   24.1793 C   0  0  0  0  0  0  0  0  0  0  0  0
    7.7892  -17.8800   23.4720 O   0  0  0  0  0  0  0  0  0  0  0  0
    6.9087  -12.4520   24.1525 C   0  0  0  0  0  0  0  0  0  0  0  0
    6.6679  -11.3128   24.8953 C   0  0  0  0  0  0  0  0  0  0  0  0
   11.5849  -16.2018   22.3244 O   0  0  0  0  0  0  0  0  0  0  0  0
   10.9288  -17.4051   22.1533 C   0  0  0  0  0  0  0  0  0  0  0  0
   10.5846  -17.9579   23.5275 C   0  0  2  0  0  0  0  0  0  0  0  0
    9.7684  -17.0026   24.2633 N   0  0  0  0  0  0  0  0  0  0  0  0
   11.8102  -18.2149   24.2815 C   0  0  0  0  0  0  0  0  0  0  0  0
   12.4232  -17.2202   24.8019 O   0  0  0  0  0  0  0  0  0  0  0  0
   11.3930  -22.3443   30.9309 N   0  0  0  0  0  0  0  0  0  0  0  0
   12.1407  -21.1003   30.8458 C   0  0  0  0  0  0  0  0  0  0  0  0
   12.5980  -20.5521   31.8990 N   0  0  0  0  0  0  0  0  0  0  0  0
   12.3711  -20.4891   29.5955 N   0  0  0  0  0  0  0  0  0  0  0  0
   12.0303  -21.0088   28.3398 C   0  0  0  0  0  0  0  0  0  0  0  0
   12.2472  -20.2265   27.1043 C   0  0  0  0  0  0  0  0  0  0  0  0
   13.5047  -20.5820   26.3604 C   0  0  0  0  0  0  0  0  0  0  0  0
   13.6541  -19.6176   25.2017 C   0  0  2  0  0  0  0  0  0  0  0  0
   12.4020  -19.4898   24.4994 N   0  0  0  0  0  0  0  0  0  0  0  0
   14.7686  -20.0166   24.2941 C   0  0  0  0  0  0  0  0  0  0  0  0
   14.5284  -20.8753   23.4169 O   0  0  0  0  0  0  0  0  0  0  0  0
   16.0429  -19.4954   24.3666 O   0  0  0  0  0  0  0  0  0  0  0  0
  2  1  1  0
  3  2  2  0
  4  3  1  0
  5 11  1  0
  5  4  2  0
  6  5  1  0
  7  6  1  0
  7  8  1  1
  9  7  1  0
  9 10  2  0
 11 12  2  0
 12  2  1  0
 13 14  1  0
 15 14  1  6
 15 16  1  0
 16  9  1  0
 17 15  1  0
 18 17  2  0
 19 20  1  0
 20 22  1  0
 21 20  2  0
 22 23  1  0
 23 24  1  0
 24 25  1  0
 26 25  1  1
 26 28  1  0
 26 27  1  0
 27 17  1  0
 28 30  1  0
 29 28  2  0
M  END
$$$$
