YSR.pdb
     RDKit          3D

 30 30  0  0  1  0  0  0  0  0999 V2000
    6.8256  -11.6582   18.4849 O   0  0  0  0  0  0  0  0  0  0  0  0
    7.3415  -12.7126   19.2122 C   0  0  0  0  0  0  0  0  0  0  0  0
    8.5531  -13.3060   18.8690 C   0  0  0  0  0  0  0  0  0  0  0  0
    9.0608  -14.3579   19.6004 C   0  0  0  0  0  0  0  0  0  0  0  0
    8.3429  -14.8343   20.7059 C   0  0  0  0  0  0  0  0  0  0  0  0
    8.9147  -15.9693   21.4503 C   0  0  0  0  0  0  0  0  0  0  0  0
    8.8630  -17.2318   20.6270 C   0  0  2  0  0  0  0  0  0  0  0  0
    7.4465  -17.5843   20.5336 N   0  0  0  0  0  0  0  0  0  0  0  0
    9.6125  -18.2985   21.3273 C   0  0  0  0  0  0  0  0  0  0  0  0
    9.1541  -18.7937   22.3700 O   0  0  0  0  0  0  0  0  0  0  0  0
    7.1459  -14.2491   21.0455 C   0  0  0  0  0  0  0  0  0  0  0  0
    6.6440  -13.1951   20.3075 C   0  0  0  0  0  0  0  0  0  0  0  0
   13.1752  -19.5553   19.7504 O   0  0  0  0  0  0  0  0  0  0  0  0
   12.4626  -20.5467   20.3963 C   0  0  0  0  0  0  0  0  0  0  0  0
   11.5482  -19.8865   21.4163 C   0  0  2  0  0  0  0  0  0  0  0  0
   10.8526  -18.7591   20.8121 N   0  0  0  0  0  0  0  0  0  0  0  0
   12.3340  -19.4062   22.5514 C   0  0  0  0  0  0  0  0  0  0  0  0
   12.7643  -18.2019   22.5264 O   0  0  0  0  0  0  0  0  0  0  0  0
    8.1287  -19.7397   28.4587 N   0  0  0  0  0  0  0  0  0  0  0  0
    8.0626  -19.4341   27.0387 C   0  0  0  0  0  0  0  0  0  0  0  0
    6.9449  -19.4436   26.4309 N   0  0  0  0  0  0  0  0  0  0  0  0
    9.2350  -19.1203   26.3200 N   0  0  0  0  0  0  0  0  0  0  0  0
   10.5459  -19.1460   26.8139 C   0  0  0  0  0  0  0  0  0  0  0  0
   11.6870  -18.7202   25.9759 C   0  0  0  0  0  0  0  0  0  0  0  0
   12.8867  -19.6228   26.0604 C   0  0  0  0  0  0  0  0  0  0  0  0
   13.5667  -19.6291   24.7067 C   0  0  2  0  0  0  0  0  0  0  0  0
   12.6751  -20.1616   23.7073 N   0  0  0  0  0  0  0  0  0  0  0  0
   14.8659  -20.3608   24.7471 C   0  0  0  0  0  0  0  0  0  0  0  0
   15.7489  -19.9402   25.5268 O   0  0  0  0  0  0  0  0  0  0  0  0
   15.1480  -21.4692   23.9775 O   0  0  0  0  0  0  0  0  0  0  0  0
  2  1  1  0
  3  2  2  0
  4  3  1  0
  5 11  1  0
  5  4  2  0
  6  5  1  0
  7  6  1  0
  7  8  1  1
  9  7  1  0
  9 10  2  0
 11 12  2  0
 12  2  1  0
 13 14  1  0
 15 14  1  6
 15 16  1  0
 16  9  1  0
 17 15  1  0
 18 17  2  0
 19 20  1  0
 20 22  1  0
 21 20  2  0
 22 23  1  0
 23 24  1  0
 24 25  1  0
 26 25  1  1
 26 28  1  0
 26 27  1  0
 27 17  1  0
 28 30  1  0
 29 28  2  0
M  END
$$$$
