YSR.pdb
     RDKit          3D

 30 30  0  0  1  0  0  0  0  0999 V2000
    9.6705  -13.0717   18.0966 O   0  0  0  0  0  0  0  0  0  0  0  0
    8.8490  -13.6543   19.0413 C   0  0  0  0  0  0  0  0  0  0  0  0
    9.3141  -14.6577   19.8867 C   0  0  0  0  0  0  0  0  0  0  0  0
    8.4875  -15.2338   20.8269 C   0  0  0  0  0  0  0  0  0  0  0  0
    7.1588  -14.7997   20.9300 C   0  0  0  0  0  0  0  0  0  0  0  0
    6.3063  -15.4525   21.9381 C   0  0  0  0  0  0  0  0  0  0  0  0
    7.0558  -16.5562   22.6413 C   0  0  2  0  0  0  0  0  0  0  0  0
    6.0577  -17.2612   23.4452 N   0  0  0  0  0  0  0  0  0  0  0  0
    8.0905  -15.9594   23.5151 C   0  0  0  0  0  0  0  0  0  0  0  0
    7.7773  -15.0751   24.3290 O   0  0  0  0  0  0  0  0  0  0  0  0
    6.6983  -13.8088   20.0952 C   0  0  0  0  0  0  0  0  0  0  0  0
    7.5332  -13.2364   19.1557 C   0  0  0  0  0  0  0  0  0  0  0  0
   10.2165  -17.5216   25.8051 O   0  0  0  0  0  0  0  0  0  0  0  0
   10.2834  -16.1456   25.7053 C   0  0  0  0  0  0  0  0  0  0  0  0
   10.4818  -15.7847   24.2414 C   0  0  2  0  0  0  0  0  0  0  0  0
    9.4392  -16.3940   23.4280 N   0  0  0  0  0  0  0  0  0  0  0  0
   11.7836  -16.2657   23.7827 C   0  0  0  0  0  0  0  0  0  0  0  0
   11.8722  -17.4700   23.3606 O   0  0  0  0  0  0  0  0  0  0  0  0
   19.3841  -15.1637   19.7241 N   0  0  0  0  0  0  0  0  0  0  0  0
   18.9744  -13.9380   20.3903 C   0  0  0  0  0  0  0  0  0  0  0  0
   19.8290  -13.0328   20.6530 N   0  0  0  0  0  0  0  0  0  0  0  0
   17.6252  -13.7366   20.7495 N   0  0  0  0  0  0  0  0  0  0  0  0
   16.5918  -14.6789   20.6644 C   0  0  0  0  0  0  0  0  0  0  0  0
   16.1814  -15.4717   21.8428 C   0  0  0  0  0  0  0  0  0  0  0  0
   15.0305  -14.8849   22.6122 C   0  0  0  0  0  0  0  0  0  0  0  0
   14.1758  -16.0265   23.1234 C   0  0  2  0  0  0  0  0  0  0  0  0
   12.9889  -15.5108   23.7577 N   0  0  0  0  0  0  0  0  0  0  0  0
   14.9471  -16.9299   24.0257 C   0  0  0  0  0  0  0  0  0  0  0  0
   14.7327  -16.8491   25.2553 O   0  0  0  0  0  0  0  0  0  0  0  0
   15.8789  -17.8447   23.5837 O   0  0  0  0  0  0  0  0  0  0  0  0
  2  1  1  0
  3  2  2  0
  4  3  1  0
  5 11  1  0
  5  4  2  0
  6  5  1  0
  7  6  1  0
  7  8  1  1
  9  7  1  0
  9 10  2  0
 11 12  2  0
 12  2  1  0
 13 14  1  0
 15 14  1  1
 15 16  1  0
 16  9  1  0
 17 15  1  0
 18 17  2  0
 19 20  1  0
 20 22  1  0
 21 20  2  0
 22 23  1  0
 23 24  1  0
 24 25  1  0
 26 25  1  1
 26 28  1  0
 26 27  1  0
 27 17  1  0
 28 30  1  0
 29 28  2  0
M  END
$$$$
