YSR.pdb
     RDKit          3D

 30 30  0  0  1  0  0  0  0  0999 V2000
    6.4037  -16.5452   10.7693 O   0  0  0  0  0  0  0  0  0  0  0  0
    6.9613  -16.3364   12.0151 C   0  0  0  0  0  0  0  0  0  0  0  0
    8.0322  -15.4651   12.1934 C   0  0  0  0  0  0  0  0  0  0  0  0
    8.5828  -15.2624   13.4405 C   0  0  0  0  0  0  0  0  0  0  0  0
    8.0532  -15.9463   14.5433 C   0  0  0  0  0  0  0  0  0  0  0  0
    8.6812  -15.7115   15.8548 C   0  0  0  0  0  0  0  0  0  0  0  0
    7.7605  -14.9305   16.7585 C   0  0  2  0  0  0  0  0  0  0  0  0
    7.7183  -13.5774   16.2047 N   0  0  0  0  0  0  0  0  0  0  0  0
    8.3269  -14.9084   18.1256 C   0  0  0  0  0  0  0  0  0  0  0  0
    9.2176  -14.0918   18.4125 O   0  0  0  0  0  0  0  0  0  0  0  0
    6.9957  -16.8075   14.3683 C   0  0  0  0  0  0  0  0  0  0  0  0
    6.4494  -17.0049   13.1153 C   0  0  0  0  0  0  0  0  0  0  0  0
    7.3669  -17.8974   20.8551 O   0  0  0  0  0  0  0  0  0  0  0  0
    7.5326  -16.6340   21.3881 C   0  0  0  0  0  0  0  0  0  0  0  0
    8.4256  -15.8365   20.4505 C   0  0  2  0  0  0  0  0  0  0  0  0
    7.8559  -15.8156   19.1107 N   0  0  0  0  0  0  0  0  0  0  0  0
    9.7538  -16.4441   20.3921 C   0  0  0  0  0  0  0  0  0  0  0  0
   10.0959  -17.0552   19.3216 O   0  0  0  0  0  0  0  0  0  0  0  0
   15.5474  -15.9203   17.1429 N   0  0  0  0  0  0  0  0  0  0  0  0
   16.1444  -14.6737   17.5940 C   0  0  0  0  0  0  0  0  0  0  0  0
   17.3360  -14.3750   17.2628 N   0  0  0  0  0  0  0  0  0  0  0  0
   15.4090  -13.7798   18.4003 N   0  0  0  0  0  0  0  0  0  0  0  0
   14.0971  -13.9591   18.8583 C   0  0  0  0  0  0  0  0  0  0  0  0
   13.7902  -14.9152   19.9433 C   0  0  0  0  0  0  0  0  0  0  0  0
   12.3301  -15.0087   20.2902 C   0  0  0  0  0  0  0  0  0  0  0  0
   12.1258  -16.2502   21.1340 C   0  0  2  0  0  0  0  0  0  0  0  0
   10.7259  -16.4225   21.4302 N   0  0  0  0  0  0  0  0  0  0  0  0
   12.9614  -16.2194   22.3693 C   0  0  0  0  0  0  0  0  0  0  0  0
   12.3959  -15.9425   23.4500 O   0  0  0  0  0  0  0  0  0  0  0  0
   14.3155  -16.4774   22.3877 O   0  0  0  0  0  0  0  0  0  0  0  0
  2  1  1  0
  3  2  2  0
  4  3  1  0
  5 11  1  0
  5  4  2  0
  6  5  1  0
  7  6  1  0
  7  8  1  6
  9  7  1  0
  9 10  2  0
 11 12  2  0
 12  2  1  0
 13 14  1  0
 15 14  1  1
 15 16  1  0
 16  9  1  0
 17 15  1  0
 18 17  2  0
 19 20  1  0
 20 22  1  0
 21 20  2  0
 22 23  1  0
 23 24  1  0
 24 25  1  0
 26 25  1  1
 26 28  1  0
 26 27  1  0
 27 17  1  0
 28 30  1  0
 29 28  2  0
M  END
$$$$
