YSR.pdb
     RDKit          3D

 30 30  0  0  1  0  0  0  0  0999 V2000
    9.4618  -23.5977    8.9427 O   0  0  0  0  0  0  0  0  0  0  0  0
   10.1898  -23.6389   10.1153 C   0  0  0  0  0  0  0  0  0  0  0  0
   11.5817  -23.6639   10.1041 C   0  0  0  0  0  0  0  0  0  0  0  0
   12.3006  -23.7048   11.2791 C   0  0  0  0  0  0  0  0  0  0  0  0
   11.6158  -23.7214   12.5019 C   0  0  0  0  0  0  0  0  0  0  0  0
   12.4228  -23.7802   13.7326 C   0  0  0  0  0  0  0  0  0  0  0  0
   12.2441  -22.5268   14.5519 C   0  0  2  0  0  0  0  0  0  0  0  0
   12.8962  -21.4614   13.7909 N   0  0  0  0  0  0  0  0  0  0  0  0
   12.9105  -22.7042   15.8614 C   0  0  0  0  0  0  0  0  0  0  0  0
   14.1291  -22.9394   15.9079 O   0  0  0  0  0  0  0  0  0  0  0  0
   10.2410  -23.6971   12.5141 C   0  0  0  0  0  0  0  0  0  0  0  0
    9.5278  -23.6558   11.3321 C   0  0  0  0  0  0  0  0  0  0  0  0
   11.2175  -21.2284   19.1269 O   0  0  0  0  0  0  0  0  0  0  0  0
   12.5458  -21.5867   19.2497 C   0  0  0  0  0  0  0  0  0  0  0  0
   12.7953  -22.7961   18.3623 C   0  0  2  0  0  0  0  0  0  0  0  0
   12.1633  -22.6059   17.0644 N   0  0  0  0  0  0  0  0  0  0  0  0
   12.2418  -23.9953   18.9885 C   0  0  0  0  0  0  0  0  0  0  0  0
   11.1072  -23.9072   19.5726 O   0  0  0  0  0  0  0  0  0  0  0  0
   13.1762  -27.8197   15.5673 N   0  0  0  0  0  0  0  0  0  0  0  0
   14.3500  -28.5661   15.9905 C   0  0  0  0  0  0  0  0  0  0  0  0
   14.6584  -29.6586   15.4160 N   0  0  0  0  0  0  0  0  0  0  0  0
   15.1620  -28.0863   17.0395 N   0  0  0  0  0  0  0  0  0  0  0  0
   14.7482  -27.2872   18.1134 C   0  0  0  0  0  0  0  0  0  0  0  0
   14.2140  -27.8897   19.3532 C   0  0  0  0  0  0  0  0  0  0  0  0
   13.9367  -26.9008   20.4514 C   0  0  0  0  0  0  0  0  0  0  0  0
   12.6465  -26.1795   20.1199 C   0  0  2  0  0  0  0  0  0  0  0  0
   12.8527  -25.2795   19.0132 N   0  0  0  0  0  0  0  0  0  0  0  0
   12.0837  -25.4827   21.3127 C   0  0  0  0  0  0  0  0  0  0  0  0
   12.8328  -24.7022   21.9405 O   0  0  0  0  0  0  0  0  0  0  0  0
   10.7906  -25.6492   21.7610 O   0  0  0  0  0  0  0  0  0  0  0  0
  2  1  1  0
  3  2  2  0
  4  3  1  0
  5 11  1  0
  5  4  2  0
  6  5  1  0
  7  6  1  0
  7  8  1  6
  9  7  1  0
  9 10  2  0
 11 12  2  0
 12  2  1  0
 13 14  1  0
 15 14  1  1
 15 16  1  0
 16  9  1  0
 17 15  1  0
 18 17  2  0
 19 20  1  0
 20 22  1  0
 21 20  2  0
 22 23  1  0
 23 24  1  0
 24 25  1  0
 26 25  1  1
 26 28  1  0
 26 27  1  0
 27 17  1  0
 28 30  1  0
 29 28  2  0
M  END
$$$$
