YSR.pdb
     RDKit          3D

 30 30  0  0  1  0  0  0  0  0999 V2000
    8.3677  -12.3941   15.4692 O   0  0  0  0  0  0  0  0  0  0  0  0
    8.0967  -13.0402   16.6590 C   0  0  0  0  0  0  0  0  0  0  0  0
    8.3442  -14.4009   16.8179 C   0  0  0  0  0  0  0  0  0  0  0  0
    8.0710  -15.0380   18.0089 C   0  0  0  0  0  0  0  0  0  0  0  0
    7.5357  -14.3009   19.0740 C   0  0  0  0  0  0  0  0  0  0  0  0
    7.2451  -15.0243   20.3236 C   0  0  0  0  0  0  0  0  0  0  0  0
    7.0458  -16.4954   20.0582 C   0  0  2  0  0  0  0  0  0  0  0  0
    5.7626  -16.6010   19.3641 N   0  0  0  0  0  0  0  0  0  0  0  0
    6.9926  -17.2182   21.3486 C   0  0  0  0  0  0  0  0  0  0  0  0
    6.1294  -16.9186   22.1897 O   0  0  0  0  0  0  0  0  0  0  0  0
    7.2905  -12.9569   18.9181 C   0  0  0  0  0  0  0  0  0  0  0  0
    7.5674  -12.3257   17.7213 C   0  0  0  0  0  0  0  0  0  0  0  0
    9.6824  -20.2934   22.1294 O   0  0  0  0  0  0  0  0  0  0  0  0
    8.4272  -20.3892   22.6978 C   0  0  0  0  0  0  0  0  0  0  0  0
    7.8836  -18.9819   22.8886 C   0  0  2  0  0  0  0  0  0  0  0  0
    7.9231  -18.2530   21.6287 N   0  0  0  0  0  0  0  0  0  0  0  0
    8.6900  -18.2669   23.8761 C   0  0  0  0  0  0  0  0  0  0  0  0
    9.7727  -17.7080   23.4867 O   0  0  0  0  0  0  0  0  0  0  0  0
   11.4483  -15.6673   29.8979 N   0  0  0  0  0  0  0  0  0  0  0  0
   10.8607  -14.3646   30.1659 C   0  0  0  0  0  0  0  0  0  0  0  0
   11.0513  -13.7919   31.2859 N   0  0  0  0  0  0  0  0  0  0  0  0
   10.0764  -13.7195   29.1868 N   0  0  0  0  0  0  0  0  0  0  0  0
    9.2984  -14.3413   28.2014 C   0  0  0  0  0  0  0  0  0  0  0  0
    9.3754  -15.8001   27.9743 C   0  0  0  0  0  0  0  0  0  0  0  0
    8.5250  -16.2943   26.8369 C   0  0  0  0  0  0  0  0  0  0  0  0
    9.2693  -17.4196   26.1479 C   0  0  2  0  0  0  0  0  0  0  0  0
    8.3834  -18.1271   25.2579 N   0  0  0  0  0  0  0  0  0  0  0  0
    9.9219  -18.3311   27.1319 C   0  0  0  0  0  0  0  0  0  0  0  0
    9.3431  -19.4054   27.4059 O   0  0  0  0  0  0  0  0  0  0  0  0
   11.1215  -18.0581   27.7541 O   0  0  0  0  0  0  0  0  0  0  0  0
  2  1  1  0
  3  2  2  0
  4  3  1  0
  5 11  1  0
  5  4  2  0
  6  5  1  0
  7  6  1  0
  7  8  1  1
  9  7  1  0
  9 10  2  0
 11 12  2  0
 12  2  1  0
 13 14  1  0
 15 14  1  6
 15 16  1  0
 16  9  1  0
 17 15  1  0
 18 17  2  0
 19 20  1  0
 20 22  1  0
 21 20  2  0
 22 23  1  0
 23 24  1  0
 24 25  1  0
 26 25  1  1
 26 28  1  0
 26 27  1  0
 27 17  1  0
 28 30  1  0
 29 28  2  0
M  END
$$$$
