KDG.pdb
     RDKit          3D

 22 21  0  0  1  0  0  0  0  0999 V2000
   19.8919  -20.8798  -14.9374 N   0  0  0  0  0  0  0  0  0  0  0  0
   20.3144  -20.7702  -13.5338 C   0  0  1  0  0  0  0  0  0  0  0  0
   20.0887  -22.1155  -12.9037 C   0  0  0  0  0  0  0  0  0  0  0  0
   18.7239  -22.6768  -13.1276 C   0  0  0  0  0  0  0  0  0  0  0  0
   17.6570  -21.9766  -12.3225 C   0  0  0  0  0  0  0  0  0  0  0  0
   16.3411  -22.6756  -12.5120 C   0  0  0  0  0  0  0  0  0  0  0  0
   15.2664  -22.0407  -11.7791 N   0  0  0  0  0  0  0  0  0  0  0  0
   21.7707  -20.4946  -13.5695 C   0  0  0  0  0  0  0  0  0  0  0  0
   22.3961  -20.3835  -12.4941 O   0  0  0  0  0  0  0  0  0  0  0  0
   22.5154  -20.3458  -14.7582 N   0  0  0  0  0  0  0  0  0  0  0  0
   23.8934  -20.0153  -14.7377 C   0  0  1  0  0  0  0  0  0  0  0  0
   24.7850  -20.9261  -15.5136 C   0  0  0  0  0  0  0  0  0  0  0  0
   26.2011  -20.6026  -15.2987 C   0  0  0  0  0  0  0  0  0  0  0  0
   26.8223  -20.8096  -14.2259 O   0  0  0  0  0  0  0  0  0  0  0  0
   24.1059  -18.6021  -15.1428 C   0  0  0  0  0  0  0  0  0  0  0  0
   23.4311  -18.0942  -16.0740 O   0  0  0  0  0  0  0  0  0  0  0  0
   26.9818  -20.0189  -16.3175 O   0  0  0  0  0  0  0  0  0  0  0  0
   25.0699  -17.7865  -14.4963 N   0  0  0  0  0  0  0  0  0  0  0  0
   25.3319  -16.4201  -14.8645 C   0  0  0  0  0  0  0  0  0  0  0  0
   25.8340  -16.2911  -16.2501 C   0  0  0  0  0  0  0  0  0  0  0  0
   26.1256  -15.0863  -16.8702 O   0  0  0  0  0  0  0  0  0  0  0  0
   26.0121  -17.3393  -16.9203 O   0  0  0  0  0  0  0  0  0  0  0  0
  2  8  1  0
  2  1  1  6
  3  2  1  0
  4  3  1  0
  5  4  1  0
  6  7  1  0
  6  5  1  0
  8  9  2  0
 10  8  1  0
 10 11  1  0
 11 12  1  6
 13 17  1  0
 13 12  1  0
 14 13  2  0
 15 18  1  0
 15 11  1  0
 16 15  2  0
 19 18  1  0
 20 19  1  0
 21 20  1  0
 22 20  2  0
M  END
$$$$
