KDG.pdb
     RDKit          3D

 22 21  0  0  1  0  0  0  0  0999 V2000
   26.6468  -20.0517  -13.0020 N   0  0  0  0  0  0  0  0  0  0  0  0
   26.3228  -20.8853  -14.1685 C   0  0  1  0  0  0  0  0  0  0  0  0
   25.4038  -21.9721  -13.6867 C   0  0  0  0  0  0  0  0  0  0  0  0
   25.3679  -22.1324  -12.2032 C   0  0  0  0  0  0  0  0  0  0  0  0
   24.9950  -20.8617  -11.4798 C   0  0  0  0  0  0  0  0  0  0  0  0
   24.8753  -21.1353  -10.0078 C   0  0  0  0  0  0  0  0  0  0  0  0
   24.4768  -19.9632   -9.2575 N   0  0  0  0  0  0  0  0  0  0  0  0
   25.5787  -20.0052  -15.1013 C   0  0  0  0  0  0  0  0  0  0  0  0
   25.2983  -18.8408  -14.7470 O   0  0  0  0  0  0  0  0  0  0  0  0
   25.1563  -20.3991  -16.3881 N   0  0  0  0  0  0  0  0  0  0  0  0
   24.5310  -19.4902  -17.2778 C   0  0  1  0  0  0  0  0  0  0  0  0
   24.8724  -19.6639  -18.7199 C   0  0  0  0  0  0  0  0  0  0  0  0
   26.3242  -19.6261  -18.9364 C   0  0  0  0  0  0  0  0  0  0  0  0
   26.9867  -20.5485  -19.4749 O   0  0  0  0  0  0  0  0  0  0  0  0
   23.0584  -19.4864  -17.0837 C   0  0  0  0  0  0  0  0  0  0  0  0
   22.3267  -18.7093  -17.7479 O   0  0  0  0  0  0  0  0  0  0  0  0
   27.0950  -18.5138  -18.5403 O   0  0  0  0  0  0  0  0  0  0  0  0
   22.4353  -20.3535  -16.1497 N   0  0  0  0  0  0  0  0  0  0  0  0
   21.0154  -20.3840  -15.9165 C   0  0  0  0  0  0  0  0  0  0  0  0
   20.3040  -21.2774  -16.8569 C   0  0  0  0  0  0  0  0  0  0  0  0
   19.8372  -20.8926  -18.1040 O   0  0  0  0  0  0  0  0  0  0  0  0
   20.1037  -22.4692  -16.5119 O   0  0  0  0  0  0  0  0  0  0  0  0
  2  8  1  0
  2  1  1  1
  3  2  1  0
  4  3  1  0
  5  4  1  0
  6  7  1  0
  6  5  1  0
  8  9  2  0
 10  8  1  0
 10 11  1  0
 11 12  1  6
 13 17  1  0
 13 12  1  0
 14 13  2  0
 15 18  1  0
 15 11  1  0
 16 15  2  0
 19 18  1  0
 20 19  1  0
 21 20  1  0
 22 20  2  0
M  END
$$$$
