KDG.pdb
     RDKit          3D

 22 21  0  0  1  0  0  0  0  0999 V2000
   21.4094  -11.9210  -17.4516 N   0  0  0  0  0  0  0  0  0  0  0  0
   21.0614  -10.9047  -18.4550 C   0  0  1  0  0  0  0  0  0  0  0  0
   19.9865  -11.4972  -19.3217 C   0  0  0  0  0  0  0  0  0  0  0  0
   20.4549  -12.5984  -20.2137 C   0  0  0  0  0  0  0  0  0  0  0  0
   20.5308  -13.9337  -19.5151 C   0  0  0  0  0  0  0  0  0  0  0  0
   21.0544  -14.9720  -20.4658 C   0  0  0  0  0  0  0  0  0  0  0  0
   21.1307  -16.2860  -19.8634 N   0  0  0  0  0  0  0  0  0  0  0  0
   20.4932   -9.7645  -17.6965 C   0  0  0  0  0  0  0  0  0  0  0  0
   20.0025   -8.8012  -18.3218 O   0  0  0  0  0  0  0  0  0  0  0  0
   20.4673   -9.6900  -16.2882 N   0  0  0  0  0  0  0  0  0  0  0  0
   19.9088   -8.5773  -15.6111 C   0  0  1  0  0  0  0  0  0  0  0  0
   18.8374   -8.8970  -14.6229 C   0  0  0  0  0  0  0  0  0  0  0  0
   17.7215   -9.6133  -15.2537 C   0  0  0  0  0  0  0  0  0  0  0  0
   17.0071   -9.1451  -16.1757 O   0  0  0  0  0  0  0  0  0  0  0  0
   20.9712   -7.7499  -14.9842 C   0  0  0  0  0  0  0  0  0  0  0  0
   21.8785   -8.2850  -14.2979 O   0  0  0  0  0  0  0  0  0  0  0  0
   17.3676  -10.9176  -14.8514 O   0  0  0  0  0  0  0  0  0  0  0  0
   20.9958   -6.3400  -15.1391 N   0  0  0  0  0  0  0  0  0  0  0  0
   21.9936   -5.4912  -14.5430 C   0  0  0  0  0  0  0  0  0  0  0  0
   21.8774   -5.4257  -13.0696 C   0  0  0  0  0  0  0  0  0  0  0  0
   21.0117   -6.2022  -12.3153 O   0  0  0  0  0  0  0  0  0  0  0  0
   22.6090   -4.6140  -12.4487 O   0  0  0  0  0  0  0  0  0  0  0  0
  2  8  1  0
  2  1  1  1
  3  2  1  0
  4  3  1  0
  5  4  1  0
  6  7  1  0
  6  5  1  0
  8  9  2  0
 10  8  1  0
 10 11  1  0
 11 12  1  1
 13 17  1  0
 13 12  1  0
 14 13  2  0
 15 18  1  0
 15 11  1  0
 16 15  2  0
 19 18  1  0
 20 19  1  0
 21 20  1  0
 22 20  2  0
M  END
$$$$
