KDG.pdb
     RDKit          3D

 22 21  0  0  1  0  0  0  0  0999 V2000
   28.9482  -24.3764  -16.3016 N   0  0  0  0  0  0  0  0  0  0  0  0
   28.5870  -23.8288  -17.6170 C   0  0  1  0  0  0  0  0  0  0  0  0
   27.8674  -24.9182  -18.3607 C   0  0  0  0  0  0  0  0  0  0  0  0
   28.6781  -26.1526  -18.5765 C   0  0  0  0  0  0  0  0  0  0  0  0
   28.1518  -27.3461  -17.8179 C   0  0  0  0  0  0  0  0  0  0  0  0
   29.0122  -28.5442  -18.1014 C   0  0  0  0  0  0  0  0  0  0  0  0
   28.6488  -29.6900  -17.2950 N   0  0  0  0  0  0  0  0  0  0  0  0
   27.6375  -22.7222  -17.3483 C   0  0  0  0  0  0  0  0  0  0  0  0
   27.0802  -22.6553  -16.2326 O   0  0  0  0  0  0  0  0  0  0  0  0
   27.3126  -21.7183  -18.2844 N   0  0  0  0  0  0  0  0  0  0  0  0
   26.5512  -20.5794  -17.9214 C   0  0  1  0  0  0  0  0  0  0  0  0
   26.8819  -19.3236  -18.6563 C   0  0  0  0  0  0  0  0  0  0  0  0
   28.2269  -18.8415  -18.3176 C   0  0  0  0  0  0  0  0  0  0  0  0
   29.1196  -18.5750  -19.1613 O   0  0  0  0  0  0  0  0  0  0  0  0
   25.0961  -20.8668  -18.0014 C   0  0  0  0  0  0  0  0  0  0  0  0
   24.6318  -21.5667  -18.9368 O   0  0  0  0  0  0  0  0  0  0  0  0
   28.6168  -18.6398  -16.9776 O   0  0  0  0  0  0  0  0  0  0  0  0
   24.1907  -20.3645  -17.0316 N   0  0  0  0  0  0  0  0  0  0  0  0
   22.7956  -20.7154  -16.9882 C   0  0  0  0  0  0  0  0  0  0  0  0
   22.0358  -19.9046  -16.0115 C   0  0  0  0  0  0  0  0  0  0  0  0
   21.1104  -18.9303  -16.3514 O   0  0  0  0  0  0  0  0  0  0  0  0
   22.2349  -20.1044  -14.7868 O   0  0  0  0  0  0  0  0  0  0  0  0
  2  8  1  0
  2  1  1  1
  3  2  1  0
  4  3  1  0
  5  4  1  0
  6  7  1  0
  6  5  1  0
  8  9  2  0
 10  8  1  0
 10 11  1  0
 11 12  1  6
 13 17  1  0
 13 12  1  0
 14 13  2  0
 15 18  1  0
 15 11  1  0
 16 15  2  0
 19 18  1  0
 20 19  1  0
 21 20  1  0
 22 20  2  0
M  END
$$$$
