KDG.pdb
     RDKit          3D

 22 21  0  0  1  0  0  0  0  0999 V2000
   23.6455  -12.9118  -17.7738 N   0  0  0  0  0  0  0  0  0  0  0  0
   22.3959  -12.1913  -18.0565 C   0  0  1  0  0  0  0  0  0  0  0  0
   21.3128  -12.8689  -17.2656 C   0  0  0  0  0  0  0  0  0  0  0  0
   20.8615  -14.1726  -17.8350 C   0  0  0  0  0  0  0  0  0  0  0  0
   19.7090  -14.7825  -17.0755 C   0  0  0  0  0  0  0  0  0  0  0  0
   19.2482  -16.0302  -17.7733 C   0  0  0  0  0  0  0  0  0  0  0  0
   18.1295  -16.6583  -17.1031 N   0  0  0  0  0  0  0  0  0  0  0  0
   22.5905  -10.8198  -17.5279 C   0  0  0  0  0  0  0  0  0  0  0  0
   23.4307  -10.6291  -16.6237 O   0  0  0  0  0  0  0  0  0  0  0  0
   21.8781   -9.6912  -17.9843 N   0  0  0  0  0  0  0  0  0  0  0  0
   22.1279   -8.3944  -17.4701 C   0  0  1  0  0  0  0  0  0  0  0  0
   21.6989   -7.2626  -18.3429 C   0  0  0  0  0  0  0  0  0  0  0  0
   22.0447   -5.9652  -17.7485 C   0  0  0  0  0  0  0  0  0  0  0  0
   23.1612   -5.6913  -17.2404 O   0  0  0  0  0  0  0  0  0  0  0  0
   21.5627   -8.2474  -16.1043 C   0  0  0  0  0  0  0  0  0  0  0  0
   20.3526   -8.5042  -15.8808 O   0  0  0  0  0  0  0  0  0  0  0  0
   21.1140   -4.9067  -17.7082 O   0  0  0  0  0  0  0  0  0  0  0  0
   22.3649   -7.8161  -15.0167 N   0  0  0  0  0  0  0  0  0  0  0  0
   21.8932   -7.7458  -13.6587 C   0  0  0  0  0  0  0  0  0  0  0  0
   20.9977   -6.5911  -13.4272 C   0  0  0  0  0  0  0  0  0  0  0  0
   20.4982   -5.7724  -14.4278 O   0  0  0  0  0  0  0  0  0  0  0  0
   20.6602   -6.3250  -12.2462 O   0  0  0  0  0  0  0  0  0  0  0  0
  2  8  1  0
  2  1  1  1
  3  2  1  0
  4  3  1  0
  5  4  1  0
  6  7  1  0
  6  5  1  0
  8  9  2  0
 10  8  1  0
 10 11  1  0
 11 12  1  6
 13 17  1  0
 13 12  1  0
 14 13  2  0
 15 18  1  0
 15 11  1  0
 16 15  2  0
 19 18  1  0
 20 19  1  0
 21 20  1  0
 22 20  2  0
M  END
$$$$
