KDG.pdb
     RDKit          3D

 22 21  0  0  1  0  0  0  0  0999 V2000
   18.4740  -13.4389  -16.7021 N   0  0  0  0  0  0  0  0  0  0  0  0
   18.3832  -11.9948  -16.9610 C   0  0  1  0  0  0  0  0  0  0  0  0
   17.0914  -11.5232  -16.3556 C   0  0  0  0  0  0  0  0  0  0  0  0
   15.8690  -12.0614  -17.0218 C   0  0  0  0  0  0  0  0  0  0  0  0
   14.5890  -11.6124  -16.3610 C   0  0  0  0  0  0  0  0  0  0  0  0
   13.4130  -12.2066  -17.0822 C   0  0  0  0  0  0  0  0  0  0  0  0
   12.1489  -11.8215  -16.4912 N   0  0  0  0  0  0  0  0  0  0  0  0
   19.5125  -11.3793  -16.2233 C   0  0  0  0  0  0  0  0  0  0  0  0
   19.7070  -11.6975  -15.0313 O   0  0  0  0  0  0  0  0  0  0  0  0
   20.4016  -10.4394  -16.7854 N   0  0  0  0  0  0  0  0  0  0  0  0
   21.4596   -9.8717  -16.0325 C   0  0  1  0  0  0  0  0  0  0  0  0
   22.7981  -10.5018  -16.2273 C   0  0  0  0  0  0  0  0  0  0  0  0
   23.7301  -10.1245  -15.1572 C   0  0  0  0  0  0  0  0  0  0  0  0
   23.4660   -9.3058  -14.2408 O   0  0  0  0  0  0  0  0  0  0  0  0
   21.5343   -8.4037  -16.2461 C   0  0  0  0  0  0  0  0  0  0  0  0
   21.4404   -7.9190  -17.4022 O   0  0  0  0  0  0  0  0  0  0  0  0
   25.0261  -10.6755  -15.0867 O   0  0  0  0  0  0  0  0  0  0  0  0
   21.7123   -7.5085  -15.1601 N   0  0  0  0  0  0  0  0  0  0  0  0
   21.7342   -6.0767  -15.3044 C   0  0  0  0  0  0  0  0  0  0  0  0
   21.9759   -5.3798  -14.0219 C   0  0  0  0  0  0  0  0  0  0  0  0
   22.1086   -6.0144  -12.7968 O   0  0  0  0  0  0  0  0  0  0  0  0
   22.0691   -4.1266  -14.0320 O   0  0  0  0  0  0  0  0  0  0  0  0
  2  8  1  0
  2  1  1  1
  3  2  1  0
  4  3  1  0
  5  4  1  0
  6  7  1  0
  6  5  1  0
  8  9  2  0
 10  8  1  0
 10 11  1  0
 11 12  1  6
 13 17  1  0
 13 12  1  0
 14 13  2  0
 15 18  1  0
 15 11  1  0
 16 15  2  0
 19 18  1  0
 20 19  1  0
 21 20  1  0
 22 20  2  0
M  END
$$$$
