KDG.pdb
     RDKit          3D

 22 21  0  0  1  0  0  0  0  0999 V2000
   18.5330  -11.7137  -17.1035 N   0  0  0  0  0  0  0  0  0  0  0  0
   19.7683  -10.9859  -16.7796 C   0  0  1  0  0  0  0  0  0  0  0  0
   20.6185  -10.9962  -18.0184 C   0  0  0  0  0  0  0  0  0  0  0  0
   21.1280  -12.3456  -18.4019 C   0  0  0  0  0  0  0  0  0  0  0  0
   21.9551  -12.3290  -19.6638 C   0  0  0  0  0  0  0  0  0  0  0  0
   22.5051  -13.7020  -19.9252 C   0  0  0  0  0  0  0  0  0  0  0  0
   23.4110  -13.7298  -21.0539 N   0  0  0  0  0  0  0  0  0  0  0  0
   19.3537   -9.5916  -16.4928 C   0  0  0  0  0  0  0  0  0  0  0  0
   18.4044   -9.0943  -17.1342 O   0  0  0  0  0  0  0  0  0  0  0  0
   19.9694   -8.7699  -15.5257 N   0  0  0  0  0  0  0  0  0  0  0  0
   19.5085   -7.4558  -15.2622 C   0  0  1  0  0  0  0  0  0  0  0  0
   18.9785   -7.2237  -13.8867 C   0  0  0  0  0  0  0  0  0  0  0  0
   17.9777   -8.2335  -13.5194 C   0  0  0  0  0  0  0  0  0  0  0  0
   18.0564   -8.9774  -12.5095 O   0  0  0  0  0  0  0  0  0  0  0  0
   20.5490   -6.4511  -15.6003 C   0  0  0  0  0  0  0  0  0  0  0  0
   21.7050   -6.5375  -15.1138 O   0  0  0  0  0  0  0  0  0  0  0  0
   16.8241   -8.4403  -14.3035 O   0  0  0  0  0  0  0  0  0  0  0  0
   20.2734   -5.3703  -16.4768 N   0  0  0  0  0  0  0  0  0  0  0  0
   21.2782   -4.4579  -16.9557 C   0  0  0  0  0  0  0  0  0  0  0  0
   21.5530   -3.3625  -16.0001 C   0  0  0  0  0  0  0  0  0  0  0  0
   22.4640   -2.3409  -16.2182 O   0  0  0  0  0  0  0  0  0  0  0  0
   20.9230   -3.3470  -14.9128 O   0  0  0  0  0  0  0  0  0  0  0  0
  2  8  1  0
  2  1  1  6
  3  2  1  0
  4  3  1  0
  5  4  1  0
  6  7  1  0
  6  5  1  0
  8  9  2  0
 10  8  1  0
 10 11  1  0
 11 12  1  1
 13 17  1  0
 13 12  1  0
 14 13  2  0
 15 18  1  0
 15 11  1  0
 16 15  2  0
 19 18  1  0
 20 19  1  0
 21 20  1  0
 22 20  2  0
M  END
$$$$
