KDG.pdb
     RDKit          3D

 22 21  0  0  1  0  0  0  0  0999 V2000
   26.4157  -27.0753  -17.9441 N   0  0  0  0  0  0  0  0  0  0  0  0
   26.0024  -27.0371  -16.5341 C   0  0  1  0  0  0  0  0  0  0  0  0
   26.8579  -26.0045  -15.8562 C   0  0  0  0  0  0  0  0  0  0  0  0
   28.1897  -25.7948  -16.4964 C   0  0  0  0  0  0  0  0  0  0  0  0
   28.3836  -24.3900  -17.0120 C   0  0  0  0  0  0  0  0  0  0  0  0
   29.7593  -24.2529  -17.5991 C   0  0  0  0  0  0  0  0  0  0  0  0
   29.9707  -22.9618  -18.2185 N   0  0  0  0  0  0  0  0  0  0  0  0
   24.5955  -26.5690  -16.5369 C   0  0  0  0  0  0  0  0  0  0  0  0
   24.1758  -25.9072  -17.5093 O   0  0  0  0  0  0  0  0  0  0  0  0
   23.6784  -26.8242  -15.4960 N   0  0  0  0  0  0  0  0  0  0  0  0
   22.3178  -26.4390  -15.5908 C   0  0  1  0  0  0  0  0  0  0  0  0
   21.3354  -27.5598  -15.6629 C   0  0  0  0  0  0  0  0  0  0  0  0
   21.5826  -28.4163  -16.8297 C   0  0  0  0  0  0  0  0  0  0  0  0
   21.7842  -27.9894  -17.9946 O   0  0  0  0  0  0  0  0  0  0  0  0
   21.9572  -25.4941  -14.5029 C   0  0  0  0  0  0  0  0  0  0  0  0
   22.5306  -25.5544  -13.3858 O   0  0  0  0  0  0  0  0  0  0  0  0
   21.6104  -29.8213  -16.7142 O   0  0  0  0  0  0  0  0  0  0  0  0
   20.9618  -24.5005  -14.6889 N   0  0  0  0  0  0  0  0  0  0  0  0
   20.6451  -23.4976  -13.7063 C   0  0  0  0  0  0  0  0  0  0  0  0
   19.4726  -22.6796  -14.0868 C   0  0  0  0  0  0  0  0  0  0  0  0
   18.8674  -21.7443  -13.2622 O   0  0  0  0  0  0  0  0  0  0  0  0
   18.9833  -22.8351  -15.2339 O   0  0  0  0  0  0  0  0  0  0  0  0
  2  8  1  0
  2  1  1  6
  3  2  1  0
  4  3  1  0
  5  4  1  0
  6  7  1  0
  6  5  1  0
  8  9  2  0
 10  8  1  0
 10 11  1  0
 11 12  1  1
 13 17  1  0
 13 12  1  0
 14 13  2  0
 15 18  1  0
 15 11  1  0
 16 15  2  0
 19 18  1  0
 20 19  1  0
 21 20  1  0
 22 20  2  0
M  END
$$$$
