KDG.pdb
     RDKit          3D

 22 21  0  0  1  0  0  0  0  0999 V2000
   21.6902  -12.0743  -15.5172 N   0  0  0  0  0  0  0  0  0  0  0  0
   22.9389  -11.3951  -15.8913 C   0  0  1  0  0  0  0  0  0  0  0  0
   23.3240  -11.9070  -17.2504 C   0  0  0  0  0  0  0  0  0  0  0  0
   23.6224  -13.3688  -17.2937 C   0  0  0  0  0  0  0  0  0  0  0  0
   22.4711  -14.1922  -17.8165 C   0  0  0  0  0  0  0  0  0  0  0  0
   22.8906  -15.6297  -17.9335 C   0  0  0  0  0  0  0  0  0  0  0  0
   21.8071  -16.4897  -18.3600 N   0  0  0  0  0  0  0  0  0  0  0  0
   22.6007   -9.9554  -15.9981 C   0  0  0  0  0  0  0  0  0  0  0  0
   23.4631   -9.1569  -16.4206 O   0  0  0  0  0  0  0  0  0  0  0  0
   21.3464   -9.4130  -15.6485 N   0  0  0  0  0  0  0  0  0  0  0  0
   21.0467   -8.0418  -15.8453 C   0  0  1  0  0  0  0  0  0  0  0  0
   19.6649   -7.7478  -16.3255 C   0  0  0  0  0  0  0  0  0  0  0  0
   19.3073   -8.5849  -17.4777 C   0  0  0  0  0  0  0  0  0  0  0  0
   19.8695   -8.5263  -18.6003 O   0  0  0  0  0  0  0  0  0  0  0  0
   21.3587   -7.2507  -14.6275 C   0  0  0  0  0  0  0  0  0  0  0  0
   21.4103   -7.8041  -13.4999 O   0  0  0  0  0  0  0  0  0  0  0  0
   18.2745   -9.5414  -17.3957 O   0  0  0  0  0  0  0  0  0  0  0  0
   21.6068   -5.8557  -14.6977 N   0  0  0  0  0  0  0  0  0  0  0  0
   22.0383   -5.0666  -13.5740 C   0  0  0  0  0  0  0  0  0  0  0  0
   22.3728   -3.6757  -13.9513 C   0  0  0  0  0  0  0  0  0  0  0  0
   22.7590   -2.6909  -13.0557 O   0  0  0  0  0  0  0  0  0  0  0  0
   22.3058   -3.3538  -15.1643 O   0  0  0  0  0  0  0  0  0  0  0  0
  2  8  1  0
  2  1  1  6
  3  2  1  0
  4  3  1  0
  5  4  1  0
  6  7  1  0
  6  5  1  0
  8  9  2  0
 10  8  1  0
 10 11  1  0
 11 12  1  1
 13 17  1  0
 13 12  1  0
 14 13  2  0
 15 18  1  0
 15 11  1  0
 16 15  2  0
 19 18  1  0
 20 19  1  0
 21 20  1  0
 22 20  2  0
M  END
$$$$
