KDG.pdb
     RDKit          3D

 22 21  0  0  1  0  0  0  0  0999 V2000
   20.9269  -11.9898  -15.5477 N   0  0  0  0  0  0  0  0  0  0  0  0
   21.6423  -11.1908  -16.5528 C   0  0  1  0  0  0  0  0  0  0  0  0
   21.0839  -11.5749  -17.8939 C   0  0  0  0  0  0  0  0  0  0  0  0
   21.0823  -13.0434  -18.1601 C   0  0  0  0  0  0  0  0  0  0  0  0
   20.6062  -13.3923  -19.5488 C   0  0  0  0  0  0  0  0  0  0  0  0
   20.6279  -14.8831  -19.7304 C   0  0  0  0  0  0  0  0  0  0  0  0
   20.0433  -15.2961  -20.9886 N   0  0  0  0  0  0  0  0  0  0  0  0
   21.2904   -9.7780  -16.2725 C   0  0  0  0  0  0  0  0  0  0  0  0
   21.7056   -8.8834  -17.0388 O   0  0  0  0  0  0  0  0  0  0  0  0
   20.5028   -9.3647  -15.1778 N   0  0  0  0  0  0  0  0  0  0  0  0
   20.0807   -8.0200  -15.0292 C   0  0  1  0  0  0  0  0  0  0  0  0
   18.6794   -7.8347  -14.5508 C   0  0  0  0  0  0  0  0  0  0  0  0
   17.7214   -8.5461  -15.4066 C   0  0  0  0  0  0  0  0  0  0  0  0
   17.4528   -8.2253  -16.5918 O   0  0  0  0  0  0  0  0  0  0  0  0
   21.0305   -7.2567  -14.1798 C   0  0  0  0  0  0  0  0  0  0  0  0
   21.7637   -7.8485  -13.3476 O   0  0  0  0  0  0  0  0  0  0  0  0
   17.0169   -9.6737  -14.9372 O   0  0  0  0  0  0  0  0  0  0  0  0
   21.1400   -5.8458  -14.2803 N   0  0  0  0  0  0  0  0  0  0  0  0
   22.0188   -5.0553  -13.4592 C   0  0  0  0  0  0  0  0  0  0  0  0
   21.9343   -3.6101  -13.7640 C   0  0  0  0  0  0  0  0  0  0  0  0
   22.5603   -2.6152  -13.0295 O   0  0  0  0  0  0  0  0  0  0  0  0
   21.2508   -3.2481  -14.7546 O   0  0  0  0  0  0  0  0  0  0  0  0
  2  8  1  0
  2  1  1  1
  3  2  1  0
  4  3  1  0
  5  4  1  0
  6  7  1  0
  6  5  1  0
  8  9  2  0
 10  8  1  0
 10 11  1  0
 11 12  1  1
 13 17  1  0
 13 12  1  0
 14 13  2  0
 15 18  1  0
 15 11  1  0
 16 15  2  0
 19 18  1  0
 20 19  1  0
 21 20  1  0
 22 20  2  0
M  END
$$$$
