KDG.pdb
     RDKit          3D

 22 21  0  0  1  0  0  0  0  0999 V2000
   26.7277  -19.9836  -14.6050 N   0  0  0  0  0  0  0  0  0  0  0  0
   26.2564  -18.9052  -15.4856 C   0  0  1  0  0  0  0  0  0  0  0  0
   26.8580  -19.1533  -16.8400 C   0  0  0  0  0  0  0  0  0  0  0  0
   26.9329  -20.5937  -17.2236 C   0  0  0  0  0  0  0  0  0  0  0  0
   28.0698  -21.3258  -16.5542 C   0  0  0  0  0  0  0  0  0  0  0  0
   28.1135  -22.7455  -17.0428 C   0  0  0  0  0  0  0  0  0  0  0  0
   29.0716  -23.5517  -16.3164 N   0  0  0  0  0  0  0  0  0  0  0  0
   24.7856  -19.0694  -15.5757 C   0  0  0  0  0  0  0  0  0  0  0  0
   24.1427  -18.3668  -16.3838 O   0  0  0  0  0  0  0  0  0  0  0  0
   24.0458  -19.9829  -14.7962 N   0  0  0  0  0  0  0  0  0  0  0  0
   22.6476  -20.1431  -14.9628 C   0  0  1  0  0  0  0  0  0  0  0  0
   22.0743  -21.4051  -14.4104 C   0  0  0  0  0  0  0  0  0  0  0  0
   22.5534  -22.5807  -15.1485 C   0  0  0  0  0  0  0  0  0  0  0  0
   23.3353  -23.4450  -14.6779 O   0  0  0  0  0  0  0  0  0  0  0  0
   21.9127  -18.9613  -14.4433 C   0  0  0  0  0  0  0  0  0  0  0  0
   22.1446  -18.5192  -13.2895 O   0  0  0  0  0  0  0  0  0  0  0  0
   22.1533  -22.8236  -16.4786 O   0  0  0  0  0  0  0  0  0  0  0  0
   20.9334  -18.2987  -15.2271 N   0  0  0  0  0  0  0  0  0  0  0  0
   20.2110  -17.1361  -14.7820 C   0  0  0  0  0  0  0  0  0  0  0  0
   18.9668  -17.4820  -14.0602 C   0  0  0  0  0  0  0  0  0  0  0  0
   18.0471  -16.5561  -13.5934 O   0  0  0  0  0  0  0  0  0  0  0  0
   18.7164  -18.6955  -13.8502 O   0  0  0  0  0  0  0  0  0  0  0  0
  2  8  1  0
  2  1  1  1
  3  2  1  0
  4  3  1  0
  5  4  1  0
  6  7  1  0
  6  5  1  0
  8  9  2  0
 10  8  1  0
 10 11  1  0
 11 12  1  1
 13 17  1  0
 13 12  1  0
 14 13  2  0
 15 18  1  0
 15 11  1  0
 16 15  2  0
 19 18  1  0
 20 19  1  0
 21 20  1  0
 22 20  2  0
M  END
$$$$
