GST.pdb
     RDKit          3D

 18 17  0  0  1  0  0  0  0  0999 V2000
   10.1318  -17.5477   17.3777 N   0  0  0  0  0  0  0  0  0  0  0  0
    9.7275  -17.6739   18.7522 C   0  0  0  0  0  0  0  0  0  0  0  0
   10.5989  -16.8253   19.6333 C   0  0  0  0  0  0  0  0  0  0  0  0
   11.5500  -16.1753   19.1601 O   0  0  0  0  0  0  0  0  0  0  0  0
    9.5003  -16.2857   23.6244 O   0  0  0  0  0  0  0  0  0  0  0  0
   10.4135  -15.3941   23.0983 C   0  0  0  0  0  0  0  0  0  0  0  0
   11.1534  -15.9293   21.9105 C   0  0  2  0  0  0  0  0  0  0  0  0
   10.3765  -16.7294   21.0320 N   0  0  0  0  0  0  0  0  0  0  0  0
   12.3104  -16.7248   22.4351 C   0  0  0  0  0  0  0  0  0  0  0  0
   12.1485  -17.8879   22.8905 O   0  0  0  0  0  0  0  0  0  0  0  0
   15.6502  -16.8966   20.5051 C   0  0  0  0  0  0  0  0  0  0  0  0
   15.9699  -16.6590   21.9638 C   0  0  1  0  0  0  0  0  0  0  0  0
   16.2533  -15.3028   22.1128 O   0  0  0  0  0  0  0  0  0  0  0  0
   14.7836  -17.0277   22.8491 C   0  0  2  0  0  0  0  0  0  0  0  0
   13.6328  -16.2078   22.4429 N   0  0  0  0  0  0  0  0  0  0  0  0
   15.0751  -16.8092   24.2712 C   0  0  0  0  0  0  0  0  0  0  0  0
   14.5271  -15.8829   24.9460 O   0  0  0  0  0  0  0  0  0  0  0  0
   15.9811  -17.6445   24.8983 O   0  0  0  0  0  0  0  0  0  0  0  0
  2  1  1  0
  3  2  1  0
  4  3  2  0
  5  6  1  0
  7  6  1  1
  7  9  1  0
  7  8  1  0
  8  3  1  0
  9 15  1  0
 10  9  2  0
 12 11  1  6
 12 13  1  0
 14 12  1  0
 14 16  1  0
 14 15  1  6
 16 17  2  0
 16 18  1  0
M  END
$$$$
