GST.pdb
     RDKit          3D

 18 17  0  0  1  0  0  0  0  0999 V2000
    9.6331  -19.1830   21.6167 N   0  0  0  0  0  0  0  0  0  0  0  0
   10.1357  -18.9259   22.9395 C   0  0  0  0  0  0  0  0  0  0  0  0
   11.2666  -17.9390   22.8862 C   0  0  0  0  0  0  0  0  0  0  0  0
   11.7700  -17.5984   21.7993 O   0  0  0  0  0  0  0  0  0  0  0  0
   12.9141  -16.1906   26.4712 O   0  0  0  0  0  0  0  0  0  0  0  0
   12.8286  -15.4846   25.2879 C   0  0  0  0  0  0  0  0  0  0  0  0
   12.8141  -16.3589   24.0714 C   0  0  2  0  0  0  0  0  0  0  0  0
   11.8051  -17.3576   24.0639 N   0  0  0  0  0  0  0  0  0  0  0  0
   14.1657  -16.9996   23.9743 C   0  0  0  0  0  0  0  0  0  0  0  0
   14.3939  -18.1223   24.4976 O   0  0  0  0  0  0  0  0  0  0  0  0
   18.7553  -16.8883   21.9990 C   0  0  0  0  0  0  0  0  0  0  0  0
   17.3792  -16.2782   22.1419 C   0  0  1  0  0  0  0  0  0  0  0  0
   16.7269  -16.4302   20.9198 O   0  0  0  0  0  0  0  0  0  0  0  0
   16.5801  -16.9845   23.2326 C   0  0  2  0  0  0  0  0  0  0  0  0
   15.2435  -16.3751   23.2928 N   0  0  0  0  0  0  0  0  0  0  0  0
   17.2351  -16.8816   24.5424 C   0  0  0  0  0  0  0  0  0  0  0  0
   17.1291  -15.8527   25.2799 O   0  0  0  0  0  0  0  0  0  0  0  0
   17.9961  -17.9463   24.9886 O   0  0  0  0  0  0  0  0  0  0  0  0
  2  1  1  0
  3  2  1  0
  4  3  2  0
  5  6  1  0
  7  6  1  1
  7  9  1  0
  7  8  1  0
  8  3  1  0
  9 15  1  0
 10  9  2  0
 12 11  1  6
 12 13  1  0
 14 12  1  0
 14 16  1  0
 14 15  1  1
 16 17  2  0
 16 18  1  0
M  END
$$$$
