GST.pdb
     RDKit          3D

 18 17  0  0  1  0  0  0  0  0999 V2000
    7.0524  -15.5625   18.6610 N   0  0  0  0  0  0  0  0  0  0  0  0
    6.4599  -15.3058   19.9461 C   0  0  0  0  0  0  0  0  0  0  0  0
    7.5266  -15.1512   20.9920 C   0  0  0  0  0  0  0  0  0  0  0  0
    8.7306  -15.2904   20.7057 O   0  0  0  0  0  0  0  0  0  0  0  0
    6.3897  -13.4098   24.4365 O   0  0  0  0  0  0  0  0  0  0  0  0
    7.6432  -13.9651   24.5982 C   0  0  0  0  0  0  0  0  0  0  0  0
    8.1757  -14.6080   23.3541 C   0  0  2  0  0  0  0  0  0  0  0  0
    7.2095  -14.8422   22.3407 N   0  0  0  0  0  0  0  0  0  0  0  0
    8.8075  -15.9037   23.7648 C   0  0  0  0  0  0  0  0  0  0  0  0
    8.1127  -16.9377   23.9502 O   0  0  0  0  0  0  0  0  0  0  0  0
   12.1273  -17.1104   22.1082 C   0  0  0  0  0  0  0  0  0  0  0  0
   12.2255  -17.3270   23.6015 C   0  0  1  0  0  0  0  0  0  0  0  0
   12.9839  -16.2818   24.1253 O   0  0  0  0  0  0  0  0  0  0  0  0
   10.8427  -17.3203   24.2456 C   0  0  2  0  0  0  0  0  0  0  0  0
   10.2084  -16.0246   23.9623 N   0  0  0  0  0  0  0  0  0  0  0  0
   10.9153  -17.5341   25.6961 C   0  0  0  0  0  0  0  0  0  0  0  0
   10.6056  -16.6322   26.5355 O   0  0  0  0  0  0  0  0  0  0  0  0
   11.3369  -18.7647   26.1647 O   0  0  0  0  0  0  0  0  0  0  0  0
  2  1  1  0
  3  2  1  0
  4  3  2  0
  5  6  1  0
  7  6  1  1
  7  9  1  0
  7  8  1  0
  8  3  1  0
  9 15  1  0
 10  9  2  0
 12 11  1  6
 12 13  1  0
 14 12  1  0
 14 16  1  0
 14 15  1  1
 16 17  2  0
 16 18  1  0
M  END
$$$$
