GST.pdb
     RDKit          3D

 18 17  0  0  1  0  0  0  0  0999 V2000
    8.5412  -17.4568   17.2002 N   0  0  0  0  0  0  0  0  0  0  0  0
    7.6291  -17.0135   18.2201 C   0  0  0  0  0  0  0  0  0  0  0  0
    8.3835  -16.4045   19.3671 C   0  0  0  0  0  0  0  0  0  0  0  0
    9.6284  -16.4224   19.3978 O   0  0  0  0  0  0  0  0  0  0  0  0
    6.3244  -14.8788   22.7983 O   0  0  0  0  0  0  0  0  0  0  0  0
    7.5226  -14.3106   22.4148 C   0  0  0  0  0  0  0  0  0  0  0  0
    8.3720  -15.2176   21.5778 C   0  0  2  0  0  0  0  0  0  0  0  0
    7.7141  -15.7874   20.4562 N   0  0  0  0  0  0  0  0  0  0  0  0
    8.8757  -16.3040   22.4792 C   0  0  0  0  0  0  0  0  0  0  0  0
    8.3388  -17.4433   22.4897 O   0  0  0  0  0  0  0  0  0  0  0  0
   12.8118  -16.3825   22.8438 C   0  0  0  0  0  0  0  0  0  0  0  0
   11.8784  -17.5623   22.9968 C   0  0  1  0  0  0  0  0  0  0  0  0
   12.6191  -18.6127   23.5353 O   0  0  0  0  0  0  0  0  0  0  0  0
   10.7232  -17.2256   23.9344 C   0  0  2  0  0  0  0  0  0  0  0  0
    9.9733  -16.1006   23.3567 N   0  0  0  0  0  0  0  0  0  0  0  0
   11.1963  -16.8725   25.2785 C   0  0  0  0  0  0  0  0  0  0  0  0
   11.1713  -15.6816   25.7201 O   0  0  0  0  0  0  0  0  0  0  0  0
   11.6874  -17.8757   26.0933 O   0  0  0  0  0  0  0  0  0  0  0  0
  2  1  1  0
  3  2  1  0
  4  3  2  0
  5  6  1  0
  7  6  1  1
  7  9  1  0
  7  8  1  0
  8  3  1  0
  9 15  1  0
 10  9  2  0
 12 11  1  1
 12 13  1  0
 14 12  1  0
 14 16  1  0
 14 15  1  6
 16 17  2  0
 16 18  1  0
M  END
$$$$
