GST.pdb
     RDKit          3D

 18 17  0  0  1  0  0  0  0  0999 V2000
    4.9227  -19.8076   21.2663 N   0  0  0  0  0  0  0  0  0  0  0  0
    4.7607  -18.9607   22.4174 C   0  0  0  0  0  0  0  0  0  0  0  0
    6.0981  -18.6309   23.0160 C   0  0  0  0  0  0  0  0  0  0  0  0
    7.1458  -19.1214   22.5549 O   0  0  0  0  0  0  0  0  0  0  0  0
    6.2486  -15.3618   25.2695 O   0  0  0  0  0  0  0  0  0  0  0  0
    7.4380  -16.0470   25.4159 C   0  0  0  0  0  0  0  0  0  0  0  0
    7.4619  -17.3609   24.6962 C   0  0  2  0  0  0  0  0  0  0  0  0
    6.2230  -17.7527   24.1242 N   0  0  0  0  0  0  0  0  0  0  0  0
    7.9173  -18.3940   25.6821 C   0  0  0  0  0  0  0  0  0  0  0  0
    7.1455  -18.8222   26.5807 O   0  0  0  0  0  0  0  0  0  0  0  0
   10.2664  -21.4524   24.5660 C   0  0  0  0  0  0  0  0  0  0  0  0
   10.7580  -20.8107   25.8438 C   0  0  1  0  0  0  0  0  0  0  0  0
   11.7834  -19.9316   25.5010 O   0  0  0  0  0  0  0  0  0  0  0  0
    9.6376  -20.0369   26.5314 C   0  0  2  0  0  0  0  0  0  0  0  0
    9.2301  -18.9338   25.6489 N   0  0  0  0  0  0  0  0  0  0  0  0
   10.0605  -19.5049   27.8327 C   0  0  0  0  0  0  0  0  0  0  0  0
   10.2692  -18.2673   28.0292 O   0  0  0  0  0  0  0  0  0  0  0  0
   10.2378  -20.3862   28.8833 O   0  0  0  0  0  0  0  0  0  0  0  0
  2  1  1  0
  3  2  1  0
  4  3  2  0
  5  6  1  0
  7  6  1  1
  7  9  1  0
  7  8  1  0
  8  3  1  0
  9 15  1  0
 10  9  2  0
 12 11  1  6
 12 13  1  0
 14 12  1  0
 14 16  1  0
 14 15  1  6
 16 17  2  0
 16 18  1  0
M  END
$$$$
