GST.pdb
     RDKit          3D

 18 17  0  0  1  0  0  0  0  0999 V2000
    0.9179  -20.0266   20.3102 N   0  0  0  0  0  0  0  0  0  0  0  0
    1.6722  -19.2606   21.2656 C   0  0  0  0  0  0  0  0  0  0  0  0
    2.9997  -19.9126   21.5269 C   0  0  0  0  0  0  0  0  0  0  0  0
    3.1961  -21.1073   21.2352 O   0  0  0  0  0  0  0  0  0  0  0  0
    6.2568  -17.5049   22.4150 O   0  0  0  0  0  0  0  0  0  0  0  0
    6.5058  -18.8072   22.0306 C   0  0  0  0  0  0  0  0  0  0  0  0
    5.3729  -19.7427   22.3241 C   0  0  2  0  0  0  0  0  0  0  0  0
    4.0782  -19.1996   22.1131 N   0  0  0  0  0  0  0  0  0  0  0  0
    5.5177  -20.1743   23.7521 C   0  0  0  0  0  0  0  0  0  0  0  0
    5.0414  -19.4853   24.6927 O   0  0  0  0  0  0  0  0  0  0  0  0
    7.1332  -24.0747   24.7300 C   0  0  0  0  0  0  0  0  0  0  0  0
    5.9810  -23.3940   25.4339 C   0  0  1  0  0  0  0  0  0  0  0  0
    5.9293  -23.8980   26.7320 O   0  0  0  0  0  0  0  0  0  0  0  0
    6.1895  -21.8838   25.4860 C   0  0  2  0  0  0  0  0  0  0  0  0
    6.1937  -21.3712   24.1080 N   0  0  0  0  0  0  0  0  0  0  0  0
    7.4475  -21.5292   26.1544 C   0  0  0  0  0  0  0  0  0  0  0  0
    8.4329  -21.0244   25.5315 O   0  0  0  0  0  0  0  0  0  0  0  0
    7.5623  -21.7541   27.5138 O   0  0  0  0  0  0  0  0  0  0  0  0
  2  1  1  0
  3  2  1  0
  4  3  2  0
  5  6  1  0
  7  6  1  1
  7  9  1  0
  7  8  1  0
  8  3  1  0
  9 15  1  0
 10  9  2  0
 12 11  1  6
 12 13  1  0
 14 12  1  0
 14 16  1  0
 14 15  1  6
 16 17  2  0
 16 18  1  0
M  END
$$$$
