GST.pdb
     RDKit          3D

 18 17  0  0  1  0  0  0  0  0999 V2000
    7.0050  -17.8185   18.3701 N   0  0  0  0  0  0  0  0  0  0  0  0
    6.2343  -17.1754   19.4002 C   0  0  0  0  0  0  0  0  0  0  0  0
    7.1119  -16.8240   20.5672 C   0  0  0  0  0  0  0  0  0  0  0  0
    8.3132  -17.1516   20.5880 O   0  0  0  0  0  0  0  0  0  0  0  0
    7.7854  -14.1179   24.5477 O   0  0  0  0  0  0  0  0  0  0  0  0
    6.9768  -14.4698   23.4856 C   0  0  0  0  0  0  0  0  0  0  0  0
    7.3952  -15.7416   22.8131 C   0  0  2  0  0  0  0  0  0  0  0  0
    6.6125  -16.1089   21.6871 N   0  0  0  0  0  0  0  0  0  0  0  0
    7.3395  -16.8248   23.8476 C   0  0  0  0  0  0  0  0  0  0  0  0
    6.2469  -17.1723   24.3691 O   0  0  0  0  0  0  0  0  0  0  0  0
    8.1164  -20.3148   23.5352 C   0  0  0  0  0  0  0  0  0  0  0  0
    8.9968  -19.8504   24.6735 C   0  0  1  0  0  0  0  0  0  0  0  0
   10.2637  -19.6053   24.1473 O   0  0  0  0  0  0  0  0  0  0  0  0
    8.4518  -18.5692   25.2967 C   0  0  2  0  0  0  0  0  0  0  0  0
    8.5072  -17.5044   24.2844 N   0  0  0  0  0  0  0  0  0  0  0  0
    9.2187  -18.1703   26.4832 C   0  0  0  0  0  0  0  0  0  0  0  0
    9.2537  -18.8723   27.5414 O   0  0  0  0  0  0  0  0  0  0  0  0
    9.9294  -16.9849   26.4456 O   0  0  0  0  0  0  0  0  0  0  0  0
  2  1  1  0
  3  2  1  0
  4  3  2  0
  5  6  1  0
  7  6  1  1
  7  9  1  0
  7  8  1  0
  8  3  1  0
  9 15  1  0
 10  9  2  0
 12 11  1  6
 12 13  1  0
 14 12  1  0
 14 16  1  0
 14 15  1  6
 16 17  2  0
 16 18  1  0
M  END
$$$$
