GST.pdb
     RDKit          3D

 18 17  0  0  1  0  0  0  0  0999 V2000
    8.2198  -14.8785   13.6123 N   0  0  0  0  0  0  0  0  0  0  0  0
    7.7434  -15.0759   14.9549 C   0  0  0  0  0  0  0  0  0  0  0  0
    8.5868  -14.3026   15.9278 C   0  0  0  0  0  0  0  0  0  0  0  0
    9.6908  -13.8356   15.5898 O   0  0  0  0  0  0  0  0  0  0  0  0
    7.4458  -14.0112   20.0579 O   0  0  0  0  0  0  0  0  0  0  0  0
    8.2561  -13.0448   19.4966 C   0  0  0  0  0  0  0  0  0  0  0  0
    8.9871  -13.5145   18.2761 C   0  0  2  0  0  0  0  0  0  0  0  0
    8.1640  -14.0732   17.2633 N   0  0  0  0  0  0  0  0  0  0  0  0
    9.9950  -14.5270   18.7297 C   0  0  0  0  0  0  0  0  0  0  0  0
    9.7787  -15.7617   18.6077 O   0  0  0  0  0  0  0  0  0  0  0  0
   14.6450  -15.4721   20.2328 C   0  0  0  0  0  0  0  0  0  0  0  0
   13.6010  -14.5339   19.6704 C   0  0  1  0  0  0  0  0  0  0  0  0
   13.9033  -14.3323   18.3251 O   0  0  0  0  0  0  0  0  0  0  0  0
   12.2049  -15.1371   19.7898 C   0  0  2  0  0  0  0  0  0  0  0  0
   11.2312  -14.1438   19.3136 N   0  0  0  0  0  0  0  0  0  0  0  0
   11.8921  -15.5199   21.1721 C   0  0  0  0  0  0  0  0  0  0  0  0
   11.3067  -14.7355   21.9820 O   0  0  0  0  0  0  0  0  0  0  0  0
   12.2491  -16.7828   21.6073 O   0  0  0  0  0  0  0  0  0  0  0  0
  2  1  1  0
  3  2  1  0
  4  3  2  0
  5  6  1  0
  7  6  1  1
  7  9  1  0
  7  8  1  0
  8  3  1  0
  9 15  1  0
 10  9  2  0
 12 11  1  6
 12 13  1  0
 14 12  1  0
 14 16  1  0
 14 15  1  1
 16 17  2  0
 16 18  1  0
M  END
$$$$
