GST.pdb
     RDKit          3D

 18 17  0  0  1  0  0  0  0  0999 V2000
    7.8700  -17.9546   16.5993 N   0  0  0  0  0  0  0  0  0  0  0  0
    7.5672  -18.7075   17.7868 C   0  0  0  0  0  0  0  0  0  0  0  0
    7.0077  -17.8053   18.8492 C   0  0  0  0  0  0  0  0  0  0  0  0
    7.0756  -16.5666   18.7398 O   0  0  0  0  0  0  0  0  0  0  0  0
    5.2057  -19.2902   22.5583 O   0  0  0  0  0  0  0  0  0  0  0  0
    4.7786  -18.1704   21.8733 C   0  0  0  0  0  0  0  0  0  0  0  0
    5.8569  -17.5210   21.0606 C   0  0  2  0  0  0  0  0  0  0  0  0
    6.3827  -18.3229   20.0138 N   0  0  0  0  0  0  0  0  0  0  0  0
    6.9526  -17.1389   22.0093 C   0  0  0  0  0  0  0  0  0  0  0  0
    8.0035  -17.8269   22.1023 O   0  0  0  0  0  0  0  0  0  0  0  0
    7.9514  -13.2781   22.8136 C   0  0  0  0  0  0  0  0  0  0  0  0
    7.7937  -14.1147   24.0633 C   0  0  1  0  0  0  0  0  0  0  0  0
    6.5154  -13.8777   24.5650 O   0  0  0  0  0  0  0  0  0  0  0  0
    7.9457  -15.5995   23.7483 C   0  0  2  0  0  0  0  0  0  0  0  0
    6.8573  -15.9921   22.8411 N   0  0  0  0  0  0  0  0  0  0  0  0
    7.9040  -16.4223   24.9634 C   0  0  0  0  0  0  0  0  0  0  0  0
    6.9517  -17.2255   25.2117 O   0  0  0  0  0  0  0  0  0  0  0  0
    8.9418  -16.3175   25.8709 O   0  0  0  0  0  0  0  0  0  0  0  0
  2  1  1  0
  3  2  1  0
  4  3  2  0
  5  6  1  0
  7  6  1  1
  7  9  1  0
  7  8  1  0
  8  3  1  0
  9 15  1  0
 10  9  2  0
 12 11  1  6
 12 13  1  0
 14 12  1  0
 14 16  1  0
 14 15  1  6
 16 17  2  0
 16 18  1  0
M  END
$$$$
