GST.pdb
     RDKit          3D

 18 17  0  0  1  0  0  0  0  0999 V2000
    8.0227  -17.6348   14.9977 N   0  0  0  0  0  0  0  0  0  0  0  0
    7.7804  -18.5300   16.0970 C   0  0  0  0  0  0  0  0  0  0  0  0
    7.2761  -17.7688   17.2894 C   0  0  0  0  0  0  0  0  0  0  0  0
    7.0799  -16.5404   17.2303 O   0  0  0  0  0  0  0  0  0  0  0  0
    5.0324  -19.4975   20.3558 O   0  0  0  0  0  0  0  0  0  0  0  0
    6.0330  -18.6432   20.7738 C   0  0  0  0  0  0  0  0  0  0  0  0
    6.5415  -17.7441   19.6886 C   0  0  2  0  0  0  0  0  0  0  0  0
    7.0040  -18.4129   18.5248 N   0  0  0  0  0  0  0  0  0  0  0  0
    7.6491  -16.9249   20.2794 C   0  0  0  0  0  0  0  0  0  0  0  0
    8.8520  -17.2828   20.1740 O   0  0  0  0  0  0  0  0  0  0  0  0
    7.5089  -12.8850   20.3065 C   0  0  0  0  0  0  0  0  0  0  0  0
    7.9516  -13.4466   21.6387 C   0  0  1  0  0  0  0  0  0  0  0  0
    6.8374  -13.4621   22.4755 O   0  0  0  0  0  0  0  0  0  0  0  0
    8.4854  -14.8669   21.4815 C   0  0  2  0  0  0  0  0  0  0  0  0
    7.3952  -15.7163   20.9800 N   0  0  0  0  0  0  0  0  0  0  0  0
    8.9925  -15.4030   22.7506 C   0  0  0  0  0  0  0  0  0  0  0  0
   10.0140  -14.9240   23.3346 O   0  0  0  0  0  0  0  0  0  0  0  0
    8.3319  -16.4701   23.3307 O   0  0  0  0  0  0  0  0  0  0  0  0
  2  1  1  0
  3  2  1  0
  4  3  2  0
  5  6  1  0
  7  6  1  1
  7  9  1  0
  7  8  1  0
  8  3  1  0
  9 15  1  0
 10  9  2  0
 12 11  1  6
 12 13  1  0
 14 12  1  0
 14 16  1  0
 14 15  1  1
 16 17  2  0
 16 18  1  0
M  END
$$$$
