GST.pdb
     RDKit          3D

 18 17  0  0  1  0  0  0  0  0999 V2000
    8.7460  -12.7976   12.0966 N   0  0  0  0  0  0  0  0  0  0  0  0
    9.3637  -13.9686   12.6584 C   0  0  0  0  0  0  0  0  0  0  0  0
    8.6705  -14.3660   13.9302 C   0  0  0  0  0  0  0  0  0  0  0  0
    7.9781  -13.5490   14.5657 O   0  0  0  0  0  0  0  0  0  0  0  0
    7.4216  -17.9478   17.0106 O   0  0  0  0  0  0  0  0  0  0  0  0
    8.1313  -17.5766   15.8862 C   0  0  0  0  0  0  0  0  0  0  0  0
    8.2040  -16.0931   15.6896 C   0  0  2  0  0  0  0  0  0  0  0  0
    8.7750  -15.6799   14.4572 N   0  0  0  0  0  0  0  0  0  0  0  0
    8.9996  -15.5367   16.8316 C   0  0  0  0  0  0  0  0  0  0  0  0
   10.2514  -15.4185   16.7573 O   0  0  0  0  0  0  0  0  0  0  0  0
    7.8175  -12.5004   19.2062 C   0  0  0  0  0  0  0  0  0  0  0  0
    8.2669  -13.7012   20.0078 C   0  0  1  0  0  0  0  0  0  0  0  0
    7.1235  -14.4044   20.3817 O   0  0  0  0  0  0  0  0  0  0  0  0
    9.1675  -14.6073   19.1742 C   0  0  2  0  0  0  0  0  0  0  0  0
    8.3835  -15.1203   18.0411 N   0  0  0  0  0  0  0  0  0  0  0  0
    9.6959  -15.7268   19.9632 C   0  0  0  0  0  0  0  0  0  0  0  0
    9.3340  -16.9291   19.7700 O   0  0  0  0  0  0  0  0  0  0  0  0
   10.6228  -15.4605   20.9540 O   0  0  0  0  0  0  0  0  0  0  0  0
  2  1  1  0
  3  2  1  0
  4  3  2  0
  5  6  1  0
  7  6  1  6
  7  9  1  0
  7  8  1  0
  8  3  1  0
  9 15  1  0
 10  9  2  0
 12 11  1  6
 12 13  1  0
 14 12  1  0
 14 16  1  0
 14 15  1  6
 16 17  2  0
 16 18  1  0
M  END
$$$$
