HPG.pdb
     RDKit          3D

 22 23  0  0  1  0  0  0  0  0999 V2000
    6.0728  -15.9046   25.0458 N   0  0  0  0  0  0  0  0  0  0  0  0
    6.6781  -14.9300   24.1928 C   0  0  1  0  0  0  0  0  0  0  0  0
    7.7517  -14.1533   24.9517 C   0  0  0  0  0  0  0  0  0  0  0  0
    7.1029  -13.3546   26.0245 C   0  0  0  0  0  0  0  0  0  0  0  0
    5.9033  -12.7007   25.9261 C   0  0  0  0  0  0  0  0  0  0  0  0
    5.6736  -12.1037   27.1005 N   0  0  0  0  0  0  0  0  0  0  0  0
    6.6987  -12.3776   27.9051 C   0  0  0  0  0  0  0  0  0  0  0  0
    7.5752  -13.1401   27.2567 N   0  0  0  0  0  0  0  0  0  0  0  0
    7.1963  -15.4394   22.9074 C   0  0  0  0  0  0  0  0  0  0  0  0
    7.1430  -16.7208   22.7373 O   0  0  0  0  0  0  0  0  0  0  0  0
    7.7402  -14.6670   21.8552 N   0  0  0  0  0  0  0  0  0  0  0  0
    8.0897  -13.2890   21.7563 C   0  0  0  0  0  0  0  0  0  0  0  0
    7.4571  -12.9093   20.4252 C   0  0  0  0  0  0  0  0  0  0  0  0
    7.7184  -14.1395   19.5925 C   0  0  0  0  0  0  0  0  0  0  0  0
    8.0721  -15.2454   20.5474 C   0  0  1  0  0  0  0  0  0  0  0  0
    9.4868  -15.5846   20.4027 C   0  0  0  0  0  0  0  0  0  0  0  0
   10.2880  -14.9858   21.1977 O   0  0  0  0  0  0  0  0  0  0  0  0
   10.0549  -16.4855   19.4956 N   0  0  0  0  0  0  0  0  0  0  0  0
   10.5666  -17.7714   19.9219 C   0  0  0  0  0  0  0  0  0  0  0  0
   11.9447  -17.6648   20.4356 C   0  0  0  0  0  0  0  0  0  0  0  0
   12.5731  -16.4335   20.5991 O   0  0  0  0  0  0  0  0  0  0  0  0
   12.5495  -18.7401   20.7282 O   0  0  0  0  0  0  0  0  0  0  0  0
  2  1  1  1
  3  2  1  0
  3  4  1  0
  4  5  2  0
  6  5  1  0
  7  6  1  0
  8  7  2  0
  8  4  1  0
  9 10  2  0
  9  2  1  0
 11  9  1  0
 12 11  1  0
 13 12  1  0
 14 13  1  0
 14 15  1  0
 15 16  1  1
 15 11  1  0
 16 18  1  0
 17 16  2  0
 18 19  1  0
 20 21  1  0
 20 19  1  0
 22 20  2  0
M  END
$$$$
