HPG.pdb
     RDKit          3D

 22 23  0  0  1  0  0  0  0  0999 V2000
    6.7648  -19.9329   24.2443 N   0  0  0  0  0  0  0  0  0  0  0  0
    7.2533  -18.6656   24.6906 C   0  0  1  0  0  0  0  0  0  0  0  0
    8.2466  -18.8522   25.8352 C   0  0  0  0  0  0  0  0  0  0  0  0
    7.5697  -19.5631   26.9516 C   0  0  0  0  0  0  0  0  0  0  0  0
    6.2521  -19.9361   26.9855 C   0  0  0  0  0  0  0  0  0  0  0  0
    6.0376  -20.5471   28.1557 N   0  0  0  0  0  0  0  0  0  0  0  0
    7.1863  -20.5541   28.8293 C   0  0  0  0  0  0  0  0  0  0  0  0
    8.1262  -19.9558   28.1020 N   0  0  0  0  0  0  0  0  0  0  0  0
    7.8081  -17.7886   23.6403 C   0  0  0  0  0  0  0  0  0  0  0  0
    8.0598  -18.3493   22.5018 O   0  0  0  0  0  0  0  0  0  0  0  0
    8.0879  -16.4077   23.7596 N   0  0  0  0  0  0  0  0  0  0  0  0
    7.8229  -15.4593   24.7897 C   0  0  0  0  0  0  0  0  0  0  0  0
    7.2491  -14.2967   23.9928 C   0  0  0  0  0  0  0  0  0  0  0  0
    8.1069  -14.3139   22.7524 C   0  0  0  0  0  0  0  0  0  0  0  0
    8.7857  -15.6546   22.7103 C   0  0  1  0  0  0  0  0  0  0  0  0
   10.2156  -15.4887   22.9654 C   0  0  0  0  0  0  0  0  0  0  0  0
   10.5497  -15.3357   24.1892 O   0  0  0  0  0  0  0  0  0  0  0  0
   11.2501  -15.4784   22.0236 N   0  0  0  0  0  0  0  0  0  0  0  0
   12.5866  -15.9240   22.3586 C   0  0  0  0  0  0  0  0  0  0  0  0
   13.4994  -15.8197   21.2051 C   0  0  0  0  0  0  0  0  0  0  0  0
   14.7418  -15.2003   21.3071 O   0  0  0  0  0  0  0  0  0  0  0  0
   13.1161  -16.3165   20.1033 O   0  0  0  0  0  0  0  0  0  0  0  0
  2  1  1  6
  3  2  1  0
  3  4  1  0
  4  5  2  0
  6  5  1  0
  7  6  1  0
  8  7  2  0
  8  4  1  0
  9 10  2  0
  9  2  1  0
 11  9  1  0
 12 11  1  0
 13 12  1  0
 14 13  1  0
 14 15  1  0
 15 16  1  1
 15 11  1  0
 16 18  1  0
 17 16  2  0
 18 19  1  0
 20 21  1  0
 20 19  1  0
 22 20  2  0
M  END
$$$$
