HPG.pdb
     RDKit          3D

 22 23  0  0  1  0  0  0  0  0999 V2000
   10.2583  -15.5258   15.5235 N   0  0  0  0  0  0  0  0  0  0  0  0
    9.2223  -15.1553   16.4363 C   0  0  1  0  0  0  0  0  0  0  0  0
    8.1567  -16.2471   16.5020 C   0  0  0  0  0  0  0  0  0  0  0  0
    7.7272  -16.5871   15.1201 C   0  0  0  0  0  0  0  0  0  0  0  0
    7.4694  -15.6924   14.1154 C   0  0  0  0  0  0  0  0  0  0  0  0
    7.1125  -16.3941   13.0344 N   0  0  0  0  0  0  0  0  0  0  0  0
    7.1471  -17.6858   13.3563 C   0  0  0  0  0  0  0  0  0  0  0  0
    7.5211  -17.8124   14.6268 N   0  0  0  0  0  0  0  0  0  0  0  0
    9.6707  -14.7653   17.7880 C   0  0  0  0  0  0  0  0  0  0  0  0
   10.9048  -15.0240   18.0774 O   0  0  0  0  0  0  0  0  0  0  0  0
    8.8867  -14.1423   18.7864 N   0  0  0  0  0  0  0  0  0  0  0  0
    7.5066  -13.7919   18.8447 C   0  0  0  0  0  0  0  0  0  0  0  0
    7.5772  -12.3615   19.3594 C   0  0  0  0  0  0  0  0  0  0  0  0
    8.7009  -12.4448   20.3621 C   0  0  0  0  0  0  0  0  0  0  0  0
    9.4489  -13.7166   20.0739 C   0  0  1  0  0  0  0  0  0  0  0  0
    9.2214  -14.6751   21.1541 C   0  0  0  0  0  0  0  0  0  0  0  0
    8.1865  -15.4149   21.0345 O   0  0  0  0  0  0  0  0  0  0  0  0
   10.0061  -14.8688   22.2960 N   0  0  0  0  0  0  0  0  0  0  0  0
   10.0645  -16.1497   22.9690 C   0  0  0  0  0  0  0  0  0  0  0  0
   11.4181  -16.7320   22.9129 C   0  0  0  0  0  0  0  0  0  0  0  0
   11.9589  -17.2172   21.7255 O   0  0  0  0  0  0  0  0  0  0  0  0
   12.0846  -16.7791   23.9905 O   0  0  0  0  0  0  0  0  0  0  0  0
  2  1  1  6
  3  2  1  0
  3  4  1  0
  4  5  2  0
  6  5  1  0
  7  6  1  0
  8  7  2  0
  8  4  1  0
  9 10  2  0
  9  2  1  0
 11  9  1  0
 12 11  1  0
 13 12  1  0
 14 13  1  0
 14 15  1  0
 15 16  1  1
 15 11  1  0
 16 18  1  0
 17 16  2  0
 18 19  1  0
 20 21  1  0
 20 19  1  0
 22 20  2  0
M  END
$$$$
