HPG.pdb
     RDKit          3D

 22 23  0  0  1  0  0  0  0  0999 V2000
    6.6470  -17.3953   26.2177 N   0  0  0  0  0  0  0  0  0  0  0  0
    7.0745  -16.2295   25.5092 C   0  0  1  0  0  0  0  0  0  0  0  0
    7.8863  -15.3180   26.4268 C   0  0  0  0  0  0  0  0  0  0  0  0
    7.1320  -14.0558   26.6446 C   0  0  0  0  0  0  0  0  0  0  0  0
    5.9624  -13.7013   26.0259 C   0  0  0  0  0  0  0  0  0  0  0  0
    5.6094  -12.4988   26.4928 N   0  0  0  0  0  0  0  0  0  0  0  0
    6.5308  -12.1167   27.3748 C   0  0  0  0  0  0  0  0  0  0  0  0
    7.4633  -13.0605   27.4735 N   0  0  0  0  0  0  0  0  0  0  0  0
    7.7857  -16.4783   24.2393 C   0  0  0  0  0  0  0  0  0  0  0  0
    8.1475  -17.7003   24.0169 O   0  0  0  0  0  0  0  0  0  0  0  0
    8.1059  -15.5169   23.2530 N   0  0  0  0  0  0  0  0  0  0  0  0
    7.8996  -14.1086   23.1815 C   0  0  0  0  0  0  0  0  0  0  0  0
    7.3315  -13.9551   21.7780 C   0  0  0  0  0  0  0  0  0  0  0  0
    8.1480  -14.9555   20.9988 C   0  0  0  0  0  0  0  0  0  0  0  0
    8.7892  -15.8721   22.0032 C   0  0  1  0  0  0  0  0  0  0  0  0
   10.2305  -15.6299   22.0383 C   0  0  0  0  0  0  0  0  0  0  0  0
   10.6600  -14.9646   23.0410 O   0  0  0  0  0  0  0  0  0  0  0  0
   11.1834  -16.0430   21.1010 N   0  0  0  0  0  0  0  0  0  0  0  0
   11.9172  -17.2814   21.2593 C   0  0  0  0  0  0  0  0  0  0  0  0
   12.9157  -17.1871   22.3404 C   0  0  0  0  0  0  0  0  0  0  0  0
   14.2807  -17.2923   22.0888 O   0  0  0  0  0  0  0  0  0  0  0  0
   12.4908  -17.0051   23.5211 O   0  0  0  0  0  0  0  0  0  0  0  0
  2  1  1  1
  3  2  1  0
  3  4  1  0
  4  5  2  0
  6  5  1  0
  7  6  1  0
  8  7  2  0
  8  4  1  0
  9 10  2  0
  9  2  1  0
 11  9  1  0
 12 11  1  0
 13 12  1  0
 14 13  1  0
 14 15  1  0
 15 16  1  1
 15 11  1  0
 16 18  1  0
 17 16  2  0
 18 19  1  0
 20 21  1  0
 20 19  1  0
 22 20  2  0
M  END
$$$$
