HPG.pdb
     RDKit          3D

 22 23  0  0  1  0  0  0  0  0999 V2000
    9.8050  -14.7590   21.6780 N   0  0  0  0  0  0  0  0  0  0  0  0
    8.6598  -14.2197   22.3425 C   0  0  1  0  0  0  0  0  0  0  0  0
    7.3943  -14.5077   21.5380 C   0  0  0  0  0  0  0  0  0  0  0  0
    7.6334  -14.1482   20.1156 C   0  0  0  0  0  0  0  0  0  0  0  0
    8.2002  -12.9855   19.6647 C   0  0  0  0  0  0  0  0  0  0  0  0
    8.2373  -13.0482   18.3293 N   0  0  0  0  0  0  0  0  0  0  0  0
    7.7100  -14.2140   17.9605 C   0  0  0  0  0  0  0  0  0  0  0  0
    7.3390  -14.8912   19.0439 N   0  0  0  0  0  0  0  0  0  0  0  0
    8.4955  -14.6154   23.7555 C   0  0  0  0  0  0  0  0  0  0  0  0
    9.3923  -15.4165   24.2326 O   0  0  0  0  0  0  0  0  0  0  0  0
    7.4608  -14.2059   24.6280 N   0  0  0  0  0  0  0  0  0  0  0  0
    6.2572  -13.4735   24.4140 C   0  0  0  0  0  0  0  0  0  0  0  0
    6.3106  -12.4616   25.5494 C   0  0  0  0  0  0  0  0  0  0  0  0
    6.8705  -13.2887   26.6796 C   0  0  0  0  0  0  0  0  0  0  0  0
    7.4732  -14.5197   26.0621 C   0  0  1  0  0  0  0  0  0  0  0  0
    6.6662  -15.6882   26.4095 C   0  0  0  0  0  0  0  0  0  0  0  0
    5.6096  -15.8635   25.7126 O   0  0  0  0  0  0  0  0  0  0  0  0
    6.9217  -16.6276   27.4142 N   0  0  0  0  0  0  0  0  0  0  0  0
    7.1212  -18.0293   27.1102 C   0  0  0  0  0  0  0  0  0  0  0  0
    8.4226  -18.5133   27.6069 C   0  0  0  0  0  0  0  0  0  0  0  0
    8.5280  -19.6575   28.3926 O   0  0  0  0  0  0  0  0  0  0  0  0
    9.4567  -17.8495   27.2943 O   0  0  0  0  0  0  0  0  0  0  0  0
  2  1  1  6
  3  2  1  0
  3  4  1  0
  4  5  2  0
  6  5  1  0
  7  6  1  0
  8  7  2  0
  8  4  1  0
  9 10  2  0
  9  2  1  0
 11  9  1  0
 12 11  1  0
 13 12  1  0
 14 13  1  0
 14 15  1  0
 15 16  1  6
 15 11  1  0
 16 18  1  0
 17 16  2  0
 18 19  1  0
 20 21  1  0
 20 19  1  0
 22 20  2  0
M  END
$$$$
