HPG.pdb
     RDKit          3D

 22 23  0  0  1  0  0  0  0  0999 V2000
    8.6063  -14.6838   22.0382 N   0  0  0  0  0  0  0  0  0  0  0  0
    7.7250  -14.3231   23.1045 C   0  0  1  0  0  0  0  0  0  0  0  0
    6.5811  -15.3290   23.2116 C   0  0  0  0  0  0  0  0  0  0  0  0
    6.5851  -16.1959   22.0040 C   0  0  0  0  0  0  0  0  0  0  0  0
    6.8051  -15.7808   20.7173 C   0  0  0  0  0  0  0  0  0  0  0  0
    6.7254  -16.8579   19.9286 N   0  0  0  0  0  0  0  0  0  0  0  0
    6.4637  -17.9109   20.7006 C   0  0  0  0  0  0  0  0  0  0  0  0
    6.3766  -17.5159   21.9681 N   0  0  0  0  0  0  0  0  0  0  0  0
    8.3658  -14.1022   24.4163 C   0  0  0  0  0  0  0  0  0  0  0  0
    9.6036  -14.4653   24.5160 O   0  0  0  0  0  0  0  0  0  0  0  0
    7.7609  -13.5371   25.5626 N   0  0  0  0  0  0  0  0  0  0  0  0
    6.4359  -13.0821   25.8242 C   0  0  0  0  0  0  0  0  0  0  0  0
    6.7006  -11.7327   26.4761 C   0  0  0  0  0  0  0  0  0  0  0  0
    7.9149  -12.0263   27.3211 C   0  0  0  0  0  0  0  0  0  0  0  0
    8.5004  -13.3135   26.8109 C   0  0  1  0  0  0  0  0  0  0  0  0
    8.3023  -14.3695   27.8023 C   0  0  0  0  0  0  0  0  0  0  0  0
    7.1820  -14.9815   27.7490 O   0  0  0  0  0  0  0  0  0  0  0  0
    9.1979  -14.7795   28.7958 N   0  0  0  0  0  0  0  0  0  0  0  0
   10.6012  -14.9958   28.5110 C   0  0  0  0  0  0  0  0  0  0  0  0
   10.8835  -16.4124   28.2142 C   0  0  0  0  0  0  0  0  0  0  0  0
   10.3964  -17.4407   29.0161 O   0  0  0  0  0  0  0  0  0  0  0  0
   11.5916  -16.6713   27.1947 O   0  0  0  0  0  0  0  0  0  0  0  0
  2  1  1  6
  3  2  1  0
  3  4  1  0
  4  5  2  0
  6  5  1  0
  7  6  1  0
  8  7  2  0
  8  4  1  0
  9 10  2  0
  9  2  1  0
 11  9  1  0
 12 11  1  0
 13 12  1  0
 14 13  1  0
 14 15  1  0
 15 16  1  1
 15 11  1  0
 16 18  1  0
 17 16  2  0
 18 19  1  0
 20 21  1  0
 20 19  1  0
 22 20  2  0
M  END
$$$$
