HPG.pdb
     RDKit          3D

 22 23  0  0  1  0  0  0  0  0999 V2000
   10.7588  -15.2855   15.5265 N   0  0  0  0  0  0  0  0  0  0  0  0
    9.6380  -15.0489   16.3819 C   0  0  1  0  0  0  0  0  0  0  0  0
    8.6603  -16.2199   16.3126 C   0  0  0  0  0  0  0  0  0  0  0  0
    8.2452  -16.4200   14.8993 C   0  0  0  0  0  0  0  0  0  0  0  0
    7.6242  -15.4928   14.1049 C   0  0  0  0  0  0  0  0  0  0  0  0
    7.4214  -16.0587   12.9103 N   0  0  0  0  0  0  0  0  0  0  0  0
    7.9013  -17.2999   12.9596 C   0  0  0  0  0  0  0  0  0  0  0  0
    8.4057  -17.5285   14.1693 N   0  0  0  0  0  0  0  0  0  0  0  0
    9.9628  -14.7071   17.7811 C   0  0  0  0  0  0  0  0  0  0  0  0
   11.1693  -14.9686   18.1679 O   0  0  0  0  0  0  0  0  0  0  0  0
    9.0886  -14.1270   18.7292 N   0  0  0  0  0  0  0  0  0  0  0  0
    7.7260  -13.7162   18.6544 C   0  0  0  0  0  0  0  0  0  0  0  0
    7.7890  -12.3355   19.2913 C   0  0  0  0  0  0  0  0  0  0  0  0
    8.7794  -12.5510   20.4083 C   0  0  0  0  0  0  0  0  0  0  0  0
    9.5072  -13.8309   20.1048 C   0  0  1  0  0  0  0  0  0  0  0  0
    9.1142  -14.8588   21.0672 C   0  0  0  0  0  0  0  0  0  0  0  0
    7.8573  -15.0084   21.2413 O   0  0  0  0  0  0  0  0  0  0  0  0
    9.9572  -15.6896   21.8131 N   0  0  0  0  0  0  0  0  0  0  0  0
   10.7154  -15.1872   22.9399 C   0  0  0  0  0  0  0  0  0  0  0  0
   11.5935  -16.2256   23.5105 C   0  0  0  0  0  0  0  0  0  0  0  0
   12.4333  -16.9959   22.7111 O   0  0  0  0  0  0  0  0  0  0  0  0
   11.5620  -16.3995   24.7660 O   0  0  0  0  0  0  0  0  0  0  0  0
  2  1  1  6
  3  2  1  0
  3  4  1  0
  4  5  2  0
  6  5  1  0
  7  6  1  0
  8  7  2  0
  8  4  1  0
  9 10  2  0
  9  2  1  0
 11  9  1  0
 12 11  1  0
 13 12  1  0
 14 13  1  0
 14 15  1  0
 15 16  1  1
 15 11  1  0
 16 18  1  0
 17 16  2  0
 18 19  1  0
 20 21  1  0
 20 19  1  0
 22 20  2  0
M  END
$$$$
