HPG.pdb
     RDKit          3D

 22 23  0  0  1  0  0  0  0  0999 V2000
    9.7871  -14.8701   21.5485 N   0  0  0  0  0  0  0  0  0  0  0  0
    8.7592  -14.2319   22.3100 C   0  0  1  0  0  0  0  0  0  0  0  0
    7.4327  -14.2776   21.5550 C   0  0  0  0  0  0  0  0  0  0  0  0
    7.6772  -13.9426   20.1276 C   0  0  0  0  0  0  0  0  0  0  0  0
    7.9875  -12.7028   19.6345 C   0  0  0  0  0  0  0  0  0  0  0  0
    8.1282  -12.8209   18.3099 N   0  0  0  0  0  0  0  0  0  0  0  0
    7.9121  -14.0950   17.9883 C   0  0  0  0  0  0  0  0  0  0  0  0
    7.6363  -14.7862   19.0912 N   0  0  0  0  0  0  0  0  0  0  0  0
    8.6003  -14.7116   23.6974 C   0  0  0  0  0  0  0  0  0  0  0  0
    9.4608  -15.5895   24.1005 O   0  0  0  0  0  0  0  0  0  0  0  0
    7.6064  -14.3066   24.6181 N   0  0  0  0  0  0  0  0  0  0  0  0
    6.4254  -13.5222   24.4736 C   0  0  0  0  0  0  0  0  0  0  0  0
    6.5482  -12.5672   25.6521 C   0  0  0  0  0  0  0  0  0  0  0  0
    7.1083  -13.4659   26.7261 C   0  0  0  0  0  0  0  0  0  0  0  0
    7.6472  -14.6875   26.0352 C   0  0  1  0  0  0  0  0  0  0  0  0
    6.8072  -15.8412   26.3525 C   0  0  0  0  0  0  0  0  0  0  0  0
    5.7871  -16.0116   25.6022 O   0  0  0  0  0  0  0  0  0  0  0  0
    6.9962  -16.7714   27.3802 N   0  0  0  0  0  0  0  0  0  0  0  0
    7.2281  -18.1736   27.1022 C   0  0  0  0  0  0  0  0  0  0  0  0
    8.4876  -18.6464   27.7062 C   0  0  0  0  0  0  0  0  0  0  0  0
    9.0004  -19.9120   27.4361 O   0  0  0  0  0  0  0  0  0  0  0  0
    9.0986  -17.8576   28.4886 O   0  0  0  0  0  0  0  0  0  0  0  0
  2  1  1  6
  3  2  1  0
  3  4  1  0
  4  5  2  0
  6  5  1  0
  7  6  1  0
  8  7  2  0
  8  4  1  0
  9 10  2  0
  9  2  1  0
 11  9  1  0
 12 11  1  0
 13 12  1  0
 14 13  1  0
 14 15  1  0
 15 16  1  6
 15 11  1  0
 16 18  1  0
 17 16  2  0
 18 19  1  0
 20 21  1  0
 20 19  1  0
 22 20  2  0
M  END
$$$$
