HPG.pdb
     RDKit          3D

 22 23  0  0  1  0  0  0  0  0999 V2000
   10.7486  -15.0657   17.7122 N   0  0  0  0  0  0  0  0  0  0  0  0
    9.6823  -14.6728   18.5797 C   0  0  1  0  0  0  0  0  0  0  0  0
    8.3531  -15.2277   18.0728 C   0  0  0  0  0  0  0  0  0  0  0  0
    8.1983  -14.8754   16.6369 C   0  0  0  0  0  0  0  0  0  0  0  0
    8.0791  -13.6091   16.1283 C   0  0  0  0  0  0  0  0  0  0  0  0
    7.9606  -13.7190   14.8007 N   0  0  0  0  0  0  0  0  0  0  0  0
    8.0045  -15.0137   14.4926 C   0  0  0  0  0  0  0  0  0  0  0  0
    8.1494  -15.7262   15.6068 N   0  0  0  0  0  0  0  0  0  0  0  0
    9.8771  -14.9786   20.0110 C   0  0  0  0  0  0  0  0  0  0  0  0
   11.0248  -15.4786   20.3374 O   0  0  0  0  0  0  0  0  0  0  0  0
    8.9373  -14.7791   21.0485 N   0  0  0  0  0  0  0  0  0  0  0  0
    7.5496  -14.4546   21.0385 C   0  0  0  0  0  0  0  0  0  0  0  0
    7.4906  -13.3385   22.0714 C   0  0  0  0  0  0  0  0  0  0  0  0
    8.4658  -13.8251   23.1140 C   0  0  0  0  0  0  0  0  0  0  0  0
    9.2969  -14.8977   22.4669 C   0  0  1  0  0  0  0  0  0  0  0  0
    8.9593  -16.1966   23.0466 C   0  0  0  0  0  0  0  0  0  0  0  0
    7.9350  -16.7788   22.5522 O   0  0  0  0  0  0  0  0  0  0  0  0
    9.6293  -16.8664   24.0761 N   0  0  0  0  0  0  0  0  0  0  0  0
    9.5691  -18.3070   24.2100 C   0  0  0  0  0  0  0  0  0  0  0  0
   10.8328  -18.9446   23.7961 C   0  0  0  0  0  0  0  0  0  0  0  0
   11.7669  -19.3923   24.7259 O   0  0  0  0  0  0  0  0  0  0  0  0
   11.0476  -19.0754   22.5534 O   0  0  0  0  0  0  0  0  0  0  0  0
  2  1  1  6
  3  2  1  0
  3  4  1  0
  4  5  2  0
  6  5  1  0
  7  6  1  0
  8  7  2  0
  8  4  1  0
  9 10  2  0
  9  2  1  0
 11  9  1  0
 12 11  1  0
 13 12  1  0
 14 13  1  0
 14 15  1  0
 15 16  1  1
 15 11  1  0
 16 18  1  0
 17 16  2  0
 18 19  1  0
 20 21  1  0
 20 19  1  0
 22 20  2  0
M  END
$$$$
