HPG.pdb
     RDKit          3D

 22 23  0  0  1  0  0  0  0  0999 V2000
   10.3375  -15.2417   15.1550 N   0  0  0  0  0  0  0  0  0  0  0  0
    9.2871  -15.1814   16.1229 C   0  0  1  0  0  0  0  0  0  0  0  0
    8.4513  -16.4587   16.0802 C   0  0  0  0  0  0  0  0  0  0  0  0
    7.7538  -16.5363   14.7698 C   0  0  0  0  0  0  0  0  0  0  0  0
    7.7176  -15.5510   13.8188 C   0  0  0  0  0  0  0  0  0  0  0  0
    6.9922  -16.0093   12.7931 N   0  0  0  0  0  0  0  0  0  0  0  0
    6.5892  -17.2417   13.0963 C   0  0  0  0  0  0  0  0  0  0  0  0
    7.0494  -17.5711   14.3004 N   0  0  0  0  0  0  0  0  0  0  0  0
    9.7069  -14.8643   17.5026 C   0  0  0  0  0  0  0  0  0  0  0  0
   10.9424  -15.1125   17.7953 O   0  0  0  0  0  0  0  0  0  0  0  0
    8.8944  -14.3206   18.5243 N   0  0  0  0  0  0  0  0  0  0  0  0
    7.5173  -13.9562   18.5649 C   0  0  0  0  0  0  0  0  0  0  0  0
    7.5859  -12.5783   19.2073 C   0  0  0  0  0  0  0  0  0  0  0  0
    8.6712  -12.7670   20.2375 C   0  0  0  0  0  0  0  0  0  0  0  0
    9.4143  -14.0192   19.8637 C   0  0  1  0  0  0  0  0  0  0  0  0
    9.1363  -15.0662   20.8455 C   0  0  0  0  0  0  0  0  0  0  0  0
    7.9786  -15.6023   20.7763 O   0  0  0  0  0  0  0  0  0  0  0  0
    9.9922  -15.5409   21.8451 N   0  0  0  0  0  0  0  0  0  0  0  0
   11.3365  -15.0259   22.0014 C   0  0  0  0  0  0  0  0  0  0  0  0
   12.3123  -16.1102   22.2177 C   0  0  0  0  0  0  0  0  0  0  0  0
   12.4120  -16.7744   23.4369 O   0  0  0  0  0  0  0  0  0  0  0  0
   13.0680  -16.4249   21.2493 O   0  0  0  0  0  0  0  0  0  0  0  0
  2  1  1  6
  3  2  1  0
  3  4  1  0
  4  5  2  0
  6  5  1  0
  7  6  1  0
  8  7  2  0
  8  4  1  0
  9 10  2  0
  9  2  1  0
 11  9  1  0
 12 11  1  0
 13 12  1  0
 14 13  1  0
 14 15  1  0
 15 16  1  1
 15 11  1  0
 16 18  1  0
 17 16  2  0
 18 19  1  0
 20 21  1  0
 20 19  1  0
 22 20  2  0
M  END
$$$$
