HPG.pdb
     RDKit          3D

 22 23  0  0  1  0  0  0  0  0999 V2000
    6.3638  -15.9977   25.4509 N   0  0  0  0  0  0  0  0  0  0  0  0
    6.7961  -15.0008   24.5218 C   0  0  1  0  0  0  0  0  0  0  0  0
    7.7956  -14.0552   25.1842 C   0  0  0  0  0  0  0  0  0  0  0  0
    7.0618  -13.1361   26.0934 C   0  0  0  0  0  0  0  0  0  0  0  0
    5.7733  -12.7015   25.9286 C   0  0  0  0  0  0  0  0  0  0  0  0
    5.4875  -11.8934   26.9550 N   0  0  0  0  0  0  0  0  0  0  0  0
    6.5649  -11.8270   27.7347 C   0  0  0  0  0  0  0  0  0  0  0  0
    7.5300  -12.5821   27.2165 N   0  0  0  0  0  0  0  0  0  0  0  0
    7.3134  -15.5078   23.2351 C   0  0  0  0  0  0  0  0  0  0  0  0
    7.2028  -16.7814   23.0367 O   0  0  0  0  0  0  0  0  0  0  0  0
    7.9124  -14.7407   22.2092 N   0  0  0  0  0  0  0  0  0  0  0  0
    8.2886  -13.3684   22.1308 C   0  0  0  0  0  0  0  0  0  0  0  0
    7.7170  -12.9731   20.7769 C   0  0  0  0  0  0  0  0  0  0  0  0
    7.9912  -14.2042   19.9499 C   0  0  0  0  0  0  0  0  0  0  0  0
    8.2873  -15.3196   20.9134 C   0  0  1  0  0  0  0  0  0  0  0  0
    9.7008  -15.6822   20.8246 C   0  0  0  0  0  0  0  0  0  0  0  0
   10.5153  -14.9026   21.4258 O   0  0  0  0  0  0  0  0  0  0  0  0
   10.2549  -16.7802   20.1579 N   0  0  0  0  0  0  0  0  0  0  0  0
   11.6864  -16.9927   20.1040 C   0  0  0  0  0  0  0  0  0  0  0  0
   12.1654  -17.7649   21.2654 C   0  0  0  0  0  0  0  0  0  0  0  0
   13.5144  -17.8182   21.6044 O   0  0  0  0  0  0  0  0  0  0  0  0
   11.3029  -18.3873   21.9557 O   0  0  0  0  0  0  0  0  0  0  0  0
  2  1  1  1
  3  2  1  0
  3  4  1  0
  4  5  2  0
  6  5  1  0
  7  6  1  0
  8  7  2  0
  8  4  1  0
  9 10  2  0
  9  2  1  0
 11  9  1  0
 12 11  1  0
 13 12  1  0
 14 13  1  0
 14 15  1  0
 15 16  1  1
 15 11  1  0
 16 18  1  0
 17 16  2  0
 18 19  1  0
 20 21  1  0
 20 19  1  0
 22 20  2  0
M  END
$$$$
