HPG.pdb
     RDKit          3D

 22 23  0  0  1  0  0  0  0  0999 V2000
   10.7199  -15.3679   16.0046 N   0  0  0  0  0  0  0  0  0  0  0  0
    9.5907  -14.9529   16.7769 C   0  0  1  0  0  0  0  0  0  0  0  0
    8.4027  -15.8771   16.5198 C   0  0  0  0  0  0  0  0  0  0  0  0
    8.0259  -15.7922   15.0844 C   0  0  0  0  0  0  0  0  0  0  0  0
    8.0983  -14.6721   14.2992 C   0  0  0  0  0  0  0  0  0  0  0  0
    7.6714  -15.0095   13.0776 N   0  0  0  0  0  0  0  0  0  0  0  0
    7.3434  -16.2999   13.1017 C   0  0  0  0  0  0  0  0  0  0  0  0
    7.5566  -16.7851   14.3220 N   0  0  0  0  0  0  0  0  0  0  0  0
    9.8328  -14.7849   18.2237 C   0  0  0  0  0  0  0  0  0  0  0  0
   10.9485  -15.2595   18.6752 O   0  0  0  0  0  0  0  0  0  0  0  0
    8.9693  -14.1610   19.1535 N   0  0  0  0  0  0  0  0  0  0  0  0
    7.6774  -13.5741   19.0209 C   0  0  0  0  0  0  0  0  0  0  0  0
    7.8634  -12.2581   19.7622 C   0  0  0  0  0  0  0  0  0  0  0  0
    8.7338  -12.6727   20.9221 C   0  0  0  0  0  0  0  0  0  0  0  0
    9.3180  -14.0128   20.5717 C   0  0  1  0  0  0  0  0  0  0  0  0
    8.7304  -15.0428   21.4267 C   0  0  0  0  0  0  0  0  0  0  0  0
    7.4538  -15.0667   21.4741 O   0  0  0  0  0  0  0  0  0  0  0  0
    9.4076  -15.9973   22.1932 N   0  0  0  0  0  0  0  0  0  0  0  0
    9.6674  -15.7937   23.6033 C   0  0  0  0  0  0  0  0  0  0  0  0
   11.0424  -16.1852   23.9647 C   0  0  0  0  0  0  0  0  0  0  0  0
   11.3983  -16.4859   25.2764 O   0  0  0  0  0  0  0  0  0  0  0  0
   11.9030  -16.2410   23.0351 O   0  0  0  0  0  0  0  0  0  0  0  0
  2  1  1  6
  3  2  1  0
  3  4  1  0
  4  5  2  0
  6  5  1  0
  7  6  1  0
  8  7  2  0
  8  4  1  0
  9 10  2  0
  9  2  1  0
 11  9  1  0
 12 11  1  0
 13 12  1  0
 14 13  1  0
 14 15  1  0
 15 16  1  1
 15 11  1  0
 16 18  1  0
 17 16  2  0
 18 19  1  0
 20 21  1  0
 20 19  1  0
 22 20  2  0
M  END
$$$$
