HPG.pdb
     RDKit          3D

 22 23  0  0  1  0  0  0  0  0999 V2000
   11.4857  -13.7032   18.6341 N   0  0  0  0  0  0  0  0  0  0  0  0
   10.2973  -14.0304   19.3582 C   0  0  1  0  0  0  0  0  0  0  0  0
    9.5506  -15.1691   18.6672 C   0  0  0  0  0  0  0  0  0  0  0  0
    9.1307  -14.7205   17.3137 C   0  0  0  0  0  0  0  0  0  0  0  0
    9.1728  -13.4343   16.8441 C   0  0  0  0  0  0  0  0  0  0  0  0
    8.7116  -13.4497   15.5889 N   0  0  0  0  0  0  0  0  0  0  0  0
    8.3923  -14.7066   15.2865 C   0  0  0  0  0  0  0  0  0  0  0  0
    8.6448  -15.4884   16.3330 N   0  0  0  0  0  0  0  0  0  0  0  0
   10.4816  -14.3087   20.7966 C   0  0  0  0  0  0  0  0  0  0  0  0
   11.7044  -14.4035   21.2082 O   0  0  0  0  0  0  0  0  0  0  0  0
    9.4583  -14.4798   21.7574 N   0  0  0  0  0  0  0  0  0  0  0  0
    8.0368  -14.4906   21.6554 C   0  0  0  0  0  0  0  0  0  0  0  0
    7.6424  -13.5730   22.8036 C   0  0  0  0  0  0  0  0  0  0  0  0
    8.6394  -13.9574   23.8681 C   0  0  0  0  0  0  0  0  0  0  0  0
    9.7461  -14.7059   23.1790 C   0  0  1  0  0  0  0  0  0  0  0  0
    9.7001  -16.1150   23.5656 C   0  0  0  0  0  0  0  0  0  0  0  0
    8.7965  -16.8193   22.9999 O   0  0  0  0  0  0  0  0  0  0  0  0
   10.5302  -16.7715   24.4806 N   0  0  0  0  0  0  0  0  0  0  0  0
   10.7366  -18.2038   24.4269 C   0  0  0  0  0  0  0  0  0  0  0  0
   10.2684  -18.8669   25.6581 C   0  0  0  0  0  0  0  0  0  0  0  0
   11.1573  -19.3446   26.6170 O   0  0  0  0  0  0  0  0  0  0  0  0
    9.0172  -18.9915   25.8212 O   0  0  0  0  0  0  0  0  0  0  0  0
  2  1  1  6
  3  2  1  0
  3  4  1  0
  4  5  2  0
  6  5  1  0
  7  6  1  0
  8  7  2  0
  8  4  1  0
  9 10  2  0
  9  2  1  0
 11  9  1  0
 12 11  1  0
 13 12  1  0
 14 13  1  0
 14 15  1  0
 15 16  1  6
 15 11  1  0
 16 18  1  0
 17 16  2  0
 18 19  1  0
 20 21  1  0
 20 19  1  0
 22 20  2  0
M  END
$$$$
