HPG.pdb
     RDKit          3D

 22 23  0  0  1  0  0  0  0  0999 V2000
    6.7594  -16.0104   26.0984 N   0  0  0  0  0  0  0  0  0  0  0  0
    7.0114  -15.2082   24.9421 C   0  0  1  0  0  0  0  0  0  0  0  0
    7.8270  -13.9736   25.3196 C   0  0  0  0  0  0  0  0  0  0  0  0
    7.0327  -13.1380   26.2580 C   0  0  0  0  0  0  0  0  0  0  0  0
    6.0555  -12.2441   25.9083 C   0  0  0  0  0  0  0  0  0  0  0  0
    5.5867  -11.6997   27.0363 N   0  0  0  0  0  0  0  0  0  0  0  0
    6.2516  -12.2382   28.0566 C   0  0  0  0  0  0  0  0  0  0  0  0
    7.1356  -13.1166   27.5908 N   0  0  0  0  0  0  0  0  0  0  0  0
    7.6129  -15.9142   23.7932 C   0  0  0  0  0  0  0  0  0  0  0  0
    7.8924  -17.1644   23.9734 O   0  0  0  0  0  0  0  0  0  0  0  0
    7.9096  -15.3587   22.5271 N   0  0  0  0  0  0  0  0  0  0  0  0
    7.8513  -14.0263   22.0251 C   0  0  0  0  0  0  0  0  0  0  0  0
    7.1312  -14.2315   20.7002 C   0  0  0  0  0  0  0  0  0  0  0  0
    7.7287  -15.5293   20.2170 C   0  0  0  0  0  0  0  0  0  0  0  0
    8.3871  -16.1750   21.4043 C   0  0  1  0  0  0  0  0  0  0  0  0
    9.8391  -16.1434   21.2374 C   0  0  0  0  0  0  0  0  0  0  0  0
   10.3585  -14.9853   21.0900 O   0  0  0  0  0  0  0  0  0  0  0  0
   10.7153  -17.2339   21.2208 N   0  0  0  0  0  0  0  0  0  0  0  0
   12.1055  -17.0970   21.6022 C   0  0  0  0  0  0  0  0  0  0  0  0
   12.7902  -18.4026   21.6391 C   0  0  0  0  0  0  0  0  0  0  0  0
   14.0982  -18.5576   21.1888 O   0  0  0  0  0  0  0  0  0  0  0  0
   12.1457  -19.3933   22.0984 O   0  0  0  0  0  0  0  0  0  0  0  0
  2  1  1  1
  3  2  1  0
  3  4  1  0
  4  5  2  0
  6  5  1  0
  7  6  1  0
  8  7  2  0
  8  4  1  0
  9 10  2  0
  9  2  1  0
 11  9  1  0
 12 11  1  0
 13 12  1  0
 14 13  1  0
 14 15  1  0
 15 16  1  6
 15 11  1  0
 16 18  1  0
 17 16  2  0
 18 19  1  0
 20 21  1  0
 20 19  1  0
 22 20  2  0
M  END
$$$$
