TAN.pdb
     RDKit          3D

 21 20  0  0  1  0  0  0  0  0999 V2000
   17.4849  -10.7078  -18.1462 C   0  0  0  0  0  0  0  0  0  0  0  0
   17.3050  -11.6814  -17.0291 C   0  0  1  0  0  0  0  0  0  0  0  0
   16.7682  -12.8764  -17.4557 O   0  0  0  0  0  0  0  0  0  0  0  0
   18.5735  -11.8714  -16.2170 C   0  0  2  0  0  0  0  0  0  0  0  0
   18.4774  -12.9738  -15.3109 N   0  0  0  0  0  0  0  0  0  0  0  0
   18.9579  -10.6021  -15.5252 C   0  0  0  0  0  0  0  0  0  0  0  0
   18.1992  -10.0921  -14.6547 O   0  0  0  0  0  0  0  0  0  0  0  0
   21.9759   -8.4280  -15.3760 C   0  0  0  0  0  0  0  0  0  0  0  0
   20.5049   -8.6564  -15.1099 C   0  0  2  0  0  0  0  0  0  0  0  0
   20.1612   -9.9081  -15.7911 N   0  0  0  0  0  0  0  0  0  0  0  0
   19.6643   -7.5469  -15.5964 C   0  0  0  0  0  0  0  0  0  0  0  0
   19.3121   -7.5510  -16.8031 O   0  0  0  0  0  0  0  0  0  0  0  0
   15.1932   -4.0184  -15.1153 N   0  0  0  0  0  0  0  0  0  0  0  0
   16.5221   -3.8827  -14.5827 C   0  0  0  0  0  0  0  0  0  0  0  0
   16.9214   -2.6947  -14.4452 O   0  0  0  0  0  0  0  0  0  0  0  0
   17.3174   -5.0831  -14.2379 C   0  0  0  0  0  0  0  0  0  0  0  0
   18.4199   -5.3697  -15.2229 C   0  0  2  0  0  0  0  0  0  0  0  0
   19.2425   -6.4936  -14.7803 N   0  0  0  0  0  0  0  0  0  0  0  0
   19.2549   -4.1875  -15.5372 C   0  0  0  0  0  0  0  0  0  0  0  0
   20.3480   -4.0716  -14.8883 O   0  0  0  0  0  0  0  0  0  0  0  0
   18.9553   -3.2222  -16.4540 O   0  0  0  0  0  0  0  0  0  0  0  0
  2  1  1  6
  2  3  1  0
  4  2  1  0
  4  5  1  1
  6  4  1  0
  6 10  1  0
  7  6  2  0
  9  8  1  6
  9 10  1  0
  9 11  1  0
 11 12  2  0
 11 18  1  0
 13 14  1  0
 14 15  2  0
 16 14  1  0
 17 16  1  1
 17 19  1  0
 18 17  1  0
 19 21  1  0
 20 19  2  0
M  END
$$$$
