TAN.pdb
     RDKit          3D

 21 20  0  0  1  0  0  0  0  0999 V2000
   22.8588  -11.9478  -14.8783 C   0  0  0  0  0  0  0  0  0  0  0  0
   22.4047  -12.6168  -16.1330 C   0  0  1  0  0  0  0  0  0  0  0  0
   22.9077  -13.8932  -16.2589 O   0  0  0  0  0  0  0  0  0  0  0  0
   20.8968  -12.5674  -16.3022 C   0  0  2  0  0  0  0  0  0  0  0  0
   20.4444  -13.3935  -17.3785 N   0  0  0  0  0  0  0  0  0  0  0  0
   20.4220  -11.1552  -16.4347 C   0  0  0  0  0  0  0  0  0  0  0  0
   20.7921  -10.4438  -17.4096 O   0  0  0  0  0  0  0  0  0  0  0  0
   17.9209   -8.9653  -14.7855 C   0  0  0  0  0  0  0  0  0  0  0  0
   19.1830   -9.1241  -15.6033 C   0  0  2  0  0  0  0  0  0  0  0  0
   19.5521  -10.5394  -15.5049 N   0  0  0  0  0  0  0  0  0  0  0  0
   20.2788   -8.2621  -15.1233 C   0  0  0  0  0  0  0  0  0  0  0  0
   21.2433   -8.8022  -14.5247 O   0  0  0  0  0  0  0  0  0  0  0  0
   23.6654   -4.3732  -14.5553 N   0  0  0  0  0  0  0  0  0  0  0  0
   23.8004   -5.4829  -15.4599 C   0  0  0  0  0  0  0  0  0  0  0  0
   24.9312   -5.5881  -16.0077 O   0  0  0  0  0  0  0  0  0  0  0  0
   22.6637   -6.4028  -15.6925 C   0  0  0  0  0  0  0  0  0  0  0  0
   21.4125   -6.0004  -14.9573 C   0  0  2  0  0  0  0  0  0  0  0  0
   20.2945   -6.8760  -15.3022 N   0  0  0  0  0  0  0  0  0  0  0  0
   21.0513   -4.5756  -15.1395 C   0  0  0  0  0  0  0  0  0  0  0  0
   20.3790   -4.2862  -16.1853 O   0  0  0  0  0  0  0  0  0  0  0  0
   21.3741   -3.5576  -14.2902 O   0  0  0  0  0  0  0  0  0  0  0  0
  2  1  1  1
  2  3  1  0
  4  2  1  0
  4  5  1  6
  6  4  1  0
  6 10  1  0
  7  6  2  0
  9  8  1  1
  9 10  1  0
  9 11  1  0
 11 12  2  0
 11 18  1  0
 13 14  1  0
 14 15  2  0
 16 14  1  0
 17 16  1  6
 17 19  1  0
 18 17  1  0
 19 21  1  0
 20 19  2  0
M  END
$$$$
