TAN.pdb
     RDKit          3D

 21 20  0  0  1  0  0  0  0  0999 V2000
   18.2983  -11.6726  -19.9688 C   0  0  0  0  0  0  0  0  0  0  0  0
   18.8352  -10.9936  -18.7527 C   0  0  1  0  0  0  0  0  0  0  0  0
   17.9132  -10.1503  -18.1723 O   0  0  0  0  0  0  0  0  0  0  0  0
   19.4326  -11.9735  -17.7589 C   0  0  2  0  0  0  0  0  0  0  0  0
   18.4727  -12.9253  -17.2917 N   0  0  0  0  0  0  0  0  0  0  0  0
   20.1044  -11.2494  -16.6356 C   0  0  0  0  0  0  0  0  0  0  0  0
   19.4207  -10.6451  -15.7634 O   0  0  0  0  0  0  0  0  0  0  0  0
   23.5576  -10.9449  -15.2969 C   0  0  0  0  0  0  0  0  0  0  0  0
   22.1430  -10.4217  -15.4066 C   0  0  2  0  0  0  0  0  0  0  0  0
   21.5090  -11.1944  -16.4788 N   0  0  0  0  0  0  0  0  0  0  0  0
   22.0966   -8.9780  -15.7029 C   0  0  0  0  0  0  0  0  0  0  0  0
   21.9935   -8.6191  -16.9033 O   0  0  0  0  0  0  0  0  0  0  0  0
   21.4316   -3.8366  -15.3087 N   0  0  0  0  0  0  0  0  0  0  0  0
   20.4918   -4.7943  -15.8260 C   0  0  0  0  0  0  0  0  0  0  0  0
   19.4937   -4.2961  -16.4138 O   0  0  0  0  0  0  0  0  0  0  0  0
   20.7290   -6.2455  -15.6534 C   0  0  0  0  0  0  0  0  0  0  0  0
   22.0246   -6.5575  -14.9518 C   0  0  2  0  0  0  0  0  0  0  0  0
   22.1622   -7.9928  -14.7138 N   0  0  0  0  0  0  0  0  0  0  0  0
   22.2213   -5.7872  -13.7022 C   0  0  0  0  0  0  0  0  0  0  0  0
   22.5950   -4.5736  -13.8323 O   0  0  0  0  0  0  0  0  0  0  0  0
   22.0375   -6.2629  -12.4366 O   0  0  0  0  0  0  0  0  0  0  0  0
  2  1  1  6
  2  3  1  0
  4  2  1  0
  4  5  1  1
  6  4  1  0
  6 10  1  0
  7  6  2  0
  9  8  1  6
  9 10  1  0
  9 11  1  0
 11 12  2  0
 11 18  1  0
 13 14  1  0
 14 15  2  0
 16 14  1  0
 17 16  1  1
 17 19  1  0
 18 17  1  0
 19 21  1  0
 20 19  2  0
M  END
$$$$
