TAN.pdb
     RDKit          3D

 21 20  0  0  1  0  0  0  0  0999 V2000
   28.1536  -19.9229  -16.8332 C   0  0  0  0  0  0  0  0  0  0  0  0
   27.5741  -21.2756  -16.5829 C   0  0  1  0  0  0  0  0  0  0  0  0
   28.5437  -22.2301  -16.3666 O   0  0  0  0  0  0  0  0  0  0  0  0
   26.5198  -21.2606  -15.4907 C   0  0  2  0  0  0  0  0  0  0  0  0
   26.2006  -22.5753  -15.0269 N   0  0  0  0  0  0  0  0  0  0  0  0
   25.3061  -20.5063  -15.9327 C   0  0  0  0  0  0  0  0  0  0  0  0
   25.0954  -19.3326  -15.5185 O   0  0  0  0  0  0  0  0  0  0  0  0
   22.9304  -20.7398  -18.7090 C   0  0  0  0  0  0  0  0  0  0  0  0
   23.2092  -20.2474  -17.3066 C   0  0  2  0  0  0  0  0  0  0  0  0
   24.3412  -21.0405  -16.8181 N   0  0  0  0  0  0  0  0  0  0  0  0
   22.0438  -20.3930  -16.4151 C   0  0  0  0  0  0  0  0  0  0  0  0
   21.0007  -19.7464  -16.6875 O   0  0  0  0  0  0  0  0  0  0  0  0
   18.9040  -22.0353  -12.5228 N   0  0  0  0  0  0  0  0  0  0  0  0
   20.1484  -21.5077  -12.0319 C   0  0  0  0  0  0  0  0  0  0  0  0
   20.1984  -21.3372  -10.7836 O   0  0  0  0  0  0  0  0  0  0  0  0
   21.2556  -21.2059  -12.9675 C   0  0  0  0  0  0  0  0  0  0  0  0
   20.8948  -21.4381  -14.4111 C   0  0  2  0  0  0  0  0  0  0  0  0
   22.0452  -21.2141  -15.2840 N   0  0  0  0  0  0  0  0  0  0  0  0
   19.7216  -20.6542  -14.8614 C   0  0  0  0  0  0  0  0  0  0  0  0
   19.7612  -19.3957  -14.6520 O   0  0  0  0  0  0  0  0  0  0  0  0
   18.6137  -21.1612  -15.4757 O   0  0  0  0  0  0  0  0  0  0  0  0
  2  1  1  1
  2  3  1  0
  4  2  1  0
  4  5  1  6
  6  4  1  0
  6 10  1  0
  7  6  2  0
  9  8  1  6
  9 10  1  0
  9 11  1  0
 11 12  2  0
 11 18  1  0
 13 14  1  0
 14 15  2  0
 16 14  1  0
 17 16  1  1
 17 19  1  0
 18 17  1  0
 19 21  1  0
 20 19  2  0
M  END
$$$$
