TAN.pdb
     RDKit          3D

 21 20  0  0  1  0  0  0  0  0999 V2000
   20.4639  -11.2869  -19.9925 C   0  0  0  0  0  0  0  0  0  0  0  0
   19.9431  -12.5962  -19.5001 C   0  0  1  0  0  0  0  0  0  0  0  0
   19.4338  -13.3743  -20.5166 O   0  0  0  0  0  0  0  0  0  0  0  0
   20.9581  -13.3408  -18.6515 C   0  0  2  0  0  0  0  0  0  0  0  0
   20.5405  -14.6756  -18.3527 N   0  0  0  0  0  0  0  0  0  0  0  0
   21.2935  -12.5634  -17.4183 C   0  0  0  0  0  0  0  0  0  0  0  0
   20.4091  -12.3291  -16.5486 O   0  0  0  0  0  0  0  0  0  0  0  0
   24.3508  -11.0862  -15.8844 C   0  0  0  0  0  0  0  0  0  0  0  0
   22.8469  -11.1436  -16.0316 C   0  0  2  0  0  0  0  0  0  0  0  0
   22.5854  -12.0537  -17.1507 N   0  0  0  0  0  0  0  0  0  0  0  0
   22.2535   -9.8177  -16.2847 C   0  0  0  0  0  0  0  0  0  0  0  0
   22.1392   -9.4336  -17.4762 O   0  0  0  0  0  0  0  0  0  0  0  0
   18.8640   -8.6299  -12.8072 N   0  0  0  0  0  0  0  0  0  0  0  0
   19.1882   -8.1100  -14.1082 C   0  0  0  0  0  0  0  0  0  0  0  0
   18.3968   -8.4497  -15.0291 O   0  0  0  0  0  0  0  0  0  0  0  0
   20.3747   -7.2442  -14.2948 C   0  0  0  0  0  0  0  0  0  0  0  0
   21.2271   -7.6476  -15.4690 C   0  0  2  0  0  0  0  0  0  0  0  0
   21.8138   -8.9702  -15.2640 N   0  0  0  0  0  0  0  0  0  0  0  0
   22.2654   -6.6504  -15.8170 C   0  0  0  0  0  0  0  0  0  0  0  0
   23.4794   -7.0335  -15.7230 O   0  0  0  0  0  0  0  0  0  0  0  0
   22.0337   -5.3694  -16.2260 O   0  0  0  0  0  0  0  0  0  0  0  0
  2  1  1  6
  2  3  1  0
  4  2  1  0
  4  5  1  1
  6  4  1  0
  6 10  1  0
  7  6  2  0
  9  8  1  6
  9 10  1  0
  9 11  1  0
 11 12  2  0
 11 18  1  0
 13 14  1  0
 14 15  2  0
 16 14  1  0
 17 16  1  1
 17 19  1  0
 18 17  1  0
 19 21  1  0
 20 19  2  0
M  END
$$$$
