TAN.pdb
     RDKit          3D

 21 20  0  0  1  0  0  0  0  0999 V2000
   16.8742  -10.9512  -10.3830 C   0  0  0  0  0  0  0  0  0  0  0  0
   15.4117  -11.0258  -10.6725 C   0  0  1  0  0  0  0  0  0  0  0  0
   14.9372  -12.3190  -10.6484 O   0  0  0  0  0  0  0  0  0  0  0  0
   14.5992  -10.0924   -9.7931 C   0  0  2  0  0  0  0  0  0  0  0  0
   13.1916  -10.3013   -9.9357 N   0  0  0  0  0  0  0  0  0  0  0  0
   14.9865   -8.6670  -10.0292 C   0  0  0  0  0  0  0  0  0  0  0  0
   14.7982   -8.1304  -11.1561 O   0  0  0  0  0  0  0  0  0  0  0  0
   16.0319   -5.7470   -8.0208 C   0  0  0  0  0  0  0  0  0  0  0  0
   16.0700   -6.5013   -9.3310 C   0  0  2  0  0  0  0  0  0  0  0  0
   15.5722   -7.8482   -9.0358 N   0  0  0  0  0  0  0  0  0  0  0  0
   17.4247   -6.5585   -9.9103 C   0  0  0  0  0  0  0  0  0  0  0  0
   18.2797   -7.2940   -9.3548 O   0  0  0  0  0  0  0  0  0  0  0  0
   21.4664   -6.2252  -13.1825 N   0  0  0  0  0  0  0  0  0  0  0  0
   20.6488   -7.3899  -12.9752 C   0  0  0  0  0  0  0  0  0  0  0  0
   21.0941   -8.4510  -13.4906 O   0  0  0  0  0  0  0  0  0  0  0  0
   19.3878   -7.2929  -12.2052 C   0  0  0  0  0  0  0  0  0  0  0  0
   19.1128   -5.9062  -11.6860 C   0  0  2  0  0  0  0  0  0  0  0  0
   17.8015   -5.8345  -11.0448 N   0  0  0  0  0  0  0  0  0  0  0  0
   19.2643   -4.8491  -12.7123 C   0  0  0  0  0  0  0  0  0  0  0  0
   20.3974   -4.2638  -12.7661 O   0  0  0  0  0  0  0  0  0  0  0  0
   18.3028   -4.4539  -13.5961 O   0  0  0  0  0  0  0  0  0  0  0  0
  2  1  1  1
  2  3  1  0
  4  2  1  0
  4  5  1  6
  6  4  1  0
  6 10  1  0
  7  6  2  0
  9  8  1  1
  9 10  1  0
  9 11  1  0
 11 12  2  0
 11 18  1  0
 13 14  1  0
 14 15  2  0
 16 14  1  0
 17 16  1  6
 17 19  1  0
 18 17  1  0
 19 21  1  0
 20 19  2  0
M  END
$$$$
