TAN.pdb
     RDKit          3D

 21 20  0  0  1  0  0  0  0  0999 V2000
   17.0261   -9.7130  -19.6733 C   0  0  0  0  0  0  0  0  0  0  0  0
   17.3955  -11.1579  -19.6115 C   0  0  1  0  0  0  0  0  0  0  0  0
   16.5202  -11.9541  -20.3172 O   0  0  0  0  0  0  0  0  0  0  0  0
   18.8433  -11.4022  -19.9974 C   0  0  2  0  0  0  0  0  0  0  0  0
   19.1527  -12.7956  -20.0881 N   0  0  0  0  0  0  0  0  0  0  0  0
   19.7700  -10.6757  -19.0751 C   0  0  0  0  0  0  0  0  0  0  0  0
   20.0000  -11.1213  -17.9165 O   0  0  0  0  0  0  0  0  0  0  0  0
   22.0209   -7.7104  -19.3182 C   0  0  0  0  0  0  0  0  0  0  0  0
   21.3400   -8.7884  -18.5051 C   0  0  2  0  0  0  0  0  0  0  0  0
   20.4319   -9.4765  -19.4275 N   0  0  0  0  0  0  0  0  0  0  0  0
   20.6012   -8.2434  -17.3513 C   0  0  0  0  0  0  0  0  0  0  0  0
   19.4512   -7.7750  -17.5475 O   0  0  0  0  0  0  0  0  0  0  0  0
   19.1164   -6.8909  -12.5315 N   0  0  0  0  0  0  0  0  0  0  0  0
   19.8645   -8.1184  -12.4918 C   0  0  0  0  0  0  0  0  0  0  0  0
   19.8595   -8.7087  -11.3777 O   0  0  0  0  0  0  0  0  0  0  0  0
   20.5683   -8.6064  -13.6997 C   0  0  0  0  0  0  0  0  0  0  0  0
   20.4253   -7.6871  -14.8839 C   0  0  2  0  0  0  0  0  0  0  0  0
   21.1189   -8.2230  -16.0533 N   0  0  0  0  0  0  0  0  0  0  0  0
   20.8444   -6.2941  -14.6059 C   0  0  0  0  0  0  0  0  0  0  0  0
   22.0876   -6.0351  -14.7356 O   0  0  0  0  0  0  0  0  0  0  0  0
   20.0197   -5.2752  -14.2271 O   0  0  0  0  0  0  0  0  0  0  0  0
  2  1  1  6
  2  3  1  0
  4  2  1  0
  4  5  1  1
  6  4  1  0
  6 10  1  0
  7  6  2  0
  9  8  1  6
  9 10  1  0
  9 11  1  0
 11 12  2  0
 11 18  1  0
 13 14  1  0
 14 15  2  0
 16 14  1  0
 17 16  1  1
 17 19  1  0
 18 17  1  0
 19 21  1  0
 20 19  2  0
M  END
$$$$
