TAN.pdb
     RDKit          3D

 21 20  0  0  1  0  0  0  0  0999 V2000
   40.2306   -9.5794  -16.5729 C   0  0  0  0  0  0  0  0  0  0  0  0
   38.7817   -9.2710  -16.3895 C   0  0  1  0  0  0  0  0  0  0  0  0
   37.9790   -9.9920  -17.2463 O   0  0  0  0  0  0  0  0  0  0  0  0
   38.3427   -9.3931  -14.9414 C   0  0  2  0  0  0  0  0  0  0  0  0
   38.5371  -10.7126  -14.4251 N   0  0  0  0  0  0  0  0  0  0  0  0
   36.9338   -8.9207  -14.7706 C   0  0  0  0  0  0  0  0  0  0  0  0
   35.9970   -9.7490  -14.5980 O   0  0  0  0  0  0  0  0  0  0  0  0
   35.2355   -5.6528  -14.2737 C   0  0  0  0  0  0  0  0  0  0  0  0
   35.1752   -7.1207  -14.6323 C   0  0  2  0  0  0  0  0  0  0  0  0
   36.5664   -7.5550  -14.7901 N   0  0  0  0  0  0  0  0  0  0  0  0
   34.4055   -7.3694  -15.8651 C   0  0  0  0  0  0  0  0  0  0  0  0
   34.9682   -7.1648  -16.9705 O   0  0  0  0  0  0  0  0  0  0  0  0
   28.9202   -9.7455  -17.7955 N   0  0  0  0  0  0  0  0  0  0  0  0
   30.1772   -9.0607  -17.9326 C   0  0  0  0  0  0  0  0  0  0  0  0
   30.4580   -8.6938  -19.1059 O   0  0  0  0  0  0  0  0  0  0  0  0
   31.0378   -8.8300  -16.7500 C   0  0  0  0  0  0  0  0  0  0  0  0
   32.2560   -7.9982  -17.0537 C   0  0  2  0  0  0  0  0  0  0  0  0
   33.0826   -7.8204  -15.8617 N   0  0  0  0  0  0  0  0  0  0  0  0
   31.9412   -6.6959  -17.6849 C   0  0  0  0  0  0  0  0  0  0  0  0
   32.0796   -6.6272  -18.9520 O   0  0  0  0  0  0  0  0  0  0  0  0
   31.5194   -5.5754  -17.0305 O   0  0  0  0  0  0  0  0  0  0  0  0
  2  1  1  1
  2  3  1  0
  4  2  1  0
  4  5  1  6
  6  4  1  0
  6 10  1  0
  7  6  2  0
  9  8  1  6
  9 10  1  0
  9 11  1  0
 11 12  2  0
 11 18  1  0
 13 14  1  0
 14 15  2  0
 16 14  1  0
 17 16  1  1
 17 19  1  0
 18 17  1  0
 19 21  1  0
 20 19  2  0
M  END
$$$$
