TAN.pdb
     RDKit          3D

 21 20  0  0  1  0  0  0  0  0999 V2000
   16.9011  -10.1609  -16.7322 C   0  0  0  0  0  0  0  0  0  0  0  0
   17.3147  -11.5729  -16.4808 C   0  0  1  0  0  0  0  0  0  0  0  0
   16.6998  -12.4602  -17.3369 O   0  0  0  0  0  0  0  0  0  0  0  0
   18.8235  -11.7388  -16.4577 C   0  0  2  0  0  0  0  0  0  0  0  0
   19.2171  -13.1115  -16.3786 N   0  0  0  0  0  0  0  0  0  0  0  0
   19.4334  -10.9118  -15.3708 C   0  0  0  0  0  0  0  0  0  0  0  0
   19.3290  -11.2637  -14.1630 O   0  0  0  0  0  0  0  0  0  0  0  0
   21.6741   -7.9523  -15.1496 C   0  0  0  0  0  0  0  0  0  0  0  0
   20.6481   -8.8716  -14.5258 C   0  0  2  0  0  0  0  0  0  0  0  0
   20.1473   -9.7154  -15.6149 N   0  0  0  0  0  0  0  0  0  0  0  0
   19.5443   -8.1333  -13.8848 C   0  0  0  0  0  0  0  0  0  0  0  0
   18.5965   -7.7330  -14.6072 O   0  0  0  0  0  0  0  0  0  0  0  0
   15.9909   -6.7645   -9.9957 N   0  0  0  0  0  0  0  0  0  0  0  0
   17.3763   -6.7109   -9.6139 C   0  0  0  0  0  0  0  0  0  0  0  0
   17.6259   -5.9773   -8.6192 O   0  0  0  0  0  0  0  0  0  0  0  0
   18.3917   -7.4809  -10.3678 C   0  0  0  0  0  0  0  0  0  0  0  0
   18.4217   -7.1479  -11.8362 C   0  0  2  0  0  0  0  0  0  0  0  0
   19.5034   -7.8582  -12.5152 N   0  0  0  0  0  0  0  0  0  0  0  0
   18.4810   -5.6940  -12.1123 C   0  0  0  0  0  0  0  0  0  0  0  0
   19.6386   -5.2000  -12.3250 O   0  0  0  0  0  0  0  0  0  0  0  0
   17.4114   -4.8481  -12.1582 O   0  0  0  0  0  0  0  0  0  0  0  0
  2  1  1  6
  2  3  1  0
  4  2  1  0
  4  5  1  1
  6  4  1  0
  6 10  1  0
  7  6  2  0
  9  8  1  6
  9 10  1  0
  9 11  1  0
 11 12  2  0
 11 18  1  0
 13 14  1  0
 14 15  2  0
 16 14  1  0
 17 16  1  1
 17 19  1  0
 18 17  1  0
 19 21  1  0
 20 19  2  0
M  END
$$$$
