TAN.pdb
     RDKit          3D

 21 20  0  0  1  0  0  0  0  0999 V2000
   15.1995   -5.3459   -8.7762 C   0  0  0  0  0  0  0  0  0  0  0  0
   15.0234   -6.7990   -8.4839 C   0  0  1  0  0  0  0  0  0  0  0  0
   14.3650   -7.0191   -7.2939 O   0  0  0  0  0  0  0  0  0  0  0  0
   14.3945   -7.5506   -9.6434 C   0  0  2  0  0  0  0  0  0  0  0  0
   14.1768   -8.9313   -9.3405 N   0  0  0  0  0  0  0  0  0  0  0  0
   15.1934   -7.3648  -10.8942 C   0  0  0  0  0  0  0  0  0  0  0  0
   16.2413   -8.0406  -11.0912 O   0  0  0  0  0  0  0  0  0  0  0  0
   14.8006   -5.4131  -14.0521 C   0  0  0  0  0  0  0  0  0  0  0  0
   15.5948   -6.3437  -13.1631 C   0  0  2  0  0  0  0  0  0  0  0  0
   14.8398   -6.4473  -11.9108 N   0  0  0  0  0  0  0  0  0  0  0  0
   16.9624   -5.8535  -12.9115 C   0  0  0  0  0  0  0  0  0  0  0  0
   17.1293   -4.9850  -12.0182 O   0  0  0  0  0  0  0  0  0  0  0  0
   22.1893   -5.3276  -13.0454 N   0  0  0  0  0  0  0  0  0  0  0  0
   21.8352   -6.6637  -13.4422 C   0  0  0  0  0  0  0  0  0  0  0  0
   22.8084   -7.4536  -13.5787 O   0  0  0  0  0  0  0  0  0  0  0  0
   20.4171   -7.0298  -13.6597 C   0  0  0  0  0  0  0  0  0  0  0  0
   19.4590   -5.9099  -13.3499 C   0  0  2  0  0  0  0  0  0  0  0  0
   18.0789   -6.3081  -13.6188 N   0  0  0  0  0  0  0  0  0  0  0  0
   19.7919   -4.6397  -14.0349 C   0  0  0  0  0  0  0  0  0  0  0  0
   19.3369   -4.4929  -15.2185 O   0  0  0  0  0  0  0  0  0  0  0  0
   20.5366   -3.6237  -13.5104 O   0  0  0  0  0  0  0  0  0  0  0  0
  2  1  1  6
  2  3  1  0
  4  2  1  0
  4  5  1  1
  6  4  1  0
  6 10  1  0
  7  6  2  0
  9  8  1  6
  9 10  1  0
  9 11  1  0
 11 12  2  0
 11 18  1  0
 13 14  1  0
 14 15  2  0
 16 14  1  0
 17 16  1  6
 17 19  1  0
 18 17  1  0
 19 21  1  0
 20 19  2  0
M  END
$$$$
