TAN.pdb
     RDKit          3D

 21 20  0  0  1  0  0  0  0  0999 V2000
   27.3825  -22.1615  -14.3844 C   0  0  0  0  0  0  0  0  0  0  0  0
   25.9567  -21.7203  -14.4078 C   0  0  1  0  0  0  0  0  0  0  0  0
   25.0788  -22.7820  -14.4188 O   0  0  0  0  0  0  0  0  0  0  0  0
   25.6427  -20.7183  -13.3113 C   0  0  2  0  0  0  0  0  0  0  0  0
   25.8779  -21.2520  -12.0054 N   0  0  0  0  0  0  0  0  0  0  0  0
   24.2546  -20.1819  -13.4619 C   0  0  0  0  0  0  0  0  0  0  0  0
   23.3703  -20.4423  -12.5994 O   0  0  0  0  0  0  0  0  0  0  0  0
   22.4517  -18.0091  -15.9061 C   0  0  0  0  0  0  0  0  0  0  0  0
   22.4492  -18.9964  -14.7607 C   0  0  2  0  0  0  0  0  0  0  0  0
   23.8504  -19.3708  -14.5478 N   0  0  0  0  0  0  0  0  0  0  0  0
   21.6258  -20.1865  -15.0430 C   0  0  0  0  0  0  0  0  0  0  0  0
   22.2105  -21.2583  -15.3425 O   0  0  0  0  0  0  0  0  0  0  0  0
   17.9917  -23.2572  -12.2130 N   0  0  0  0  0  0  0  0  0  0  0  0
   19.0869  -23.2661  -13.1449 C   0  0  0  0  0  0  0  0  0  0  0  0
   19.3320  -24.3873  -13.6670 O   0  0  0  0  0  0  0  0  0  0  0  0
   19.8358  -22.0217  -13.4330 C   0  0  0  0  0  0  0  0  0  0  0  0
   19.3949  -21.3421  -14.7025 C   0  0  2  0  0  0  0  0  0  0  0  0
   20.2290  -20.1781  -14.9938 N   0  0  0  0  0  0  0  0  0  0  0  0
   17.9573  -20.9859  -14.7147 C   0  0  0  0  0  0  0  0  0  0  0  0
   17.2190  -21.6193  -15.5411 O   0  0  0  0  0  0  0  0  0  0  0  0
   17.3632  -20.0466  -13.9230 O   0  0  0  0  0  0  0  0  0  0  0  0
  2  1  1  1
  2  3  1  0
  4  2  1  0
  4  5  1  1
  6  4  1  0
  6 10  1  0
  7  6  2  0
  9  8  1  6
  9 10  1  0
  9 11  1  0
 11 12  2  0
 11 18  1  0
 13 14  1  0
 14 15  2  0
 16 14  1  0
 17 16  1  1
 17 19  1  0
 18 17  1  0
 19 21  1  0
 20 19  2  0
M  END
$$$$
