TAN.pdb
     RDKit          3D

 21 20  0  0  1  0  0  0  0  0999 V2000
   15.5536  -10.3040  -15.8814 C   0  0  0  0  0  0  0  0  0  0  0  0
   16.6639  -11.2585  -16.1716 C   0  0  1  0  0  0  0  0  0  0  0  0
   16.2116  -12.4385  -16.7206 O   0  0  0  0  0  0  0  0  0  0  0  0
   17.7732  -10.6242  -16.9912 C   0  0  2  0  0  0  0  0  0  0  0  0
   18.3468  -11.5399  -17.9282 N   0  0  0  0  0  0  0  0  0  0  0  0
   18.8041  -10.0044  -16.1022 C   0  0  0  0  0  0  0  0  0  0  0  0
   18.4582   -9.2690  -15.1362 O   0  0  0  0  0  0  0  0  0  0  0  0
   22.5315  -10.0755  -15.8521 C   0  0  0  0  0  0  0  0  0  0  0  0
   21.1843   -9.5506  -15.4089 C   0  0  2  0  0  0  0  0  0  0  0  0
   20.1946  -10.1944  -16.2778 N   0  0  0  0  0  0  0  0  0  0  0  0
   21.0907   -8.0823  -15.5060 C   0  0  0  0  0  0  0  0  0  0  0  0
   20.7692   -7.5775  -16.6115 O   0  0  0  0  0  0  0  0  0  0  0  0
   20.9771   -2.9805  -14.5676 N   0  0  0  0  0  0  0  0  0  0  0  0
   19.7881   -3.7892  -14.5803 C   0  0  0  0  0  0  0  0  0  0  0  0
   18.7054   -3.1431  -14.5938 O   0  0  0  0  0  0  0  0  0  0  0  0
   19.8866   -5.2666  -14.5780 C   0  0  0  0  0  0  0  0  0  0  0  0
   21.3039   -5.7684  -14.4917 C   0  0  2  0  0  0  0  0  0  0  0  0
   21.3428   -7.2279  -14.4290 N   0  0  0  0  0  0  0  0  0  0  0  0
   22.0789   -5.1651  -13.3831 C   0  0  0  0  0  0  0  0  0  0  0  0
   22.1007   -5.8123  -12.2832 O   0  0  0  0  0  0  0  0  0  0  0  0
   22.7648   -3.9869  -13.4403 O   0  0  0  0  0  0  0  0  0  0  0  0
  2  1  1  6
  2  3  1  0
  4  2  1  0
  4  5  1  1
  6  4  1  0
  6 10  1  0
  7  6  2  0
  9  8  1  6
  9 10  1  0
  9 11  1  0
 11 12  2  0
 11 18  1  0
 13 14  1  0
 14 15  2  0
 16 14  1  0
 17 16  1  1
 17 19  1  0
 18 17  1  0
 19 21  1  0
 20 19  2  0
M  END
$$$$
