TAN.pdb
     RDKit          3D

 21 20  0  0  1  0  0  0  0  0999 V2000
   18.8373  -10.1650  -18.5529 C   0  0  0  0  0  0  0  0  0  0  0  0
   18.1271  -11.1705  -17.7086 C   0  0  1  0  0  0  0  0  0  0  0  0
   17.2181  -11.9132  -18.4299 O   0  0  0  0  0  0  0  0  0  0  0  0
   19.0854  -12.0385  -16.9129 C   0  0  2  0  0  0  0  0  0  0  0  0
   18.4259  -13.1440  -16.2898 N   0  0  0  0  0  0  0  0  0  0  0  0
   19.8598  -11.2159  -15.9326 C   0  0  0  0  0  0  0  0  0  0  0  0
   19.2693  -10.6182  -14.9905 O   0  0  0  0  0  0  0  0  0  0  0  0
   23.4451  -10.5017  -15.2241 C   0  0  0  0  0  0  0  0  0  0  0  0
   21.9820  -10.1387  -15.1034 C   0  0  2  0  0  0  0  0  0  0  0  0
   21.2639  -11.0568  -15.9924 N   0  0  0  0  0  0  0  0  0  0  0  0
   21.7160   -8.7362  -15.4727 C   0  0  0  0  0  0  0  0  0  0  0  0
   21.5983   -8.4531  -16.6919 O   0  0  0  0  0  0  0  0  0  0  0  0
   20.5402   -3.6549  -15.3345 N   0  0  0  0  0  0  0  0  0  0  0  0
   19.4981   -4.6148  -15.0885 C   0  0  0  0  0  0  0  0  0  0  0  0
   18.3285   -4.1437  -15.0947 O   0  0  0  0  0  0  0  0  0  0  0  0
   19.8308   -6.0382  -14.8526 C   0  0  0  0  0  0  0  0  0  0  0  0
   21.3119   -6.3111  -14.8530 C   0  0  2  0  0  0  0  0  0  0  0  0
   21.5897   -7.7096  -14.5327 N   0  0  0  0  0  0  0  0  0  0  0  0
   22.0820   -5.3989  -13.9765 C   0  0  0  0  0  0  0  0  0  0  0  0
   22.4040   -5.8489  -12.8262 O   0  0  0  0  0  0  0  0  0  0  0  0
   22.4722   -4.1305  -14.2941 O   0  0  0  0  0  0  0  0  0  0  0  0
  2  1  1  6
  2  3  1  0
  4  2  1  0
  4  5  1  1
  6  4  1  0
  6 10  1  0
  7  6  2  0
  9  8  1  6
  9 10  1  0
  9 11  1  0
 11 12  2  0
 11 18  1  0
 13 14  1  0
 14 15  2  0
 16 14  1  0
 17 16  1  1
 17 19  1  0
 18 17  1  0
 19 21  1  0
 20 19  2  0
M  END
$$$$
