RWM.pdb
     RDKit          3D

 34 35  0  0  1  0  0  0  0  0999 V2000
   10.0959  -14.0396   14.2368 N   0  0  0  0  0  0  0  0  0  0  0  0
    8.7705  -14.3730   14.7054 C   0  0  0  0  0  0  0  0  0  0  0  0
    8.1561  -15.4325   14.3063 N   0  0  0  0  0  0  0  0  0  0  0  0
    8.0971  -13.5604   15.6398 N   0  0  0  0  0  0  0  0  0  0  0  0
    8.4695  -13.4710   17.0237 C   0  0  0  0  0  0  0  0  0  0  0  0
    7.4022  -13.8028   17.9953 C   0  0  0  0  0  0  0  0  0  0  0  0
    7.7307  -14.0068   19.4153 C   0  0  0  0  0  0  0  0  0  0  0  0
    8.5800  -15.1826   19.7605 C   0  0  2  0  0  0  0  0  0  0  0  0
    8.1307  -16.4673   19.4269 N   0  0  0  0  0  0  0  0  0  0  0  0
    8.8754  -15.1151   21.2389 C   0  0  0  0  0  0  0  0  0  0  0  0
    9.3418  -14.0239   21.7247 O   0  0  0  0  0  0  0  0  0  0  0  0
    7.2454  -15.7149   14.7096 N   0  0  0  0  0  0  0  0  0  0  0  0
    8.6793  -16.1675   22.1435 C   0  0  1  0  0  0  0  0  0  0  0  0
    8.7623  -15.9465   23.5853 C   0  0  0  0  0  0  0  0  0  0  0  0
    7.6726  -16.5377   24.3774 C   0  0  0  0  0  0  0  0  0  0  0  0
    6.7336  -15.5696   25.0138 C   0  0  0  0  0  0  0  0  0  0  0  0
    5.4611  -15.7704   25.4713 N   0  0  0  0  0  0  0  0  0  0  0  0
    5.0043  -14.6029   25.9441 C   0  0  0  0  0  0  0  0  0  0  0  0
    5.9298  -13.6460   25.8122 C   0  0  0  0  0  0  0  0  0  0  0  0
    5.9171  -12.2840   26.1516 C   0  0  0  0  0  0  0  0  0  0  0  0
    7.0492  -11.5478   25.8778 C   0  0  0  0  0  0  0  0  0  0  0  0
    8.1644  -12.1091   25.2921 C   0  0  0  0  0  0  0  0  0  0  0  0
    8.1799  -13.4686   24.9524 C   0  0  0  0  0  0  0  0  0  0  0  0
    7.0382  -14.2086   25.2297 C   0  0  0  0  0  0  0  0  0  0  0  0
   10.1495  -16.3597   23.9394 O   0  0  0  0  0  0  0  0  0  0  0  0
   10.7668  -17.2053   23.1899 C   0  0  0  0  0  0  0  0  0  0  0  0
   11.5229  -13.2631   28.9221 S   0  0  0  0  0  0  0  0  0  0  0  0
   11.8650  -14.9722   29.4452 C   0  0  0  0  0  0  0  0  0  0  0  0
   11.4301  -16.0622   28.0229 C   0  0  0  0  0  0  0  0  0  0  0  0
   12.3845  -15.8296   26.8905 C   0  0  1  0  0  0  0  0  0  0  0  0
   11.9219  -16.5510   25.6592 N   0  0  0  0  0  0  0  0  0  0  0  0
   10.7736  -15.8403   25.0762 C   0  0  0  0  0  0  0  0  0  0  0  0
   11.5290  -17.9556   25.8686 O   0  0  0  0  0  0  0  0  0  0  0  0
   12.3658  -19.0383   25.7438 O   0  0  0  0  0  0  0  0  0  0  0  0
  2  1  1  0
  3  2  2  0
  4  2  1  0
  5  4  1  0
  6  5  1  0
  7  6  1  0
  7  8  1  0
  8  9  1  1
 10  8  1  0
 11 10  2  0
 12 10  1  0
 13 24  1  0
 13 12  1  0
 13 14  1  6
 15 23  1  0
 15 14  1  0
 16 15  2  0
 17 16  1  0
 17 18  1  0
 18 23  2  0
 19 18  1  0
 19 20  2  0
 20 21  1  0
 21 22  2  0
 23 22  1  0
 24 31  1  0
 25 24  2  0
 27 28  1  0
 27 26  1  0
 28 29  1  0
 30 29  1  6
 30 32  1  0
 31 30  1  0
 32 33  1  0
 34 32  2  0
M  END
$$$$
