RWM.pdb
     RDKit          3D

 34 35  0  0  1  0  0  0  0  0999 V2000
    8.2692  -12.4857   15.1711 N   0  0  0  0  0  0  0  0  0  0  0  0
    8.6350  -13.8577   15.4380 C   0  0  0  0  0  0  0  0  0  0  0  0
    8.2799  -14.8189   14.6575 N   0  0  0  0  0  0  0  0  0  0  0  0
    9.4174  -14.2033   16.5585 N   0  0  0  0  0  0  0  0  0  0  0  0
    9.0301  -15.2006   17.5163 C   0  0  0  0  0  0  0  0  0  0  0  0
    7.9693  -14.7956   18.4670 C   0  0  0  0  0  0  0  0  0  0  0  0
    8.2453  -14.7568   19.9120 C   0  0  0  0  0  0  0  0  0  0  0  0
    8.9675  -15.9195   20.5035 C   0  0  2  0  0  0  0  0  0  0  0  0
    8.4318  -17.2046   20.3456 N   0  0  0  0  0  0  0  0  0  0  0  0
    9.1738  -15.6314   21.9706 C   0  0  0  0  0  0  0  0  0  0  0  0
    9.6199  -14.4797   22.3153 O   0  0  0  0  0  0  0  0  0  0  0  0
    8.5658  -15.7973   14.8384 N   0  0  0  0  0  0  0  0  0  0  0  0
    8.9142  -16.5366   23.0086 C   0  0  1  0  0  0  0  0  0  0  0  0
    9.0652  -16.1419   24.4072 C   0  0  0  0  0  0  0  0  0  0  0  0
    7.9298  -16.4741   25.2819 C   0  0  0  0  0  0  0  0  0  0  0  0
    6.8149  -15.4839   25.3025 C   0  0  0  0  0  0  0  0  0  0  0  0
    5.4728  -15.6872   25.1396 N   0  0  0  0  0  0  0  0  0  0  0  0
    4.8635  -14.4964   25.2170 C   0  0  0  0  0  0  0  0  0  0  0  0
    5.7566  -13.5221   25.4236 C   0  0  0  0  0  0  0  0  0  0  0  0
    5.6049  -12.1340   25.5674 C   0  0  0  0  0  0  0  0  0  0  0  0
    6.7441  -11.3853   25.7684 C   0  0  0  0  0  0  0  0  0  0  0  0
    7.9967  -11.9588   25.8293 C   0  0  0  0  0  0  0  0  0  0  0  0
    8.1509  -13.3444   25.6863 C   0  0  0  0  0  0  0  0  0  0  0  0
    7.0016  -14.0969   25.4842 C   0  0  0  0  0  0  0  0  0  0  0  0
   10.3957  -16.6863   24.7992 O   0  0  0  0  0  0  0  0  0  0  0  0
   11.0103  -17.4873   24.0000 C   0  0  0  0  0  0  0  0  0  0  0  0
   10.6265  -15.5468   31.4859 S   0  0  0  0  0  0  0  0  0  0  0  0
   12.0588  -15.6339   30.3668 C   0  0  0  0  0  0  0  0  0  0  0  0
   11.4768  -16.4489   28.8185 C   0  0  0  0  0  0  0  0  0  0  0  0
   12.5931  -16.5037   27.8194 C   0  0  1  0  0  0  0  0  0  0  0  0
   12.1147  -17.1076   26.5322 N   0  0  0  0  0  0  0  0  0  0  0  0
   10.9697  -16.3368   26.0239 C   0  0  0  0  0  0  0  0  0  0  0  0
   11.7091  -18.5215   26.6183 O   0  0  0  0  0  0  0  0  0  0  0  0
   12.5708  -19.5876   26.7139 O   0  0  0  0  0  0  0  0  0  0  0  0
  2  1  1  0
  3  2  2  0
  4  2  1  0
  5  4  1  0
  6  5  1  0
  7  6  1  0
  7  8  1  0
  8  9  1  1
 10  8  1  0
 11 10  2  0
 12 10  1  0
 13 24  1  0
 13 12  1  0
 13 14  1  1
 15 23  1  0
 15 14  1  0
 16 15  2  0
 17 16  1  0
 17 18  1  0
 18 23  2  0
 19 18  1  0
 19 20  2  0
 20 21  1  0
 21 22  2  0
 23 22  1  0
 24 31  1  0
 25 24  2  0
 27 28  1  0
 27 26  1  0
 28 29  1  0
 30 29  1  6
 30 32  1  0
 31 30  1  0
 32 33  1  0
 34 32  2  0
M  END
$$$$
