RWM.pdb
     RDKit          3D

 34 35  0  0  1  0  0  0  0  0999 V2000
   10.1554  -17.7743   14.1762 N   0  0  0  0  0  0  0  0  0  0  0  0
   10.2384  -19.0761   14.7975 C   0  0  0  0  0  0  0  0  0  0  0  0
   10.5893  -20.1234   14.1346 N   0  0  0  0  0  0  0  0  0  0  0  0
    9.9572  -19.2541   16.1672 N   0  0  0  0  0  0  0  0  0  0  0  0
    9.5029  -18.1962   17.0254 C   0  0  0  0  0  0  0  0  0  0  0  0
   10.3903  -17.0135   17.1064 C   0  0  0  0  0  0  0  0  0  0  0  0
   10.5981  -16.3303   18.3932 C   0  0  0  0  0  0  0  0  0  0  0  0
   10.7883  -17.1846   19.6002 C   0  0  2  0  0  0  0  0  0  0  0  0
   10.3063  -18.5003   19.5849 N   0  0  0  0  0  0  0  0  0  0  0  0
   10.2082  -16.4443   20.7805 C   0  0  0  0  0  0  0  0  0  0  0  0
   10.5894  -15.2398   21.0000 O   0  0  0  0  0  0  0  0  0  0  0  0
   10.7203  -21.0394   14.5987 N   0  0  0  0  0  0  0  0  0  0  0  0
    9.2693  -16.9748   21.6756 C   0  0  2  0  0  0  0  0  0  0  0  0
    8.7422  -16.1726   22.7771 C   0  0  0  0  0  0  0  0  0  0  0  0
    7.2896  -16.2700   22.9890 C   0  0  0  0  0  0  0  0  0  0  0  0
    6.7585  -15.5541   24.1845 C   0  0  0  0  0  0  0  0  0  0  0  0
    6.1800  -16.0641   25.3134 N   0  0  0  0  0  0  0  0  0  0  0  0
    5.8418  -15.0361   26.1034 C   0  0  0  0  0  0  0  0  0  0  0  0
    6.1767  -13.8731   25.5333 C   0  0  0  0  0  0  0  0  0  0  0  0
    6.0243  -12.5459   25.9645 C   0  0  0  0  0  0  0  0  0  0  0  0
    6.4767  -11.5479   25.1290 C   0  0  0  0  0  0  0  0  0  0  0  0
    7.0606  -11.8213   23.9100 C   0  0  0  0  0  0  0  0  0  0  0  0
    7.2141  -13.1454   23.4772 C   0  0  0  0  0  0  0  0  0  0  0  0
    6.7579  -14.1494   24.3209 C   0  0  0  0  0  0  0  0  0  0  0  0
    9.6138  -16.5224   23.9340 O   0  0  0  0  0  0  0  0  0  0  0  0
   10.3294  -17.5917   23.8845 C   0  0  0  0  0  0  0  0  0  0  0  0
    9.0549  -14.2544   30.1026 S   0  0  0  0  0  0  0  0  0  0  0  0
   10.8613  -14.3224   29.8939 C   0  0  0  0  0  0  0  0  0  0  0  0
   11.1923  -15.4614   28.4820 C   0  0  0  0  0  0  0  0  0  0  0  0
   10.3053  -15.1119   27.3251 C   0  0  1  0  0  0  0  0  0  0  0  0
   10.5539  -16.0424   26.1749 N   0  0  0  0  0  0  0  0  0  0  0  0
    9.6511  -15.7025   25.0645 C   0  0  0  0  0  0  0  0  0  0  0  0
   10.3807  -17.4734   26.4803 O   0  0  0  0  0  0  0  0  0  0  0  0
   11.3996  -18.3897   26.5825 O   0  0  0  0  0  0  0  0  0  0  0  0
  2  1  1  0
  3  2  2  0
  4  2  1  0
  5  4  1  0
  6  5  1  0
  7  6  1  0
  7  8  1  0
  8  9  1  6
 10  8  1  0
 11 10  2  0
 12 10  1  0
 13 24  1  0
 13 12  1  0
 13 14  1  6
 15 23  1  0
 15 14  1  0
 16 15  2  0
 17 16  1  0
 17 18  1  0
 18 23  2  0
 19 18  1  0
 19 20  2  0
 20 21  1  0
 21 22  2  0
 23 22  1  0
 24 31  1  0
 25 24  2  0
 27 28  1  0
 27 26  1  0
 28 29  1  0
 30 29  1  6
 30 32  1  0
 31 30  1  0
 32 33  1  0
 34 32  2  0
M  END
$$$$
