RWM.pdb
     RDKit          3D

 34 35  0  0  1  0  0  0  0  0999 V2000
    9.2849  -14.6212   16.1097 N   0  0  0  0  0  0  0  0  0  0  0  0
    8.6345  -14.0204   17.2514 C   0  0  0  0  0  0  0  0  0  0  0  0
    8.9925  -12.8708   17.7092 N   0  0  0  0  0  0  0  0  0  0  0  0
    7.5615  -14.6599   17.9046 N   0  0  0  0  0  0  0  0  0  0  0  0
    7.2142  -16.0370   17.6927 C   0  0  0  0  0  0  0  0  0  0  0  0
    7.6513  -16.9763   18.7508 C   0  0  0  0  0  0  0  0  0  0  0  0
    8.8709  -16.7017   19.5273 C   0  0  0  0  0  0  0  0  0  0  0  0
    9.3276  -17.7527   20.4812 C   0  0  2  0  0  0  0  0  0  0  0  0
    8.4411  -18.7769   20.8399 N   0  0  0  0  0  0  0  0  0  0  0  0
    9.8295  -17.0566   21.7226 C   0  0  0  0  0  0  0  0  0  0  0  0
   10.9529  -16.4403   21.6717 O   0  0  0  0  0  0  0  0  0  0  0  0
    8.6283  -12.5084   18.6080 N   0  0  0  0  0  0  0  0  0  0  0  0
    9.1569  -17.0279   22.9518 C   0  0  1  0  0  0  0  0  0  0  0  0
    9.7328  -16.3477   24.1096 C   0  0  0  0  0  0  0  0  0  0  0  0
    8.7676  -15.9224   25.1352 C   0  0  0  0  0  0  0  0  0  0  0  0
    7.5433  -15.2370   24.6299 C   0  0  0  0  0  0  0  0  0  0  0  0
    6.2283  -15.5408   24.8479 N   0  0  0  0  0  0  0  0  0  0  0  0
    5.4835  -14.6555   24.1719 C   0  0  0  0  0  0  0  0  0  0  0  0
    6.2620  -13.7848   23.5195 C   0  0  0  0  0  0  0  0  0  0  0  0
    5.9506  -12.6969   22.6889 C   0  0  0  0  0  0  0  0  0  0  0  0
    7.0001  -11.9833   22.1523 C   0  0  0  0  0  0  0  0  0  0  0  0
    8.3152  -12.3092   22.4090 C   0  0  0  0  0  0  0  0  0  0  0  0
    8.6288  -13.3947   23.2381 C   0  0  0  0  0  0  0  0  0  0  0  0
    7.5697  -14.1122   23.7781 C   0  0  0  0  0  0  0  0  0  0  0  0
   10.8311  -17.2506   24.5553 O   0  0  0  0  0  0  0  0  0  0  0  0
   10.7835  -18.5007   24.2502 C   0  0  0  0  0  0  0  0  0  0  0  0
    9.5464  -13.2197   28.8010 S   0  0  0  0  0  0  0  0  0  0  0  0
   10.8629  -14.2794   29.4757 C   0  0  0  0  0  0  0  0  0  0  0  0
   10.6249  -15.9557   28.7453 C   0  0  0  0  0  0  0  0  0  0  0  0
   10.7447  -15.8842   27.2527 C   0  0  1  0  0  0  0  0  0  0  0  0
   11.8386  -16.7909   26.7711 N   0  0  0  0  0  0  0  0  0  0  0  0
   11.8999  -16.7488   25.3021 C   0  0  0  0  0  0  0  0  0  0  0  0
   11.7076  -18.2001   27.1808 O   0  0  0  0  0  0  0  0  0  0  0  0
   12.4862  -18.8255   28.1246 O   0  0  0  0  0  0  0  0  0  0  0  0
  2  1  1  0
  3  2  2  0
  4  2  1  0
  5  4  1  0
  6  5  1  0
  7  6  1  0
  7  8  1  0
  8  9  1  1
 10  8  1  0
 11 10  2  0
 12 10  1  0
 13 24  1  0
 13 12  1  0
 13 14  1  1
 15 23  1  0
 15 14  1  0
 16 15  2  0
 17 16  1  0
 17 18  1  0
 18 23  2  0
 19 18  1  0
 19 20  2  0
 20 21  1  0
 21 22  2  0
 23 22  1  0
 24 31  1  0
 25 24  2  0
 27 28  1  0
 27 26  1  0
 28 29  1  0
 30 29  1  1
 30 32  1  0
 31 30  1  0
 32 33  1  0
 34 32  2  0
M  END
$$$$
