RWM.pdb
     RDKit          3D

 34 35  0  0  1  0  0  0  0  0999 V2000
    8.5522  -12.3147   16.8523 N   0  0  0  0  0  0  0  0  0  0  0  0
    7.9531  -13.3833   16.0862 C   0  0  0  0  0  0  0  0  0  0  0  0
    8.2511  -13.5807   14.8487 N   0  0  0  0  0  0  0  0  0  0  0  0
    7.0275  -14.2730   16.6681 N   0  0  0  0  0  0  0  0  0  0  0  0
    7.3916  -15.5548   17.2034 C   0  0  0  0  0  0  0  0  0  0  0  0
    7.3570  -15.6638   18.6798 C   0  0  0  0  0  0  0  0  0  0  0  0
    8.5835  -15.4571   19.4666 C   0  0  0  0  0  0  0  0  0  0  0  0
    9.0864  -16.6095   20.2678 C   0  0  2  0  0  0  0  0  0  0  0  0
    8.2440  -17.7088   20.4809 N   0  0  0  0  0  0  0  0  0  0  0  0
    9.5643  -16.0705   21.5940 C   0  0  0  0  0  0  0  0  0  0  0  0
   10.4874  -15.1805   21.6006 O   0  0  0  0  0  0  0  0  0  0  0  0
    7.8864  -14.3975   14.3274 N   0  0  0  0  0  0  0  0  0  0  0  0
    9.0739  -16.4707   22.8445 C   0  0  1  0  0  0  0  0  0  0  0  0
    9.6456  -15.9434   24.0813 C   0  0  0  0  0  0  0  0  0  0  0  0
    8.8457  -16.1748   25.2942 C   0  0  0  0  0  0  0  0  0  0  0  0
    7.5744  -15.4013   25.3907 C   0  0  0  0  0  0  0  0  0  0  0  0
    6.2846  -15.8542   25.4140 N   0  0  0  0  0  0  0  0  0  0  0  0
    5.4753  -14.7890   25.4889 C   0  0  0  0  0  0  0  0  0  0  0  0
    6.1871  -13.6567   25.5146 C   0  0  0  0  0  0  0  0  0  0  0  0
    5.7948  -12.3106   25.5837 C   0  0  0  0  0  0  0  0  0  0  0  0
    6.7885  -11.3560   25.5876 C   0  0  0  0  0  0  0  0  0  0  0  0
    8.1252  -11.6894   25.5265 C   0  0  0  0  0  0  0  0  0  0  0  0
    8.5196  -13.0325   25.4577 C   0  0  0  0  0  0  0  0  0  0  0  0
    7.5166  -13.9927   25.4543 C   0  0  0  0  0  0  0  0  0  0  0  0
   11.0421  -16.4630   24.0895 O   0  0  0  0  0  0  0  0  0  0  0  0
   11.9364  -15.8807   23.3690 C   0  0  0  0  0  0  0  0  0  0  0  0
   11.1581  -14.3222   30.6439 S   0  0  0  0  0  0  0  0  0  0  0  0
   10.7641  -14.4415   28.8713 C   0  0  0  0  0  0  0  0  0  0  0  0
   11.2220  -16.1460   28.3371 C   0  0  0  0  0  0  0  0  0  0  0  0
   10.8720  -16.3397   26.8923 C   0  0  1  0  0  0  0  0  0  0  0  0
   11.7537  -17.3852   26.2756 N   0  0  0  0  0  0  0  0  0  0  0  0
   11.3784  -17.5746   24.8660 C   0  0  0  0  0  0  0  0  0  0  0  0
   11.7181  -18.7015   26.9367 O   0  0  0  0  0  0  0  0  0  0  0  0
   10.9185  -19.7541   26.5615 O   0  0  0  0  0  0  0  0  0  0  0  0
  2  1  1  0
  3  2  2  0
  4  2  1  0
  5  4  1  0
  6  5  1  0
  7  6  1  0
  7  8  1  0
  8  9  1  1
 10  8  1  0
 11 10  2  0
 12 10  1  0
 13 24  1  0
 13 12  1  0
 13 14  1  1
 15 23  1  0
 15 14  1  0
 16 15  2  0
 17 16  1  0
 17 18  1  0
 18 23  2  0
 19 18  1  0
 19 20  2  0
 20 21  1  0
 21 22  2  0
 23 22  1  0
 24 31  1  0
 25 24  2  0
 27 28  1  0
 27 26  1  0
 28 29  1  0
 30 29  1  6
 30 32  1  0
 31 30  1  0
 32 33  1  0
 34 32  2  0
M  END
$$$$
