RWM.pdb
     RDKit          3D

 34 35  0  0  1  0  0  0  0  0999 V2000
    9.0299  -14.9038   16.8509 N   0  0  0  0  0  0  0  0  0  0  0  0
    8.4125  -13.6838   16.3842 C   0  0  0  0  0  0  0  0  0  0  0  0
    8.6177  -13.2308   15.1960 N   0  0  0  0  0  0  0  0  0  0  0  0
    7.5386  -12.9434   17.2059 N   0  0  0  0  0  0  0  0  0  0  0  0
    7.0417  -13.4218   18.4653 C   0  0  0  0  0  0  0  0  0  0  0  0
    7.4440  -14.7998   18.8291 C   0  0  0  0  0  0  0  0  0  0  0  0
    8.5585  -15.0236   19.7637 C   0  0  0  0  0  0  0  0  0  0  0  0
    8.5424  -16.2835   20.5609 C   0  0  2  0  0  0  0  0  0  0  0  0
    7.3164  -16.9140   20.8113 N   0  0  0  0  0  0  0  0  0  0  0  0
    9.2484  -16.0079   21.8660 C   0  0  0  0  0  0  0  0  0  0  0  0
   10.3130  -15.2931   21.8515 O   0  0  0  0  0  0  0  0  0  0  0  0
    8.2001  -12.3388   14.8768 N   0  0  0  0  0  0  0  0  0  0  0  0
    8.8296  -16.4786   23.1179 C   0  0  1  0  0  0  0  0  0  0  0  0
    9.5595  -16.1324   24.3353 C   0  0  0  0  0  0  0  0  0  0  0  0
    8.7759  -16.1937   25.5789 C   0  0  0  0  0  0  0  0  0  0  0  0
    7.4612  -15.4902   25.5531 C   0  0  0  0  0  0  0  0  0  0  0  0
    6.2010  -16.0125   25.4633 N   0  0  0  0  0  0  0  0  0  0  0  0
    5.3320  -14.9927   25.4554 C   0  0  0  0  0  0  0  0  0  0  0  0
    5.9765  -13.8232   25.5358 C   0  0  0  0  0  0  0  0  0  0  0  0
    5.5076  -12.5003   25.5576 C   0  0  0  0  0  0  0  0  0  0  0  0
    6.4439  -11.4930   25.6435 C   0  0  0  0  0  0  0  0  0  0  0  0
    7.7966  -11.7533   25.7066 C   0  0  0  0  0  0  0  0  0  0  0  0
    8.2674  -13.0732   25.6853 C   0  0  0  0  0  0  0  0  0  0  0  0
    7.3221  -14.0866   25.5992 C   0  0  0  0  0  0  0  0  0  0  0  0
   10.7895  -16.9712   24.2753 O   0  0  0  0  0  0  0  0  0  0  0  0
   10.7031  -18.1900   23.8691 C   0  0  0  0  0  0  0  0  0  0  0  0
   10.5969  -13.5719   28.7813 S   0  0  0  0  0  0  0  0  0  0  0  0
   10.7888  -15.2225   29.5230 C   0  0  0  0  0  0  0  0  0  0  0  0
   11.8990  -16.1827   28.4068 C   0  0  0  0  0  0  0  0  0  0  0  0
   11.4688  -16.0045   26.9818 C   0  0  1  0  0  0  0  0  0  0  0  0
   12.4783  -16.6082   26.0507 N   0  0  0  0  0  0  0  0  0  0  0  0
   12.0243  -16.4441   24.6612 C   0  0  0  0  0  0  0  0  0  0  0  0
   12.7564  -18.0380   26.2726 O   0  0  0  0  0  0  0  0  0  0  0  0
   12.1599  -19.0745   25.5959 O   0  0  0  0  0  0  0  0  0  0  0  0
  2  1  1  0
  3  2  2  0
  4  2  1  0
  5  4  1  0
  6  5  1  0
  7  6  1  0
  7  8  1  0
  8  9  1  1
 10  8  1  0
 11 10  2  0
 12 10  1  0
 13 24  1  0
 13 12  1  0
 13 14  1  1
 15 23  1  0
 15 14  1  0
 16 15  2  0
 17 16  1  0
 17 18  1  0
 18 23  2  0
 19 18  1  0
 19 20  2  0
 20 21  1  0
 21 22  2  0
 23 22  1  0
 24 31  1  0
 25 24  2  0
 27 28  1  0
 27 26  1  0
 28 29  1  0
 30 29  1  6
 30 32  1  0
 31 30  1  0
 32 33  1  0
 34 32  2  0
M  END
$$$$
