IIA.pdb
     RDKit          3D

 22 21  0  0  1  0  0  0  0  0999 V2000
    6.6010  -18.4022   19.2646 C   0  0  0  0  0  0  0  0  0  0  0  0
    6.7494  -16.9170   19.5257 C   0  0  0  0  0  0  0  0  0  0  0  0
    7.3903  -16.5941   20.8297 C   0  0  2  0  0  0  0  0  0  0  0  0
    6.7075  -17.4351   21.8981 C   0  0  0  0  0  0  0  0  0  0  0  0
    7.3838  -15.1321   21.2069 C   0  0  2  0  0  0  0  0  0  0  0  0
    8.2511  -14.4923   20.1836 N   0  0  0  0  0  0  0  0  0  0  0  0
    7.9927  -14.8206   22.4989 C   0  0  0  0  0  0  0  0  0  0  0  0
    9.2683  -14.7968   22.5877 O   0  0  0  0  0  0  0  0  0  0  0  0
    5.7941  -11.4669   26.2139 C   0  0  0  0  0  0  0  0  0  0  0  0
    6.7863  -12.1273   25.2758 C   0  0  0  0  0  0  0  0  0  0  0  0
    7.2084  -13.4306   25.8986 C   0  0  2  0  0  0  0  0  0  0  0  0
    8.0961  -13.0944   27.0849 C   0  0  0  0  0  0  0  0  0  0  0  0
    7.9776  -14.3111   24.9723 C   0  0  2  0  0  0  0  0  0  0  0  0
    7.3074  -14.5321   23.7015 N   0  0  0  0  0  0  0  0  0  0  0  0
    8.3971  -15.5889   25.5990 C   0  0  0  0  0  0  0  0  0  0  0  0
    7.4965  -16.3094   26.1003 O   0  0  0  0  0  0  0  0  0  0  0  0
   11.3558  -17.8619   25.4625 C   0  0  0  0  0  0  0  0  0  0  0  0
   10.0901  -17.3745   26.1356 C   0  0  2  0  0  0  0  0  0  0  0  0
    9.7200  -16.0407   25.6677 N   0  0  0  0  0  0  0  0  0  0  0  0
   10.1968  -17.3959   27.5941 C   0  0  0  0  0  0  0  0  0  0  0  0
   10.3866  -18.4535   28.2371 O   0  0  0  0  0  0  0  0  0  0  0  0
   10.0933  -16.2304   28.3737 O   0  0  0  0  0  0  0  0  0  0  0  0
  2  1  1  0
  3  2  1  0
  3  4  1  1
  5  3  1  0
  5  6  1  6
  7  5  1  0
  7 14  1  0
  8  7  2  0
 10  9  1  0
 10 11  1  0
 11 13  1  0
 11 12  1  1
 13 14  1  6
 15 13  1  0
 16 15  2  0
 18 17  1  6
 18 20  1  0
 18 19  1  0
 19 15  1  0
 20 22  1  0
 21 20  2  0
M  END
$$$$
