IIA.pdb
     RDKit          3D

 22 21  0  0  1  0  0  0  0  0999 V2000
    5.9575  -21.7264   24.1842 C   0  0  0  0  0  0  0  0  0  0  0  0
    5.5219  -20.3360   23.7680 C   0  0  0  0  0  0  0  0  0  0  0  0
    6.4848  -19.2644   24.1417 C   0  0  2  0  0  0  0  0  0  0  0  0
    6.8001  -19.4252   25.6214 C   0  0  0  0  0  0  0  0  0  0  0  0
    6.0334  -17.8564   23.8355 C   0  0  2  0  0  0  0  0  0  0  0  0
    5.9741  -17.8121   22.3511 N   0  0  0  0  0  0  0  0  0  0  0  0
    6.9681  -16.8040   24.2302 C   0  0  0  0  0  0  0  0  0  0  0  0
    8.0549  -16.6676   23.5699 O   0  0  0  0  0  0  0  0  0  0  0  0
    5.5575  -12.0207   26.3904 C   0  0  0  0  0  0  0  0  0  0  0  0
    6.3856  -12.9272   25.4998 C   0  0  0  0  0  0  0  0  0  0  0  0
    7.2898  -13.7397   26.3866 C   0  0  2  0  0  0  0  0  0  0  0  0
    8.4568  -12.8480   26.7753 C   0  0  0  0  0  0  0  0  0  0  0  0
    7.8332  -14.9604   25.7237 C   0  0  2  0  0  0  0  0  0  0  0  0
    6.8002  -15.8888   25.2947 N   0  0  0  0  0  0  0  0  0  0  0  0
    8.8807  -15.6399   26.5253 C   0  0  0  0  0  0  0  0  0  0  0  0
    8.5301  -16.1505   27.6198 O   0  0  0  0  0  0  0  0  0  0  0  0
   12.4648  -16.7501   26.0610 C   0  0  0  0  0  0  0  0  0  0  0  0
   11.2015  -16.5544   26.8722 C   0  0  2  0  0  0  0  0  0  0  0  0
   10.2232  -15.7488   26.1450 N   0  0  0  0  0  0  0  0  0  0  0  0
   11.4732  -15.9706   28.1854 C   0  0  0  0  0  0  0  0  0  0  0  0
   11.2283  -14.7713   28.4498 O   0  0  0  0  0  0  0  0  0  0  0  0
   12.0279  -16.7161   29.2405 O   0  0  0  0  0  0  0  0  0  0  0  0
  2  1  1  0
  3  2  1  0
  3  4  1  1
  5  3  1  0
  5  6  1  6
  7  5  1  0
  7 14  1  0
  8  7  2  0
 10  9  1  0
 10 11  1  0
 11 13  1  0
 11 12  1  6
 13 14  1  1
 15 13  1  0
 16 15  2  0
 18 17  1  6
 18 20  1  0
 18 19  1  0
 19 15  1  0
 20 22  1  0
 21 20  2  0
M  END
$$$$
