IIA.pdb
     RDKit          3D

 22 21  0  0  1  0  0  0  0  0999 V2000
    5.8381  -18.6257   21.2639 C   0  0  0  0  0  0  0  0  0  0  0  0
    5.9849  -17.1636   21.6335 C   0  0  0  0  0  0  0  0  0  0  0  0
    7.0131  -16.4397   20.8373 C   0  0  2  0  0  0  0  0  0  0  0  0
    8.2957  -17.2563   20.8918 C   0  0  0  0  0  0  0  0  0  0  0  0
    7.2643  -15.0107   21.2555 C   0  0  2  0  0  0  0  0  0  0  0  0
    8.2212  -14.5009   20.2390 N   0  0  0  0  0  0  0  0  0  0  0  0
    7.9288  -14.8486   22.5474 C   0  0  0  0  0  0  0  0  0  0  0  0
    9.2071  -14.8290   22.5831 O   0  0  0  0  0  0  0  0  0  0  0  0
    5.9553  -11.6671   26.4499 C   0  0  0  0  0  0  0  0  0  0  0  0
    6.9716  -12.2899   25.5119 C   0  0  0  0  0  0  0  0  0  0  0  0
    7.2941  -13.6644   26.0326 C   0  0  2  0  0  0  0  0  0  0  0  0
    8.1775  -13.4852   27.2556 C   0  0  0  0  0  0  0  0  0  0  0  0
    8.0224  -14.5174   25.0492 C   0  0  2  0  0  0  0  0  0  0  0  0
    7.2966  -14.7052   23.8039 N   0  0  0  0  0  0  0  0  0  0  0  0
    8.4709  -15.8108   25.6214 C   0  0  0  0  0  0  0  0  0  0  0  0
    7.5811  -16.6116   26.0065 O   0  0  0  0  0  0  0  0  0  0  0  0
   11.4753  -17.9897   25.5658 C   0  0  0  0  0  0  0  0  0  0  0  0
   10.2234  -17.5017   26.2636 C   0  0  2  0  0  0  0  0  0  0  0  0
    9.8099  -16.1943   25.7591 N   0  0  0  0  0  0  0  0  0  0  0  0
   10.3798  -17.4653   27.7173 C   0  0  0  0  0  0  0  0  0  0  0  0
   10.4887  -16.3922   28.3534 O   0  0  0  0  0  0  0  0  0  0  0  0
   10.4186  -18.6328   28.4997 O   0  0  0  0  0  0  0  0  0  0  0  0
  2  1  1  0
  3  2  1  0
  3  4  1  1
  5  3  1  0
  5  6  1  6
  7  5  1  0
  7 14  1  0
  8  7  2  0
 10  9  1  0
 10 11  1  0
 11 13  1  0
 11 12  1  1
 13 14  1  6
 15 13  1  0
 16 15  2  0
 18 17  1  6
 18 20  1  0
 18 19  1  0
 19 15  1  0
 20 22  1  0
 21 20  2  0
M  END
$$$$
