IIA.pdb
     RDKit          3D

 22 21  0  0  1  0  0  0  0  0999 V2000
   11.2955  -15.7430   31.1514 C   0  0  0  0  0  0  0  0  0  0  0  0
   10.0591  -16.4013   30.5735 C   0  0  0  0  0  0  0  0  0  0  0  0
    9.8778  -16.1702   29.1144 C   0  0  2  0  0  0  0  0  0  0  0  0
   10.0472  -14.6796   28.8606 C   0  0  0  0  0  0  0  0  0  0  0  0
    8.5749  -16.6715   28.5390 C   0  0  2  0  0  0  0  0  0  0  0  0
    8.6886  -18.1508   28.6257 N   0  0  0  0  0  0  0  0  0  0  0  0
    8.3623  -16.3687   27.1248 C   0  0  0  0  0  0  0  0  0  0  0  0
    8.4391  -17.3204   26.2739 O   0  0  0  0  0  0  0  0  0  0  0  0
    6.1750  -11.7286   26.0007 C   0  0  0  0  0  0  0  0  0  0  0  0
    6.0853  -13.1607   25.5091 C   0  0  0  0  0  0  0  0  0  0  0  0
    7.3888  -13.4970   24.8365 C   0  0  2  0  0  0  0  0  0  0  0  0
    7.1575  -13.4042   23.3378 C   0  0  0  0  0  0  0  0  0  0  0  0
    7.8836  -14.8687   25.1503 C   0  0  2  0  0  0  0  0  0  0  0  0
    8.0709  -15.0999   26.5731 N   0  0  0  0  0  0  0  0  0  0  0  0
    9.0897  -15.2440   24.3717 C   0  0  0  0  0  0  0  0  0  0  0  0
   10.1251  -14.5504   24.5406 O   0  0  0  0  0  0  0  0  0  0  0  0
   10.3462  -18.1262   22.3246 C   0  0  0  0  0  0  0  0  0  0  0  0
   10.3533  -16.6648   22.7204 C   0  0  2  0  0  0  0  0  0  0  0  0
    9.1492  -16.3116   23.4687 N   0  0  0  0  0  0  0  0  0  0  0  0
   10.5188  -15.7810   21.5669 C   0  0  0  0  0  0  0  0  0  0  0  0
   11.6452  -15.4672   21.1186 O   0  0  0  0  0  0  0  0  0  0  0  0
    9.4245  -15.2234   20.8826 O   0  0  0  0  0  0  0  0  0  0  0  0
  2  1  1  0
  3  2  1  0
  3  4  1  1
  5  3  1  0
  5  6  1  6
  7  5  1  0
  7 14  1  0
  8  7  2  0
 10  9  1  0
 10 11  1  0
 11 13  1  0
 11 12  1  6
 13 14  1  1
 15 13  1  0
 16 15  2  0
 18 17  1  6
 18 20  1  0
 18 19  1  0
 19 15  1  0
 20 22  1  0
 21 20  2  0
M  END
$$$$
