IIA.pdb
     RDKit          3D

 22 21  0  0  1  0  0  0  0  0999 V2000
    6.7378  -18.4246   19.0417 C   0  0  0  0  0  0  0  0  0  0  0  0
    6.5302  -16.9625   19.3810 C   0  0  0  0  0  0  0  0  0  0  0  0
    7.2896  -16.5063   20.5769 C   0  0  2  0  0  0  0  0  0  0  0  0
    6.9138  -17.4182   21.7354 C   0  0  0  0  0  0  0  0  0  0  0  0
    7.0981  -15.0551   20.9475 C   0  0  2  0  0  0  0  0  0  0  0  0
    7.7049  -14.3108   19.8132 N   0  0  0  0  0  0  0  0  0  0  0  0
    7.8173  -14.6186   22.1430 C   0  0  0  0  0  0  0  0  0  0  0  0
    9.0930  -14.5394   22.0985 O   0  0  0  0  0  0  0  0  0  0  0  0
    7.5018  -11.4835   27.4111 C   0  0  0  0  0  0  0  0  0  0  0  0
    8.1942  -12.6192   26.6820 C   0  0  0  0  0  0  0  0  0  0  0  0
    7.4140  -12.9013   25.4266 C   0  0  2  0  0  0  0  0  0  0  0  0
    6.0321  -13.3676   25.8524 C   0  0  0  0  0  0  0  0  0  0  0  0
    8.0238  -13.9613   24.5726 C   0  0  2  0  0  0  0  0  0  0  0  0
    7.2423  -14.2613   23.3843 N   0  0  0  0  0  0  0  0  0  0  0  0
    8.3649  -15.1919   25.3281 C   0  0  0  0  0  0  0  0  0  0  0  0
    7.4113  -15.9123   25.7195 O   0  0  0  0  0  0  0  0  0  0  0  0
   11.2040  -17.5157   25.5416 C   0  0  0  0  0  0  0  0  0  0  0  0
    9.9897  -16.9035   26.2073 C   0  0  2  0  0  0  0  0  0  0  0  0
    9.6691  -15.5999   25.6307 N   0  0  0  0  0  0  0  0  0  0  0  0
   10.1488  -16.7986   27.6574 C   0  0  0  0  0  0  0  0  0  0  0  0
   10.2849  -17.8039   28.3915 O   0  0  0  0  0  0  0  0  0  0  0  0
   10.1597  -15.5619   28.3261 O   0  0  0  0  0  0  0  0  0  0  0  0
  2  1  1  0
  3  2  1  0
  3  4  1  1
  5  3  1  0
  5  6  1  6
  7  5  1  0
  7 14  1  0
  8  7  2  0
 10  9  1  0
 10 11  1  0
 11 13  1  0
 11 12  1  1
 13 14  1  6
 15 13  1  0
 16 15  2  0
 18 17  1  6
 18 20  1  0
 18 19  1  0
 19 15  1  0
 20 22  1  0
 21 20  2  0
M  END
$$$$
