IIA.pdb
     RDKit          3D

 22 21  0  0  1  0  0  0  0  0999 V2000
    5.8061  -22.0352   24.5587 C   0  0  0  0  0  0  0  0  0  0  0  0
    5.1876  -20.6851   24.2577 C   0  0  0  0  0  0  0  0  0  0  0  0
    6.1653  -19.5631   24.2409 C   0  0  2  0  0  0  0  0  0  0  0  0
    6.9724  -19.6374   25.5285 C   0  0  0  0  0  0  0  0  0  0  0  0
    5.5669  -18.1890   24.0568 C   0  0  2  0  0  0  0  0  0  0  0  0
    5.0796  -18.1936   22.6528 N   0  0  0  0  0  0  0  0  0  0  0  0
    6.5156  -17.0805   24.1475 C   0  0  0  0  0  0  0  0  0  0  0  0
    7.2998  -16.8602   23.1616 O   0  0  0  0  0  0  0  0  0  0  0  0
    5.7807  -12.3561   26.8408 C   0  0  0  0  0  0  0  0  0  0  0  0
    6.3045  -13.1927   25.6891 C   0  0  0  0  0  0  0  0  0  0  0  0
    7.4095  -14.0646   26.2212 C   0  0  2  0  0  0  0  0  0  0  0  0
    8.6465  -13.1921   26.3512 C   0  0  0  0  0  0  0  0  0  0  0  0
    7.7394  -15.2159   25.3320 C   0  0  2  0  0  0  0  0  0  0  0  0
    6.6684  -16.1942   25.2385 N   0  0  0  0  0  0  0  0  0  0  0  0
    9.0364  -15.8549   25.6652 C   0  0  0  0  0  0  0  0  0  0  0  0
    9.1243  -16.4387   26.7755 O   0  0  0  0  0  0  0  0  0  0  0  0
   12.2281  -16.7134   23.8252 C   0  0  0  0  0  0  0  0  0  0  0  0
   11.3156  -16.7200   25.0334 C   0  0  2  0  0  0  0  0  0  0  0  0
   10.1595  -15.8500   24.8301 N   0  0  0  0  0  0  0  0  0  0  0  0
   12.0223  -16.3565   26.2612 C   0  0  0  0  0  0  0  0  0  0  0  0
   12.0019  -15.1947   26.7279 O   0  0  0  0  0  0  0  0  0  0  0  0
   12.7728  -17.2869   27.0015 O   0  0  0  0  0  0  0  0  0  0  0  0
  2  1  1  0
  3  2  1  0
  3  4  1  1
  5  3  1  0
  5  6  1  6
  7  5  1  0
  7 14  1  0
  8  7  2  0
 10  9  1  0
 10 11  1  0
 11 13  1  0
 11 12  1  6
 13 14  1  1
 15 13  1  0
 16 15  2  0
 18 17  1  6
 18 20  1  0
 18 19  1  0
 19 15  1  0
 20 22  1  0
 21 20  2  0
M  END
$$$$
