IIA.pdb
     RDKit          3D

 22 21  0  0  1  0  0  0  0  0999 V2000
    6.5877  -18.0742   18.9195 C   0  0  0  0  0  0  0  0  0  0  0  0
    6.5808  -16.6227   19.3544 C   0  0  0  0  0  0  0  0  0  0  0  0
    7.3186  -16.3684   20.6217 C   0  0  2  0  0  0  0  0  0  0  0  0
    6.8454  -17.3926   21.6425 C   0  0  0  0  0  0  0  0  0  0  0  0
    7.1980  -14.9658   21.1679 C   0  0  2  0  0  0  0  0  0  0  0  0
    7.8953  -14.1257   20.1596 N   0  0  0  0  0  0  0  0  0  0  0  0
    7.8906  -14.7297   22.4334 C   0  0  0  0  0  0  0  0  0  0  0  0
    9.1684  -14.6764   22.4344 O   0  0  0  0  0  0  0  0  0  0  0  0
    5.8037  -11.6517   26.3670 C   0  0  0  0  0  0  0  0  0  0  0  0
    6.8764  -12.1765   25.4320 C   0  0  0  0  0  0  0  0  0  0  0  0
    7.3042  -13.5278   25.9375 C   0  0  2  0  0  0  0  0  0  0  0  0
    8.2261  -13.2926   27.1220 C   0  0  0  0  0  0  0  0  0  0  0  0
    8.0410  -14.3364   24.9235 C   0  0  2  0  0  0  0  0  0  0  0  0
    7.2868  -14.5466   23.6987 N   0  0  0  0  0  0  0  0  0  0  0  0
    8.5668  -15.6126   25.4679 C   0  0  0  0  0  0  0  0  0  0  0  0
    7.7273  -16.4599   25.8666 O   0  0  0  0  0  0  0  0  0  0  0  0
   11.7660  -17.5526   25.4158 C   0  0  0  0  0  0  0  0  0  0  0  0
   10.4152  -17.2316   26.0199 C   0  0  2  0  0  0  0  0  0  0  0  0
    9.9259  -15.9320   25.5655 N   0  0  0  0  0  0  0  0  0  0  0  0
   10.4355  -17.2906   27.4811 C   0  0  0  0  0  0  0  0  0  0  0  0
   10.2685  -16.2758   28.1956 O   0  0  0  0  0  0  0  0  0  0  0  0
   10.6440  -18.4907   28.1833 O   0  0  0  0  0  0  0  0  0  0  0  0
  2  1  1  0
  3  2  1  0
  3  4  1  1
  5  3  1  0
  5  6  1  6
  7  5  1  0
  7 14  1  0
  8  7  2  0
 10  9  1  0
 10 11  1  0
 11 13  1  0
 11 12  1  1
 13 14  1  6
 15 13  1  0
 16 15  2  0
 18 17  1  1
 18 20  1  0
 18 19  1  0
 19 15  1  0
 20 22  1  0
 21 20  2  0
M  END
$$$$
