IIA.pdb
     RDKit          3D

 22 21  0  0  1  0  0  0  0  0999 V2000
    5.4893  -16.0268   19.9552 C   0  0  0  0  0  0  0  0  0  0  0  0
    6.9318  -15.5683   19.8844 C   0  0  0  0  0  0  0  0  0  0  0  0
    7.4438  -14.9874   21.1555 C   0  0  2  0  0  0  0  0  0  0  0  0
    8.5145  -13.9678   20.7965 C   0  0  0  0  0  0  0  0  0  0  0  0
    7.9658  -15.9887   22.1579 C   0  0  2  0  0  0  0  0  0  0  0  0
    6.7460  -16.6934   22.6314 N   0  0  0  0  0  0  0  0  0  0  0  0
    8.5825  -15.4108   23.3507 C   0  0  0  0  0  0  0  0  0  0  0  0
    9.8062  -15.0432   23.2934 O   0  0  0  0  0  0  0  0  0  0  0  0
    5.8761  -12.0911   26.4371 C   0  0  0  0  0  0  0  0  0  0  0  0
    7.0332  -12.6566   25.6360 C   0  0  0  0  0  0  0  0  0  0  0  0
    7.7449  -13.6591   26.5037 C   0  0  2  0  0  0  0  0  0  0  0  0
    8.6109  -12.8762   27.4762 C   0  0  0  0  0  0  0  0  0  0  0  0
    8.6238  -14.5904   25.7387 C   0  0  2  0  0  0  0  0  0  0  0  0
    7.9576  -15.2046   24.6021 N   0  0  0  0  0  0  0  0  0  0  0  0
    9.2852  -15.6032   26.5979 C   0  0  0  0  0  0  0  0  0  0  0  0
    8.5429  -16.3644   27.2696 O   0  0  0  0  0  0  0  0  0  0  0  0
   12.6790  -17.1685   26.8895 C   0  0  0  0  0  0  0  0  0  0  0  0
   11.2957  -16.8719   27.4290 C   0  0  2  0  0  0  0  0  0  0  0  0
   10.6710  -15.7651   26.7082 N   0  0  0  0  0  0  0  0  0  0  0  0
   11.3091  -16.6060   28.8670 C   0  0  0  0  0  0  0  0  0  0  0  0
   11.7294  -17.4415   29.6997 O   0  0  0  0  0  0  0  0  0  0  0  0
   10.8508  -15.3940   29.4128 O   0  0  0  0  0  0  0  0  0  0  0  0
  2  1  1  0
  3  2  1  0
  3  4  1  6
  5  3  1  0
  5  6  1  1
  7  5  1  0
  7 14  1  0
  8  7  2  0
 10  9  1  0
 10 11  1  0
 11 13  1  0
 11 12  1  1
 13 14  1  6
 15 13  1  0
 16 15  2  0
 18 17  1  6
 18 20  1  0
 18 19  1  0
 19 15  1  0
 20 22  1  0
 21 20  2  0
M  END
$$$$
