IIA.pdb
     RDKit          3D

 22 21  0  0  1  0  0  0  0  0999 V2000
   11.2873  -15.2184   31.2588 C   0  0  0  0  0  0  0  0  0  0  0  0
   10.2023  -16.0799   30.6449 C   0  0  0  0  0  0  0  0  0  0  0  0
   10.0493  -15.9021   29.1752 C   0  0  2  0  0  0  0  0  0  0  0  0
    9.9271  -14.4102   28.9029 C   0  0  0  0  0  0  0  0  0  0  0  0
    8.9035  -16.6610   28.5497 C   0  0  2  0  0  0  0  0  0  0  0  0
    9.3056  -18.0864   28.6733 N   0  0  0  0  0  0  0  0  0  0  0  0
    8.7067  -16.4232   27.1208 C   0  0  0  0  0  0  0  0  0  0  0  0
    8.7278  -17.4223   26.3226 O   0  0  0  0  0  0  0  0  0  0  0  0
    6.2171  -11.9050   25.6862 C   0  0  0  0  0  0  0  0  0  0  0  0
    6.3044  -13.4041   25.4725 C   0  0  0  0  0  0  0  0  0  0  0  0
    7.5943  -13.6902   24.7522 C   0  0  2  0  0  0  0  0  0  0  0  0
    7.2923  -13.6641   23.2635 C   0  0  0  0  0  0  0  0  0  0  0  0
    8.1812  -15.0197   25.0881 C   0  0  2  0  0  0  0  0  0  0  0  0
    8.4875  -15.1715   26.5010 N   0  0  0  0  0  0  0  0  0  0  0  0
    9.3422  -15.3750   24.2354 C   0  0  0  0  0  0  0  0  0  0  0  0
   10.3518  -14.6274   24.2935 O   0  0  0  0  0  0  0  0  0  0  0  0
   10.6334  -18.2963   22.2911 C   0  0  0  0  0  0  0  0  0  0  0  0
   10.5433  -16.8067   22.5471 C   0  0  2  0  0  0  0  0  0  0  0  0
    9.3863  -16.4799   23.3774 N   0  0  0  0  0  0  0  0  0  0  0  0
   10.5198  -16.0334   21.3060 C   0  0  0  0  0  0  0  0  0  0  0  0
    9.4545  -15.6213   20.7927 O   0  0  0  0  0  0  0  0  0  0  0  0
   11.6918  -15.6999   20.6045 O   0  0  0  0  0  0  0  0  0  0  0  0
  2  1  1  0
  3  2  1  0
  3  4  1  1
  5  3  1  0
  5  6  1  6
  7  5  1  0
  7 14  1  0
  8  7  2  0
 10  9  1  0
 10 11  1  0
 11 13  1  0
 11 12  1  6
 13 14  1  1
 15 13  1  0
 16 15  2  0
 18 17  1  6
 18 20  1  0
 18 19  1  0
 19 15  1  0
 20 22  1  0
 21 20  2  0
M  END
$$$$
