IIA.pdb
     RDKit          3D

 22 21  0  0  1  0  0  0  0  0999 V2000
   11.6581  -15.8267   30.9536 C   0  0  0  0  0  0  0  0  0  0  0  0
   10.3264  -16.3749   30.4825 C   0  0  0  0  0  0  0  0  0  0  0  0
   10.0434  -16.1200   29.0437 C   0  0  2  0  0  0  0  0  0  0  0  0
   10.1856  -14.6241   28.8052 C   0  0  0  0  0  0  0  0  0  0  0  0
    8.7069  -16.6209   28.5508 C   0  0  2  0  0  0  0  0  0  0  0  0
    8.8147  -18.0993   28.6580 N   0  0  0  0  0  0  0  0  0  0  0  0
    8.4181  -16.3416   27.1452 C   0  0  0  0  0  0  0  0  0  0  0  0
    8.4475  -17.3077   26.3077 O   0  0  0  0  0  0  0  0  0  0  0  0
    6.0283  -11.7006   25.8448 C   0  0  0  0  0  0  0  0  0  0  0  0
    6.0567  -13.1966   25.5966 C   0  0  0  0  0  0  0  0  0  0  0  0
    7.3278  -13.5146   24.8566 C   0  0  2  0  0  0  0  0  0  0  0  0
    7.0086  -13.4598   23.3722 C   0  0  0  0  0  0  0  0  0  0  0  0
    7.8757  -14.8664   25.1685 C   0  0  2  0  0  0  0  0  0  0  0  0
    8.0983  -15.0817   26.5888 N   0  0  0  0  0  0  0  0  0  0  0  0
    9.0787  -15.2050   24.3688 C   0  0  0  0  0  0  0  0  0  0  0  0
   10.0914  -14.4729   24.5105 O   0  0  0  0  0  0  0  0  0  0  0  0
   10.6653  -18.0825   22.7603 C   0  0  0  0  0  0  0  0  0  0  0  0
   10.3626  -16.5998   22.7109 C   0  0  2  0  0  0  0  0  0  0  0  0
    9.1589  -16.2781   23.4739 N   0  0  0  0  0  0  0  0  0  0  0  0
   10.2491  -16.1047   21.3394 C   0  0  0  0  0  0  0  0  0  0  0  0
    9.1573  -15.7403   20.8462 O   0  0  0  0  0  0  0  0  0  0  0  0
   11.3581  -16.0041   20.4811 O   0  0  0  0  0  0  0  0  0  0  0  0
  2  1  1  0
  3  2  1  0
  3  4  1  1
  5  3  1  0
  5  6  1  6
  7  5  1  0
  7 14  1  0
  8  7  2  0
 10  9  1  0
 10 11  1  0
 11 13  1  0
 11 12  1  6
 13 14  1  1
 15 13  1  0
 16 15  2  0
 18 17  1  6
 18 20  1  0
 18 19  1  0
 19 15  1  0
 20 22  1  0
 21 20  2  0
M  END
$$$$
