IIA.pdb
     RDKit          3D

 22 21  0  0  1  0  0  0  0  0999 V2000
    6.5952  -17.9322   18.7773 C   0  0  0  0  0  0  0  0  0  0  0  0
    6.6141  -16.4808   19.2123 C   0  0  0  0  0  0  0  0  0  0  0  0
    7.2892  -16.2507   20.5187 C   0  0  2  0  0  0  0  0  0  0  0  0
    6.7255  -17.2569   21.5109 C   0  0  0  0  0  0  0  0  0  0  0  0
    7.1868  -14.8442   21.0584 C   0  0  2  0  0  0  0  0  0  0  0  0
    7.9456  -14.0258   20.0770 N   0  0  0  0  0  0  0  0  0  0  0  0
    7.8364  -14.6249   22.3495 C   0  0  0  0  0  0  0  0  0  0  0  0
    9.1121  -14.5436   22.3900 O   0  0  0  0  0  0  0  0  0  0  0  0
    5.6119  -11.7048   26.3700 C   0  0  0  0  0  0  0  0  0  0  0  0
    6.6885  -12.1921   25.4191 C   0  0  0  0  0  0  0  0  0  0  0  0
    7.1203  -13.5589   25.8771 C   0  0  2  0  0  0  0  0  0  0  0  0
    7.9962  -13.3653   27.1033 C   0  0  0  0  0  0  0  0  0  0  0  0
    7.9053  -14.3087   24.8541 C   0  0  2  0  0  0  0  0  0  0  0  0
    7.1918  -14.4870   23.6003 N   0  0  0  0  0  0  0  0  0  0  0  0
    8.4466  -15.5930   25.3630 C   0  0  0  0  0  0  0  0  0  0  0  0
    7.6196  -16.4427   25.7822 O   0  0  0  0  0  0  0  0  0  0  0  0
   11.6190  -17.5591   25.1651 C   0  0  0  0  0  0  0  0  0  0  0  0
   10.3095  -17.2179   25.8443 C   0  0  2  0  0  0  0  0  0  0  0  0
    9.8073  -15.9177   25.4061 N   0  0  0  0  0  0  0  0  0  0  0  0
   10.4155  -17.2628   27.3023 C   0  0  0  0  0  0  0  0  0  0  0  0
   10.7825  -18.2903   27.9167 O   0  0  0  0  0  0  0  0  0  0  0  0
   10.1123  -16.1552   28.1136 O   0  0  0  0  0  0  0  0  0  0  0  0
  2  1  1  0
  3  2  1  0
  3  4  1  1
  5  3  1  0
  5  6  1  6
  7  5  1  0
  7 14  1  0
  8  7  2  0
 10  9  1  0
 10 11  1  0
 11 13  1  0
 11 12  1  1
 13 14  1  6
 15 13  1  0
 16 15  2  0
 18 17  1  6
 18 20  1  0
 18 19  1  0
 19 15  1  0
 20 22  1  0
 21 20  2  0
M  END
$$$$
