IIA.pdb
     RDKit          3D

 22 21  0  0  1  0  0  0  0  0999 V2000
   10.9635  -15.1912   31.1523 C   0  0  0  0  0  0  0  0  0  0  0  0
   10.4092  -16.4224   30.4644 C   0  0  0  0  0  0  0  0  0  0  0  0
   10.1894  -16.2500   29.0025 C   0  0  2  0  0  0  0  0  0  0  0  0
   10.4245  -14.7835   28.6722 C   0  0  0  0  0  0  0  0  0  0  0  0
    8.8439  -16.7093   28.4942 C   0  0  2  0  0  0  0  0  0  0  0  0
    8.9192  -18.1919   28.5651 N   0  0  0  0  0  0  0  0  0  0  0  0
    8.5654  -16.3892   27.0952 C   0  0  0  0  0  0  0  0  0  0  0  0
    8.7390  -17.2964   26.2106 O   0  0  0  0  0  0  0  0  0  0  0  0
    6.0933  -11.7661   25.9946 C   0  0  0  0  0  0  0  0  0  0  0  0
    6.1094  -13.2307   25.6003 C   0  0  0  0  0  0  0  0  0  0  0  0
    7.4142  -13.5032   24.9021 C   0  0  2  0  0  0  0  0  0  0  0  0
    7.1581  -13.3829   23.4094 C   0  0  0  0  0  0  0  0  0  0  0  0
    7.9626  -14.8632   25.1754 C   0  0  2  0  0  0  0  0  0  0  0  0
    8.1097  -15.1485   26.5931 N   0  0  0  0  0  0  0  0  0  0  0  0
    9.2122  -15.1474   24.4277 C   0  0  0  0  0  0  0  0  0  0  0  0
   10.2227  -14.4526   24.7062 O   0  0  0  0  0  0  0  0  0  0  0  0
   11.1882  -17.7002   23.0529 C   0  0  0  0  0  0  0  0  0  0  0  0
   10.5712  -16.3654   22.6921 C   0  0  2  0  0  0  0  0  0  0  0  0
    9.3382  -16.1312   23.4402 N   0  0  0  0  0  0  0  0  0  0  0  0
   10.3321  -16.2378   21.2549 C   0  0  0  0  0  0  0  0  0  0  0  0
   11.2611  -16.2644   20.4156 O   0  0  0  0  0  0  0  0  0  0  0  0
    9.0429  -16.0765   20.7176 O   0  0  0  0  0  0  0  0  0  0  0  0
  2  1  1  0
  3  2  1  0
  3  4  1  1
  5  3  1  0
  5  6  1  6
  7  5  1  0
  7 14  1  0
  8  7  2  0
 10  9  1  0
 10 11  1  0
 11 13  1  0
 11 12  1  6
 13 14  1  1
 15 13  1  0
 16 15  2  0
 18 17  1  6
 18 20  1  0
 18 19  1  0
 19 15  1  0
 20 22  1  0
 21 20  2  0
M  END
$$$$
