IIA.pdb
     RDKit          3D

 22 21  0  0  1  0  0  0  0  0999 V2000
   10.9957  -20.1170   29.0759 C   0  0  0  0  0  0  0  0  0  0  0  0
    9.8536  -19.1369   29.2521 C   0  0  0  0  0  0  0  0  0  0  0  0
    9.3741  -18.5332   27.9790 C   0  0  2  0  0  0  0  0  0  0  0  0
   10.5667  -17.8686   27.3075 C   0  0  0  0  0  0  0  0  0  0  0  0
    8.2234  -17.5653   28.1175 C   0  0  2  0  0  0  0  0  0  0  0  0
    7.0788  -18.4223   28.5226 N   0  0  0  0  0  0  0  0  0  0  0  0
    7.8119  -16.9074   26.8786 C   0  0  0  0  0  0  0  0  0  0  0  0
    7.1761  -17.5886   26.0025 O   0  0  0  0  0  0  0  0  0  0  0  0
    6.4015  -11.8165   26.5395 C   0  0  0  0  0  0  0  0  0  0  0  0
    6.2284  -13.2145   25.9772 C   0  0  0  0  0  0  0  0  0  0  0  0
    7.4773  -13.5586   25.2117 C   0  0  2  0  0  0  0  0  0  0  0  0
    7.2626  -13.1081   23.7767 C   0  0  0  0  0  0  0  0  0  0  0  0
    7.7871  -15.0177   25.2034 C   0  0  2  0  0  0  0  0  0  0  0  0
    8.0444  -15.5574   26.5283 N   0  0  0  0  0  0  0  0  0  0  0  0
    8.8629  -15.3784   24.2474 C   0  0  0  0  0  0  0  0  0  0  0  0
   10.0122  -14.9192   24.4711 O   0  0  0  0  0  0  0  0  0  0  0  0
    9.5145  -17.8991   21.5651 C   0  0  0  0  0  0  0  0  0  0  0  0
    9.7668  -16.5534   22.2115 C   0  0  2  0  0  0  0  0  0  0  0  0
    8.6830  -16.1903   23.1216 N   0  0  0  0  0  0  0  0  0  0  0  0
    9.9827  -15.4975   21.2228 C   0  0  0  0  0  0  0  0  0  0  0  0
    9.0648  -14.7333   20.8465 O   0  0  0  0  0  0  0  0  0  0  0  0
   11.2356  -15.2685   20.6273 O   0  0  0  0  0  0  0  0  0  0  0  0
  2  1  1  0
  3  2  1  0
  3  4  1  1
  5  3  1  0
  5  6  1  6
  7  5  1  0
  7 14  1  0
  8  7  2  0
 10  9  1  0
 10 11  1  0
 11 13  1  0
 11 12  1  6
 13 14  1  1
 15 13  1  0
 16 15  2  0
 18 17  1  6
 18 20  1  0
 18 19  1  0
 19 15  1  0
 20 22  1  0
 21 20  2  0
M  END
$$$$
