YIR.pdb
     RDKit          3D

 32 32  0  0  1  0  0  0  0  0999 V2000
   20.8923  -14.3825  -19.0355 O   0  0  0  0  0  0  0  0  0  0  0  0
   20.8701  -15.4864  -18.1943 C   0  0  0  0  0  0  0  0  0  0  0  0
   20.4824  -16.7409  -18.6201 C   0  0  0  0  0  0  0  0  0  0  0  0
   20.4589  -17.8397  -17.7870 C   0  0  0  0  0  0  0  0  0  0  0  0
   20.8371  -17.7136  -16.4504 C   0  0  0  0  0  0  0  0  0  0  0  0
   20.8237  -18.8551  -15.5291 C   0  0  0  0  0  0  0  0  0  0  0  0
   22.1910  -19.3269  -15.1041 C   0  0  2  0  0  0  0  0  0  0  0  0
   22.8920  -19.8323  -16.2595 N   0  0  0  0  0  0  0  0  0  0  0  0
   21.9710  -20.3870  -14.0669 C   0  0  0  0  0  0  0  0  0  0  0  0
   21.8909  -21.5823  -14.4597 O   0  0  0  0  0  0  0  0  0  0  0  0
   21.2229  -16.4661  -16.0271 C   0  0  0  0  0  0  0  0  0  0  0  0
   21.2463  -15.3669  -16.8601 C   0  0  0  0  0  0  0  0  0  0  0  0
   24.6500  -20.0561   -9.2274 C   0  0  0  0  0  0  0  0  0  0  0  0
   23.9621  -20.5132  -10.4803 C   0  0  0  0  0  0  0  0  0  0  0  0
   22.5005  -20.6645  -10.4302 C   0  0  2  0  0  0  0  0  0  0  0  0
   22.1739  -21.6737   -9.3090 C   0  0  0  0  0  0  0  0  0  0  0  0
   21.7539  -20.9796  -11.6630 C   0  0  2  0  0  0  0  0  0  0  0  0
   21.8626  -20.0153  -12.7065 N   0  0  0  0  0  0  0  0  0  0  0  0
   20.3347  -21.3004  -11.4178 C   0  0  0  0  0  0  0  0  0  0  0  0
   19.5492  -20.3293  -11.1178 O   0  0  0  0  0  0  0  0  0  0  0  0
   18.4689  -25.9241   -4.9380 N   0  0  0  0  0  0  0  0  0  0  0  0
   17.2056  -25.4411   -5.3278 C   0  0  0  0  0  0  0  0  0  0  0  0
   16.1802  -25.6780   -4.5980 N   0  0  0  0  0  0  0  0  0  0  0  0
   17.0650  -24.6931   -6.5238 N   0  0  0  0  0  0  0  0  0  0  0  0
   18.2576  -24.5143   -7.3443 C   0  0  0  0  0  0  0  0  0  0  0  0
   17.8119  -23.8430   -8.6053 C   0  0  0  0  0  0  0  0  0  0  0  0
   18.9998  -23.5230   -9.4577 C   0  0  0  0  0  0  0  0  0  0  0  0
   18.5469  -22.8702  -10.7458 C   0  0  2  0  0  0  0  0  0  0  0  0
   19.7896  -22.5954  -11.4940 N   0  0  0  0  0  0  0  0  0  0  0  0
   17.8629  -21.6032  -10.4084 C   0  0  0  0  0  0  0  0  0  0  0  0
   16.5557  -21.4254  -10.8543 O   0  0  0  0  0  0  0  0  0  0  0  0
   18.3483  -20.6610   -9.7528 O   0  0  0  0  0  0  0  0  0  0  0  0
  2  3  2  0
  2  1  1  0
  4  3  1  0
  5  4  2  0
  6  5  1  0
  7  6  1  0
  7  8  1  6
  9  7  1  0
  9 10  2  0
 11  5  1  0
 11 12  2  0
 12  2  1  0
 13 14  1  0
 14 15  1  0
 15 17  1  0
 15 16  1  1
 17 18  1  6
 18  9  1  0
 19 17  1  0
 19 20  2  0
 21 22  1  0
 22 24  1  0
 23 22  2  0
 24 25  1  0
 26 25  1  0
 27 26  1  0
 28 27  1  1
 29 28  1  0
 29 19  1  0
 30 28  1  0
 31 30  1  0
 32 30  2  0
M  END
$$$$
