YIR.pdb
     RDKit          3D

 32 32  0  0  1  0  0  0  0  0999 V2000
   20.4308  -14.9639  -19.6261 O   0  0  0  0  0  0  0  0  0  0  0  0
   20.5349  -16.0531  -18.7720 C   0  0  0  0  0  0  0  0  0  0  0  0
   20.9778  -17.2910  -19.1925 C   0  0  0  0  0  0  0  0  0  0  0  0
   21.0822  -18.3754  -18.3468 C   0  0  0  0  0  0  0  0  0  0  0  0
   20.7335  -18.2510  -17.0020 C   0  0  0  0  0  0  0  0  0  0  0  0
   20.8259  -19.3791  -16.0689 C   0  0  0  0  0  0  0  0  0  0  0  0
   22.0671  -19.3778  -15.2132 C   0  0  2  0  0  0  0  0  0  0  0  0
   23.2104  -19.6621  -16.0460 N   0  0  0  0  0  0  0  0  0  0  0  0
   21.8586  -20.4254  -14.1611 C   0  0  0  0  0  0  0  0  0  0  0  0
   22.5316  -21.4876  -14.2515 O   0  0  0  0  0  0  0  0  0  0  0  0
   20.2932  -17.0199  -16.5838 C   0  0  0  0  0  0  0  0  0  0  0  0
   20.1886  -15.9352  -17.4296 C   0  0  0  0  0  0  0  0  0  0  0  0
   21.7485  -20.3937   -8.2076 C   0  0  0  0  0  0  0  0  0  0  0  0
   21.2892  -21.1102   -9.4436 C   0  0  0  0  0  0  0  0  0  0  0  0
   21.2574  -20.3411  -10.6963 C   0  0  2  0  0  0  0  0  0  0  0  0
   20.4008  -19.0813  -10.4487 C   0  0  0  0  0  0  0  0  0  0  0  0
   20.8721  -21.0069  -11.9552 C   0  0  2  0  0  0  0  0  0  0  0  0
   20.9294  -20.1895  -13.1210 N   0  0  0  0  0  0  0  0  0  0  0  0
   19.5641  -21.6853  -11.8780 C   0  0  0  0  0  0  0  0  0  0  0  0
   18.5122  -20.9482  -11.8645 O   0  0  0  0  0  0  0  0  0  0  0  0
   18.7495  -24.6611   -5.4145 N   0  0  0  0  0  0  0  0  0  0  0  0
   17.4337  -24.5755   -5.9073 C   0  0  0  0  0  0  0  0  0  0  0  0
   16.4493  -24.5273   -5.0894 N   0  0  0  0  0  0  0  0  0  0  0  0
   17.1951  -24.5417   -7.3042 N   0  0  0  0  0  0  0  0  0  0  0  0
   18.2102  -25.1312   -8.1700 C   0  0  0  0  0  0  0  0  0  0  0  0
   17.6998  -25.0090   -9.5713 C   0  0  0  0  0  0  0  0  0  0  0  0
   17.8937  -23.6085  -10.0623 C   0  0  0  0  0  0  0  0  0  0  0  0
   18.0408  -23.6079  -11.5686 C   0  0  2  0  0  0  0  0  0  0  0  0
   19.3968  -23.0813  -11.8212 N   0  0  0  0  0  0  0  0  0  0  0  0
   17.0244  -22.6942  -12.1337 C   0  0  0  0  0  0  0  0  0  0  0  0
   16.1045  -23.2171  -13.0389 O   0  0  0  0  0  0  0  0  0  0  0  0
   16.9067  -21.4805  -11.8762 O   0  0  0  0  0  0  0  0  0  0  0  0
  2  3  2  0
  2  1  1  0
  4  3  1  0
  5  4  2  0
  6  5  1  0
  7  6  1  0
  7  8  1  6
  9  7  1  0
  9 10  2  0
 11  5  1  0
 11 12  2  0
 12  2  1  0
 13 14  1  0
 14 15  1  0
 15 17  1  0
 15 16  1  1
 17 18  1  6
 18  9  1  0
 19 17  1  0
 19 20  2  0
 21 22  1  0
 22 24  1  0
 23 22  2  0
 24 25  1  0
 26 25  1  0
 27 26  1  0
 28 27  1  1
 29 28  1  0
 29 19  1  0
 30 28  1  0
 31 30  1  0
 32 30  2  0
M  END
$$$$
