YIR.pdb
     RDKit          3D

 32 32  0  0  1  0  0  0  0  0999 V2000
   16.9414  -21.2643  -19.1037 O   0  0  0  0  0  0  0  0  0  0  0  0
   17.5041  -21.9585  -18.0416 C   0  0  0  0  0  0  0  0  0  0  0  0
   18.8251  -22.3587  -18.0282 C   0  0  0  0  0  0  0  0  0  0  0  0
   19.3873  -23.0488  -16.9748 C   0  0  0  0  0  0  0  0  0  0  0  0
   18.6163  -23.3729  -15.8585 C   0  0  0  0  0  0  0  0  0  0  0  0
   19.1730  -24.1086  -14.7180 C   0  0  0  0  0  0  0  0  0  0  0  0
   19.1819  -23.3351  -13.4240 C   0  0  2  0  0  0  0  0  0  0  0  0
   20.0398  -22.1845  -13.5720 N   0  0  0  0  0  0  0  0  0  0  0  0
   19.6768  -24.2783  -12.3689 C   0  0  0  0  0  0  0  0  0  0  0  0
   20.9184  -24.3152  -12.1528 O   0  0  0  0  0  0  0  0  0  0  0  0
   17.3027  -22.9747  -15.8717 C   0  0  0  0  0  0  0  0  0  0  0  0
   16.7401  -22.2845  -16.9253 C   0  0  0  0  0  0  0  0  0  0  0  0
   17.6345  -24.1884   -7.4547 C   0  0  0  0  0  0  0  0  0  0  0  0
   18.4105  -24.3646   -8.7270 C   0  0  0  0  0  0  0  0  0  0  0  0
   18.4439  -25.7116   -9.3153 C   0  0  2  0  0  0  0  0  0  0  0  0
   18.9488  -26.6835   -8.2279 C   0  0  0  0  0  0  0  0  0  0  0  0
   19.1439  -25.9351  -10.5947 C   0  0  2  0  0  0  0  0  0  0  0  0
   18.7491  -25.0808  -11.6646 N   0  0  0  0  0  0  0  0  0  0  0  0
   19.1147  -27.3429  -11.0356 C   0  0  0  0  0  0  0  0  0  0  0  0
   17.9762  -27.8397  -11.3626 O   0  0  0  0  0  0  0  0  0  0  0  0
   23.6609  -34.0690  -11.3792 N   0  0  0  0  0  0  0  0  0  0  0  0
   22.8193  -34.4022  -12.4571 C   0  0  0  0  0  0  0  0  0  0  0  0
   22.6790  -35.6281  -12.8004 N   0  0  0  0  0  0  0  0  0  0  0  0
   22.1265  -33.3864  -13.1626 N   0  0  0  0  0  0  0  0  0  0  0  0
   22.3702  -32.0064  -12.7579 C   0  0  0  0  0  0  0  0  0  0  0  0
   21.3335  -31.6728  -11.7316 C   0  0  0  0  0  0  0  0  0  0  0  0
   21.4165  -30.2206  -11.3790 C   0  0  0  0  0  0  0  0  0  0  0  0
   20.0513  -29.5810  -11.5112 C   0  0  2  0  0  0  0  0  0  0  0  0
   20.2494  -28.1705  -11.1226 N   0  0  0  0  0  0  0  0  0  0  0  0
   19.1327  -30.2478  -10.5633 C   0  0  0  0  0  0  0  0  0  0  0  0
   18.1552  -31.0926  -11.0828 O   0  0  0  0  0  0  0  0  0  0  0  0
   19.1460  -30.1271   -9.3229 O   0  0  0  0  0  0  0  0  0  0  0  0
  2  3  2  0
  2  1  1  0
  4  3  1  0
  5  4  2  0
  6  5  1  0
  7  6  1  0
  7  8  1  6
  9  7  1  0
  9 10  2  0
 11  5  1  0
 11 12  2  0
 12  2  1  0
 13 14  1  0
 14 15  1  0
 15 17  1  0
 15 16  1  1
 17 18  1  6
 18  9  1  0
 19 17  1  0
 19 20  2  0
 21 22  1  0
 22 24  1  0
 23 22  2  0
 24 25  1  0
 26 25  1  0
 27 26  1  0
 28 27  1  1
 29 28  1  0
 29 19  1  0
 30 28  1  0
 31 30  1  0
 32 30  2  0
M  END
$$$$
