YIR.pdb
     RDKit          3D

 32 32  0  0  1  0  0  0  0  0999 V2000
   23.4038  -17.0770  -17.8949 O   0  0  0  0  0  0  0  0  0  0  0  0
   23.4163  -17.7643  -16.6891 C   0  0  0  0  0  0  0  0  0  0  0  0
   23.4103  -17.1245  -15.4659 C   0  0  0  0  0  0  0  0  0  0  0  0
   23.4231  -17.8042  -14.2659 C   0  0  0  0  0  0  0  0  0  0  0  0
   23.4430  -19.1987  -14.2509 C   0  0  0  0  0  0  0  0  0  0  0  0
   23.4606  -19.9610  -12.9977 C   0  0  0  0  0  0  0  0  0  0  0  0
   24.8414  -20.2642  -12.4740 C   0  0  2  0  0  0  0  0  0  0  0  0
   25.5250  -21.1128  -13.4197 N   0  0  0  0  0  0  0  0  0  0  0  0
   24.6542  -20.9332  -11.1454 C   0  0  0  0  0  0  0  0  0  0  0  0
   24.4176  -22.1716  -11.1419 O   0  0  0  0  0  0  0  0  0  0  0  0
   23.4488  -19.8349  -15.4672 C   0  0  0  0  0  0  0  0  0  0  0  0
   23.4362  -19.1553  -16.6676 C   0  0  0  0  0  0  0  0  0  0  0  0
   27.4352  -18.6309   -7.1571 C   0  0  0  0  0  0  0  0  0  0  0  0
   26.8455  -19.8738   -7.7564 C   0  0  0  0  0  0  0  0  0  0  0  0
   25.3978  -20.0767   -7.5995 C   0  0  2  0  0  0  0  0  0  0  0  0
   25.1676  -20.7609   -6.2354 C   0  0  0  0  0  0  0  0  0  0  0  0
   24.6321  -20.7483   -8.6670 C   0  0  2  0  0  0  0  0  0  0  0  0
   24.7478  -20.1645   -9.9617 N   0  0  0  0  0  0  0  0  0  0  0  0
   23.2098  -20.9451   -8.3271 C   0  0  0  0  0  0  0  0  0  0  0  0
   22.4086  -19.9620   -8.5310 O   0  0  0  0  0  0  0  0  0  0  0  0
   17.2049  -26.9818   -9.3464 N   0  0  0  0  0  0  0  0  0  0  0  0
   16.5977  -26.0584   -8.4747 C   0  0  0  0  0  0  0  0  0  0  0  0
   15.3871  -26.2394   -8.0977 N   0  0  0  0  0  0  0  0  0  0  0  0
   17.3213  -24.9304   -8.0125 N   0  0  0  0  0  0  0  0  0  0  0  0
   18.7402  -24.8648   -8.3442 C   0  0  0  0  0  0  0  0  0  0  0  0
   19.2609  -23.5966   -7.7445 C   0  0  0  0  0  0  0  0  0  0  0  0
   20.7173  -23.4479   -8.0558 C   0  0  0  0  0  0  0  0  0  0  0  0
   21.2425  -22.1621   -7.4549 C   0  0  2  0  0  0  0  0  0  0  0  0
   22.6779  -22.1360   -7.7992 N   0  0  0  0  0  0  0  0  0  0  0  0
   21.0703  -22.2312   -5.9877 C   0  0  0  0  0  0  0  0  0  0  0  0
   19.8514  -21.8243   -5.4512 O   0  0  0  0  0  0  0  0  0  0  0  0
   21.9227  -22.6244   -5.1680 O   0  0  0  0  0  0  0  0  0  0  0  0
  2  3  2  0
  2  1  1  0
  4  3  1  0
  5  4  2  0
  6  5  1  0
  7  6  1  0
  7  8  1  6
  9  7  1  0
  9 10  2  0
 11  5  1  0
 11 12  2  0
 12  2  1  0
 13 14  1  0
 14 15  1  0
 15 17  1  0
 15 16  1  1
 17 18  1  6
 18  9  1  0
 19 17  1  0
 19 20  2  0
 21 22  1  0
 22 24  1  0
 23 22  2  0
 24 25  1  0
 26 25  1  0
 27 26  1  0
 28 27  1  6
 29 28  1  0
 29 19  1  0
 30 28  1  0
 31 30  1  0
 32 30  2  0
M  END
$$$$
