YIR.pdb
     RDKit          3D

 32 32  0  0  1  0  0  0  0  0999 V2000
   28.1313  -12.3382  -17.1532 O   0  0  0  0  0  0  0  0  0  0  0  0
   27.5562  -13.5602  -16.8331 C   0  0  0  0  0  0  0  0  0  0  0  0
   27.1755  -14.4790  -17.7905 C   0  0  0  0  0  0  0  0  0  0  0  0
   26.6036  -15.6938  -17.4760 C   0  0  0  0  0  0  0  0  0  0  0  0
   26.3860  -16.0416  -16.1429 C   0  0  0  0  0  0  0  0  0  0  0  0
   25.7776  -17.3216  -15.7642 C   0  0  0  0  0  0  0  0  0  0  0  0
   26.7547  -18.3438  -15.2418 C   0  0  2  0  0  0  0  0  0  0  0  0
   27.6595  -18.7122  -16.3036 N   0  0  0  0  0  0  0  0  0  0  0  0
   25.9379  -19.5072  -14.7650 C   0  0  0  0  0  0  0  0  0  0  0  0
   25.8144  -20.4928  -15.5414 O   0  0  0  0  0  0  0  0  0  0  0  0
   26.7648  -15.1281  -15.1909 C   0  0  0  0  0  0  0  0  0  0  0  0
   27.3368  -13.9128  -15.5052 C   0  0  0  0  0  0  0  0  0  0  0  0
   26.6318  -20.6854   -9.7510 C   0  0  0  0  0  0  0  0  0  0  0  0
   26.2728  -21.1017  -11.1473 C   0  0  0  0  0  0  0  0  0  0  0  0
   24.8761  -20.9171  -11.5678 C   0  0  2  0  0  0  0  0  0  0  0  0
   24.0926  -22.1802  -11.1518 C   0  0  0  0  0  0  0  0  0  0  0  0
   24.5744  -20.5395  -12.9617 C   0  0  2  0  0  0  0  0  0  0  0  0
   25.3440  -19.4591  -13.4822 N   0  0  0  0  0  0  0  0  0  0  0  0
   23.1386  -20.2982  -13.2014 C   0  0  0  0  0  0  0  0  0  0  0  0
   22.5436  -19.4503  -12.4417 O   0  0  0  0  0  0  0  0  0  0  0  0
   18.7931  -24.7379  -10.1465 N   0  0  0  0  0  0  0  0  0  0  0  0
   17.6417  -24.3225  -10.8417 C   0  0  0  0  0  0  0  0  0  0  0  0
   16.5029  -24.3406  -10.2559 N   0  0  0  0  0  0  0  0  0  0  0  0
   17.7387  -23.8839  -12.1862 N   0  0  0  0  0  0  0  0  0  0  0  0
   19.0700  -23.8405  -12.7806 C   0  0  0  0  0  0  0  0  0  0  0  0
   19.7357  -22.6106  -12.2482 C   0  0  0  0  0  0  0  0  0  0  0  0
   21.0621  -22.4216  -12.9153 C   0  0  0  0  0  0  0  0  0  0  0  0
   20.9813  -21.2796  -13.9051 C   0  0  2  0  0  0  0  0  0  0  0  0
   22.3845  -20.9327  -14.2057 N   0  0  0  0  0  0  0  0  0  0  0  0
   20.3035  -20.1420  -13.2467 C   0  0  0  0  0  0  0  0  0  0  0  0
   19.3338  -19.4505  -13.9682 O   0  0  0  0  0  0  0  0  0  0  0  0
   20.5175  -19.7325  -12.0892 O   0  0  0  0  0  0  0  0  0  0  0  0
  2  3  2  0
  2  1  1  0
  4  3  1  0
  5  4  2  0
  6  5  1  0
  7  6  1  0
  7  8  1  6
  9  7  1  0
  9 10  2  0
 11  5  1  0
 11 12  2  0
 12  2  1  0
 13 14  1  0
 14 15  1  0
 15 17  1  0
 15 16  1  6
 17 18  1  1
 18  9  1  0
 19 17  1  0
 19 20  2  0
 21 22  1  0
 22 24  1  0
 23 22  2  0
 24 25  1  0
 26 25  1  0
 27 26  1  0
 28 27  1  1
 29 28  1  0
 29 19  1  0
 30 28  1  0
 31 30  1  0
 32 30  2  0
M  END
$$$$
