YIR.pdb
     RDKit          3D

 32 32  0  0  1  0  0  0  0  0999 V2000
   25.9472  -12.2129  -18.5776 O   0  0  0  0  0  0  0  0  0  0  0  0
   25.6591  -13.4808  -18.0919 C   0  0  0  0  0  0  0  0  0  0  0  0
   26.0981  -13.9255  -16.8610 C   0  0  0  0  0  0  0  0  0  0  0  0
   25.8141  -15.1846  -16.3754 C   0  0  0  0  0  0  0  0  0  0  0  0
   25.0526  -16.0729  -17.1346 C   0  0  0  0  0  0  0  0  0  0  0  0
   24.7301  -17.4223  -16.6580 C   0  0  0  0  0  0  0  0  0  0  0  0
   25.9228  -18.3336  -16.5182 C   0  0  2  0  0  0  0  0  0  0  0  0
   26.4293  -18.6470  -17.8323 N   0  0  0  0  0  0  0  0  0  0  0  0
   25.4422  -19.5535  -15.7910 C   0  0  0  0  0  0  0  0  0  0  0  0
   25.2349  -20.5956  -16.4696 O   0  0  0  0  0  0  0  0  0  0  0  0
   24.6158  -15.6307  -18.3586 C   0  0  0  0  0  0  0  0  0  0  0  0
   24.8999  -14.3713  -18.8446 C   0  0  0  0  0  0  0  0  0  0  0  0
   26.2562  -22.2564  -10.3667 C   0  0  0  0  0  0  0  0  0  0  0  0
   25.3883  -22.0503  -11.5733 C   0  0  0  0  0  0  0  0  0  0  0  0
   25.6902  -20.8954  -12.4316 C   0  0  2  0  0  0  0  0  0  0  0  0
   25.7599  -19.6470  -11.5268 C   0  0  0  0  0  0  0  0  0  0  0  0
   24.8685  -20.6383  -13.6297 C   0  0  2  0  0  0  0  0  0  0  0  0
   25.2412  -19.4936  -14.3921 N   0  0  0  0  0  0  0  0  0  0  0  0
   23.4207  -20.6067  -13.3465 C   0  0  0  0  0  0  0  0  0  0  0  0
   22.9248  -19.5058  -12.9081 O   0  0  0  0  0  0  0  0  0  0  0  0
   16.8393  -26.5769  -12.6376 N   0  0  0  0  0  0  0  0  0  0  0  0
   16.2927  -25.2800  -12.6634 C   0  0  0  0  0  0  0  0  0  0  0  0
   15.0362  -25.1222  -12.8542 N   0  0  0  0  0  0  0  0  0  0  0  0
   17.1275  -24.1494  -12.4781 N   0  0  0  0  0  0  0  0  0  0  0  0
   18.5079  -24.2555  -12.9373 C   0  0  0  0  0  0  0  0  0  0  0  0
   19.1034  -22.8876  -12.8203 C   0  0  0  0  0  0  0  0  0  0  0  0
   20.5520  -22.9305  -13.1941 C   0  0  0  0  0  0  0  0  0  0  0  0
   21.1409  -21.5379  -13.1285 C   0  0  2  0  0  0  0  0  0  0  0  0
   22.5531  -21.6995  -13.5278 N   0  0  0  0  0  0  0  0  0  0  0  0
   21.0564  -21.0638  -11.7302 C   0  0  0  0  0  0  0  0  0  0  0  0
   20.0631  -20.1420  -11.4099 O   0  0  0  0  0  0  0  0  0  0  0  0
   21.7993  -21.4130  -10.7924 O   0  0  0  0  0  0  0  0  0  0  0  0
  2  3  2  0
  2  1  1  0
  4  3  1  0
  5  4  2  0
  6  5  1  0
  7  6  1  0
  7  8  1  6
  9  7  1  0
  9 10  2  0
 11  5  1  0
 11 12  2  0
 12  2  1  0
 13 14  1  0
 14 15  1  0
 15 17  1  0
 15 16  1  1
 17 18  1  1
 18  9  1  0
 19 17  1  0
 19 20  2  0
 21 22  1  0
 22 24  1  0
 23 22  2  0
 24 25  1  0
 26 25  1  0
 27 26  1  0
 28 27  1  1
 29 28  1  0
 29 19  1  0
 30 28  1  0
 31 30  1  0
 32 30  2  0
M  END
$$$$
