YIR.pdb
     RDKit          3D

 32 32  0  0  1  0  0  0  0  0999 V2000
   15.2976  -23.5112  -15.2069 O   0  0  0  0  0  0  0  0  0  0  0  0
   16.5478  -22.9575  -14.9686 C   0  0  0  0  0  0  0  0  0  0  0  0
   17.5894  -23.6768  -14.4179 C   0  0  0  0  0  0  0  0  0  0  0  0
   18.8328  -23.1298  -14.1794 C   0  0  0  0  0  0  0  0  0  0  0  0
   19.0833  -21.7948  -14.4965 C   0  0  0  0  0  0  0  0  0  0  0  0
   20.3897  -21.1722  -14.2564 C   0  0  0  0  0  0  0  0  0  0  0  0
   20.7194  -20.9612  -12.8005 C   0  0  2  0  0  0  0  0  0  0  0  0
   19.7665  -20.0381  -12.2335 N   0  0  0  0  0  0  0  0  0  0  0  0
   22.1199  -20.4279  -12.7554 C   0  0  0  0  0  0  0  0  0  0  0  0
   22.2685  -19.1867  -12.5914 O   0  0  0  0  0  0  0  0  0  0  0  0
   18.0476  -21.0796  -15.0443 C   0  0  0  0  0  0  0  0  0  0  0  0
   16.8038  -21.6265  -15.2828 C   0  0  0  0  0  0  0  0  0  0  0  0
   25.3232  -21.2037   -8.9984 C   0  0  0  0  0  0  0  0  0  0  0  0
   24.6135  -20.8110  -10.2609 C   0  0  0  0  0  0  0  0  0  0  0  0
   25.2421  -21.1922  -11.5342 C   0  0  2  0  0  0  0  0  0  0  0  0
   26.6832  -20.6399  -11.5271 C   0  0  0  0  0  0  0  0  0  0  0  0
   24.5620  -20.8869  -12.8074 C   0  0  2  0  0  0  0  0  0  0  0  0
   23.2077  -21.3211  -12.8961 N   0  0  0  0  0  0  0  0  0  0  0  0
   25.3158  -21.3387  -13.9926 C   0  0  0  0  0  0  0  0  0  0  0  0
   25.5621  -22.5951  -14.0968 O   0  0  0  0  0  0  0  0  0  0  0  0
   30.8764  -23.2754  -19.1106 N   0  0  0  0  0  0  0  0  0  0  0  0
   30.4912  -21.9219  -19.1437 C   0  0  0  0  0  0  0  0  0  0  0  0
   30.8126  -21.1926  -20.1462 N   0  0  0  0  0  0  0  0  0  0  0  0
   29.7486  -21.3644  -18.0726 N   0  0  0  0  0  0  0  0  0  0  0  0
   29.6489  -22.1506  -16.8480 C   0  0  0  0  0  0  0  0  0  0  0  0
   28.2384  -22.6444  -16.7710 C   0  0  0  0  0  0  0  0  0  0  0  0
   27.5221  -21.9627  -15.6474 C   0  0  0  0  0  0  0  0  0  0  0  0
   26.4081  -21.0986  -16.1975 C   0  0  2  0  0  0  0  0  0  0  0  0
   25.7772  -20.4854  -15.0119 N   0  0  0  0  0  0  0  0  0  0  0  0
   25.4420  -21.9751  -16.8944 C   0  0  0  0  0  0  0  0  0  0  0  0
   25.5487  -22.0986  -18.2773 O   0  0  0  0  0  0  0  0  0  0  0  0
   24.5248  -22.6263  -16.3579 O   0  0  0  0  0  0  0  0  0  0  0  0
  2  3  2  0
  2  1  1  0
  4  3  1  0
  5  4  2  0
  6  5  1  0
  7  6  1  0
  7  8  1  6
  9  7  1  0
  9 10  2  0
 11  5  1  0
 11 12  2  0
 12  2  1  0
 13 14  1  0
 14 15  1  0
 15 17  1  0
 15 16  1  6
 17 18  1  1
 18  9  1  0
 19 17  1  0
 19 20  2  0
 21 22  1  0
 22 24  1  0
 23 22  2  0
 24 25  1  0
 26 25  1  0
 27 26  1  0
 28 27  1  1
 29 28  1  0
 29 19  1  0
 30 28  1  0
 31 30  1  0
 32 30  2  0
M  END
$$$$
