YIR.pdb
     RDKit          3D

 32 32  0  0  1  0  0  0  0  0999 V2000
   19.0405  -24.1257   -6.6180 O   0  0  0  0  0  0  0  0  0  0  0  0
   19.9120  -23.3352   -7.3543 C   0  0  0  0  0  0  0  0  0  0  0  0
   20.2417  -23.6109   -8.6661 C   0  0  0  0  0  0  0  0  0  0  0  0
   21.1075  -22.8279   -9.4004 C   0  0  0  0  0  0  0  0  0  0  0  0
   21.6934  -21.7011   -8.8238 C   0  0  0  0  0  0  0  0  0  0  0  0
   22.6222  -20.8430   -9.5674 C   0  0  0  0  0  0  0  0  0  0  0  0
   24.0638  -21.2777   -9.4946 C   0  0  2  0  0  0  0  0  0  0  0  0
   24.5277  -21.1357   -8.1357 N   0  0  0  0  0  0  0  0  0  0  0  0
   24.8206  -20.3999  -10.4457 C   0  0  0  0  0  0  0  0  0  0  0  0
   24.9574  -19.1850  -10.1380 O   0  0  0  0  0  0  0  0  0  0  0  0
   21.3654  -21.4268   -7.5194 C   0  0  0  0  0  0  0  0  0  0  0  0
   20.4995  -22.2099   -6.7846 C   0  0  0  0  0  0  0  0  0  0  0  0
   29.5978  -21.5588  -11.3629 C   0  0  0  0  0  0  0  0  0  0  0  0
   28.3899  -20.6684  -11.3638 C   0  0  0  0  0  0  0  0  0  0  0  0
   27.5802  -20.6318  -12.5904 C   0  0  2  0  0  0  0  0  0  0  0  0
   28.3599  -19.8116  -13.6399 C   0  0  0  0  0  0  0  0  0  0  0  0
   26.1691  -20.2063  -12.5245 C   0  0  2  0  0  0  0  0  0  0  0  0
   25.3457  -20.9562  -11.6355 N   0  0  0  0  0  0  0  0  0  0  0  0
   25.5270  -20.1127  -13.8497 C   0  0  0  0  0  0  0  0  0  0  0  0
   25.1649  -21.2088  -14.4132 O   0  0  0  0  0  0  0  0  0  0  0  0
   22.3655  -15.7719  -19.1726 N   0  0  0  0  0  0  0  0  0  0  0  0
   21.0555  -16.2606  -19.0097 C   0  0  0  0  0  0  0  0  0  0  0  0
   20.2384  -16.2333  -19.9956 N   0  0  0  0  0  0  0  0  0  0  0  0
   20.6386  -16.7831  -17.7597 N   0  0  0  0  0  0  0  0  0  0  0  0
   21.5714  -16.6715  -16.6440 C   0  0  0  0  0  0  0  0  0  0  0  0
   22.5313  -17.8121  -16.7739 C   0  0  0  0  0  0  0  0  0  0  0  0
   23.4490  -17.8410  -15.5919 C   0  0  0  0  0  0  0  0  0  0  0  0
   24.4631  -18.9523  -15.7559 C   0  0  2  0  0  0  0  0  0  0  0  0
   25.2851  -18.9053  -14.5304 N   0  0  0  0  0  0  0  0  0  0  0  0
   25.2949  -18.6503  -16.9408 C   0  0  0  0  0  0  0  0  0  0  0  0
   24.9732  -19.2745  -18.1433 O   0  0  0  0  0  0  0  0  0  0  0  0
   26.2733  -17.8789  -16.9715 O   0  0  0  0  0  0  0  0  0  0  0  0
  2  3  2  0
  2  1  1  0
  4  3  1  0
  5  4  2  0
  6  5  1  0
  7  6  1  0
  7  8  1  1
  9  7  1  0
  9 10  2  0
 11  5  1  0
 11 12  2  0
 12  2  1  0
 13 14  1  0
 14 15  1  0
 15 17  1  0
 15 16  1  6
 17 18  1  1
 18  9  1  0
 19 17  1  0
 19 20  2  0
 21 22  1  0
 22 24  1  0
 23 22  2  0
 24 25  1  0
 26 25  1  0
 27 26  1  0
 28 27  1  1
 29 28  1  0
 29 19  1  0
 30 28  1  0
 31 30  1  0
 32 30  2  0
M  END
$$$$
