YIR.pdb
     RDKit          3D

 32 32  0  0  1  0  0  0  0  0999 V2000
   31.1557  -16.5752  -18.7888 O   0  0  0  0  0  0  0  0  0  0  0  0
   30.2146  -17.2586  -18.0313 C   0  0  0  0  0  0  0  0  0  0  0  0
   30.1585  -17.1704  -16.6548 C   0  0  0  0  0  0  0  0  0  0  0  0
   29.2251  -17.8483  -15.8991 C   0  0  0  0  0  0  0  0  0  0  0  0
   28.2820  -18.6671  -16.5199 C   0  0  0  0  0  0  0  0  0  0  0  0
   27.2740  -19.4085  -15.7543 C   0  0  0  0  0  0  0  0  0  0  0  0
   27.8212  -20.5772  -14.9749 C   0  0  2  0  0  0  0  0  0  0  0  0
   28.2997  -21.5748  -15.9008 N   0  0  0  0  0  0  0  0  0  0  0  0
   26.6949  -21.0863  -14.1263 C   0  0  0  0  0  0  0  0  0  0  0  0
   26.0194  -22.0541  -14.5697 O   0  0  0  0  0  0  0  0  0  0  0  0
   28.3377  -18.7546  -17.8887 C   0  0  0  0  0  0  0  0  0  0  0  0
   29.2713  -18.0768  -18.6449 C   0  0  0  0  0  0  0  0  0  0  0  0
   27.0491  -20.5212   -8.5555 C   0  0  0  0  0  0  0  0  0  0  0  0
   26.7401  -21.1129   -9.8994 C   0  0  0  0  0  0  0  0  0  0  0  0
   25.5464  -20.6137  -10.5976 C   0  0  2  0  0  0  0  0  0  0  0  0
   24.3112  -21.0562   -9.7848 C   0  0  0  0  0  0  0  0  0  0  0  0
   25.3663  -20.8960  -12.0344 C   0  0  2  0  0  0  0  0  0  0  0  0
   26.4336  -20.4732  -12.8787 N   0  0  0  0  0  0  0  0  0  0  0  0
   24.0788  -20.4095  -12.5661 C   0  0  0  0  0  0  0  0  0  0  0  0
   23.9349  -19.1407  -12.7055 O   0  0  0  0  0  0  0  0  0  0  0  0
   20.6932  -25.9125  -15.2685 N   0  0  0  0  0  0  0  0  0  0  0  0
   19.3771  -25.4562  -15.0660 C   0  0  0  0  0  0  0  0  0  0  0  0
   18.4839  -26.2626  -14.6275 N   0  0  0  0  0  0  0  0  0  0  0  0
   19.0378  -24.1084  -15.3445 N   0  0  0  0  0  0  0  0  0  0  0  0
   20.1296  -23.1982  -15.6715 C   0  0  0  0  0  0  0  0  0  0  0  0
   20.3673  -22.3613  -14.4540 C   0  0  0  0  0  0  0  0  0  0  0  0
   21.4559  -21.3700  -14.7234 C   0  0  0  0  0  0  0  0  0  0  0  0
   21.7812  -20.6074  -13.4574 C   0  0  2  0  0  0  0  0  0  0  0  0
   23.0054  -21.2430  -12.9307 N   0  0  0  0  0  0  0  0  0  0  0  0
   20.6627  -20.7874  -12.5068 C   0  0  0  0  0  0  0  0  0  0  0  0
   19.5123  -20.0262  -12.6972 O   0  0  0  0  0  0  0  0  0  0  0  0
   20.6463  -21.5664  -11.5342 O   0  0  0  0  0  0  0  0  0  0  0  0
  2  3  2  0
  2  1  1  0
  4  3  1  0
  5  4  2  0
  6  5  1  0
  7  6  1  0
  7  8  1  6
  9  7  1  0
  9 10  2  0
 11  5  1  0
 11 12  2  0
 12  2  1  0
 13 14  1  0
 14 15  1  0
 15 17  1  0
 15 16  1  1
 17 18  1  6
 18  9  1  0
 19 17  1  0
 19 20  2  0
 21 22  1  0
 22 24  1  0
 23 22  2  0
 24 25  1  0
 26 25  1  0
 27 26  1  0
 28 27  1  6
 29 28  1  0
 29 19  1  0
 30 28  1  0
 31 30  1  0
 32 30  2  0
M  END
$$$$
