YIR.pdb
     RDKit          3D

 32 32  0  0  1  0  0  0  0  0999 V2000
   16.2175  -22.5738  -16.7087 O   0  0  0  0  0  0  0  0  0  0  0  0
   17.4837  -22.1166  -16.3705 C   0  0  0  0  0  0  0  0  0  0  0  0
   18.5414  -22.9674  -16.1193 C   0  0  0  0  0  0  0  0  0  0  0  0
   19.8005  -22.5166  -15.7826 C   0  0  0  0  0  0  0  0  0  0  0  0
   20.0513  -21.1482  -15.6830 C   0  0  0  0  0  0  0  0  0  0  0  0
   21.3744  -20.6259  -15.3244 C   0  0  0  0  0  0  0  0  0  0  0  0
   21.7223  -20.7640  -13.8641 C   0  0  2  0  0  0  0  0  0  0  0  0
   20.7225  -20.0828  -13.0780 N   0  0  0  0  0  0  0  0  0  0  0  0
   23.0844  -20.1611  -13.6932 C   0  0  0  0  0  0  0  0  0  0  0  0
   23.1559  -18.9124  -13.5352 O   0  0  0  0  0  0  0  0  0  0  0  0
   18.9996  -20.3022  -15.9330 C   0  0  0  0  0  0  0  0  0  0  0  0
   17.7400  -20.7528  -16.2696 C   0  0  0  0  0  0  0  0  0  0  0  0
   25.9505  -21.1341   -9.6559 C   0  0  0  0  0  0  0  0  0  0  0  0
   25.3791  -20.5960  -10.9348 C   0  0  0  0  0  0  0  0  0  0  0  0
   26.1240  -20.8675  -12.1730 C   0  0  2  0  0  0  0  0  0  0  0  0
   27.5351  -20.2636  -12.0106 C   0  0  0  0  0  0  0  0  0  0  0  0
   25.5366  -20.5029  -13.4763 C   0  0  2  0  0  0  0  0  0  0  0  0
   24.2227  -21.0004  -13.7150 N   0  0  0  0  0  0  0  0  0  0  0  0
   26.4130  -20.8229  -14.6195 C   0  0  0  0  0  0  0  0  0  0  0  0
   26.6131  -22.0635  -14.8857 O   0  0  0  0  0  0  0  0  0  0  0  0
   30.7133  -25.2335  -15.1879 N   0  0  0  0  0  0  0  0  0  0  0  0
   29.7255  -25.4023  -16.1764 C   0  0  0  0  0  0  0  0  0  0  0  0
   29.0366  -26.4814  -16.2106 N   0  0  0  0  0  0  0  0  0  0  0  0
   29.4904  -24.3825  -17.1325 N   0  0  0  0  0  0  0  0  0  0  0  0
   30.2263  -23.1334  -16.9719 C   0  0  0  0  0  0  0  0  0  0  0  0
   29.3081  -22.0369  -17.4124 C   0  0  0  0  0  0  0  0  0  0  0  0
   28.6256  -21.4372  -16.2230 C   0  0  0  0  0  0  0  0  0  0  0  0
   27.7040  -20.3222  -16.6676 C   0  0  2  0  0  0  0  0  0  0  0  0
   27.0378  -19.8603  -15.4336 N   0  0  0  0  0  0  0  0  0  0  0  0
   26.7091  -20.8881  -17.6041 C   0  0  0  0  0  0  0  0  0  0  0  0
   26.5340  -20.2579  -18.8334 O   0  0  0  0  0  0  0  0  0  0  0  0
   25.9983  -21.8912  -17.3993 O   0  0  0  0  0  0  0  0  0  0  0  0
  2  3  2  0
  2  1  1  0
  4  3  1  0
  5  4  2  0
  6  5  1  0
  7  6  1  0
  7  8  1  1
  9  7  1  0
  9 10  2  0
 11  5  1  0
 11 12  2  0
 12  2  1  0
 13 14  1  0
 14 15  1  0
 15 17  1  0
 15 16  1  1
 17 18  1  6
 18  9  1  0
 19 17  1  0
 19 20  2  0
 21 22  1  0
 22 24  1  0
 23 22  2  0
 24 25  1  0
 26 25  1  0
 27 26  1  0
 28 27  1  1
 29 28  1  0
 29 19  1  0
 30 28  1  0
 31 30  1  0
 32 30  2  0
M  END
$$$$
