YIR.pdb
     RDKit          3D

 32 32  0  0  1  0  0  0  0  0999 V2000
   29.4713  -16.4163  -19.8790 O   0  0  0  0  0  0  0  0  0  0  0  0
   28.8784  -17.1520  -18.8622 C   0  0  0  0  0  0  0  0  0  0  0  0
   29.5252  -17.4440  -17.6782 C   0  0  0  0  0  0  0  0  0  0  0  0
   28.9393  -18.1749  -16.6660 C   0  0  0  0  0  0  0  0  0  0  0  0
   27.6379  -18.6552  -16.8117 C   0  0  0  0  0  0  0  0  0  0  0  0
   26.9781  -19.4393  -15.7620 C   0  0  0  0  0  0  0  0  0  0  0  0
   27.8743  -20.4399  -15.0777 C   0  0  2  0  0  0  0  0  0  0  0  0
   28.2711  -21.4444  -16.0343 N   0  0  0  0  0  0  0  0  0  0  0  0
   27.0786  -21.0185  -13.9463 C   0  0  0  0  0  0  0  0  0  0  0  0
   26.4584  -22.0955  -14.1579 O   0  0  0  0  0  0  0  0  0  0  0  0
   26.9947  -18.3646  -17.9890 C   0  0  0  0  0  0  0  0  0  0  0  0
   27.5805  -17.6337  -19.0016 C   0  0  0  0  0  0  0  0  0  0  0  0
   28.9402  -20.5086   -8.7722 C   0  0  0  0  0  0  0  0  0  0  0  0
   28.2647  -21.0515   -9.9973 C   0  0  0  0  0  0  0  0  0  0  0  0
   26.8929  -20.5971  -10.2682 C   0  0  2  0  0  0  0  0  0  0  0  0
   25.9885  -21.1482   -9.1455 C   0  0  0  0  0  0  0  0  0  0  0  0
   26.2931  -20.8288  -11.5960 C   0  0  2  0  0  0  0  0  0  0  0  0
   27.0518  -20.3469  -12.7017 N   0  0  0  0  0  0  0  0  0  0  0  0
   24.8992  -20.3553  -11.6954 C   0  0  0  0  0  0  0  0  0  0  0  0
   24.6760  -19.1119  -11.4628 O   0  0  0  0  0  0  0  0  0  0  0  0
   24.2298  -23.6822  -16.8170 N   0  0  0  0  0  0  0  0  0  0  0  0
   23.4163  -24.1750  -15.7794 C   0  0  0  0  0  0  0  0  0  0  0  0
   23.6650  -25.3212  -15.2648 N   0  0  0  0  0  0  0  0  0  0  0  0
   22.3244  -23.4073  -15.3020 N   0  0  0  0  0  0  0  0  0  0  0  0
   22.2525  -22.0130  -15.7243 C   0  0  0  0  0  0  0  0  0  0  0  0
   22.8061  -21.1968  -14.5989 C   0  0  0  0  0  0  0  0  0  0  0  0
   21.8850  -21.2644  -13.4211 C   0  0  0  0  0  0  0  0  0  0  0  0
   22.4957  -20.5284  -12.2483 C   0  0  2  0  0  0  0  0  0  0  0  0
   23.8051  -21.1745  -12.0298 N   0  0  0  0  0  0  0  0  0  0  0  0
   21.6244  -20.7285  -11.0702 C   0  0  0  0  0  0  0  0  0  0  0  0
   22.0107  -21.6727  -10.1224 O   0  0  0  0  0  0  0  0  0  0  0  0
   20.5590  -20.1256  -10.8365 O   0  0  0  0  0  0  0  0  0  0  0  0
  2  3  2  0
  2  1  1  0
  4  3  1  0
  5  4  2  0
  6  5  1  0
  7  6  1  0
  7  8  1  6
  9  7  1  0
  9 10  2  0
 11  5  1  0
 11 12  2  0
 12  2  1  0
 13 14  1  0
 14 15  1  0
 15 17  1  0
 15 16  1  1
 17 18  1  6
 18  9  1  0
 19 17  1  0
 19 20  2  0
 21 22  1  0
 22 24  1  0
 23 22  2  0
 24 25  1  0
 26 25  1  0
 27 26  1  0
 28 27  1  6
 29 28  1  0
 29 19  1  0
 30 28  1  0
 31 30  1  0
 32 30  2  0
M  END
$$$$
