YIR.pdb
     RDKit          3D

 32 32  0  0  1  0  0  0  0  0999 V2000
   12.3291  -23.4700   -1.5854 O   0  0  0  0  0  0  0  0  0  0  0  0
   13.3321  -23.6932   -2.5186 C   0  0  0  0  0  0  0  0  0  0  0  0
   14.4542  -22.8948   -2.6130 C   0  0  0  0  0  0  0  0  0  0  0  0
   15.4524  -23.1135   -3.5391 C   0  0  0  0  0  0  0  0  0  0  0  0
   15.3562  -24.1787   -4.4345 C   0  0  0  0  0  0  0  0  0  0  0  0
   16.3929  -24.4453   -5.4375 C   0  0  0  0  0  0  0  0  0  0  0  0
   17.1139  -25.7563   -5.2527 C   0  0  2  0  0  0  0  0  0  0  0  0
   17.9433  -25.6727   -4.0751 N   0  0  0  0  0  0  0  0  0  0  0  0
   17.9193  -25.9772   -6.4979 C   0  0  0  0  0  0  0  0  0  0  0  0
   19.1742  -26.0163   -6.3837 O   0  0  0  0  0  0  0  0  0  0  0  0
   14.2404  -24.9727   -4.3405 C   0  0  0  0  0  0  0  0  0  0  0  0
   13.2418  -24.7541   -3.4143 C   0  0  0  0  0  0  0  0  0  0  0  0
   17.8173  -30.3030   -9.1712 C   0  0  0  0  0  0  0  0  0  0  0  0
   18.0902  -28.9379   -8.6109 C   0  0  0  0  0  0  0  0  0  0  0  0
   17.7840  -27.7835   -9.4685 C   0  0  2  0  0  0  0  0  0  0  0  0
   18.5507  -27.9710  -10.7948 C   0  0  0  0  0  0  0  0  0  0  0  0
   17.9556  -26.4153   -8.9441 C   0  0  2  0  0  0  0  0  0  0  0  0
   17.2541  -26.1312   -7.7366 N   0  0  0  0  0  0  0  0  0  0  0  0
   17.6790  -25.3688   -9.9468 C   0  0  0  0  0  0  0  0  0  0  0  0
   16.4522  -25.1611  -10.2659 O   0  0  0  0  0  0  0  0  0  0  0  0
   22.6221  -25.9359  -13.8480 N   0  0  0  0  0  0  0  0  0  0  0  0
   23.0196  -24.6200  -14.1509 C   0  0  0  0  0  0  0  0  0  0  0  0
   24.2455  -24.2768  -14.0108 N   0  0  0  0  0  0  0  0  0  0  0  0
   22.0686  -23.6747  -14.6110 N   0  0  0  0  0  0  0  0  0  0  0  0
   20.6917  -24.1315  -14.7624 C   0  0  0  0  0  0  0  0  0  0  0  0
   19.9061  -23.4927  -13.6606 C   0  0  0  0  0  0  0  0  0  0  0  0
   19.1663  -24.5411  -12.8901 C   0  0  0  0  0  0  0  0  0  0  0  0
   18.3144  -23.8891  -11.8227 C   0  0  2  0  0  0  0  0  0  0  0  0
   18.6684  -24.5865  -10.5705 N   0  0  0  0  0  0  0  0  0  0  0  0
   16.8928  -24.1256  -12.1549 C   0  0  0  0  0  0  0  0  0  0  0  0
   16.0506  -23.0211  -12.2536 O   0  0  0  0  0  0  0  0  0  0  0  0
   16.3632  -25.2352  -12.3590 O   0  0  0  0  0  0  0  0  0  0  0  0
  2  3  2  0
  2  1  1  0
  4  3  1  0
  5  4  2  0
  6  5  1  0
  7  6  1  0
  7  8  1  1
  9  7  1  0
  9 10  2  0
 11  5  1  0
 11 12  2  0
 12  2  1  0
 13 14  1  0
 14 15  1  0
 15 17  1  0
 15 16  1  6
 17 18  1  1
 18  9  1  0
 19 17  1  0
 19 20  2  0
 21 22  1  0
 22 24  1  0
 23 22  2  0
 24 25  1  0
 26 25  1  0
 27 26  1  0
 28 27  1  6
 29 28  1  0
 29 19  1  0
 30 28  1  0
 31 30  1  0
 32 30  2  0
M  END
$$$$
