YIR.pdb
     RDKit          3D

 32 32  0  0  1  0  0  0  0  0999 V2000
   30.2412  -15.6876  -18.6120 O   0  0  0  0  0  0  0  0  0  0  0  0
   29.4506  -16.6220  -17.9574 C   0  0  0  0  0  0  0  0  0  0  0  0
   29.4252  -17.9561  -18.3110 C   0  0  0  0  0  0  0  0  0  0  0  0
   28.6406  -18.8870  -17.6632 C   0  0  0  0  0  0  0  0  0  0  0  0
   27.8255  -18.4982  -16.6002 C   0  0  0  0  0  0  0  0  0  0  0  0
   26.9730  -19.4546  -15.8858 C   0  0  0  0  0  0  0  0  0  0  0  0
   27.7057  -20.3163  -14.8891 C   0  0  2  0  0  0  0  0  0  0  0  0
   28.5540  -21.2399  -15.6028 N   0  0  0  0  0  0  0  0  0  0  0  0
   26.6554  -21.0197  -14.0829 C   0  0  0  0  0  0  0  0  0  0  0  0
   26.2737  -22.1534  -14.4810 O   0  0  0  0  0  0  0  0  0  0  0  0
   27.8510  -17.1716  -16.2484 C   0  0  0  0  0  0  0  0  0  0  0  0
   28.6356  -16.2401  -16.8964 C   0  0  0  0  0  0  0  0  0  0  0  0
   27.0472  -20.5464   -8.7394 C   0  0  0  0  0  0  0  0  0  0  0  0
   26.6574  -21.2373  -10.0132 C   0  0  0  0  0  0  0  0  0  0  0  0
   25.3843  -20.8411  -10.6328 C   0  0  2  0  0  0  0  0  0  0  0  0
   24.2464  -21.4938   -9.8197 C   0  0  0  0  0  0  0  0  0  0  0  0
   25.1823  -21.0364  -12.0812 C   0  0  2  0  0  0  0  0  0  0  0  0
   26.1378  -20.3970  -12.9230 N   0  0  0  0  0  0  0  0  0  0  0  0
   23.8152  -20.7065  -12.5277 C   0  0  0  0  0  0  0  0  0  0  0  0
   23.4732  -19.4684  -12.5296 O   0  0  0  0  0  0  0  0  0  0  0  0
   21.0208  -26.7615  -16.2039 N   0  0  0  0  0  0  0  0  0  0  0  0
   20.6054  -26.1875  -14.9876 C   0  0  0  0  0  0  0  0  0  0  0  0
   20.2275  -26.9416  -14.0238 N   0  0  0  0  0  0  0  0  0  0  0  0
   20.6050  -24.7793  -14.8259 N   0  0  0  0  0  0  0  0  0  0  0  0
   21.2058  -23.9841  -15.8909 C   0  0  0  0  0  0  0  0  0  0  0  0
   21.7768  -22.7626  -15.2419 C   0  0  0  0  0  0  0  0  0  0  0  0
   20.9070  -22.3405  -14.0994 C   0  0  0  0  0  0  0  0  0  0  0  0
   21.5401  -21.1716  -13.3762 C   0  0  2  0  0  0  0  0  0  0  0  0
   22.8683  -21.6570  -12.9518 N   0  0  0  0  0  0  0  0  0  0  0  0
   20.7108  -20.8531  -12.1939 C   0  0  0  0  0  0  0  0  0  0  0  0
   19.6702  -19.9411  -12.3499 O   0  0  0  0  0  0  0  0  0  0  0  0
   20.8528  -21.3281  -11.0504 O   0  0  0  0  0  0  0  0  0  0  0  0
  2  3  2  0
  2  1  1  0
  4  3  1  0
  5  4  2  0
  6  5  1  0
  7  6  1  0
  7  8  1  6
  9  7  1  0
  9 10  2  0
 11  5  1  0
 11 12  2  0
 12  2  1  0
 13 14  1  0
 14 15  1  0
 15 17  1  0
 15 16  1  1
 17 18  1  6
 18  9  1  0
 19 17  1  0
 19 20  2  0
 21 22  1  0
 22 24  1  0
 23 22  2  0
 24 25  1  0
 26 25  1  0
 27 26  1  0
 28 27  1  1
 29 28  1  0
 29 19  1  0
 30 28  1  0
 31 30  1  0
 32 30  2  0
M  END
$$$$
