QPW.pdb
     RDKit          3D

 31 33  0  0  1  0  0  0  0  0999 V2000
   17.9444  -19.4956  -15.2788 N   0  0  0  0  0  0  0  0  0  0  0  0
   17.9584  -20.5291  -16.2494 C   0  0  0  0  0  0  0  0  0  0  0  0
   16.9641  -20.6545  -16.9819 O   0  0  0  0  0  0  0  0  0  0  0  0
   19.1185  -21.4065  -16.3574 C   0  0  0  0  0  0  0  0  0  0  0  0
   20.2922  -21.1121  -15.5043 C   0  0  0  0  0  0  0  0  0  0  0  0
   20.5928  -22.0520  -14.3932 C   0  0  2  0  0  0  0  0  0  0  0  0
   19.5001  -21.8729  -13.4051 N   0  0  0  0  0  0  0  0  0  0  0  0
   21.8560  -21.8502  -13.6752 C   0  0  0  0  0  0  0  0  0  0  0  0
   21.9280  -20.8876  -12.8394 O   0  0  0  0  0  0  0  0  0  0  0  0
   23.0113  -22.6630  -13.8454 N   0  0  0  0  0  0  0  0  0  0  0  0
   23.0421  -23.8531  -14.6670 C   0  0  0  0  0  0  0  0  0  0  0  0
   24.5080  -24.0430  -14.9561 C   0  0  0  0  0  0  0  0  0  0  0  0
   25.1169  -23.6952  -13.6016 C   0  0  0  0  0  0  0  0  0  0  0  0
   24.2899  -22.4390  -13.2691 C   0  0  1  0  0  0  0  0  0  0  0  0
   25.0401  -21.3240  -13.9085 C   0  0  0  0  0  0  0  0  0  0  0  0
   24.9528  -21.1762  -15.1531 O   0  0  0  0  0  0  0  0  0  0  0  0
   25.8476  -20.4179  -13.1961 N   0  0  0  0  0  0  0  0  0  0  0  0
   26.5599  -19.3032  -13.7953 C   0  0  1  0  0  0  0  0  0  0  0  0
   27.3654  -18.6675  -12.6742 C   0  0  0  0  0  0  0  0  0  0  0  0
   27.8649  -19.6588  -11.6977 C   0  0  0  0  0  0  0  0  0  0  0  0
   28.8957  -20.5489  -11.8511 C   0  0  0  0  0  0  0  0  0  0  0  0
   29.0485  -21.2891  -10.7291 N   0  0  0  0  0  0  0  0  0  0  0  0
   28.1161  -20.8842   -9.8371 C   0  0  0  0  0  0  0  0  0  0  0  0
   27.8712  -21.3341   -8.5570 C   0  0  0  0  0  0  0  0  0  0  0  0
   26.8353  -20.7373   -7.8437 C   0  0  0  0  0  0  0  0  0  0  0  0
   26.0808  -19.7367   -8.3887 C   0  0  0  0  0  0  0  0  0  0  0  0
   26.3535  -19.3014   -9.6907 C   0  0  0  0  0  0  0  0  0  0  0  0
   27.3716  -19.8680  -10.4288 C   0  0  0  0  0  0  0  0  0  0  0  0
   27.5827  -19.8103  -14.7775 C   0  0  0  0  0  0  0  0  0  0  0  0
   28.1858  -19.0050  -15.5413 O   0  0  0  0  0  0  0  0  0  0  0  0
   27.8930  -21.1430  -14.8784 O   0  0  0  0  0  0  0  0  0  0  0  0
  2  1  1  0
  3  2  2  0
  4  2  1  0
  5  4  1  0
  6  8  1  0
  6  5  1  0
  6  7  1  1
  8 10  1  0
  9  8  2  0
 10 11  1  0
 10 14  1  0
 11 12  1  0
 12 13  1  0
 14 13  1  0
 15 17  1  0
 14 15  1  6
 16 15  2  0
 18 29  1  0
 18 17  1  0
 18 19  1  1
 20 28  1  0
 20 19  1  0
 21 20  2  0
 22 21  1  0
 22 23  1  0
 23 28  2  0
 24 23  1  0
 24 25  2  0
 25 26  1  0
 26 27  2  0
 28 27  1  0
 29 31  1  0
 30 29  2  0
M  END
$$$$
