QPW.pdb
     RDKit          3D

 31 33  0  0  1  0  0  0  0  0999 V2000
   22.0694  -14.1797  -17.4815 N   0  0  0  0  0  0  0  0  0  0  0  0
   21.8247  -14.8852  -16.2762 C   0  0  0  0  0  0  0  0  0  0  0  0
   20.6985  -15.3796  -16.1083 O   0  0  0  0  0  0  0  0  0  0  0  0
   22.8825  -15.0058  -15.2792 C   0  0  0  0  0  0  0  0  0  0  0  0
   23.4072  -16.3587  -14.9855 C   0  0  0  0  0  0  0  0  0  0  0  0
   24.2121  -17.0319  -16.0379 C   0  0  2  0  0  0  0  0  0  0  0  0
   23.2727  -17.3027  -17.1543 N   0  0  0  0  0  0  0  0  0  0  0  0
   24.8340  -18.3120  -15.6820 C   0  0  0  0  0  0  0  0  0  0  0  0
   24.0908  -19.3487  -15.6248 O   0  0  0  0  0  0  0  0  0  0  0  0
   26.2186  -18.4773  -15.3995 N   0  0  0  0  0  0  0  0  0  0  0  0
   27.1926  -17.4131  -15.5055 C   0  0  0  0  0  0  0  0  0  0  0  0
   28.3291  -17.8892  -14.6395 C   0  0  0  0  0  0  0  0  0  0  0  0
   28.3622  -19.3720  -14.9955 C   0  0  0  0  0  0  0  0  0  0  0  0
   26.8517  -19.6718  -14.9643 C   0  0  1  0  0  0  0  0  0  0  0  0
   26.5715  -20.0053  -13.5412 C   0  0  0  0  0  0  0  0  0  0  0  0
   27.2244  -19.4143  -12.6452 O   0  0  0  0  0  0  0  0  0  0  0  0
   25.6108  -20.9507  -13.1363 N   0  0  0  0  0  0  0  0  0  0  0  0
   25.8618  -22.3751  -13.0059 C   0  0  1  0  0  0  0  0  0  0  0  0
   25.5762  -22.7212  -11.5539 C   0  0  0  0  0  0  0  0  0  0  0  0
   25.7035  -21.5551  -10.6539 C   0  0  0  0  0  0  0  0  0  0  0  0
   24.7579  -20.6066  -10.3630 C   0  0  0  0  0  0  0  0  0  0  0  0
   25.2555  -19.6983   -9.4928 N   0  0  0  0  0  0  0  0  0  0  0  0
   26.5303  -20.0511   -9.2116 C   0  0  0  0  0  0  0  0  0  0  0  0
   27.4479  -19.4418   -8.3822 C   0  0  0  0  0  0  0  0  0  0  0  0
   28.7096  -20.0194   -8.2705 C   0  0  0  0  0  0  0  0  0  0  0  0
   29.0356  -21.1543   -8.9584 C   0  0  0  0  0  0  0  0  0  0  0  0
   28.0827  -21.7499   -9.7928 C   0  0  0  0  0  0  0  0  0  0  0  0
   26.8220  -21.2073   -9.9292 C   0  0  0  0  0  0  0  0  0  0  0  0
   24.8496  -23.1543  -13.8037 C   0  0  0  0  0  0  0  0  0  0  0  0
   23.8382  -22.5738  -14.2891 O   0  0  0  0  0  0  0  0  0  0  0  0
   24.9850  -24.5008  -14.0296 O   0  0  0  0  0  0  0  0  0  0  0  0
  2  1  1  0
  3  2  2  0
  4  2  1  0
  5  4  1  0
  6  8  1  0
  6  5  1  0
  6  7  1  6
  8 10  1  0
  9  8  2  0
 10 11  1  0
 10 14  1  0
 11 12  1  0
 12 13  1  0
 14 13  1  0
 15 17  1  0
 14 15  1  1
 16 15  2  0
 18 29  1  0
 18 17  1  0
 18 19  1  1
 20 28  1  0
 20 19  1  0
 21 20  2  0
 22 21  1  0
 22 23  1  0
 23 28  2  0
 24 23  1  0
 24 25  2  0
 25 26  1  0
 26 27  2  0
 28 27  1  0
 29 31  1  0
 30 29  2  0
M  END
$$$$
