QPW.pdb
     RDKit          3D

 31 33  0  0  1  0  0  0  0  0999 V2000
   16.3016  -21.5522    1.7047 N   0  0  0  0  0  0  0  0  0  0  0  0
   14.8933  -21.3895    1.7284 C   0  0  0  0  0  0  0  0  0  0  0  0
   14.2009  -22.2111    1.1066 O   0  0  0  0  0  0  0  0  0  0  0  0
   14.3043  -20.2774    2.4657 C   0  0  0  0  0  0  0  0  0  0  0  0
   15.2193  -19.3512    3.1708 C   0  0  0  0  0  0  0  0  0  0  0  0
   14.6125  -18.2634    3.9815 C   0  0  2  0  0  0  0  0  0  0  0  0
   14.1006  -17.2693    3.0058 N   0  0  0  0  0  0  0  0  0  0  0  0
   15.5019  -17.5432    4.8993 C   0  0  0  0  0  0  0  0  0  0  0  0
   16.2749  -16.6503    4.4140 O   0  0  0  0  0  0  0  0  0  0  0  0
   15.5576  -17.7711    6.3025 N   0  0  0  0  0  0  0  0  0  0  0  0
   14.6615  -18.6611    7.0078 C   0  0  0  0  0  0  0  0  0  0  0  0
   15.4056  -18.9742    8.2793 C   0  0  0  0  0  0  0  0  0  0  0  0
   15.9941  -17.6073    8.6136 C   0  0  0  0  0  0  0  0  0  0  0  0
   16.4830  -17.1944    7.2125 C   0  0  1  0  0  0  0  0  0  0  0  0
   17.8500  -17.7745    7.1134 C   0  0  0  0  0  0  0  0  0  0  0  0
   17.9842  -18.9138    6.6011 O   0  0  0  0  0  0  0  0  0  0  0  0
   19.0104  -17.1173    7.5628 N   0  0  0  0  0  0  0  0  0  0  0  0
   20.3571  -17.6463    7.4366 C   0  0  1  0  0  0  0  0  0  0  0  0
   21.0164  -16.8550    6.3189 C   0  0  0  0  0  0  0  0  0  0  0  0
   20.9437  -15.3942    6.5345 C   0  0  0  0  0  0  0  0  0  0  0  0
   21.6263  -14.6421    7.4548 C   0  0  0  0  0  0  0  0  0  0  0  0
   21.2886  -13.3373    7.3389 N   0  0  0  0  0  0  0  0  0  0  0  0
   20.3825  -13.2323    6.3405 C   0  0  0  0  0  0  0  0  0  0  0  0
   19.7434  -12.1142    5.8482 C   0  0  0  0  0  0  0  0  0  0  0  0
   18.8430  -12.2867    4.8005 C   0  0  0  0  0  0  0  0  0  0  0  0
   18.5953  -13.5223    4.2719 C   0  0  0  0  0  0  0  0  0  0  0  0
   19.2596  -14.6386    4.7930 C   0  0  0  0  0  0  0  0  0  0  0  0
   20.1589  -14.5078    5.8306 C   0  0  0  0  0  0  0  0  0  0  0  0
   21.1570  -17.3260    8.6717 C   0  0  0  0  0  0  0  0  0  0  0  0
   20.7193  -16.4943    9.5156 O   0  0  0  0  0  0  0  0  0  0  0  0
   22.3703  -17.9153    8.9230 O   0  0  0  0  0  0  0  0  0  0  0  0
  2  1  1  0
  3  2  2  0
  4  2  1  0
  5  4  1  0
  6  8  1  0
  6  5  1  0
  6  7  1  6
  8 10  1  0
  9  8  2  0
 10 11  1  0
 10 14  1  0
 11 12  1  0
 12 13  1  0
 14 13  1  0
 15 17  1  0
 14 15  1  6
 16 15  2  0
 18 29  1  0
 18 17  1  0
 18 19  1  6
 20 28  1  0
 20 19  1  0
 21 20  2  0
 22 21  1  0
 22 23  1  0
 23 28  2  0
 24 23  1  0
 24 25  2  0
 25 26  1  0
 26 27  2  0
 28 27  1  0
 29 31  1  0
 30 29  2  0
M  END
$$$$
