QPW.pdb
     RDKit          3D

 31 33  0  0  1  0  0  0  0  0999 V2000
   22.1243  -15.3897  -17.0144 N   0  0  0  0  0  0  0  0  0  0  0  0
   23.3027  -14.6175  -17.1740 C   0  0  0  0  0  0  0  0  0  0  0  0
   23.2285  -13.5707  -17.8371 O   0  0  0  0  0  0  0  0  0  0  0  0
   24.5516  -15.0674  -16.5697 C   0  0  0  0  0  0  0  0  0  0  0  0
   24.5190  -16.2954  -15.7434 C   0  0  0  0  0  0  0  0  0  0  0  0
   25.1010  -17.5342  -16.3223 C   0  0  2  0  0  0  0  0  0  0  0  0
   24.1901  -17.9325  -17.4241 N   0  0  0  0  0  0  0  0  0  0  0  0
   25.2235  -18.6915  -15.4291 C   0  0  0  0  0  0  0  0  0  0  0  0
   24.1635  -19.1454  -14.8807 O   0  0  0  0  0  0  0  0  0  0  0  0
   26.4508  -19.3485  -15.1352 N   0  0  0  0  0  0  0  0  0  0  0  0
   27.7029  -19.0427  -15.7919 C   0  0  0  0  0  0  0  0  0  0  0  0
   28.7398  -19.5636  -14.8318 C   0  0  0  0  0  0  0  0  0  0  0  0
   28.0891  -20.8683  -14.3836 C   0  0  0  0  0  0  0  0  0  0  0  0
   26.6479  -20.3693  -14.1677 C   0  0  1  0  0  0  0  0  0  0  0  0
   26.6380  -19.8667  -12.7669 C   0  0  0  0  0  0  0  0  0  0  0  0
   27.2853  -18.8243  -12.4973 O   0  0  0  0  0  0  0  0  0  0  0  0
   25.9408  -20.4947  -11.7180 N   0  0  0  0  0  0  0  0  0  0  0  0
   26.0723  -20.1424  -10.3152 C   0  0  1  0  0  0  0  0  0  0  0  0
   24.8084  -19.3801   -9.9529 C   0  0  0  0  0  0  0  0  0  0  0  0
   23.5849  -20.1939  -10.1156 C   0  0  0  0  0  0  0  0  0  0  0  0
   22.9337  -20.9375   -9.1661 C   0  0  0  0  0  0  0  0  0  0  0  0
   21.8485  -21.5400   -9.7038 N   0  0  0  0  0  0  0  0  0  0  0  0
   21.7868  -21.1914  -11.0090 C   0  0  0  0  0  0  0  0  0  0  0  0
   20.8672  -21.5501  -11.9716 C   0  0  0  0  0  0  0  0  0  0  0  0
   21.0386  -21.0440  -13.2571 C   0  0  0  0  0  0  0  0  0  0  0  0
   22.0828  -20.2172  -13.5626 C   0  0  0  0  0  0  0  0  0  0  0  0
   23.0002  -19.8709  -12.5638 C   0  0  0  0  0  0  0  0  0  0  0  0
   22.8639  -20.3522  -11.2784 C   0  0  0  0  0  0  0  0  0  0  0  0
   26.0415  -21.3846   -9.4644 C   0  0  0  0  0  0  0  0  0  0  0  0
   25.8979  -22.5196  -10.0000 O   0  0  0  0  0  0  0  0  0  0  0  0
   26.1660  -21.3318   -8.0991 O   0  0  0  0  0  0  0  0  0  0  0  0
  2  1  1  0
  3  2  2  0
  4  2  1  0
  5  4  1  0
  6  8  1  0
  6  5  1  0
  6  7  1  6
  8 10  1  0
  9  8  2  0
 10 11  1  0
 10 14  1  0
 11 12  1  0
 12 13  1  0
 14 13  1  0
 15 17  1  0
 14 15  1  1
 16 15  2  0
 18 29  1  0
 18 17  1  0
 18 19  1  1
 20 28  1  0
 20 19  1  0
 21 20  2  0
 22 21  1  0
 22 23  1  0
 23 28  2  0
 24 23  1  0
 24 25  2  0
 25 26  1  0
 26 27  2  0
 28 27  1  0
 29 31  1  0
 30 29  2  0
M  END
$$$$
