QPW.pdb
     RDKit          3D

 31 33  0  0  1  0  0  0  0  0999 V2000
   18.7334  -18.3011  -14.4018 N   0  0  0  0  0  0  0  0  0  0  0  0
   19.8013  -19.2122  -14.2020 C   0  0  0  0  0  0  0  0  0  0  0  0
   19.5196  -20.3964  -13.9585 O   0  0  0  0  0  0  0  0  0  0  0  0
   21.1797  -18.7421  -14.2812 C   0  0  0  0  0  0  0  0  0  0  0  0
   21.4076  -17.3105  -14.5823 C   0  0  0  0  0  0  0  0  0  0  0  0
   22.1299  -16.9740  -15.8367 C   0  0  2  0  0  0  0  0  0  0  0  0
   21.1923  -17.2943  -16.9416 N   0  0  0  0  0  0  0  0  0  0  0  0
   23.3728  -17.7057  -16.1049 C   0  0  0  0  0  0  0  0  0  0  0  0
   23.2884  -18.8669  -16.6291 O   0  0  0  0  0  0  0  0  0  0  0  0
   24.6735  -17.2031  -15.8226 N   0  0  0  0  0  0  0  0  0  0  0  0
   24.9233  -15.9012  -15.2436 C   0  0  0  0  0  0  0  0  0  0  0  0
   26.3072  -16.0337  -14.6643 C   0  0  0  0  0  0  0  0  0  0  0  0
   27.0020  -16.8393  -15.7573 C   0  0  0  0  0  0  0  0  0  0  0  0
   25.9027  -17.8806  -16.0397 C   0  0  1  0  0  0  0  0  0  0  0  0
   26.1618  -18.9662  -15.0552 C   0  0  0  0  0  0  0  0  0  0  0  0
   26.3347  -18.6566  -13.8500 O   0  0  0  0  0  0  0  0  0  0  0  0
   26.2249  -20.3300  -15.3969 N   0  0  0  0  0  0  0  0  0  0  0  0
   27.0674  -21.3074  -14.7305 C   0  0  1  0  0  0  0  0  0  0  0  0
   26.1243  -22.3425  -14.1399 C   0  0  0  0  0  0  0  0  0  0  0  0
   25.1882  -21.7639  -13.1526 C   0  0  0  0  0  0  0  0  0  0  0  0
   23.8535  -21.4957  -13.3117 C   0  0  0  0  0  0  0  0  0  0  0  0
   23.3414  -20.9687  -12.1759 N   0  0  0  0  0  0  0  0  0  0  0  0
   24.3417  -20.8907  -11.2692 C   0  0  0  0  0  0  0  0  0  0  0  0
   24.3170  -20.4246   -9.9718 C   0  0  0  0  0  0  0  0  0  0  0  0
   25.5044  -20.4555   -9.2456 C   0  0  0  0  0  0  0  0  0  0  0  0
   26.6617  -20.9314   -9.7949 C   0  0  0  0  0  0  0  0  0  0  0  0
   26.6553  -21.3978  -11.1145 C   0  0  0  0  0  0  0  0  0  0  0  0
   25.4986  -21.3834  -11.8657 C   0  0  0  0  0  0  0  0  0  0  0  0
   27.8915  -22.0571  -15.7438 C   0  0  0  0  0  0  0  0  0  0  0  0
   28.7770  -22.8744  -15.3651 O   0  0  0  0  0  0  0  0  0  0  0  0
   27.7149  -21.8839  -17.0934 O   0  0  0  0  0  0  0  0  0  0  0  0
  2  1  1  0
  3  2  2  0
  4  2  1  0
  5  4  1  0
  6  8  1  0
  6  5  1  0
  6  7  1  6
  8 10  1  0
  9  8  2  0
 10 11  1  0
 10 14  1  0
 11 12  1  0
 12 13  1  0
 14 13  1  0
 15 17  1  0
 14 15  1  1
 16 15  2  0
 18 29  1  0
 18 17  1  0
 18 19  1  6
 20 28  1  0
 20 19  1  0
 21 20  2  0
 22 21  1  0
 22 23  1  0
 23 28  2  0
 24 23  1  0
 24 25  2  0
 25 26  1  0
 26 27  2  0
 28 27  1  0
 29 31  1  0
 30 29  2  0
M  END
$$$$
