QPW.pdb
     RDKit          3D

 31 33  0  0  1  0  0  0  0  0999 V2000
   20.7599  -18.3237  -14.0232 N   0  0  0  0  0  0  0  0  0  0  0  0
   20.7240  -17.6634  -15.2774 C   0  0  0  0  0  0  0  0  0  0  0  0
   19.6570  -17.1344  -15.6275 O   0  0  0  0  0  0  0  0  0  0  0  0
   21.9195  -17.6274  -16.1122 C   0  0  0  0  0  0  0  0  0  0  0  0
   23.1791  -18.1570  -15.5423 C   0  0  0  0  0  0  0  0  0  0  0  0
   24.3921  -18.1290  -16.4004 C   0  0  2  0  0  0  0  0  0  0  0  0
   23.9043  -18.2701  -17.7949 N   0  0  0  0  0  0  0  0  0  0  0  0
   25.3836  -19.1886  -16.1849 C   0  0  0  0  0  0  0  0  0  0  0  0
   25.1729  -20.3296  -16.7178 O   0  0  0  0  0  0  0  0  0  0  0  0
   26.5731  -19.0274  -15.4212 N   0  0  0  0  0  0  0  0  0  0  0  0
   26.9253  -17.8058  -14.7313 C   0  0  0  0  0  0  0  0  0  0  0  0
   27.9137  -18.2621  -13.6906 C   0  0  0  0  0  0  0  0  0  0  0  0
   28.7233  -19.2797  -14.4877 C   0  0  0  0  0  0  0  0  0  0  0  0
   27.5724  -20.0126  -15.2024 C   0  0  1  0  0  0  0  0  0  0  0  0
   27.1583  -21.0724  -14.2430 C   0  0  0  0  0  0  0  0  0  0  0  0
   27.8364  -22.1284  -14.1838 O   0  0  0  0  0  0  0  0  0  0  0  0
   26.0437  -20.9608  -13.3911 N   0  0  0  0  0  0  0  0  0  0  0  0
   25.6001  -21.9976  -12.4760 C   0  0  1  0  0  0  0  0  0  0  0  0
   26.6523  -22.0709  -11.3818 C   0  0  0  0  0  0  0  0  0  0  0  0
   26.3014  -21.2583  -10.1976 C   0  0  0  0  0  0  0  0  0  0  0  0
   25.0830  -20.7203   -9.8743 C   0  0  0  0  0  0  0  0  0  0  0  0
   25.1639  -20.0410   -8.7073 N   0  0  0  0  0  0  0  0  0  0  0  0
   26.4379  -20.1330   -8.2633 C   0  0  0  0  0  0  0  0  0  0  0  0
   27.0112  -19.6088   -7.1242 C   0  0  0  0  0  0  0  0  0  0  0  0
   28.3632  -19.8559   -6.9024 C   0  0  0  0  0  0  0  0  0  0  0  0
   29.1049  -20.5937   -7.7815 C   0  0  0  0  0  0  0  0  0  0  0  0
   28.4947  -21.1127   -8.9293 C   0  0  0  0  0  0  0  0  0  0  0  0
   27.1575  -20.8895   -9.1835 C   0  0  0  0  0  0  0  0  0  0  0  0
   24.3360  -21.5673  -11.7796 C   0  0  0  0  0  0  0  0  0  0  0  0
   23.6259  -22.4145  -11.1685 O   0  0  0  0  0  0  0  0  0  0  0  0
   23.9150  -20.2614  -11.7824 O   0  0  0  0  0  0  0  0  0  0  0  0
  2  1  1  0
  3  2  2  0
  4  2  1  0
  5  4  1  0
  6  8  1  0
  6  5  1  0
  6  7  1  6
  8 10  1  0
  9  8  2  0
 10 11  1  0
 10 14  1  0
 11 12  1  0
 12 13  1  0
 14 13  1  0
 15 17  1  0
 14 15  1  1
 16 15  2  0
 18 29  1  0
 18 17  1  0
 18 19  1  1
 20 28  1  0
 20 19  1  0
 21 20  2  0
 22 21  1  0
 22 23  1  0
 23 28  2  0
 24 23  1  0
 24 25  2  0
 25 26  1  0
 26 27  2  0
 28 27  1  0
 29 31  1  0
 30 29  2  0
M  END
$$$$
