QPW.pdb
     RDKit          3D

 31 33  0  0  1  0  0  0  0  0999 V2000
   29.7313  -23.3699  -18.3616 N   0  0  0  0  0  0  0  0  0  0  0  0
   30.5443  -22.2858  -18.7791 C   0  0  0  0  0  0  0  0  0  0  0  0
   31.4726  -22.5234  -19.5683 O   0  0  0  0  0  0  0  0  0  0  0  0
   30.2770  -20.9433  -18.2757 C   0  0  0  0  0  0  0  0  0  0  0  0
   29.2487  -20.7902  -17.2216 C   0  0  0  0  0  0  0  0  0  0  0  0
   27.8241  -20.9376  -17.6184 C   0  0  2  0  0  0  0  0  0  0  0  0
   27.5429  -19.8104  -18.5417 N   0  0  0  0  0  0  0  0  0  0  0  0
   26.8252  -20.8717  -16.5461 C   0  0  0  0  0  0  0  0  0  0  0  0
   26.6007  -19.7400  -15.9993 O   0  0  0  0  0  0  0  0  0  0  0  0
   26.0822  -21.9900  -16.0755 N   0  0  0  0  0  0  0  0  0  0  0  0
   26.1114  -23.2942  -16.7005 C   0  0  0  0  0  0  0  0  0  0  0  0
   25.6408  -24.2182  -15.6082 C   0  0  0  0  0  0  0  0  0  0  0  0
   24.5249  -23.3851  -14.9859 C   0  0  0  0  0  0  0  0  0  0  0  0
   25.2287  -22.0157  -14.9406 C   0  0  1  0  0  0  0  0  0  0  0  0
   25.9646  -22.0222  -13.6470 C   0  0  0  0  0  0  0  0  0  0  0  0
   27.0324  -22.6791  -13.5657 O   0  0  0  0  0  0  0  0  0  0  0  0
   25.5320  -21.3303  -12.5004 N   0  0  0  0  0  0  0  0  0  0  0  0
   25.3823  -21.9287  -11.1856 C   0  0  1  0  0  0  0  0  0  0  0  0
   26.7152  -21.7354  -10.4814 C   0  0  0  0  0  0  0  0  0  0  0  0
   26.6573  -20.7040   -9.4237 C   0  0  0  0  0  0  0  0  0  0  0  0
   25.6074  -19.8841   -9.1013 C   0  0  0  0  0  0  0  0  0  0  0  0
   25.9430  -19.0736   -8.0715 N   0  0  0  0  0  0  0  0  0  0  0  0
   27.2157  -19.3620   -7.7169 C   0  0  0  0  0  0  0  0  0  0  0  0
   27.9987  -18.8078   -6.7265 C   0  0  0  0  0  0  0  0  0  0  0  0
   29.2937  -19.2946   -6.5708 C   0  0  0  0  0  0  0  0  0  0  0  0
   29.7801  -20.2902   -7.3706 C   0  0  0  0  0  0  0  0  0  0  0  0
   28.9612  -20.8330   -8.3675 C   0  0  0  0  0  0  0  0  0  0  0  0
   27.6726  -20.3769   -8.5523 C   0  0  0  0  0  0  0  0  0  0  0  0
   24.3880  -21.1449  -10.3702 C   0  0  0  0  0  0  0  0  0  0  0  0
   23.9487  -20.0388  -10.7934 O   0  0  0  0  0  0  0  0  0  0  0  0
   23.9293  -21.5945   -9.1578 O   0  0  0  0  0  0  0  0  0  0  0  0
  2  1  1  0
  3  2  2  0
  4  2  1  0
  5  4  1  0
  6  8  1  0
  6  5  1  0
  6  7  1  6
  8 10  1  0
  9  8  2  0
 10 11  1  0
 10 14  1  0
 11 12  1  0
 12 13  1  0
 14 13  1  0
 15 17  1  0
 14 15  1  1
 16 15  2  0
 18 29  1  0
 18 17  1  0
 18 19  1  1
 20 28  1  0
 20 19  1  0
 21 20  2  0
 22 21  1  0
 22 23  1  0
 23 28  2  0
 24 23  1  0
 24 25  2  0
 25 26  1  0
 26 27  2  0
 28 27  1  0
 29 31  1  0
 30 29  2  0
M  END
$$$$
