QPW.pdb
     RDKit          3D

 31 33  0  0  1  0  0  0  0  0999 V2000
   27.7467  -16.2848  -15.6331 N   0  0  0  0  0  0  0  0  0  0  0  0
   26.5606  -16.9946  -15.3172 C   0  0  0  0  0  0  0  0  0  0  0  0
   25.7821  -16.4910  -14.4919 O   0  0  0  0  0  0  0  0  0  0  0  0
   26.2924  -18.2785  -15.9552 C   0  0  0  0  0  0  0  0  0  0  0  0
   27.3393  -18.8481  -16.8337 C   0  0  0  0  0  0  0  0  0  0  0  0
   27.7274  -20.2662  -16.6173 C   0  0  2  0  0  0  0  0  0  0  0  0
   26.9278  -21.0567  -17.5859 N   0  0  0  0  0  0  0  0  0  0  0  0
   27.4691  -20.8307  -15.2881 C   0  0  0  0  0  0  0  0  0  0  0  0
   26.3661  -21.4448  -15.0973 O   0  0  0  0  0  0  0  0  0  0  0  0
   28.3728  -20.7431  -14.1928 N   0  0  0  0  0  0  0  0  0  0  0  0
   29.6761  -20.1210  -14.2745 C   0  0  0  0  0  0  0  0  0  0  0  0
   30.0050  -19.8039  -12.8394 C   0  0  0  0  0  0  0  0  0  0  0  0
   29.4907  -21.0586  -12.1411 C   0  0  0  0  0  0  0  0  0  0  0  0
   28.1462  -21.2216  -12.8749 C   0  0  1  0  0  0  0  0  0  0  0  0
   27.1967  -20.3814  -12.0955 C   0  0  0  0  0  0  0  0  0  0  0  0
   27.3213  -19.1321  -12.1419 O   0  0  0  0  0  0  0  0  0  0  0  0
   26.1592  -20.9075  -11.3034 N   0  0  0  0  0  0  0  0  0  0  0  0
   25.3354  -20.1240  -10.3997 C   0  0  1  0  0  0  0  0  0  0  0  0
   24.2491  -19.4969  -11.2580 C   0  0  0  0  0  0  0  0  0  0  0  0
   23.5745  -20.4798  -12.1325 C   0  0  0  0  0  0  0  0  0  0  0  0
   23.0413  -21.6933  -11.7838 C   0  0  0  0  0  0  0  0  0  0  0  0
   22.5085  -22.3016  -12.8682 N   0  0  0  0  0  0  0  0  0  0  0  0
   22.6920  -21.4860  -13.9311 C   0  0  0  0  0  0  0  0  0  0  0  0
   22.3257  -21.6636  -15.2484 C   0  0  0  0  0  0  0  0  0  0  0  0
   22.6399  -20.6540  -16.1539 C   0  0  0  0  0  0  0  0  0  0  0  0
   23.2908  -19.5199  -15.7569 C   0  0  0  0  0  0  0  0  0  0  0  0
   23.6498  -19.3683  -14.4126 C   0  0  0  0  0  0  0  0  0  0  0  0
   23.3556  -20.3465  -13.4858 C   0  0  0  0  0  0  0  0  0  0  0  0
   24.6078  -21.0321   -9.4437 C   0  0  0  0  0  0  0  0  0  0  0  0
   24.7205  -22.2860   -9.5462 O   0  0  0  0  0  0  0  0  0  0  0  0
   23.8088  -20.5406   -8.4424 O   0  0  0  0  0  0  0  0  0  0  0  0
  2  1  1  0
  3  2  2  0
  4  2  1  0
  5  4  1  0
  6  8  1  0
  6  5  1  0
  6  7  1  6
  8 10  1  0
  9  8  2  0
 10 11  1  0
 10 14  1  0
 11 12  1  0
 12 13  1  0
 14 13  1  0
 15 17  1  0
 14 15  1  1
 16 15  2  0
 18 29  1  0
 18 17  1  0
 18 19  1  6
 20 28  1  0
 20 19  1  0
 21 20  2  0
 22 21  1  0
 22 23  1  0
 23 28  2  0
 24 23  1  0
 24 25  2  0
 25 26  1  0
 26 27  2  0
 28 27  1  0
 29 31  1  0
 30 29  2  0
M  END
$$$$
