QPW.pdb
     RDKit          3D

 31 33  0  0  1  0  0  0  0  0999 V2000
   26.8593  -16.4890  -13.9960 N   0  0  0  0  0  0  0  0  0  0  0  0
   26.0338  -16.8021  -15.1054 C   0  0  0  0  0  0  0  0  0  0  0  0
   24.9906  -16.1471  -15.2591 O   0  0  0  0  0  0  0  0  0  0  0  0
   26.4219  -17.8706  -16.0192 C   0  0  0  0  0  0  0  0  0  0  0  0
   27.6419  -18.6464  -15.7002 C   0  0  0  0  0  0  0  0  0  0  0  0
   27.5133  -20.1228  -15.5893 C   0  0  2  0  0  0  0  0  0  0  0  0
   27.5061  -20.6339  -16.9825 N   0  0  0  0  0  0  0  0  0  0  0  0
   26.3035  -20.6377  -14.9386 C   0  0  0  0  0  0  0  0  0  0  0  0
   25.2645  -20.8237  -15.6571 O   0  0  0  0  0  0  0  0  0  0  0  0
   26.2116  -20.9498  -13.5536 N   0  0  0  0  0  0  0  0  0  0  0  0
   27.2910  -20.7493  -12.6117 C   0  0  0  0  0  0  0  0  0  0  0  0
   26.5911  -20.7062  -11.2788 C   0  0  0  0  0  0  0  0  0  0  0  0
   25.5573  -21.8130  -11.4595 C   0  0  0  0  0  0  0  0  0  0  0  0
   25.0759  -21.4776  -12.8837 C   0  0  1  0  0  0  0  0  0  0  0  0
   23.9916  -20.4785  -12.6805 C   0  0  0  0  0  0  0  0  0  0  0  0
   24.2426  -19.4466  -12.0092 O   0  0  0  0  0  0  0  0  0  0  0  0
   22.6916  -20.6222  -13.2000 N   0  0  0  0  0  0  0  0  0  0  0  0
   21.5903  -19.7165  -12.9241 C   0  0  1  0  0  0  0  0  0  0  0  0
   21.6991  -18.5983  -13.9477 C   0  0  0  0  0  0  0  0  0  0  0  0
   21.5418  -19.0793  -15.3369 C   0  0  0  0  0  0  0  0  0  0  0  0
   20.4388  -19.6569  -15.9100 C   0  0  0  0  0  0  0  0  0  0  0  0
   20.6864  -19.9600  -17.2049 N   0  0  0  0  0  0  0  0  0  0  0  0
   21.9543  -19.5807  -17.4828 C   0  0  0  0  0  0  0  0  0  0  0  0
   22.6628  -19.6802  -18.6614 C   0  0  0  0  0  0  0  0  0  0  0  0
   23.9718  -19.2066  -18.6768 C   0  0  0  0  0  0  0  0  0  0  0  0
   24.5431  -18.6592  -17.5626 C   0  0  0  0  0  0  0  0  0  0  0  0
   23.7986  -18.5718  -16.3807 C   0  0  0  0  0  0  0  0  0  0  0  0
   22.4987  -19.0301  -16.3263 C   0  0  0  0  0  0  0  0  0  0  0  0
   20.2774  -20.3935  -13.2174 C   0  0  0  0  0  0  0  0  0  0  0  0
   20.2544  -21.5051  -13.8168 O   0  0  0  0  0  0  0  0  0  0  0  0
   19.0774  -19.8384  -12.8510 O   0  0  0  0  0  0  0  0  0  0  0  0
  2  1  1  0
  3  2  2  0
  4  2  1  0
  5  4  1  0
  6  8  1  0
  6  5  1  0
  6  7  1  6
  8 10  1  0
  9  8  2  0
 10 11  1  0
 10 14  1  0
 11 12  1  0
 12 13  1  0
 14 13  1  0
 15 17  1  0
 14 15  1  1
 16 15  2  0
 18 29  1  0
 18 17  1  0
 18 19  1  6
 20 28  1  0
 20 19  1  0
 21 20  2  0
 22 21  1  0
 22 23  1  0
 23 28  2  0
 24 23  1  0
 24 25  2  0
 25 26  1  0
 26 27  2  0
 28 27  1  0
 29 31  1  0
 30 29  2  0
M  END
$$$$
