QPW.pdb
     RDKit          3D

 31 33  0  0  1  0  0  0  0  0999 V2000
   24.4751  -15.3160  -15.8059 N   0  0  0  0  0  0  0  0  0  0  0  0
   23.9210  -16.3127  -14.9633 C   0  0  0  0  0  0  0  0  0  0  0  0
   23.1362  -15.9520  -14.0717 O   0  0  0  0  0  0  0  0  0  0  0  0
   24.2848  -17.7115  -15.1588 C   0  0  0  0  0  0  0  0  0  0  0  0
   25.1890  -18.0420  -16.2837 C   0  0  0  0  0  0  0  0  0  0  0  0
   26.5662  -18.4932  -15.9545 C   0  0  2  0  0  0  0  0  0  0  0  0
   27.1826  -18.8859  -17.2460 N   0  0  0  0  0  0  0  0  0  0  0  0
   26.6910  -19.6441  -15.0534 C   0  0  0  0  0  0  0  0  0  0  0  0
   25.6906  -20.4284  -14.9341 O   0  0  0  0  0  0  0  0  0  0  0  0
   27.8607  -19.9490  -14.3030 N   0  0  0  0  0  0  0  0  0  0  0  0
   29.0637  -19.1463  -14.3292 C   0  0  0  0  0  0  0  0  0  0  0  0
   29.7679  -19.5264  -13.0533 C   0  0  0  0  0  0  0  0  0  0  0  0
   29.5190  -21.0309  -13.0232 C   0  0  0  0  0  0  0  0  0  0  0  0
   28.0305  -21.0476  -13.4191 C   0  0  1  0  0  0  0  0  0  0  0  0
   27.3045  -20.8874  -12.1298 C   0  0  0  0  0  0  0  0  0  0  0  0
   27.7947  -20.1327  -11.2532 O   0  0  0  0  0  0  0  0  0  0  0  0
   26.0915  -21.5361  -11.8321 N   0  0  0  0  0  0  0  0  0  0  0  0
   25.4207  -21.4768  -10.5454 C   0  0  1  0  0  0  0  0  0  0  0  0
   25.3220  -20.0024  -10.1902 C   0  0  0  0  0  0  0  0  0  0  0  0
   26.1831  -19.6322   -9.0468 C   0  0  0  0  0  0  0  0  0  0  0  0
   26.0647  -18.5471   -8.2179 C   0  0  0  0  0  0  0  0  0  0  0  0
   27.0465  -18.5572   -7.2874 N   0  0  0  0  0  0  0  0  0  0  0  0
   27.8111  -19.6510   -7.5055 C   0  0  0  0  0  0  0  0  0  0  0  0
   28.9253  -20.0940   -6.8248 C   0  0  0  0  0  0  0  0  0  0  0  0
   29.5328  -21.2675   -7.2631 C   0  0  0  0  0  0  0  0  0  0  0  0
   29.0458  -21.9634   -8.3336 C   0  0  0  0  0  0  0  0  0  0  0  0
   27.9130  -21.4885   -9.0045 C   0  0  0  0  0  0  0  0  0  0  0  0
   27.2834  -20.3299   -8.5999 C   0  0  0  0  0  0  0  0  0  0  0  0
   23.9961  -21.9458  -10.6823 C   0  0  0  0  0  0  0  0  0  0  0  0
   23.4726  -22.0662  -11.8255 O   0  0  0  0  0  0  0  0  0  0  0  0
   23.2261  -22.2548   -9.5895 O   0  0  0  0  0  0  0  0  0  0  0  0
  2  1  1  0
  3  2  2  0
  4  2  1  0
  5  4  1  0
  6  8  1  0
  6  5  1  0
  6  7  1  6
  8 10  1  0
  9  8  2  0
 10 11  1  0
 10 14  1  0
 11 12  1  0
 12 13  1  0
 14 13  1  0
 15 17  1  0
 14 15  1  1
 16 15  2  0
 18 29  1  0
 18 17  1  0
 18 19  1  6
 20 28  1  0
 20 19  1  0
 21 20  2  0
 22 21  1  0
 22 23  1  0
 23 28  2  0
 24 23  1  0
 24 25  2  0
 25 26  1  0
 26 27  2  0
 28 27  1  0
 29 31  1  0
 30 29  2  0
M  END
$$$$
