EYF.pdb
     RDKit          3D

 33 34  0  0  1  0  0  0  0  0999 V2000
   27.7994  -18.3543  -18.4839 N   0  0  0  0  0  0  0  0  0  0  0  0
   27.9426  -19.4760  -17.6253 C   0  0  1  0  0  0  0  0  0  0  0  0
   29.3563  -19.5534  -17.1628 C   0  0  0  0  0  0  0  0  0  0  0  0
   30.3415  -20.0338  -18.1834 C   0  0  0  0  0  0  0  0  0  0  0  0
   29.7789  -21.1435  -19.0105 C   0  0  0  0  0  0  0  0  0  0  0  0
   29.4262  -22.2517  -18.5364 O   0  0  0  0  0  0  0  0  0  0  0  0
   26.9354  -19.3617  -16.5457 C   0  0  0  0  0  0  0  0  0  0  0  0
   26.8311  -18.2905  -15.9032 O   0  0  0  0  0  0  0  0  0  0  0  0
   29.6420  -20.9335  -20.3659 O   0  0  0  0  0  0  0  0  0  0  0  0
   19.8764  -21.2869  -11.4631 O   0  0  0  0  0  0  0  0  0  0  0  0
   20.8238  -21.1856  -12.4812 C   0  0  0  0  0  0  0  0  0  0  0  0
   21.6503  -22.2384  -12.8110 C   0  0  0  0  0  0  0  0  0  0  0  0
   22.5924  -22.1434  -13.8206 C   0  0  0  0  0  0  0  0  0  0  0  0
   22.7424  -20.9778  -14.5445 C   0  0  0  0  0  0  0  0  0  0  0  0
   23.7543  -20.8772  -15.6275 C   0  0  0  0  0  0  0  0  0  0  0  0
   25.0977  -20.4069  -15.1584 C   0  0  2  0  0  0  0  0  0  0  0  0
   26.0733  -20.4647  -16.2221 N   0  0  0  0  0  0  0  0  0  0  0  0
   25.5188  -21.3259  -14.0665 C   0  0  0  0  0  0  0  0  0  0  0  0
   25.7583  -22.5517  -14.2897 O   0  0  0  0  0  0  0  0  0  0  0  0
   21.9153  -19.9236  -14.2148 C   0  0  0  0  0  0  0  0  0  0  0  0
   20.9708  -20.0187  -13.2026 C   0  0  0  0  0  0  0  0  0  0  0  0
   25.6476  -20.7958  -12.7553 N   0  0  0  0  0  0  0  0  0  0  0  0
   25.8655  -21.6996  -11.6330 C   0  0  1  0  0  0  0  0  0  0  0  0
   27.2295  -21.3988  -11.0949 C   0  0  0  0  0  0  0  0  0  0  0  0
   27.2696  -20.5378   -9.9141 C   0  0  0  0  0  0  0  0  0  0  0  0
   27.2124  -21.0074   -8.6128 C   0  0  0  0  0  0  0  0  0  0  0  0
   27.2578  -20.1767   -7.5182 C   0  0  0  0  0  0  0  0  0  0  0  0
   27.3641  -18.8224   -7.7050 C   0  0  0  0  0  0  0  0  0  0  0  0
   27.4250  -18.3001   -8.9867 C   0  0  0  0  0  0  0  0  0  0  0  0
   27.3765  -19.1729  -10.0771 C   0  0  0  0  0  0  0  0  0  0  0  0
   24.8104  -21.4402  -10.6297 C   0  0  0  0  0  0  0  0  0  0  0  0
   24.6239  -22.2396   -9.5030 O   0  0  0  0  0  0  0  0  0  0  0  0
   24.0371  -20.4682  -10.7742 O   0  0  0  0  0  0  0  0  0  0  0  0
  2  1  1  6
  3  2  1  0
  4  3  1  0
  5  4  1  0
  5  6  2  0
  7  2  1  0
  7  8  2  0
  9  5  1  0
 10 11  1  0
 11 12  2  0
 12 13  1  0
 14 13  2  0
 14 15  1  0
 16 15  1  6
 16 17  1  0
 17  7  1  0
 18 16  1  0
 19 18  2  0
 20 14  1  0
 21 11  1  0
 21 20  2  0
 22 18  1  0
 23 24  1  1
 23 22  1  0
 24 25  1  0
 25 30  1  0
 26 25  2  0
 26 27  1  0
 27 28  2  0
 28 29  1  0
 30 29  2  0
 31 32  1  0
 31 23  1  0
 33 31  2  0
M  END
$$$$
