EYF.pdb
     RDKit          3D

 33 34  0  0  1  0  0  0  0  0999 V2000
   27.6671  -23.1422  -17.5092 N   0  0  0  0  0  0  0  0  0  0  0  0
   27.0921  -21.8774  -17.2166 C   0  0  1  0  0  0  0  0  0  0  0  0
   26.4443  -21.3444  -18.4474 C   0  0  0  0  0  0  0  0  0  0  0  0
   27.3809  -20.9438  -19.5452 C   0  0  0  0  0  0  0  0  0  0  0  0
   26.8760  -21.3760  -20.8833 C   0  0  0  0  0  0  0  0  0  0  0  0
   25.8105  -22.0203  -21.0474 O   0  0  0  0  0  0  0  0  0  0  0  0
   26.1900  -22.0391  -16.0534 C   0  0  0  0  0  0  0  0  0  0  0  0
   25.3869  -23.0009  -16.0180 O   0  0  0  0  0  0  0  0  0  0  0  0
   27.6242  -21.0469  -21.9931 O   0  0  0  0  0  0  0  0  0  0  0  0
   22.6176  -20.9548   -7.9818 O   0  0  0  0  0  0  0  0  0  0  0  0
   23.3978  -20.8163   -9.1291 C   0  0  0  0  0  0  0  0  0  0  0  0
   22.9832  -20.0557  -10.2014 C   0  0  0  0  0  0  0  0  0  0  0  0
   23.7535  -19.9149  -11.3427 C   0  0  0  0  0  0  0  0  0  0  0  0
   24.9804  -20.5374  -11.4527 C   0  0  0  0  0  0  0  0  0  0  0  0
   25.8058  -20.3857  -12.6785 C   0  0  0  0  0  0  0  0  0  0  0  0
   25.3030  -21.1766  -13.8481 C   0  0  2  0  0  0  0  0  0  0  0  0
   26.2212  -21.1063  -14.9610 N   0  0  0  0  0  0  0  0  0  0  0  0
   24.0062  -20.5698  -14.2529 C   0  0  0  0  0  0  0  0  0  0  0  0
   23.9444  -19.3909  -14.7177 O   0  0  0  0  0  0  0  0  0  0  0  0
   25.3960  -21.2990  -10.3796 C   0  0  0  0  0  0  0  0  0  0  0  0
   24.6238  -21.4404   -9.2353 C   0  0  0  0  0  0  0  0  0  0  0  0
   22.8265  -21.3469  -14.1058 N   0  0  0  0  0  0  0  0  0  0  0  0
   21.5250  -20.7219  -14.3040 C   0  0  1  0  0  0  0  0  0  0  0  0
   21.0699  -21.0992  -15.6791 C   0  0  0  0  0  0  0  0  0  0  0  0
   21.6342  -20.3098  -16.7726 C   0  0  0  0  0  0  0  0  0  0  0  0
   21.3120  -18.9855  -17.0163 C   0  0  0  0  0  0  0  0  0  0  0  0
   21.8615  -18.2628  -18.0488 C   0  0  0  0  0  0  0  0  0  0  0  0
   22.7693  -18.8637  -18.8825 C   0  0  0  0  0  0  0  0  0  0  0  0
   23.1268  -20.1872  -18.6828 C   0  0  0  0  0  0  0  0  0  0  0  0
   22.5492  -20.8926  -17.6237 C   0  0  0  0  0  0  0  0  0  0  0  0
   20.6104  -21.2378  -13.2626 C   0  0  0  0  0  0  0  0  0  0  0  0
   20.9421  -22.2989  -12.4216 O   0  0  0  0  0  0  0  0  0  0  0  0
   19.4834  -20.7183  -13.1087 O   0  0  0  0  0  0  0  0  0  0  0  0
  2  1  1  6
  3  2  1  0
  4  3  1  0
  5  4  1  0
  5  6  2  0
  7  2  1  0
  7  8  2  0
  9  5  1  0
 10 11  1  0
 11 12  2  0
 12 13  1  0
 14 13  2  0
 14 15  1  0
 16 15  1  1
 16 17  1  0
 17  7  1  0
 18 16  1  0
 19 18  2  0
 20 14  1  0
 21 11  1  0
 21 20  2  0
 22 18  1  0
 23 24  1  6
 23 22  1  0
 24 25  1  0
 25 30  1  0
 26 25  2  0
 26 27  1  0
 27 28  2  0
 28 29  1  0
 30 29  2  0
 31 32  1  0
 31 23  1  0
 33 31  2  0
M  END
$$$$
