EYF.pdb
     RDKit          3D

 33 34  0  0  1  0  0  0  0  0999 V2000
   29.1275  -21.2307  -16.8967 N   0  0  0  0  0  0  0  0  0  0  0  0
   29.1420  -19.8555  -16.5434 C   0  0  1  0  0  0  0  0  0  0  0  0
   29.2481  -19.0386  -17.7843 C   0  0  0  0  0  0  0  0  0  0  0  0
   28.4797  -19.5548  -18.9617 C   0  0  0  0  0  0  0  0  0  0  0  0
   27.4447  -18.5768  -19.4139 C   0  0  0  0  0  0  0  0  0  0  0  0
   26.2169  -18.8371  -19.4574 O   0  0  0  0  0  0  0  0  0  0  0  0
   27.9477  -19.5805  -15.7122 C   0  0  0  0  0  0  0  0  0  0  0  0
   27.7332  -18.4172  -15.2971 O   0  0  0  0  0  0  0  0  0  0  0  0
   27.8664  -17.3235  -19.8028 O   0  0  0  0  0  0  0  0  0  0  0  0
   19.9521  -20.0100  -12.0111 O   0  0  0  0  0  0  0  0  0  0  0  0
   21.1039  -20.2732  -12.7515 C   0  0  0  0  0  0  0  0  0  0  0  0
   21.5565  -19.4059  -13.7227 C   0  0  0  0  0  0  0  0  0  0  0  0
   22.6991  -19.6622  -14.4607 C   0  0  0  0  0  0  0  0  0  0  0  0
   23.4380  -20.8089  -14.2504 C   0  0  0  0  0  0  0  0  0  0  0  0
   24.6639  -21.0827  -15.0435 C   0  0  0  0  0  0  0  0  0  0  0  0
   25.8958  -20.4249  -14.4995 C   0  0  2  0  0  0  0  0  0  0  0  0
   27.0281  -20.6309  -15.3725 N   0  0  0  0  0  0  0  0  0  0  0  0
   26.1784  -21.0605  -13.1842 C   0  0  0  0  0  0  0  0  0  0  0  0
   26.6196  -22.2474  -13.1046 O   0  0  0  0  0  0  0  0  0  0  0  0
   22.9855  -21.6774  -13.2783 C   0  0  0  0  0  0  0  0  0  0  0  0
   21.8398  -21.4207  -12.5384 C   0  0  0  0  0  0  0  0  0  0  0  0
   25.9406  -20.3021  -12.0072 N   0  0  0  0  0  0  0  0  0  0  0  0
   26.2343  -20.8857  -10.7046 C   0  0  1  0  0  0  0  0  0  0  0  0
   27.3710  -20.1019  -10.1267 C   0  0  0  0  0  0  0  0  0  0  0  0
   28.6736  -20.7653  -10.1466 C   0  0  0  0  0  0  0  0  0  0  0  0
   29.3754  -21.1247   -9.0085 C   0  0  0  0  0  0  0  0  0  0  0  0
   30.5971  -21.7536   -9.0540 C   0  0  0  0  0  0  0  0  0  0  0  0
   31.1593  -22.0448  -10.2703 C   0  0  0  0  0  0  0  0  0  0  0  0
   30.4989  -21.7067  -11.4403 C   0  0  0  0  0  0  0  0  0  0  0  0
   29.2584  -21.0683  -11.3579 C   0  0  0  0  0  0  0  0  0  0  0  0
   25.0155  -20.7785   -9.8738 C   0  0  0  0  0  0  0  0  0  0  0  0
   23.9032  -20.0295  -10.2545 O   0  0  0  0  0  0  0  0  0  0  0  0
   24.9535  -21.3751   -8.7766 O   0  0  0  0  0  0  0  0  0  0  0  0
  2  1  1  6
  3  2  1  0
  4  3  1  0
  5  4  1  0
  5  6  2  0
  7  2  1  0
  7  8  2  0
  9  5  1  0
 10 11  1  0
 11 12  2  0
 12 13  1  0
 14 13  2  0
 14 15  1  0
 16 15  1  6
 16 17  1  0
 17  7  1  0
 18 16  1  0
 19 18  2  0
 20 14  1  0
 21 11  1  0
 21 20  2  0
 22 18  1  0
 23 24  1  1
 23 22  1  0
 24 25  1  0
 25 30  1  0
 26 25  2  0
 26 27  1  0
 27 28  2  0
 28 29  1  0
 30 29  2  0
 31 32  1  0
 31 23  1  0
 33 31  2  0
M  END
$$$$
