EYF.pdb
     RDKit          3D

 33 34  0  0  1  0  0  0  0  0999 V2000
   25.7138  -15.5802  -17.8402 N   0  0  0  0  0  0  0  0  0  0  0  0
   26.3635  -16.7069  -17.2705 C   0  0  1  0  0  0  0  0  0  0  0  0
   27.7800  -16.3514  -16.9780 C   0  0  0  0  0  0  0  0  0  0  0  0
   28.6940  -16.3227  -18.1642 C   0  0  0  0  0  0  0  0  0  0  0  0
   28.5815  -17.5726  -18.9749 C   0  0  0  0  0  0  0  0  0  0  0  0
   27.9579  -17.6397  -20.0629 O   0  0  0  0  0  0  0  0  0  0  0  0
   25.5740  -17.1507  -16.0989 C   0  0  0  0  0  0  0  0  0  0  0  0
   25.2166  -16.3140  -15.2366 O   0  0  0  0  0  0  0  0  0  0  0  0
   29.1976  -18.7096  -18.4977 O   0  0  0  0  0  0  0  0  0  0  0  0
   19.4757  -15.4914  -16.6633 O   0  0  0  0  0  0  0  0  0  0  0  0
   20.3782  -16.4824  -16.2791 C   0  0  0  0  0  0  0  0  0  0  0  0
   21.1629  -17.1455  -17.1983 C   0  0  0  0  0  0  0  0  0  0  0  0
   22.0603  -18.1299  -16.8224 C   0  0  0  0  0  0  0  0  0  0  0  0
   22.2062  -18.4898  -15.4980 C   0  0  0  0  0  0  0  0  0  0  0  0
   23.1696  -19.5469  -15.0962 C   0  0  0  0  0  0  0  0  0  0  0  0
   24.5336  -19.0255  -14.7585 C   0  0  2  0  0  0  0  0  0  0  0  0
   25.2109  -18.5311  -15.9347 N   0  0  0  0  0  0  0  0  0  0  0  0
   25.3059  -20.1687  -14.2012 C   0  0  0  0  0  0  0  0  0  0  0  0
   25.8148  -21.0529  -14.9553 O   0  0  0  0  0  0  0  0  0  0  0  0
   21.4211  -17.8263  -14.5774 C   0  0  0  0  0  0  0  0  0  0  0  0
   20.5211  -16.8393  -14.9540 C   0  0  0  0  0  0  0  0  0  0  0  0
   25.4622  -20.2497  -12.7919 N   0  0  0  0  0  0  0  0  0  0  0  0
   26.3314  -21.2717  -12.2229 C   0  0  1  0  0  0  0  0  0  0  0  0
   27.2641  -20.5718  -11.2845 C   0  0  0  0  0  0  0  0  0  0  0  0
   26.7193  -20.2601   -9.9641 C   0  0  0  0  0  0  0  0  0  0  0  0
   26.4254  -21.2139   -9.0045 C   0  0  0  0  0  0  0  0  0  0  0  0
   25.9188  -20.8942   -7.7670 C   0  0  0  0  0  0  0  0  0  0  0  0
   25.6887  -19.5794   -7.4530 C   0  0  0  0  0  0  0  0  0  0  0  0
   25.9657  -18.5852   -8.3772 C   0  0  0  0  0  0  0  0  0  0  0  0
   26.4801  -18.9451   -9.6259 C   0  0  0  0  0  0  0  0  0  0  0  0
   25.4778  -22.2525  -11.5180 C   0  0  0  0  0  0  0  0  0  0  0  0
   25.9459  -23.4935  -11.0893 O   0  0  0  0  0  0  0  0  0  0  0  0
   24.2794  -21.9827  -11.2843 O   0  0  0  0  0  0  0  0  0  0  0  0
  2  1  1  1
  3  2  1  0
  4  3  1  0
  5  4  1  0
  5  6  2  0
  7  2  1  0
  7  8  2  0
  9  5  1  0
 10 11  1  0
 11 12  2  0
 12 13  1  0
 14 13  2  0
 14 15  1  0
 16 15  1  6
 16 17  1  0
 17  7  1  0
 18 16  1  0
 19 18  2  0
 20 14  1  0
 21 11  1  0
 21 20  2  0
 22 18  1  0
 23 24  1  1
 23 22  1  0
 24 25  1  0
 25 30  1  0
 26 25  2  0
 26 27  1  0
 27 28  2  0
 28 29  1  0
 30 29  2  0
 31 32  1  0
 31 23  1  0
 33 31  2  0
M  END
$$$$
