EYF.pdb
     RDKit          3D

 33 34  0  0  1  0  0  0  0  0999 V2000
   23.0146  -20.7796  -14.9545 N   0  0  0  0  0  0  0  0  0  0  0  0
   22.8666  -20.4957  -13.5712 C   0  0  1  0  0  0  0  0  0  0  0  0
   21.6184  -21.1401  -13.0762 C   0  0  0  0  0  0  0  0  0  0  0  0
   20.3432  -20.4652  -13.4781 C   0  0  0  0  0  0  0  0  0  0  0  0
   19.7711  -21.0666  -14.7203 C   0  0  0  0  0  0  0  0  0  0  0  0
   20.3366  -21.9780  -15.3735 O   0  0  0  0  0  0  0  0  0  0  0  0
   24.1062  -20.9168  -12.8790 C   0  0  0  0  0  0  0  0  0  0  0  0
   24.5411  -22.0820  -13.0358 O   0  0  0  0  0  0  0  0  0  0  0  0
   18.5574  -20.5912  -15.1683 O   0  0  0  0  0  0  0  0  0  0  0  0
   28.9660  -20.0136  -16.9557 O   0  0  0  0  0  0  0  0  0  0  0  0
   28.5243  -19.8988  -15.6381 C   0  0  0  0  0  0  0  0  0  0  0  0
   28.8294  -20.8470  -14.6851 C   0  0  0  0  0  0  0  0  0  0  0  0
   28.3935  -20.7381  -13.3759 C   0  0  0  0  0  0  0  0  0  0  0  0
   27.6281  -19.6640  -12.9692 C   0  0  0  0  0  0  0  0  0  0  0  0
   27.1607  -19.5488  -11.5638 C   0  0  0  0  0  0  0  0  0  0  0  0
   25.9711  -20.4048  -11.2498 C   0  0  2  0  0  0  0  0  0  0  0  0
   24.8202  -20.0066  -12.0268 N   0  0  0  0  0  0  0  0  0  0  0  0
   25.6696  -20.2103   -9.8058 C   0  0  0  0  0  0  0  0  0  0  0  0
   24.7124  -19.4702   -9.4241 O   0  0  0  0  0  0  0  0  0  0  0  0
   27.3224  -18.7146  -13.9228 C   0  0  0  0  0  0  0  0  0  0  0  0
   27.7592  -18.8236  -15.2355 C   0  0  0  0  0  0  0  0  0  0  0  0
   26.4854  -20.8778   -8.8539 N   0  0  0  0  0  0  0  0  0  0  0  0
   26.3248  -20.5813   -7.4362 C   0  0  1  0  0  0  0  0  0  0  0  0
   27.1614  -21.5733   -6.6902 C   0  0  0  0  0  0  0  0  0  0  0  0
   28.1570  -21.0071   -5.7817 C   0  0  0  0  0  0  0  0  0  0  0  0
   29.4749  -20.7672   -6.1317 C   0  0  0  0  0  0  0  0  0  0  0  0
   30.3912  -20.2281   -5.2599 C   0  0  0  0  0  0  0  0  0  0  0  0
   29.9999  -19.9083   -3.9852 C   0  0  0  0  0  0  0  0  0  0  0  0
   28.6924  -20.1280   -3.5834 C   0  0  0  0  0  0  0  0  0  0  0  0
   27.7868  -20.6775   -4.4951 C   0  0  0  0  0  0  0  0  0  0  0  0
   26.7841  -19.1942   -7.2076 C   0  0  0  0  0  0  0  0  0  0  0  0
   26.3024  -18.3986   -6.1693 O   0  0  0  0  0  0  0  0  0  0  0  0
   27.6407  -18.6876   -7.9646 O   0  0  0  0  0  0  0  0  0  0  0  0
  2  1  1  6
  3  2  1  0
  4  3  1  0
  5  4  1  0
  5  6  2  0
  7  2  1  0
  7  8  2  0
  9  5  1  0
 10 11  1  0
 11 12  2  0
 12 13  1  0
 14 13  2  0
 14 15  1  0
 16 15  1  6
 16 17  1  0
 17  7  1  0
 18 16  1  0
 19 18  2  0
 20 14  1  0
 21 11  1  0
 21 20  2  0
 22 18  1  0
 23 24  1  1
 23 22  1  0
 24 25  1  0
 25 30  1  0
 26 25  2  0
 26 27  1  0
 27 28  2  0
 28 29  1  0
 30 29  2  0
 31 32  1  0
 31 23  1  0
 33 31  2  0
M  END
$$$$
