EYF.pdb
     RDKit          3D

 33 34  0  0  1  0  0  0  0  0999 V2000
   29.0580  -19.7681  -17.3263 N   0  0  0  0  0  0  0  0  0  0  0  0
   29.0023  -18.4659  -16.7633 C   0  0  1  0  0  0  0  0  0  0  0  0
   28.6782  -17.4876  -17.8387 C   0  0  0  0  0  0  0  0  0  0  0  0
   29.5565  -17.5491  -19.0502 C   0  0  0  0  0  0  0  0  0  0  0  0
   29.3147  -18.7930  -19.8417 C   0  0  0  0  0  0  0  0  0  0  0  0
   30.2164  -19.6186  -20.1287 O   0  0  0  0  0  0  0  0  0  0  0  0
   28.0470  -18.4931  -15.6321 C   0  0  0  0  0  0  0  0  0  0  0  0
   27.5952  -17.4175  -15.1735 O   0  0  0  0  0  0  0  0  0  0  0  0
   28.0308  -19.0421  -20.2771 O   0  0  0  0  0  0  0  0  0  0  0  0
   20.4426  -20.7196  -12.0170 O   0  0  0  0  0  0  0  0  0  0  0  0
   21.6227  -20.6223  -12.7534 C   0  0  0  0  0  0  0  0  0  0  0  0
   22.0379  -19.4290  -13.3048 C   0  0  0  0  0  0  0  0  0  0  0  0
   23.2082  -19.3267  -14.0366 C   0  0  0  0  0  0  0  0  0  0  0  0
   24.0140  -20.4277  -14.2450 C   0  0  0  0  0  0  0  0  0  0  0  0
   25.2697  -20.3164  -15.0311 C   0  0  0  0  0  0  0  0  0  0  0  0
   26.4482  -19.8579  -14.2266 C   0  0  2  0  0  0  0  0  0  0  0  0
   27.6292  -19.7385  -15.0498 N   0  0  0  0  0  0  0  0  0  0  0  0
   26.6881  -20.8934  -13.1854 C   0  0  0  0  0  0  0  0  0  0  0  0
   27.1130  -22.0498  -13.4886 O   0  0  0  0  0  0  0  0  0  0  0  0
   23.5989  -21.6225  -13.6933 C   0  0  0  0  0  0  0  0  0  0  0  0
   22.4255  -21.7253  -12.9596 C   0  0  0  0  0  0  0  0  0  0  0  0
   26.4280  -20.5559  -11.8306 N   0  0  0  0  0  0  0  0  0  0  0  0
   26.0832  -21.6068  -10.8817 C   0  0  1  0  0  0  0  0  0  0  0  0
   27.3091  -21.8693  -10.0639 C   0  0  0  0  0  0  0  0  0  0  0  0
   27.5742  -20.9102   -8.9929 C   0  0  0  0  0  0  0  0  0  0  0  0
   26.6108  -20.0843   -8.4391 C   0  0  0  0  0  0  0  0  0  0  0  0
   26.8846  -19.1940   -7.4277 C   0  0  0  0  0  0  0  0  0  0  0  0
   28.1612  -19.1074   -6.9346 C   0  0  0  0  0  0  0  0  0  0  0  0
   29.1630  -19.9114   -7.4535 C   0  0  0  0  0  0  0  0  0  0  0  0
   28.8502  -20.8056   -8.4810 C   0  0  0  0  0  0  0  0  0  0  0  0
   24.9630  -21.1173  -10.0494 C   0  0  0  0  0  0  0  0  0  0  0  0
   24.4573  -19.8220  -10.1466 O   0  0  0  0  0  0  0  0  0  0  0  0
   24.4280  -21.8777   -9.2132 O   0  0  0  0  0  0  0  0  0  0  0  0
  2  1  1  6
  3  2  1  0
  4  3  1  0
  5  4  1  0
  5  6  2  0
  7  2  1  0
  7  8  2  0
  9  5  1  0
 10 11  1  0
 11 12  2  0
 12 13  1  0
 14 13  2  0
 14 15  1  0
 16 15  1  6
 16 17  1  0
 17  7  1  0
 18 16  1  0
 19 18  2  0
 20 14  1  0
 21 11  1  0
 21 20  2  0
 22 18  1  0
 23 24  1  1
 23 22  1  0
 24 25  1  0
 25 30  1  0
 26 25  2  0
 26 27  1  0
 27 28  2  0
 28 29  1  0
 30 29  2  0
 31 32  1  0
 31 23  1  0
 33 31  2  0
M  END
$$$$
