EYF.pdb
     RDKit          3D

 33 34  0  0  1  0  0  0  0  0999 V2000
   27.1674   -9.0529  -21.1739 N   0  0  0  0  0  0  0  0  0  0  0  0
   27.2026   -8.7390  -19.7897 C   0  0  1  0  0  0  0  0  0  0  0  0
   27.7767   -7.3754  -19.6175 C   0  0  0  0  0  0  0  0  0  0  0  0
   27.0667   -6.2811  -20.3533 C   0  0  0  0  0  0  0  0  0  0  0  0
   27.6859   -4.9479  -20.0864 C   0  0  0  0  0  0  0  0  0  0  0  0
   28.8232   -4.6157  -20.5027 O   0  0  0  0  0  0  0  0  0  0  0  0
   25.8387   -8.9185  -19.2414 C   0  0  0  0  0  0  0  0  0  0  0  0
   24.8428   -8.7527  -19.9844 O   0  0  0  0  0  0  0  0  0  0  0  0
   26.9652   -4.0381  -19.3429 O   0  0  0  0  0  0  0  0  0  0  0  0
   19.1905  -11.9549  -14.2549 O   0  0  0  0  0  0  0  0  0  0  0  0
   20.4468  -11.6480  -14.7761 C   0  0  0  0  0  0  0  0  0  0  0  0
   20.7093  -11.7194  -16.1276 C   0  0  0  0  0  0  0  0  0  0  0  0
   21.9544  -11.4160  -16.6503 C   0  0  0  0  0  0  0  0  0  0  0  0
   22.9932  -11.0254  -15.8296 C   0  0  0  0  0  0  0  0  0  0  0  0
   24.3291  -10.7003  -16.3922 C   0  0  0  0  0  0  0  0  0  0  0  0
   24.3293   -9.5079  -17.3002 C   0  0  2  0  0  0  0  0  0  0  0  0
   25.6391   -9.2806  -17.8653 N   0  0  0  0  0  0  0  0  0  0  0  0
   23.9517   -8.3333  -16.4686 C   0  0  0  0  0  0  0  0  0  0  0  0
   24.8125   -7.7093  -15.7762 O   0  0  0  0  0  0  0  0  0  0  0  0
   22.7311  -10.9536  -14.4767 C   0  0  0  0  0  0  0  0  0  0  0  0
   21.4827  -11.2580  -13.9524 C   0  0  0  0  0  0  0  0  0  0  0  0
   22.5925   -7.9216  -16.4662 N   0  0  0  0  0  0  0  0  0  0  0  0
   22.2121   -6.7024  -15.7643 C   0  0  1  0  0  0  0  0  0  0  0  0
   22.9475   -5.5775  -16.4231 C   0  0  0  0  0  0  0  0  0  0  0  0
   22.5377   -4.2321  -16.0239 C   0  0  0  0  0  0  0  0  0  0  0  0
   21.9010   -3.3363  -16.8660 C   0  0  0  0  0  0  0  0  0  0  0  0
   21.5203   -2.0777  -16.4644 C   0  0  0  0  0  0  0  0  0  0  0  0
   21.7743   -1.6761  -15.1781 C   0  0  0  0  0  0  0  0  0  0  0  0
   22.4090   -2.5339  -14.2945 C   0  0  0  0  0  0  0  0  0  0  0  0
   22.7823   -3.8064  -14.7356 C   0  0  0  0  0  0  0  0  0  0  0  0
   20.7465   -6.5463  -15.8871 C   0  0  0  0  0  0  0  0  0  0  0  0
   19.9624   -5.9558  -14.8973 O   0  0  0  0  0  0  0  0  0  0  0  0
   20.1592   -6.9540  -16.9129 O   0  0  0  0  0  0  0  0  0  0  0  0
  2  1  1  6
  3  2  1  0
  4  3  1  0
  5  4  1  0
  5  6  2  0
  7  2  1  0
  7  8  2  0
  9  5  1  0
 10 11  1  0
 11 12  2  0
 12 13  1  0
 14 13  2  0
 14 15  1  0
 16 15  1  1
 16 17  1  0
 17  7  1  0
 18 16  1  0
 19 18  2  0
 20 14  1  0
 21 11  1  0
 21 20  2  0
 22 18  1  0
 23 24  1  6
 23 22  1  0
 24 25  1  0
 25 30  1  0
 26 25  2  0
 26 27  1  0
 27 28  2  0
 28 29  1  0
 30 29  2  0
 31 32  1  0
 31 23  1  0
 33 31  2  0
M  END
$$$$
