EYF.pdb
     RDKit          3D

 33 34  0  0  1  0  0  0  0  0999 V2000
   20.9839  -19.5034  -18.7731 N   0  0  0  0  0  0  0  0  0  0  0  0
   20.9251  -18.1219  -19.0954 C   0  0  1  0  0  0  0  0  0  0  0  0
   20.4954  -17.9742  -20.5139 C   0  0  0  0  0  0  0  0  0  0  0  0
   21.4441  -18.5245  -21.5338 C   0  0  0  0  0  0  0  0  0  0  0  0
   22.5956  -17.6017  -21.7675 C   0  0  0  0  0  0  0  0  0  0  0  0
   23.4829  -17.8053  -22.6326 O   0  0  0  0  0  0  0  0  0  0  0  0
   20.0519  -17.4538  -18.1033 C   0  0  0  0  0  0  0  0  0  0  0  0
   18.9796  -17.9994  -17.7512 O   0  0  0  0  0  0  0  0  0  0  0  0
   22.6831  -16.4679  -20.9887 O   0  0  0  0  0  0  0  0  0  0  0  0
   20.5228  -19.8550  -11.9603 O   0  0  0  0  0  0  0  0  0  0  0  0
   20.4625  -18.7272  -12.7781 C   0  0  0  0  0  0  0  0  0  0  0  0
   19.5272  -17.7345  -12.5777 C   0  0  0  0  0  0  0  0  0  0  0  0
   19.4627  -16.6131  -13.3864 C   0  0  0  0  0  0  0  0  0  0  0  0
   20.3422  -16.4432  -14.4364 C   0  0  0  0  0  0  0  0  0  0  0  0
   20.2716  -15.2391  -15.3037 C   0  0  0  0  0  0  0  0  0  0  0  0
   19.5700  -15.4730  -16.6073 C   0  0  2  0  0  0  0  0  0  0  0  0
   20.4162  -16.1847  -17.5367 N   0  0  0  0  0  0  0  0  0  0  0  0
   19.2523  -14.1335  -17.1719 C   0  0  0  0  0  0  0  0  0  0  0  0
   20.1003  -13.4882  -17.8605 O   0  0  0  0  0  0  0  0  0  0  0  0
   21.2788  -17.4365  -14.6374 C   0  0  0  0  0  0  0  0  0  0  0  0
   21.3435  -18.5610  -13.8268 C   0  0  0  0  0  0  0  0  0  0  0  0
   17.9659  -13.5869  -16.9201 N   0  0  0  0  0  0  0  0  0  0  0  0
   17.6042  -12.3018  -17.5046 C   0  0  1  0  0  0  0  0  0  0  0  0
   17.5575  -12.4998  -18.9875 C   0  0  0  0  0  0  0  0  0  0  0  0
   17.1347  -11.3390  -19.7692 C   0  0  0  0  0  0  0  0  0  0  0  0
   17.9930  -10.3392  -20.1942 C   0  0  0  0  0  0  0  0  0  0  0  0
   17.5712   -9.2597  -20.9339 C   0  0  0  0  0  0  0  0  0  0  0  0
   16.2472   -9.1530  -21.2742 C   0  0  0  0  0  0  0  0  0  0  0  0
   15.3460  -10.1262  -20.8743 C   0  0  0  0  0  0  0  0  0  0  0  0
   15.8084  -11.2105  -20.1235 C   0  0  0  0  0  0  0  0  0  0  0  0
   16.2852  -11.9112  -16.9615 C   0  0  0  0  0  0  0  0  0  0  0  0
   15.8904  -10.5825  -16.8141 O   0  0  0  0  0  0  0  0  0  0  0  0
   15.4692  -12.7914  -16.6105 O   0  0  0  0  0  0  0  0  0  0  0  0
  2  1  1  1
  3  2  1  0
  4  3  1  0
  5  4  1  0
  5  6  2  0
  7  2  1  0
  7  8  2  0
  9  5  1  0
 10 11  1  0
 11 12  2  0
 12 13  1  0
 14 13  2  0
 14 15  1  0
 16 15  1  1
 16 17  1  0
 17  7  1  0
 18 16  1  0
 19 18  2  0
 20 14  1  0
 21 11  1  0
 21 20  2  0
 22 18  1  0
 23 24  1  6
 23 22  1  0
 24 25  1  0
 25 30  1  0
 26 25  2  0
 26 27  1  0
 27 28  2  0
 28 29  1  0
 30 29  2  0
 31 32  1  0
 31 23  1  0
 33 31  2  0
M  END
$$$$
