EYF.pdb
     RDKit          3D

 33 34  0  0  1  0  0  0  0  0999 V2000
   26.5884  -21.0053  -15.6286 N   0  0  0  0  0  0  0  0  0  0  0  0
   27.4340  -20.2584  -14.7666 C   0  0  1  0  0  0  0  0  0  0  0  0
   27.9620  -19.0800  -15.5090 C   0  0  0  0  0  0  0  0  0  0  0  0
   27.7492  -19.1057  -16.9913 C   0  0  0  0  0  0  0  0  0  0  0  0
   28.7565  -18.2647  -17.7056 C   0  0  0  0  0  0  0  0  0  0  0  0
   28.4768  -17.1798  -18.2730 O   0  0  0  0  0  0  0  0  0  0  0  0
   26.6714  -19.9355  -13.5390 C   0  0  0  0  0  0  0  0  0  0  0  0
   26.1179  -18.8163  -13.4269 O   0  0  0  0  0  0  0  0  0  0  0  0
   30.0609  -18.7088  -17.7401 O   0  0  0  0  0  0  0  0  0  0  0  0
   20.4510  -19.8334  -14.8722 O   0  0  0  0  0  0  0  0  0  0  0  0
   21.4502  -20.2434  -13.9902 C   0  0  0  0  0  0  0  0  0  0  0  0
   22.4141  -21.1572  -14.3593 C   0  0  0  0  0  0  0  0  0  0  0  0
   23.4080  -21.5677  -13.4879 C   0  0  0  0  0  0  0  0  0  0  0  0
   23.4736  -21.0724  -12.2013 C   0  0  0  0  0  0  0  0  0  0  0  0
   24.5408  -21.5142  -11.2671 C   0  0  0  0  0  0  0  0  0  0  0  0
   25.7617  -20.6451  -11.2889 C   0  0  2  0  0  0  0  0  0  0  0  0
   26.5565  -20.8888  -12.4702 N   0  0  0  0  0  0  0  0  0  0  0  0
   26.5633  -20.9983  -10.0862 C   0  0  0  0  0  0  0  0  0  0  0  0
   27.3903  -21.9603  -10.1020 O   0  0  0  0  0  0  0  0  0  0  0  0
   22.5091  -20.1575  -11.8312 C   0  0  0  0  0  0  0  0  0  0  0  0
   21.5123  -19.7459  -12.7047 C   0  0  0  0  0  0  0  0  0  0  0  0
   26.3805  -20.2273   -8.9075 N   0  0  0  0  0  0  0  0  0  0  0  0
   27.0872  -20.5995   -7.6885 C   0  0  1  0  0  0  0  0  0  0  0  0
   27.9077  -19.4141   -7.2862 C   0  0  0  0  0  0  0  0  0  0  0  0
   28.5388  -19.4970   -5.9701 C   0  0  0  0  0  0  0  0  0  0  0  0
   28.2034  -18.6855   -4.8996 C   0  0  0  0  0  0  0  0  0  0  0  0
   28.8083  -18.7874   -3.6691 C   0  0  0  0  0  0  0  0  0  0  0  0
   29.7878  -19.7275   -3.4764 C   0  0  0  0  0  0  0  0  0  0  0  0
   30.1614  -20.5651   -4.5147 C   0  0  0  0  0  0  0  0  0  0  0  0
   29.5259  -20.4347   -5.7526 C   0  0  0  0  0  0  0  0  0  0  0  0
   26.0766  -20.9404   -6.6640 C   0  0  0  0  0  0  0  0  0  0  0  0
   26.3780  -21.6749   -5.5182 O   0  0  0  0  0  0  0  0  0  0  0  0
   24.8919  -20.5668   -6.8072 O   0  0  0  0  0  0  0  0  0  0  0  0
  2  1  1  6
  3  2  1  0
  4  3  1  0
  5  4  1  0
  5  6  2  0
  7  2  1  0
  7  8  2  0
  9  5  1  0
 10 11  1  0
 11 12  2  0
 12 13  1  0
 14 13  2  0
 14 15  1  0
 16 15  1  6
 16 17  1  0
 17  7  1  0
 18 16  1  0
 19 18  2  0
 20 14  1  0
 21 11  1  0
 21 20  2  0
 22 18  1  0
 23 24  1  1
 23 22  1  0
 24 25  1  0
 25 30  1  0
 26 25  2  0
 26 27  1  0
 27 28  2  0
 28 29  1  0
 30 29  2  0
 31 32  1  0
 31 23  1  0
 33 31  2  0
M  END
$$$$
