EYF.pdb
     RDKit          3D

 33 34  0  0  1  0  0  0  0  0999 V2000
   18.1084  -11.0744  -17.1275 N   0  0  0  0  0  0  0  0  0  0  0  0
   19.4955  -11.3762  -17.0979 C   0  0  1  0  0  0  0  0  0  0  0  0
   19.7632  -12.5114  -18.0242 C   0  0  0  0  0  0  0  0  0  0  0  0
   18.9961  -13.7663  -17.7422 C   0  0  0  0  0  0  0  0  0  0  0  0
   19.6933  -14.6220  -16.7353 C   0  0  0  0  0  0  0  0  0  0  0  0
   20.8921  -14.9809  -16.8415 O   0  0  0  0  0  0  0  0  0  0  0  0
   20.2440  -10.1338  -17.3964 C   0  0  0  0  0  0  0  0  0  0  0  0
   21.4894  -10.1756  -17.5331 O   0  0  0  0  0  0  0  0  0  0  0  0
   18.9770  -15.0364  -15.6330 O   0  0  0  0  0  0  0  0  0  0  0  0
   19.5055   -8.5120  -24.1761 O   0  0  0  0  0  0  0  0  0  0  0  0
   19.4902   -8.0876  -22.8479 C   0  0  0  0  0  0  0  0  0  0  0  0
   20.5105   -7.3276  -22.3169 C   0  0  0  0  0  0  0  0  0  0  0  0
   20.5005   -6.9038  -20.9993 C   0  0  0  0  0  0  0  0  0  0  0  0
   19.4569   -7.2290  -20.1566 C   0  0  0  0  0  0  0  0  0  0  0  0
   19.4478   -6.7736  -18.7426 C   0  0  0  0  0  0  0  0  0  0  0  0
   20.2521   -7.6413  -17.8225 C   0  0  2  0  0  0  0  0  0  0  0  0
   19.5619   -8.8764  -17.5314 N   0  0  0  0  0  0  0  0  0  0  0  0
   20.4307   -6.8784  -16.5576 C   0  0  0  0  0  0  0  0  0  0  0  0
   19.4386   -6.5474  -15.8394 O   0  0  0  0  0  0  0  0  0  0  0  0
   18.4353   -7.9896  -20.6876 C   0  0  0  0  0  0  0  0  0  0  0  0
   18.4452   -8.4148  -22.0086 C   0  0  0  0  0  0  0  0  0  0  0  0
   21.7497   -6.5245  -16.1677 N   0  0  0  0  0  0  0  0  0  0  0  0
   21.9520   -5.6968  -14.9854 C   0  0  1  0  0  0  0  0  0  0  0  0
   22.4966   -6.5941  -13.9183 C   0  0  0  0  0  0  0  0  0  0  0  0
   23.4699   -7.5901  -14.3631 C   0  0  0  0  0  0  0  0  0  0  0  0
   24.5553   -7.3022  -15.1731 C   0  0  0  0  0  0  0  0  0  0  0  0
   25.4604   -8.2566  -15.5732 C   0  0  0  0  0  0  0  0  0  0  0  0
   25.2962   -9.5543  -15.1616 C   0  0  0  0  0  0  0  0  0  0  0  0
   24.2268   -9.8964  -14.3501 C   0  0  0  0  0  0  0  0  0  0  0  0
   23.3255   -8.9013  -13.9618 C   0  0  0  0  0  0  0  0  0  0  0  0
   22.9063   -4.6241  -15.3400 C   0  0  0  0  0  0  0  0  0  0  0  0
   23.5152   -4.5354  -16.5908 O   0  0  0  0  0  0  0  0  0  0  0  0
   23.1984   -3.7456  -14.4995 O   0  0  0  0  0  0  0  0  0  0  0  0
  2  1  1  6
  3  2  1  0
  4  3  1  0
  5  4  1  0
  5  6  2  0
  7  2  1  0
  7  8  2  0
  9  5  1  0
 10 11  1  0
 11 12  2  0
 12 13  1  0
 14 13  2  0
 14 15  1  0
 16 15  1  6
 16 17  1  0
 17  7  1  0
 18 16  1  0
 19 18  2  0
 20 14  1  0
 21 11  1  0
 21 20  2  0
 22 18  1  0
 23 24  1  1
 23 22  1  0
 24 25  1  0
 25 30  1  0
 26 25  2  0
 26 27  1  0
 27 28  2  0
 28 29  1  0
 30 29  2  0
 31 32  1  0
 31 23  1  0
 33 31  2  0
M  END
$$$$
