EYF.pdb
     RDKit          3D

 33 34  0  0  1  0  0  0  0  0999 V2000
   24.6466  -18.8587  -15.2838 N   0  0  0  0  0  0  0  0  0  0  0  0
   25.9289  -18.6467  -14.7123 C   0  0  1  0  0  0  0  0  0  0  0  0
   26.3815  -17.2657  -15.0387 C   0  0  0  0  0  0  0  0  0  0  0  0
   27.8308  -17.1304  -15.3911 C   0  0  0  0  0  0  0  0  0  0  0  0
   28.0929  -17.5361  -16.8049 C   0  0  0  0  0  0  0  0  0  0  0  0
   29.2407  -17.7689  -17.2581 O   0  0  0  0  0  0  0  0  0  0  0  0
   25.8454  -18.9534  -13.2659 C   0  0  0  0  0  0  0  0  0  0  0  0
   25.1630  -18.2194  -12.5129 O   0  0  0  0  0  0  0  0  0  0  0  0
   27.0127  -17.6597  -17.6521 O   0  0  0  0  0  0  0  0  0  0  0  0
   20.1931  -21.4694  -11.7905 O   0  0  0  0  0  0  0  0  0  0  0  0
   21.5738  -21.5213  -11.6023 C   0  0  0  0  0  0  0  0  0  0  0  0
   22.1724  -21.0045  -10.4732 C   0  0  0  0  0  0  0  0  0  0  0  0
   23.5423  -21.0532  -10.2813 C   0  0  0  0  0  0  0  0  0  0  0  0
   24.3714  -21.6276  -11.2234 C   0  0  0  0  0  0  0  0  0  0  0  0
   25.8415  -21.6787  -11.0162 C   0  0  0  0  0  0  0  0  0  0  0  0
   26.5375  -20.3815  -11.2973 C   0  0  2  0  0  0  0  0  0  0  0  0
   26.5379  -20.0832  -12.7107 N   0  0  0  0  0  0  0  0  0  0  0  0
   27.9436  -20.5383  -10.8365 C   0  0  0  0  0  0  0  0  0  0  0  0
   28.9224  -20.3090  -11.6104 O   0  0  0  0  0  0  0  0  0  0  0  0
   23.7727  -22.1451  -12.3539 C   0  0  0  0  0  0  0  0  0  0  0  0
   22.3993  -22.0963  -12.5466 C   0  0  0  0  0  0  0  0  0  0  0  0
   28.1687  -20.9552   -9.4976 N   0  0  0  0  0  0  0  0  0  0  0  0
   29.5303  -21.0100   -8.9813 C   0  0  1  0  0  0  0  0  0  0  0  0
   29.4322  -21.4326   -7.5488 C   0  0  0  0  0  0  0  0  0  0  0  0
   28.8301  -20.4585   -6.6401 C   0  0  0  0  0  0  0  0  0  0  0  0
   29.3717  -19.2124   -6.3736 C   0  0  0  0  0  0  0  0  0  0  0  0
   28.7824  -18.3112   -5.5188 C   0  0  0  0  0  0  0  0  0  0  0  0
   27.6076  -18.6444   -4.8948 C   0  0  0  0  0  0  0  0  0  0  0  0
   27.0232  -19.8789   -5.1266 C   0  0  0  0  0  0  0  0  0  0  0  0
   27.6487  -20.7711   -6.0016 C   0  0  0  0  0  0  0  0  0  0  0  0
   30.2842  -21.9905   -9.7922 C   0  0  0  0  0  0  0  0  0  0  0  0
   31.6743  -22.0893   -9.7612 O   0  0  0  0  0  0  0  0  0  0  0  0
   29.6728  -22.7769  -10.5482 O   0  0  0  0  0  0  0  0  0  0  0  0
  2  1  1  1
  3  2  1  0
  4  3  1  0
  5  4  1  0
  5  6  2  0
  7  2  1  0
  7  8  2  0
  9  5  1  0
 10 11  1  0
 11 12  2  0
 12 13  1  0
 14 13  2  0
 14 15  1  0
 16 15  1  6
 16 17  1  0
 17  7  1  0
 18 16  1  0
 19 18  2  0
 20 14  1  0
 21 11  1  0
 21 20  2  0
 22 18  1  0
 23 24  1  1
 23 22  1  0
 24 25  1  0
 25 30  1  0
 26 25  2  0
 26 27  1  0
 27 28  2  0
 28 29  1  0
 30 29  2  0
 31 32  1  0
 31 23  1  0
 33 31  2  0
M  END
$$$$
