EYF.pdb
     RDKit          3D

 33 34  0  0  1  0  0  0  0  0999 V2000
   23.0593  -11.8992  -20.5494 N   0  0  0  0  0  0  0  0  0  0  0  0
   22.3755  -11.5415  -19.3576 C   0  0  1  0  0  0  0  0  0  0  0  0
   23.1536  -12.0345  -18.1872 C   0  0  0  0  0  0  0  0  0  0  0  0
   23.2425  -13.5237  -18.0551 C   0  0  0  0  0  0  0  0  0  0  0  0
   23.9143  -13.9234  -16.7819 C   0  0  0  0  0  0  0  0  0  0  0  0
   23.3551  -13.8767  -15.6584 O   0  0  0  0  0  0  0  0  0  0  0  0
   22.1395  -10.0798  -19.3825 C   0  0  0  0  0  0  0  0  0  0  0  0
   22.9221   -9.3341  -20.0172 O   0  0  0  0  0  0  0  0  0  0  0  0
   25.2178  -14.3661  -16.8508 O   0  0  0  0  0  0  0  0  0  0  0  0
   18.1892   -2.2370  -19.6911 O   0  0  0  0  0  0  0  0  0  0  0  0
   18.5107   -3.5930  -19.6427 C   0  0  0  0  0  0  0  0  0  0  0  0
   19.4679   -4.1420  -20.4689 C   0  0  0  0  0  0  0  0  0  0  0  0
   19.7908   -5.4872  -20.4252 C   0  0  0  0  0  0  0  0  0  0  0  0
   19.1602   -6.3406  -19.5427 C   0  0  0  0  0  0  0  0  0  0  0  0
   19.5077   -7.7842  -19.4972 C   0  0  0  0  0  0  0  0  0  0  0  0
   20.7429   -8.0843  -18.7031 C   0  0  2  0  0  0  0  0  0  0  0  0
   21.0234   -9.5012  -18.6869 N   0  0  0  0  0  0  0  0  0  0  0  0
   20.4816   -7.6279  -17.3112 C   0  0  0  0  0  0  0  0  0  0  0  0
   19.6596   -8.2353  -16.5596 O   0  0  0  0  0  0  0  0  0  0  0  0
   18.2020   -5.7916  -18.7152 C   0  0  0  0  0  0  0  0  0  0  0  0
   17.8779   -4.4429  -18.7590 C   0  0  0  0  0  0  0  0  0  0  0  0
   21.1793   -6.4851  -16.8373 N   0  0  0  0  0  0  0  0  0  0  0  0
   20.9381   -6.0067  -15.4821 C   0  0  1  0  0  0  0  0  0  0  0  0
   22.2180   -6.1857  -14.7269 C   0  0  0  0  0  0  0  0  0  0  0  0
   22.7017   -7.5608  -14.6159 C   0  0  0  0  0  0  0  0  0  0  0  0
   23.5905   -8.1417  -15.5045 C   0  0  0  0  0  0  0  0  0  0  0  0
   24.0350   -9.4362  -15.3747 C   0  0  0  0  0  0  0  0  0  0  0  0
   23.5892  -10.1989  -14.3260 C   0  0  0  0  0  0  0  0  0  0  0  0
   22.6990   -9.6662  -13.4079 C   0  0  0  0  0  0  0  0  0  0  0  0
   22.2675   -8.3467  -13.5695 C   0  0  0  0  0  0  0  0  0  0  0  0
   20.5452   -4.5834  -15.5663 C   0  0  0  0  0  0  0  0  0  0  0  0
   20.5124   -3.8768  -16.7674 O   0  0  0  0  0  0  0  0  0  0  0  0
   20.2244   -3.9621  -14.5296 O   0  0  0  0  0  0  0  0  0  0  0  0
  2  1  1  6
  3  2  1  0
  4  3  1  0
  5  4  1  0
  5  6  2  0
  7  2  1  0
  7  8  2  0
  9  5  1  0
 10 11  1  0
 11 12  2  0
 12 13  1  0
 14 13  2  0
 14 15  1  0
 16 15  1  6
 16 17  1  0
 17  7  1  0
 18 16  1  0
 19 18  2  0
 20 14  1  0
 21 11  1  0
 21 20  2  0
 22 18  1  0
 23 24  1  1
 23 22  1  0
 24 25  1  0
 25 30  1  0
 26 25  2  0
 26 27  1  0
 27 28  2  0
 28 29  1  0
 30 29  2  0
 31 32  1  0
 31 23  1  0
 33 31  2  0
M  END
$$$$
