EYF.pdb
     RDKit          3D

 33 34  0  0  1  0  0  0  0  0999 V2000
   27.7443   72.8625  -16.1689 N   0  0  0  0  0  0  0  0  0  0  0  0
   27.2721   74.0863  -16.7123 C   0  0  1  0  0  0  0  0  0  0  0  0
   26.5812   73.8080  -18.0021 C   0  0  0  0  0  0  0  0  0  0  0  0
   26.0580   75.0113  -18.7242 C   0  0  0  0  0  0  0  0  0  0  0  0
   24.5674   75.0867  -18.6582 C   0  0  0  0  0  0  0  0  0  0  0  0
   23.9457   75.9235  -17.9579 O   0  0  0  0  0  0  0  0  0  0  0  0
   26.4391   74.7551  -15.6867 C   0  0  0  0  0  0  0  0  0  0  0  0
   25.5044   75.5116  -16.0410 O   0  0  0  0  0  0  0  0  0  0  0  0
   23.8413   74.1869  -19.4085 O   0  0  0  0  0  0  0  0  0  0  0  0
   33.4612   77.1819  -15.9252 O   0  0  0  0  0  0  0  0  0  0  0  0
   32.3801   76.4877  -15.3832 C   0  0  0  0  0  0  0  0  0  0  0  0
   31.6040   77.0234  -14.3778 C   0  0  0  0  0  0  0  0  0  0  0  0
   30.5299   76.3388  -13.8361 C   0  0  0  0  0  0  0  0  0  0  0  0
   30.1902   75.0793  -14.2869 C   0  0  0  0  0  0  0  0  0  0  0  0
   29.0373   74.3456  -13.7043 C   0  0  0  0  0  0  0  0  0  0  0  0
   27.7908   75.1701  -13.5904 C   0  0  2  0  0  0  0  0  0  0  0  0
   26.6876   74.5498  -14.2865 N   0  0  0  0  0  0  0  0  0  0  0  0
   28.0841   76.4840  -14.2240 C   0  0  0  0  0  0  0  0  0  0  0  0
   27.9736   77.5695  -13.5766 O   0  0  0  0  0  0  0  0  0  0  0  0
   30.9667   74.5426  -15.2934 C   0  0  0  0  0  0  0  0  0  0  0  0
   32.0438   75.2287  -15.8365 C   0  0  0  0  0  0  0  0  0  0  0  0
   28.4942   76.4970  -15.5836 N   0  0  0  0  0  0  0  0  0  0  0  0
   28.3777   77.7263  -16.3577 C   0  0  1  0  0  0  0  0  0  0  0  0
   28.1237   77.3210  -17.7760 C   0  0  0  0  0  0  0  0  0  0  0  0
   27.3535   78.2699  -18.5783 C   0  0  0  0  0  0  0  0  0  0  0  0
   26.0564   78.6555  -18.2854 C   0  0  0  0  0  0  0  0  0  0  0  0
   25.3550   79.5548  -19.0533 C   0  0  0  0  0  0  0  0  0  0  0  0
   25.9505   80.1032  -20.1600 C   0  0  0  0  0  0  0  0  0  0  0  0
   27.2472   79.7515  -20.4980 C   0  0  0  0  0  0  0  0  0  0  0  0
   27.9315   78.8345  -19.6955 C   0  0  0  0  0  0  0  0  0  0  0  0
   27.2530   78.5087  -15.8007 C   0  0  0  0  0  0  0  0  0  0  0  0
   26.8540   78.4176  -14.4682 O   0  0  0  0  0  0  0  0  0  0  0  0
   26.6141   79.2931  -16.5355 O   0  0  0  0  0  0  0  0  0  0  0  0
  2  1  1  1
  3  2  1  0
  4  3  1  0
  5  4  1  0
  5  6  2  0
  7  2  1  0
  7  8  2  0
  9  5  1  0
 10 11  1  0
 11 12  2  0
 12 13  1  0
 14 13  2  0
 14 15  1  0
 16 15  1  6
 16 17  1  0
 17  7  1  0
 18 16  1  0
 19 18  2  0
 20 14  1  0
 21 11  1  0
 21 20  2  0
 22 18  1  0
 23 24  1  6
 23 22  1  0
 24 25  1  0
 25 30  1  0
 26 25  2  0
 26 27  1  0
 27 28  2  0
 28 29  1  0
 30 29  2  0
 31 32  1  0
 31 23  1  0
 33 31  2  0
M  END
$$$$
