EYF.pdb
     RDKit          3D

 33 34  0  0  1  0  0  0  0  0999 V2000
   17.1963  -10.8226  -20.3495 N   0  0  0  0  0  0  0  0  0  0  0  0
   18.3965  -10.0942  -20.1370 C   0  0  1  0  0  0  0  0  0  0  0  0
   18.4680   -8.9815  -21.1245 C   0  0  0  0  0  0  0  0  0  0  0  0
   18.7838   -9.3888  -22.5307 C   0  0  0  0  0  0  0  0  0  0  0  0
   20.2557   -9.3839  -22.7869 C   0  0  0  0  0  0  0  0  0  0  0  0
   20.7840   -8.8348  -23.7851 O   0  0  0  0  0  0  0  0  0  0  0  0
   18.4364   -9.6755  -18.7171 C   0  0  0  0  0  0  0  0  0  0  0  0
   17.3723   -9.3726  -18.1278 O   0  0  0  0  0  0  0  0  0  0  0  0
   21.0721  -10.0177  -21.8749 O   0  0  0  0  0  0  0  0  0  0  0  0
   15.9750  -14.3966  -15.5412 O   0  0  0  0  0  0  0  0  0  0  0  0
   16.9848  -13.4366  -15.5965 C   0  0  0  0  0  0  0  0  0  0  0  0
   17.9584  -13.4624  -16.5721 C   0  0  0  0  0  0  0  0  0  0  0  0
   18.9630  -12.5122  -16.6317 C   0  0  0  0  0  0  0  0  0  0  0  0
   19.0296  -11.4903  -15.7064 C   0  0  0  0  0  0  0  0  0  0  0  0
   20.1087  -10.4713  -15.7714 C   0  0  0  0  0  0  0  0  0  0  0  0
   19.7593   -9.2724  -16.6002 C   0  0  2  0  0  0  0  0  0  0  0  0
   19.6811   -9.6103  -18.0025 N   0  0  0  0  0  0  0  0  0  0  0  0
   20.8499   -8.2797  -16.4028 C   0  0  0  0  0  0  0  0  0  0  0  0
   21.7692   -8.1275  -17.2639 O   0  0  0  0  0  0  0  0  0  0  0  0
   18.0553  -11.4638  -14.7295 C   0  0  0  0  0  0  0  0  0  0  0  0
   17.0481  -12.4165  -14.6696 C   0  0  0  0  0  0  0  0  0  0  0  0
   20.8399   -7.4983  -15.2169 N   0  0  0  0  0  0  0  0  0  0  0  0
   21.8578   -6.4736  -15.0228 C   0  0  1  0  0  0  0  0  0  0  0  0
   21.8012   -5.5766  -16.2197 C   0  0  0  0  0  0  0  0  0  0  0  0
   22.6746   -4.4050  -16.1758 C   0  0  0  0  0  0  0  0  0  0  0  0
   24.0114   -4.4506  -15.8184 C   0  0  0  0  0  0  0  0  0  0  0  0
   24.8137   -3.3344  -15.7906 C   0  0  0  0  0  0  0  0  0  0  0  0
   24.2835   -2.1158  -16.1284 C   0  0  0  0  0  0  0  0  0  0  0  0
   22.9510   -2.0146  -16.4939 C   0  0  0  0  0  0  0  0  0  0  0  0
   22.1637   -3.1692  -16.5116 C   0  0  0  0  0  0  0  0  0  0  0  0
   21.5372   -5.7457  -13.7759 C   0  0  0  0  0  0  0  0  0  0  0  0
   22.5067   -5.1203  -12.9936 O   0  0  0  0  0  0  0  0  0  0  0  0
   20.3524   -5.6733  -13.3825 O   0  0  0  0  0  0  0  0  0  0  0  0
  2  1  1  1
  3  2  1  0
  4  3  1  0
  5  4  1  0
  5  6  2  0
  7  2  1  0
  7  8  2  0
  9  5  1  0
 10 11  1  0
 11 12  2  0
 12 13  1  0
 14 13  2  0
 14 15  1  0
 16 15  1  1
 16 17  1  0
 17  7  1  0
 18 16  1  0
 19 18  2  0
 20 14  1  0
 21 11  1  0
 21 20  2  0
 22 18  1  0
 23 24  1  6
 23 22  1  0
 24 25  1  0
 25 30  1  0
 26 25  2  0
 26 27  1  0
 27 28  2  0
 28 29  1  0
 30 29  2  0
 31 32  1  0
 31 23  1  0
 33 31  2  0
M  END
$$$$
