EYF.pdb
     RDKit          3D

 33 34  0  0  1  0  0  0  0  0999 V2000
   26.7743  -20.1454  -17.9793 N   0  0  0  0  0  0  0  0  0  0  0  0
   26.0139  -19.5767  -16.9237 C   0  0  1  0  0  0  0  0  0  0  0  0
   25.3929  -18.3105  -17.4029 C   0  0  0  0  0  0  0  0  0  0  0  0
   26.3519  -17.2080  -17.7315 C   0  0  0  0  0  0  0  0  0  0  0  0
   26.5928  -17.1097  -19.2027 C   0  0  0  0  0  0  0  0  0  0  0  0
   27.6032  -17.5899  -19.7735 O   0  0  0  0  0  0  0  0  0  0  0  0
   25.0583  -20.5998  -16.4408 C   0  0  0  0  0  0  0  0  0  0  0  0
   24.5447  -21.4041  -17.2536 O   0  0  0  0  0  0  0  0  0  0  0  0
   25.6521  -16.4558  -19.9691 O   0  0  0  0  0  0  0  0  0  0  0  0
   26.7729  -26.8627  -16.7270 O   0  0  0  0  0  0  0  0  0  0  0  0
   26.1794  -25.8399  -15.9881 C   0  0  0  0  0  0  0  0  0  0  0  0
   26.7884  -24.6137  -15.8264 C   0  0  0  0  0  0  0  0  0  0  0  0
   26.2040  -23.5950  -15.0940 C   0  0  0  0  0  0  0  0  0  0  0  0
   24.9750  -23.7691  -14.4906 C   0  0  0  0  0  0  0  0  0  0  0  0
   24.3492  -22.6748  -13.7045 C   0  0  0  0  0  0  0  0  0  0  0  0
   23.7188  -21.6083  -14.5480 C   0  0  2  0  0  0  0  0  0  0  0  0
   24.7092  -20.6841  -15.0496 N   0  0  0  0  0  0  0  0  0  0  0  0
   22.7700  -20.8703  -13.6711 C   0  0  0  0  0  0  0  0  0  0  0  0
   23.1781  -20.1853  -12.6842 O   0  0  0  0  0  0  0  0  0  0  0  0
   24.3648  -24.9962  -14.6521 C   0  0  0  0  0  0  0  0  0  0  0  0
   24.9507  -26.0178  -15.3863 C   0  0  0  0  0  0  0  0  0  0  0  0
   21.3829  -20.9504  -13.9654 N   0  0  0  0  0  0  0  0  0  0  0  0
   20.4446  -20.1014  -13.2425 C   0  0  1  0  0  0  0  0  0  0  0  0
   20.8162  -18.6851  -13.5533 C   0  0  0  0  0  0  0  0  0  0  0  0
   20.8175  -18.3263  -14.9706 C   0  0  0  0  0  0  0  0  0  0  0  0
   19.6698  -18.1056  -15.7130 C   0  0  0  0  0  0  0  0  0  0  0  0
   19.6980  -17.7633  -17.0443 C   0  0  0  0  0  0  0  0  0  0  0  0
   20.9059  -17.6305  -17.6797 C   0  0  0  0  0  0  0  0  0  0  0  0
   22.0848  -17.8402  -16.9829 C   0  0  0  0  0  0  0  0  0  0  0  0
   22.0200  -18.1869  -15.6305 C   0  0  0  0  0  0  0  0  0  0  0  0
   19.0813  -20.4271  -13.7143 C   0  0  0  0  0  0  0  0  0  0  0  0
   18.8365  -21.2557  -14.8081 O   0  0  0  0  0  0  0  0  0  0  0  0
   18.0865  -19.9511  -13.1249 O   0  0  0  0  0  0  0  0  0  0  0  0
  2  1  1  6
  3  2  1  0
  4  3  1  0
  5  4  1  0
  5  6  2  0
  7  2  1  0
  7  8  2  0
  9  5  1  0
 10 11  1  0
 11 12  2  0
 12 13  1  0
 14 13  2  0
 14 15  1  0
 16 15  1  1
 16 17  1  0
 17  7  1  0
 18 16  1  0
 19 18  2  0
 20 14  1  0
 21 11  1  0
 21 20  2  0
 22 18  1  0
 23 24  1  6
 23 22  1  0
 24 25  1  0
 25 30  1  0
 26 25  2  0
 26 27  1  0
 27 28  2  0
 28 29  1  0
 30 29  2  0
 31 32  1  0
 31 23  1  0
 33 31  2  0
M  END
$$$$
