ENG.pdb
     RDKit          3D

 22 21  0  0  1  0  0  0  0  0999 V2000
   11.5049  -18.5469   19.4968 N   0  0  0  0  0  0  0  0  0  0  0  0
   11.9083  -18.6560   20.8757 C   0  0  1  0  0  0  0  0  0  0  0  0
   13.3991  -18.6962   20.9709 C   0  0  0  0  0  0  0  0  0  0  0  0
   14.0420  -17.5359   20.2653 C   0  0  0  0  0  0  0  0  0  0  0  0
   15.5021  -17.6119   20.3922 C   0  0  0  0  0  0  0  0  0  0  0  0
   16.1759  -17.8162   19.3472 O   0  0  0  0  0  0  0  0  0  0  0  0
   11.3135  -17.5945   21.7310 C   0  0  0  0  0  0  0  0  0  0  0  0
   11.9764  -16.5982   22.0630 O   0  0  0  0  0  0  0  0  0  0  0  0
   16.1954  -17.4741   21.5836 O   0  0  0  0  0  0  0  0  0  0  0  0
    8.7548  -15.8252   20.2462 N   0  0  0  0  0  0  0  0  0  0  0  0
    7.7259  -16.0979   21.1559 C   0  0  0  0  0  0  0  0  0  0  0  0
    6.5293  -15.9494   20.7412 O   0  0  0  0  0  0  0  0  0  0  0  0
    7.8750  -16.5381   22.5405 C   0  0  0  0  0  0  0  0  0  0  0  0
    9.2908  -16.7423   22.9802 C   0  0  2  0  0  0  0  0  0  0  0  0
    9.9898  -17.7146   22.1704 N   0  0  0  0  0  0  0  0  0  0  0  0
    9.4261  -16.9872   24.4218 C   0  0  0  0  0  0  0  0  0  0  0  0
    9.3575  -18.1282   24.9039 O   0  0  0  0  0  0  0  0  0  0  0  0
    9.6412  -15.8789   25.2813 N   0  0  0  0  0  0  0  0  0  0  0  0
   10.7463  -15.7962   26.1946 C   0  0  0  0  0  0  0  0  0  0  0  0
   10.5462  -16.7665   27.2876 C   0  0  0  0  0  0  0  0  0  0  0  0
   10.0606  -16.3722   28.4985 O   0  0  0  0  0  0  0  0  0  0  0  0
   10.8291  -17.9724   27.0924 O   0  0  0  0  0  0  0  0  0  0  0  0
  2  1  1  6
  2  7  1  0
  2  3  1  0
  3  4  1  0
  4  5  1  0
  5  9  1  0
  6  5  2  0
  7 15  1  0
  8  7  2  0
 10 11  1  0
 11 13  1  0
 12 11  2  0
 14 13  1  6
 14 16  1  0
 15 14  1  0
 16 18  1  0
 16 17  2  0
 18 19  1  0
 19 20  1  0
 20 21  1  0
 22 20  2  0
M  END
$$$$
