ENG.pdb
     RDKit          3D

 22 21  0  0  1  0  0  0  0  0999 V2000
   10.1043  -18.3059   19.5307 N   0  0  0  0  0  0  0  0  0  0  0  0
   11.0270  -17.2479   19.2062 C   0  0  1  0  0  0  0  0  0  0  0  0
   11.2677  -17.2133   17.7318 C   0  0  0  0  0  0  0  0  0  0  0  0
    9.9888  -17.0893   16.9531 C   0  0  0  0  0  0  0  0  0  0  0  0
   10.2535  -17.2387   15.5174 C   0  0  0  0  0  0  0  0  0  0  0  0
   11.3628  -17.7242   15.1687 O   0  0  0  0  0  0  0  0  0  0  0  0
   10.5960  -15.9291   19.7420 C   0  0  0  0  0  0  0  0  0  0  0  0
   11.3231  -14.9283   19.6314 O   0  0  0  0  0  0  0  0  0  0  0  0
    9.3672  -16.8832   14.5139 O   0  0  0  0  0  0  0  0  0  0  0  0
    7.3353  -12.3971   18.8815 N   0  0  0  0  0  0  0  0  0  0  0  0
    7.3490  -13.7429   19.2680 C   0  0  0  0  0  0  0  0  0  0  0  0
    7.2424  -14.6141   18.3432 O   0  0  0  0  0  0  0  0  0  0  0  0
    7.4735  -14.2624   20.6275 C   0  0  0  0  0  0  0  0  0  0  0  0
    8.8700  -14.6143   21.0343 C   0  0  2  0  0  0  0  0  0  0  0  0
    9.3558  -15.8082   20.3798 N   0  0  0  0  0  0  0  0  0  0  0  0
    9.0684  -14.6321   22.4893 C   0  0  0  0  0  0  0  0  0  0  0  0
    8.6585  -13.7170   23.2197 O   0  0  0  0  0  0  0  0  0  0  0  0
    9.7507  -15.7335   23.0679 N   0  0  0  0  0  0  0  0  0  0  0  0
    9.9946  -15.8536   24.4779 C   0  0  0  0  0  0  0  0  0  0  0  0
   10.6988  -17.1227   24.7422 C   0  0  0  0  0  0  0  0  0  0  0  0
   11.0338  -17.4904   26.0111 O   0  0  0  0  0  0  0  0  0  0  0  0
   10.9906  -17.8706   23.7791 O   0  0  0  0  0  0  0  0  0  0  0  0
  2  1  1  6
  2  7  1  0
  2  3  1  0
  3  4  1  0
  4  5  1  0
  5  9  1  0
  6  5  2  0
  7 15  1  0
  8  7  2  0
 10 11  1  0
 11 13  1  0
 12 11  2  0
 14 13  1  1
 14 16  1  0
 15 14  1  0
 16 18  1  0
 16 17  2  0
 18 19  1  0
 19 20  1  0
 20 21  1  0
 22 20  2  0
M  END
$$$$
