ENG.pdb
     RDKit          3D

 22 21  0  0  1  0  0  0  0  0999 V2000
 5967.8516-34992.3711-22494.7578 N   0  0  0  0  0  0  0  0  0  0  0  0
 5967.6826-34991.9141-22496.1172 C   0  0  1  0  0  0  0  0  0  0  0  0
 5968.9858-34992.0000-22496.8457 C   0  0  0  0  0  0  0  0  0  0  0  0
 5969.1343-34990.9062-22497.8652 C   0  0  0  0  0  0  0  0  0  0  0  0
 5968.4199-34989.7109-22497.4160 C   0  0  0  0  0  0  0  0  0  0  0  0
 5967.8076-34989.0273-22498.2871 O   0  0  0  0  0  0  0  0  0  0  0  0
 5966.5884-34992.6367-22496.8164 C   0  0  0  0  0  0  0  0  0  0  0  0
 5966.7144-34992.9688-22498.0078 O   0  0  0  0  0  0  0  0  0  0  0  0
 5968.3774-34989.2617-22496.1133 O   0  0  0  0  0  0  0  0  0  0  0  0
 5965.8647-34996.0977-22496.6484 N   0  0  0  0  0  0  0  0  0  0  0  0
 5964.7305-34995.9219-22495.8457 C   0  0  0  0  0  0  0  0  0  0  0  0
 5964.4497-34996.8516-22495.0234 O   0  0  0  0  0  0  0  0  0  0  0  0
 5963.8262-34994.7773-22495.8457 C   0  0  0  0  0  0  0  0  0  0  0  0
 5964.2734-34993.6484-22496.7051 C   0  0  2  0  0  0  0  0  0  0  0  0
 5965.3970-34992.9219-22496.1445 N   0  0  0  0  0  0  0  0  0  0  0  0
 5963.1743-34992.7617-22497.1172 C   0  0  0  0  0  0  0  0  0  0  0  0
 5963.3433-34991.8242-22497.9336 O   0  0  0  0  0  0  0  0  0  0  0  0
 5961.8862-34992.9648-22496.5625 N   0  0  0  0  0  0  0  0  0  0  0  0
 5961.6230-34992.9023-22495.1484 C   0  0  0  0  0  0  0  0  0  0  0  0
 5961.1123-34991.5625-22494.8145 C   0  0  0  0  0  0  0  0  0  0  0  0
 5961.9580-34990.5000-22494.6543 O   0  0  0  0  0  0  0  0  0  0  0  0
 5959.8823-34991.3945-22494.6641 O   0  0  0  0  0  0  0  0  0  0  0  0
  2  1  1  1
  2  7  1  0
  2  3  1  0
  3  4  1  0
  4  5  1  0
  5  9  1  0
  6  5  2  0
  7 15  1  0
  8  7  2  0
 10 11  1  0
 11 13  1  0
 12 11  2  0
 14 13  1  1
 14 16  1  0
 15 14  1  0
 16 18  1  0
 16 17  2  0
 18 19  1  0
 19 20  1  0
 20 21  1  0
 22 20  2  0
M  END
$$$$
