ENG.pdb
     RDKit          3D

 22 21  0  0  1  0  0  0  0  0999 V2000
    8.7850  -19.4020   20.5082 N   0  0  0  0  0  0  0  0  0  0  0  0
    9.7870  -18.6192   19.8306 C   0  0  1  0  0  0  0  0  0  0  0  0
    9.5352  -18.6304   18.3576 C   0  0  0  0  0  0  0  0  0  0  0  0
    8.4311  -17.6897   17.9658 C   0  0  0  0  0  0  0  0  0  0  0  0
    8.2077  -17.7468   16.5165 C   0  0  0  0  0  0  0  0  0  0  0  0
    9.2100  -17.6427   15.7598 O   0  0  0  0  0  0  0  0  0  0  0  0
    9.9007  -17.2403   20.3764 C   0  0  0  0  0  0  0  0  0  0  0  0
   10.6979  -16.4246   19.8849 O   0  0  0  0  0  0  0  0  0  0  0  0
    6.9687  -17.9080   15.9182 O   0  0  0  0  0  0  0  0  0  0  0  0
    5.7889  -15.7239   20.8589 N   0  0  0  0  0  0  0  0  0  0  0  0
    6.9474  -14.9677   21.0754 C   0  0  0  0  0  0  0  0  0  0  0  0
    7.3254  -14.2004   20.1299 O   0  0  0  0  0  0  0  0  0  0  0  0
    7.7775  -14.9618   22.2771 C   0  0  0  0  0  0  0  0  0  0  0  0
    9.1396  -15.5548   22.0962 C   0  0  2  0  0  0  0  0  0  0  0  0
    9.1014  -16.8511   21.4577 N   0  0  0  0  0  0  0  0  0  0  0  0
    9.9524  -15.5372   23.3192 C   0  0  0  0  0  0  0  0  0  0  0  0
   10.0584  -14.5213   24.0232 O   0  0  0  0  0  0  0  0  0  0  0  0
   10.6333  -16.7228   23.6988 N   0  0  0  0  0  0  0  0  0  0  0  0
   11.4738  -16.8083   24.8600 C   0  0  0  0  0  0  0  0  0  0  0  0
   12.8807  -16.9289   24.4328 C   0  0  0  0  0  0  0  0  0  0  0  0
   13.8846  -17.0576   25.3455 O   0  0  0  0  0  0  0  0  0  0  0  0
   13.1501  -16.9123   23.2083 O   0  0  0  0  0  0  0  0  0  0  0  0
  2  1  1  1
  2  7  1  0
  2  3  1  0
  3  4  1  0
  4  5  1  0
  5  9  1  0
  6  5  2  0
  7 15  1  0
  8  7  2  0
 10 11  1  0
 11 13  1  0
 12 11  2  0
 14 13  1  1
 14 16  1  0
 15 14  1  0
 16 18  1  0
 16 17  2  0
 18 19  1  0
 19 20  1  0
 20 21  1  0
 22 20  2  0
M  END
$$$$
