ENG.pdb
     RDKit          3D

 22 21  0  0  1  0  0  0  0  0999 V2000
    7.8790  -13.1687   16.4965 N   0  0  0  0  0  0  0  0  0  0  0  0
    8.0958  -14.3646   17.2704 C   0  0  1  0  0  0  0  0  0  0  0  0
    9.0355  -15.2766   16.5504 C   0  0  0  0  0  0  0  0  0  0  0  0
    8.4811  -15.7315   15.2301 C   0  0  0  0  0  0  0  0  0  0  0  0
    9.4854  -16.5160   14.5024 C   0  0  0  0  0  0  0  0  0  0  0  0
    9.7854  -16.1526   13.3336 O   0  0  0  0  0  0  0  0  0  0  0  0
    8.5401  -14.0737   18.6597 C   0  0  0  0  0  0  0  0  0  0  0  0
    9.3207  -13.1370   18.8958 O   0  0  0  0  0  0  0  0  0  0  0  0
   10.1304  -17.6317   15.0106 O   0  0  0  0  0  0  0  0  0  0  0  0
    7.7243  -13.2375   24.1062 N   0  0  0  0  0  0  0  0  0  0  0  0
    7.5003  -14.4336   23.4133 C   0  0  0  0  0  0  0  0  0  0  0  0
    7.5563  -15.5145   24.0872 O   0  0  0  0  0  0  0  0  0  0  0  0
    7.2066  -14.5793   21.9900 C   0  0  0  0  0  0  0  0  0  0  0  0
    8.4143  -14.6688   21.1108 C   0  0  2  0  0  0  0  0  0  0  0  0
    8.0757  -14.8624   19.7189 N   0  0  0  0  0  0  0  0  0  0  0  0
    9.4228  -15.6190   21.5973 C   0  0  0  0  0  0  0  0  0  0  0  0
    9.4239  -16.8104   21.2519 O   0  0  0  0  0  0  0  0  0  0  0  0
   10.4221  -15.1507   22.4893 N   0  0  0  0  0  0  0  0  0  0  0  0
   11.6514  -15.8527   22.7302 C   0  0  0  0  0  0  0  0  0  0  0  0
   11.4664  -16.7809   23.8618 C   0  0  0  0  0  0  0  0  0  0  0  0
   10.2355  -16.9861   24.4096 O   0  0  0  0  0  0  0  0  0  0  0  0
   12.4624  -17.3881   24.3219 O   0  0  0  0  0  0  0  0  0  0  0  0
  2  1  1  6
  2  7  1  0
  2  3  1  0
  3  4  1  0
  4  5  1  0
  5  9  1  0
  6  5  2  0
  7 15  1  0
  8  7  2  0
 10 11  1  0
 11 13  1  0
 12 11  2  0
 14 13  1  1
 14 16  1  0
 15 14  1  0
 16 18  1  0
 16 17  2  0
 18 19  1  0
 19 20  1  0
 20 21  1  0
 22 20  2  0
M  END
$$$$
