ENG.pdb
     RDKit          3D

 22 21  0  0  1  0  0  0  0  0999 V2000
    9.4053  -19.5743   20.5570 N   0  0  0  0  0  0  0  0  0  0  0  0
   10.4265  -18.6659   20.1012 C   0  0  1  0  0  0  0  0  0  0  0  0
   10.3538  -18.5180   18.6159 C   0  0  0  0  0  0  0  0  0  0  0  0
    8.9535  -18.6886   18.0988 C   0  0  0  0  0  0  0  0  0  0  0  0
    8.9528  -18.6954   16.6313 C   0  0  0  0  0  0  0  0  0  0  0  0
   10.0568  -18.5580   16.0395 O   0  0  0  0  0  0  0  0  0  0  0  0
   10.3821  -17.3563   20.8047 C   0  0  0  0  0  0  0  0  0  0  0  0
   11.2468  -16.4902   20.5934 O   0  0  0  0  0  0  0  0  0  0  0  0
    7.8207  -18.8432   15.8467 O   0  0  0  0  0  0  0  0  0  0  0  0
    7.4349  -15.1471   20.1807 N   0  0  0  0  0  0  0  0  0  0  0  0
    6.9584  -15.2313   21.4947 C   0  0  0  0  0  0  0  0  0  0  0  0
    5.7128  -15.0276   21.6751 O   0  0  0  0  0  0  0  0  0  0  0  0
    7.7396  -15.5300   22.6921 C   0  0  0  0  0  0  0  0  0  0  0  0
    9.1791  -15.8471   22.4336 C   0  0  2  0  0  0  0  0  0  0  0  0
    9.3548  -17.0906   21.7177 N   0  0  0  0  0  0  0  0  0  0  0  0
   10.0245  -15.7453   23.6301 C   0  0  0  0  0  0  0  0  0  0  0  0
   10.1236  -14.6915   24.2770 O   0  0  0  0  0  0  0  0  0  0  0  0
   10.7461  -16.8923   24.0509 N   0  0  0  0  0  0  0  0  0  0  0  0
   11.6093  -16.8998   25.1985 C   0  0  0  0  0  0  0  0  0  0  0  0
   12.2374  -18.2287   25.3246 C   0  0  0  0  0  0  0  0  0  0  0  0
   13.0641  -18.5201   26.3682 O   0  0  0  0  0  0  0  0  0  0  0  0
   12.0021  -19.0998   24.4539 O   0  0  0  0  0  0  0  0  0  0  0  0
  2  1  1  1
  2  7  1  0
  2  3  1  0
  3  4  1  0
  4  5  1  0
  5  9  1  0
  6  5  2  0
  7 15  1  0
  8  7  2  0
 10 11  1  0
 11 13  1  0
 12 11  2  0
 14 13  1  1
 14 16  1  0
 15 14  1  0
 16 18  1  0
 16 17  2  0
 18 19  1  0
 19 20  1  0
 20 21  1  0
 22 20  2  0
M  END
$$$$
