ENG.pdb
     RDKit          3D

 22 21  0  0  1  0  0  0  0  0999 V2000
    9.6202  -17.8628   17.7750 N   0  0  0  0  0  0  0  0  0  0  0  0
   10.7678  -16.9941   17.7102 C   0  0  1  0  0  0  0  0  0  0  0  0
   10.9418  -16.4793   16.3181 C   0  0  0  0  0  0  0  0  0  0  0  0
    9.9665  -17.1015   15.3594 C   0  0  0  0  0  0  0  0  0  0  0  0
   10.1436  -16.5344   14.0175 C   0  0  0  0  0  0  0  0  0  0  0  0
    9.1989  -15.8549   13.5341 O   0  0  0  0  0  0  0  0  0  0  0  0
   10.7147  -15.9007   18.7171 C   0  0  0  0  0  0  0  0  0  0  0  0
   11.6423  -15.0808   18.8165 O   0  0  0  0  0  0  0  0  0  0  0  0
   11.2800  -16.6928   13.2412 O   0  0  0  0  0  0  0  0  0  0  0  0
    7.5786  -12.4825   18.9163 N   0  0  0  0  0  0  0  0  0  0  0  0
    7.4632  -13.7836   19.4209 C   0  0  0  0  0  0  0  0  0  0  0  0
    6.8052  -14.6219   18.7209 O   0  0  0  0  0  0  0  0  0  0  0  0
    8.0195  -14.2899   20.6729 C   0  0  0  0  0  0  0  0  0  0  0  0
    9.4336  -14.7703   20.5769 C   0  0  2  0  0  0  0  0  0  0  0  0
    9.6074  -15.7891   19.5662 N   0  0  0  0  0  0  0  0  0  0  0  0
   10.0156  -15.1385   21.8740 C   0  0  0  0  0  0  0  0  0  0  0  0
   10.0446  -14.3479   22.8294 O   0  0  0  0  0  0  0  0  0  0  0  0
   10.5588  -16.4401   22.0292 N   0  0  0  0  0  0  0  0  0  0  0  0
   11.2448  -16.8684   23.2158 C   0  0  0  0  0  0  0  0  0  0  0  0
   10.2725  -17.4701   24.1480 C   0  0  0  0  0  0  0  0  0  0  0  0
   10.6660  -17.9531   25.3602 O   0  0  0  0  0  0  0  0  0  0  0  0
    9.0658  -17.5345   23.8134 O   0  0  0  0  0  0  0  0  0  0  0  0
  2  1  1  6
  2  7  1  0
  2  3  1  0
  3  4  1  0
  4  5  1  0
  5  9  1  0
  6  5  2  0
  7 15  1  0
  8  7  2  0
 10 11  1  0
 11 13  1  0
 12 11  2  0
 14 13  1  1
 14 16  1  0
 15 14  1  0
 16 18  1  0
 16 17  2  0
 18 19  1  0
 19 20  1  0
 20 21  1  0
 22 20  2  0
M  END
$$$$
