ENG.pdb
     RDKit          3D

 22 21  0  0  1  0  0  0  0  0999 V2000
    8.1942  -17.9457   21.6020 N   0  0  0  0  0  0  0  0  0  0  0  0
    9.4117  -17.2061   21.3863 C   0  0  1  0  0  0  0  0  0  0  0  0
    9.5178  -16.8028   19.9513 C   0  0  0  0  0  0  0  0  0  0  0  0
    8.6295  -17.6289   19.0649 C   0  0  0  0  0  0  0  0  0  0  0  0
    8.8608  -17.2875   17.6564 C   0  0  0  0  0  0  0  0  0  0  0  0
    8.2098  -17.9184   16.7812 O   0  0  0  0  0  0  0  0  0  0  0  0
    9.5502  -16.0504   22.3123 C   0  0  0  0  0  0  0  0  0  0  0  0
   10.5251  -15.2850   22.2341 O   0  0  0  0  0  0  0  0  0  0  0  0
    9.7470  -16.3170   17.2185 O   0  0  0  0  0  0  0  0  0  0  0  0
    5.6629  -13.7951   26.2625 N   0  0  0  0  0  0  0  0  0  0  0  0
    6.3241  -14.5254   25.2674 C   0  0  0  0  0  0  0  0  0  0  0  0
    6.0955  -15.7788   25.2179 O   0  0  0  0  0  0  0  0  0  0  0  0
    7.2554  -14.0033   24.2707 C   0  0  0  0  0  0  0  0  0  0  0  0
    8.5725  -14.7117   24.2175 C   0  0  2  0  0  0  0  0  0  0  0  0
    8.5721  -15.8173   23.2863 N   0  0  0  0  0  0  0  0  0  0  0  0
    9.0967  -15.0719   25.5412 C   0  0  0  0  0  0  0  0  0  0  0  0
    9.1332  -14.2586   26.4772 O   0  0  0  0  0  0  0  0  0  0  0  0
    9.5739  -16.3924   25.7460 N   0  0  0  0  0  0  0  0  0  0  0  0
   10.1436  -16.8382   26.9865 C   0  0  0  0  0  0  0  0  0  0  0  0
   11.1304  -17.9002   26.7134 C   0  0  0  0  0  0  0  0  0  0  0  0
   11.7054  -18.0272   25.4843 O   0  0  0  0  0  0  0  0  0  0  0  0
   11.4408  -18.6955   27.6318 O   0  0  0  0  0  0  0  0  0  0  0  0
  2  1  1  6
  2  7  1  0
  2  3  1  0
  3  4  1  0
  4  5  1  0
  5  9  1  0
  6  5  2  0
  7 15  1  0
  8  7  2  0
 10 11  1  0
 11 13  1  0
 12 11  2  0
 14 13  1  1
 14 16  1  0
 15 14  1  0
 16 18  1  0
 16 17  2  0
 18 19  1  0
 19 20  1  0
 20 21  1  0
 22 20  2  0
M  END
$$$$
