ENG.pdb
     RDKit          3D

 22 21  0  0  1  0  0  0  0  0999 V2000
   12.4410  -16.0631   15.5749 N   0  0  0  0  0  0  0  0  0  0  0  0
   13.5491  -16.4060   16.4295 C   0  0  1  0  0  0  0  0  0  0  0  0
   14.8270  -16.3515   15.6567 C   0  0  0  0  0  0  0  0  0  0  0  0
   14.6236  -15.8238   14.2647 C   0  0  0  0  0  0  0  0  0  0  0  0
   15.7277  -16.2480   13.3959 C   0  0  0  0  0  0  0  0  0  0  0  0
   16.8675  -15.7531   13.6051 O   0  0  0  0  0  0  0  0  0  0  0  0
   13.5967  -15.5777   17.6639 C   0  0  0  0  0  0  0  0  0  0  0  0
   14.5147  -14.7618   17.8484 O   0  0  0  0  0  0  0  0  0  0  0  0
   15.6060  -17.1578   12.3584 O   0  0  0  0  0  0  0  0  0  0  0  0
   10.3265  -12.5469   18.8036 N   0  0  0  0  0  0  0  0  0  0  0  0
   10.3430  -13.9157   19.0982 C   0  0  0  0  0  0  0  0  0  0  0  0
    9.6454  -14.6790   18.3522 O   0  0  0  0  0  0  0  0  0  0  0  0
   11.0789  -14.5706   20.1766 C   0  0  0  0  0  0  0  0  0  0  0  0
   12.4934  -14.9249   19.8398 C   0  0  2  0  0  0  0  0  0  0  0  0
   12.5966  -15.7151   18.6337 N   0  0  0  0  0  0  0  0  0  0  0  0
   13.2383  -15.4953   20.9695 C   0  0  0  0  0  0  0  0  0  0  0  0
   13.4231  -16.7165   21.0853 O   0  0  0  0  0  0  0  0  0  0  0  0
   13.7585  -14.6151   21.9533 N   0  0  0  0  0  0  0  0  0  0  0  0
   14.6726  -15.0347   22.9782 C   0  0  0  0  0  0  0  0  0  0  0  0
   13.9270  -15.7533   24.0289 C   0  0  0  0  0  0  0  0  0  0  0  0
   14.5490  -16.1878   25.1610 O   0  0  0  0  0  0  0  0  0  0  0  0
   12.7010  -15.9641   23.8714 O   0  0  0  0  0  0  0  0  0  0  0  0
  2  1  1  6
  2  7  1  0
  2  3  1  0
  3  4  1  0
  4  5  1  0
  5  9  1  0
  6  5  2  0
  7 15  1  0
  8  7  2  0
 10 11  1  0
 11 13  1  0
 12 11  2  0
 14 13  1  1
 14 16  1  0
 15 14  1  0
 16 18  1  0
 16 17  2  0
 18 19  1  0
 19 20  1  0
 20 21  1  0
 22 20  2  0
M  END
$$$$
