ENG.pdb
     RDKit          3D

 22 21  0  0  1  0  0  0  0  0999 V2000
   15.4928  -21.5417   27.3473 N   0  0  0  0  0  0  0  0  0  0  0  0
   15.6221  -20.1067   27.3575 C   0  0  1  0  0  0  0  0  0  0  0  0
   15.6741  -19.5878   25.9571 C   0  0  0  0  0  0  0  0  0  0  0  0
   15.2036  -20.6073   24.9588 C   0  0  0  0  0  0  0  0  0  0  0  0
   15.3749  -20.0962   23.5938 C   0  0  0  0  0  0  0  0  0  0  0  0
   15.8471  -18.9364   23.4524 O   0  0  0  0  0  0  0  0  0  0  0  0
   14.5673  -19.4434   28.1696 C   0  0  0  0  0  0  0  0  0  0  0  0
   14.5346  -18.2072   28.2840 O   0  0  0  0  0  0  0  0  0  0  0  0
   15.0539  -20.8005   22.4450 O   0  0  0  0  0  0  0  0  0  0  0  0
   11.7620  -22.4405   30.3462 N   0  0  0  0  0  0  0  0  0  0  0  0
   10.9191  -21.5796   29.6326 C   0  0  0  0  0  0  0  0  0  0  0  0
    9.7943  -22.0476   29.2568 O   0  0  0  0  0  0  0  0  0  0  0  0
   11.1902  -20.1913   29.2688 C   0  0  0  0  0  0  0  0  0  0  0  0
   12.5468  -19.6975   29.6633 C   0  0  2  0  0  0  0  0  0  0  0  0
   13.5960  -20.2174   28.8156 N   0  0  0  0  0  0  0  0  0  0  0  0
   12.8318  -19.8522   31.0956 C   0  0  0  0  0  0  0  0  0  0  0  0
   12.0414  -19.4628   31.9688 O   0  0  0  0  0  0  0  0  0  0  0  0
   14.0508  -20.4668   31.4826 N   0  0  0  0  0  0  0  0  0  0  0  0
   14.4125  -20.7001   32.8526 C   0  0  0  0  0  0  0  0  0  0  0  0
   15.6992  -21.4203   32.8988 C   0  0  0  0  0  0  0  0  0  0  0  0
   16.3464  -21.7787   31.7543 O   0  0  0  0  0  0  0  0  0  0  0  0
   16.2000  -21.7039   34.0128 O   0  0  0  0  0  0  0  0  0  0  0  0
  2  1  1  6
  2  7  1  0
  2  3  1  0
  3  4  1  0
  4  5  1  0
  5  9  1  0
  6  5  2  0
  7 15  1  0
  8  7  2  0
 10 11  1  0
 11 13  1  0
 12 11  2  0
 14 13  1  6
 14 16  1  0
 15 14  1  0
 16 18  1  0
 16 17  2  0
 18 19  1  0
 19 20  1  0
 20 21  1  0
 22 20  2  0
M  END
$$$$
