ENG.pdb
     RDKit          3D

 22 21  0  0  1  0  0  0  0  0999 V2000
    8.8378  -21.0625   20.7360 N   0  0  0  0  0  0  0  0  0  0  0  0
    8.3662  -22.4010   20.9846 C   0  0  1  0  0  0  0  0  0  0  0  0
    7.6935  -22.9412   19.7644 C   0  0  0  0  0  0  0  0  0  0  0  0
    7.0204  -21.8615   18.9653 C   0  0  0  0  0  0  0  0  0  0  0  0
    6.3676  -22.4379   17.7840 C   0  0  0  0  0  0  0  0  0  0  0  0
    6.4545  -21.8092   16.6954 O   0  0  0  0  0  0  0  0  0  0  0  0
    9.4385  -23.3009   21.4868 C   0  0  0  0  0  0  0  0  0  0  0  0
    9.1966  -24.4871   21.7638 O   0  0  0  0  0  0  0  0  0  0  0  0
    5.6602  -23.6289   17.7800 O   0  0  0  0  0  0  0  0  0  0  0  0
   13.2559  -23.5076   18.5977 N   0  0  0  0  0  0  0  0  0  0  0  0
   12.8224  -24.0379   19.8190 C   0  0  0  0  0  0  0  0  0  0  0  0
   12.1662  -25.1303   19.7777 O   0  0  0  0  0  0  0  0  0  0  0  0
   13.0421  -23.4713   21.1472 C   0  0  0  0  0  0  0  0  0  0  0  0
   11.8763  -23.5944   22.0775 C   0  0  2  0  0  0  0  0  0  0  0  0
   10.7393  -22.8103   21.6510 N   0  0  0  0  0  0  0  0  0  0  0  0
   12.2282  -23.3819   23.4873 C   0  0  0  0  0  0  0  0  0  0  0  0
   13.1758  -23.9752   24.0248 O   0  0  0  0  0  0  0  0  0  0  0  0
   11.4549  -22.4685   24.2497 N   0  0  0  0  0  0  0  0  0  0  0  0
   11.7024  -22.1976   25.6380 C   0  0  0  0  0  0  0  0  0  0  0  0
   10.6749  -22.8713   26.4545 C   0  0  0  0  0  0  0  0  0  0  0  0
   10.5382  -22.5946   27.7820 O   0  0  0  0  0  0  0  0  0  0  0  0
    9.9180  -23.7108   25.9118 O   0  0  0  0  0  0  0  0  0  0  0  0
  2  1  1  6
  2  7  1  0
  2  3  1  0
  3  4  1  0
  4  5  1  0
  5  9  1  0
  6  5  2  0
  7 15  1  0
  8  7  2  0
 10 11  1  0
 11 13  1  0
 12 11  2  0
 14 13  1  6
 14 16  1  0
 15 14  1  0
 16 18  1  0
 16 17  2  0
 18 19  1  0
 19 20  1  0
 20 21  1  0
 22 20  2  0
M  END
$$$$
