ENG.pdb
     RDKit          3D

 22 21  0  0  1  0  0  0  0  0999 V2000
   11.3852  -16.7618   18.6050 N   0  0  0  0  0  0  0  0  0  0  0  0
   12.2843  -16.2463   19.6058 C   0  0  1  0  0  0  0  0  0  0  0  0
   13.4590  -15.5945   18.9513 C   0  0  0  0  0  0  0  0  0  0  0  0
   13.1258  -15.0729   17.5823 C   0  0  0  0  0  0  0  0  0  0  0  0
   14.3292  -14.5323   16.9395 C   0  0  0  0  0  0  0  0  0  0  0  0
   14.9634  -13.6250   17.5416 O   0  0  0  0  0  0  0  0  0  0  0  0
   11.6046  -15.3476   20.5765 C   0  0  0  0  0  0  0  0  0  0  0  0
   12.2543  -14.7328   21.4381 O   0  0  0  0  0  0  0  0  0  0  0  0
   14.8202  -14.9502   15.7135 O   0  0  0  0  0  0  0  0  0  0  0  0
    7.9202  -13.3912   18.1686 N   0  0  0  0  0  0  0  0  0  0  0  0
    8.5548  -13.1195   19.3869 C   0  0  0  0  0  0  0  0  0  0  0  0
    9.4906  -12.2537   19.3740 O   0  0  0  0  0  0  0  0  0  0  0  0
    8.2587  -13.7249   20.6827 C   0  0  0  0  0  0  0  0  0  0  0  0
    9.4440  -14.3156   21.3796 C   0  0  2  0  0  0  0  0  0  0  0  0
   10.2148  -15.1883   20.5230 N   0  0  0  0  0  0  0  0  0  0  0  0
    9.1178  -14.9210   22.6772 C   0  0  0  0  0  0  0  0  0  0  0  0
    8.4358  -14.3273   23.5265 O   0  0  0  0  0  0  0  0  0  0  0  0
    9.6021  -16.2246   22.9590 N   0  0  0  0  0  0  0  0  0  0  0  0
    9.3018  -16.9284   24.1741 C   0  0  0  0  0  0  0  0  0  0  0  0
   10.5622  -17.3420   24.8196 C   0  0  0  0  0  0  0  0  0  0  0  0
   10.7805  -17.1167   26.1458 O   0  0  0  0  0  0  0  0  0  0  0  0
   11.4427  -17.9098   24.1308 O   0  0  0  0  0  0  0  0  0  0  0  0
  2  1  1  6
  2  7  1  0
  2  3  1  0
  3  4  1  0
  4  5  1  0
  5  9  1  0
  6  5  2  0
  7 15  1  0
  8  7  2  0
 10 11  1  0
 11 13  1  0
 12 11  2  0
 14 13  1  6
 14 16  1  0
 15 14  1  0
 16 18  1  0
 16 17  2  0
 18 19  1  0
 19 20  1  0
 20 21  1  0
 22 20  2  0
M  END
$$$$
