ENG.pdb
     RDKit          3D

 22 21  0  0  1  0  0  0  0  0999 V2000
    6.8672  -15.7310   20.8825 N   0  0  0  0  0  0  0  0  0  0  0  0
    8.2931  -15.5285   20.8406 C   0  0  1  0  0  0  0  0  0  0  0  0
    8.6296  -14.4640   19.8472 C   0  0  0  0  0  0  0  0  0  0  0  0
    7.6727  -14.4489   18.6890 C   0  0  0  0  0  0  0  0  0  0  0  0
    8.3509  -13.9725   17.4779 C   0  0  0  0  0  0  0  0  0  0  0  0
    9.4789  -14.4616   17.2015 O   0  0  0  0  0  0  0  0  0  0  0  0
    8.8714  -15.2549   22.1833 C   0  0  0  0  0  0  0  0  0  0  0  0
   10.0534  -14.8942   22.3062 O   0  0  0  0  0  0  0  0  0  0  0  0
    7.8375  -13.0200   16.6130 O   0  0  0  0  0  0  0  0  0  0  0  0
    5.8893  -12.7079   24.8476 N   0  0  0  0  0  0  0  0  0  0  0  0
    7.1769  -13.2293   24.6712 C   0  0  0  0  0  0  0  0  0  0  0  0
    7.8673  -12.7586   23.7082 O   0  0  0  0  0  0  0  0  0  0  0  0
    7.8212  -14.2628   25.4775 C   0  0  0  0  0  0  0  0  0  0  0  0
    8.5533  -15.3023   24.6882 C   0  0  2  0  0  0  0  0  0  0  0  0
    8.0779  -15.4041   23.3269 N   0  0  0  0  0  0  0  0  0  0  0  0
    8.6385  -16.6009   25.3687 C   0  0  0  0  0  0  0  0  0  0  0  0
    7.7894  -16.9664   26.1958 O   0  0  0  0  0  0  0  0  0  0  0  0
    9.7289  -17.4564   25.0643 N   0  0  0  0  0  0  0  0  0  0  0  0
   11.0641  -17.2269   25.5405 C   0  0  0  0  0  0  0  0  0  0  0  0
   11.3207  -18.0971   26.7037 C   0  0  0  0  0  0  0  0  0  0  0  0
   10.8208  -17.7922   27.9344 O   0  0  0  0  0  0  0  0  0  0  0  0
   12.0104  -19.1329   26.5505 O   0  0  0  0  0  0  0  0  0  0  0  0
  2  1  1  1
  2  7  1  0
  2  3  1  0
  3  4  1  0
  4  5  1  0
  5  9  1  0
  6  5  2  0
  7 15  1  0
  8  7  2  0
 10 11  1  0
 11 13  1  0
 12 11  2  0
 14 13  1  1
 14 16  1  0
 15 14  1  0
 16 18  1  0
 16 17  2  0
 18 19  1  0
 19 20  1  0
 20 21  1  0
 22 20  2  0
M  END
$$$$
