ENG.pdb
     RDKit          3D

 22 21  0  0  1  0  0  0  0  0999 V2000
    9.4262  -14.4741   17.2919 N   0  0  0  0  0  0  0  0  0  0  0  0
    9.4290  -13.2257   18.0112 C   0  0  1  0  0  0  0  0  0  0  0  0
    8.0259  -12.7738   18.2570 C   0  0  0  0  0  0  0  0  0  0  0  0
    7.0978  -13.9268   18.5151 C   0  0  0  0  0  0  0  0  0  0  0  0
    7.0322  -14.7979   17.3358 C   0  0  0  0  0  0  0  0  0  0  0  0
    7.6738  -14.4504   16.3085 O   0  0  0  0  0  0  0  0  0  0  0  0
   10.2323  -13.2880   19.2613 C   0  0  0  0  0  0  0  0  0  0  0  0
   10.3839  -12.2807   19.9718 O   0  0  0  0  0  0  0  0  0  0  0  0
    6.3127  -15.9798   17.2712 O   0  0  0  0  0  0  0  0  0  0  0  0
    9.4936  -15.6275   21.9425 N   0  0  0  0  0  0  0  0  0  0  0  0
   10.6616  -16.3920   21.8326 C   0  0  0  0  0  0  0  0  0  0  0  0
   10.6181  -17.5863   22.2769 O   0  0  0  0  0  0  0  0  0  0  0  0
   11.9359  -15.9668   21.2593 C   0  0  0  0  0  0  0  0  0  0  0  0
   11.9055  -14.6227   20.6018 C   0  0  2  0  0  0  0  0  0  0  0  0
   10.8275  -14.4949   19.6473 N   0  0  0  0  0  0  0  0  0  0  0  0
   13.2064  -14.2057   20.0630 C   0  0  0  0  0  0  0  0  0  0  0  0
   13.3115  -13.6385   18.9647 O   0  0  0  0  0  0  0  0  0  0  0  0
   14.3727  -14.4638   20.8289 N   0  0  0  0  0  0  0  0  0  0  0  0
   15.6823  -14.0227   20.4384 C   0  0  0  0  0  0  0  0  0  0  0  0
   16.6793  -14.5727   21.3765 C   0  0  0  0  0  0  0  0  0  0  0  0
   18.0098  -14.3276   21.2126 O   0  0  0  0  0  0  0  0  0  0  0  0
   16.2890  -15.2759   22.3385 O   0  0  0  0  0  0  0  0  0  0  0  0
  2  1  1  1
  2  7  1  0
  2  3  1  0
  3  4  1  0
  4  5  1  0
  5  9  1  0
  6  5  2  0
  7 15  1  0
  8  7  2  0
 10 11  1  0
 11 13  1  0
 12 11  2  0
 14 13  1  6
 14 16  1  0
 15 14  1  0
 16 18  1  0
 16 17  2  0
 18 19  1  0
 19 20  1  0
 20 21  1  0
 22 20  2  0
M  END
$$$$
