ENG.pdb
     RDKit          3D

 22 21  0  0  1  0  0  0  0  0999 V2000
    9.2189  -14.9342   14.7142 N   0  0  0  0  0  0  0  0  0  0  0  0
    8.7120  -15.6719   15.8433 C   0  0  1  0  0  0  0  0  0  0  0  0
    8.7586  -17.1383   15.5589 C   0  0  0  0  0  0  0  0  0  0  0  0
   10.1536  -17.6131   15.2660 C   0  0  0  0  0  0  0  0  0  0  0  0
   10.1597  -19.0648   15.0508 C   0  0  0  0  0  0  0  0  0  0  0  0
    9.0664  -19.6823   15.1574 O   0  0  0  0  0  0  0  0  0  0  0  0
    9.4006  -15.3181   17.1132 C   0  0  0  0  0  0  0  0  0  0  0  0
   10.5730  -14.9081   17.1092 O   0  0  0  0  0  0  0  0  0  0  0  0
   11.2859  -19.8079   14.7372 O   0  0  0  0  0  0  0  0  0  0  0  0
    7.9607  -12.6323   18.7387 N   0  0  0  0  0  0  0  0  0  0  0  0
    7.6805  -13.2196   19.9786 C   0  0  0  0  0  0  0  0  0  0  0  0
    6.8293  -12.6293   20.7220 O   0  0  0  0  0  0  0  0  0  0  0  0
    8.2621  -14.4461   20.5180 C   0  0  0  0  0  0  0  0  0  0  0  0
    9.2682  -15.1031   19.6260 C   0  0  2  0  0  0  0  0  0  0  0  0
    8.7236  -15.4464   18.3317 N   0  0  0  0  0  0  0  0  0  0  0  0
    9.9793  -16.2167   20.2670 C   0  0  0  0  0  0  0  0  0  0  0  0
    9.6234  -17.3958   20.1191 O   0  0  0  0  0  0  0  0  0  0  0  0
   11.1062  -15.9251   21.0785 N   0  0  0  0  0  0  0  0  0  0  0  0
   11.9424  -16.9400   21.6553 C   0  0  0  0  0  0  0  0  0  0  0  0
   12.9523  -16.3023   22.5213 C   0  0  0  0  0  0  0  0  0  0  0  0
   12.9457  -16.4960   23.8703 O   0  0  0  0  0  0  0  0  0  0  0  0
   13.8285  -15.5717   22.0009 O   0  0  0  0  0  0  0  0  0  0  0  0
  2  1  1  6
  2  7  1  0
  2  3  1  0
  3  4  1  0
  4  5  1  0
  5  9  1  0
  6  5  2  0
  7 15  1  0
  8  7  2  0
 10 11  1  0
 11 13  1  0
 12 11  2  0
 14 13  1  1
 14 16  1  0
 15 14  1  0
 16 18  1  0
 16 17  2  0
 18 19  1  0
 19 20  1  0
 20 21  1  0
 22 20  2  0
M  END
$$$$
