ENG.pdb
     RDKit          3D

 22 21  0  0  1  0  0  0  0  0999 V2000
    5.7171  -20.9503   19.3818 N   0  0  0  0  0  0  0  0  0  0  0  0
    6.5620  -22.0767   19.6870 C   0  0  1  0  0  0  0  0  0  0  0  0
    7.7652  -22.0686   18.8007 C   0  0  0  0  0  0  0  0  0  0  0  0
    7.4811  -21.4361   17.4679 C   0  0  0  0  0  0  0  0  0  0  0  0
    8.5991  -21.6721   16.5468 C   0  0  0  0  0  0  0  0  0  0  0  0
    8.9212  -22.8656   16.3025 O   0  0  0  0  0  0  0  0  0  0  0  0
    6.9197  -22.1491   21.1288 C   0  0  0  0  0  0  0  0  0  0  0  0
    7.7195  -23.0034   21.5445 O   0  0  0  0  0  0  0  0  0  0  0  0
    9.3282  -20.6725   15.9238 O   0  0  0  0  0  0  0  0  0  0  0  0
    9.3354  -20.4630   22.7417 N   0  0  0  0  0  0  0  0  0  0  0  0
    8.4914  -19.6194   23.4743 C   0  0  0  0  0  0  0  0  0  0  0  0
    8.9421  -18.4653   23.7750 O   0  0  0  0  0  0  0  0  0  0  0  0
    7.1385  -19.9200   23.9357 C   0  0  0  0  0  0  0  0  0  0  0  0
    6.5944  -21.2299   23.4585 C   0  0  2  0  0  0  0  0  0  0  0  0
    6.3508  -21.2450   22.0337 N   0  0  0  0  0  0  0  0  0  0  0  0
    5.4506  -21.7095   24.2449 C   0  0  0  0  0  0  0  0  0  0  0  0
    5.5819  -22.1389   25.4012 O   0  0  0  0  0  0  0  0  0  0  0  0
    4.1602  -21.6769   23.6555 N   0  0  0  0  0  0  0  0  0  0  0  0
    3.4369  -22.8601   23.2828 C   0  0  0  0  0  0  0  0  0  0  0  0
    2.8623  -23.4788   24.4925 C   0  0  0  0  0  0  0  0  0  0  0  0
    1.8112  -24.3423   24.4096 O   0  0  0  0  0  0  0  0  0  0  0  0
    3.3542  -23.2015   25.6120 O   0  0  0  0  0  0  0  0  0  0  0  0
  2  1  1  1
  2  7  1  0
  2  3  1  0
  3  4  1  0
  4  5  1  0
  5  9  1  0
  6  5  2  0
  7 15  1  0
  8  7  2  0
 10 11  1  0
 11 13  1  0
 12 11  2  0
 14 13  1  1
 14 16  1  0
 15 14  1  0
 16 18  1  0
 16 17  2  0
 18 19  1  0
 19 20  1  0
 20 21  1  0
 22 20  2  0
M  END
$$$$
