SFV.pdb
     RDKit          3D

 25 25  0  0  1  0  0  0  0  0999 V2000
   10.6012  -18.6150   21.2439 O   0  0  0  0  0  0  0  0  0  0  0  0
    9.4067  -18.1587   20.7131 C   0  0  0  0  0  0  0  0  0  0  0  0
    9.5612  -16.6670   20.3798 C   0  0  2  0  0  0  0  0  0  0  0  0
   10.8129  -16.4416   19.7159 N   0  0  0  0  0  0  0  0  0  0  0  0
    9.5819  -15.9712   21.6874 C   0  0  0  0  0  0  0  0  0  0  0  0
   10.7087  -15.6490   22.1543 O   0  0  0  0  0  0  0  0  0  0  0  0
    8.3754  -15.6882   22.3699 N   0  0  0  0  0  0  0  0  0  0  0  0
    8.4362  -15.0220   23.6483 C   0  0  1  0  0  0  0  0  0  0  0  0
    7.1184  -14.3612   23.9408 C   0  0  0  0  0  0  0  0  0  0  0  0
    7.0772  -13.6190   25.2036 C   0  0  0  0  0  0  0  0  0  0  0  0
    6.5090  -14.1235   26.3491 C   0  0  0  0  0  0  0  0  0  0  0  0
    6.4916  -13.3728   27.5326 C   0  0  0  0  0  0  0  0  0  0  0  0
    7.0435  -12.1141   27.5719 C   0  0  0  0  0  0  0  0  0  0  0  0
    7.6109  -11.6078   26.4318 C   0  0  0  0  0  0  0  0  0  0  0  0
    7.6197  -12.3593   25.2763 C   0  0  0  0  0  0  0  0  0  0  0  0
    8.8992  -15.9459   24.6758 C   0  0  0  0  0  0  0  0  0  0  0  0
    8.4107  -17.0871   24.8946 O   0  0  0  0  0  0  0  0  0  0  0  0
   12.6355  -16.6796   25.0705 C   0  0  0  0  0  0  0  0  0  0  0  0
   12.0579  -16.3552   26.4214 C   0  0  2  0  0  0  0  0  0  0  0  0
   12.7421  -17.2177   27.4506 C   0  0  0  0  0  0  0  0  0  0  0  0
   10.5582  -16.4878   26.4730 C   0  0  2  0  0  0  0  0  0  0  0  0
    9.9822  -15.5546   25.5082 N   0  0  0  0  0  0  0  0  0  0  0  0
   10.1476  -16.1273   27.8669 C   0  0  0  0  0  0  0  0  0  0  0  0
   10.3077  -16.9716   28.7601 O   0  0  0  0  0  0  0  0  0  0  0  0
    9.6155  -14.8778   28.0762 O   0  0  0  0  0  0  0  0  0  0  0  0
  2  1  1  0
  3  2  1  0
  3  4  1  1
  5  3  1  0
  6  5  2  0
  7  5  1  0
  8  7  1  0
  8  9  1  1
  9 10  1  0
 10 15  2  0
 10 11  1  0
 11 12  2  0
 12 13  1  0
 14 13  2  0
 15 14  1  0
 16 22  1  0
 16  8  1  0
 17 16  2  0
 19 18  1  6
 19 21  1  0
 20 19  1  0
 21 23  1  0
 21 22  1  6
 23 25  1  0
 24 23  2  0
M  END
$$$$
