SFV.pdb
     RDKit          3D

 25 25  0  0  1  0  0  0  0  0999 V2000
   12.3870  -18.4366   22.0866 O   0  0  0  0  0  0  0  0  0  0  0  0
   11.1445  -18.4915   21.4784 C   0  0  0  0  0  0  0  0  0  0  0  0
   10.8403  -17.1146   20.8689 C   0  0  2  0  0  0  0  0  0  0  0  0
   12.0117  -16.5966   20.2227 N   0  0  0  0  0  0  0  0  0  0  0  0
   10.5024  -16.2415   22.0169 C   0  0  0  0  0  0  0  0  0  0  0  0
   11.3942  -15.4466   22.4223 O   0  0  0  0  0  0  0  0  0  0  0  0
    9.2250  -16.3111   22.6209 N   0  0  0  0  0  0  0  0  0  0  0  0
    8.9246  -15.4288   23.7224 C   0  0  1  0  0  0  0  0  0  0  0  0
    7.4603  -15.0903   23.7184 C   0  0  0  0  0  0  0  0  0  0  0  0
    7.0753  -14.0444   24.6697 C   0  0  0  0  0  0  0  0  0  0  0  0
    7.4557  -12.7307   24.5311 C   0  0  0  0  0  0  0  0  0  0  0  0
    7.0642  -11.7670   25.4704 C   0  0  0  0  0  0  0  0  0  0  0  0
    6.2902  -12.1166   26.5517 C   0  0  0  0  0  0  0  0  0  0  0  0
    5.9090  -13.4253   26.6933 C   0  0  0  0  0  0  0  0  0  0  0  0
    6.3026  -14.3606   25.7603 C   0  0  0  0  0  0  0  0  0  0  0  0
    9.4184  -15.9962   24.9707 C   0  0  0  0  0  0  0  0  0  0  0  0
    9.7575  -17.1992   25.1334 O   0  0  0  0  0  0  0  0  0  0  0  0
   10.3887  -13.1947   27.9956 C   0  0  0  0  0  0  0  0  0  0  0  0
    9.9968  -14.5901   28.3990 C   0  0  2  0  0  0  0  0  0  0  0  0
   10.7285  -14.9414   29.6687 C   0  0  0  0  0  0  0  0  0  0  0  0
   10.2223  -15.6078   27.3114 C   0  0  2  0  0  0  0  0  0  0  0  0
    9.5356  -15.1501   26.1061 N   0  0  0  0  0  0  0  0  0  0  0  0
    9.6296  -16.8921   27.8018 C   0  0  0  0  0  0  0  0  0  0  0  0
    8.4278  -17.1022   27.5832 O   0  0  0  0  0  0  0  0  0  0  0  0
   10.4544  -17.7664   28.4678 O   0  0  0  0  0  0  0  0  0  0  0  0
  2  1  1  0
  3  2  1  0
  3  4  1  1
  5  3  1  0
  6  5  2  0
  7  5  1  0
  8  7  1  0
  8  9  1  1
  9 10  1  0
 10 15  2  0
 10 11  1  0
 11 12  2  0
 12 13  1  0
 14 13  2  0
 15 14  1  0
 16 22  1  0
 16  8  1  0
 17 16  2  0
 19 18  1  6
 19 21  1  0
 20 19  1  0
 21 23  1  0
 21 22  1  6
 23 25  1  0
 24 23  2  0
M  END
$$$$
