SFV.pdb
     RDKit          3D

 25 25  0  0  1  0  0  0  0  0999 V2000
   12.1867  -18.6744   21.7541 O   0  0  0  0  0  0  0  0  0  0  0  0
   10.8896  -18.4490   21.3255 C   0  0  0  0  0  0  0  0  0  0  0  0
   10.7806  -16.9918   20.8516 C   0  0  2  0  0  0  0  0  0  0  0  0
   12.0383  -16.5567   20.3158 N   0  0  0  0  0  0  0  0  0  0  0  0
   10.4813  -16.2028   22.0691 C   0  0  0  0  0  0  0  0  0  0  0  0
   11.4096  -15.4900   22.5400 O   0  0  0  0  0  0  0  0  0  0  0  0
    9.1995  -16.2596   22.6650 N   0  0  0  0  0  0  0  0  0  0  0  0
    8.9039  -15.3806   23.7703 C   0  0  1  0  0  0  0  0  0  0  0  0
    7.4582  -14.9728   23.7235 C   0  0  0  0  0  0  0  0  0  0  0  0
    7.0775  -13.9668   24.7186 C   0  0  0  0  0  0  0  0  0  0  0  0
    7.4973  -12.6592   24.6584 C   0  0  0  0  0  0  0  0  0  0  0  0
    7.1082  -11.7344   25.6370 C   0  0  0  0  0  0  0  0  0  0  0  0
    6.2971  -12.1170   26.6792 C   0  0  0  0  0  0  0  0  0  0  0  0
    5.8765  -13.4197   26.7427 C   0  0  0  0  0  0  0  0  0  0  0  0
    6.2684  -14.3165   25.7719 C   0  0  0  0  0  0  0  0  0  0  0  0
    9.3281  -15.9892   25.0247 C   0  0  0  0  0  0  0  0  0  0  0  0
    9.5296  -17.2213   25.1983 O   0  0  0  0  0  0  0  0  0  0  0  0
   10.6163  -13.2581   27.9861 C   0  0  0  0  0  0  0  0  0  0  0  0
   10.1249  -14.6117   28.4220 C   0  0  2  0  0  0  0  0  0  0  0  0
   10.8723  -15.0102   29.6686 C   0  0  0  0  0  0  0  0  0  0  0  0
   10.2237  -15.6556   27.3404 C   0  0  2  0  0  0  0  0  0  0  0  0
    9.5370  -15.1520   26.1536 N   0  0  0  0  0  0  0  0  0  0  0  0
    9.5403  -16.8790   27.8672 C   0  0  0  0  0  0  0  0  0  0  0  0
    8.3094  -16.9591   27.7453 O   0  0  0  0  0  0  0  0  0  0  0  0
   10.3191  -17.8453   28.4571 O   0  0  0  0  0  0  0  0  0  0  0  0
  2  1  1  0
  3  2  1  0
  3  4  1  1
  5  3  1  0
  6  5  2  0
  7  5  1  0
  8  7  1  0
  8  9  1  1
  9 10  1  0
 10 15  2  0
 10 11  1  0
 11 12  2  0
 12 13  1  0
 14 13  2  0
 15 14  1  0
 16 22  1  0
 16  8  1  0
 17 16  2  0
 19 18  1  6
 19 21  1  0
 20 19  1  0
 21 23  1  0
 21 22  1  6
 23 25  1  0
 24 23  2  0
M  END
$$$$
