SFV.pdb
     RDKit          3D

 25 25  0  0  1  0  0  0  0  0999 V2000
   11.6939  -18.8395   21.0774 O   0  0  0  0  0  0  0  0  0  0  0  0
   10.4590  -18.2819   21.3618 C   0  0  0  0  0  0  0  0  0  0  0  0
   10.4368  -16.8459   20.8164 C   0  0  2  0  0  0  0  0  0  0  0  0
   11.7217  -16.5090   20.2746 N   0  0  0  0  0  0  0  0  0  0  0  0
   10.1720  -15.9825   21.9906 C   0  0  0  0  0  0  0  0  0  0  0  0
   11.1626  -15.4151   22.5274 O   0  0  0  0  0  0  0  0  0  0  0  0
    8.8538  -15.8135   22.4755 N   0  0  0  0  0  0  0  0  0  0  0  0
    8.6485  -15.0699   23.6948 C   0  0  1  0  0  0  0  0  0  0  0  0
    7.2882  -14.4311   23.6782 C   0  0  0  0  0  0  0  0  0  0  0  0
    6.9948  -13.5946   24.8449 C   0  0  0  0  0  0  0  0  0  0  0  0
    6.2448  -14.0336   25.9101 C   0  0  0  0  0  0  0  0  0  0  0  0
    5.9888  -13.1937   27.0026 C   0  0  0  0  0  0  0  0  0  0  0  0
    6.4836  -11.9112   27.0312 C   0  0  0  0  0  0  0  0  0  0  0  0
    7.2317  -11.4700   25.9711 C   0  0  0  0  0  0  0  0  0  0  0  0
    7.4741  -12.3089   24.9046 C   0  0  0  0  0  0  0  0  0  0  0  0
    8.9133  -15.9164   24.8512 C   0  0  0  0  0  0  0  0  0  0  0  0
    8.5833  -17.1289   24.9499 O   0  0  0  0  0  0  0  0  0  0  0  0
   11.0995  -14.2038   28.1856 C   0  0  0  0  0  0  0  0  0  0  0  0
   11.3954  -15.5343   27.5486 C   0  0  2  0  0  0  0  0  0  0  0  0
   12.4557  -15.3327   26.4968 C   0  0  0  0  0  0  0  0  0  0  0  0
   10.1692  -16.2147   26.9982 C   0  0  2  0  0  0  0  0  0  0  0  0
    9.5934  -15.3564   25.9660 N   0  0  0  0  0  0  0  0  0  0  0  0
    9.2197  -16.3717   28.1450 C   0  0  0  0  0  0  0  0  0  0  0  0
    8.2146  -15.6471   28.1750 O   0  0  0  0  0  0  0  0  0  0  0  0
    9.5182  -17.3127   29.1010 O   0  0  0  0  0  0  0  0  0  0  0  0
  2  1  1  0
  3  2  1  0
  3  4  1  1
  5  3  1  0
  6  5  2  0
  7  5  1  0
  8  7  1  0
  8  9  1  1
  9 10  1  0
 10 15  2  0
 10 11  1  0
 11 12  2  0
 12 13  1  0
 14 13  2  0
 15 14  1  0
 16 22  1  0
 16  8  1  0
 17 16  2  0
 19 18  1  6
 19 21  1  0
 20 19  1  0
 21 23  1  0
 21 22  1  6
 23 25  1  0
 24 23  2  0
M  END
$$$$
