SFV.pdb
     RDKit          3D

 25 25  0  0  1  0  0  0  0  0999 V2000
   12.1762  -18.4767   22.0097 O   0  0  0  0  0  0  0  0  0  0  0  0
   10.9025  -18.3890   21.4743 C   0  0  0  0  0  0  0  0  0  0  0  0
   10.7198  -16.9833   20.8820 C   0  0  2  0  0  0  0  0  0  0  0  0
   11.9572  -16.5260   20.3180 N   0  0  0  0  0  0  0  0  0  0  0  0
   10.3680  -16.1150   22.0294 C   0  0  0  0  0  0  0  0  0  0  0  0
   11.2404  -15.2929   22.4226 O   0  0  0  0  0  0  0  0  0  0  0  0
    9.0991  -16.2184   22.6462 N   0  0  0  0  0  0  0  0  0  0  0  0
    8.8130  -15.3963   23.7969 C   0  0  1  0  0  0  0  0  0  0  0  0
    7.3825  -14.9378   23.7517 C   0  0  0  0  0  0  0  0  0  0  0  0
    7.0043  -14.0178   24.8276 C   0  0  0  0  0  0  0  0  0  0  0  0
    7.1325  -12.6530   24.7240 C   0  0  0  0  0  0  0  0  0  0  0  0
    6.7595  -11.8144   25.7832 C   0  0  0  0  0  0  0  0  0  0  0  0
    6.2569  -12.3407   26.9498 C   0  0  0  0  0  0  0  0  0  0  0  0
    6.1277  -13.7008   27.0569 C   0  0  0  0  0  0  0  0  0  0  0  0
    6.4992  -14.5113   26.0056 C   0  0  0  0  0  0  0  0  0  0  0  0
    9.1948  -16.0915   25.0196 C   0  0  0  0  0  0  0  0  0  0  0  0
    9.2333  -17.3438   25.1567 O   0  0  0  0  0  0  0  0  0  0  0  0
    9.5170  -14.2781   28.9283 C   0  0  0  0  0  0  0  0  0  0  0  0
   10.7224  -14.8008   28.1953 C   0  0  2  0  0  0  0  0  0  0  0  0
   11.4230  -13.6376   27.5416 C   0  0  0  0  0  0  0  0  0  0  0  0
   10.3915  -15.8925   27.2114 C   0  0  2  0  0  0  0  0  0  0  0  0
    9.5550  -15.3221   26.1585 N   0  0  0  0  0  0  0  0  0  0  0  0
    9.6403  -16.9388   27.9745 C   0  0  0  0  0  0  0  0  0  0  0  0
   10.2630  -17.6165   28.8047 O   0  0  0  0  0  0  0  0  0  0  0  0
    8.3002  -17.0879   27.7098 O   0  0  0  0  0  0  0  0  0  0  0  0
  2  1  1  0
  3  2  1  0
  3  4  1  1
  5  3  1  0
  6  5  2  0
  7  5  1  0
  8  7  1  0
  8  9  1  1
  9 10  1  0
 10 15  2  0
 10 11  1  0
 11 12  2  0
 12 13  1  0
 14 13  2  0
 15 14  1  0
 16 22  1  0
 16  8  1  0
 17 16  2  0
 19 18  1  6
 19 21  1  0
 20 19  1  0
 21 23  1  0
 21 22  1  6
 23 25  1  0
 24 23  2  0
M  END
$$$$
