SFV.pdb
     RDKit          3D

 25 25  0  0  1  0  0  0  0  0999 V2000
    9.5349  -18.9783   20.7879 O   0  0  0  0  0  0  0  0  0  0  0  0
    8.3551  -18.5140   20.2317 C   0  0  0  0  0  0  0  0  0  0  0  0
    8.5295  -17.0254   19.8944 C   0  0  2  0  0  0  0  0  0  0  0  0
    9.6524  -16.8510   19.0187 N   0  0  0  0  0  0  0  0  0  0  0  0
    8.8225  -16.3606   21.1853 C   0  0  0  0  0  0  0  0  0  0  0  0
   10.0311  -16.1119   21.4475 O   0  0  0  0  0  0  0  0  0  0  0  0
    7.7748  -16.0257   22.0751 N   0  0  0  0  0  0  0  0  0  0  0  0
    8.0871  -15.2882   23.2752 C   0  0  1  0  0  0  0  0  0  0  0  0
    6.9475  -14.3710   23.6199 C   0  0  0  0  0  0  0  0  0  0  0  0
    7.1599  -13.5627   24.8234 C   0  0  0  0  0  0  0  0  0  0  0  0
    8.0111  -12.4838   24.8589 C   0  0  0  0  0  0  0  0  0  0  0  0
    8.1829  -11.7433   26.0364 C   0  0  0  0  0  0  0  0  0  0  0  0
    7.5024  -12.0816   27.1822 C   0  0  0  0  0  0  0  0  0  0  0  0
    6.6529  -13.1566   27.1507 C   0  0  0  0  0  0  0  0  0  0  0  0
    6.4954  -13.8741   25.9844 C   0  0  0  0  0  0  0  0  0  0  0  0
    8.4806  -16.2025   24.3397 C   0  0  0  0  0  0  0  0  0  0  0  0
    7.8106  -17.2003   24.7196 O   0  0  0  0  0  0  0  0  0  0  0  0
   12.5380  -16.0187   25.7609 C   0  0  0  0  0  0  0  0  0  0  0  0
   11.6488  -17.2297   25.6813 C   0  0  2  0  0  0  0  0  0  0  0  0
   11.8119  -17.8506   24.3178 C   0  0  0  0  0  0  0  0  0  0  0  0
   10.2078  -16.9300   26.0021 C   0  0  2  0  0  0  0  0  0  0  0  0
    9.7084  -15.9738   25.0172 N   0  0  0  0  0  0  0  0  0  0  0  0
   10.1937  -16.3314   27.3742 C   0  0  0  0  0  0  0  0  0  0  0  0
    9.9850  -15.1141   27.4786 O   0  0  0  0  0  0  0  0  0  0  0  0
   10.4135  -17.1683   28.4417 O   0  0  0  0  0  0  0  0  0  0  0  0
  2  1  1  0
  3  2  1  0
  3  4  1  6
  5  3  1  0
  6  5  2  0
  7  5  1  0
  8  7  1  0
  8  9  1  1
  9 10  1  0
 10 15  2  0
 10 11  1  0
 11 12  2  0
 12 13  1  0
 14 13  2  0
 15 14  1  0
 16 22  1  0
 16  8  1  0
 17 16  2  0
 19 18  1  6
 19 21  1  0
 20 19  1  0
 21 23  1  0
 21 22  1  6
 23 25  1  0
 24 23  2  0
M  END
$$$$
