SFV.pdb
     RDKit          3D

 25 25  0  0  1  0  0  0  0  0999 V2000
   12.2215  -18.6055   22.1180 O   0  0  0  0  0  0  0  0  0  0  0  0
   10.9946  -18.5777   21.4772 C   0  0  0  0  0  0  0  0  0  0  0  0
   10.7923  -17.1790   20.8749 C   0  0  2  0  0  0  0  0  0  0  0  0
   12.0138  -16.7234   20.2761 N   0  0  0  0  0  0  0  0  0  0  0  0
   10.4652  -16.2999   22.0214 C   0  0  0  0  0  0  0  0  0  0  0  0
   11.3524  -15.4863   22.3989 O   0  0  0  0  0  0  0  0  0  0  0  0
    9.2028  -16.3842   22.6544 N   0  0  0  0  0  0  0  0  0  0  0  0
    8.9133  -15.4979   23.7554 C   0  0  1  0  0  0  0  0  0  0  0  0
    7.4474  -15.1665   23.7700 C   0  0  0  0  0  0  0  0  0  0  0  0
    7.0742  -14.0999   24.7028 C   0  0  0  0  0  0  0  0  0  0  0  0
    6.4334  -14.3397   25.8951 C   0  0  0  0  0  0  0  0  0  0  0  0
    6.0942  -13.2844   26.7528 C   0  0  0  0  0  0  0  0  0  0  0  0
    6.3959  -11.9854   26.4184 C   0  0  0  0  0  0  0  0  0  0  0  0
    7.0346  -11.7423   25.2305 C   0  0  0  0  0  0  0  0  0  0  0  0
    7.3613  -12.7917   24.3985 C   0  0  0  0  0  0  0  0  0  0  0  0
    9.4271  -16.0564   24.9996 C   0  0  0  0  0  0  0  0  0  0  0  0
    9.6320  -17.2819   25.2112 O   0  0  0  0  0  0  0  0  0  0  0  0
   10.6127  -13.2488   27.9340 C   0  0  0  0  0  0  0  0  0  0  0  0
   10.1992  -14.6293   28.3662 C   0  0  2  0  0  0  0  0  0  0  0  0
   10.9562  -14.9816   29.6208 C   0  0  0  0  0  0  0  0  0  0  0  0
   10.3719  -15.6658   27.2867 C   0  0  2  0  0  0  0  0  0  0  0  0
    9.7274  -15.1736   26.0717 N   0  0  0  0  0  0  0  0  0  0  0  0
    9.6952  -16.9076   27.7779 C   0  0  0  0  0  0  0  0  0  0  0  0
    8.4796  -17.0319   27.5703 O   0  0  0  0  0  0  0  0  0  0  0  0
   10.4629  -17.8406   28.4325 O   0  0  0  0  0  0  0  0  0  0  0  0
  2  1  1  0
  3  2  1  0
  3  4  1  1
  5  3  1  0
  6  5  2  0
  7  5  1  0
  8  7  1  0
  8  9  1  1
  9 10  1  0
 10 15  2  0
 10 11  1  0
 11 12  2  0
 12 13  1  0
 14 13  2  0
 15 14  1  0
 16 22  1  0
 16  8  1  0
 17 16  2  0
 19 18  1  6
 19 21  1  0
 20 19  1  0
 21 23  1  0
 21 22  1  6
 23 25  1  0
 24 23  2  0
M  END
$$$$
