SFV.pdb
     RDKit          3D

 25 25  0  0  1  0  0  0  0  0999 V2000
   11.8263  -18.3551   21.6322 O   0  0  0  0  0  0  0  0  0  0  0  0
   10.5138  -18.1458   21.2446 C   0  0  0  0  0  0  0  0  0  0  0  0
   10.3438  -16.6620   20.8850 C   0  0  2  0  0  0  0  0  0  0  0  0
   11.5405  -16.1688   20.2661 N   0  0  0  0  0  0  0  0  0  0  0  0
   10.1510  -15.9631   22.1768 C   0  0  0  0  0  0  0  0  0  0  0  0
   11.1321  -15.3181   22.6384 O   0  0  0  0  0  0  0  0  0  0  0  0
    8.9088  -16.0282   22.8506 N   0  0  0  0  0  0  0  0  0  0  0  0
    8.7580  -15.3324   24.1056 C   0  0  1  0  0  0  0  0  0  0  0  0
    7.2993  -15.1137   24.3940 C   0  0  0  0  0  0  0  0  0  0  0  0
    7.0116  -13.9334   25.2133 C   0  0  0  0  0  0  0  0  0  0  0  0
    5.9211  -13.8490   26.0460 C   0  0  0  0  0  0  0  0  0  0  0  0
    5.6871  -12.6961   26.8079 C   0  0  0  0  0  0  0  0  0  0  0  0
    6.5452  -11.6240   26.7377 C   0  0  0  0  0  0  0  0  0  0  0  0
    7.6334  -11.7045   25.9087 C   0  0  0  0  0  0  0  0  0  0  0  0
    7.8490  -12.8457   25.1663 C   0  0  0  0  0  0  0  0  0  0  0  0
    9.4927  -16.0251   25.1565 C   0  0  0  0  0  0  0  0  0  0  0  0
    9.8246  -17.2407   25.1253 O   0  0  0  0  0  0  0  0  0  0  0  0
    9.6323  -14.5209   29.1678 C   0  0  0  0  0  0  0  0  0  0  0  0
   10.8983  -14.9181   28.4585 C   0  0  2  0  0  0  0  0  0  0  0  0
   11.5715  -13.6686   27.9516 C   0  0  0  0  0  0  0  0  0  0  0  0
   10.6734  -15.9282   27.3638 C   0  0  2  0  0  0  0  0  0  0  0  0
    9.8756  -15.2975   26.3153 N   0  0  0  0  0  0  0  0  0  0  0  0
    9.9255  -17.0672   27.9840 C   0  0  0  0  0  0  0  0  0  0  0  0
    8.7076  -17.1519   27.7704 O   0  0  0  0  0  0  0  0  0  0  0  0
   10.6344  -17.9556   28.7563 O   0  0  0  0  0  0  0  0  0  0  0  0
  2  1  1  0
  3  2  1  0
  3  4  1  1
  5  3  1  0
  6  5  2  0
  7  5  1  0
  8  7  1  0
  8  9  1  1
  9 10  1  0
 10 15  2  0
 10 11  1  0
 11 12  2  0
 12 13  1  0
 14 13  2  0
 15 14  1  0
 16 22  1  0
 16  8  1  0
 17 16  2  0
 19 18  1  6
 19 21  1  0
 20 19  1  0
 21 23  1  0
 21 22  1  6
 23 25  1  0
 24 23  2  0
M  END
$$$$
