SFV.pdb
     RDKit          3D

 25 25  0  0  1  0  0  0  0  0999 V2000
   12.1725  -18.4519   22.1319 O   0  0  0  0  0  0  0  0  0  0  0  0
   11.0041  -18.3167   21.4016 C   0  0  0  0  0  0  0  0  0  0  0  0
   10.8594  -16.8454   20.9840 C   0  0  2  0  0  0  0  0  0  0  0  0
   12.1133  -16.3513   20.4922 N   0  0  0  0  0  0  0  0  0  0  0  0
   10.5121  -16.1158   22.2255 C   0  0  0  0  0  0  0  0  0  0  0  0
   11.4481  -15.5261   22.8318 O   0  0  0  0  0  0  0  0  0  0  0  0
    9.1781  -16.0927   22.6960 N   0  0  0  0  0  0  0  0  0  0  0  0
    8.8598  -15.2917   23.8531 C   0  0  1  0  0  0  0  0  0  0  0  0
    7.4096  -14.8988   23.8166 C   0  0  0  0  0  0  0  0  0  0  0  0
    7.0197  -13.9171   24.8322 C   0  0  0  0  0  0  0  0  0  0  0  0
    7.4114  -12.6002   24.7884 C   0  0  0  0  0  0  0  0  0  0  0  0
    7.0145  -11.6995   25.7863 C   0  0  0  0  0  0  0  0  0  0  0  0
    6.2239  -12.1158   26.8314 C   0  0  0  0  0  0  0  0  0  0  0  0
    5.8313  -13.4279   26.8784 C   0  0  0  0  0  0  0  0  0  0  0  0
    6.2304  -14.3006   25.8888 C   0  0  0  0  0  0  0  0  0  0  0  0
    9.2782  -15.9763   25.0697 C   0  0  0  0  0  0  0  0  0  0  0  0
    9.2661  -17.2256   25.2364 O   0  0  0  0  0  0  0  0  0  0  0  0
    9.4627  -14.1318   28.9897 C   0  0  0  0  0  0  0  0  0  0  0  0
   10.6644  -14.7657   28.3434 C   0  0  2  0  0  0  0  0  0  0  0  0
   11.5029  -13.6758   27.7266 C   0  0  0  0  0  0  0  0  0  0  0  0
   10.3064  -15.8402   27.3501 C   0  0  2  0  0  0  0  0  0  0  0  0
    9.7385  -15.1994   26.1666 N   0  0  0  0  0  0  0  0  0  0  0  0
    9.2899  -16.7137   28.0171 C   0  0  0  0  0  0  0  0  0  0  0  0
    8.0983  -16.5620   27.7116 O   0  0  0  0  0  0  0  0  0  0  0  0
    9.7378  -17.6359   28.9322 O   0  0  0  0  0  0  0  0  0  0  0  0
  2  1  1  0
  3  2  1  0
  3  4  1  1
  5  3  1  0
  6  5  2  0
  7  5  1  0
  8  7  1  0
  8  9  1  1
  9 10  1  0
 10 15  2  0
 10 11  1  0
 11 12  2  0
 12 13  1  0
 14 13  2  0
 15 14  1  0
 16 22  1  0
 16  8  1  0
 17 16  2  0
 19 18  1  6
 19 21  1  0
 20 19  1  0
 21 23  1  0
 21 22  1  6
 23 25  1  0
 24 23  2  0
M  END
$$$$
