SFV.pdb
     RDKit          3D

 25 25  0  0  1  0  0  0  0  0999 V2000
    9.8118  -18.9806   19.9154 O   0  0  0  0  0  0  0  0  0  0  0  0
    9.8933  -18.2395   21.0819 C   0  0  0  0  0  0  0  0  0  0  0  0
   10.0346  -16.7565   20.7068 C   0  0  2  0  0  0  0  0  0  0  0  0
   11.3300  -16.5174   20.1385 N   0  0  0  0  0  0  0  0  0  0  0  0
    9.9293  -16.0150   21.9849 C   0  0  0  0  0  0  0  0  0  0  0  0
   11.0048  -15.6395   22.5270 O   0  0  0  0  0  0  0  0  0  0  0  0
    8.6639  -15.7482   22.5586 N   0  0  0  0  0  0  0  0  0  0  0  0
    8.6013  -15.0257   23.8059 C   0  0  1  0  0  0  0  0  0  0  0  0
    7.3030  -14.2736   23.8936 C   0  0  0  0  0  0  0  0  0  0  0  0
    7.1376  -13.4865   25.1184 C   0  0  0  0  0  0  0  0  0  0  0  0
    7.7573  -12.2759   25.3186 C   0  0  0  0  0  0  0  0  0  0  0  0
    7.5699  -11.5616   26.5098 C   0  0  0  0  0  0  0  0  0  0  0  0
    6.7609  -12.0583   27.5044 C   0  0  0  0  0  0  0  0  0  0  0  0
    6.1414  -13.2649   27.3086 C   0  0  0  0  0  0  0  0  0  0  0  0
    6.3364  -13.9545   26.1310 C   0  0  0  0  0  0  0  0  0  0  0  0
    8.8645  -15.9249   24.9222 C   0  0  0  0  0  0  0  0  0  0  0  0
    8.2695  -17.0172   25.1259 O   0  0  0  0  0  0  0  0  0  0  0  0
   12.4942  -15.3112   27.1096 C   0  0  0  0  0  0  0  0  0  0  0  0
   11.7988  -16.6164   26.8328 C   0  0  2  0  0  0  0  0  0  0  0  0
   12.2826  -17.1409   25.5054 C   0  0  0  0  0  0  0  0  0  0  0  0
   10.2971  -16.5128   26.8914 C   0  0  2  0  0  0  0  0  0  0  0  0
    9.8628  -15.5661   25.8674 N   0  0  0  0  0  0  0  0  0  0  0  0
    9.9593  -16.0045   28.2584 C   0  0  0  0  0  0  0  0  0  0  0  0
   10.0648  -16.7856   29.2150 O   0  0  0  0  0  0  0  0  0  0  0  0
    9.5507  -14.6977   28.3742 O   0  0  0  0  0  0  0  0  0  0  0  0
  2  1  1  0
  3  2  1  0
  3  4  1  1
  5  3  1  0
  6  5  2  0
  7  5  1  0
  8  7  1  0
  8  9  1  1
  9 10  1  0
 10 15  2  0
 10 11  1  0
 11 12  2  0
 12 13  1  0
 14 13  2  0
 15 14  1  0
 16 22  1  0
 16  8  1  0
 17 16  2  0
 19 18  1  6
 19 21  1  0
 20 19  1  0
 21 23  1  0
 21 22  1  6
 23 25  1  0
 24 23  2  0
M  END
$$$$
