SFV.pdb
     RDKit          3D

 25 25  0  0  1  0  0  0  0  0999 V2000
   11.6083  -18.6212   22.2625 O   0  0  0  0  0  0  0  0  0  0  0  0
   10.6151  -18.4500   21.3133 C   0  0  0  0  0  0  0  0  0  0  0  0
   10.5514  -16.9614   20.9394 C   0  0  2  0  0  0  0  0  0  0  0  0
   11.8088  -16.5409   20.3912 N   0  0  0  0  0  0  0  0  0  0  0  0
   10.3225  -16.2441   22.2151 C   0  0  0  0  0  0  0  0  0  0  0  0
   11.3264  -15.7259   22.7764 O   0  0  0  0  0  0  0  0  0  0  0  0
    9.0225  -16.1547   22.7658 N   0  0  0  0  0  0  0  0  0  0  0  0
    8.8088  -15.3129   23.9181 C   0  0  1  0  0  0  0  0  0  0  0  0
    7.3979  -14.7953   23.9154 C   0  0  0  0  0  0  0  0  0  0  0  0
    7.1240  -13.7708   24.9265 C   0  0  0  0  0  0  0  0  0  0  0  0
    7.5557  -12.4709   24.8099 C   0  0  0  0  0  0  0  0  0  0  0  0
    7.2707  -11.5275   25.8066 C   0  0  0  0  0  0  0  0  0  0  0  0
    6.5523  -11.8839   26.9235 C   0  0  0  0  0  0  0  0  0  0  0  0
    6.1203  -13.1789   27.0433 C   0  0  0  0  0  0  0  0  0  0  0  0
    6.4091  -14.0941   26.0538 C   0  0  0  0  0  0  0  0  0  0  0  0
    9.2012  -16.0147   25.1336 C   0  0  0  0  0  0  0  0  0  0  0  0
    9.1461  -17.2633   25.2969 O   0  0  0  0  0  0  0  0  0  0  0  0
    9.7109  -14.1470   28.9815 C   0  0  0  0  0  0  0  0  0  0  0  0
   10.8561  -14.8376   28.2921 C   0  0  2  0  0  0  0  0  0  0  0  0
   11.7147  -13.7901   27.6311 C   0  0  0  0  0  0  0  0  0  0  0  0
   10.4109  -15.9029   27.3245 C   0  0  2  0  0  0  0  0  0  0  0  0
    9.6858  -15.2568   26.2334 N   0  0  0  0  0  0  0  0  0  0  0  0
    9.5079  -16.8204   28.0888 C   0  0  0  0  0  0  0  0  0  0  0  0
    8.2879  -16.7443   27.8835 O   0  0  0  0  0  0  0  0  0  0  0  0
   10.0852  -17.6963   28.9763 O   0  0  0  0  0  0  0  0  0  0  0  0
  2  1  1  0
  3  2  1  0
  3  4  1  1
  5  3  1  0
  6  5  2  0
  7  5  1  0
  8  7  1  0
  8  9  1  1
  9 10  1  0
 10 15  2  0
 10 11  1  0
 11 12  2  0
 12 13  1  0
 14 13  2  0
 15 14  1  0
 16 22  1  0
 16  8  1  0
 17 16  2  0
 19 18  1  6
 19 21  1  0
 20 19  1  0
 21 23  1  0
 21 22  1  6
 23 25  1  0
 24 23  2  0
M  END
$$$$
