RAY.pdb
     RDKit          3D

 29 29  0  0  1  0  0  0  0  0999 V2000
   22.9167  -13.1581  -20.0097 N   0  0  0  0  0  0  0  0  0  0  0  0
   23.7679  -12.0660  -19.7039 C   0  0  0  0  0  0  0  0  0  0  0  0
   23.6699  -10.9350  -20.3571 N   0  0  0  0  0  0  0  0  0  0  0  0
   24.7265  -12.2326  -18.6721 N   0  0  0  0  0  0  0  0  0  0  0  0
   24.7609  -13.4409  -17.9057 C   0  0  0  0  0  0  0  0  0  0  0  0
   24.1916  -13.2614  -16.5136 C   0  0  0  0  0  0  0  0  0  0  0  0
   24.2372  -14.5403  -15.7287 C   0  0  0  0  0  0  0  0  0  0  0  0
   23.4461  -15.6030  -16.4236 C   0  0  2  0  0  0  0  0  0  0  0  0
   22.0502  -15.2819  -16.5631 N   0  0  0  0  0  0  0  0  0  0  0  0
   23.6434  -16.9086  -15.7195 C   0  0  0  0  0  0  0  0  0  0  0  0
   23.6184  -16.9911  -14.4864 O   0  0  0  0  0  0  0  0  0  0  0  0
   24.2637  -10.1505  -20.0729 C   0  0  0  0  0  0  0  0  0  0  0  0
   23.8667  -20.5094  -16.9139 C   0  0  1  0  0  0  0  0  0  0  0  0
   24.0901  -19.3831  -15.9472 N   0  0  0  0  0  0  0  0  0  0  0  0
   23.8656  -18.0886  -16.4700 C   0  0  0  0  0  0  0  0  0  0  0  0
   25.4802  -19.4881  -15.4462 O   0  0  0  0  0  0  0  0  0  0  0  0
   26.4525  -19.1171  -16.1570 O   0  0  0  0  0  0  0  0  0  0  0  0
   23.0353  -21.2160   -8.7156 C   0  0  0  0  0  0  0  0  0  0  0  0
   24.0404  -20.8152   -9.5839 C   0  0  0  0  0  0  0  0  0  0  0  0
   25.3412  -21.2572   -9.4464 C   0  0  0  0  0  0  0  0  0  0  0  0
   26.3314  -20.8503  -10.3172 C   0  0  0  0  0  0  0  0  0  0  0  0
   26.0911  -19.9895  -11.3651 C   0  0  0  0  0  0  0  0  0  0  0  0
   27.1418  -19.5384  -12.3124 C   0  0  1  0  0  0  0  0  0  0  0  0
   27.0364  -20.1995  -13.6629 N   0  0  0  0  0  0  0  0  0  0  0  0
   25.7037  -20.0105  -14.1587 C   0  0  0  0  0  0  0  0  0  0  0  0
   27.3847  -21.6496  -13.5448 O   0  0  0  0  0  0  0  0  0  0  0  0
   26.5039  -22.6881  -13.6529 C   0  0  0  0  0  0  0  0  0  0  0  0
   24.7765  -19.5434  -11.5029 C   0  0  0  0  0  0  0  0  0  0  0  0
   23.7922  -19.9520  -10.6321 O   0  0  0  0  0  0  0  0  0  0  0  0
  1  2  1  0
  2  3  2  0
  4  5  1  0
  4  2  1  0
  6  5  1  0
  7  6  1  0
  8  9  1  1
  8  7  1  0
 10  8  1  0
 11 10  2  0
 13 12  1  1
 13 14  1  0
 14 10  1  0
 15 13  1  0
 15 24  1  0
 16 15  2  0
 17 18  1  0
 18 28  2  0
 19 18  1  0
 19 20  2  0
 20 21  1  0
 21 27  2  0
 21 22  1  0
 23 22  1  6
 23 24  1  0
 23 25  1  0
 25 29  2  0
 25 26  1  0
 28 27  1  0
M  END
$$$$
