RAY.pdb
     RDKit          3D

 29 29  0  0  1  0  0  0  0  0999 V2000
   30.9390  -22.8628  -11.5048 N   0  0  0  0  0  0  0  0  0  0  0  0
   30.8064  -21.5086  -11.1055 C   0  0  0  0  0  0  0  0  0  0  0  0
   31.8395  -20.8337  -10.6668 N   0  0  0  0  0  0  0  0  0  0  0  0
   29.5254  -20.9066  -11.1951 N   0  0  0  0  0  0  0  0  0  0  0  0
   28.4188  -21.6382  -11.7323 C   0  0  0  0  0  0  0  0  0  0  0  0
   28.3780  -21.6001  -13.2460 C   0  0  0  0  0  0  0  0  0  0  0  0
   27.1585  -22.2911  -13.7835 C   0  0  0  0  0  0  0  0  0  0  0  0
   27.1910  -22.3105  -15.2790 C   0  0  2  0  0  0  0  0  0  0  0  0
   28.4049  -21.7731  -15.8347 N   0  0  0  0  0  0  0  0  0  0  0  0
   25.9826  -21.6061  -15.8107 C   0  0  0  0  0  0  0  0  0  0  0  0
   25.9404  -20.3747  -15.9096 O   0  0  0  0  0  0  0  0  0  0  0  0
   31.6904  -19.8874  -10.3047 C   0  0  0  0  0  0  0  0  0  0  0  0
   22.7042  -22.7228  -17.3619 C   0  0  1  0  0  0  0  0  0  0  0  0
   23.5680  -21.8376  -16.5115 N   0  0  0  0  0  0  0  0  0  0  0  0
   24.8504  -22.3544  -16.2149 C   0  0  0  0  0  0  0  0  0  0  0  0
   22.8338  -21.5643  -15.2544 O   0  0  0  0  0  0  0  0  0  0  0  0
   23.1748  -22.1168  -14.1743 O   0  0  0  0  0  0  0  0  0  0  0  0
   25.2015  -20.9688   -9.0232 C   0  0  0  0  0  0  0  0  0  0  0  0
   24.5175  -20.5079  -10.1389 C   0  0  0  0  0  0  0  0  0  0  0  0
   23.1815  -20.1640  -10.0838 C   0  0  0  0  0  0  0  0  0  0  0  0
   22.5132  -19.7072  -11.2014 C   0  0  0  0  0  0  0  0  0  0  0  0
   23.1254  -19.5662  -12.4269 C   0  0  0  0  0  0  0  0  0  0  0  0
   22.4248  -19.0778  -13.6416 C   0  0  2  0  0  0  0  0  0  0  0  0
   21.3180  -19.9979  -14.0896 N   0  0  0  0  0  0  0  0  0  0  0  0
   21.7437  -20.6745  -15.2806 C   0  0  0  0  0  0  0  0  0  0  0  0
   20.0661  -19.2105  -14.3154 O   0  0  0  0  0  0  0  0  0  0  0  0
   19.7409  -18.5509  -15.4666 C   0  0  0  0  0  0  0  0  0  0  0  0
   24.4753  -19.9142  -12.4814 C   0  0  0  0  0  0  0  0  0  0  0  0
   25.1377  -20.3693  -11.3642 O   0  0  0  0  0  0  0  0  0  0  0  0
  1  2  1  0
  2  3  2  0
  4  5  1  0
  4  2  1  0
  6  5  1  0
  7  6  1  0
  8  9  1  6
  8  7  1  0
 10  8  1  0
 11 10  2  0
 13 12  1  6
 13 14  1  0
 14 10  1  0
 15 13  1  0
 15 24  1  0
 16 15  2  0
 17 18  1  0
 18 28  2  0
 19 18  1  0
 19 20  2  0
 20 21  1  0
 21 27  2  0
 21 22  1  0
 23 22  1  1
 23 24  1  0
 23 25  1  0
 25 29  2  0
 25 26  1  0
 28 27  1  0
M  END
$$$$
