RAY.pdb
     RDKit          3D

 29 29  0  0  1  0  0  0  0  0999 V2000
   11.1150  -12.1131   -9.9693 N   0  0  0  0  0  0  0  0  0  0  0  0
   10.2939  -12.2152  -11.1209 C   0  0  0  0  0  0  0  0  0  0  0  0
    9.0096  -11.9674  -11.0538 N   0  0  0  0  0  0  0  0  0  0  0  0
   10.9019  -12.5920  -12.3454 N   0  0  0  0  0  0  0  0  0  0  0  0
   12.3156  -12.4557  -12.5227 C   0  0  0  0  0  0  0  0  0  0  0  0
   12.8108  -11.0641  -12.1871 C   0  0  0  0  0  0  0  0  0  0  0  0
   14.3017  -10.9591  -12.3281 C   0  0  0  0  0  0  0  0  0  0  0  0
   14.6594  -10.4672  -13.6948 C   0  0  2  0  0  0  0  0  0  0  0  0
   15.1997  -11.4901  -14.5509 N   0  0  0  0  0  0  0  0  0  0  0  0
   15.5897   -9.3013  -13.5747 C   0  0  0  0  0  0  0  0  0  0  0  0
   16.8144   -9.4531  -13.5033 O   0  0  0  0  0  0  0  0  0  0  0  0
    8.4561  -12.0065  -11.9146 C   0  0  0  0  0  0  0  0  0  0  0  0
   15.1024   -5.5272  -13.6744 C   0  0  1  0  0  0  0  0  0  0  0  0
   15.8062   -6.8003  -13.3046 N   0  0  0  0  0  0  0  0  0  0  0  0
   15.0702   -7.9846  -13.5403 C   0  0  0  0  0  0  0  0  0  0  0  0
   16.1721   -6.7134  -11.8719 O   0  0  0  0  0  0  0  0  0  0  0  0
   15.7952   -7.5956  -11.0545 O   0  0  0  0  0  0  0  0  0  0  0  0
   22.7785   -6.7106  -13.3942 C   0  0  0  0  0  0  0  0  0  0  0  0
   21.6972   -6.7151  -12.5249 C   0  0  0  0  0  0  0  0  0  0  0  0
   20.8241   -7.7824  -12.4536 C   0  0  0  0  0  0  0  0  0  0  0  0
   19.7522   -7.7735  -11.5845 C   0  0  0  0  0  0  0  0  0  0  0  0
   19.4865   -6.7157  -10.7437 C   0  0  0  0  0  0  0  0  0  0  0  0
   18.3385   -6.6855   -9.8023 C   0  0  1  0  0  0  0  0  0  0  0  0
   17.3918   -5.5431  -10.0689 N   0  0  0  0  0  0  0  0  0  0  0  0
   16.9506   -5.6269  -11.4312 C   0  0  0  0  0  0  0  0  0  0  0  0
   18.0755   -4.2430   -9.7855 O   0  0  0  0  0  0  0  0  0  0  0  0
   18.4325   -3.3142  -10.7213 C   0  0  0  0  0  0  0  0  0  0  0  0
   20.3692   -5.6379  -10.8168 C   0  0  0  0  0  0  0  0  0  0  0  0
   21.4370   -5.6511  -11.6850 O   0  0  0  0  0  0  0  0  0  0  0  0
  1  2  1  0
  2  3  2  0
  4  5  1  0
  4  2  1  0
  6  5  1  0
  7  6  1  0
  8  9  1  6
  8  7  1  0
 10  8  1  0
 11 10  2  0
 13 12  1  6
 13 14  1  0
 14 10  1  0
 15 13  1  0
 15 24  1  0
 16 15  2  0
 17 18  1  0
 18 28  2  0
 19 18  1  0
 19 20  2  0
 20 21  1  0
 21 27  2  0
 21 22  1  0
 23 22  1  1
 23 24  1  0
 23 25  1  0
 25 29  2  0
 25 26  1  0
 28 27  1  0
M  END
$$$$
