RAY.pdb
     RDKit          3D

 29 29  0  0  1  0  0  0  0  0999 V2000
   31.8986  -27.4094  -19.8973 N   0  0  0  0  0  0  0  0  0  0  0  0
   32.7197  -27.2566  -18.7513 C   0  0  0  0  0  0  0  0  0  0  0  0
   33.9581  -27.6830  -18.7510 N   0  0  0  0  0  0  0  0  0  0  0  0
   32.1630  -26.6295  -17.6076 N   0  0  0  0  0  0  0  0  0  0  0  0
   31.0689  -25.7169  -17.7441 C   0  0  0  0  0  0  0  0  0  0  0  0
   31.4285  -24.3110  -17.3098 C   0  0  0  0  0  0  0  0  0  0  0  0
   30.2602  -23.3771  -17.4386 C   0  0  0  0  0  0  0  0  0  0  0  0
   29.2230  -23.7000  -16.4102 C   0  0  2  0  0  0  0  0  0  0  0  0
   28.4884  -24.9048  -16.6930 N   0  0  0  0  0  0  0  0  0  0  0  0
   28.3110  -22.5260  -16.2396 C   0  0  0  0  0  0  0  0  0  0  0  0
   28.7496  -21.3814  -16.0796 O   0  0  0  0  0  0  0  0  0  0  0  0
   34.5223  -27.5527  -17.9063 C   0  0  0  0  0  0  0  0  0  0  0  0
   24.8662  -21.7235  -17.2131 C   0  0  2  0  0  0  0  0  0  0  0  0
   25.9262  -21.7016  -16.1507 N   0  0  0  0  0  0  0  0  0  0  0  0
   26.9077  -22.7138  -16.2594 C   0  0  0  0  0  0  0  0  0  0  0  0
   25.2494  -21.7976  -14.8365 O   0  0  0  0  0  0  0  0  0  0  0  0
   25.6985  -22.5522  -13.9326 O   0  0  0  0  0  0  0  0  0  0  0  0
   22.3229  -20.0361   -7.0536 C   0  0  0  0  0  0  0  0  0  0  0  0
   22.8442  -20.1092   -8.3373 C   0  0  0  0  0  0  0  0  0  0  0  0
   24.1238  -20.5681   -8.5790 C   0  0  0  0  0  0  0  0  0  0  0  0
   24.6298  -20.6353   -9.8611 C   0  0  0  0  0  0  0  0  0  0  0  0
   23.9031  -20.2550  -10.9673 C   0  0  0  0  0  0  0  0  0  0  0  0
   24.4289  -20.3182  -12.3546 C   0  0  2  0  0  0  0  0  0  0  0  0
   23.4792  -20.9929  -13.3112 N   0  0  0  0  0  0  0  0  0  0  0  0
   24.0913  -21.0314  -14.6079 C   0  0  0  0  0  0  0  0  0  0  0  0
   22.1765  -20.2575  -13.3335 O   0  0  0  0  0  0  0  0  0  0  0  0
   21.9682  -19.0303  -13.8960 C   0  0  0  0  0  0  0  0  0  0  0  0
   22.6105  -19.7913  -10.7219 C   0  0  0  0  0  0  0  0  0  0  0  0
   22.1098  -19.7261   -9.4415 O   0  0  0  0  0  0  0  0  0  0  0  0
  1  2  1  0
  2  3  2  0
  4  5  1  0
  4  2  1  0
  6  5  1  0
  7  6  1  0
  8  9  1  6
  8  7  1  0
 10  8  1  0
 11 10  2  0
 13 12  1  6
 13 14  1  0
 14 10  1  0
 15 13  1  0
 15 24  1  0
 16 15  2  0
 17 18  1  0
 18 28  2  0
 19 18  1  0
 19 20  2  0
 20 21  1  0
 21 27  2  0
 21 22  1  0
 23 22  1  1
 23 24  1  0
 23 25  1  0
 25 29  2  0
 25 26  1  0
 28 27  1  0
M  END
$$$$
