RAY.pdb
     RDKit          3D

 29 29  0  0  1  0  0  0  0  0999 V2000
   24.5248  -15.8190  -20.4387 N   0  0  0  0  0  0  0  0  0  0  0  0
   23.7274  -14.8675  -19.7535 C   0  0  0  0  0  0  0  0  0  0  0  0
   23.4463  -13.7102  -20.2983 N   0  0  0  0  0  0  0  0  0  0  0  0
   23.2434  -15.2043  -18.4637 N   0  0  0  0  0  0  0  0  0  0  0  0
   23.6410  -16.4293  -17.8394 C   0  0  0  0  0  0  0  0  0  0  0  0
   22.7907  -17.6049  -18.2746 C   0  0  0  0  0  0  0  0  0  0  0  0
   23.1983  -18.8700  -17.5767 C   0  0  0  0  0  0  0  0  0  0  0  0
   24.6382  -19.1709  -17.8489 C   0  0  2  0  0  0  0  0  0  0  0  0
   24.8448  -19.9814  -19.0200 N   0  0  0  0  0  0  0  0  0  0  0  0
   25.2537  -19.7912  -16.6341 C   0  0  0  0  0  0  0  0  0  0  0  0
   24.7336  -20.7571  -16.0645 O   0  0  0  0  0  0  0  0  0  0  0  0
   22.8821  -13.0409  -19.7666 C   0  0  0  0  0  0  0  0  0  0  0  0
   28.4758  -19.0961  -14.7068 C   0  0  1  0  0  0  0  0  0  0  0  0
   27.1266  -19.7099  -14.9428 N   0  0  0  0  0  0  0  0  0  0  0  0
   26.4620  -19.2703  -16.1110 C   0  0  0  0  0  0  0  0  0  0  0  0
   26.2894  -19.4295  -13.7534 O   0  0  0  0  0  0  0  0  0  0  0  0
   25.4242  -18.5135  -13.7742 O   0  0  0  0  0  0  0  0  0  0  0  0
   20.2197  -19.9455   -7.8744 C   0  0  0  0  0  0  0  0  0  0  0  0
   21.1934  -20.0970   -8.8511 C   0  0  0  0  0  0  0  0  0  0  0  0
   22.2677  -20.9479   -8.6831 C   0  0  0  0  0  0  0  0  0  0  0  0
   23.2293  -21.0887   -9.6628 C   0  0  0  0  0  0  0  0  0  0  0  0
   23.1817  -20.4005  -10.8547 C   0  0  0  0  0  0  0  0  0  0  0  0
   24.2061  -20.5365  -11.9210 C   0  0  2  0  0  0  0  0  0  0  0  0
   25.5749  -20.0845  -11.4800 N   0  0  0  0  0  0  0  0  0  0  0  0
   26.4729  -20.2032  -12.5922 C   0  0  0  0  0  0  0  0  0  0  0  0
   26.0259  -20.9034  -10.3120 O   0  0  0  0  0  0  0  0  0  0  0  0
   25.9810  -20.5115   -9.0042 C   0  0  0  0  0  0  0  0  0  0  0  0
   22.0960  -19.5409  -11.0232 C   0  0  0  0  0  0  0  0  0  0  0  0
   21.1392  -19.4036  -10.0434 O   0  0  0  0  0  0  0  0  0  0  0  0
  1  2  1  0
  2  3  2  0
  4  5  1  0
  4  2  1  0
  6  5  1  0
  7  6  1  0
  8  9  1  6
  8  7  1  0
 10  8  1  0
 11 10  2  0
 13 12  1  6
 13 14  1  0
 14 10  1  0
 15 13  1  0
 15 24  1  0
 16 15  2  0
 17 18  1  0
 18 28  2  0
 19 18  1  0
 19 20  2  0
 20 21  1  0
 21 27  2  0
 21 22  1  0
 23 22  1  6
 23 24  1  0
 23 25  1  0
 25 29  2  0
 25 26  1  0
 28 27  1  0
M  END
$$$$
