RAY.pdb
     RDKit          3D

 29 29  0  0  1  0  0  0  0  0999 V2000
   27.9648  -27.2246  -16.3219 N   0  0  0  0  0  0  0  0  0  0  0  0
   27.5361  -26.7919  -17.6024 C   0  0  0  0  0  0  0  0  0  0  0  0
   27.6574  -27.5696  -18.6493 N   0  0  0  0  0  0  0  0  0  0  0  0
   26.9727  -25.4955  -17.7171 N   0  0  0  0  0  0  0  0  0  0  0  0
   26.0766  -25.0054  -16.7145 C   0  0  0  0  0  0  0  0  0  0  0  0
   24.6386  -24.9698  -17.1890 C   0  0  0  0  0  0  0  0  0  0  0  0
   23.7377  -24.3274  -16.1744 C   0  0  0  0  0  0  0  0  0  0  0  0
   24.5450  -23.5516  -15.1823 C   0  0  2  0  0  0  0  0  0  0  0  0
   24.5934  -24.1600  -13.8790 N   0  0  0  0  0  0  0  0  0  0  0  0
   24.0331  -22.1470  -15.1160 C   0  0  0  0  0  0  0  0  0  0  0  0
   23.3054  -21.7645  -14.1928 O   0  0  0  0  0  0  0  0  0  0  0  0
   27.4295  -27.1896  -19.5726 C   0  0  0  0  0  0  0  0  0  0  0  0
   24.6694  -19.0583  -17.2686 C   0  0  1  0  0  0  0  0  0  0  0  0
   24.0272  -19.8520  -16.1683 N   0  0  0  0  0  0  0  0  0  0  0  0
   24.3814  -21.2204  -16.1283 C   0  0  0  0  0  0  0  0  0  0  0  0
   22.5591  -19.7174  -16.3131 O   0  0  0  0  0  0  0  0  0  0  0  0
   21.8926  -20.5724  -16.9558 O   0  0  0  0  0  0  0  0  0  0  0  0
   19.2521  -22.4688  -10.9389 C   0  0  0  0  0  0  0  0  0  0  0  0
   19.4336  -21.3918  -11.7945 C   0  0  0  0  0  0  0  0  0  0  0  0
   20.5665  -20.6042  -11.7443 C   0  0  0  0  0  0  0  0  0  0  0  0
   20.7339  -19.5355  -12.6012 C   0  0  0  0  0  0  0  0  0  0  0  0
   19.7963  -19.1892  -13.5486 C   0  0  0  0  0  0  0  0  0  0  0  0
   19.9562  -18.0431  -14.4791 C   0  0  2  0  0  0  0  0  0  0  0  0
   20.4921  -18.4528  -15.8271 N   0  0  0  0  0  0  0  0  0  0  0  0
   21.9132  -18.6163  -15.7207 C   0  0  0  0  0  0  0  0  0  0  0  0
   20.1264  -17.4247  -16.8505 O   0  0  0  0  0  0  0  0  0  0  0  0
   18.8671  -17.1922  -17.3262 C   0  0  0  0  0  0  0  0  0  0  0  0
   18.6520  -19.9855  -13.5983 C   0  0  0  0  0  0  0  0  0  0  0  0
   18.4893  -21.0505  -12.7417 O   0  0  0  0  0  0  0  0  0  0  0  0
  1  2  1  0
  2  3  2  0
  4  5  1  0
  4  2  1  0
  6  5  1  0
  7  6  1  0
  8  9  1  1
  8  7  1  0
 10  8  1  0
 11 10  2  0
 13 12  1  1
 13 14  1  0
 14 10  1  0
 15 13  1  0
 15 24  1  0
 16 15  2  0
 17 18  1  0
 18 28  2  0
 19 18  1  0
 19 20  2  0
 20 21  1  0
 21 27  2  0
 21 22  1  0
 23 22  1  1
 23 24  1  0
 23 25  1  0
 25 29  2  0
 25 26  1  0
 28 27  1  0
M  END
$$$$
