RAY.pdb
     RDKit          3D

 29 29  0  0  1  0  0  0  0  0999 V2000
   17.4603  -15.4540  -20.8654 N   0  0  0  0  0  0  0  0  0  0  0  0
   18.0678  -15.8071  -19.6337 C   0  0  0  0  0  0  0  0  0  0  0  0
   17.4566  -16.5960  -18.7856 N   0  0  0  0  0  0  0  0  0  0  0  0
   19.3540  -15.2830  -19.3471 N   0  0  0  0  0  0  0  0  0  0  0  0
   19.9846  -14.3764  -20.2575 C   0  0  0  0  0  0  0  0  0  0  0  0
   21.3375  -13.9064  -19.7645 C   0  0  0  0  0  0  0  0  0  0  0  0
   21.9919  -12.9788  -20.7468 C   0  0  0  0  0  0  0  0  0  0  0  0
   23.3577  -12.5985  -20.2695 C   0  0  2  0  0  0  0  0  0  0  0  0
   24.1203  -13.7095  -19.7644 N   0  0  0  0  0  0  0  0  0  0  0  0
   23.2421  -11.5036  -19.2560 C   0  0  0  0  0  0  0  0  0  0  0  0
   22.9361  -11.7365  -18.0812 O   0  0  0  0  0  0  0  0  0  0  0  0
   17.9299  -16.8368  -17.9098 C   0  0  0  0  0  0  0  0  0  0  0  0
   23.8424   -7.7352  -19.4286 C   0  0  1  0  0  0  0  0  0  0  0  0
   23.4205   -9.0279  -18.7934 N   0  0  0  0  0  0  0  0  0  0  0  0
   23.4858  -10.1615  -19.6361 C   0  0  0  0  0  0  0  0  0  0  0  0
   22.0374   -8.8538  -18.2924 O   0  0  0  0  0  0  0  0  0  0  0  0
   21.0476   -9.1641  -19.0081 O   0  0  0  0  0  0  0  0  0  0  0  0
   22.5674   -9.8979  -10.6378 C   0  0  0  0  0  0  0  0  0  0  0  0
   21.9721   -9.7759  -11.8851 C   0  0  0  0  0  0  0  0  0  0  0  0
   22.4933  -10.3933  -13.0047 C   0  0  0  0  0  0  0  0  0  0  0  0
   21.8911  -10.2633  -14.2396 C   0  0  0  0  0  0  0  0  0  0  0  0
   20.7478   -9.5205  -14.4338 C   0  0  0  0  0  0  0  0  0  0  0  0
   20.0848   -9.3667  -15.7535 C   0  0  1  0  0  0  0  0  0  0  0  0
   20.5180   -8.1223  -16.4856 N   0  0  0  0  0  0  0  0  0  0  0  0
   21.8404   -8.3343  -16.9994 C   0  0  0  0  0  0  0  0  0  0  0  0
   20.4628   -6.9469  -15.5618 O   0  0  0  0  0  0  0  0  0  0  0  0
   19.3248   -6.4043  -15.0360 C   0  0  0  0  0  0  0  0  0  0  0  0
   20.2222   -8.8970  -13.3019 C   0  0  0  0  0  0  0  0  0  0  0  0
   20.8262   -9.0295  -12.0723 O   0  0  0  0  0  0  0  0  0  0  0  0
  1  2  1  0
  2  3  2  0
  4  5  1  0
  4  2  1  0
  6  5  1  0
  7  6  1  0
  8  9  1  1
  8  7  1  0
 10  8  1  0
 11 10  2  0
 13 12  1  1
 13 14  1  0
 14 10  1  0
 15 13  1  0
 15 24  1  0
 16 15  2  0
 17 18  1  0
 18 28  2  0
 19 18  1  0
 19 20  2  0
 20 21  1  0
 21 27  2  0
 21 22  1  0
 23 22  1  6
 23 24  1  0
 23 25  1  0
 25 29  2  0
 25 26  1  0
 28 27  1  0
M  END
$$$$
