RAY.pdb
     RDKit          3D

 29 29  0  0  1  0  0  0  0  0999 V2000
   19.0499  -22.2343  -19.4868 N   0  0  0  0  0  0  0  0  0  0  0  0
   18.3832  -21.7922  -18.3160 C   0  0  0  0  0  0  0  0  0  0  0  0
   17.5290  -20.8006  -18.3637 N   0  0  0  0  0  0  0  0  0  0  0  0
   18.6669  -22.4536  -17.0939 N   0  0  0  0  0  0  0  0  0  0  0  0
   19.7464  -22.0100  -16.2655 C   0  0  0  0  0  0  0  0  0  0  0  0
   20.8673  -21.3762  -17.0632 C   0  0  0  0  0  0  0  0  0  0  0  0
   21.9675  -20.8787  -16.1712 C   0  0  0  0  0  0  0  0  0  0  0  0
   22.0501  -21.7160  -14.9343 C   0  0  2  0  0  0  0  0  0  0  0  0
   20.9718  -22.6605  -14.8062 N   0  0  0  0  0  0  0  0  0  0  0  0
   22.1463  -20.8239  -13.7368 C   0  0  0  0  0  0  0  0  0  0  0  0
   21.6562  -19.6891  -13.7320 O   0  0  0  0  0  0  0  0  0  0  0  0
   17.0855  -20.4919  -17.4937 C   0  0  0  0  0  0  0  0  0  0  0  0
   22.9290  -21.1318  -10.1175 C   0  0  2  0  0  0  0  0  0  0  0  0
   23.1680  -20.4884  -11.4524 N   0  0  0  0  0  0  0  0  0  0  0  0
   22.8122  -21.2759  -12.5718 C   0  0  0  0  0  0  0  0  0  0  0  0
   24.6025  -20.1270  -11.5284 O   0  0  0  0  0  0  0  0  0  0  0  0
   25.0695  -19.1874  -10.8302 O   0  0  0  0  0  0  0  0  0  0  0  0
   27.3716  -19.5427   -6.1051 C   0  0  0  0  0  0  0  0  0  0  0  0
   27.4240  -20.0181   -7.4075 C   0  0  0  0  0  0  0  0  0  0  0  0
   28.5916  -19.9979   -8.1441 C   0  0  0  0  0  0  0  0  0  0  0  0
   28.6295  -20.4738   -9.4388 C   0  0  0  0  0  0  0  0  0  0  0  0
   27.5221  -20.9924  -10.0722 C   0  0  0  0  0  0  0  0  0  0  0  0
   27.5409  -21.5084  -11.4644 C   0  0  2  0  0  0  0  0  0  0  0  0
   26.8529  -20.5880  -12.4400 N   0  0  0  0  0  0  0  0  0  0  0  0
   25.4433  -20.8498  -12.3951 C   0  0  0  0  0  0  0  0  0  0  0  0
   27.4129  -20.7952  -13.8117 O   0  0  0  0  0  0  0  0  0  0  0  0
   28.6445  -20.3840  -14.2359 C   0  0  0  0  0  0  0  0  0  0  0  0
   26.3428  -21.0122   -9.3271 C   0  0  0  0  0  0  0  0  0  0  0  0
   26.3097  -20.5365   -8.0360 O   0  0  0  0  0  0  0  0  0  0  0  0
  1  2  1  0
  2  3  2  0
  4  5  1  0
  4  2  1  0
  6  5  1  0
  7  6  1  0
  8  9  1  1
  8  7  1  0
 10  8  1  0
 11 10  2  0
 13 12  1  1
 13 14  1  0
 14 10  1  0
 15 13  1  0
 15 24  1  0
 16 15  2  0
 17 18  1  0
 18 28  2  0
 19 18  1  0
 19 20  2  0
 20 21  1  0
 21 27  2  0
 21 22  1  0
 23 22  1  1
 23 24  1  0
 23 25  1  0
 25 29  2  0
 25 26  1  0
 28 27  1  0
M  END
$$$$
