RAY.pdb
     RDKit          3D

 29 29  0  0  1  0  0  0  0  0999 V2000
   20.4202  -14.1151  -15.3698 N   0  0  0  0  0  0  0  0  0  0  0  0
   19.1807  -14.6109  -15.8478 C   0  0  0  0  0  0  0  0  0  0  0  0
   18.1553  -13.8122  -16.0089 N   0  0  0  0  0  0  0  0  0  0  0  0
   19.0832  -15.9938  -16.1465 N   0  0  0  0  0  0  0  0  0  0  0  0
   20.1824  -16.8705  -15.8787 C   0  0  0  0  0  0  0  0  0  0  0  0
   20.0386  -17.5938  -14.5555 C   0  0  0  0  0  0  0  0  0  0  0  0
   21.2051  -18.5012  -14.2922 C   0  0  0  0  0  0  0  0  0  0  0  0
   21.1751  -19.6682  -15.2277 C   0  0  2  0  0  0  0  0  0  0  0  0
   20.2090  -20.6714  -14.8648 N   0  0  0  0  0  0  0  0  0  0  0  0
   22.5507  -20.2452  -15.3454 C   0  0  0  0  0  0  0  0  0  0  0  0
   22.9403  -21.1512  -14.6001 O   0  0  0  0  0  0  0  0  0  0  0  0
   17.2744  -14.2067  -16.3515 C   0  0  0  0  0  0  0  0  0  0  0  0
   25.2938  -20.0149  -17.9285 C   0  0  1  0  0  0  0  0  0  0  0  0
   24.7813  -20.1581  -16.5250 N   0  0  0  0  0  0  0  0  0  0  0  0
   23.4410  -19.7521  -16.3299 C   0  0  0  0  0  0  0  0  0  0  0  0
   25.6759  -19.3803  -15.6368 O   0  0  0  0  0  0  0  0  0  0  0  0
   26.1475  -18.2714  -16.0061 O   0  0  0  0  0  0  0  0  0  0  0  0
   23.1961  -21.0254   -9.0517 C   0  0  0  0  0  0  0  0  0  0  0  0
   24.2485  -20.9785   -9.9547 C   0  0  0  0  0  0  0  0  0  0  0  0
   25.2884  -20.0810   -9.8157 C   0  0  0  0  0  0  0  0  0  0  0  0
   26.3289  -20.0451  -10.7215 C   0  0  0  0  0  0  0  0  0  0  0  0
   26.3977  -20.8892  -11.8074 C   0  0  0  0  0  0  0  0  0  0  0  0
   27.5071  -20.8663  -12.7941 C   0  0  2  0  0  0  0  0  0  0  0  0
   27.3301  -19.8058  -13.8506 N   0  0  0  0  0  0  0  0  0  0  0  0
   25.9953  -19.8975  -14.3675 C   0  0  0  0  0  0  0  0  0  0  0  0
   28.3554  -19.9862  -14.9250 O   0  0  0  0  0  0  0  0  0  0  0  0
   28.4915  -21.0933  -15.7135 C   0  0  0  0  0  0  0  0  0  0  0  0
   25.3463  -21.7955  -11.9469 C   0  0  0  0  0  0  0  0  0  0  0  0
   24.3107  -21.8278  -11.0410 O   0  0  0  0  0  0  0  0  0  0  0  0
  1  2  1  0
  2  3  2  0
  4  5  1  0
  4  2  1  0
  6  5  1  0
  7  6  1  0
  8  9  1  1
  8  7  1  0
 10  8  1  0
 11 10  2  0
 13 12  1  6
 13 14  1  0
 14 10  1  0
 15 13  1  0
 15 24  1  0
 16 15  2  0
 17 18  1  0
 18 28  2  0
 19 18  1  0
 19 20  2  0
 20 21  1  0
 21 27  2  0
 21 22  1  0
 23 22  1  1
 23 24  1  0
 23 25  1  0
 25 29  2  0
 25 26  1  0
 28 27  1  0
M  END
$$$$
