WHF.pdb
     RDKit          3D

 36 39  0  0  1  0  0  0  0  0999 V2000
    7.9571  -17.5217   21.2757 N   0  0  0  0  0  0  0  0  0  0  0  0
    8.8145  -16.6716   22.0447 C   0  0  1  0  0  0  0  0  0  0  0  0
    8.0756  -15.5095   22.6749 C   0  0  0  0  0  0  0  0  0  0  0  0
    7.3931  -14.6698   21.6867 C   0  0  0  0  0  0  0  0  0  0  0  0
    6.0503  -14.4715   21.4496 C   0  0  0  0  0  0  0  0  0  0  0  0
    5.9252  -13.6014   20.4281 N   0  0  0  0  0  0  0  0  0  0  0  0
    7.1307  -13.2129   19.9763 C   0  0  0  0  0  0  0  0  0  0  0  0
    7.5052  -12.3470   18.9614 C   0  0  0  0  0  0  0  0  0  0  0  0
    8.8678  -12.1443   18.7279 C   0  0  0  0  0  0  0  0  0  0  0  0
    9.8036  -12.7992   19.4993 C   0  0  0  0  0  0  0  0  0  0  0  0
    9.3962  -13.6479   20.4940 C   0  0  0  0  0  0  0  0  0  0  0  0
    8.0467  -13.8809   20.7632 C   0  0  0  0  0  0  0  0  0  0  0  0
    9.5524  -17.4174   23.0968 C   0  0  0  0  0  0  0  0  0  0  0  0
    9.0443  -18.4490   23.6079 O   0  0  0  0  0  0  0  0  0  0  0  0
   10.8144  -16.9578   23.5087 N   0  0  0  0  0  0  0  0  0  0  0  0
   11.6277  -17.7500   24.5120 C   0  0  1  0  0  0  0  0  0  0  0  0
   13.0033  -17.8190   23.9450 C   0  0  0  0  0  0  0  0  0  0  0  0
   13.2495  -18.6991   22.8050 C   0  0  0  0  0  0  0  0  0  0  0  0
   12.3395  -19.6762   22.3414 C   0  0  0  0  0  0  0  0  0  0  0  0
   12.9274  -20.2567   21.2991 N   0  0  0  0  0  0  0  0  0  0  0  0
   14.1328  -19.7179   21.0768 C   0  0  0  0  0  0  0  0  0  0  0  0
   14.2937  -18.7850   22.0004 N   0  0  0  0  0  0  0  0  0  0  0  0
   11.4893  -16.9572   25.7573 C   0  0  0  0  0  0  0  0  0  0  0  0
   12.1956  -15.8890   25.8946 O   0  0  0  0  0  0  0  0  0  0  0  0
   10.6435  -17.2342   26.8507 N   0  0  0  0  0  0  0  0  0  0  0  0
   10.8571  -16.6447   28.1670 C   0  0  1  0  0  0  0  0  0  0  0  0
    9.5049  -16.1680   28.7072 C   0  0  0  0  0  0  0  0  0  0  0  0
    8.8979  -15.1536   27.7909 C   0  0  0  0  0  0  0  0  0  0  0  0
    7.9270  -15.4498   26.8761 C   0  0  0  0  0  0  0  0  0  0  0  0
    7.4177  -14.4365   26.0576 C   0  0  0  0  0  0  0  0  0  0  0  0
    7.8798  -13.1367   26.1571 C   0  0  0  0  0  0  0  0  0  0  0  0
    8.8532  -12.8319   27.0722 C   0  0  0  0  0  0  0  0  0  0  0  0
    9.3353  -13.8435   27.8621 C   0  0  0  0  0  0  0  0  0  0  0  0
   11.3960  -17.6238   29.1348 C   0  0  0  0  0  0  0  0  0  0  0  0
   11.4912  -18.8551   28.9016 O   0  0  0  0  0  0  0  0  0  0  0  0
   11.8154  -17.1451   30.3610 O   0  0  0  0  0  0  0  0  0  0  0  0
  2  1  1  1
  3  2  1  0
  4  3  1  0
  5  4  2  0
  6  7  1  0
  6  5  1  0
  7 12  2  0
  8  7  1  0
  8  9  2  0
  9 10  1  0
 10 11  2  0
 12  4  1  0
 12 11  1  0
 13 14  2  0
 13  2  1  0
 15 13  1  0
 16 15  1  0
 16 17  1  6
 18 17  1  0
 19 18  2  0
 20 19  1  0
 21 20  1  0
 21 22  2  0
 22 18  1  0
 23 16  1  0
 24 23  2  0
 25 23  1  0
 26 34  1  0
 26 25  1  0
 26 27  1  1
 28 33  1  0
 28 27  1  0
 29 28  2  0
 30 31  2  0
 30 29  1  0
 31 32  1  0
 32 33  2  0
 34 36  1  0
 35 34  2  0
M  END
$$$$
