WHF.pdb
     RDKit          3D

 36 39  0  0  1  0  0  0  0  0999 V2000
    6.6837  -18.5427   25.0589 N   0  0  0  0  0  0  0  0  0  0  0  0
    7.4425  -17.4055   24.6342 C   0  0  1  0  0  0  0  0  0  0  0  0
    7.8649  -16.5189   25.7871 C   0  0  0  0  0  0  0  0  0  0  0  0
    6.9362  -15.4091   26.0175 C   0  0  0  0  0  0  0  0  0  0  0  0
    5.7893  -15.3400   26.7782 C   0  0  0  0  0  0  0  0  0  0  0  0
    5.2841  -14.0953   26.6696 N   0  0  0  0  0  0  0  0  0  0  0  0
    6.0489  -13.3337   25.8674 C   0  0  0  0  0  0  0  0  0  0  0  0
    5.9380  -12.0136   25.4612 C   0  0  0  0  0  0  0  0  0  0  0  0
    6.9128  -11.4964   24.6041 C   0  0  0  0  0  0  0  0  0  0  0  0
    7.9536  -12.2958   24.1828 C   0  0  0  0  0  0  0  0  0  0  0  0
    8.0307  -13.5963   24.6051 C   0  0  0  0  0  0  0  0  0  0  0  0
    7.0804  -14.1555   25.4609 C   0  0  0  0  0  0  0  0  0  0  0  0
    8.6391  -17.7896   23.8415 C   0  0  0  0  0  0  0  0  0  0  0  0
    9.2129  -18.8873   24.0638 O   0  0  0  0  0  0  0  0  0  0  0  0
    9.1159  -16.9169   22.8493 N   0  0  0  0  0  0  0  0  0  0  0  0
   10.4439  -17.1826   22.1699 C   0  0  1  0  0  0  0  0  0  0  0  0
   10.5140  -16.2157   21.0390 C   0  0  0  0  0  0  0  0  0  0  0  0
   11.6417  -16.2980   20.1137 C   0  0  0  0  0  0  0  0  0  0  0  0
   12.5955  -17.3411   20.1106 C   0  0  0  0  0  0  0  0  0  0  0  0
   13.4471  -17.0536   19.1302 N   0  0  0  0  0  0  0  0  0  0  0  0
   13.0987  -15.9128   18.5220 C   0  0  0  0  0  0  0  0  0  0  0  0
   12.0094  -15.4860   19.1387 N   0  0  0  0  0  0  0  0  0  0  0  0
   11.4272  -16.9647   23.2581 C   0  0  0  0  0  0  0  0  0  0  0  0
   12.4979  -16.2961   23.0024 O   0  0  0  0  0  0  0  0  0  0  0  0
   11.3302  -17.4106   24.5920 N   0  0  0  0  0  0  0  0  0  0  0  0
   12.4231  -17.2552   25.5446 C   0  0  1  0  0  0  0  0  0  0  0  0
   12.5450  -15.7700   25.9005 C   0  0  0  0  0  0  0  0  0  0  0  0
   11.5040  -15.3793   26.9009 C   0  0  0  0  0  0  0  0  0  0  0  0
   11.2353  -16.1009   28.0297 C   0  0  0  0  0  0  0  0  0  0  0  0
   10.2414  -15.6611   28.9098 C   0  0  0  0  0  0  0  0  0  0  0  0
    9.5234  -14.5060   28.6581 C   0  0  0  0  0  0  0  0  0  0  0  0
    9.7871  -13.7769   27.5283 C   0  0  0  0  0  0  0  0  0  0  0  0
   10.7663  -14.2301   26.6823 C   0  0  0  0  0  0  0  0  0  0  0  0
   12.1732  -17.9892   26.8033 C   0  0  0  0  0  0  0  0  0  0  0  0
   12.9325  -17.9373   27.8035 O   0  0  0  0  0  0  0  0  0  0  0  0
   11.0372  -18.7726   26.8709 O   0  0  0  0  0  0  0  0  0  0  0  0
  2  1  1  1
  3  2  1  0
  4  3  1  0
  5  4  2  0
  6  7  1  0
  6  5  1  0
  7 12  2  0
  8  7  1  0
  8  9  2  0
  9 10  1  0
 10 11  2  0
 12  4  1  0
 12 11  1  0
 13 14  2  0
 13  2  1  0
 15 13  1  0
 16 15  1  0
 16 17  1  6
 18 17  1  0
 19 18  2  0
 20 19  1  0
 21 20  1  0
 21 22  2  0
 22 18  1  0
 23 16  1  0
 24 23  2  0
 25 23  1  0
 26 34  1  0
 26 25  1  0
 26 27  1  1
 28 33  1  0
 28 27  1  0
 29 28  2  0
 30 31  2  0
 30 29  1  0
 31 32  1  0
 32 33  2  0
 34 36  1  0
 35 34  2  0
M  END
$$$$
