WHF.pdb
     RDKit          3D

 36 39  0  0  1  0  0  0  0  0999 V2000
    9.0302  -18.4450   27.1630 N   0  0  0  0  0  0  0  0  0  0  0  0
    8.5388  -17.8951   25.9360 C   0  0  1  0  0  0  0  0  0  0  0  0
    9.2252  -16.5991   25.5580 C   0  0  0  0  0  0  0  0  0  0  0  0
    9.1934  -15.6065   26.6355 C   0  0  0  0  0  0  0  0  0  0  0  0
    9.8860  -15.5488   27.8253 C   0  0  0  0  0  0  0  0  0  0  0  0
    9.5087  -14.4334   28.4808 N   0  0  0  0  0  0  0  0  0  0  0  0
    8.5931  -13.7467   27.7748 C   0  0  0  0  0  0  0  0  0  0  0  0
    7.9219  -12.5621   28.0320 C   0  0  0  0  0  0  0  0  0  0  0  0
    7.0094  -12.0940   27.0830 C   0  0  0  0  0  0  0  0  0  0  0  0
    6.7946  -12.8077   25.9236 C   0  0  0  0  0  0  0  0  0  0  0  0
    7.4764  -13.9749   25.7034 C   0  0  0  0  0  0  0  0  0  0  0  0
    8.3970  -14.4805   26.6225 C   0  0  0  0  0  0  0  0  0  0  0  0
    8.6393  -18.8556   24.8069 C   0  0  0  0  0  0  0  0  0  0  0  0
    9.5164  -19.7578   24.8269 O   0  0  0  0  0  0  0  0  0  0  0  0
    7.7486  -18.7424   23.7264 N   0  0  0  0  0  0  0  0  0  0  0  0
    8.1584  -19.2092   22.3444 C   0  0  1  0  0  0  0  0  0  0  0  0
    7.2082  -20.3015   21.9941 C   0  0  0  0  0  0  0  0  0  0  0  0
    6.2010  -20.6975   22.9757 C   0  0  0  0  0  0  0  0  0  0  0  0
    6.0545  -20.1050   24.2507 C   0  0  0  0  0  0  0  0  0  0  0  0
    5.0389  -20.7371   24.8320 N   0  0  0  0  0  0  0  0  0  0  0  0
    4.5408  -21.6773   24.0190 C   0  0  0  0  0  0  0  0  0  0  0  0
    5.2631  -21.6257   22.9123 N   0  0  0  0  0  0  0  0  0  0  0  0
    8.0451  -17.9776   21.5267 C   0  0  0  0  0  0  0  0  0  0  0  0
    7.0393  -17.1961   21.7177 O   0  0  0  0  0  0  0  0  0  0  0  0
    8.9391  -17.5343   20.5307 N   0  0  0  0  0  0  0  0  0  0  0  0
    9.9530  -16.5197   20.7926 C   0  0  1  0  0  0  0  0  0  0  0  0
    9.5305  -15.7244   22.0321 C   0  0  0  0  0  0  0  0  0  0  0  0
    8.6234  -14.5973   21.6528 C   0  0  0  0  0  0  0  0  0  0  0  0
    8.7697  -13.8648   20.5086 C   0  0  0  0  0  0  0  0  0  0  0  0
    7.8746  -12.8255   20.2352 C   0  0  0  0  0  0  0  0  0  0  0  0
    6.8412  -12.5247   21.1038 C   0  0  0  0  0  0  0  0  0  0  0  0
    6.6880  -13.2548   22.2532 C   0  0  0  0  0  0  0  0  0  0  0  0
    7.5790  -14.2678   22.4973 C   0  0  0  0  0  0  0  0  0  0  0  0
   11.2747  -17.1152   21.0825 C   0  0  0  0  0  0  0  0  0  0  0  0
   11.4301  -18.2473   21.6056 O   0  0  0  0  0  0  0  0  0  0  0  0
   12.3943  -16.3751   20.7546 O   0  0  0  0  0  0  0  0  0  0  0  0
  2  1  1  1
  3  2  1  0
  4  3  1  0
  5  4  2  0
  6  7  1  0
  6  5  1  0
  7 12  2  0
  8  7  1  0
  8  9  2  0
  9 10  1  0
 10 11  2  0
 12  4  1  0
 12 11  1  0
 13 14  2  0
 13  2  1  0
 15 13  1  0
 16 15  1  0
 16 17  1  6
 18 17  1  0
 19 18  2  0
 20 19  1  0
 21 20  1  0
 21 22  2  0
 22 18  1  0
 23 16  1  0
 24 23  2  0
 25 23  1  0
 26 34  1  0
 26 25  1  0
 26 27  1  1
 28 33  1  0
 28 27  1  0
 29 28  2  0
 30 31  2  0
 30 29  1  0
 31 32  1  0
 32 33  2  0
 34 36  1  0
 35 34  2  0
M  END
$$$$
