WHF.pdb
     RDKit          3D

 36 39  0  0  1  0  0  0  0  0999 V2000
    6.3800  -17.7473   24.4885 N   0  0  0  0  0  0  0  0  0  0  0  0
    7.1139  -17.2216   23.3774 C   0  0  1  0  0  0  0  0  0  0  0  0
    6.9518  -15.7237   23.2238 C   0  0  0  0  0  0  0  0  0  0  0  0
    6.5653  -15.0650   24.4745 C   0  0  0  0  0  0  0  0  0  0  0  0
    5.9292  -15.5603   25.5919 C   0  0  0  0  0  0  0  0  0  0  0  0
    5.7975  -14.5578   26.4829 N   0  0  0  0  0  0  0  0  0  0  0  0
    6.3206  -13.4156   26.0031 C   0  0  0  0  0  0  0  0  0  0  0  0
    6.4197  -12.1432   26.5425 C   0  0  0  0  0  0  0  0  0  0  0  0
    7.0309  -11.1431   25.7818 C   0  0  0  0  0  0  0  0  0  0  0  0
    7.5180  -11.4341   24.5257 C   0  0  0  0  0  0  0  0  0  0  0  0
    7.4023  -12.7036   24.0250 C   0  0  0  0  0  0  0  0  0  0  0  0
    6.7998  -13.7338   24.7486 C   0  0  0  0  0  0  0  0  0  0  0  0
    8.5595  -17.5581   23.4460 C   0  0  0  0  0  0  0  0  0  0  0  0
    8.9783  -18.3484   24.3314 O   0  0  0  0  0  0  0  0  0  0  0  0
    9.4437  -16.9861   22.5163 N   0  0  0  0  0  0  0  0  0  0  0  0
   10.9056  -17.3843   22.5047 C   0  0  1  0  0  0  0  0  0  0  0  0
   11.5181  -16.6211   21.3818 C   0  0  0  0  0  0  0  0  0  0  0  0
   12.8309  -17.0305   20.8883 C   0  0  0  0  0  0  0  0  0  0  0  0
   13.3428  -18.3448   20.9808 C   0  0  0  0  0  0  0  0  0  0  0  0
   14.5497  -18.3061   20.4234 N   0  0  0  0  0  0  0  0  0  0  0  0
   14.8303  -17.0705   19.9906 C   0  0  0  0  0  0  0  0  0  0  0  0
   13.7753  -16.3297   20.2864 N   0  0  0  0  0  0  0  0  0  0  0  0
   11.3676  -17.0050   23.8616 C   0  0  0  0  0  0  0  0  0  0  0  0
   11.6812  -15.7768   24.0897 O   0  0  0  0  0  0  0  0  0  0  0  0
   11.5067  -17.8531   24.9792 N   0  0  0  0  0  0  0  0  0  0  0  0
   12.2585  -17.4591   26.1647 C   0  0  1  0  0  0  0  0  0  0  0  0
   11.3040  -17.4590   27.3631 C   0  0  0  0  0  0  0  0  0  0  0  0
   10.6253  -16.1329   27.4978 C   0  0  0  0  0  0  0  0  0  0  0  0
   11.2872  -14.9741   27.7914 C   0  0  0  0  0  0  0  0  0  0  0  0
   10.5701  -13.7783   27.9004 C   0  0  0  0  0  0  0  0  0  0  0  0
    9.1997  -13.7469   27.7160 C   0  0  0  0  0  0  0  0  0  0  0  0
    8.5289  -14.9049   27.4213 C   0  0  0  0  0  0  0  0  0  0  0  0
    9.2555  -16.0631   27.3202 C   0  0  0  0  0  0  0  0  0  0  0  0
   13.3498  -18.4077   26.4728 C   0  0  0  0  0  0  0  0  0  0  0  0
   13.5552  -19.4675   25.8292 O   0  0  0  0  0  0  0  0  0  0  0  0
   14.1840  -18.0998   27.5302 O   0  0  0  0  0  0  0  0  0  0  0  0
  2  1  1  1
  3  2  1  0
  4  3  1  0
  5  4  2  0
  6  7  1  0
  6  5  1  0
  7 12  2  0
  8  7  1  0
  8  9  2  0
  9 10  1  0
 10 11  2  0
 12  4  1  0
 12 11  1  0
 13 14  2  0
 13  2  1  0
 15 13  1  0
 16 15  1  0
 16 17  1  6
 18 17  1  0
 19 18  2  0
 20 19  1  0
 21 20  1  0
 21 22  2  0
 22 18  1  0
 23 16  1  0
 24 23  2  0
 25 23  1  0
 26 34  1  0
 26 25  1  0
 26 27  1  1
 28 33  1  0
 28 27  1  0
 29 28  2  0
 30 31  2  0
 30 29  1  0
 31 32  1  0
 32 33  2  0
 34 36  1  0
 35 34  2  0
M  END
$$$$
