WHF.pdb
     RDKit          3D

 36 39  0  0  1  0  0  0  0  0999 V2000
    8.2507  -16.8171   21.3970 N   0  0  0  0  0  0  0  0  0  0  0  0
    8.7283  -16.4901   22.7063 C   0  0  1  0  0  0  0  0  0  0  0  0
    7.6421  -15.9375   23.6055 C   0  0  0  0  0  0  0  0  0  0  0  0
    7.3192  -14.5391   23.3093 C   0  0  0  0  0  0  0  0  0  0  0  0
    7.1989  -13.8799   22.1053 C   0  0  0  0  0  0  0  0  0  0  0  0
    6.8856  -12.5935   22.3569 N   0  0  0  0  0  0  0  0  0  0  0  0
    6.7926  -12.3706   23.6797 C   0  0  0  0  0  0  0  0  0  0  0  0
    6.4995  -11.2294   24.4090 C   0  0  0  0  0  0  0  0  0  0  0  0
    6.4784  -11.3172   25.8033 C   0  0  0  0  0  0  0  0  0  0  0  0
    6.7456  -12.5197   26.4218 C   0  0  0  0  0  0  0  0  0  0  0  0
    7.0314  -13.6270   25.6682 C   0  0  0  0  0  0  0  0  0  0  0  0
    7.0637  -13.5865   24.2735 C   0  0  0  0  0  0  0  0  0  0  0  0
    9.3822  -17.6456   23.3734 C   0  0  0  0  0  0  0  0  0  0  0  0
    8.6862  -18.6136   23.7761 O   0  0  0  0  0  0  0  0  0  0  0  0
   10.7763  -17.6412   23.5463 N   0  0  0  0  0  0  0  0  0  0  0  0
   11.4536  -18.7450   24.3330 C   0  0  1  0  0  0  0  0  0  0  0  0
   12.7193  -19.0358   23.6035 C   0  0  0  0  0  0  0  0  0  0  0  0
   13.5509  -20.1485   24.0565 C   0  0  0  0  0  0  0  0  0  0  0  0
   14.8617  -20.0077   24.5663 C   0  0  0  0  0  0  0  0  0  0  0  0
   15.2711  -21.2376   24.8641 N   0  0  0  0  0  0  0  0  0  0  0  0
   14.3181  -22.1340   24.5797 C   0  0  0  0  0  0  0  0  0  0  0  0
   13.2983  -21.4446   24.0962 N   0  0  0  0  0  0  0  0  0  0  0  0
   11.6158  -18.1465   25.6797 C   0  0  0  0  0  0  0  0  0  0  0  0
   12.3012  -17.0625   25.7987 O   0  0  0  0  0  0  0  0  0  0  0  0
   11.0878  -18.6314   26.8937 N   0  0  0  0  0  0  0  0  0  0  0  0
   11.6914  -18.3184   28.1835 C   0  0  1  0  0  0  0  0  0  0  0  0
   10.6479  -17.5956   29.0415 C   0  0  0  0  0  0  0  0  0  0  0  0
   10.2700  -16.2872   28.4230 C   0  0  0  0  0  0  0  0  0  0  0  0
    9.4254  -16.1748   27.3548 C   0  0  0  0  0  0  0  0  0  0  0  0
    9.1290  -14.9088   26.8395 C   0  0  0  0  0  0  0  0  0  0  0  0
    9.6765  -13.7655   27.3925 C   0  0  0  0  0  0  0  0  0  0  0  0
   10.5243  -13.8701   28.4640 C   0  0  0  0  0  0  0  0  0  0  0  0
   10.7982  -15.1227   28.9497 C   0  0  0  0  0  0  0  0  0  0  0  0
   12.0972  -19.5353   28.9184 C   0  0  0  0  0  0  0  0  0  0  0  0
   12.6939  -19.5159   30.0243 O   0  0  0  0  0  0  0  0  0  0  0  0
   11.7973  -20.7566   28.3461 O   0  0  0  0  0  0  0  0  0  0  0  0
  2  1  1  6
  3  2  1  0
  4  3  1  0
  5  4  2  0
  6  7  1  0
  6  5  1  0
  7 12  2  0
  8  7  1  0
  8  9  2  0
  9 10  1  0
 10 11  2  0
 12  4  1  0
 12 11  1  0
 13 14  2  0
 13  2  1  0
 15 13  1  0
 16 15  1  0
 16 17  1  6
 18 17  1  0
 19 18  2  0
 20 19  1  0
 21 20  1  0
 21 22  2  0
 22 18  1  0
 23 16  1  0
 24 23  2  0
 25 23  1  0
 26 34  1  0
 26 25  1  0
 26 27  1  1
 28 33  1  0
 28 27  1  0
 29 28  2  0
 30 31  2  0
 30 29  1  0
 31 32  1  0
 32 33  2  0
 34 36  1  0
 35 34  2  0
M  END
$$$$
