WHF.pdb
     RDKit          3D

 36 39  0  0  1  0  0  0  0  0999 V2000
    6.0724  -18.8323   24.6716 N   0  0  0  0  0  0  0  0  0  0  0  0
    6.8062  -17.7395   24.1088 C   0  0  1  0  0  0  0  0  0  0  0  0
    7.4851  -16.8863   25.1598 C   0  0  0  0  0  0  0  0  0  0  0  0
    6.6578  -15.7570   25.5930 C   0  0  0  0  0  0  0  0  0  0  0  0
    5.4750  -15.7281   26.2993 C   0  0  0  0  0  0  0  0  0  0  0  0
    5.1044  -14.4413   26.4511 N   0  0  0  0  0  0  0  0  0  0  0  0
    5.9931  -13.6132   25.8743 C   0  0  0  0  0  0  0  0  0  0  0  0
    6.0414  -12.2322   25.7703 C   0  0  0  0  0  0  0  0  0  0  0  0
    7.1180  -11.6525   25.0944 C   0  0  0  0  0  0  0  0  0  0  0  0
    8.1002  -12.4516   24.5499 C   0  0  0  0  0  0  0  0  0  0  0  0
    8.0193  -13.8133   24.6724 C   0  0  0  0  0  0  0  0  0  0  0  0
    6.9628  -14.4362   25.3388 C   0  0  0  0  0  0  0  0  0  0  0  0
    7.8118  -18.1892   23.1117 C   0  0  0  0  0  0  0  0  0  0  0  0
    8.4103  -19.2842   23.2743 O   0  0  0  0  0  0  0  0  0  0  0  0
    8.0820  -17.3809   21.9949 N   0  0  0  0  0  0  0  0  0  0  0  0
    9.3916  -17.5227   21.2462 C   0  0  1  0  0  0  0  0  0  0  0  0
    9.1098  -17.0605   19.8585 C   0  0  0  0  0  0  0  0  0  0  0  0
   10.1667  -17.1654   18.8552 C   0  0  0  0  0  0  0  0  0  0  0  0
   11.4520  -17.6981   19.1044 C   0  0  0  0  0  0  0  0  0  0  0  0
   12.1096  -17.6187   17.9510 N   0  0  0  0  0  0  0  0  0  0  0  0
   11.3346  -17.0781   17.0023 C   0  0  0  0  0  0  0  0  0  0  0  0
   10.1741  -16.8178   17.5807 N   0  0  0  0  0  0  0  0  0  0  0  0
   10.3191  -16.6696   22.0273 C   0  0  0  0  0  0  0  0  0  0  0  0
   10.2118  -15.3894   21.9348 O   0  0  0  0  0  0  0  0  0  0  0  0
   11.3406  -17.1014   22.8978 N   0  0  0  0  0  0  0  0  0  0  0  0
   11.6547  -16.3988   24.1362 C   0  0  1  0  0  0  0  0  0  0  0  0
   10.3569  -16.2171   24.9300 C   0  0  0  0  0  0  0  0  0  0  0  0
   10.5916  -15.3689   26.1394 C   0  0  0  0  0  0  0  0  0  0  0  0
   10.5975  -14.0028   26.1120 C   0  0  0  0  0  0  0  0  0  0  0  0
   10.8280  -13.2898   27.2929 C   0  0  0  0  0  0  0  0  0  0  0  0
   11.0508  -13.9436   28.4912 C   0  0  0  0  0  0  0  0  0  0  0  0
   11.0464  -15.3134   28.5266 C   0  0  0  0  0  0  0  0  0  0  0  0
   10.8180  -15.9881   27.3551 C   0  0  0  0  0  0  0  0  0  0  0  0
   12.5877  -17.1647   24.9897 C   0  0  0  0  0  0  0  0  0  0  0  0
   13.3757  -16.6341   25.8126 O   0  0  0  0  0  0  0  0  0  0  0  0
   12.5830  -18.5407   24.8661 O   0  0  0  0  0  0  0  0  0  0  0  0
  2  1  1  1
  3  2  1  0
  4  3  1  0
  5  4  2  0
  6  7  1  0
  6  5  1  0
  7 12  2  0
  8  7  1  0
  8  9  2  0
  9 10  1  0
 10 11  2  0
 12  4  1  0
 12 11  1  0
 13 14  2  0
 13  2  1  0
 15 13  1  0
 16 15  1  0
 16 17  1  6
 18 17  1  0
 19 18  2  0
 20 19  1  0
 21 20  1  0
 21 22  2  0
 22 18  1  0
 23 16  1  0
 24 23  2  0
 25 23  1  0
 26 34  1  0
 26 25  1  0
 26 27  1  1
 28 33  1  0
 28 27  1  0
 29 28  2  0
 30 31  2  0
 30 29  1  0
 31 32  1  0
 32 33  2  0
 34 36  1  0
 35 34  2  0
M  END
$$$$
