WHF.pdb
     RDKit          3D

 36 39  0  0  1  0  0  0  0  0999 V2000
    7.7052  -18.5286   20.0830 N   0  0  0  0  0  0  0  0  0  0  0  0
    8.1620  -17.5598   21.0329 C   0  0  1  0  0  0  0  0  0  0  0  0
    7.1857  -16.4174   21.2205 C   0  0  0  0  0  0  0  0  0  0  0  0
    7.3266  -15.3784   20.1968 C   0  0  0  0  0  0  0  0  0  0  0  0
    6.9800  -15.3777   18.8631 C   0  0  0  0  0  0  0  0  0  0  0  0
    7.3125  -14.1809   18.3404 N   0  0  0  0  0  0  0  0  0  0  0  0
    7.8663  -13.3855   19.2726 C   0  0  0  0  0  0  0  0  0  0  0  0
    8.3576  -12.0913   19.2135 C   0  0  0  0  0  0  0  0  0  0  0  0
    8.8825  -11.5243   20.3777 C   0  0  0  0  0  0  0  0  0  0  0  0
    8.9029  -12.2509   21.5488 C   0  0  0  0  0  0  0  0  0  0  0  0
    8.4083  -13.5278   21.5695 C   0  0  0  0  0  0  0  0  0  0  0  0
    7.8745  -14.1347   20.4316 C   0  0  0  0  0  0  0  0  0  0  0  0
    8.4727  -18.1668   22.3530 C   0  0  0  0  0  0  0  0  0  0  0  0
    7.6842  -19.0075   22.8581 O   0  0  0  0  0  0  0  0  0  0  0  0
    9.6492  -17.7914   23.0227 N   0  0  0  0  0  0  0  0  0  0  0  0
    9.9880  -18.3939   24.3711 C   0  0  1  0  0  0  0  0  0  0  0  0
   10.9011  -19.5342   24.0804 C   0  0  0  0  0  0  0  0  0  0  0  0
   11.4169  -20.3229   25.1969 C   0  0  0  0  0  0  0  0  0  0  0  0
   12.7900  -20.5443   25.4491 C   0  0  0  0  0  0  0  0  0  0  0  0
   12.8427  -21.2997   26.5426 N   0  0  0  0  0  0  0  0  0  0  0  0
   11.6099  -21.5664   26.9917 C   0  0  0  0  0  0  0  0  0  0  0  0
   10.7776  -20.9638   26.1591 N   0  0  0  0  0  0  0  0  0  0  0  0
   10.5980  -17.2577   25.1028 C   0  0  0  0  0  0  0  0  0  0  0  0
   11.6686  -16.7189   24.6312 O   0  0  0  0  0  0  0  0  0  0  0  0
   10.1310  -16.6662   26.2943 N   0  0  0  0  0  0  0  0  0  0  0  0
   10.9941  -15.8652   27.1542 C   0  0  1  0  0  0  0  0  0  0  0  0
   10.6869  -14.3856   26.9019 C   0  0  0  0  0  0  0  0  0  0  0  0
    9.2109  -14.1595   26.8165 C   0  0  0  0  0  0  0  0  0  0  0  0
    8.4107  -14.7522   25.8808 C   0  0  0  0  0  0  0  0  0  0  0  0
    7.0387  -14.4808   25.8741 C   0  0  0  0  0  0  0  0  0  0  0  0
    6.4753  -13.6212   26.7997 C   0  0  0  0  0  0  0  0  0  0  0  0
    7.2712  -13.0230   27.7412 C   0  0  0  0  0  0  0  0  0  0  0  0
    8.6126  -13.3061   27.7256 C   0  0  0  0  0  0  0  0  0  0  0  0
   10.7482  -16.1263   28.5884 C   0  0  0  0  0  0  0  0  0  0  0  0
   11.3508  -15.5338   29.5186 O   0  0  0  0  0  0  0  0  0  0  0  0
    9.7995  -17.0776   28.9107 O   0  0  0  0  0  0  0  0  0  0  0  0
  2  1  1  6
  3  2  1  0
  4  3  1  0
  5  4  2  0
  6  7  1  0
  6  5  1  0
  7 12  2  0
  8  7  1  0
  8  9  2  0
  9 10  1  0
 10 11  2  0
 12  4  1  0
 12 11  1  0
 13 14  2  0
 13  2  1  0
 15 13  1  0
 16 15  1  0
 16 17  1  6
 18 17  1  0
 19 18  2  0
 20 19  1  0
 21 20  1  0
 21 22  2  0
 22 18  1  0
 23 16  1  0
 24 23  2  0
 25 23  1  0
 26 34  1  0
 26 25  1  0
 26 27  1  1
 28 33  1  0
 28 27  1  0
 29 28  2  0
 30 31  2  0
 30 29  1  0
 31 32  1  0
 32 33  2  0
 34 36  1  0
 35 34  2  0
M  END
$$$$
