WHF.pdb
     RDKit          3D

 36 39  0  0  1  0  0  0  0  0999 V2000
    8.1460  -18.0434   21.2479 N   0  0  0  0  0  0  0  0  0  0  0  0
    8.7438  -16.9667   21.9778 C   0  0  1  0  0  0  0  0  0  0  0  0
    7.7217  -16.0004   22.5391 C   0  0  0  0  0  0  0  0  0  0  0  0
    7.1946  -15.0823   21.5258 C   0  0  0  0  0  0  0  0  0  0  0  0
    6.2788  -15.2871   20.5168 C   0  0  0  0  0  0  0  0  0  0  0  0
    6.1219  -14.1286   19.8464 N   0  0  0  0  0  0  0  0  0  0  0  0
    6.8965  -13.1614   20.3690 C   0  0  0  0  0  0  0  0  0  0  0  0
    7.0746  -11.8305   20.0270 C   0  0  0  0  0  0  0  0  0  0  0  0
    7.9700  -11.0641   20.7774 C   0  0  0  0  0  0  0  0  0  0  0  0
    8.6517  -11.6359   21.8301 C   0  0  0  0  0  0  0  0  0  0  0  0
    8.4501  -12.9548   22.1391 C   0  0  0  0  0  0  0  0  0  0  0  0
    7.5659  -13.7584   21.4178 C   0  0  0  0  0  0  0  0  0  0  0  0
    9.6234  -17.4482   23.0743 C   0  0  0  0  0  0  0  0  0  0  0  0
    9.2027  -18.3188   23.8797 O   0  0  0  0  0  0  0  0  0  0  0  0
   10.9200  -16.9216   23.1972 N   0  0  0  0  0  0  0  0  0  0  0  0
   11.9104  -17.5431   24.1610 C   0  0  1  0  0  0  0  0  0  0  0  0
   13.2567  -17.1591   23.6522 C   0  0  0  0  0  0  0  0  0  0  0  0
   13.7376  -17.7644   22.4124 C   0  0  0  0  0  0  0  0  0  0  0  0
   13.7837  -19.1562   22.1705 C   0  0  0  0  0  0  0  0  0  0  0  0
   14.2757  -19.2969   20.9429 N   0  0  0  0  0  0  0  0  0  0  0  0
   14.5399  -18.1016   20.4006 C   0  0  0  0  0  0  0  0  0  0  0  0
   14.2045  -17.2032   21.3113 N   0  0  0  0  0  0  0  0  0  0  0  0
   11.5275  -16.9500   25.4648 C   0  0  0  0  0  0  0  0  0  0  0  0
   11.7404  -15.6952   25.6623 O   0  0  0  0  0  0  0  0  0  0  0  0
   10.9306  -17.6128   26.5566 N   0  0  0  0  0  0  0  0  0  0  0  0
   10.7930  -16.9853   27.8655 C   0  0  1  0  0  0  0  0  0  0  0  0
    9.3004  -16.8781   28.1944 C   0  0  0  0  0  0  0  0  0  0  0  0
    8.7173  -15.6339   27.6034 C   0  0  0  0  0  0  0  0  0  0  0  0
    7.6682  -15.6357   26.7278 C   0  0  0  0  0  0  0  0  0  0  0  0
    7.1885  -14.4228   26.2229 C   0  0  0  0  0  0  0  0  0  0  0  0
    7.7579  -13.2184   26.5944 C   0  0  0  0  0  0  0  0  0  0  0  0
    8.8103  -13.2085   27.4720 C   0  0  0  0  0  0  0  0  0  0  0  0
    9.2611  -14.4111   27.9519 C   0  0  0  0  0  0  0  0  0  0  0  0
   11.4219  -17.7874   28.9363 C   0  0  0  0  0  0  0  0  0  0  0  0
   11.8045  -18.9750   28.7851 O   0  0  0  0  0  0  0  0  0  0  0  0
   11.5933  -17.1855   30.1681 O   0  0  0  0  0  0  0  0  0  0  0  0
  2  1  1  1
  3  2  1  0
  4  3  1  0
  5  4  2  0
  6  7  1  0
  6  5  1  0
  7 12  2  0
  8  7  1  0
  8  9  2  0
  9 10  1  0
 10 11  2  0
 12  4  1  0
 12 11  1  0
 13 14  2  0
 13  2  1  0
 15 13  1  0
 16 15  1  0
 16 17  1  6
 18 17  1  0
 19 18  2  0
 20 19  1  0
 21 20  1  0
 21 22  2  0
 22 18  1  0
 23 16  1  0
 24 23  2  0
 25 23  1  0
 26 34  1  0
 26 25  1  0
 26 27  1  1
 28 33  1  0
 28 27  1  0
 29 28  2  0
 30 31  2  0
 30 29  1  0
 31 32  1  0
 32 33  2  0
 34 36  1  0
 35 34  2  0
M  END
$$$$
