WHF.pdb
     RDKit          3D

 36 39  0  0  1  0  0  0  0  0999 V2000
    6.7069  -19.0259   22.2547 N   0  0  0  0  0  0  0  0  0  0  0  0
    7.4525  -17.8065   22.3354 C   0  0  1  0  0  0  0  0  0  0  0  0
    6.6257  -16.6469   22.8504 C   0  0  0  0  0  0  0  0  0  0  0  0
    6.3398  -15.6512   21.8140 C   0  0  0  0  0  0  0  0  0  0  0  0
    5.4195  -15.6600   20.7885 C   0  0  0  0  0  0  0  0  0  0  0  0
    5.5429  -14.5084   20.0995 N   0  0  0  0  0  0  0  0  0  0  0  0
    6.5082  -13.7339   20.6255 C   0  0  0  0  0  0  0  0  0  0  0  0
    6.9912  -12.4848   20.2696 C   0  0  0  0  0  0  0  0  0  0  0  0
    8.0245  -11.9292   21.0286 C   0  0  0  0  0  0  0  0  0  0  0  0
    8.5390  -12.6223   22.1031 C   0  0  0  0  0  0  0  0  0  0  0  0
    8.0365  -13.8549   22.4254 C   0  0  0  0  0  0  0  0  0  0  0  0
    7.0052  -14.4488   21.6962 C   0  0  0  0  0  0  0  0  0  0  0  0
    8.6770  -17.9478   23.1651 C   0  0  0  0  0  0  0  0  0  0  0  0
    8.7172  -18.8079   24.0829 O   0  0  0  0  0  0  0  0  0  0  0  0
    9.7791  -17.1142   22.9121 N   0  0  0  0  0  0  0  0  0  0  0  0
   11.0966  -17.3505   23.6221 C   0  0  1  0  0  0  0  0  0  0  0  0
   12.1400  -16.7728   22.7297 C   0  0  0  0  0  0  0  0  0  0  0  0
   12.3788  -17.3992   21.4315 C   0  0  0  0  0  0  0  0  0  0  0  0
   12.7539  -18.7506   21.2557 C   0  0  0  0  0  0  0  0  0  0  0  0
   12.8709  -18.9287   19.9428 N   0  0  0  0  0  0  0  0  0  0  0  0
   12.5981  -17.7940   19.2866 C   0  0  0  0  0  0  0  0  0  0  0  0
   12.3064  -16.8957   20.2124 N   0  0  0  0  0  0  0  0  0  0  0  0
   10.9089  -16.6556   24.9183 C   0  0  0  0  0  0  0  0  0  0  0  0
   11.6411  -15.6299   25.1844 O   0  0  0  0  0  0  0  0  0  0  0  0
    9.9886  -16.9865   25.9338 N   0  0  0  0  0  0  0  0  0  0  0  0
   10.0582  -16.3998   27.2668 C   0  0  1  0  0  0  0  0  0  0  0  0
    8.6762  -15.8411   27.6205 C   0  0  0  0  0  0  0  0  0  0  0  0
    8.3924  -14.5986   26.8377 C   0  0  0  0  0  0  0  0  0  0  0  0
    9.0886  -13.4334   26.9952 C   0  0  0  0  0  0  0  0  0  0  0  0
    8.7526  -12.3185   26.2204 C   0  0  0  0  0  0  0  0  0  0  0  0
    7.7258  -12.3737   25.2954 C   0  0  0  0  0  0  0  0  0  0  0  0
    7.0231  -13.5387   25.1318 C   0  0  0  0  0  0  0  0  0  0  0  0
    7.3727  -14.6165   25.9037 C   0  0  0  0  0  0  0  0  0  0  0  0
   10.4043  -17.4007   28.2983 C   0  0  0  0  0  0  0  0  0  0  0  0
   10.5421  -18.6273   28.0616 O   0  0  0  0  0  0  0  0  0  0  0  0
   10.5841  -16.9489   29.5915 O   0  0  0  0  0  0  0  0  0  0  0  0
  2  1  1  1
  3  2  1  0
  4  3  1  0
  5  4  2  0
  6  7  1  0
  6  5  1  0
  7 12  2  0
  8  7  1  0
  8  9  2  0
  9 10  1  0
 10 11  2  0
 12  4  1  0
 12 11  1  0
 13 14  2  0
 13  2  1  0
 15 13  1  0
 16 15  1  0
 16 17  1  6
 18 17  1  0
 19 18  2  0
 20 19  1  0
 21 20  1  0
 21 22  2  0
 22 18  1  0
 23 16  1  0
 24 23  2  0
 25 23  1  0
 26 34  1  0
 26 25  1  0
 26 27  1  1
 28 33  1  0
 28 27  1  0
 29 28  2  0
 30 31  2  0
 30 29  1  0
 31 32  1  0
 32 33  2  0
 34 36  1  0
 35 34  2  0
M  END
$$$$
