WHF.pdb
     RDKit          3D

 36 39  0  0  1  0  0  0  0  0999 V2000
    6.0646  -17.5704   25.0507 N   0  0  0  0  0  0  0  0  0  0  0  0
    6.8395  -16.6350   24.2932 C   0  0  1  0  0  0  0  0  0  0  0  0
    7.5248  -15.6016   25.1627 C   0  0  0  0  0  0  0  0  0  0  0  0
    6.5989  -14.5858   25.6710 C   0  0  0  0  0  0  0  0  0  0  0  0
    5.3497  -14.7118   26.2387 C   0  0  0  0  0  0  0  0  0  0  0  0
    4.8982  -13.4795   26.5453 N   0  0  0  0  0  0  0  0  0  0  0  0
    5.7969  -12.5390   26.2045 C   0  0  0  0  0  0  0  0  0  0  0  0
    5.7830  -11.1583   26.3206 C   0  0  0  0  0  0  0  0  0  0  0  0
    6.8916  -10.4404   25.8648 C   0  0  0  0  0  0  0  0  0  0  0  0
    7.9654  -11.1072   25.3152 C   0  0  0  0  0  0  0  0  0  0  0  0
    7.9440  -12.4731   25.2167 C   0  0  0  0  0  0  0  0  0  0  0  0
    6.8587  -13.2313   25.6586 C   0  0  0  0  0  0  0  0  0  0  0  0
    7.8486  -17.3045   23.4323 C   0  0  0  0  0  0  0  0  0  0  0  0
    8.3937  -18.3711   23.8181 O   0  0  0  0  0  0  0  0  0  0  0  0
    8.1820  -16.7341   22.1925 N   0  0  0  0  0  0  0  0  0  0  0  0
    9.3900  -17.2280   21.4227 C   0  0  1  0  0  0  0  0  0  0  0  0
    9.2784  -16.6154   20.0695 C   0  0  0  0  0  0  0  0  0  0  0  0
   10.2133  -17.0367   19.0288 C   0  0  0  0  0  0  0  0  0  0  0  0
   11.2269  -18.0046   19.2124 C   0  0  0  0  0  0  0  0  0  0  0  0
   11.8525  -18.1039   18.0429 N   0  0  0  0  0  0  0  0  0  0  0  0
   11.3081  -17.2735   17.1446 C   0  0  0  0  0  0  0  0  0  0  0  0
   10.3257  -16.6479   17.7713 N   0  0  0  0  0  0  0  0  0  0  0  0
   10.5290  -16.7552   22.2457 C   0  0  0  0  0  0  0  0  0  0  0  0
   11.0346  -15.5967   21.9986 O   0  0  0  0  0  0  0  0  0  0  0  0
   11.1486  -17.4399   23.3111 N   0  0  0  0  0  0  0  0  0  0  0  0
   12.3221  -16.9113   23.9964 C   0  0  1  0  0  0  0  0  0  0  0  0
   12.0845  -15.4251   24.2830 C   0  0  0  0  0  0  0  0  0  0  0  0
   11.3415  -15.2472   25.5689 C   0  0  0  0  0  0  0  0  0  0  0  0
   11.9228  -15.3752   26.7989 C   0  0  0  0  0  0  0  0  0  0  0  0
   11.1495  -15.1932   27.9500 C   0  0  0  0  0  0  0  0  0  0  0  0
    9.8037  -14.8854   27.8662 C   0  0  0  0  0  0  0  0  0  0  0  0
    9.2137  -14.7554   26.6363 C   0  0  0  0  0  0  0  0  0  0  0  0
    9.9941  -14.9388   25.5240 C   0  0  0  0  0  0  0  0  0  0  0  0
   12.5551  -17.5772   25.2956 C   0  0  0  0  0  0  0  0  0  0  0  0
   11.7427  -18.3764   25.8254 O   0  0  0  0  0  0  0  0  0  0  0  0
   13.7368  -17.2965   25.9541 O   0  0  0  0  0  0  0  0  0  0  0  0
  2  1  1  1
  3  2  1  0
  4  3  1  0
  5  4  2  0
  6  7  1  0
  6  5  1  0
  7 12  2  0
  8  7  1  0
  8  9  2  0
  9 10  1  0
 10 11  2  0
 12  4  1  0
 12 11  1  0
 13 14  2  0
 13  2  1  0
 15 13  1  0
 16 15  1  0
 16 17  1  6
 18 17  1  0
 19 18  2  0
 20 19  1  0
 21 20  1  0
 21 22  2  0
 22 18  1  0
 23 16  1  0
 24 23  2  0
 25 23  1  0
 26 34  1  0
 26 25  1  0
 26 27  1  1
 28 33  1  0
 28 27  1  0
 29 28  2  0
 30 31  2  0
 30 29  1  0
 31 32  1  0
 32 33  2  0
 34 36  1  0
 35 34  2  0
M  END
$$$$
