WHF.pdb
     RDKit          3D

 36 39  0  0  1  0  0  0  0  0999 V2000
    7.0666  -16.7636   21.8381 N   0  0  0  0  0  0  0  0  0  0  0  0
    8.2185  -15.9593   22.1129 C   0  0  1  0  0  0  0  0  0  0  0  0
    7.8637  -14.6058   22.6922 C   0  0  0  0  0  0  0  0  0  0  0  0
    7.0278  -14.7050   23.8917 C   0  0  0  0  0  0  0  0  0  0  0  0
    6.4463  -15.7994   24.4941 C   0  0  0  0  0  0  0  0  0  0  0  0
    5.7700  -15.3750   25.5798 N   0  0  0  0  0  0  0  0  0  0  0  0
    5.8783  -14.0423   25.7238 C   0  0  0  0  0  0  0  0  0  0  0  0
    5.3675  -13.1677   26.6694 C   0  0  0  0  0  0  0  0  0  0  0  0
    5.6623  -11.8075   26.5464 C   0  0  0  0  0  0  0  0  0  0  0  0
    6.4449  -11.3641   25.5020 C   0  0  0  0  0  0  0  0  0  0  0  0
    6.9325  -12.2579   24.5861 C   0  0  0  0  0  0  0  0  0  0  0  0
    6.6641  -13.6251   24.6689 C   0  0  0  0  0  0  0  0  0  0  0  0
    9.1836  -16.6442   23.0114 C   0  0  0  0  0  0  0  0  0  0  0  0
    8.7618  -17.3812   23.9401 O   0  0  0  0  0  0  0  0  0  0  0  0
   10.5615  -16.4583   22.8104 N   0  0  0  0  0  0  0  0  0  0  0  0
   11.5462  -17.5373   23.2125 C   0  0  1  0  0  0  0  0  0  0  0  0
   12.6682  -17.4368   22.2379 C   0  0  0  0  0  0  0  0  0  0  0  0
   12.4483  -17.8865   20.8653 C   0  0  0  0  0  0  0  0  0  0  0  0
   12.5438  -19.2319   20.4425 C   0  0  0  0  0  0  0  0  0  0  0  0
   12.2751  -19.2247   19.1399 N   0  0  0  0  0  0  0  0  0  0  0  0
   12.0196  -17.9800   18.7177 C   0  0  0  0  0  0  0  0  0  0  0  0
   12.1325  -17.2014   19.7808 N   0  0  0  0  0  0  0  0  0  0  0  0
   11.8821  -17.1807   24.6119 C   0  0  0  0  0  0  0  0  0  0  0  0
   12.7031  -16.2116   24.8255 O   0  0  0  0  0  0  0  0  0  0  0  0
   11.3913  -17.7901   25.7847 N   0  0  0  0  0  0  0  0  0  0  0  0
   12.0590  -17.6461   27.0729 C   0  0  1  0  0  0  0  0  0  0  0  0
   11.0836  -16.9815   28.0499 C   0  0  0  0  0  0  0  0  0  0  0  0
   11.0625  -15.4995   27.8492 C   0  0  0  0  0  0  0  0  0  0  0  0
   10.2141  -14.8684   26.9836 C   0  0  0  0  0  0  0  0  0  0  0  0
   10.2657  -13.4764   26.8585 C   0  0  0  0  0  0  0  0  0  0  0  0
   11.1618  -12.7247   27.5966 C   0  0  0  0  0  0  0  0  0  0  0  0
   12.0157  -13.3504   28.4668 C   0  0  0  0  0  0  0  0  0  0  0  0
   11.9446  -14.7156   28.5704 C   0  0  0  0  0  0  0  0  0  0  0  0
   12.4390  -18.9521   27.6522 C   0  0  0  0  0  0  0  0  0  0  0  0
   13.1108  -19.0784   28.7068 O   0  0  0  0  0  0  0  0  0  0  0  0
   12.0258  -20.0902   26.9868 O   0  0  0  0  0  0  0  0  0  0  0  0
  2  1  1  1
  3  2  1  0
  4  3  1  0
  5  4  2  0
  6  7  1  0
  6  5  1  0
  7 12  2  0
  8  7  1  0
  8  9  2  0
  9 10  1  0
 10 11  2  0
 12  4  1  0
 12 11  1  0
 13 14  2  0
 13  2  1  0
 15 13  1  0
 16 15  1  0
 16 17  1  6
 18 17  1  0
 19 18  2  0
 20 19  1  0
 21 20  1  0
 21 22  2  0
 22 18  1  0
 23 16  1  0
 24 23  2  0
 25 23  1  0
 26 34  1  0
 26 25  1  0
 26 27  1  1
 28 33  1  0
 28 27  1  0
 29 28  2  0
 30 31  2  0
 30 29  1  0
 31 32  1  0
 32 33  2  0
 34 36  1  0
 35 34  2  0
M  END
$$$$
