WHF.pdb
     RDKit          3D

 36 39  0  0  1  0  0  0  0  0999 V2000
    7.5496  -18.6354   21.8214 N   0  0  0  0  0  0  0  0  0  0  0  0
    8.2265  -17.4409   22.2272 C   0  0  1  0  0  0  0  0  0  0  0  0
    7.2818  -16.3845   22.7612 C   0  0  0  0  0  0  0  0  0  0  0  0
    6.7106  -15.5484   21.7019 C   0  0  0  0  0  0  0  0  0  0  0  0
    5.4985  -15.6257   21.0511 C   0  0  0  0  0  0  0  0  0  0  0  0
    5.4369  -14.6242   20.1515 N   0  0  0  0  0  0  0  0  0  0  0  0
    6.5592  -13.8838   20.1778 C   0  0  0  0  0  0  0  0  0  0  0  0
    6.9528  -12.7711   19.4519 C   0  0  0  0  0  0  0  0  0  0  0  0
    8.2071  -12.2142   19.7143 C   0  0  0  0  0  0  0  0  0  0  0  0
    9.0207  -12.7724   20.6767 C   0  0  0  0  0  0  0  0  0  0  0  0
    8.5981  -13.8724   21.3746 C   0  0  0  0  0  0  0  0  0  0  0  0
    7.3538  -14.4621   21.1466 C   0  0  0  0  0  0  0  0  0  0  0  0
    9.2887  -17.7076   23.2313 C   0  0  0  0  0  0  0  0  0  0  0  0
    9.1970  -18.7066   23.9912 O   0  0  0  0  0  0  0  0  0  0  0  0
   10.3867  -16.8358   23.3189 N   0  0  0  0  0  0  0  0  0  0  0  0
   11.5651  -17.1758   24.2088 C   0  0  1  0  0  0  0  0  0  0  0  0
   12.7655  -16.6538   23.4979 C   0  0  0  0  0  0  0  0  0  0  0  0
   13.1152  -17.2236   22.1988 C   0  0  0  0  0  0  0  0  0  0  0  0
   12.9462  -18.5838   21.8536 C   0  0  0  0  0  0  0  0  0  0  0  0
   13.3766  -18.6981   20.6004 N   0  0  0  0  0  0  0  0  0  0  0  0
   13.8008  -17.5156   20.1374 C   0  0  0  0  0  0  0  0  0  0  0  0
   13.6292  -16.6521   21.1244 N   0  0  0  0  0  0  0  0  0  0  0  0
   11.2311  -16.4951   25.4829 C   0  0  0  0  0  0  0  0  0  0  0  0
   11.9027  -15.4500   25.8228 O   0  0  0  0  0  0  0  0  0  0  0  0
   10.2267  -16.8597   26.4025 N   0  0  0  0  0  0  0  0  0  0  0  0
   10.2706  -16.4540   27.8024 C   0  0  1  0  0  0  0  0  0  0  0  0
    8.8887  -15.9201   28.1932 C   0  0  0  0  0  0  0  0  0  0  0  0
    8.5201  -14.7409   27.3502 C   0  0  0  0  0  0  0  0  0  0  0  0
    9.1318  -13.5231   27.4493 C   0  0  0  0  0  0  0  0  0  0  0  0
    8.7200  -12.4744   26.6206 C   0  0  0  0  0  0  0  0  0  0  0  0
    7.7022  -12.6475   25.7003 C   0  0  0  0  0  0  0  0  0  0  0  0
    7.0839  -13.8659   25.5950 C   0  0  0  0  0  0  0  0  0  0  0  0
    7.5067  -14.8769   26.4190 C   0  0  0  0  0  0  0  0  0  0  0  0
   10.5736  -17.5878   28.7014 C   0  0  0  0  0  0  0  0  0  0  0  0
   10.6617  -18.7804   28.3148 O   0  0  0  0  0  0  0  0  0  0  0  0
   10.7691  -17.3067   30.0399 O   0  0  0  0  0  0  0  0  0  0  0  0
  2  1  1  1
  3  2  1  0
  4  3  1  0
  5  4  2  0
  6  7  1  0
  6  5  1  0
  7 12  2  0
  8  7  1  0
  8  9  2  0
  9 10  1  0
 10 11  2  0
 12  4  1  0
 12 11  1  0
 13 14  2  0
 13  2  1  0
 15 13  1  0
 16 15  1  0
 16 17  1  6
 18 17  1  0
 19 18  2  0
 20 19  1  0
 21 20  1  0
 21 22  2  0
 22 18  1  0
 23 16  1  0
 24 23  2  0
 25 23  1  0
 26 34  1  0
 26 25  1  0
 26 27  1  1
 28 33  1  0
 28 27  1  0
 29 28  2  0
 30 31  2  0
 30 29  1  0
 31 32  1  0
 32 33  2  0
 34 36  1  0
 35 34  2  0
M  END
$$$$
