WTC.pdb
     RDKit          3D

 28 29  0  0  1  0  0  0  0  0999 V2000
    6.4970  -17.7892   24.1310 N   0  0  0  0  0  0  0  0  0  0  0  0
    7.3527  -16.6930   23.7571 C   0  0  1  0  0  0  0  0  0  0  0  0
    7.9149  -16.0438   25.0003 C   0  0  0  0  0  0  0  0  0  0  0  0
    7.0350  -15.0500   25.6074 C   0  0  0  0  0  0  0  0  0  0  0  0
    5.9740  -15.3783   26.4313 C   0  0  0  0  0  0  0  0  0  0  0  0
    5.4161  -14.2307   26.8254 N   0  0  0  0  0  0  0  0  0  0  0  0
    6.0857  -13.1845   26.2799 C   0  0  0  0  0  0  0  0  0  0  0  0
    5.8763  -11.8364   26.3922 C   0  0  0  0  0  0  0  0  0  0  0  0
    6.7250  -10.9995   25.7057 C   0  0  0  0  0  0  0  0  0  0  0  0
    7.7570  -11.4650   24.9251 C   0  0  0  0  0  0  0  0  0  0  0  0
    7.9668  -12.8215   24.8130 C   0  0  0  0  0  0  0  0  0  0  0  0
    7.1228  -13.6909   25.4984 C   0  0  0  0  0  0  0  0  0  0  0  0
    8.5281  -17.2465   23.0210 C   0  0  0  0  0  0  0  0  0  0  0  0
    8.9009  -18.4092   23.3124 O   0  0  0  0  0  0  0  0  0  0  0  0
    9.1807  -16.6573   19.2429 C   0  0  0  0  0  0  0  0  0  0  0  0
   10.4649  -16.4831   20.0104 C   0  0  1  0  0  0  0  0  0  0  0  0
   10.7553  -15.1147   20.0076 O   0  0  0  0  0  0  0  0  0  0  0  0
   10.3850  -17.0486   21.4156 C   0  0  2  0  0  0  0  0  0  0  0  0
    9.2052  -16.4857   22.0227 N   0  0  0  0  0  0  0  0  0  0  0  0
   11.6087  -16.7444   22.1942 C   0  0  0  0  0  0  0  0  0  0  0  0
   12.0429  -15.5685   22.2026 O   0  0  0  0  0  0  0  0  0  0  0  0
   12.3329  -17.7059   22.9414 N   0  0  0  0  0  0  0  0  0  0  0  0
   13.5328  -17.3825   23.6895 C   0  0  1  0  0  0  0  0  0  0  0  0
   13.6323  -18.2417   24.9548 C   0  0  0  0  0  0  0  0  0  0  0  0
   12.3572  -17.8518   26.1485 S   0  0  0  0  0  0  0  0  0  0  0  0
   14.6863  -17.7616   22.8488 C   0  0  0  0  0  0  0  0  0  0  0  0
   14.4674  -18.3228   21.7541 O   0  0  0  0  0  0  0  0  0  0  0  0
   15.9873  -17.5184   23.2294 O   0  0  0  0  0  0  0  0  0  0  0  0
  2 13  1  0
  2  1  1  1
  3  2  1  0
  4  3  1  0
  4 12  1  0
  5  6  1  0
  5  4  2  0
  6  7  1  0
  7 12  2  0
  7  8  1  0
  8  9  2  0
  9 10  1  0
 11 10  2  0
 12 11  1  0
 13 19  1  0
 14 13  2  0
 16 15  1  1
 16 17  1  0
 18 16  1  0
 18 19  1  1
 20 18  1  0
 21 20  2  0
 22 20  1  0
 23 22  1  0
 23 26  1  0
 24 25  1  0
 23 24  1  1
 26 28  1  0
 27 26  2  0
M  END
$$$$
