WTC.pdb
     RDKit          3D

 28 29  0  0  1  0  0  0  0  0999 V2000
    6.7314  -17.9885   24.7714 N   0  0  0  0  0  0  0  0  0  0  0  0
    7.1123  -16.8582   23.9645 C   0  0  1  0  0  0  0  0  0  0  0  0
    7.9036  -15.8820   24.8034 C   0  0  0  0  0  0  0  0  0  0  0  0
    7.0837  -14.9536   25.5756 C   0  0  0  0  0  0  0  0  0  0  0  0
    6.1755  -15.3612   26.5354 C   0  0  0  0  0  0  0  0  0  0  0  0
    5.6345  -14.2562   27.0551 N   0  0  0  0  0  0  0  0  0  0  0  0
    6.1673  -13.1606   26.4581 C   0  0  0  0  0  0  0  0  0  0  0  0
    5.9188  -11.8290   26.6552 C   0  0  0  0  0  0  0  0  0  0  0  0
    6.6161  -10.9288   25.8836 C   0  0  0  0  0  0  0  0  0  0  0  0
    7.5368  -11.3166   24.9386 C   0  0  0  0  0  0  0  0  0  0  0  0
    7.7861  -12.6566   24.7414 C   0  0  0  0  0  0  0  0  0  0  0  0
    7.0947  -13.5889   25.5099 C   0  0  0  0  0  0  0  0  0  0  0  0
    8.0490  -17.3346   22.9037 C   0  0  0  0  0  0  0  0  0  0  0  0
    8.7288  -18.3613   23.1476 O   0  0  0  0  0  0  0  0  0  0  0  0
    7.5639  -16.3599   19.0180 C   0  0  0  0  0  0  0  0  0  0  0  0
    9.0018  -16.2995   19.4622 C   0  0  1  0  0  0  0  0  0  0  0  0
    9.3425  -14.9453   19.5462 O   0  0  0  0  0  0  0  0  0  0  0  0
    9.2391  -17.0318   20.7691 C   0  0  2  0  0  0  0  0  0  0  0  0
    8.1701  -16.6514   21.6577 N   0  0  0  0  0  0  0  0  0  0  0  0
   10.5712  -16.7144   21.3358 C   0  0  0  0  0  0  0  0  0  0  0  0
   10.6632  -15.7990   22.1872 O   0  0  0  0  0  0  0  0  0  0  0  0
   11.7664  -17.3847   20.9760 N   0  0  0  0  0  0  0  0  0  0  0  0
   13.0319  -17.1544   21.6464 C   0  0  1  0  0  0  0  0  0  0  0  0
   12.9674  -17.6225   23.1045 C   0  0  0  0  0  0  0  0  0  0  0  0
   14.5787  -17.6619   23.8823 S   0  0  0  0  0  0  0  0  0  0  0  0
   14.0370  -18.0131   20.9879 C   0  0  0  0  0  0  0  0  0  0  0  0
   15.2441  -17.8279   21.2517 O   0  0  0  0  0  0  0  0  0  0  0  0
   13.6895  -19.0050   20.0980 O   0  0  0  0  0  0  0  0  0  0  0  0
  2 13  1  0
  2  1  1  1
  3  2  1  0
  4  3  1  0
  4 12  1  0
  5  6  1  0
  5  4  2  0
  6  7  1  0
  7 12  2  0
  7  8  1  0
  8  9  2  0
  9 10  1  0
 11 10  2  0
 12 11  1  0
 13 19  1  0
 14 13  2  0
 16 15  1  1
 16 17  1  0
 18 16  1  0
 18 19  1  1
 20 18  1  0
 21 20  2  0
 22 20  1  0
 23 22  1  0
 23 26  1  0
 24 25  1  0
 23 24  1  1
 26 28  1  0
 27 26  2  0
M  END
$$$$
