WTC.pdb
     RDKit          3D

 28 29  0  0  1  0  0  0  0  0999 V2000
    6.9921  -17.1643   23.1293 N   0  0  0  0  0  0  0  0  0  0  0  0
    8.0651  -16.2039   23.1336 C   0  0  1  0  0  0  0  0  0  0  0  0
    8.4584  -15.8917   24.5587 C   0  0  0  0  0  0  0  0  0  0  0  0
    7.4326  -15.1893   25.3232 C   0  0  0  0  0  0  0  0  0  0  0  0
    6.4283  -15.8369   26.0192 C   0  0  0  0  0  0  0  0  0  0  0  0
    5.6986  -14.8933   26.6200 N   0  0  0  0  0  0  0  0  0  0  0  0
    6.2043  -13.6685   26.3292 C   0  0  0  0  0  0  0  0  0  0  0  0
    5.7904  -12.4203   26.7094 C   0  0  0  0  0  0  0  0  0  0  0  0
    6.5060  -11.3416   26.2446 C   0  0  0  0  0  0  0  0  0  0  0  0
    7.6026  -11.4745   25.4256 C   0  0  0  0  0  0  0  0  0  0  0  0
    8.0182  -12.7308   25.0438 C   0  0  0  0  0  0  0  0  0  0  0  0
    7.3123  -13.8400   25.5011 C   0  0  0  0  0  0  0  0  0  0  0  0
    9.2645  -16.8390   22.5110 C   0  0  0  0  0  0  0  0  0  0  0  0
    9.0686  -17.6959   21.6148 O   0  0  0  0  0  0  0  0  0  0  0  0
   10.2571  -16.6767   20.1139 C   0  0  0  0  0  0  0  0  0  0  0  0
   11.5853  -16.3933   20.7651 C   0  0  1  0  0  0  0  0  0  0  0  0
   11.7387  -15.0030   20.7825 O   0  0  0  0  0  0  0  0  0  0  0  0
   11.6955  -16.9990   22.1514 C   0  0  2  0  0  0  0  0  0  0  0  0
   10.5860  -16.4881   22.9165 N   0  0  0  0  0  0  0  0  0  0  0  0
   12.9981  -16.6799   22.7819 C   0  0  0  0  0  0  0  0  0  0  0  0
   13.4495  -15.5149   22.6800 O   0  0  0  0  0  0  0  0  0  0  0  0
   13.7806  -17.6151   23.5031 N   0  0  0  0  0  0  0  0  0  0  0  0
   14.7968  -17.2212   24.4602 C   0  0  1  0  0  0  0  0  0  0  0  0
   14.7126  -18.0805   25.7266 C   0  0  0  0  0  0  0  0  0  0  0  0
   13.0726  -18.0842   26.4430 S   0  0  0  0  0  0  0  0  0  0  0  0
   16.1087  -17.5212   23.8517 C   0  0  0  0  0  0  0  0  0  0  0  0
   17.1426  -17.2111   24.4810 O   0  0  0  0  0  0  0  0  0  0  0  0
   16.2291  -18.1276   22.6213 O   0  0  0  0  0  0  0  0  0  0  0  0
  2 13  1  0
  2  1  1  1
  3  2  1  0
  4  3  1  0
  4 12  1  0
  5  6  1  0
  5  4  2  0
  6  7  1  0
  7 12  2  0
  7  8  1  0
  8  9  2  0
  9 10  1  0
 11 10  2  0
 12 11  1  0
 13 19  1  0
 14 13  2  0
 16 15  1  1
 16 17  1  0
 18 16  1  0
 18 19  1  1
 20 18  1  0
 21 20  2  0
 22 20  1  0
 23 22  1  0
 23 26  1  0
 24 25  1  0
 23 24  1  1
 26 28  1  0
 27 26  2  0
M  END
$$$$
