WTC.pdb
     RDKit          3D

 28 29  0  0  1  0  0  0  0  0999 V2000
    6.6553  -17.4813   23.7037 N   0  0  0  0  0  0  0  0  0  0  0  0
    7.7066  -16.5268   23.4638 C   0  0  1  0  0  0  0  0  0  0  0  0
    8.2109  -15.9883   24.7824 C   0  0  0  0  0  0  0  0  0  0  0  0
    7.2680  -15.1136   25.4724 C   0  0  0  0  0  0  0  0  0  0  0  0
    6.2019  -15.5841   26.2170 C   0  0  0  0  0  0  0  0  0  0  0  0
    5.5788  -14.5171   26.7241 N   0  0  0  0  0  0  0  0  0  0  0  0
    6.2119  -13.3849   26.3270 C   0  0  0  0  0  0  0  0  0  0  0  0
    5.9349  -12.0703   26.5892 C   0  0  0  0  0  0  0  0  0  0  0  0
    6.7607  -11.1210   26.0335 C   0  0  0  0  0  0  0  0  0  0  0  0
    7.8348  -11.4444   25.2380 C   0  0  0  0  0  0  0  0  0  0  0  0
    8.1127  -12.7674   24.9751 C   0  0  0  0  0  0  0  0  0  0  0  0
    7.2932  -13.7486   25.5260 C   0  0  0  0  0  0  0  0  0  0  0  0
    8.8619  -17.2470   22.8506 C   0  0  0  0  0  0  0  0  0  0  0  0
    9.0761  -18.4260   23.2247 O   0  0  0  0  0  0  0  0  0  0  0  0
   10.4294  -16.7217   19.2080 C   0  0  0  0  0  0  0  0  0  0  0  0
   11.4661  -16.6140   20.2954 C   0  0  1  0  0  0  0  0  0  0  0  0
   11.7981  -15.2595   20.4047 O   0  0  0  0  0  0  0  0  0  0  0  0
   10.9905  -17.1952   21.6133 C   0  0  2  0  0  0  0  0  0  0  0  0
    9.6942  -16.6224   21.8754 N   0  0  0  0  0  0  0  0  0  0  0  0
   11.9510  -16.9184   22.7074 C   0  0  0  0  0  0  0  0  0  0  0  0
   11.8018  -15.8805   23.3943 O   0  0  0  0  0  0  0  0  0  0  0  0
   13.0430  -17.7591   23.0357 N   0  0  0  0  0  0  0  0  0  0  0  0
   13.6411  -17.7950   24.3566 C   0  0  1  0  0  0  0  0  0  0  0  0
   12.6380  -18.3129   25.3933 C   0  0  0  0  0  0  0  0  0  0  0  0
   13.3642  -18.4889   27.0195 S   0  0  0  0  0  0  0  0  0  0  0  0
   14.7323  -18.7894   24.3145 C   0  0  0  0  0  0  0  0  0  0  0  0
   14.5404  -19.8594   23.6986 O   0  0  0  0  0  0  0  0  0  0  0  0
   15.9468  -18.5774   24.9282 O   0  0  0  0  0  0  0  0  0  0  0  0
  2 13  1  0
  2  1  1  1
  3  2  1  0
  4  3  1  0
  4 12  1  0
  5  6  1  0
  5  4  2  0
  6  7  1  0
  7 12  2  0
  7  8  1  0
  8  9  2  0
  9 10  1  0
 11 10  2  0
 12 11  1  0
 13 19  1  0
 14 13  2  0
 16 15  1  6
 16 17  1  0
 18 16  1  0
 18 19  1  1
 20 18  1  0
 21 20  2  0
 22 20  1  0
 23 22  1  0
 23 26  1  0
 24 25  1  0
 23 24  1  1
 26 28  1  0
 27 26  2  0
M  END
$$$$
