WTC.pdb
     RDKit          3D

 28 29  0  0  1  0  0  0  0  0999 V2000
    6.0805  -17.4932   23.7590 N   0  0  0  0  0  0  0  0  0  0  0  0
    6.9845  -16.4685   23.3044 C   0  0  1  0  0  0  0  0  0  0  0  0
    7.8014  -15.9617   24.4700 C   0  0  0  0  0  0  0  0  0  0  0  0
    7.0687  -15.0868   25.3798 C   0  0  0  0  0  0  0  0  0  0  0  0
    6.2251  -15.5568   26.3696 C   0  0  0  0  0  0  0  0  0  0  0  0
    5.7560  -14.4899   27.0218 N   0  0  0  0  0  0  0  0  0  0  0  0
    6.2721  -13.3582   26.4803 C   0  0  0  0  0  0  0  0  0  0  0  0
    6.0764  -12.0437   26.8084 C   0  0  0  0  0  0  0  0  0  0  0  0
    6.7378  -11.0949   26.0640 C   0  0  0  0  0  0  0  0  0  0  0  0
    7.5730  -11.4186   25.0205 C   0  0  0  0  0  0  0  0  0  0  0  0
    7.7692  -12.7414   24.6914 C   0  0  0  0  0  0  0  0  0  0  0  0
    7.1126  -13.7221   25.4296 C   0  0  0  0  0  0  0  0  0  0  0  0
    7.9623  -17.0908   22.3630 C   0  0  0  0  0  0  0  0  0  0  0  0
    7.5611  -18.0494   21.6587 O   0  0  0  0  0  0  0  0  0  0  0  0
    7.8294  -16.6520   19.9437 C   0  0  0  0  0  0  0  0  0  0  0  0
    9.3010  -16.3329   19.9072 C   0  0  1  0  0  0  0  0  0  0  0  0
    9.4116  -14.9389   19.8675 O   0  0  0  0  0  0  0  0  0  0  0  0
   10.0566  -16.9342   21.0770 C   0  0  2  0  0  0  0  0  0  0  0  0
    9.3037  -16.6167   22.2642 N   0  0  0  0  0  0  0  0  0  0  0  0
   11.4457  -16.4225   21.1473 C   0  0  0  0  0  0  0  0  0  0  0  0
   11.6963  -15.2881   20.6766 O   0  0  0  0  0  0  0  0  0  0  0  0
   12.5266  -17.1382   21.7188 N   0  0  0  0  0  0  0  0  0  0  0  0
   13.4442  -16.5491   22.6754 C   0  0  1  0  0  0  0  0  0  0  0  0
   12.7296  -16.2436   23.9965 C   0  0  0  0  0  0  0  0  0  0  0  0
   11.8122  -17.6486   24.6188 S   0  0  0  0  0  0  0  0  0  0  0  0
   14.4618  -17.5720   22.9905 C   0  0  0  0  0  0  0  0  0  0  0  0
   15.4990  -17.2164   23.5895 O   0  0  0  0  0  0  0  0  0  0  0  0
   14.3060  -18.8967   22.6480 O   0  0  0  0  0  0  0  0  0  0  0  0
  2 13  1  0
  2  1  1  1
  3  2  1  0
  4  3  1  0
  4 12  1  0
  5  6  1  0
  5  4  2  0
  6  7  1  0
  7 12  2  0
  7  8  1  0
  8  9  2  0
  9 10  1  0
 11 10  2  0
 12 11  1  0
 13 19  1  0
 14 13  2  0
 16 15  1  1
 16 17  1  0
 18 16  1  0
 18 19  1  1
 20 18  1  0
 21 20  2  0
 22 20  1  0
 23 22  1  0
 23 26  1  0
 24 25  1  0
 23 24  1  1
 26 28  1  0
 27 26  2  0
M  END
$$$$
