WTC.pdb
     RDKit          3D

 28 29  0  0  1  0  0  0  0  0999 V2000
    8.2704  -16.8057   23.1713 N   0  0  0  0  0  0  0  0  0  0  0  0
    7.3787  -15.8311   22.5980 C   0  0  1  0  0  0  0  0  0  0  0  0
    7.5742  -14.5004   23.2864 C   0  0  0  0  0  0  0  0  0  0  0  0
    7.1210  -14.4712   24.6735 C   0  0  0  0  0  0  0  0  0  0  0  0
    6.5812  -15.5687   25.3187 C   0  0  0  0  0  0  0  0  0  0  0  0
    6.3109  -15.1915   26.5711 N   0  0  0  0  0  0  0  0  0  0  0  0
    6.6599  -13.8919   26.7437 C   0  0  0  0  0  0  0  0  0  0  0  0
    6.5638  -13.0819   27.8429 C   0  0  0  0  0  0  0  0  0  0  0  0
    6.9964  -11.7823   27.7177 C   0  0  0  0  0  0  0  0  0  0  0  0
    7.5121  -11.2804   26.5458 C   0  0  0  0  0  0  0  0  0  0  0  0
    7.6085  -12.0964   25.4405 C   0  0  0  0  0  0  0  0  0  0  0  0
    7.1787  -13.4167   25.5404 C   0  0  0  0  0  0  0  0  0  0  0  0
    7.7748  -15.6142   21.1747 C   0  0  0  0  0  0  0  0  0  0  0  0
    6.8670  -15.6439   20.3082 O   0  0  0  0  0  0  0  0  0  0  0  0
    7.1902  -13.9356   19.6722 C   0  0  0  0  0  0  0  0  0  0  0  0
    8.5705  -13.8612   19.0742 C   0  0  1  0  0  0  0  0  0  0  0  0
    9.1358  -12.6582   19.5103 O   0  0  0  0  0  0  0  0  0  0  0  0
    9.4269  -15.0601   19.4346 C   0  0  2  0  0  0  0  0  0  0  0  0
    9.1334  -15.3814   20.8086 N   0  0  0  0  0  0  0  0  0  0  0  0
   10.8674  -14.7816   19.2254 C   0  0  0  0  0  0  0  0  0  0  0  0
   11.4651  -14.0433   20.0433 O   0  0  0  0  0  0  0  0  0  0  0  0
   11.6273  -15.3004   18.1481 N   0  0  0  0  0  0  0  0  0  0  0  0
   13.0664  -15.4711   18.2086 C   0  0  1  0  0  0  0  0  0  0  0  0
   13.4268  -16.9041   18.6160 C   0  0  0  0  0  0  0  0  0  0  0  0
   13.1261  -17.2180   20.3520 S   0  0  0  0  0  0  0  0  0  0  0  0
   13.5845  -15.2958   16.8368 C   0  0  0  0  0  0  0  0  0  0  0  0
   14.8212  -15.2325   16.6700 O   0  0  0  0  0  0  0  0  0  0  0  0
   12.7546  -15.2004   15.7420 O   0  0  0  0  0  0  0  0  0  0  0  0
  2 13  1  0
  2  1  1  1
  3  2  1  0
  4  3  1  0
  4 12  1  0
  5  6  1  0
  5  4  2  0
  6  7  1  0
  7 12  2  0
  7  8  1  0
  8  9  2  0
  9 10  1  0
 11 10  2  0
 12 11  1  0
 13 19  1  0
 14 13  2  0
 16 15  1  1
 16 17  1  0
 18 16  1  0
 18 19  1  1
 20 18  1  0
 21 20  2  0
 22 20  1  0
 23 22  1  0
 23 26  1  0
 24 25  1  0
 23 24  1  6
 26 28  1  0
 27 26  2  0
M  END
$$$$
