WTC.pdb
     RDKit          3D

 28 29  0  0  1  0  0  0  0  0999 V2000
    6.5442  -17.6926   23.2982 N   0  0  0  0  0  0  0  0  0  0  0  0
    7.5953  -16.7581   23.6072 C   0  0  1  0  0  0  0  0  0  0  0  0
    7.4585  -16.2992   25.0403 C   0  0  0  0  0  0  0  0  0  0  0  0
    6.5452  -15.1759   25.2252 C   0  0  0  0  0  0  0  0  0  0  0  0
    5.2545  -15.3177   25.7007 C   0  0  0  0  0  0  0  0  0  0  0  0
    4.7272  -14.0926   25.7703 N   0  0  0  0  0  0  0  0  0  0  0  0
    5.6383  -13.1773   25.3547 C   0  0  0  0  0  0  0  0  0  0  0  0
    5.5482  -11.8156   25.2473 C   0  0  0  0  0  0  0  0  0  0  0  0
    6.6497  -11.1383   24.7785 C   0  0  0  0  0  0  0  0  0  0  0  0
    7.8159  -11.7733   24.4209 C   0  0  0  0  0  0  0  0  0  0  0  0
    7.9054  -13.1433   24.5295 C   0  0  0  0  0  0  0  0  0  0  0  0
    6.8052  -13.8532   25.0023 C   0  0  0  0  0  0  0  0  0  0  0  0
    8.9002  -17.4803   23.5347 C   0  0  0  0  0  0  0  0  0  0  0  0
    9.0962  -18.2275   22.5452 O   0  0  0  0  0  0  0  0  0  0  0  0
   10.5055  -16.5993   21.9238 C   0  0  0  0  0  0  0  0  0  0  0  0
   11.4905  -16.4220   23.0494 C   0  0  1  0  0  0  0  0  0  0  0  0
   11.3688  -15.0994   23.4886 O   0  0  0  0  0  0  0  0  0  0  0  0
   11.2782  -17.4199   24.1718 C   0  0  2  0  0  0  0  0  0  0  0  0
    9.8904  -17.3297   24.5500 N   0  0  0  0  0  0  0  0  0  0  0  0
   12.1833  -17.1531   25.3146 C   0  0  0  0  0  0  0  0  0  0  0  0
   13.4185  -17.2912   25.1521 O   0  0  0  0  0  0  0  0  0  0  0  0
   11.7418  -16.7462   26.5978 N   0  0  0  0  0  0  0  0  0  0  0  0
   12.6386  -16.5898   27.7272 C   0  0  1  0  0  0  0  0  0  0  0  0
   12.1329  -15.4967   28.6751 C   0  0  0  0  0  0  0  0  0  0  0  0
   11.3402  -14.1490   27.8042 S   0  0  0  0  0  0  0  0  0  0  0  0
   12.5933  -17.8490   28.4977 C   0  0  0  0  0  0  0  0  0  0  0  0
   13.2727  -17.9332   29.5428 O   0  0  0  0  0  0  0  0  0  0  0  0
   11.8315  -18.9267   28.1045 O   0  0  0  0  0  0  0  0  0  0  0  0
  2 13  1  0
  2  1  1  1
  3  2  1  0
  4  3  1  0
  4 12  1  0
  5  6  1  0
  5  4  2  0
  6  7  1  0
  7 12  2  0
  7  8  1  0
  8  9  2  0
  9 10  1  0
 11 10  2  0
 12 11  1  0
 13 19  1  0
 14 13  2  0
 16 15  1  6
 16 17  1  0
 18 16  1  0
 18 19  1  1
 20 18  1  0
 21 20  2  0
 22 20  1  0
 23 22  1  0
 23 26  1  0
 24 25  1  0
 23 24  1  1
 26 28  1  0
 27 26  2  0
M  END
$$$$
