WTC.pdb
     RDKit          3D

 28 29  0  0  1  0  0  0  0  0999 V2000
    6.0938  -18.1304   24.4437 N   0  0  0  0  0  0  0  0  0  0  0  0
    6.6836  -16.8610   24.1053 C   0  0  1  0  0  0  0  0  0  0  0  0
    7.4077  -16.3034   25.3085 C   0  0  0  0  0  0  0  0  0  0  0  0
    6.7184  -15.1954   25.9623 C   0  0  0  0  0  0  0  0  0  0  0  0
    5.6181  -15.3646   26.7828 C   0  0  0  0  0  0  0  0  0  0  0  0
    5.2723  -14.1534   27.2268 N   0  0  0  0  0  0  0  0  0  0  0  0
    6.1145  -13.2204   26.7162 C   0  0  0  0  0  0  0  0  0  0  0  0
    6.1463  -11.8621   26.8830 C   0  0  0  0  0  0  0  0  0  0  0  0
    7.1275  -11.1608   26.2218 C   0  0  0  0  0  0  0  0  0  0  0  0
    8.0593  -11.7691   25.4138 C   0  0  0  0  0  0  0  0  0  0  0  0
    8.0264  -13.1357   25.2468 C   0  0  0  0  0  0  0  0  0  0  0  0
    7.0441  -13.8697   25.9057 C   0  0  0  0  0  0  0  0  0  0  0  0
    7.7346  -17.0940   23.0706 C   0  0  0  0  0  0  0  0  0  0  0  0
    8.3668  -18.1775   23.1186 O   0  0  0  0  0  0  0  0  0  0  0  0
    7.2723  -15.3901   19.5152 C   0  0  0  0  0  0  0  0  0  0  0  0
    8.7278  -15.4960   19.8878 C   0  0  1  0  0  0  0  0  0  0  0  0
    9.1643  -14.2007   20.1856 O   0  0  0  0  0  0  0  0  0  0  0  0
    8.9668  -16.4588   21.0353 C   0  0  2  0  0  0  0  0  0  0  0  0
    8.0134  -16.1240   22.0630 N   0  0  0  0  0  0  0  0  0  0  0  0
   10.3627  -16.3822   21.5271 C   0  0  0  0  0  0  0  0  0  0  0  0
   10.6680  -15.4790   22.3409 O   0  0  0  0  0  0  0  0  0  0  0  0
   11.3919  -17.2733   21.1349 N   0  0  0  0  0  0  0  0  0  0  0  0
   12.7435  -17.1948   21.6553 C   0  0  1  0  0  0  0  0  0  0  0  0
   13.1073  -18.4737   22.4177 C   0  0  0  0  0  0  0  0  0  0  0  0
   12.4270  -18.5004   24.0728 S   0  0  0  0  0  0  0  0  0  0  0  0
   13.6553  -17.1400   20.4948 C   0  0  0  0  0  0  0  0  0  0  0  0
   13.1670  -17.2300   19.3482 O   0  0  0  0  0  0  0  0  0  0  0  0
   15.0176  -16.9940   20.6340 O   0  0  0  0  0  0  0  0  0  0  0  0
  2 13  1  0
  2  1  1  1
  3  2  1  0
  4  3  1  0
  4 12  1  0
  5  6  1  0
  5  4  2  0
  6  7  1  0
  7 12  2  0
  7  8  1  0
  8  9  2  0
  9 10  1  0
 11 10  2  0
 12 11  1  0
 13 19  1  0
 14 13  2  0
 16 15  1  1
 16 17  1  0
 18 16  1  0
 18 19  1  1
 20 18  1  0
 21 20  2  0
 22 20  1  0
 23 22  1  0
 23 26  1  0
 24 25  1  0
 23 24  1  6
 26 28  1  0
 27 26  2  0
M  END
$$$$
