WTC.pdb
     RDKit          3D

 28 29  0  0  1  0  0  0  0  0999 V2000
    6.5152  -17.4067   24.6564 N   0  0  0  0  0  0  0  0  0  0  0  0
    6.7824  -16.1253   24.0561 C   0  0  1  0  0  0  0  0  0  0  0  0
    7.7668  -15.3619   24.9112 C   0  0  0  0  0  0  0  0  0  0  0  0
    7.1570  -14.6226   26.0121 C   0  0  0  0  0  0  0  0  0  0  0  0
    6.7071  -15.2244   27.1730 C   0  0  0  0  0  0  0  0  0  0  0  0
    6.2436  -14.2519   27.9624 N   0  0  0  0  0  0  0  0  0  0  0  0
    6.3828  -13.0531   27.3429 C   0  0  0  0  0  0  0  0  0  0  0  0
    6.0469  -11.7921   27.7561 C   0  0  0  0  0  0  0  0  0  0  0  0
    6.3029  -10.7495   26.8963 C   0  0  0  0  0  0  0  0  0  0  0  0
    6.8741  -10.9302   25.6585 C   0  0  0  0  0  0  0  0  0  0  0  0
    7.2119  -12.1993   25.2439 C   0  0  0  0  0  0  0  0  0  0  0  0
    6.9645  -13.2725   26.0953 C   0  0  0  0  0  0  0  0  0  0  0  0
    7.4702  -16.3540   22.7507 C   0  0  0  0  0  0  0  0  0  0  0  0
    8.1161  -17.4216   22.6138 O   0  0  0  0  0  0  0  0  0  0  0  0
    8.3347  -13.1241   20.1711 C   0  0  0  0  0  0  0  0  0  0  0  0
    7.9306  -14.4510   19.5841 C   0  0  1  0  0  0  0  0  0  0  0  0
    8.6117  -14.5799   18.3690 O   0  0  0  0  0  0  0  0  0  0  0  0
    8.2070  -15.6111   20.5214 C   0  0  2  0  0  0  0  0  0  0  0  0
    7.3986  -15.3974   21.6953 N   0  0  0  0  0  0  0  0  0  0  0  0
    9.6483  -15.7118   20.8510 C   0  0  0  0  0  0  0  0  0  0  0  0
   10.1130  -14.9830   21.7589 O   0  0  0  0  0  0  0  0  0  0  0  0
   10.5512  -16.5888   20.2008 N   0  0  0  0  0  0  0  0  0  0  0  0
   11.9720  -16.6153   20.4917 C   0  0  1  0  0  0  0  0  0  0  0  0
   12.3108  -17.7701   21.4409 C   0  0  0  0  0  0  0  0  0  0  0  0
   11.9241  -17.3896   23.1463 S   0  0  0  0  0  0  0  0  0  0  0  0
   12.6712  -16.9118   19.2249 C   0  0  0  0  0  0  0  0  0  0  0  0
   11.9872  -17.1988   18.2195 O   0  0  0  0  0  0  0  0  0  0  0  0
   14.0436  -16.8824   19.1162 O   0  0  0  0  0  0  0  0  0  0  0  0
  2 13  1  0
  2  1  1  1
  3  2  1  0
  4  3  1  0
  4 12  1  0
  5  6  1  0
  5  4  2  0
  6  7  1  0
  7 12  2  0
  7  8  1  0
  8  9  2  0
  9 10  1  0
 11 10  2  0
 12 11  1  0
 13 19  1  0
 14 13  2  0
 16 15  1  1
 16 17  1  0
 18 16  1  0
 18 19  1  1
 20 18  1  0
 21 20  2  0
 22 20  1  0
 23 22  1  0
 23 26  1  0
 24 25  1  0
 23 24  1  1
 26 28  1  0
 27 26  2  0
M  END
$$$$
