WTC.pdb
     RDKit          3D

 28 29  0  0  1  0  0  0  0  0999 V2000
    7.3069  -17.7421   24.4519 N   0  0  0  0  0  0  0  0  0  0  0  0
    7.4790  -16.8001   23.3764 C   0  0  1  0  0  0  0  0  0  0  0  0
    8.1547  -15.5539   23.8993 C   0  0  0  0  0  0  0  0  0  0  0  0
    7.3973  -14.8486   24.9285 C   0  0  0  0  0  0  0  0  0  0  0  0
    6.4445  -15.4602   25.7225 C   0  0  0  0  0  0  0  0  0  0  0  0
    5.9830  -14.5314   26.5640 N   0  0  0  0  0  0  0  0  0  0  0  0
    6.6092  -13.3506   26.3316 C   0  0  0  0  0  0  0  0  0  0  0  0
    6.4622  -12.1303   26.9340 C   0  0  0  0  0  0  0  0  0  0  0  0
    7.2400  -11.0935   26.4736 C   0  0  0  0  0  0  0  0  0  0  0  0
    8.1429  -11.2410   25.4469 C   0  0  0  0  0  0  0  0  0  0  0  0
    8.2901  -12.4693   24.8417 C   0  0  0  0  0  0  0  0  0  0  0  0
    7.5157  -13.5361   25.2891 C   0  0  0  0  0  0  0  0  0  0  0  0
    8.4264  -17.3900   22.3844 C   0  0  0  0  0  0  0  0  0  0  0  0
    8.9976  -18.4640   22.6944 O   0  0  0  0  0  0  0  0  0  0  0  0
    8.5028  -19.6122   20.8616 C   0  0  0  0  0  0  0  0  0  0  0  0
    8.8157  -18.6710   19.7281 C   0  0  1  0  0  0  0  0  0  0  0  0
    7.6000  -18.3712   19.1042 O   0  0  0  0  0  0  0  0  0  0  0  0
    9.5448  -17.4240   20.1907 C   0  0  2  0  0  0  0  0  0  0  0  0
    8.6761  -16.7599   21.1296 N   0  0  0  0  0  0  0  0  0  0  0  0
    9.9016  -16.5483   19.0496 C   0  0  0  0  0  0  0  0  0  0  0  0
    9.0154  -16.2549   18.2129 O   0  0  0  0  0  0  0  0  0  0  0  0
   11.1951  -16.0115   18.8358 N   0  0  0  0  0  0  0  0  0  0  0  0
   11.4401  -14.5934   18.6542 C   0  0  1  0  0  0  0  0  0  0  0  0
   10.6761  -13.7720   19.6987 C   0  0  0  0  0  0  0  0  0  0  0  0
    9.0973  -13.1895   19.0896 S   0  0  0  0  0  0  0  0  0  0  0  0
   12.8736  -14.3605   18.9230 C   0  0  0  0  0  0  0  0  0  0  0  0
   13.4717  -15.1455   19.6892 O   0  0  0  0  0  0  0  0  0  0  0  0
   13.5683  -13.3131   18.3602 O   0  0  0  0  0  0  0  0  0  0  0  0
  2 13  1  0
  2  1  1  1
  3  2  1  0
  4  3  1  0
  4 12  1  0
  5  6  1  0
  5  4  2  0
  6  7  1  0
  7 12  2  0
  7  8  1  0
  8  9  2  0
  9 10  1  0
 11 10  2  0
 12 11  1  0
 13 19  1  0
 14 13  2  0
 16 15  1  1
 16 17  1  0
 18 16  1  0
 18 19  1  1
 20 18  1  0
 21 20  2  0
 22 20  1  0
 23 22  1  0
 23 26  1  0
 24 25  1  0
 23 24  1  1
 26 28  1  0
 27 26  2  0
M  END
$$$$
