WTC.pdb
     RDKit          3D

 28 29  0  0  1  0  0  0  0  0999 V2000
    6.5474  -17.6782   23.8462 N   0  0  0  0  0  0  0  0  0  0  0  0
    7.4997  -16.6805   23.4322 C   0  0  1  0  0  0  0  0  0  0  0  0
    8.1153  -16.0329   24.6506 C   0  0  0  0  0  0  0  0  0  0  0  0
    7.2356  -15.0933   25.3388 C   0  0  0  0  0  0  0  0  0  0  0  0
    6.1487  -15.4879   26.0973 C   0  0  0  0  0  0  0  0  0  0  0  0
    5.5986  -14.3786   26.5978 N   0  0  0  0  0  0  0  0  0  0  0  0
    6.2982  -13.2927   26.1830 C   0  0  0  0  0  0  0  0  0  0  0  0
    6.1068  -11.9606   26.4330 C   0  0  0  0  0  0  0  0  0  0  0  0
    6.9857  -11.0711   25.8602 C   0  0  0  0  0  0  0  0  0  0  0  0
    8.0302  -11.4699   25.0594 C   0  0  0  0  0  0  0  0  0  0  0  0
    8.2218  -12.8104   24.8087 C   0  0  0  0  0  0  0  0  0  0  0  0
    7.3472  -13.7321   25.3772 C   0  0  0  0  0  0  0  0  0  0  0  0
    8.6219  -17.3685   22.7272 C   0  0  0  0  0  0  0  0  0  0  0  0
    8.8880  -18.5464   23.0701 O   0  0  0  0  0  0  0  0  0  0  0  0
    9.8046  -16.8981   18.9947 C   0  0  0  0  0  0  0  0  0  0  0  0
   10.9631  -16.7409   19.9443 C   0  0  1  0  0  0  0  0  0  0  0  0
   11.3003  -15.3833   19.9496 O   0  0  0  0  0  0  0  0  0  0  0  0
   10.6505  -17.2587   21.3353 C   0  0  2  0  0  0  0  0  0  0  0  0
    9.3668  -16.7153   21.7013 N   0  0  0  0  0  0  0  0  0  0  0  0
   11.7078  -16.8856   22.3044 C   0  0  0  0  0  0  0  0  0  0  0  0
   11.5285  -15.8860   23.0392 O   0  0  0  0  0  0  0  0  0  0  0  0
   12.9260  -17.5919   22.4601 N   0  0  0  0  0  0  0  0  0  0  0  0
   13.6762  -17.6058   23.7015 C   0  0  1  0  0  0  0  0  0  0  0  0
   12.9006  -18.3462   24.7967 C   0  0  0  0  0  0  0  0  0  0  0  0
   13.8382  -18.5016   26.3131 S   0  0  0  0  0  0  0  0  0  0  0  0
   14.8995  -18.3981   23.4631 C   0  0  0  0  0  0  0  0  0  0  0  0
   15.9193  -18.1374   24.1362 O   0  0  0  0  0  0  0  0  0  0  0  0
   14.9528  -19.4086   22.5290 O   0  0  0  0  0  0  0  0  0  0  0  0
  2 13  1  0
  2  1  1  1
  3  2  1  0
  4  3  1  0
  4 12  1  0
  5  6  1  0
  5  4  2  0
  6  7  1  0
  7 12  2  0
  7  8  1  0
  8  9  2  0
  9 10  1  0
 11 10  2  0
 12 11  1  0
 13 19  1  0
 14 13  2  0
 16 15  1  6
 16 17  1  0
 18 16  1  0
 18 19  1  1
 20 18  1  0
 21 20  2  0
 22 20  1  0
 23 22  1  0
 23 26  1  0
 24 25  1  0
 23 24  1  1
 26 28  1  0
 27 26  2  0
M  END
$$$$
