WTC.pdb
     RDKit          3D

 28 29  0  0  1  0  0  0  0  0999 V2000
    6.4763  -17.7806   24.6175 N   0  0  0  0  0  0  0  0  0  0  0  0
    7.0468  -16.7061   23.8469 C   0  0  1  0  0  0  0  0  0  0  0  0
    7.9130  -15.8483   24.7396 C   0  0  0  0  0  0  0  0  0  0  0  0
    7.1702  -14.8979   25.5613 C   0  0  0  0  0  0  0  0  0  0  0  0
    6.2709  -15.2812   26.5394 C   0  0  0  0  0  0  0  0  0  0  0  0
    5.8084  -14.1628   27.1043 N   0  0  0  0  0  0  0  0  0  0  0  0
    6.3823  -13.0821   26.5184 C   0  0  0  0  0  0  0  0  0  0  0  0
    6.2142  -11.7448   26.7571 C   0  0  0  0  0  0  0  0  0  0  0  0
    6.9361  -10.8634   25.9864 C   0  0  0  0  0  0  0  0  0  0  0  0
    7.8042  -11.2751   25.0025 C   0  0  0  0  0  0  0  0  0  0  0  0
    7.9725  -12.6209   24.7633 C   0  0  0  0  0  0  0  0  0  0  0  0
    7.2547  -13.5346   25.5299 C   0  0  0  0  0  0  0  0  0  0  0  0
    7.9690  -17.2963   22.8316 C   0  0  0  0  0  0  0  0  0  0  0  0
    8.5550  -18.3652   23.1312 O   0  0  0  0  0  0  0  0  0  0  0  0
    7.6362  -16.5782   18.8793 C   0  0  0  0  0  0  0  0  0  0  0  0
    9.0598  -16.5172   19.3675 C   0  0  1  0  0  0  0  0  0  0  0  0
    9.4262  -15.1671   19.3775 O   0  0  0  0  0  0  0  0  0  0  0  0
    9.2385  -17.1692   20.7253 C   0  0  2  0  0  0  0  0  0  0  0  0
    8.1793  -16.6719   21.5667 N   0  0  0  0  0  0  0  0  0  0  0  0
   10.5778  -16.8849   21.2925 C   0  0  0  0  0  0  0  0  0  0  0  0
   10.7773  -15.7775   21.8451 O   0  0  0  0  0  0  0  0  0  0  0  0
   11.6649  -17.7924   21.2529 N   0  0  0  0  0  0  0  0  0  0  0  0
   12.9472  -17.5141   21.8711 C   0  0  1  0  0  0  0  0  0  0  0  0
   13.1702  -18.4166   23.0897 C   0  0  0  0  0  0  0  0  0  0  0  0
   12.0419  -18.0486   24.4292 S   0  0  0  0  0  0  0  0  0  0  0  0
   13.9917  -17.8840   20.8946 C   0  0  0  0  0  0  0  0  0  0  0  0
   15.1845  -17.6420   21.1770 O   0  0  0  0  0  0  0  0  0  0  0  0
   13.6959  -18.4830   19.6904 O   0  0  0  0  0  0  0  0  0  0  0  0
  2 13  1  0
  2  1  1  1
  3  2  1  0
  4  3  1  0
  4 12  1  0
  5  6  1  0
  5  4  2  0
  6  7  1  0
  7 12  2  0
  7  8  1  0
  8  9  2  0
  9 10  1  0
 11 10  2  0
 12 11  1  0
 13 19  1  0
 14 13  2  0
 16 15  1  1
 16 17  1  0
 18 16  1  0
 18 19  1  1
 20 18  1  0
 21 20  2  0
 22 20  1  0
 23 22  1  0
 23 26  1  0
 24 25  1  0
 23 24  1  1
 26 28  1  0
 27 26  2  0
M  END
$$$$
