WTC.pdb
     RDKit          3D

 28 29  0  0  1  0  0  0  0  0999 V2000
    6.2200  -17.6056   23.1473 N   0  0  0  0  0  0  0  0  0  0  0  0
    7.2277  -16.6958   23.6273 C   0  0  1  0  0  0  0  0  0  0  0  0
    7.1293  -16.5800   25.1306 C   0  0  0  0  0  0  0  0  0  0  0  0
    6.5120  -15.3424   25.5972 C   0  0  0  0  0  0  0  0  0  0  0  0
    5.2616  -15.2932   26.1857 C   0  0  0  0  0  0  0  0  0  0  0  0
    5.0338  -14.0183   26.5122 N   0  0  0  0  0  0  0  0  0  0  0  0
    6.0960  -13.2558   26.1508 C   0  0  0  0  0  0  0  0  0  0  0  0
    6.3106  -11.9098   26.2768 C   0  0  0  0  0  0  0  0  0  0  0  0
    7.4997  -11.4062   25.8032 C   0  0  0  0  0  0  0  0  0  0  0  0
    8.4610  -12.1966   25.2181 C   0  0  0  0  0  0  0  0  0  0  0  0
    8.2440  -13.5507   25.0921 C   0  0  0  0  0  0  0  0  0  0  0  0
    7.0491  -14.0866   25.5642 C   0  0  0  0  0  0  0  0  0  0  0  0
    8.5679  -17.2942   23.3528 C   0  0  0  0  0  0  0  0  0  0  0  0
    8.6441  -18.5459   23.2947 O   0  0  0  0  0  0  0  0  0  0  0  0
   11.0618  -16.9648   20.6797 C   0  0  0  0  0  0  0  0  0  0  0  0
   11.7663  -16.6176   21.9649 C   0  0  1  0  0  0  0  0  0  0  0  0
   11.9372  -15.2292   21.9700 O   0  0  0  0  0  0  0  0  0  0  0  0
   11.0179  -17.1070   23.1901 C   0  0  2  0  0  0  0  0  0  0  0  0
    9.7216  -16.4777   23.1630 N   0  0  0  0  0  0  0  0  0  0  0  0
   11.7577  -16.8005   24.4371 C   0  0  0  0  0  0  0  0  0  0  0  0
   12.0913  -15.6140   24.6657 O   0  0  0  0  0  0  0  0  0  0  0  0
   12.1193  -17.7710   25.4038 N   0  0  0  0  0  0  0  0  0  0  0  0
   12.9647  -17.4715   26.5438 C   0  0  1  0  0  0  0  0  0  0  0  0
   12.1899  -17.6439   27.8549 C   0  0  0  0  0  0  0  0  0  0  0  0
   10.8216  -16.4991   27.9966 S   0  0  0  0  0  0  0  0  0  0  0  0
   14.0380  -18.4857   26.5693 C   0  0  0  0  0  0  0  0  0  0  0  0
   14.0130  -19.4017   25.7200 O   0  0  0  0  0  0  0  0  0  0  0  0
   15.0591  -18.4551   27.4927 O   0  0  0  0  0  0  0  0  0  0  0  0
  2 13  1  0
  2  1  1  1
  3  2  1  0
  4  3  1  0
  4 12  1  0
  5  6  1  0
  5  4  2  0
  6  7  1  0
  7 12  2  0
  7  8  1  0
  8  9  2  0
  9 10  1  0
 11 10  2  0
 12 11  1  0
 13 19  1  0
 14 13  2  0
 16 15  1  6
 16 17  1  0
 18 16  1  0
 18 19  1  1
 20 18  1  0
 21 20  2  0
 22 20  1  0
 23 22  1  0
 23 26  1  0
 24 25  1  0
 23 24  1  1
 26 28  1  0
 27 26  2  0
M  END
$$$$
