WTC.pdb
     RDKit          3D

 28 29  0  0  1  0  0  0  0  0999 V2000
    6.5435  -18.0575   24.6669 N   0  0  0  0  0  0  0  0  0  0  0  0
    7.0816  -16.8545   24.0864 C   0  0  1  0  0  0  0  0  0  0  0  0
    7.7885  -16.0510   25.1530 C   0  0  0  0  0  0  0  0  0  0  0  0
    6.9476  -15.0539   25.8080 C   0  0  0  0  0  0  0  0  0  0  0  0
    5.8393  -15.3778   26.5690 C   0  0  0  0  0  0  0  0  0  0  0  0
    5.3366  -14.2312   27.0342 N   0  0  0  0  0  0  0  0  0  0  0  0
    6.0868  -13.1900   26.5945 C   0  0  0  0  0  0  0  0  0  0  0  0
    5.9540  -11.8441   26.8058 C   0  0  0  0  0  0  0  0  0  0  0  0
    6.8756  -11.0114   26.2149 C   0  0  0  0  0  0  0  0  0  0  0  0
    7.9061  -11.4790   25.4335 C   0  0  0  0  0  0  0  0  0  0  0  0
    8.0388  -12.8333   25.2219 C   0  0  0  0  0  0  0  0  0  0  0  0
    7.1200  -13.6985   25.8092 C   0  0  0  0  0  0  0  0  0  0  0  0
    8.1365  -17.2405   23.1027 C   0  0  0  0  0  0  0  0  0  0  0  0
    8.6838  -18.3609   23.2477 O   0  0  0  0  0  0  0  0  0  0  0  0
    7.8753  -16.3738   19.3499 C   0  0  0  0  0  0  0  0  0  0  0  0
    9.2947  -16.1574   19.8050 C   0  0  1  0  0  0  0  0  0  0  0  0
    9.5114  -14.7754   19.8105 O   0  0  0  0  0  0  0  0  0  0  0  0
    9.5754  -16.7864   21.1565 C   0  0  2  0  0  0  0  0  0  0  0  0
    8.5117  -16.3714   22.0360 N   0  0  0  0  0  0  0  0  0  0  0  0
   10.9077  -16.3930   21.6727 C   0  0  0  0  0  0  0  0  0  0  0  0
   11.0566  -15.2416   22.1455 O   0  0  0  0  0  0  0  0  0  0  0  0
   12.0421  -17.2416   21.6689 N   0  0  0  0  0  0  0  0  0  0  0  0
   13.3669  -16.7886   22.0478 C   0  0  1  0  0  0  0  0  0  0  0  0
   13.6711  -17.1569   23.5042 C   0  0  0  0  0  0  0  0  0  0  0  0
   12.2529  -17.8541   24.3440 S   0  0  0  0  0  0  0  0  0  0  0  0
   14.3367  -17.5414   21.2269 C   0  0  0  0  0  0  0  0  0  0  0  0
   13.9049  -18.4162   20.4463 O   0  0  0  0  0  0  0  0  0  0  0  0
   15.6930  -17.3123   21.2931 O   0  0  0  0  0  0  0  0  0  0  0  0
  2 13  1  0
  2  1  1  1
  3  2  1  0
  4  3  1  0
  4 12  1  0
  5  6  1  0
  5  4  2  0
  6  7  1  0
  7 12  2  0
  7  8  1  0
  8  9  2  0
  9 10  1  0
 11 10  2  0
 12 11  1  0
 13 19  1  0
 14 13  2  0
 16 15  1  1
 16 17  1  0
 18 16  1  0
 18 19  1  1
 20 18  1  0
 21 20  2  0
 22 20  1  0
 23 22  1  0
 23 26  1  0
 24 25  1  0
 23 24  1  1
 26 28  1  0
 27 26  2  0
M  END
$$$$
