DWR.pdb
     RDKit          3D

 34 35  0  0  1  0  0  0  0  0999 V2000
   27.7531  -21.9646  -15.0636 N   0  0  0  0  0  0  0  0  0  0  0  0
   27.4986  -20.7555  -14.3405 C   0  0  1  0  0  0  0  0  0  0  0  0
   26.6487  -19.8124  -15.1174 C   0  0  0  0  0  0  0  0  0  0  0  0
   27.3163  -19.2047  -16.2741 C   0  0  0  0  0  0  0  0  0  0  0  0
   28.4950  -19.4783  -16.6503 O   0  0  0  0  0  0  0  0  0  0  0  0
   26.8453  -21.0535  -13.0155 C   0  0  0  0  0  0  0  0  0  0  0  0
   25.8553  -21.8188  -12.9274 O   0  0  0  0  0  0  0  0  0  0  0  0
   26.6248  -18.2615  -17.0203 O   0  0  0  0  0  0  0  0  0  0  0  0
   27.3366  -20.4710  -11.8154 N   0  0  0  0  0  0  0  0  0  0  0  0
   26.8089  -20.6624  -10.5042 C   0  0  1  0  0  0  0  0  0  0  0  0
   27.6099  -20.0856   -9.3935 C   0  0  0  0  0  0  0  0  0  0  0  0
   27.0918  -20.3473   -8.0370 C   0  0  0  0  0  0  0  0  0  0  0  0
   25.9242  -21.0042   -7.7121 C   0  0  0  0  0  0  0  0  0  0  0  0
   25.7991  -21.0608   -6.3787 N   0  0  0  0  0  0  0  0  0  0  0  0
   26.8515  -20.4596   -5.8017 C   0  0  0  0  0  0  0  0  0  0  0  0
   27.1538  -20.2690   -4.4662 C   0  0  0  0  0  0  0  0  0  0  0  0
   28.3124  -19.6039   -4.1320 C   0  0  0  0  0  0  0  0  0  0  0  0
   29.1300  -19.1524   -5.1471 C   0  0  0  0  0  0  0  0  0  0  0  0
   28.8283  -19.3422   -6.4743 C   0  0  0  0  0  0  0  0  0  0  0  0
   27.6632  -20.0103   -6.8237 C   0  0  0  0  0  0  0  0  0  0  0  0
   25.3813  -20.1717  -10.4272 C   0  0  0  0  0  0  0  0  0  0  0  0
   25.1652  -18.9893  -10.7857 O   0  0  0  0  0  0  0  0  0  0  0  0
   18.2500  -23.0729  -13.6351 N   0  0  0  0  0  0  0  0  0  0  0  0
   19.5435  -23.2030  -14.1914 C   0  0  0  0  0  0  0  0  0  0  0  0
   19.8193  -24.0248  -15.1534 N   0  0  0  0  0  0  0  0  0  0  0  0
   20.5855  -22.3842  -13.6615 N   0  0  0  0  0  0  0  0  0  0  0  0
   20.3208  -21.3676  -12.6499 C   0  0  0  0  0  0  0  0  0  0  0  0
   21.5677  -20.5618  -12.3902 C   0  0  0  0  0  0  0  0  0  0  0  0
   22.4470  -21.3208  -11.4347 C   0  0  0  0  0  0  0  0  0  0  0  0
   22.9451  -20.5141  -10.2729 C   0  0  2  0  0  0  0  0  0  0  0  0
   24.3137  -20.9651   -9.9817 N   0  0  0  0  0  0  0  0  0  0  0  0
   22.0969  -20.6643   -9.0550 C   0  0  0  0  0  0  0  0  0  0  0  0
   21.1946  -19.7161   -8.6196 O   0  0  0  0  0  0  0  0  0  0  0  0
   22.1858  -21.7249   -8.3486 O   0  0  0  0  0  0  0  0  0  0  0  0
  2  1  1  6
  2  3  1  0
  4  3  1  0
  4  8  1  0
  5  4  2  0
  6  7  2  0
  6  2  1  0
  9  6  1  0
 10  9  1  0
 11 12  1  0
 10 11  1  1
 12 13  2  0
 12 20  1  0
 13 14  1  0
 14 15  1  0
 15 16  2  0
 16 17  1  0
 18 17  2  0
 19 18  1  0
 20 19  2  0
 20 15  1  0
 21 10  1  0
 22 21  2  0
 23 24  1  0
 24 25  2  0
 26 24  1  0
 26 27  1  0
 27 28  1  0
 28 29  1  0
 30 29  1  6
 30 31  1  0
 31 21  1  0
 32 30  1  0
 33 32  1  0
 34 32  2  0
M  END
$$$$
