DWR.pdb
     RDKit          3D

 34 35  0  0  1  0  0  0  0  0999 V2000
   28.9066  -21.7486  -15.7791 N   0  0  0  0  0  0  0  0  0  0  0  0
   27.5575  -21.9986  -16.1875 C   0  0  1  0  0  0  0  0  0  0  0  0
   27.4539  -23.2051  -17.0529 C   0  0  0  0  0  0  0  0  0  0  0  0
   28.1390  -23.0867  -18.3451 C   0  0  0  0  0  0  0  0  0  0  0  0
   28.6533  -22.0181  -18.7914 O   0  0  0  0  0  0  0  0  0  0  0  0
   26.6573  -22.1552  -14.9889 C   0  0  0  0  0  0  0  0  0  0  0  0
   26.2394  -23.2797  -14.6223 O   0  0  0  0  0  0  0  0  0  0  0  0
   28.2400  -24.2127  -19.1491 O   0  0  0  0  0  0  0  0  0  0  0  0
   26.2519  -21.0226  -14.2314 N   0  0  0  0  0  0  0  0  0  0  0  0
   25.5219  -21.0414  -13.0062 C   0  0  1  0  0  0  0  0  0  0  0  0
   25.9541  -20.0575  -11.9800 C   0  0  0  0  0  0  0  0  0  0  0  0
   27.0940  -20.4761  -11.1419 C   0  0  0  0  0  0  0  0  0  0  0  0
   28.3419  -20.8643  -11.5804 C   0  0  0  0  0  0  0  0  0  0  0  0
   29.1156  -21.1570  -10.5256 N   0  0  0  0  0  0  0  0  0  0  0  0
   28.4194  -20.9751   -9.3924 C   0  0  0  0  0  0  0  0  0  0  0  0
   28.7922  -21.1529   -8.0730 C   0  0  0  0  0  0  0  0  0  0  0  0
   27.8733  -20.8989   -7.0792 C   0  0  0  0  0  0  0  0  0  0  0  0
   26.6115  -20.4748   -7.4405 C   0  0  0  0  0  0  0  0  0  0  0  0
   26.2419  -20.2986   -8.7523 C   0  0  0  0  0  0  0  0  0  0  0  0
   27.1588  -20.5521   -9.7628 C   0  0  0  0  0  0  0  0  0  0  0  0
   24.0392  -20.9058  -13.2669 C   0  0  0  0  0  0  0  0  0  0  0  0
   23.6705  -19.9327  -13.9672 O   0  0  0  0  0  0  0  0  0  0  0  0
   16.7629  -23.9259  -10.0259 N   0  0  0  0  0  0  0  0  0  0  0  0
   18.1027  -24.2769   -9.7407 C   0  0  0  0  0  0  0  0  0  0  0  0
   18.4699  -24.8093   -8.6188 N   0  0  0  0  0  0  0  0  0  0  0  0
   19.0875  -24.0299  -10.7437 N   0  0  0  0  0  0  0  0  0  0  0  0
   18.7194  -23.7785  -12.1323 C   0  0  0  0  0  0  0  0  0  0  0  0
   19.3780  -22.5132  -12.6191 C   0  0  0  0  0  0  0  0  0  0  0  0
   20.8648  -22.6337  -12.4268 C   0  0  0  0  0  0  0  0  0  0  0  0
   21.6628  -21.5164  -13.0298 C   0  0  2  0  0  0  0  0  0  0  0  0
   23.0813  -21.8018  -12.7694 N   0  0  0  0  0  0  0  0  0  0  0  0
   21.3080  -20.1804  -12.4690 C   0  0  0  0  0  0  0  0  0  0  0  0
   21.7947  -19.6892  -11.2754 O   0  0  0  0  0  0  0  0  0  0  0  0
   20.5071  -19.4180  -13.1083 O   0  0  0  0  0  0  0  0  0  0  0  0
  2  1  1  1
  2  3  1  0
  4  3  1  0
  4  8  1  0
  5  4  2  0
  6  7  2  0
  6  2  1  0
  9  6  1  0
 10  9  1  0
 11 12  1  0
 10 11  1  1
 12 13  2  0
 12 20  1  0
 13 14  1  0
 14 15  1  0
 15 16  2  0
 16 17  1  0
 18 17  2  0
 19 18  1  0
 20 19  2  0
 20 15  1  0
 21 10  1  0
 22 21  2  0
 23 24  1  0
 24 25  2  0
 26 24  1  0
 26 27  1  0
 27 28  1  0
 28 29  1  0
 30 29  1  1
 30 31  1  0
 31 21  1  0
 32 30  1  0
 33 32  1  0
 34 32  2  0
M  END
$$$$
