DWR.pdb
     RDKit          3D

 34 35  0  0  1  0  0  0  0  0999 V2000
   26.9419  -21.7120  -16.3567 N   0  0  0  0  0  0  0  0  0  0  0  0
   26.4767  -22.9486  -15.8054 C   0  0  1  0  0  0  0  0  0  0  0  0
   27.5584  -23.9687  -15.7392 C   0  0  0  0  0  0  0  0  0  0  0  0
   28.1114  -24.3534  -17.0427 C   0  0  0  0  0  0  0  0  0  0  0  0
   29.0154  -25.2251  -17.2118 O   0  0  0  0  0  0  0  0  0  0  0  0
   25.8956  -22.7352  -14.4312 C   0  0  0  0  0  0  0  0  0  0  0  0
   25.5397  -23.6982  -13.7106 O   0  0  0  0  0  0  0  0  0  0  0  0
   27.6235  -23.7294  -18.1816 O   0  0  0  0  0  0  0  0  0  0  0  0
   25.7327  -21.4241  -13.9065 N   0  0  0  0  0  0  0  0  0  0  0  0
   25.1804  -21.0839  -12.6362 C   0  0  1  0  0  0  0  0  0  0  0  0
   25.8319  -19.9505  -11.9297 C   0  0  0  0  0  0  0  0  0  0  0  0
   26.9783  -20.3126  -11.0743 C   0  0  0  0  0  0  0  0  0  0  0  0
   28.2284  -20.7126  -11.4958 C   0  0  0  0  0  0  0  0  0  0  0  0
   29.0081  -20.9405  -10.4295 N   0  0  0  0  0  0  0  0  0  0  0  0
   28.3139  -20.7039   -9.3052 C   0  0  0  0  0  0  0  0  0  0  0  0
   28.6926  -20.8065   -7.9795 C   0  0  0  0  0  0  0  0  0  0  0  0
   27.7745  -20.5076   -6.9976 C   0  0  0  0  0  0  0  0  0  0  0  0
   26.5076  -20.1152   -7.3767 C   0  0  0  0  0  0  0  0  0  0  0  0
   26.1322  -20.0138   -8.6948 C   0  0  0  0  0  0  0  0  0  0  0  0
   27.0483  -20.3132   -9.6934 C   0  0  0  0  0  0  0  0  0  0  0  0
   23.6927  -20.8418  -12.7492 C   0  0  0  0  0  0  0  0  0  0  0  0
   23.3142  -20.0129  -13.6111 O   0  0  0  0  0  0  0  0  0  0  0  0
   16.7751  -26.0525  -11.3897 N   0  0  0  0  0  0  0  0  0  0  0  0
   17.8386  -26.2919  -12.2904 C   0  0  0  0  0  0  0  0  0  0  0  0
   18.1298  -27.4699  -12.7424 N   0  0  0  0  0  0  0  0  0  0  0  0
   18.6197  -25.1757  -12.7157 N   0  0  0  0  0  0  0  0  0  0  0  0
   19.1930  -24.2343  -11.7608 C   0  0  0  0  0  0  0  0  0  0  0  0
   19.9276  -23.1406  -12.4928 C   0  0  0  0  0  0  0  0  0  0  0  0
   20.4968  -22.1790  -11.4861 C   0  0  0  0  0  0  0  0  0  0  0  0
   21.3337  -21.0834  -12.0762 C   0  0  2  0  0  0  0  0  0  0  0  0
   22.7406  -21.4905  -11.9489 N   0  0  0  0  0  0  0  0  0  0  0  0
   21.1284  -19.7684  -11.4024 C   0  0  0  0  0  0  0  0  0  0  0  0
   21.8239  -19.3554  -10.2851 O   0  0  0  0  0  0  0  0  0  0  0  0
   20.2631  -18.9494  -11.8630 O   0  0  0  0  0  0  0  0  0  0  0  0
  2  1  1  1
  2  3  1  0
  4  3  1  0
  4  8  1  0
  5  4  2  0
  6  7  2  0
  6  2  1  0
  9  6  1  0
 10  9  1  0
 11 12  1  0
 10 11  1  6
 12 13  2  0
 12 20  1  0
 13 14  1  0
 14 15  1  0
 15 16  2  0
 16 17  1  0
 18 17  2  0
 19 18  1  0
 20 19  2  0
 20 15  1  0
 21 10  1  0
 22 21  2  0
 23 24  1  0
 24 25  2  0
 26 24  1  0
 26 27  1  0
 27 28  1  0
 28 29  1  0
 30 29  1  1
 30 31  1  0
 31 21  1  0
 32 30  1  0
 33 32  1  0
 34 32  2  0
M  END
$$$$
