DWR.pdb
     RDKit          3D

 34 35  0  0  1  0  0  0  0  0999 V2000
   27.9835  -19.5054  -14.6164 N   0  0  0  0  0  0  0  0  0  0  0  0
   27.3189  -20.6772  -15.1009 C   0  0  1  0  0  0  0  0  0  0  0  0
   28.2740  -21.6509  -15.6967 C   0  0  0  0  0  0  0  0  0  0  0  0
   29.0543  -21.1254  -16.8228 C   0  0  0  0  0  0  0  0  0  0  0  0
   28.9738  -19.9399  -17.2627 O   0  0  0  0  0  0  0  0  0  0  0  0
   26.5381  -21.3428  -13.9970 C   0  0  0  0  0  0  0  0  0  0  0  0
   26.1601  -22.5356  -14.0854 O   0  0  0  0  0  0  0  0  0  0  0  0
   29.9475  -21.9712  -17.4641 O   0  0  0  0  0  0  0  0  0  0  0  0
   26.2043  -20.6319  -12.8120 N   0  0  0  0  0  0  0  0  0  0  0  0
   25.4339  -21.1256  -11.7179 C   0  0  1  0  0  0  0  0  0  0  0  0
   25.7165  -20.5079  -10.3964 C   0  0  0  0  0  0  0  0  0  0  0  0
   27.0364  -20.8253   -9.8182 C   0  0  0  0  0  0  0  0  0  0  0  0
   28.0400  -21.5630  -10.4088 C   0  0  0  0  0  0  0  0  0  0  0  0
   29.0951  -21.6234   -9.5842 N   0  0  0  0  0  0  0  0  0  0  0  0
   28.8251  -20.9460   -8.4572 C   0  0  0  0  0  0  0  0  0  0  0  0
   29.5978  -20.7370   -7.3300 C   0  0  0  0  0  0  0  0  0  0  0  0
   29.0772  -19.9984   -6.2908 C   0  0  0  0  0  0  0  0  0  0  0  0
   27.7997  -19.4932   -6.4159 C   0  0  0  0  0  0  0  0  0  0  0  0
   27.0325  -19.7017   -7.5368 C   0  0  0  0  0  0  0  0  0  0  0  0
   27.5458  -20.4451   -8.5903 C   0  0  0  0  0  0  0  0  0  0  0  0
   23.9564  -21.0440  -12.0264 C   0  0  0  0  0  0  0  0  0  0  0  0
   23.3699  -19.9765  -11.7268 O   0  0  0  0  0  0  0  0  0  0  0  0
   16.1757  -22.1536  -10.3253 N   0  0  0  0  0  0  0  0  0  0  0  0
   16.6789  -23.4584  -10.5346 C   0  0  0  0  0  0  0  0  0  0  0  0
   15.9169  -24.4838  -10.7463 N   0  0  0  0  0  0  0  0  0  0  0  0
   18.0941  -23.6419  -10.5111 N   0  0  0  0  0  0  0  0  0  0  0  0
   19.0077  -22.5231  -10.3097 C   0  0  0  0  0  0  0  0  0  0  0  0
   19.5903  -22.0892  -11.6304 C   0  0  0  0  0  0  0  0  0  0  0  0
   21.0781  -22.3069  -11.6006 C   0  0  0  0  0  0  0  0  0  0  0  0
   21.7931  -21.8902  -12.8512 C   0  0  2  0  0  0  0  0  0  0  0  0
   23.2314  -22.0882  -12.6196 N   0  0  0  0  0  0  0  0  0  0  0  0
   21.5350  -20.4684  -13.2218 C   0  0  0  0  0  0  0  0  0  0  0  0
   22.1842  -19.3917  -12.6543 O   0  0  0  0  0  0  0  0  0  0  0  0
   20.6659  -20.1954  -14.1171 O   0  0  0  0  0  0  0  0  0  0  0  0
  2  1  1  1
  2  3  1  0
  4  3  1  0
  4  8  1  0
  5  4  2  0
  6  7  2  0
  6  2  1  0
  9  6  1  0
 10  9  1  0
 11 12  1  0
 10 11  1  1
 12 13  2  0
 12 20  1  0
 13 14  1  0
 14 15  1  0
 15 16  2  0
 16 17  1  0
 18 17  2  0
 19 18  1  0
 20 19  2  0
 20 15  1  0
 21 10  1  0
 22 21  2  0
 23 24  1  0
 24 25  2  0
 26 24  1  0
 26 27  1  0
 27 28  1  0
 28 29  1  0
 30 29  1  1
 30 31  1  0
 31 21  1  0
 32 30  1  0
 33 32  1  0
 34 32  2  0
M  END
$$$$
