DWR.pdb
     RDKit          3D

 34 35  0  0  1  0  0  0  0  0999 V2000
   28.4323  -21.9120  -15.3738 N   0  0  0  0  0  0  0  0  0  0  0  0
   28.0973  -20.7713  -14.5764 C   0  0  1  0  0  0  0  0  0  0  0  0
   27.2803  -19.7847  -15.3342 C   0  0  0  0  0  0  0  0  0  0  0  0
   28.0006  -19.1013  -16.4146 C   0  0  0  0  0  0  0  0  0  0  0  0
   29.2509  -19.1770  -16.6058 O   0  0  0  0  0  0  0  0  0  0  0  0
   27.3605  -21.1894  -13.3298 C   0  0  0  0  0  0  0  0  0  0  0  0
   26.4857  -22.0881  -13.3528 O   0  0  0  0  0  0  0  0  0  0  0  0
   27.2794  -18.3117  -17.2982 O   0  0  0  0  0  0  0  0  0  0  0  0
   27.6381  -20.5720  -12.0798 N   0  0  0  0  0  0  0  0  0  0  0  0
   27.0101  -20.8654  -10.8333 C   0  0  1  0  0  0  0  0  0  0  0  0
   27.7283  -20.3959   -9.6201 C   0  0  0  0  0  0  0  0  0  0  0  0
   26.9462  -20.4271   -8.3694 C   0  0  0  0  0  0  0  0  0  0  0  0
   25.6736  -20.9308   -8.2044 C   0  0  0  0  0  0  0  0  0  0  0  0
   25.3022  -20.7966   -6.9233 N   0  0  0  0  0  0  0  0  0  0  0  0
   26.2918  -20.2165   -6.2260 C   0  0  0  0  0  0  0  0  0  0  0  0
   26.3650  -19.8750   -4.8884 C   0  0  0  0  0  0  0  0  0  0  0  0
   27.5095  -19.2738   -4.4142 C   0  0  0  0  0  0  0  0  0  0  0  0
   28.5431  -19.0353   -5.2960 C   0  0  0  0  0  0  0  0  0  0  0  0
   28.4692  -19.3750   -6.6255 C   0  0  0  0  0  0  0  0  0  0  0  0
   27.3207  -19.9807   -7.1154 C   0  0  0  0  0  0  0  0  0  0  0  0
   25.5848  -20.3623  -10.8228 C   0  0  0  0  0  0  0  0  0  0  0  0
   25.4194  -19.1190  -10.8385 O   0  0  0  0  0  0  0  0  0  0  0  0
   22.9226  -17.3642  -15.1662 N   0  0  0  0  0  0  0  0  0  0  0  0
   22.1034  -18.2620  -15.8888 C   0  0  0  0  0  0  0  0  0  0  0  0
   21.9395  -18.1927  -17.1715 N   0  0  0  0  0  0  0  0  0  0  0  0
   21.4320  -19.2897  -15.1608 N   0  0  0  0  0  0  0  0  0  0  0  0
   21.6198  -19.4578  -13.7243 C   0  0  0  0  0  0  0  0  0  0  0  0
   22.8185  -20.3325  -13.4601 C   0  0  0  0  0  0  0  0  0  0  0  0
   22.5542  -21.1621  -12.2338 C   0  0  0  0  0  0  0  0  0  0  0  0
   23.1362  -20.6056  -10.9687 C   0  0  2  0  0  0  0  0  0  0  0  0
   24.4661  -21.2082  -10.7968 N   0  0  0  0  0  0  0  0  0  0  0  0
   22.2969  -20.8901   -9.7687 C   0  0  0  0  0  0  0  0  0  0  0  0
   21.3061  -20.0515   -9.3020 O   0  0  0  0  0  0  0  0  0  0  0  0
   22.4801  -21.9687   -9.1094 O   0  0  0  0  0  0  0  0  0  0  0  0
  2  1  1  6
  2  3  1  0
  4  3  1  0
  4  8  1  0
  5  4  2  0
  6  7  2  0
  6  2  1  0
  9  6  1  0
 10  9  1  0
 11 12  1  0
 10 11  1  1
 12 13  2  0
 12 20  1  0
 13 14  1  0
 14 15  1  0
 15 16  2  0
 16 17  1  0
 18 17  2  0
 19 18  1  0
 20 19  2  0
 20 15  1  0
 21 10  1  0
 22 21  2  0
 23 24  1  0
 24 25  2  0
 26 24  1  0
 26 27  1  0
 27 28  1  0
 28 29  1  0
 30 29  1  6
 30 31  1  0
 31 21  1  0
 32 30  1  0
 33 32  1  0
 34 32  2  0
M  END
$$$$
