DWR.pdb
     RDKit          3D

 34 35  0  0  1  0  0  0  0  0999 V2000
   29.0091  -22.4545  -15.5550 N   0  0  0  0  0  0  0  0  0  0  0  0
   27.6516  -22.1697  -15.9091 C   0  0  1  0  0  0  0  0  0  0  0  0
   27.1357  -23.1153  -16.9362 C   0  0  0  0  0  0  0  0  0  0  0  0
   27.7705  -22.9879  -18.2529 C   0  0  0  0  0  0  0  0  0  0  0  0
   27.5820  -23.7818  -19.2223 O   0  0  0  0  0  0  0  0  0  0  0  0
   26.7633  -22.2083  -14.6921 C   0  0  0  0  0  0  0  0  0  0  0  0
   26.2390  -23.2760  -14.2938 O   0  0  0  0  0  0  0  0  0  0  0  0
   28.6420  -21.9307  -18.4707 O   0  0  0  0  0  0  0  0  0  0  0  0
   26.4913  -21.0249  -13.9529 N   0  0  0  0  0  0  0  0  0  0  0  0
   25.8070  -20.9461  -12.7040 C   0  0  1  0  0  0  0  0  0  0  0  0
   26.2850  -19.8944  -11.7692 C   0  0  0  0  0  0  0  0  0  0  0  0
   27.4070  -20.2867  -10.8950 C   0  0  0  0  0  0  0  0  0  0  0  0
   28.6569  -20.7083  -11.2956 C   0  0  0  0  0  0  0  0  0  0  0  0
   29.4108  -20.9609  -10.2163 N   0  0  0  0  0  0  0  0  0  0  0  0
   28.6995  -20.7199   -9.1038 C   0  0  0  0  0  0  0  0  0  0  0  0
   29.0499  -20.8413   -7.7719 C   0  0  0  0  0  0  0  0  0  0  0  0
   28.1189  -20.5323   -6.8054 C   0  0  0  0  0  0  0  0  0  0  0  0
   26.8677  -20.1113   -7.2056 C   0  0  0  0  0  0  0  0  0  0  0  0
   26.5204  -19.9912   -8.5298 C   0  0  0  0  0  0  0  0  0  0  0  0
   27.4497  -20.3004   -9.5130 C   0  0  0  0  0  0  0  0  0  0  0  0
   24.3168  -20.8137  -12.9198 C   0  0  0  0  0  0  0  0  0  0  0  0
   23.9374  -19.9851  -13.7817 O   0  0  0  0  0  0  0  0  0  0  0  0
   19.4598  -24.7401   -7.6518 N   0  0  0  0  0  0  0  0  0  0  0  0
   18.4340  -24.3512   -8.5439 C   0  0  0  0  0  0  0  0  0  0  0  0
   17.2362  -24.8415   -8.4999 N   0  0  0  0  0  0  0  0  0  0  0  0
   18.7436  -23.3709   -9.5338 N   0  0  0  0  0  0  0  0  0  0  0  0
   20.0706  -22.7738   -9.6309 C   0  0  0  0  0  0  0  0  0  0  0  0
   20.1377  -21.8584  -10.8265 C   0  0  0  0  0  0  0  0  0  0  0  0
   21.1604  -22.3927  -11.7912 C   0  0  0  0  0  0  0  0  0  0  0  0
   21.9424  -21.3384  -12.5163 C   0  0  2  0  0  0  0  0  0  0  0  0
   23.3635  -21.5612  -12.2126 N   0  0  0  0  0  0  0  0  0  0  0  0
   21.5555  -19.9530  -12.1209 C   0  0  0  0  0  0  0  0  0  0  0  0
   20.6745  -19.1641  -12.8310 O   0  0  0  0  0  0  0  0  0  0  0  0
   22.0514  -19.4345  -11.0641 O   0  0  0  0  0  0  0  0  0  0  0  0
  2  1  1  1
  2  3  1  0
  4  3  1  0
  4  8  1  0
  5  4  2  0
  6  7  2  0
  6  2  1  0
  9  6  1  0
 10  9  1  0
 11 12  1  0
 10 11  1  6
 12 13  2  0
 12 20  1  0
 13 14  1  0
 14 15  1  0
 15 16  2  0
 16 17  1  0
 18 17  2  0
 19 18  1  0
 20 19  2  0
 20 15  1  0
 21 10  1  0
 22 21  2  0
 23 24  1  0
 24 25  2  0
 26 24  1  0
 26 27  1  0
 27 28  1  0
 28 29  1  0
 30 29  1  1
 30 31  1  0
 31 21  1  0
 32 30  1  0
 33 32  1  0
 34 32  2  0
M  END
$$$$
