DWR.pdb
     RDKit          3D

 34 35  0  0  1  0  0  0  0  0999 V2000
   26.9627  -24.4299  -15.7414 N   0  0  0  0  0  0  0  0  0  0  0  0
   26.4160  -23.1068  -15.7412 C   0  0  1  0  0  0  0  0  0  0  0  0
   25.5209  -22.8759  -16.9077 C   0  0  0  0  0  0  0  0  0  0  0  0
   26.2172  -22.4960  -18.1422 C   0  0  0  0  0  0  0  0  0  0  0  0
   27.4767  -22.4483  -18.2722 O   0  0  0  0  0  0  0  0  0  0  0  0
   25.6629  -22.8407  -14.4632 C   0  0  0  0  0  0  0  0  0  0  0  0
   24.9564  -23.7234  -13.9198 O   0  0  0  0  0  0  0  0  0  0  0  0
   25.4604  -22.1616  -19.2557 O   0  0  0  0  0  0  0  0  0  0  0  0
   25.7319  -21.5698  -13.8300 N   0  0  0  0  0  0  0  0  0  0  0  0
   25.0341  -21.1730  -12.6510 C   0  0  1  0  0  0  0  0  0  0  0  0
   25.6762  -20.0995  -11.8491 C   0  0  0  0  0  0  0  0  0  0  0  0
   26.8587  -20.5128  -11.0694 C   0  0  0  0  0  0  0  0  0  0  0  0
   28.0672  -20.9471  -11.5708 C   0  0  0  0  0  0  0  0  0  0  0  0
   28.9009  -21.2178  -10.5566 N   0  0  0  0  0  0  0  0  0  0  0  0
   28.2834  -20.9764   -9.3895 C   0  0  0  0  0  0  0  0  0  0  0  0
   28.7367  -21.1126   -8.0905 C   0  0  0  0  0  0  0  0  0  0  0  0
   27.8895  -20.7993   -7.0511 C   0  0  0  0  0  0  0  0  0  0  0  0
   26.6163  -20.3593   -7.3477 C   0  0  0  0  0  0  0  0  0  0  0  0
   26.1667  -20.2244   -8.6393 C   0  0  0  0  0  0  0  0  0  0  0  0
   27.0108  -20.5378   -9.6953 C   0  0  0  0  0  0  0  0  0  0  0  0
   23.6068  -20.7972  -12.9772 C   0  0  0  0  0  0  0  0  0  0  0  0
   23.4337  -19.9594  -13.8945 O   0  0  0  0  0  0  0  0  0  0  0  0
   18.6466  -24.5205   -8.5661 N   0  0  0  0  0  0  0  0  0  0  0  0
   17.7226  -23.7732   -9.3325 C   0  0  0  0  0  0  0  0  0  0  0  0
   16.6038  -23.3296   -8.8544 N   0  0  0  0  0  0  0  0  0  0  0  0
   18.0492  -23.4993  -10.6945 N   0  0  0  0  0  0  0  0  0  0  0  0
   19.3356  -23.8824  -11.2651 C   0  0  0  0  0  0  0  0  0  0  0  0
   20.2840  -22.7115  -11.2304 C   0  0  0  0  0  0  0  0  0  0  0  0
   20.2028  -21.9808  -12.5424 C   0  0  0  0  0  0  0  0  0  0  0  0
   21.1605  -20.8346  -12.6766 C   0  0  2  0  0  0  0  0  0  0  0  0
   22.4944  -21.3339  -12.3121 N   0  0  0  0  0  0  0  0  0  0  0  0
   20.8038  -19.6749  -11.8087 C   0  0  0  0  0  0  0  0  0  0  0  0
   21.5972  -19.2040  -10.7832 O   0  0  0  0  0  0  0  0  0  0  0  0
   19.7030  -19.0559  -12.0002 O   0  0  0  0  0  0  0  0  0  0  0  0
  2  1  1  1
  2  3  1  0
  4  3  1  0
  4  8  1  0
  5  4  2  0
  6  7  2  0
  6  2  1  0
  9  6  1  0
 10  9  1  0
 11 12  1  0
 10 11  1  6
 12 13  2  0
 12 20  1  0
 13 14  1  0
 14 15  1  0
 15 16  2  0
 16 17  1  0
 18 17  2  0
 19 18  1  0
 20 19  2  0
 20 15  1  0
 21 10  1  0
 22 21  2  0
 23 24  1  0
 24 25  2  0
 26 24  1  0
 26 27  1  0
 27 28  1  0
 28 29  1  0
 30 29  1  1
 30 31  1  0
 31 21  1  0
 32 30  1  0
 33 32  1  0
 34 32  2  0
M  END
$$$$
