DWR.pdb
     RDKit          3D

 34 35  0  0  1  0  0  0  0  0999 V2000
   29.0261  -22.8576  -16.4056 N   0  0  0  0  0  0  0  0  0  0  0  0
   28.0842  -21.7867  -16.2820 C   0  0  1  0  0  0  0  0  0  0  0  0
   27.2301  -21.6559  -17.4939 C   0  0  0  0  0  0  0  0  0  0  0  0
   27.9381  -21.1803  -18.6878 C   0  0  0  0  0  0  0  0  0  0  0  0
   28.5925  -20.0971  -18.7524 O   0  0  0  0  0  0  0  0  0  0  0  0
   27.2142  -21.9787  -15.0663 C   0  0  0  0  0  0  0  0  0  0  0  0
   26.8042  -23.1134  -14.7233 O   0  0  0  0  0  0  0  0  0  0  0  0
   27.8992  -21.9570  -19.8366 O   0  0  0  0  0  0  0  0  0  0  0  0
   26.8295  -20.8691  -14.2652 N   0  0  0  0  0  0  0  0  0  0  0  0
   26.0357  -20.9154  -13.0812 C   0  0  1  0  0  0  0  0  0  0  0  0
   26.4363  -19.9823  -11.9964 C   0  0  0  0  0  0  0  0  0  0  0  0
   27.4891  -20.4796  -11.0900 C   0  0  0  0  0  0  0  0  0  0  0  0
   28.7307  -20.9574  -11.4512 C   0  0  0  0  0  0  0  0  0  0  0  0
   29.4145  -21.3023  -10.3510 N   0  0  0  0  0  0  0  0  0  0  0  0
   28.6642  -21.0683   -9.2627 C   0  0  0  0  0  0  0  0  0  0  0  0
   28.9408  -21.2693   -7.9231 C   0  0  0  0  0  0  0  0  0  0  0  0
   27.9826  -20.9478   -6.9878 C   0  0  0  0  0  0  0  0  0  0  0  0
   26.7793  -20.4351   -7.4257 C   0  0  0  0  0  0  0  0  0  0  0  0
   26.5054  -20.2359   -8.7575 C   0  0  0  0  0  0  0  0  0  0  0  0
   27.4626  -20.5568   -9.7097 C   0  0  0  0  0  0  0  0  0  0  0  0
   24.5724  -20.7320  -13.4128 C   0  0  0  0  0  0  0  0  0  0  0  0
   24.2674  -19.7375  -14.1137 O   0  0  0  0  0  0  0  0  0  0  0  0
   16.6597  -23.6529  -12.6326 N   0  0  0  0  0  0  0  0  0  0  0  0
   17.2303  -23.8176  -13.9159 C   0  0  0  0  0  0  0  0  0  0  0  0
   16.5249  -23.8759  -15.0004 N   0  0  0  0  0  0  0  0  0  0  0  0
   18.6507  -23.9215  -14.0088 N   0  0  0  0  0  0  0  0  0  0  0  0
   19.4938  -23.9715  -12.8198 C   0  0  0  0  0  0  0  0  0  0  0  0
   20.1620  -22.6376  -12.6053 C   0  0  0  0  0  0  0  0  0  0  0  0
   21.4297  -22.5933  -13.4134 C   0  0  0  0  0  0  0  0  0  0  0  0
   22.1735  -21.2936  -13.3333 C   0  0  2  0  0  0  0  0  0  0  0  0
   23.5655  -21.6072  -12.9791 N   0  0  0  0  0  0  0  0  0  0  0  0
   21.5980  -20.3559  -12.3259 C   0  0  0  0  0  0  0  0  0  0  0  0
   20.5558  -19.4896  -12.5831 O   0  0  0  0  0  0  0  0  0  0  0  0
   22.0756  -20.3280  -11.1415 O   0  0  0  0  0  0  0  0  0  0  0  0
  2  1  1  6
  2  3  1  0
  4  3  1  0
  4  8  1  0
  5  4  2  0
  6  7  2  0
  6  2  1  0
  9  6  1  0
 10  9  1  0
 11 12  1  0
 10 11  1  1
 12 13  2  0
 12 20  1  0
 13 14  1  0
 14 15  1  0
 15 16  2  0
 16 17  1  0
 18 17  2  0
 19 18  1  0
 20 19  2  0
 20 15  1  0
 21 10  1  0
 22 21  2  0
 23 24  1  0
 24 25  2  0
 26 24  1  0
 26 27  1  0
 27 28  1  0
 28 29  1  0
 30 29  1  1
 30 31  1  0
 31 21  1  0
 32 30  1  0
 33 32  1  0
 34 32  2  0
M  END
$$$$
