DWR.pdb
     RDKit          3D

 34 35  0  0  1  0  0  0  0  0999 V2000
   29.2125  -21.4755  -14.0306 N   0  0  0  0  0  0  0  0  0  0  0  0
   28.1176  -20.5684  -13.8634 C   0  0  1  0  0  0  0  0  0  0  0  0
   27.3436  -20.3943  -15.1226 C   0  0  0  0  0  0  0  0  0  0  0  0
   28.1144  -19.8305  -16.2367 C   0  0  0  0  0  0  0  0  0  0  0  0
   28.2416  -20.3770  -17.3728 O   0  0  0  0  0  0  0  0  0  0  0  0
   27.1993  -21.0372  -12.7640 C   0  0  0  0  0  0  0  0  0  0  0  0
   26.5730  -22.1209  -12.8473 O   0  0  0  0  0  0  0  0  0  0  0  0
   28.7569  -18.6149  -16.0519 O   0  0  0  0  0  0  0  0  0  0  0  0
   27.0146  -20.2580  -11.5895 N   0  0  0  0  0  0  0  0  0  0  0  0
   26.1912  -20.5917  -10.4737 C   0  0  1  0  0  0  0  0  0  0  0  0
   26.5495  -19.9404   -9.1871 C   0  0  0  0  0  0  0  0  0  0  0  0
   27.8415  -20.3535   -8.6064 C   0  0  0  0  0  0  0  0  0  0  0  0
   28.8363  -21.0721   -9.2345 C   0  0  0  0  0  0  0  0  0  0  0  0
   29.8654  -21.2413   -8.3923 N   0  0  0  0  0  0  0  0  0  0  0  0
   29.5867  -20.6553   -7.2172 C   0  0  0  0  0  0  0  0  0  0  0  0
   30.3341  -20.5726   -6.0571 C   0  0  0  0  0  0  0  0  0  0  0  0
   29.8095  -19.9092   -4.9704 C   0  0  0  0  0  0  0  0  0  0  0  0
   28.5535  -19.3502   -5.0823 C   0  0  0  0  0  0  0  0  0  0  0  0
   27.8113  -19.4331   -6.2359 C   0  0  0  0  0  0  0  0  0  0  0  0
   28.3288  -20.0997   -7.3375 C   0  0  0  0  0  0  0  0  0  0  0  0
   24.7344  -20.3472  -10.7940 C   0  0  0  0  0  0  0  0  0  0  0  0
   24.4164  -19.1876  -11.1511 O   0  0  0  0  0  0  0  0  0  0  0  0
   18.0093  -21.3137  -13.9245 N   0  0  0  0  0  0  0  0  0  0  0  0
   18.8038  -21.9061  -14.9331 C   0  0  0  0  0  0  0  0  0  0  0  0
   18.6876  -21.6106  -16.1886 N   0  0  0  0  0  0  0  0  0  0  0  0
   19.7773  -22.8719  -14.5376 N   0  0  0  0  0  0  0  0  0  0  0  0
   20.0018  -23.2023  -13.1349 C   0  0  0  0  0  0  0  0  0  0  0  0
   20.4191  -21.9692  -12.3754 C   0  0  0  0  0  0  0  0  0  0  0  0
   21.8365  -22.1448  -11.9041 C   0  0  0  0  0  0  0  0  0  0  0  0
   22.3764  -20.9913  -11.1124 C   0  0  2  0  0  0  0  0  0  0  0  0
   23.7469  -21.3399  -10.7102 N   0  0  0  0  0  0  0  0  0  0  0  0
   21.5603  -20.6846   -9.9019 C   0  0  0  0  0  0  0  0  0  0  0  0
   21.9063  -21.0610   -8.6208 O   0  0  0  0  0  0  0  0  0  0  0  0
   20.4678  -20.0340  -10.0232 O   0  0  0  0  0  0  0  0  0  0  0  0
  2  1  1  6
  2  3  1  0
  4  3  1  0
  4  8  1  0
  5  4  2  0
  6  7  2  0
  6  2  1  0
  9  6  1  0
 10  9  1  0
 11 12  1  0
 10 11  1  1
 12 13  2  0
 12 20  1  0
 13 14  1  0
 14 15  1  0
 15 16  2  0
 16 17  1  0
 18 17  2  0
 19 18  1  0
 20 19  2  0
 20 15  1  0
 21 10  1  0
 22 21  2  0
 23 24  1  0
 24 25  2  0
 26 24  1  0
 26 27  1  0
 27 28  1  0
 28 29  1  0
 30 29  1  1
 30 31  1  0
 31 21  1  0
 32 30  1  0
 33 32  1  0
 34 32  2  0
M  END
$$$$
