DWR.pdb
     RDKit          3D

 34 35  0  0  1  0  0  0  0  0999 V2000
   28.3935  -21.2904  -14.5672 N   0  0  0  0  0  0  0  0  0  0  0  0
   27.7463  -20.2700  -13.7993 C   0  0  1  0  0  0  0  0  0  0  0  0
   27.0369  -19.2892  -14.6654 C   0  0  0  0  0  0  0  0  0  0  0  0
   27.9110  -18.5336  -15.5698 C   0  0  0  0  0  0  0  0  0  0  0  0
   27.5694  -18.1118  -16.7148 O   0  0  0  0  0  0  0  0  0  0  0  0
   26.7758  -20.8754  -12.8179 C   0  0  0  0  0  0  0  0  0  0  0  0
   26.0720  -21.8698  -13.1168 O   0  0  0  0  0  0  0  0  0  0  0  0
   29.2063  -18.2520  -15.1604 O   0  0  0  0  0  0  0  0  0  0  0  0
   26.6284  -20.3323  -11.5124 N   0  0  0  0  0  0  0  0  0  0  0  0
   25.6785  -20.7390  -10.5293 C   0  0  1  0  0  0  0  0  0  0  0  0
   26.0037  -20.3756   -9.1257 C   0  0  0  0  0  0  0  0  0  0  0  0
   27.3429  -20.7838   -8.6600 C   0  0  0  0  0  0  0  0  0  0  0  0
   28.2422  -21.5833   -9.3326 C   0  0  0  0  0  0  0  0  0  0  0  0
   29.3560  -21.7188   -8.5990 N   0  0  0  0  0  0  0  0  0  0  0  0
   29.2268  -21.0317   -7.4532 C   0  0  0  0  0  0  0  0  0  0  0  0
   30.1029  -20.8814   -6.3943 C   0  0  0  0  0  0  0  0  0  0  0  0
   29.7214  -20.1160   -5.3151 C   0  0  0  0  0  0  0  0  0  0  0  0
   28.4746  -19.5260   -5.3328 C   0  0  0  0  0  0  0  0  0  0  0  0
   27.6044  -19.6762   -6.3857 C   0  0  0  0  0  0  0  0  0  0  0  0
   27.9772  -20.4458   -7.4787 C   0  0  0  0  0  0  0  0  0  0  0  0
   24.2953  -20.2463  -10.8883 C   0  0  0  0  0  0  0  0  0  0  0  0
   24.1941  -19.0521  -11.2583 O   0  0  0  0  0  0  0  0  0  0  0  0
   20.4518  -20.9421  -17.2529 N   0  0  0  0  0  0  0  0  0  0  0  0
   19.3304  -20.4063  -16.5784 C   0  0  0  0  0  0  0  0  0  0  0  0
   18.1242  -20.4808  -17.0437 N   0  0  0  0  0  0  0  0  0  0  0  0
   19.5495  -19.7567  -15.3267 N   0  0  0  0  0  0  0  0  0  0  0  0
   20.8734  -19.6941  -14.7181 C   0  0  0  0  0  0  0  0  0  0  0  0
   21.1582  -20.9719  -13.9712 C   0  0  0  0  0  0  0  0  0  0  0  0
   22.3285  -20.7481  -13.0533 C   0  0  0  0  0  0  0  0  0  0  0  0
   21.9686  -20.6382  -11.6017 C   0  0  2  0  0  0  0  0  0  0  0  0
   23.1476  -21.0504  -10.8262 N   0  0  0  0  0  0  0  0  0  0  0  0
   20.7995  -21.4857  -11.2272 C   0  0  0  0  0  0  0  0  0  0  0  0
   20.8550  -22.8556  -11.0751 O   0  0  0  0  0  0  0  0  0  0  0  0
   19.6614  -20.9414  -11.0265 O   0  0  0  0  0  0  0  0  0  0  0  0
  2  1  1  6
  2  3  1  0
  4  3  1  0
  4  8  1  0
  5  4  2  0
  6  7  2  0
  6  2  1  0
  9  6  1  0
 10  9  1  0
 11 12  1  0
 10 11  1  1
 12 13  2  0
 12 20  1  0
 13 14  1  0
 14 15  1  0
 15 16  2  0
 16 17  1  0
 18 17  2  0
 19 18  1  0
 20 19  2  0
 20 15  1  0
 21 10  1  0
 22 21  2  0
 23 24  1  0
 24 25  2  0
 26 24  1  0
 26 27  1  0
 27 28  1  0
 28 29  1  0
 30 29  1  6
 30 31  1  0
 31 21  1  0
 32 30  1  0
 33 32  1  0
 34 32  2  0
M  END
$$$$
