DWR.pdb
     RDKit          3D

 34 35  0  0  1  0  0  0  0  0999 V2000
   29.2341  -21.4587  -14.0093 N   0  0  0  0  0  0  0  0  0  0  0  0
   28.4038  -20.4448  -13.4330 C   0  0  1  0  0  0  0  0  0  0  0  0
   27.5631  -19.7671  -14.4574 C   0  0  0  0  0  0  0  0  0  0  0  0
   28.3166  -18.9660  -15.4287 C   0  0  0  0  0  0  0  0  0  0  0  0
   29.4828  -18.5101  -15.2347 O   0  0  0  0  0  0  0  0  0  0  0  0
   27.5228  -21.0247  -12.3564 C   0  0  0  0  0  0  0  0  0  0  0  0
   27.0603  -22.1877  -12.4402 O   0  0  0  0  0  0  0  0  0  0  0  0
   27.7271  -18.6763  -16.6506 O   0  0  0  0  0  0  0  0  0  0  0  0
   27.1873  -20.2637  -11.2035 N   0  0  0  0  0  0  0  0  0  0  0  0
   26.2738  -20.6429  -10.1758 C   0  0  1  0  0  0  0  0  0  0  0  0
   26.4377  -19.9451   -8.8742 C   0  0  0  0  0  0  0  0  0  0  0  0
   27.7054  -20.2117   -8.1680 C   0  0  0  0  0  0  0  0  0  0  0  0
   28.9159  -20.5393   -8.7407 C   0  0  0  0  0  0  0  0  0  0  0  0
   29.8385  -20.6911   -7.7801 N   0  0  0  0  0  0  0  0  0  0  0  0
   29.2786  -20.4740   -6.5796 C   0  0  0  0  0  0  0  0  0  0  0  0
   29.8289  -20.5208   -5.3122 C   0  0  0  0  0  0  0  0  0  0  0  0
   29.0252  -20.2593   -4.2250 C   0  0  0  0  0  0  0  0  0  0  0  0
   27.6967  -19.9592   -4.4439 C   0  0  0  0  0  0  0  0  0  0  0  0
   27.1507  -19.9132   -5.7041 C   0  0  0  0  0  0  0  0  0  0  0  0
   27.9504  -20.1755   -6.8076 C   0  0  0  0  0  0  0  0  0  0  0  0
   24.8468  -20.5182  -10.6583 C   0  0  0  0  0  0  0  0  0  0  0  0
   24.3716  -19.3601  -10.7383 O   0  0  0  0  0  0  0  0  0  0  0  0
   20.4929  -25.9650  -14.4992 N   0  0  0  0  0  0  0  0  0  0  0  0
   20.2469  -24.6931  -15.0661 C   0  0  0  0  0  0  0  0  0  0  0  0
   19.1152  -24.3664  -15.6040 N   0  0  0  0  0  0  0  0  0  0  0  0
   21.3015  -23.7319  -15.0370 N   0  0  0  0  0  0  0  0  0  0  0  0
   22.5391  -23.9754  -14.3048 C   0  0  0  0  0  0  0  0  0  0  0  0
   23.0016  -22.7055  -13.6376 C   0  0  0  0  0  0  0  0  0  0  0  0
   22.2851  -22.5577  -12.3236 C   0  0  0  0  0  0  0  0  0  0  0  0
   22.6966  -21.3591  -11.5217 C   0  0  2  0  0  0  0  0  0  0  0  0
   24.0509  -21.6179  -11.0116 N   0  0  0  0  0  0  0  0  0  0  0  0
   21.7757  -21.0784  -10.3822 C   0  0  0  0  0  0  0  0  0  0  0  0
   22.0868  -21.3180   -9.0599 O   0  0  0  0  0  0  0  0  0  0  0  0
   20.6198  -20.5844  -10.6093 O   0  0  0  0  0  0  0  0  0  0  0  0
  2  1  1  6
  2  3  1  0
  4  3  1  0
  4  8  1  0
  5  4  2  0
  6  7  2  0
  6  2  1  0
  9  6  1  0
 10  9  1  0
 11 12  1  0
 10 11  1  1
 12 13  2  0
 12 20  1  0
 13 14  1  0
 14 15  1  0
 15 16  2  0
 16 17  1  0
 18 17  2  0
 19 18  1  0
 20 19  2  0
 20 15  1  0
 21 10  1  0
 22 21  2  0
 23 24  1  0
 24 25  2  0
 26 24  1  0
 26 27  1  0
 27 28  1  0
 28 29  1  0
 30 29  1  1
 30 31  1  0
 31 21  1  0
 32 30  1  0
 33 32  1  0
 34 32  2  0
M  END
$$$$
