AGG.pdb
     RDKit          3D

 14 13  0  0  1  0  0  0  0  0999 V2000
    7.0476  -17.9168   22.1394 C   0  0  0  0  0  0  0  0  0  0  0  0
    7.4209  -19.0878   23.0190 C   0  0  2  0  0  0  0  0  0  0  0  0
    6.3305  -20.0190   23.0013 N   0  0  0  0  0  0  0  0  0  0  0  0
    7.7082  -18.6490   24.4052 C   0  0  0  0  0  0  0  0  0  0  0  0
    8.7315  -17.9929   24.6320 O   0  0  0  0  0  0  0  0  0  0  0  0
    6.8359  -18.9666   25.4675 N   0  0  0  0  0  0  0  0  0  0  0  0
    7.0069  -18.5210   26.8197 C   0  0  0  0  0  0  0  0  0  0  0  0
    7.8170  -19.4114   27.6456 C   0  0  0  0  0  0  0  0  0  0  0  0
    7.5912  -20.6386   27.6564 O   0  0  0  0  0  0  0  0  0  0  0  0
    8.8659  -18.9040   28.4437 N   0  0  0  0  0  0  0  0  0  0  0  0
    9.9764  -19.7264   28.8757 C   0  0  0  0  0  0  0  0  0  0  0  0
   10.8909  -18.8926   29.6853 C   0  0  0  0  0  0  0  0  0  0  0  0
   10.6759  -17.6717   29.7891 O   0  0  0  0  0  0  0  0  0  0  0  0
   12.0029  -19.4441   30.3449 O   0  0  0  0  0  0  0  0  0  0  0  0
  2  1  1  6
  3  2  1  0
  4  6  1  0
  4  2  1  0
  5  4  2  0
  7  6  1  0
  8  7  1  0
  9  8  2  0
 10  8  1  0
 11 10  1  0
 12 11  1  0
 12 14  1  0
 13 12  2  0
M  END
$$$$
