AGG.pdb
     RDKit          3D

 14 13  0  0  1  0  0  0  0  0999 V2000
    3.5608  -20.8565   18.3863 C   0  0  0  0  0  0  0  0  0  0  0  0
    3.8896  -19.9664   19.5626 C   0  0  2  0  0  0  0  0  0  0  0  0
    5.1065  -19.2694   19.2630 N   0  0  0  0  0  0  0  0  0  0  0  0
    4.0348  -20.7546   20.8094 C   0  0  0  0  0  0  0  0  0  0  0  0
    3.0391  -21.3004   21.2992 O   0  0  0  0  0  0  0  0  0  0  0  0
    5.2867  -20.8922   21.4450 N   0  0  0  0  0  0  0  0  0  0  0  0
    5.5011  -21.6033   22.6716 C   0  0  0  0  0  0  0  0  0  0  0  0
    6.2392  -20.8486   23.6801 C   0  0  0  0  0  0  0  0  0  0  0  0
    5.6277  -20.1801   24.5382 O   0  0  0  0  0  0  0  0  0  0  0  0
    7.6512  -20.8606   23.7038 N   0  0  0  0  0  0  0  0  0  0  0  0
    8.4155  -20.0757   24.6504 C   0  0  0  0  0  0  0  0  0  0  0  0
    9.8531  -20.2445   24.3476 C   0  0  0  0  0  0  0  0  0  0  0  0
   10.6998  -19.6792   25.0624 O   0  0  0  0  0  0  0  0  0  0  0  0
   10.2923  -21.0307   23.2682 O   0  0  0  0  0  0  0  0  0  0  0  0
  2  1  1  6
  3  2  1  0
  4  6  1  0
  4  2  1  0
  5  4  2  0
  7  6  1  0
  8  7  1  0
  9  8  2  0
 10  8  1  0
 11 10  1  0
 12 11  1  0
 12 14  1  0
 13 12  2  0
M  END
$$$$
