AGG.pdb
     RDKit          3D

 14 13  0  0  1  0  0  0  0  0999 V2000
    9.1005  -23.5013   33.1394 C   0  0  0  0  0  0  0  0  0  0  0  0
   10.3659  -23.4484   32.3147 C   0  0  2  0  0  0  0  0  0  0  0  0
   11.3153  -24.3473   32.9038 N   0  0  0  0  0  0  0  0  0  0  0  0
   10.9155  -22.0730   32.2608 C   0  0  0  0  0  0  0  0  0  0  0  0
   10.2731  -21.1872   31.6847 O   0  0  0  0  0  0  0  0  0  0  0  0
   12.1561  -21.7583   32.8542 N   0  0  0  0  0  0  0  0  0  0  0  0
   12.7531  -20.4547   32.8457 C   0  0  0  0  0  0  0  0  0  0  0  0
   13.5058  -20.1488   31.6327 C   0  0  0  0  0  0  0  0  0  0  0  0
   14.1503  -19.0840   31.5437 O   0  0  0  0  0  0  0  0  0  0  0  0
   13.5191  -21.0470   30.5429 N   0  0  0  0  0  0  0  0  0  0  0  0
   14.3852  -20.8609   29.3977 C   0  0  0  0  0  0  0  0  0  0  0  0
   13.6255  -20.1530   28.3448 C   0  0  0  0  0  0  0  0  0  0  0  0
   12.5072  -19.6778   28.6113 O   0  0  0  0  0  0  0  0  0  0  0  0
   14.1346  -20.0011   27.0434 O   0  0  0  0  0  0  0  0  0  0  0  0
  2  1  1  1
  3  2  1  0
  4  6  1  0
  4  2  1  0
  5  4  2  0
  7  6  1  0
  8  7  1  0
  9  8  2  0
 10  8  1  0
 11 10  1  0
 12 11  1  0
 12 14  1  0
 13 12  2  0
M  END
$$$$
