AGG.pdb
     RDKit          3D

 14 13  0  0  1  0  0  0  0  0999 V2000
    8.2157  -12.2639   19.6265 C   0  0  0  0  0  0  0  0  0  0  0  0
    8.4685  -13.6202   19.0097 C   0  0  2  0  0  0  0  0  0  0  0  0
    7.4716  -13.8405   18.0026 N   0  0  0  0  0  0  0  0  0  0  0  0
    8.4219  -14.6928   20.0316 C   0  0  0  0  0  0  0  0  0  0  0  0
    7.3254  -15.1309   20.3989 O   0  0  0  0  0  0  0  0  0  0  0  0
    9.6046  -15.2208   20.5907 N   0  0  0  0  0  0  0  0  0  0  0  0
    9.6422  -16.2519   21.5865 C   0  0  0  0  0  0  0  0  0  0  0  0
   10.5773  -15.9961   22.6781 C   0  0  0  0  0  0  0  0  0  0  0  0
   11.1590  -14.8954   22.7635 O   0  0  0  0  0  0  0  0  0  0  0  0
   10.8400  -16.9837   23.6529 N   0  0  0  0  0  0  0  0  0  0  0  0
   11.7010  -16.7376   24.7907 C   0  0  0  0  0  0  0  0  0  0  0  0
   11.7577  -17.9668   25.6108 C   0  0  0  0  0  0  0  0  0  0  0  0
   11.0671  -18.9502   25.2888 O   0  0  0  0  0  0  0  0  0  0  0  0
   12.5749  -18.0560   26.7511 O   0  0  0  0  0  0  0  0  0  0  0  0
  2  1  1  1
  3  2  1  0
  4  6  1  0
  4  2  1  0
  5  4  2  0
  7  6  1  0
  8  7  1  0
  9  8  2  0
 10  8  1  0
 11 10  1  0
 12 11  1  0
 12 14  1  0
 13 12  2  0
M  END
$$$$
