AGG.pdb
     RDKit          3D

 14 13  0  0  1  0  0  0  0  0999 V2000
    7.4086  -15.9109   16.4433 C   0  0  0  0  0  0  0  0  0  0  0  0
    8.2531  -14.7161   16.0645 C   0  0  2  0  0  0  0  0  0  0  0  0
    9.1744  -15.1308   15.0468 N   0  0  0  0  0  0  0  0  0  0  0  0
    8.9814  -14.1786   17.2382 C   0  0  0  0  0  0  0  0  0  0  0  0
   10.1238  -14.5858   17.4794 O   0  0  0  0  0  0  0  0  0  0  0  0
    8.3945  -13.2127   18.0824 N   0  0  0  0  0  0  0  0  0  0  0  0
    9.0642  -12.5800   19.1812 C   0  0  0  0  0  0  0  0  0  0  0  0
    9.2589  -13.4444   20.3416 C   0  0  0  0  0  0  0  0  0  0  0  0
    8.5092  -13.3437   21.3341 O   0  0  0  0  0  0  0  0  0  0  0  0
   10.2934  -14.4056   20.3631 N   0  0  0  0  0  0  0  0  0  0  0  0
   10.4537  -15.3450   21.4530 C   0  0  0  0  0  0  0  0  0  0  0  0
   11.8572  -15.2917   21.9160 C   0  0  0  0  0  0  0  0  0  0  0  0
   12.6940  -14.6454   21.2605 O   0  0  0  0  0  0  0  0  0  0  0  0
   12.2748  -15.9548   23.0830 O   0  0  0  0  0  0  0  0  0  0  0  0
  2  1  1  1
  3  2  1  0
  4  6  1  0
  4  2  1  0
  5  4  2  0
  7  6  1  0
  8  7  1  0
  9  8  2  0
 10  8  1  0
 11 10  1  0
 12 11  1  0
 12 14  1  0
 13 12  2  0
M  END
$$$$
