AGG.pdb
     RDKit          3D

 14 13  0  0  1  0  0  0  0  0999 V2000
    4.5325  -18.8375   20.1564 C   0  0  0  0  0  0  0  0  0  0  0  0
    5.5610  -18.5212   21.2176 C   0  0  2  0  0  0  0  0  0  0  0  0
    4.8713  -18.3419   22.4621 N   0  0  0  0  0  0  0  0  0  0  0  0
    6.3344  -17.3051   20.8713 C   0  0  0  0  0  0  0  0  0  0  0  0
    7.2549  -17.3874   20.0496 O   0  0  0  0  0  0  0  0  0  0  0  0
    6.0387  -16.0586   21.4620 N   0  0  0  0  0  0  0  0  0  0  0  0
    6.6590  -14.8187   21.0958 C   0  0  0  0  0  0  0  0  0  0  0  0
    7.8755  -14.5141   21.8432 C   0  0  0  0  0  0  0  0  0  0  0  0
    8.5094  -13.4643   21.6126 O   0  0  0  0  0  0  0  0  0  0  0  0
    8.3556  -15.3966   22.8358 N   0  0  0  0  0  0  0  0  0  0  0  0
    9.5552  -15.1232   23.5990 C   0  0  0  0  0  0  0  0  0  0  0  0
   10.6971  -15.7848   22.9317 C   0  0  0  0  0  0  0  0  0  0  0  0
   10.5321  -16.3155   21.8187 O   0  0  0  0  0  0  0  0  0  0  0  0
   11.9714  -15.8311   23.5231 O   0  0  0  0  0  0  0  0  0  0  0  0
  2  1  1  6
  3  2  1  0
  4  6  1  0
  4  2  1  0
  5  4  2  0
  7  6  1  0
  8  7  1  0
  9  8  2  0
 10  8  1  0
 11 10  1  0
 12 11  1  0
 12 14  1  0
 13 12  2  0
M  END
$$$$
