AGG.pdb
     RDKit          3D

 14 13  0  0  1  0  0  0  0  0999 V2000
    1.7675  -19.2694   19.9264 C   0  0  0  0  0  0  0  0  0  0  0  0
    2.4791  -20.1290   20.9457 C   0  0  2  0  0  0  0  0  0  0  0  0
    1.5892  -20.3310   22.0520 N   0  0  0  0  0  0  0  0  0  0  0  0
    3.7384  -19.4931   21.4001 C   0  0  0  0  0  0  0  0  0  0  0  0
    4.7944  -19.7548   20.8123 O   0  0  0  0  0  0  0  0  0  0  0  0
    3.7524  -18.5966   22.4893 N   0  0  0  0  0  0  0  0  0  0  0  0
    4.9235  -17.9264   22.9746 C   0  0  0  0  0  0  0  0  0  0  0  0
    5.8869  -18.8047   23.6317 C   0  0  0  0  0  0  0  0  0  0  0  0
    5.6996  -19.1758   24.8082 O   0  0  0  0  0  0  0  0  0  0  0  0
    7.0427  -19.2486   22.9524 N   0  0  0  0  0  0  0  0  0  0  0  0
    8.0056  -20.1396   23.5650 C   0  0  0  0  0  0  0  0  0  0  0  0
    9.0982  -20.3856   22.5993 C   0  0  0  0  0  0  0  0  0  0  0  0
    8.8222  -20.7489   21.4420 O   0  0  0  0  0  0  0  0  0  0  0  0
   10.4481  -20.2195   22.9545 O   0  0  0  0  0  0  0  0  0  0  0  0
  2  1  1  6
  3  2  1  0
  4  6  1  0
  4  2  1  0
  5  4  2  0
  7  6  1  0
  8  7  1  0
  9  8  2  0
 10  8  1  0
 11 10  1  0
 12 11  1  0
 12 14  1  0
 13 12  2  0
M  END
$$$$
