AGG.pdb
     RDKit          3D

 14 13  0  0  1  0  0  0  0  0999 V2000
    7.6250  -12.2219   20.0126 C   0  0  0  0  0  0  0  0  0  0  0  0
    8.1717  -13.5604   19.5726 C   0  0  2  0  0  0  0  0  0  0  0  0
    7.1380  -14.2446   18.8516 N   0  0  0  0  0  0  0  0  0  0  0  0
    8.6180  -14.3668   20.7334 C   0  0  0  0  0  0  0  0  0  0  0  0
    9.6986  -14.1030   21.2735 O   0  0  0  0  0  0  0  0  0  0  0  0
    7.8324  -15.4277   21.2310 N   0  0  0  0  0  0  0  0  0  0  0  0
    8.1546  -16.2002   22.3953 C   0  0  0  0  0  0  0  0  0  0  0  0
    9.1905  -17.2059   22.1787 C   0  0  0  0  0  0  0  0  0  0  0  0
    8.9401  -18.2352   21.5192 O   0  0  0  0  0  0  0  0  0  0  0  0
   10.4884  -17.0343   22.7084 N   0  0  0  0  0  0  0  0  0  0  0  0
   11.5497  -17.9922   22.4803 C   0  0  0  0  0  0  0  0  0  0  0  0
   12.8004  -17.4532   23.0568 C   0  0  0  0  0  0  0  0  0  0  0  0
   13.0746  -17.6839   24.2480 O   0  0  0  0  0  0  0  0  0  0  0  0
   13.6934  -16.6829   22.2919 O   0  0  0  0  0  0  0  0  0  0  0  0
  2  1  1  1
  3  2  1  0
  4  6  1  0
  4  2  1  0
  5  4  2  0
  7  6  1  0
  8  7  1  0
  9  8  2  0
 10  8  1  0
 11 10  1  0
 12 11  1  0
 12 14  1  0
 13 12  2  0
M  END
$$$$
