AGG.pdb
     RDKit          3D

 14 13  0  0  1  0  0  0  0  0999 V2000
    7.7702  -12.4538   18.4313 C   0  0  0  0  0  0  0  0  0  0  0  0
    8.3724  -13.6725   19.0918 C   0  0  2  0  0  0  0  0  0  0  0  0
    7.7275  -14.8330   18.5497 N   0  0  0  0  0  0  0  0  0  0  0  0
    8.2053  -13.6241   20.5638 C   0  0  0  0  0  0  0  0  0  0  0  0
    9.0000  -12.9618   21.2412 O   0  0  0  0  0  0  0  0  0  0  0  0
    7.1574  -14.3193   21.2031 N   0  0  0  0  0  0  0  0  0  0  0  0
    6.8883  -14.2674   22.6106 C   0  0  0  0  0  0  0  0  0  0  0  0
    7.6776  -15.2032   23.4060 C   0  0  0  0  0  0  0  0  0  0  0  0
    7.3809  -15.4218   24.5982 O   0  0  0  0  0  0  0  0  0  0  0  0
    8.7857  -15.8753   22.8447 N   0  0  0  0  0  0  0  0  0  0  0  0
    9.5660  -16.8386   23.5926 C   0  0  0  0  0  0  0  0  0  0  0  0
   10.9164  -16.2782   23.8141 C   0  0  0  0  0  0  0  0  0  0  0  0
   11.3101  -15.3323   23.1086 O   0  0  0  0  0  0  0  0  0  0  0  0
   11.7730  -16.7874   24.8056 O   0  0  0  0  0  0  0  0  0  0  0  0
  2  1  1  6
  3  2  1  0
  4  6  1  0
  4  2  1  0
  5  4  2  0
  7  6  1  0
  8  7  1  0
  9  8  2  0
 10  8  1  0
 11 10  1  0
 12 11  1  0
 12 14  1  0
 13 12  2  0
M  END
$$$$
