AGG.pdb
     RDKit          3D

 14 13  0  0  1  0  0  0  0  0999 V2000
   13.0092  -20.1289   18.0964 C   0  0  0  0  0  0  0  0  0  0  0  0
   11.6366  -20.2898   18.7082 C   0  0  2  0  0  0  0  0  0  0  0  0
   10.7047  -20.5326   17.6456 N   0  0  0  0  0  0  0  0  0  0  0  0
   11.2462  -19.0846   19.4776 C   0  0  0  0  0  0  0  0  0  0  0  0
   10.9402  -18.0521   18.8699 O   0  0  0  0  0  0  0  0  0  0  0  0
   11.2179  -19.0959   20.8880 N   0  0  0  0  0  0  0  0  0  0  0  0
   10.9077  -17.9578   21.7033 C   0  0  0  0  0  0  0  0  0  0  0  0
   12.0730  -17.1800   22.1139 C   0  0  0  0  0  0  0  0  0  0  0  0
   13.1074  -17.1803   21.4160 O   0  0  0  0  0  0  0  0  0  0  0  0
   12.0521  -16.4167   23.3019 N   0  0  0  0  0  0  0  0  0  0  0  0
   13.1592  -15.5720   23.6981 C   0  0  0  0  0  0  0  0  0  0  0  0
   14.2246  -16.4285   24.2623 C   0  0  0  0  0  0  0  0  0  0  0  0
   14.2115  -17.6515   24.0352 O   0  0  0  0  0  0  0  0  0  0  0  0
   15.2579  -15.8963   25.0529 O   0  0  0  0  0  0  0  0  0  0  0  0
  2  1  1  6
  3  2  1  0
  4  6  1  0
  4  2  1  0
  5  4  2  0
  7  6  1  0
  8  7  1  0
  9  8  2  0
 10  8  1  0
 11 10  1  0
 12 11  1  0
 12 14  1  0
 13 12  2  0
M  END
$$$$
