AGG.pdb
     RDKit          3D

 14 13  0  0  1  0  0  0  0  0999 V2000
    2.9604  -19.5524   21.2910 C   0  0  0  0  0  0  0  0  0  0  0  0
    4.4242  -19.2592   21.5261 C   0  0  2  0  0  0  0  0  0  0  0  0
    4.8908  -20.1383   22.5586 N   0  0  0  0  0  0  0  0  0  0  0  0
    4.6337  -17.8440   21.9135 C   0  0  0  0  0  0  0  0  0  0  0  0
    3.7474  -17.2507   22.5393 O   0  0  0  0  0  0  0  0  0  0  0  0
    5.8244  -17.1643   21.5811 N   0  0  0  0  0  0  0  0  0  0  0  0
    6.1716  -15.8558   22.0536 C   0  0  0  0  0  0  0  0  0  0  0  0
    6.9727  -15.8530   23.2741 C   0  0  0  0  0  0  0  0  0  0  0  0
    6.4203  -15.7602   24.3892 O   0  0  0  0  0  0  0  0  0  0  0  0
    8.3802  -15.9548   23.2167 N   0  0  0  0  0  0  0  0  0  0  0  0
    9.1992  -16.0334   24.4081 C   0  0  0  0  0  0  0  0  0  0  0  0
   10.6203  -16.0561   24.0000 C   0  0  0  0  0  0  0  0  0  0  0  0
   10.9101  -16.0544   22.7902 O   0  0  0  0  0  0  0  0  0  0  0  0
   11.6594  -16.0799   24.9464 O   0  0  0  0  0  0  0  0  0  0  0  0
  2  1  1  1
  3  2  1  0
  4  6  1  0
  4  2  1  0
  5  4  2  0
  7  6  1  0
  8  7  1  0
  9  8  2  0
 10  8  1  0
 11 10  1  0
 12 11  1  0
 12 14  1  0
 13 12  2  0
M  END
$$$$
