SYA.pdb
     RDKit          3D

 24 24  0  0  1  0  0  0  0  0999 V2000
   21.9414  -14.4626  -19.6190 O   0  0  0  0  0  0  0  0  0  0  0  0
   22.1880  -13.4159  -18.7473 C   0  0  0  0  0  0  0  0  0  0  0  0
   23.4139  -12.6764  -19.2294 C   0  0  2  0  0  0  0  0  0  0  0  0
   24.5649  -13.5661  -19.2068 N   0  0  0  0  0  0  0  0  0  0  0  0
   23.7207  -11.4986  -18.3848 C   0  0  0  0  0  0  0  0  0  0  0  0
   24.5577  -11.6291  -17.4377 O   0  0  0  0  0  0  0  0  0  0  0  0
   23.3796   -2.8037  -16.0976 O   0  0  0  0  0  0  0  0  0  0  0  0
   23.3498   -4.0649  -16.7198 C   0  0  0  0  0  0  0  0  0  0  0  0
   22.2218   -4.5924  -17.2636 C   0  0  0  0  0  0  0  0  0  0  0  0
   22.2560   -5.8520  -17.8688 C   0  0  0  0  0  0  0  0  0  0  0  0
   23.4232   -6.5846  -17.9290 C   0  0  0  0  0  0  0  0  0  0  0  0
   23.4109   -7.8985  -18.5453 C   0  0  0  0  0  0  0  0  0  0  0  0
   23.4668   -9.0940  -17.6613 C   0  0  2  0  0  0  0  0  0  0  0  0
   23.1453  -10.2284  -18.5569 N   0  0  0  0  0  0  0  0  0  0  0  0
   22.4989   -9.0775  -16.5384 C   0  0  0  0  0  0  0  0  0  0  0  0
   21.2673   -9.3530  -16.7795 O   0  0  0  0  0  0  0  0  0  0  0  0
   24.5462   -6.0180  -17.3675 C   0  0  0  0  0  0  0  0  0  0  0  0
   24.5219   -4.7664  -16.7637 C   0  0  0  0  0  0  0  0  0  0  0  0
   22.2553   -9.7017  -13.0258 C   0  0  0  0  0  0  0  0  0  0  0  0
   21.7759   -8.8378  -14.1927 C   0  0  2  0  0  0  0  0  0  0  0  0
   22.8135   -8.7836  -15.1929 N   0  0  0  0  0  0  0  0  0  0  0  0
   21.2788   -7.5440  -13.7283 C   0  0  0  0  0  0  0  0  0  0  0  0
   21.8995   -6.4924  -13.9797 O   0  0  0  0  0  0  0  0  0  0  0  0
   20.1065   -7.4737  -13.0002 O   0  0  0  0  0  0  0  0  0  0  0  0
  2  1  1  0
  2  3  1  0
  3  4  1  1
  5  3  1  0
  5  6  2  0
  7  8  1  0
  8 18  2  0
  9 10  2  0
  9  8  1  0
 10 11  1  0
 11 12  1  0
 11 17  2  0
 13 12  1  6
 13 14  1  0
 14  5  1  0
 15 13  1  0
 16 15  2  0
 18 17  1  0
 20 19  1  1
 20 22  1  0
 20 21  1  0
 21 15  1  0
 22 24  1  0
 23 22  2  0
M  END
$$$$
