SYA.pdb
     RDKit          3D

 24 24  0  0  1  0  0  0  0  0999 V2000
   21.2513  -10.1798  -18.5231 O   0  0  0  0  0  0  0  0  0  0  0  0
   20.2958  -10.0379  -17.5314 C   0  0  0  0  0  0  0  0  0  0  0  0
   18.9342  -10.2447  -18.1522 C   0  0  2  0  0  0  0  0  0  0  0  0
   18.9727  -11.3879  -19.0513 N   0  0  0  0  0  0  0  0  0  0  0  0
   18.4898   -9.0612  -18.9246 C   0  0  0  0  0  0  0  0  0  0  0  0
   18.8354   -8.9639  -20.1435 O   0  0  0  0  0  0  0  0  0  0  0  0
   13.9519  -10.4105  -23.3178 O   0  0  0  0  0  0  0  0  0  0  0  0
   14.4495   -9.5521  -22.3206 C   0  0  0  0  0  0  0  0  0  0  0  0
   14.5447   -9.9159  -21.0150 C   0  0  0  0  0  0  0  0  0  0  0  0
   15.0481   -9.0172  -20.0699 C   0  0  0  0  0  0  0  0  0  0  0  0
   15.4570   -7.7513  -20.4344 C   0  0  0  0  0  0  0  0  0  0  0  0
   15.9517   -6.8403  -19.4186 C   0  0  0  0  0  0  0  0  0  0  0  0
   17.4175   -6.7895  -19.1687 C   0  0  2  0  0  0  0  0  0  0  0  0
   17.7022   -8.0226  -18.4002 N   0  0  0  0  0  0  0  0  0  0  0  0
   17.8695   -5.6167  -18.3824 C   0  0  0  0  0  0  0  0  0  0  0  0
   18.0387   -5.7495  -17.1156 O   0  0  0  0  0  0  0  0  0  0  0  0
   15.3457   -7.4180  -21.7663 C   0  0  0  0  0  0  0  0  0  0  0  0
   14.8465   -8.3046  -22.7130 C   0  0  0  0  0  0  0  0  0  0  0  0
   18.6460   -3.8249  -16.6003 C   0  0  0  0  0  0  0  0  0  0  0  0
   18.5891   -3.2843  -18.0293 C   0  0  2  0  0  0  0  0  0  0  0  0
   18.1426   -4.3351  -18.9105 N   0  0  0  0  0  0  0  0  0  0  0  0
   19.8451   -2.6375  -18.4044 C   0  0  0  0  0  0  0  0  0  0  0  0
   20.5291   -3.0696  -19.3528 O   0  0  0  0  0  0  0  0  0  0  0  0
   20.2899   -1.5316  -17.7052 O   0  0  0  0  0  0  0  0  0  0  0  0
  2  1  1  0
  2  3  1  0
  3  4  1  6
  5  3  1  0
  5  6  2  0
  7  8  1  0
  8 18  2  0
  9 10  2  0
  9  8  1  0
 10 11  1  0
 11 12  1  0
 11 17  2  0
 13 12  1  1
 13 14  1  0
 14  5  1  0
 15 13  1  0
 16 15  2  0
 18 17  1  0
 20 19  1  1
 20 22  1  0
 20 21  1  0
 21 15  1  0
 22 24  1  0
 23 22  2  0
M  END
$$$$
