SYA.pdb
     RDKit          3D

 24 24  0  0  1  0  0  0  0  0999 V2000
   21.7350  -20.7023  -17.3222 O   0  0  0  0  0  0  0  0  0  0  0  0
   22.4222  -21.5615  -18.1624 C   0  0  0  0  0  0  0  0  0  0  0  0
   23.3069  -22.4458  -17.3154 C   0  0  2  0  0  0  0  0  0  0  0  0
   22.4981  -23.1578  -16.3378 N   0  0  0  0  0  0  0  0  0  0  0  0
   24.3370  -21.6682  -16.5880 C   0  0  0  0  0  0  0  0  0  0  0  0
   24.2318  -21.5467  -15.3276 O   0  0  0  0  0  0  0  0  0  0  0  0
   27.5101  -26.8006  -16.6011 O   0  0  0  0  0  0  0  0  0  0  0  0
   27.5708  -25.3968  -16.6659 C   0  0  0  0  0  0  0  0  0  0  0  0
   27.9500  -24.7261  -17.7850 C   0  0  0  0  0  0  0  0  0  0  0  0
   27.9904  -23.3287  -17.7872 C   0  0  0  0  0  0  0  0  0  0  0  0
   27.6498  -22.6022  -16.6652 C   0  0  0  0  0  0  0  0  0  0  0  0
   27.7276  -21.1534  -16.7017 C   0  0  0  0  0  0  0  0  0  0  0  0
   26.4953  -20.3721  -16.4108 C   0  0  2  0  0  0  0  0  0  0  0  0
   25.4385  -21.0459  -17.1990 N   0  0  0  0  0  0  0  0  0  0  0  0
   26.5595  -18.9460  -16.8112 C   0  0  0  0  0  0  0  0  0  0  0  0
   26.2388  -18.6262  -18.0136 O   0  0  0  0  0  0  0  0  0  0  0  0
   27.2705  -23.3160  -15.5499 C   0  0  0  0  0  0  0  0  0  0  0  0
   27.2274  -24.7051  -15.5383 C   0  0  0  0  0  0  0  0  0  0  0  0
   27.3086  -15.5620  -15.3751 C   0  0  0  0  0  0  0  0  0  0  0  0
   27.0467  -16.5465  -16.5153 C   0  0  2  0  0  0  0  0  0  0  0  0
   26.9462  -17.8782  -15.9709 N   0  0  0  0  0  0  0  0  0  0  0  0
   28.0155  -16.3784  -17.5969 C   0  0  0  0  0  0  0  0  0  0  0  0
   28.9267  -17.2104  -17.7748 O   0  0  0  0  0  0  0  0  0  0  0  0
   27.9297  -15.2865  -18.4396 O   0  0  0  0  0  0  0  0  0  0  0  0
  2  1  1  0
  2  3  1  0
  3  4  1  1
  5  3  1  0
  5  6  2  0
  7  8  1  0
  8 18  2  0
  9 10  2  0
  9  8  1  0
 10 11  1  0
 11 12  1  0
 11 17  2  0
 13 12  1  6
 13 14  1  0
 14  5  1  0
 15 13  1  0
 16 15  2  0
 18 17  1  0
 20 19  1  1
 20 22  1  0
 20 21  1  0
 21 15  1  0
 22 24  1  0
 23 22  2  0
M  END
$$$$
