SYA.pdb
     RDKit          3D

 24 24  0  0  1  0  0  0  0  0999 V2000
   28.1867  -19.6643  -19.3314 O   0  0  0  0  0  0  0  0  0  0  0  0
   27.4743  -20.4891  -18.4778 C   0  0  0  0  0  0  0  0  0  0  0  0
   28.4355  -21.0677  -17.4662 C   0  0  2  0  0  0  0  0  0  0  0  0
   29.0730  -22.2539  -18.0168 N   0  0  0  0  0  0  0  0  0  0  0  0
   27.7545  -21.4487  -16.2068 C   0  0  0  0  0  0  0  0  0  0  0  0
   27.3448  -22.6440  -16.0730 O   0  0  0  0  0  0  0  0  0  0  0  0
   25.1791  -20.5940   -7.6531 O   0  0  0  0  0  0  0  0  0  0  0  0
   25.7240  -20.4658   -8.9436 C   0  0  0  0  0  0  0  0  0  0  0  0
   25.3191  -19.5130   -9.8235 C   0  0  0  0  0  0  0  0  0  0  0  0
   25.8995  -19.4364  -11.0929 C   0  0  0  0  0  0  0  0  0  0  0  0
   26.8879  -20.3169  -11.4811 C   0  0  0  0  0  0  0  0  0  0  0  0
   27.4480  -20.2184  -12.8164 C   0  0  0  0  0  0  0  0  0  0  0  0
   26.8103  -21.0006  -13.9096 C   0  0  2  0  0  0  0  0  0  0  0  0
   27.5250  -20.5719  -15.1333 N   0  0  0  0  0  0  0  0  0  0  0  0
   25.3601  -20.7475  -14.0851 C   0  0  0  0  0  0  0  0  0  0  0  0
   24.9843  -19.6259  -14.5868 O   0  0  0  0  0  0  0  0  0  0  0  0
   27.2725  -21.2689  -10.5630 C   0  0  0  0  0  0  0  0  0  0  0  0
   26.7013  -21.3527   -9.2987 C   0  0  0  0  0  0  0  0  0  0  0  0
   22.1625  -22.4304  -14.4941 C   0  0  0  0  0  0  0  0  0  0  0  0
   22.9514  -21.2519  -13.9225 C   0  0  2  0  0  0  0  0  0  0  0  0
   24.3266  -21.6496  -13.7473 N   0  0  0  0  0  0  0  0  0  0  0  0
   22.2985  -20.6988  -12.7374 C   0  0  0  0  0  0  0  0  0  0  0  0
   21.2532  -20.0270  -12.8376 O   0  0  0  0  0  0  0  0  0  0  0  0
   22.8384  -20.9172  -11.4842 O   0  0  0  0  0  0  0  0  0  0  0  0
  2  1  1  0
  2  3  1  0
  3  4  1  6
  5  3  1  0
  5  6  2  0
  7  8  1  0
  8 18  2  0
  9 10  2  0
  9  8  1  0
 10 11  1  0
 11 12  1  0
 11 17  2  0
 13 12  1  1
 13 14  1  0
 14  5  1  0
 15 13  1  0
 16 15  2  0
 18 17  1  0
 20 19  1  1
 20 22  1  0
 20 21  1  0
 21 15  1  0
 22 24  1  0
 23 22  2  0
M  END
$$$$
