SYA.pdb
     RDKit          3D

 24 24  0  0  1  0  0  0  0  0999 V2000
   11.8547  -17.2912    6.8860 O   0  0  0  0  0  0  0  0  0  0  0  0
   11.9380  -18.6607    6.7021 C   0  0  0  0  0  0  0  0  0  0  0  0
   12.4495  -18.9210    5.3047 C   0  0  2  0  0  0  0  0  0  0  0  0
   11.8264  -20.1217    4.7691 N   0  0  0  0  0  0  0  0  0  0  0  0
   13.9189  -19.1083    5.2764 C   0  0  0  0  0  0  0  0  0  0  0  0
   14.3936  -20.2496    5.5707 O   0  0  0  0  0  0  0  0  0  0  0  0
   15.7373  -22.5746    0.1574 O   0  0  0  0  0  0  0  0  0  0  0  0
   16.0255  -21.5054    1.0249 C   0  0  0  0  0  0  0  0  0  0  0  0
   17.0530  -21.5334    1.9136 C   0  0  0  0  0  0  0  0  0  0  0  0
   17.2889  -20.4384    2.7499 C   0  0  0  0  0  0  0  0  0  0  0  0
   16.4933  -19.3129    2.6953 C   0  0  0  0  0  0  0  0  0  0  0  0
   16.7575  -18.2070    3.5973 C   0  0  0  0  0  0  0  0  0  0  0  0
   16.3024  -18.3226    5.0091 C   0  0  2  0  0  0  0  0  0  0  0  0
   14.8399  -18.1011    4.9430 N   0  0  0  0  0  0  0  0  0  0  0  0
   16.8988  -17.3286    5.9335 C   0  0  0  0  0  0  0  0  0  0  0  0
   16.4039  -16.1435    5.9703 O   0  0  0  0  0  0  0  0  0  0  0  0
   15.4618  -19.3206    1.7826 C   0  0  0  0  0  0  0  0  0  0  0  0
   15.2194  -20.4045    0.9470 C   0  0  0  0  0  0  0  0  0  0  0  0
   17.9803  -15.1795    7.1669 C   0  0  0  0  0  0  0  0  0  0  0  0
   18.4042  -16.5401    7.7208 C   0  0  2  0  0  0  0  0  0  0  0  0
   17.9857  -17.5708    6.8028 N   0  0  0  0  0  0  0  0  0  0  0  0
   17.9659  -16.7117    9.1047 C   0  0  0  0  0  0  0  0  0  0  0  0
   17.2614  -17.6851    9.4367 O   0  0  0  0  0  0  0  0  0  0  0  0
   18.3315  -15.7887   10.0660 O   0  0  0  0  0  0  0  0  0  0  0  0
  2  1  1  0
  2  3  1  0
  3  4  1  1
  5  3  1  0
  5  6  2  0
  7  8  1  0
  8 18  2  0
  9 10  2  0
  9  8  1  0
 10 11  1  0
 11 12  1  0
 11 17  2  0
 13 12  1  6
 13 14  1  0
 14  5  1  0
 15 13  1  0
 16 15  2  0
 18 17  1  0
 20 19  1  6
 20 22  1  0
 20 21  1  0
 21 15  1  0
 22 24  1  0
 23 22  2  0
M  END
$$$$
