SYA.pdb
     RDKit          3D

 24 24  0  0  1  0  0  0  0  0999 V2000
   25.2768   -7.5270  -21.9612 O   0  0  0  0  0  0  0  0  0  0  0  0
   24.2203   -7.0835  -21.1842 C   0  0  0  0  0  0  0  0  0  0  0  0
   24.3820   -7.6537  -19.7947 C   0  0  2  0  0  0  0  0  0  0  0  0
   24.0963   -9.0802  -19.8127 N   0  0  0  0  0  0  0  0  0  0  0  0
   23.4707   -7.0098  -18.8200 C   0  0  0  0  0  0  0  0  0  0  0  0
   22.2874   -7.4580  -18.7039 O   0  0  0  0  0  0  0  0  0  0  0  0
   21.9357  -10.5970  -13.4125 O   0  0  0  0  0  0  0  0  0  0  0  0
   22.2697   -9.3541  -13.9802 C   0  0  0  0  0  0  0  0  0  0  0  0
   21.3376   -8.4323  -14.3375 C   0  0  0  0  0  0  0  0  0  0  0  0
   21.7327   -7.2140  -14.8977 C   0  0  0  0  0  0  0  0  0  0  0  0
   23.0648   -6.9190  -15.1002 C   0  0  0  0  0  0  0  0  0  0  0  0
   23.4318   -5.6524  -15.7063 C   0  0  0  0  0  0  0  0  0  0  0  0
   22.8708   -5.3203  -17.0437 C   0  0  2  0  0  0  0  0  0  0  0  0
   23.8245   -5.9235  -18.0023 N   0  0  0  0  0  0  0  0  0  0  0  0
   22.7598   -3.8686  -17.3236 C   0  0  0  0  0  0  0  0  0  0  0  0
   23.8355   -3.1898  -17.5053 O   0  0  0  0  0  0  0  0  0  0  0  0
   23.9809   -7.8772  -14.7259 C   0  0  0  0  0  0  0  0  0  0  0  0
   23.5977   -9.0912  -14.1683 C   0  0  0  0  0  0  0  0  0  0  0  0
   20.2056   -1.2964  -18.2077 C   0  0  0  0  0  0  0  0  0  0  0  0
   21.5874   -1.7358  -17.7225 C   0  0  2  0  0  0  0  0  0  0  0  0
   21.5503   -3.1445  -17.4157 N   0  0  0  0  0  0  0  0  0  0  0  0
   22.0760   -0.8693  -16.6514 C   0  0  0  0  0  0  0  0  0  0  0  0
   21.9750   -1.2101  -15.4564 O   0  0  0  0  0  0  0  0  0  0  0  0
   22.6594    0.3458  -16.9558 O   0  0  0  0  0  0  0  0  0  0  0  0
  2  1  1  0
  2  3  1  0
  3  4  1  6
  5  3  1  0
  5  6  2  0
  7  8  1  0
  8 18  2  0
  9 10  2  0
  9  8  1  0
 10 11  1  0
 11 12  1  0
 11 17  2  0
 13 12  1  1
 13 14  1  0
 14  5  1  0
 15 13  1  0
 16 15  2  0
 18 17  1  0
 20 19  1  1
 20 22  1  0
 20 21  1  0
 21 15  1  0
 22 24  1  0
 23 22  2  0
M  END
$$$$
