SYA.pdb
     RDKit          3D

 24 24  0  0  1  0  0  0  0  0999 V2000
   26.9481  -20.4410  -18.7836 O   0  0  0  0  0  0  0  0  0  0  0  0
   28.1618  -20.0225  -18.2657 C   0  0  0  0  0  0  0  0  0  0  0  0
   28.6875  -21.1070  -17.3547 C   0  0  2  0  0  0  0  0  0  0  0  0
   28.9085  -22.3256  -18.1181 N   0  0  0  0  0  0  0  0  0  0  0  0
   27.7449  -21.4133  -16.2536 C   0  0  0  0  0  0  0  0  0  0  0  0
   27.0667  -22.4862  -16.3126 O   0  0  0  0  0  0  0  0  0  0  0  0
   24.3916  -20.7830   -7.9301 O   0  0  0  0  0  0  0  0  0  0  0  0
   25.1190  -20.7018   -9.1314 C   0  0  0  0  0  0  0  0  0  0  0  0
   26.4174  -21.0885   -9.2348 C   0  0  0  0  0  0  0  0  0  0  0  0
   27.0869  -20.9833  -10.4575 C   0  0  0  0  0  0  0  0  0  0  0  0
   26.4534  -20.4895  -11.5789 C   0  0  0  0  0  0  0  0  0  0  0  0
   27.1911  -20.3745  -12.8235 C   0  0  0  0  0  0  0  0  0  0  0  0
   26.5919  -20.9536  -14.0560 C   0  0  2  0  0  0  0  0  0  0  0  0
   27.5428  -20.5919  -15.1318 N   0  0  0  0  0  0  0  0  0  0  0  0
   25.2512  -20.4220  -14.3994 C   0  0  0  0  0  0  0  0  0  0  0  0
   25.1693  -19.4233  -15.2037 O   0  0  0  0  0  0  0  0  0  0  0  0
   25.1378  -20.1075  -11.4362 C   0  0  0  0  0  0  0  0  0  0  0  0
   24.4639  -20.2084  -10.2247 C   0  0  0  0  0  0  0  0  0  0  0  0
   22.8916  -20.4547  -16.0002 C   0  0  0  0  0  0  0  0  0  0  0  0
   22.7861  -20.4415  -14.4749 C   0  0  2  0  0  0  0  0  0  0  0  0
   24.0237  -20.9268  -13.9154 N   0  0  0  0  0  0  0  0  0  0  0  0
   21.5768  -21.1243  -14.0188 C   0  0  0  0  0  0  0  0  0  0  0  0
   21.6448  -22.0895  -13.2328 O   0  0  0  0  0  0  0  0  0  0  0  0
   20.3364  -20.7027  -14.4584 O   0  0  0  0  0  0  0  0  0  0  0  0
  2  1  1  0
  2  3  1  0
  3  4  1  6
  5  3  1  0
  5  6  2  0
  7  8  1  0
  8 18  2  0
  9 10  2  0
  9  8  1  0
 10 11  1  0
 11 12  1  0
 11 17  2  0
 13 12  1  1
 13 14  1  0
 14  5  1  0
 15 13  1  0
 16 15  2  0
 18 17  1  0
 20 19  1  6
 20 22  1  0
 20 21  1  0
 21 15  1  0
 22 24  1  0
 23 22  2  0
M  END
$$$$
