SYA.pdb
     RDKit          3D

 24 24  0  0  1  0  0  0  0  0999 V2000
   26.2354  -20.7201  -20.9970 O   0  0  0  0  0  0  0  0  0  0  0  0
   26.2207  -20.6621  -19.6139 C   0  0  0  0  0  0  0  0  0  0  0  0
   26.5163  -19.2408  -19.1960 C   0  0  2  0  0  0  0  0  0  0  0  0
   27.7957  -18.8224  -19.7480 N   0  0  0  0  0  0  0  0  0  0  0  0
   26.5763  -19.0956  -17.7229 C   0  0  0  0  0  0  0  0  0  0  0  0
   27.6937  -18.8241  -17.1822 O   0  0  0  0  0  0  0  0  0  0  0  0
   19.4090  -17.5855  -16.9567 O   0  0  0  0  0  0  0  0  0  0  0  0
   20.7619  -17.5886  -16.5717 C   0  0  0  0  0  0  0  0  0  0  0  0
   21.7744  -17.3086  -17.4334 C   0  0  0  0  0  0  0  0  0  0  0  0
   23.1001  -17.3277  -16.9902 C   0  0  0  0  0  0  0  0  0  0  0  0
   23.4115  -17.6282  -15.6805 C   0  0  0  0  0  0  0  0  0  0  0  0
   24.8021  -17.6604  -15.2663 C   0  0  0  0  0  0  0  0  0  0  0  0
   25.5558  -18.9339  -15.4202 C   0  0  2  0  0  0  0  0  0  0  0  0
   25.4715  -19.2382  -16.8667 N   0  0  0  0  0  0  0  0  0  0  0  0
   25.0012  -20.0760  -14.6546 C   0  0  0  0  0  0  0  0  0  0  0  0
   24.1328  -20.8359  -15.2196 O   0  0  0  0  0  0  0  0  0  0  0  0
   22.3594  -17.9065  -14.8361 C   0  0  0  0  0  0  0  0  0  0  0  0
   21.0383  -17.8899  -15.2676 C   0  0  0  0  0  0  0  0  0  0  0  0
   25.3205  -21.7981  -11.3430 C   0  0  0  0  0  0  0  0  0  0  0  0
   24.5835  -21.4172  -12.6274 C   0  0  2  0  0  0  0  0  0  0  0  0
   25.3509  -20.4178  -13.3292 N   0  0  0  0  0  0  0  0  0  0  0  0
   23.1897  -21.0687  -12.3582 C   0  0  0  0  0  0  0  0  0  0  0  0
   22.8063  -19.8833  -12.4035 O   0  0  0  0  0  0  0  0  0  0  0  0
   22.2762  -22.0582  -12.0484 O   0  0  0  0  0  0  0  0  0  0  0  0
  2  1  1  0
  2  3  1  0
  3  4  1  6
  5  3  1  0
  5  6  2  0
  7  8  1  0
  8 18  2  0
  9 10  2  0
  9  8  1  0
 10 11  1  0
 11 12  1  0
 11 17  2  0
 13 12  1  6
 13 14  1  0
 14  5  1  0
 15 13  1  0
 16 15  2  0
 18 17  1  0
 20 19  1  1
 20 22  1  0
 20 21  1  0
 21 15  1  0
 22 24  1  0
 23 22  2  0
M  END
$$$$
