SYA.pdb
     RDKit          3D

 24 24  0  0  1  0  0  0  0  0999 V2000
   19.8255   -9.7779  -16.8856 O   0  0  0  0  0  0  0  0  0  0  0  0
   18.9075   -9.5200  -17.8893 C   0  0  0  0  0  0  0  0  0  0  0  0
   19.3367   -8.2654  -18.6132 C   0  0  2  0  0  0  0  0  0  0  0  0
   20.6427   -8.4709  -19.2203 N   0  0  0  0  0  0  0  0  0  0  0  0
   19.4262   -7.1008  -17.7019 C   0  0  0  0  0  0  0  0  0  0  0  0
   18.3825   -6.7347  -17.0764 O   0  0  0  0  0  0  0  0  0  0  0  0
   21.4966   -9.3706  -11.4648 O   0  0  0  0  0  0  0  0  0  0  0  0
   21.5831   -8.4102  -12.4890 C   0  0  0  0  0  0  0  0  0  0  0  0
   21.0121   -7.1807  -12.3971 C   0  0  0  0  0  0  0  0  0  0  0  0
   21.1334   -6.2690  -13.4498 C   0  0  0  0  0  0  0  0  0  0  0  0
   21.8284   -6.5904  -14.5971 C   0  0  0  0  0  0  0  0  0  0  0  0
   21.9108   -5.6239  -15.6767 C   0  0  0  0  0  0  0  0  0  0  0  0
   20.6720   -5.3068  -16.4372 C   0  0  2  0  0  0  0  0  0  0  0  0
   20.5983   -6.3602  -17.4751 N   0  0  0  0  0  0  0  0  0  0  0  0
   20.6755   -3.9794  -17.0975 C   0  0  0  0  0  0  0  0  0  0  0  0
   21.4384   -3.7969  -18.1151 O   0  0  0  0  0  0  0  0  0  0  0  0
   22.3935   -7.8453  -14.6545 C   0  0  0  0  0  0  0  0  0  0  0  0
   22.2783   -8.7584  -13.6130 C   0  0  0  0  0  0  0  0  0  0  0  0
   18.5633   -1.2680  -17.9343 C   0  0  0  0  0  0  0  0  0  0  0  0
   19.9682   -1.6452  -17.4633 C   0  0  2  0  0  0  0  0  0  0  0  0
   19.8951   -2.8694  -16.7043 N   0  0  0  0  0  0  0  0  0  0  0  0
   20.6235   -0.5245  -16.7916 C   0  0  0  0  0  0  0  0  0  0  0  0
   20.4492   -0.3173  -15.5747 O   0  0  0  0  0  0  0  0  0  0  0  0
   21.4493    0.3232  -17.5052 O   0  0  0  0  0  0  0  0  0  0  0  0
  2  1  1  0
  2  3  1  0
  3  4  1  1
  5  3  1  0
  5  6  2  0
  7  8  1  0
  8 18  2  0
  9 10  2  0
  9  8  1  0
 10 11  1  0
 11 12  1  0
 11 17  2  0
 13 12  1  6
 13 14  1  0
 14  5  1  0
 15 13  1  0
 16 15  2  0
 18 17  1  0
 20 19  1  1
 20 22  1  0
 20 21  1  0
 21 15  1  0
 22 24  1  0
 23 22  2  0
M  END
$$$$
