SYA.pdb
     RDKit          3D

 24 24  0  0  1  0  0  0  0  0999 V2000
   44.2763   -2.8504   -5.9330 O   0  0  0  0  0  0  0  0  0  0  0  0
   42.9155   -2.5982   -5.9634 C   0  0  0  0  0  0  0  0  0  0  0  0
   42.1975   -3.8036   -5.4033 C   0  0  2  0  0  0  0  0  0  0  0  0
   42.1822   -4.8700   -6.3928 N   0  0  0  0  0  0  0  0  0  0  0  0
   40.7969   -3.4939   -5.0327 C   0  0  0  0  0  0  0  0  0  0  0  0
   39.8956   -3.5887   -5.9232 O   0  0  0  0  0  0  0  0  0  0  0  0
   33.8611   -2.1016    0.4636 O   0  0  0  0  0  0  0  0  0  0  0  0
   35.0772   -2.4151   -0.1700 C   0  0  0  0  0  0  0  0  0  0  0  0
   36.2621   -1.8569    0.1913 C   0  0  0  0  0  0  0  0  0  0  0  0
   37.4381   -2.2094   -0.4773 C   0  0  0  0  0  0  0  0  0  0  0  0
   37.4262   -3.1235   -1.5103 C   0  0  0  0  0  0  0  0  0  0  0  0
   38.6654   -3.4446   -2.1942 C   0  0  0  0  0  0  0  0  0  0  0  0
   38.9840   -2.7223   -3.4553 C   0  0  2  0  0  0  0  0  0  0  0  0
   40.3860   -3.0969   -3.7491 N   0  0  0  0  0  0  0  0  0  0  0  0
   38.8895   -1.2457   -3.3621 C   0  0  0  0  0  0  0  0  0  0  0  0
   39.8295   -0.6021   -2.7680 O   0  0  0  0  0  0  0  0  0  0  0  0
   36.2072   -3.6683   -1.8486 C   0  0  0  0  0  0  0  0  0  0  0  0
   35.0329   -3.3240   -1.1897 C   0  0  0  0  0  0  0  0  0  0  0  0
   37.2582    1.6223   -4.9686 C   0  0  0  0  0  0  0  0  0  0  0  0
   37.8790    0.9736   -3.7311 C   0  0  2  0  0  0  0  0  0  0  0  0
   37.8370   -0.4600   -3.8826 N   0  0  0  0  0  0  0  0  0  0  0  0
   37.2854    1.4959   -2.5016 C   0  0  0  0  0  0  0  0  0  0  0  0
   36.2974    0.9408   -1.9821 O   0  0  0  0  0  0  0  0  0  0  0  0
   37.8181    2.6193   -1.8986 O   0  0  0  0  0  0  0  0  0  0  0  0
  2  1  1  0
  2  3  1  0
  3  4  1  6
  5  3  1  0
  5  6  2  0
  7  8  1  0
  8 18  2  0
  9 10  2  0
  9  8  1  0
 10 11  1  0
 11 12  1  0
 11 17  2  0
 13 12  1  1
 13 14  1  0
 14  5  1  0
 15 13  1  0
 16 15  2  0
 18 17  1  0
 20 19  1  6
 20 22  1  0
 20 21  1  0
 21 15  1  0
 22 24  1  0
 23 22  2  0
M  END
$$$$
