SYA.pdb
     RDKit          3D

 24 24  0  0  1  0  0  0  0  0999 V2000
   28.2320  -24.4973  -18.6053 O   0  0  0  0  0  0  0  0  0  0  0  0
   28.9391  -24.1061  -17.4813 C   0  0  0  0  0  0  0  0  0  0  0  0
   28.1841  -24.5747  -16.2596 C   0  0  2  0  0  0  0  0  0  0  0  0
   27.7343  -25.9444  -16.4554 N   0  0  0  0  0  0  0  0  0  0  0  0
   26.9979  -23.7317  -15.9818 C   0  0  0  0  0  0  0  0  0  0  0  0
   25.8507  -24.2779  -15.9721 O   0  0  0  0  0  0  0  0  0  0  0  0
   23.6901  -20.9639   -9.3535 O   0  0  0  0  0  0  0  0  0  0  0  0
   24.2963  -20.8540  -10.6181 C   0  0  0  0  0  0  0  0  0  0  0  0
   23.6443  -20.3737  -11.7090 C   0  0  0  0  0  0  0  0  0  0  0  0
   24.3016  -20.2888  -12.9399 C   0  0  0  0  0  0  0  0  0  0  0  0
   25.6153  -20.6862  -13.0773 C   0  0  0  0  0  0  0  0  0  0  0  0
   26.2540  -20.6039  -14.3780 C   0  0  0  0  0  0  0  0  0  0  0  0
   25.8308  -21.5618  -15.4348 C   0  0  2  0  0  0  0  0  0  0  0  0
   27.0494  -22.3515  -15.7243 N   0  0  0  0  0  0  0  0  0  0  0  0
   25.3582  -20.9282  -16.6891 C   0  0  0  0  0  0  0  0  0  0  0  0
   26.2055  -20.2978  -17.4210 O   0  0  0  0  0  0  0  0  0  0  0  0
   26.2438  -21.1676  -11.9502 C   0  0  0  0  0  0  0  0  0  0  0  0
   25.5985  -21.2557  -10.7223 C   0  0  0  0  0  0  0  0  0  0  0  0
   22.9254  -21.1823  -19.3092 C   0  0  0  0  0  0  0  0  0  0  0  0
   23.6955  -20.2455  -18.3779 C   0  0  2  0  0  0  0  0  0  0  0  0
   24.0298  -20.9573  -17.1689 N   0  0  0  0  0  0  0  0  0  0  0  0
   22.9872  -18.9807  -18.1903 C   0  0  0  0  0  0  0  0  0  0  0  0
   22.7482  -18.2315  -19.1577 O   0  0  0  0  0  0  0  0  0  0  0  0
   22.5724  -18.6003  -16.9282 O   0  0  0  0  0  0  0  0  0  0  0  0
  2  1  1  0
  2  3  1  0
  3  4  1  6
  5  3  1  0
  5  6  2  0
  7  8  1  0
  8 18  2  0
  9 10  2  0
  9  8  1  0
 10 11  1  0
 11 12  1  0
 11 17  2  0
 13 12  1  1
 13 14  1  0
 14  5  1  0
 15 13  1  0
 16 15  2  0
 18 17  1  0
 20 19  1  6
 20 22  1  0
 20 21  1  0
 21 15  1  0
 22 24  1  0
 23 22  2  0
M  END
$$$$
