YQQ.pdb
     RDKit          3D

 31 31  0  0  1  0  0  0  0  0999 V2000
    5.6913  -10.1341   27.7950 O   0  0  0  0  0  0  0  0  0  0  0  0
    6.2480  -11.2718   27.2046 C   0  0  0  0  0  0  0  0  0  0  0  0
    5.8953  -11.5841   25.9305 C   0  0  0  0  0  0  0  0  0  0  0  0
    6.4276  -12.7128   25.3002 C   0  0  0  0  0  0  0  0  0  0  0  0
    7.3169  -13.5197   25.9689 C   0  0  0  0  0  0  0  0  0  0  0  0
    7.8879  -14.7078   25.3325 C   0  0  0  0  0  0  0  0  0  0  0  0
    6.8405  -15.5114   24.5615 C   0  0  2  0  0  0  0  0  0  0  0  0
    6.6102  -16.7227   25.3208 N   0  0  0  0  0  0  0  0  0  0  0  0
    7.4105  -15.8539   23.2462 C   0  0  0  0  0  0  0  0  0  0  0  0
    7.9883  -16.9554   23.1029 O   0  0  0  0  0  0  0  0  0  0  0  0
    7.6666  -13.1969   27.2534 C   0  0  0  0  0  0  0  0  0  0  0  0
    7.1373  -12.0771   27.8761 C   0  0  0  0  0  0  0  0  0  0  0  0
    7.4422  -12.9067   17.5114 N   0  0  0  0  0  0  0  0  0  0  0  0
    8.1906  -14.0936   17.3362 C   0  0  0  0  0  0  0  0  0  0  0  0
    8.5617  -14.4300   16.1899 O   0  0  0  0  0  0  0  0  0  0  0  0
    8.5363  -14.9404   18.5102 C   0  0  0  0  0  0  0  0  0  0  0  0
    7.8848  -14.4138   19.7750 C   0  0  0  0  0  0  0  0  0  0  0  0
    8.0408  -15.3341   20.9260 C   0  0  2  0  0  0  0  0  0  0  0  0
    7.3549  -15.0200   22.1135 N   0  0  0  0  0  0  0  0  0  0  0  0
    9.5243  -15.5198   21.1448 C   0  0  0  0  0  0  0  0  0  0  0  0
   10.1040  -14.8434   22.0371 O   0  0  0  0  0  0  0  0  0  0  0  0
   11.0113  -18.3842   25.3036 N   0  0  0  0  0  0  0  0  0  0  0  0
   12.0883  -18.5737   24.4038 C   0  0  0  0  0  0  0  0  0  0  0  0
   13.2532  -18.6619   24.9246 O   0  0  0  0  0  0  0  0  0  0  0  0
   11.9474  -18.6793   22.9445 C   0  0  0  0  0  0  0  0  0  0  0  0
   11.0201  -17.7602   22.2753 C   0  0  0  0  0  0  0  0  0  0  0  0
   11.4216  -17.1661   20.9898 C   0  0  2  0  0  0  0  0  0  0  0  0
   10.3004  -16.4284   20.3845 N   0  0  0  0  0  0  0  0  0  0  0  0
   11.9828  -18.0437   19.9988 C   0  0  0  0  0  0  0  0  0  0  0  0
   13.2256  -18.2524   19.8220 O   0  0  0  0  0  0  0  0  0  0  0  0
   11.1529  -18.7687   19.1107 O   0  0  0  0  0  0  0  0  0  0  0  0
  2  1  1  0
  3  2  2  0
  4  3  1  0
  5 11  1  0
  5  4  2  0
  6  5  1  0
  7  6  1  0
  7  8  1  1
  9  7  1  0
  9 10  2  0
 11 12  2  0
 12  2  1  0
 13 14  1  0
 14 15  2  0
 16 17  1  0
 16 14  1  0
 18 19  1  0
 18 17  1  6
 19  9  1  0
 20 18  1  0
 21 20  2  0
 23 22  1  0
 23 24  2  0
 25 23  1  0
 26 25  1  0
 27 26  1  1
 27 28  1  0
 28 20  1  0
 29 27  1  0
 29 31  1  0
 30 29  2  0
M  END
$$$$
