YQQ.pdb
     RDKit          3D

 31 31  0  0  1  0  0  0  0  0999 V2000
    5.0116  -10.6488   28.3426 O   0  0  0  0  0  0  0  0  0  0  0  0
    5.7264  -11.5775   27.5814 C   0  0  0  0  0  0  0  0  0  0  0  0
    5.3175  -11.8325   26.3114 C   0  0  0  0  0  0  0  0  0  0  0  0
    6.0026  -12.7538   25.5137 C   0  0  0  0  0  0  0  0  0  0  0  0
    7.1014  -13.4124   26.0114 C   0  0  0  0  0  0  0  0  0  0  0  0
    7.8359  -14.3826   25.1977 C   0  0  0  0  0  0  0  0  0  0  0  0
    6.9029  -15.2801   24.3846 C   0  0  2  0  0  0  0  0  0  0  0  0
    6.4977  -16.3567   25.2640 N   0  0  0  0  0  0  0  0  0  0  0  0
    7.6738  -15.8290   23.2547 C   0  0  0  0  0  0  0  0  0  0  0  0
    8.0954  -17.0061   23.3219 O   0  0  0  0  0  0  0  0  0  0  0  0
    7.5064  -13.1489   27.2933 C   0  0  0  0  0  0  0  0  0  0  0  0
    6.8252  -12.2349   28.0822 C   0  0  0  0  0  0  0  0  0  0  0  0
    9.2986  -13.2148   17.6640 N   0  0  0  0  0  0  0  0  0  0  0  0
    8.0531  -13.8553   17.8584 C   0  0  0  0  0  0  0  0  0  0  0  0
    7.1196  -13.6560   17.0499 O   0  0  0  0  0  0  0  0  0  0  0  0
    7.8522  -14.7636   19.0200 C   0  0  0  0  0  0  0  0  0  0  0  0
    9.0929  -14.8201   19.8911 C   0  0  0  0  0  0  0  0  0  0  0  0
    8.8897  -15.6114   21.1274 C   0  0  2  0  0  0  0  0  0  0  0  0
    7.9801  -15.1166   22.0798 N   0  0  0  0  0  0  0  0  0  0  0  0
   10.2576  -15.8738   21.7134 C   0  0  0  0  0  0  0  0  0  0  0  0
   10.8133  -14.9772   22.4041 O   0  0  0  0  0  0  0  0  0  0  0  0
   11.3852  -20.5202   25.7442 N   0  0  0  0  0  0  0  0  0  0  0  0
   12.4076  -19.5733   25.4924 C   0  0  0  0  0  0  0  0  0  0  0  0
   13.0279  -19.1229   26.5164 O   0  0  0  0  0  0  0  0  0  0  0  0
   12.7919  -19.0961   24.1563 C   0  0  0  0  0  0  0  0  0  0  0  0
   11.7429  -18.5309   23.3004 C   0  0  0  0  0  0  0  0  0  0  0  0
   12.1033  -17.4584   22.3589 C   0  0  2  0  0  0  0  0  0  0  0  0
   10.9503  -17.0937   21.5190 N   0  0  0  0  0  0  0  0  0  0  0  0
   13.2414  -17.6761   21.5077 C   0  0  0  0  0  0  0  0  0  0  0  0
   14.4334  -17.8672   21.9100 O   0  0  0  0  0  0  0  0  0  0  0  0
   13.1076  -17.6934   20.0988 O   0  0  0  0  0  0  0  0  0  0  0  0
  2  1  1  0
  3  2  2  0
  4  3  1  0
  5 11  1  0
  5  4  2  0
  6  5  1  0
  7  6  1  0
  7  8  1  1
  9  7  1  0
  9 10  2  0
 11 12  2  0
 12  2  1  0
 13 14  1  0
 14 15  2  0
 16 17  1  0
 16 14  1  0
 18 19  1  0
 18 17  1  6
 19  9  1  0
 20 18  1  0
 21 20  2  0
 23 22  1  0
 23 24  2  0
 25 23  1  0
 26 25  1  0
 27 26  1  6
 27 28  1  0
 28 20  1  0
 29 27  1  0
 29 31  1  0
 30 29  2  0
M  END
$$$$
