YQQ.pdb
     RDKit          3D

 31 31  0  0  1  0  0  0  0  0999 V2000
    7.6585  -11.1978   18.5649 O   0  0  0  0  0  0  0  0  0  0  0  0
    8.0321  -12.2679   19.3823 C   0  0  0  0  0  0  0  0  0  0  0  0
    7.0759  -12.8900   20.1197 C   0  0  0  0  0  0  0  0  0  0  0  0
    7.4043  -13.9649   20.9511 C   0  0  0  0  0  0  0  0  0  0  0  0
    8.7047  -14.4029   21.0290 C   0  0  0  0  0  0  0  0  0  0  0  0
    9.0755  -15.5253   21.8925 C   0  0  0  0  0  0  0  0  0  0  0  0
    9.2424  -16.8275   21.1092 C   0  0  2  0  0  0  0  0  0  0  0  0
    7.9086  -17.2765   20.7682 N   0  0  0  0  0  0  0  0  0  0  0  0
    9.8824  -17.8125   21.9995 C   0  0  0  0  0  0  0  0  0  0  0  0
    9.1793  -18.4193   22.8392 O   0  0  0  0  0  0  0  0  0  0  0  0
    9.6623  -13.7693   20.2818 C   0  0  0  0  0  0  0  0  0  0  0  0
    9.3340  -12.7036   19.4582 C   0  0  0  0  0  0  0  0  0  0  0  0
   14.5131  -21.8161   20.7458 N   0  0  0  0  0  0  0  0  0  0  0  0
   14.1038  -22.1757   22.0506 C   0  0  0  0  0  0  0  0  0  0  0  0
   14.5400  -23.2265   22.5707 O   0  0  0  0  0  0  0  0  0  0  0  0
   13.1576  -21.3082   22.8036 C   0  0  0  0  0  0  0  0  0  0  0  0
   12.7403  -20.1071   21.9763 C   0  0  0  0  0  0  0  0  0  0  0  0
   11.7699  -19.2357   22.6798 C   0  0  2  0  0  0  0  0  0  0  0  0
   11.2535  -18.1306   21.9788 N   0  0  0  0  0  0  0  0  0  0  0  0
   12.4013  -18.8444   23.9957 C   0  0  0  0  0  0  0  0  0  0  0  0
   13.0391  -17.7596   24.0735 O   0  0  0  0  0  0  0  0  0  0  0  0
   12.7840  -21.0559   31.0181 N   0  0  0  0  0  0  0  0  0  0  0  0
   12.1134  -20.2794   30.0421 C   0  0  0  0  0  0  0  0  0  0  0  0
   10.8460  -20.1706   30.1769 O   0  0  0  0  0  0  0  0  0  0  0  0
   12.7735  -19.6029   28.9164 C   0  0  0  0  0  0  0  0  0  0  0  0
   12.2225  -19.8083   27.5724 C   0  0  0  0  0  0  0  0  0  0  0  0
   12.9442  -19.2429   26.4207 C   0  0  2  0  0  0  0  0  0  0  0  0
   12.3079  -19.6499   25.1568 N   0  0  0  0  0  0  0  0  0  0  0  0
   14.3555  -19.5015   26.3290 C   0  0  0  0  0  0  0  0  0  0  0  0
   14.8822  -20.5035   25.7476 O   0  0  0  0  0  0  0  0  0  0  0  0
   15.2992  -18.6187   26.9061 O   0  0  0  0  0  0  0  0  0  0  0  0
  2  1  1  0
  3  2  2  0
  4  3  1  0
  5 11  1  0
  5  4  2  0
  6  5  1  0
  7  6  1  0
  7  8  1  1
  9  7  1  0
  9 10  2  0
 11 12  2  0
 12  2  1  0
 13 14  1  0
 14 15  2  0
 16 17  1  0
 16 14  1  0
 18 19  1  0
 18 17  1  6
 19  9  1  0
 20 18  1  0
 21 20  2  0
 23 22  1  0
 23 24  2  0
 25 23  1  0
 26 25  1  0
 27 26  1  1
 27 28  1  0
 28 20  1  0
 29 27  1  0
 29 31  1  0
 30 29  2  0
M  END
$$$$
