YQQ.pdb
     RDKit          3D

 31 31  0  0  1  0  0  0  0  0999 V2000
    5.1710  -10.4263   27.7817 O   0  0  0  0  0  0  0  0  0  0  0  0
    5.8850  -11.4389   27.1354 C   0  0  0  0  0  0  0  0  0  0  0  0
    6.1981  -11.2805   25.8232 C   0  0  0  0  0  0  0  0  0  0  0  0
    6.9113  -12.2677   25.1367 C   0  0  0  0  0  0  0  0  0  0  0  0
    7.3035  -13.4125   25.7882 C   0  0  0  0  0  0  0  0  0  0  0  0
    8.0501  -14.4620   25.0926 C   0  0  0  0  0  0  0  0  0  0  0  0
    7.1530  -15.3093   24.1901 C   0  0  2  0  0  0  0  0  0  0  0  0
    6.3901  -16.1754   25.0645 N   0  0  0  0  0  0  0  0  0  0  0  0
    8.0231  -16.1246   23.3237 C   0  0  0  0  0  0  0  0  0  0  0  0
    8.4181  -17.2390   23.7359 O   0  0  0  0  0  0  0  0  0  0  0  0
    6.9832  -13.5636   27.1116 C   0  0  0  0  0  0  0  0  0  0  0  0
    6.2757  -12.5832   27.7899 C   0  0  0  0  0  0  0  0  0  0  0  0
    7.1985  -18.7801   18.4725 N   0  0  0  0  0  0  0  0  0  0  0  0
    8.0516  -17.6785   18.2310 C   0  0  0  0  0  0  0  0  0  0  0  0
    8.8269  -17.6971   17.2495 O   0  0  0  0  0  0  0  0  0  0  0  0
    8.0282  -16.5007   19.1403 C   0  0  0  0  0  0  0  0  0  0  0  0
    9.3728  -16.3035   19.8146 C   0  0  0  0  0  0  0  0  0  0  0  0
    9.3214  -16.5413   21.2763 C   0  0  2  0  0  0  0  0  0  0  0  0
    8.4544  -15.7390   22.0404 N   0  0  0  0  0  0  0  0  0  0  0  0
   10.7452  -16.5000   21.7806 C   0  0  0  0  0  0  0  0  0  0  0  0
   11.2138  -15.4119   22.2120 O   0  0  0  0  0  0  0  0  0  0  0  0
   12.7718  -18.8770   26.7494 N   0  0  0  0  0  0  0  0  0  0  0  0
   11.6086  -19.1828   26.0019 C   0  0  0  0  0  0  0  0  0  0  0  0
   10.7869  -20.0013   26.5415 O   0  0  0  0  0  0  0  0  0  0  0  0
   11.2958  -18.6230   24.6793 C   0  0  0  0  0  0  0  0  0  0  0  0
   12.1997  -17.6049   24.1327 C   0  0  0  0  0  0  0  0  0  0  0  0
   12.6908  -17.7653   22.7544 C   0  0  2  0  0  0  0  0  0  0  0  0
   11.5852  -17.6403   21.7900 N   0  0  0  0  0  0  0  0  0  0  0  0
   13.4349  -18.9569   22.4486 C   0  0  0  0  0  0  0  0  0  0  0  0
   14.5729  -19.2565   22.9329 O   0  0  0  0  0  0  0  0  0  0  0  0
   12.9295  -19.9227   21.5459 O   0  0  0  0  0  0  0  0  0  0  0  0
  2  1  1  0
  3  2  2  0
  4  3  1  0
  5 11  1  0
  5  4  2  0
  6  5  1  0
  7  6  1  0
  7  8  1  1
  9  7  1  0
  9 10  2  0
 11 12  2  0
 12  2  1  0
 13 14  1  0
 14 15  2  0
 16 17  1  0
 16 14  1  0
 18 19  1  0
 18 17  1  6
 19  9  1  0
 20 18  1  0
 21 20  2  0
 23 22  1  0
 23 24  2  0
 25 23  1  0
 26 25  1  0
 27 26  1  1
 27 28  1  0
 28 20  1  0
 29 27  1  0
 29 31  1  0
 30 29  2  0
M  END
$$$$
