YQQ.pdb
     RDKit          3D

 31 31  0  0  1  0  0  0  0  0999 V2000
    7.9123  -12.5094   16.8176 O   0  0  0  0  0  0  0  0  0  0  0  0
    7.7597  -12.9887   18.1214 C   0  0  0  0  0  0  0  0  0  0  0  0
    8.8719  -13.2107   18.8690 C   0  0  0  0  0  0  0  0  0  0  0  0
    8.7665  -13.6896   20.1781 C   0  0  0  0  0  0  0  0  0  0  0  0
    7.5295  -13.9410   20.7219 C   0  0  0  0  0  0  0  0  0  0  0  0
    7.3914  -14.4439   22.0897 C   0  0  0  0  0  0  0  0  0  0  0  0
    8.3632  -15.5859   22.3874 C   0  0  2  0  0  0  0  0  0  0  0  0
    8.2344  -16.5305   21.2975 N   0  0  0  0  0  0  0  0  0  0  0  0
    7.9399  -16.2240   23.6467 C   0  0  0  0  0  0  0  0  0  0  0  0
    7.9523  -15.5513   24.7027 O   0  0  0  0  0  0  0  0  0  0  0  0
    6.4135  -13.7143   19.9605 C   0  0  0  0  0  0  0  0  0  0  0  0
    6.5208  -13.2394   18.6625 C   0  0  0  0  0  0  0  0  0  0  0  0
    5.2166  -21.8872   25.0075 N   0  0  0  0  0  0  0  0  0  0  0  0
    6.4212  -21.7906   24.2733 C   0  0  0  0  0  0  0  0  0  0  0  0
    6.8750  -22.7996   23.6895 O   0  0  0  0  0  0  0  0  0  0  0  0
    7.1475  -20.4941   24.1946 C   0  0  0  0  0  0  0  0  0  0  0  0
    6.4275  -19.4152   24.9814 C   0  0  0  0  0  0  0  0  0  0  0  0
    7.1628  -18.1288   24.9954 C   0  0  2  0  0  0  0  0  0  0  0  0
    7.5135  -17.5610   23.7569 N   0  0  0  0  0  0  0  0  0  0  0  0
    8.3534  -18.3108   25.9080 C   0  0  0  0  0  0  0  0  0  0  0  0
    9.4815  -18.5629   25.4045 O   0  0  0  0  0  0  0  0  0  0  0  0
   10.0326  -13.6530   29.0825 N   0  0  0  0  0  0  0  0  0  0  0  0
   10.5355  -14.6846   29.9121 C   0  0  0  0  0  0  0  0  0  0  0  0
   11.1215  -14.3129   30.9867 O   0  0  0  0  0  0  0  0  0  0  0  0
   10.4197  -16.1206   29.6207 C   0  0  0  0  0  0  0  0  0  0  0  0
    9.3932  -16.5468   28.6630 C   0  0  0  0  0  0  0  0  0  0  0  0
    9.4418  -17.9234   28.1440 C   0  0  2  0  0  0  0  0  0  0  0  0
    8.2575  -18.2102   27.3174 N   0  0  0  0  0  0  0  0  0  0  0  0
    9.6057  -18.9874   29.0970 C   0  0  0  0  0  0  0  0  0  0  0  0
    8.7181  -19.8490   29.3956 O   0  0  0  0  0  0  0  0  0  0  0  0
   10.8217  -19.1568   29.8012 O   0  0  0  0  0  0  0  0  0  0  0  0
  2  1  1  0
  3  2  2  0
  4  3  1  0
  5 11  1  0
  5  4  2  0
  6  5  1  0
  7  6  1  0
  7  8  1  6
  9  7  1  0
  9 10  2  0
 11 12  2  0
 12  2  1  0
 13 14  1  0
 14 15  2  0
 16 17  1  0
 16 14  1  0
 18 19  1  0
 18 17  1  6
 19  9  1  0
 20 18  1  0
 21 20  2  0
 23 22  1  0
 23 24  2  0
 25 23  1  0
 26 25  1  0
 27 26  1  1
 27 28  1  0
 28 20  1  0
 29 27  1  0
 29 31  1  0
 30 29  2  0
M  END
$$$$
