YQQ.pdb
     RDKit          3D

 31 31  0  0  1  0  0  0  0  0999 V2000
    8.0253  -12.5238   17.0089 O   0  0  0  0  0  0  0  0  0  0  0  0
    7.9008  -13.1003   18.2758 C   0  0  0  0  0  0  0  0  0  0  0  0
    6.9307  -12.6414   19.1086 C   0  0  0  0  0  0  0  0  0  0  0  0
    6.7697  -13.1889   20.3849 C   0  0  0  0  0  0  0  0  0  0  0  0
    7.5966  -14.2015   20.8090 C   0  0  0  0  0  0  0  0  0  0  0  0
    7.4501  -14.7913   22.1407 C   0  0  0  0  0  0  0  0  0  0  0  0
    8.4168  -15.9535   22.3685 C   0  0  2  0  0  0  0  0  0  0  0  0
    8.1082  -16.9487   21.3630 N   0  0  0  0  0  0  0  0  0  0  0  0
    8.1518  -16.5069   23.7086 C   0  0  0  0  0  0  0  0  0  0  0  0
    8.2694  -15.7614   24.7078 O   0  0  0  0  0  0  0  0  0  0  0  0
    8.5720  -14.6578   19.9624 C   0  0  0  0  0  0  0  0  0  0  0  0
    8.7296  -14.1131   18.6973 C   0  0  0  0  0  0  0  0  0  0  0  0
    6.5460  -22.3930   25.8278 N   0  0  0  0  0  0  0  0  0  0  0  0
    6.7979  -21.6286   26.9904 C   0  0  0  0  0  0  0  0  0  0  0  0
    6.6644  -22.1521   28.1187 O   0  0  0  0  0  0  0  0  0  0  0  0
    7.2203  -20.2064   26.8737 C   0  0  0  0  0  0  0  0  0  0  0  0
    7.2550  -19.7635   25.4232 C   0  0  0  0  0  0  0  0  0  0  0  0
    7.6963  -18.3579   25.2634 C   0  0  2  0  0  0  0  0  0  0  0  0
    7.7686  -17.8383   23.9581 N   0  0  0  0  0  0  0  0  0  0  0  0
    8.9981  -18.2156   26.0173 C   0  0  0  0  0  0  0  0  0  0  0  0
   10.0797  -18.5041   25.4372 O   0  0  0  0  0  0  0  0  0  0  0  0
   11.0847  -13.1155   28.2662 N   0  0  0  0  0  0  0  0  0  0  0  0
    9.7819  -13.6694   28.2295 C   0  0  0  0  0  0  0  0  0  0  0  0
    8.8111  -12.8367   28.2476 O   0  0  0  0  0  0  0  0  0  0  0  0
    9.4887  -15.1083   28.1662 C   0  0  0  0  0  0  0  0  0  0  0  0
   10.6170  -16.0335   28.0130 C   0  0  0  0  0  0  0  0  0  0  0  0
   10.3467  -17.4805   28.0111 C   0  0  2  0  0  0  0  0  0  0  0  0
    9.0580  -17.7685   27.3598 N   0  0  0  0  0  0  0  0  0  0  0  0
   10.3865  -18.1654   29.2745 C   0  0  0  0  0  0  0  0  0  0  0  0
    9.4288  -18.8364   29.7766 O   0  0  0  0  0  0  0  0  0  0  0  0
   11.5472  -18.1388   30.0840 O   0  0  0  0  0  0  0  0  0  0  0  0
  2  1  1  0
  3  2  2  0
  4  3  1  0
  5 11  1  0
  5  4  2  0
  6  5  1  0
  7  6  1  0
  7  8  1  6
  9  7  1  0
  9 10  2  0
 11 12  2  0
 12  2  1  0
 13 14  1  0
 14 15  2  0
 16 17  1  0
 16 14  1  0
 18 19  1  0
 18 17  1  6
 19  9  1  0
 20 18  1  0
 21 20  2  0
 23 22  1  0
 23 24  2  0
 25 23  1  0
 26 25  1  0
 27 26  1  1
 27 28  1  0
 28 20  1  0
 29 27  1  0
 29 31  1  0
 30 29  2  0
M  END
$$$$
