YQQ.pdb
     RDKit          3D

 31 31  0  0  1  0  0  0  0  0999 V2000
   -0.1857  -25.0858   24.3987 O   0  0  0  0  0  0  0  0  0  0  0  0
    0.8847  -24.1874   24.4013 C   0  0  0  0  0  0  0  0  0  0  0  0
    2.0815  -24.6003   24.8937 C   0  0  0  0  0  0  0  0  0  0  0  0
    3.1796  -23.7354   24.9157 C   0  0  0  0  0  0  0  0  0  0  0  0
    3.0558  -22.4532   24.4365 C   0  0  0  0  0  0  0  0  0  0  0  0
    4.1895  -21.5272   24.4491 C   0  0  0  0  0  0  0  0  0  0  0  0
    4.6039  -21.1004   23.0408 C   0  0  2  0  0  0  0  0  0  0  0  0
    5.1871  -22.2671   22.4121 N   0  0  0  0  0  0  0  0  0  0  0  0
    5.6257  -20.0461   23.1695 C   0  0  0  0  0  0  0  0  0  0  0  0
    6.8043  -20.3721   23.4383 O   0  0  0  0  0  0  0  0  0  0  0  0
    1.8451  -22.0455   23.9419 C   0  0  0  0  0  0  0  0  0  0  0  0
    0.7578  -22.9052   23.9213 C   0  0  0  0  0  0  0  0  0  0  0  0
    5.9922  -14.0055   21.1201 N   0  0  0  0  0  0  0  0  0  0  0  0
    7.2168  -14.2466   21.7846 C   0  0  0  0  0  0  0  0  0  0  0  0
    8.1345  -13.3987   21.7222 O   0  0  0  0  0  0  0  0  0  0  0  0
    7.4148  -15.5039   22.5558 C   0  0  0  0  0  0  0  0  0  0  0  0
    6.2031  -16.4100   22.4449 C   0  0  0  0  0  0  0  0  0  0  0  0
    6.3946  -17.7097   23.1303 C   0  0  2  0  0  0  0  0  0  0  0  0
    5.3736  -18.6703   23.0104 N   0  0  0  0  0  0  0  0  0  0  0  0
    6.7366  -17.4034   24.5699 C   0  0  0  0  0  0  0  0  0  0  0  0
    5.8493  -17.5389   25.4553 O   0  0  0  0  0  0  0  0  0  0  0  0
    9.3216  -21.1700   28.0612 N   0  0  0  0  0  0  0  0  0  0  0  0
    8.0935  -20.5090   28.3066 C   0  0  0  0  0  0  0  0  0  0  0  0
    7.3469  -21.0176   29.2122 O   0  0  0  0  0  0  0  0  0  0  0  0
    7.6423  -19.2994   27.6038 C   0  0  0  0  0  0  0  0  0  0  0  0
    8.4316  -18.8360   26.4573 C   0  0  0  0  0  0  0  0  0  0  0  0
    8.6027  -17.3875   26.2587 C   0  0  2  0  0  0  0  0  0  0  0  0
    8.0221  -16.9662   24.9729 N   0  0  0  0  0  0  0  0  0  0  0  0
    9.9349  -16.8561   26.3576 C   0  0  0  0  0  0  0  0  0  0  0  0
   10.6774  -16.9227   27.3889 O   0  0  0  0  0  0  0  0  0  0  0  0
   10.5396  -16.1914   25.2641 O   0  0  0  0  0  0  0  0  0  0  0  0
  2  1  1  0
  3  2  2  0
  4  3  1  0
  5 11  1  0
  5  4  2  0
  6  5  1  0
  7  6  1  0
  7  8  1  1
  9  7  1  0
  9 10  2  0
 11 12  2  0
 12  2  1  0
 13 14  1  0
 14 15  2  0
 16 17  1  0
 16 14  1  0
 18 19  1  0
 18 17  1  1
 19  9  1  0
 20 18  1  0
 21 20  2  0
 23 22  1  0
 23 24  2  0
 25 23  1  0
 26 25  1  0
 27 26  1  6
 27 28  1  0
 28 20  1  0
 29 27  1  0
 29 31  1  0
 30 29  2  0
M  END
$$$$
