YQQ.pdb
     RDKit          3D

 31 31  0  0  1  0  0  0  0  0999 V2000
    8.6437  -11.1330   21.7041 O   0  0  0  0  0  0  0  0  0  0  0  0
    8.4343  -12.2930   20.9535 C   0  0  0  0  0  0  0  0  0  0  0  0
    8.6467  -13.4982   21.5429 C   0  0  0  0  0  0  0  0  0  0  0  0
    8.4496  -14.6846   20.8300 C   0  0  0  0  0  0  0  0  0  0  0  0
    8.0368  -14.6400   19.5198 C   0  0  0  0  0  0  0  0  0  0  0  0
    7.8241  -15.8671   18.7505 C   0  0  0  0  0  0  0  0  0  0  0  0
    8.9413  -16.1158   17.7369 C   0  0  2  0  0  0  0  0  0  0  0  0
    8.6715  -17.4049   17.1352 N   0  0  0  0  0  0  0  0  0  0  0  0
   10.2167  -16.1717   18.4734 C   0  0  0  0  0  0  0  0  0  0  0  0
   10.4884  -17.1959   19.1405 O   0  0  0  0  0  0  0  0  0  0  0  0
    7.8251  -13.4200   18.9338 C   0  0  0  0  0  0  0  0  0  0  0  0
    8.0215  -12.2451   19.6429 C   0  0  0  0  0  0  0  0  0  0  0  0
   15.6324  -13.3297   16.9075 N   0  0  0  0  0  0  0  0  0  0  0  0
   16.0047  -14.2859   17.8805 C   0  0  0  0  0  0  0  0  0  0  0  0
   17.2153  -14.4807   18.1281 O   0  0  0  0  0  0  0  0  0  0  0  0
   14.9612  -15.0583   18.6080 C   0  0  0  0  0  0  0  0  0  0  0  0
   13.5700  -14.5755   18.2438 C   0  0  0  0  0  0  0  0  0  0  0  0
   12.4999  -15.3622   18.9010 C   0  0  2  0  0  0  0  0  0  0  0  0
   11.1742  -15.1400   18.4857 N   0  0  0  0  0  0  0  0  0  0  0  0
   12.6774  -15.1899   20.3916 C   0  0  0  0  0  0  0  0  0  0  0  0
   12.4076  -14.0768   20.9187 O   0  0  0  0  0  0  0  0  0  0  0  0
   11.0885  -19.1869   24.7334 N   0  0  0  0  0  0  0  0  0  0  0  0
   10.5394  -17.9105   24.4600 C   0  0  0  0  0  0  0  0  0  0  0  0
    9.3262  -17.7261   24.8211 O   0  0  0  0  0  0  0  0  0  0  0  0
   11.2666  -16.8116   23.8087 C   0  0  0  0  0  0  0  0  0  0  0  0
   12.6789  -17.0256   23.4737 C   0  0  0  0  0  0  0  0  0  0  0  0
   13.3738  -16.0089   22.6673 C   0  0  2  0  0  0  0  0  0  0  0  0
   13.1382  -16.2332   21.2313 N   0  0  0  0  0  0  0  0  0  0  0  0
   14.7857  -15.8425   22.8810 C   0  0  0  0  0  0  0  0  0  0  0  0
   15.7002  -16.2458   22.0934 O   0  0  0  0  0  0  0  0  0  0  0  0
   15.2781  -15.1888   24.0358 O   0  0  0  0  0  0  0  0  0  0  0  0
  2  1  1  0
  3  2  2  0
  4  3  1  0
  5 11  1  0
  5  4  2  0
  6  5  1  0
  7  6  1  0
  7  8  1  1
  9  7  1  0
  9 10  2  0
 11 12  2  0
 12  2  1  0
 13 14  1  0
 14 15  2  0
 16 17  1  0
 16 14  1  0
 18 19  1  0
 18 17  1  6
 19  9  1  0
 20 18  1  0
 21 20  2  0
 23 22  1  0
 23 24  2  0
 25 23  1  0
 26 25  1  0
 27 26  1  1
 27 28  1  0
 28 20  1  0
 29 27  1  0
 29 31  1  0
 30 29  2  0
M  END
$$$$
