YQQ.pdb
     RDKit          3D

 31 31  0  0  1  0  0  0  0  0999 V2000
    7.0301  -12.1079   17.6185 O   0  0  0  0  0  0  0  0  0  0  0  0
    7.4585  -12.8602   18.7155 C   0  0  0  0  0  0  0  0  0  0  0  0
    8.7920  -12.9705   18.9498 C   0  0  0  0  0  0  0  0  0  0  0  0
    9.2656  -13.7129   20.0356 C   0  0  0  0  0  0  0  0  0  0  0  0
    8.3804  -14.3403   20.8793 C   0  0  0  0  0  0  0  0  0  0  0  0
    8.8499  -15.1245   22.0226 C   0  0  0  0  0  0  0  0  0  0  0  0
    9.6222  -16.3714   21.5912 C   0  0  2  0  0  0  0  0  0  0  0  0
    8.6668  -17.2418   20.9383 N   0  0  0  0  0  0  0  0  0  0  0  0
   10.1381  -17.0273   22.8060 C   0  0  0  0  0  0  0  0  0  0  0  0
    9.3280  -17.5521   23.6036 O   0  0  0  0  0  0  0  0  0  0  0  0
    7.0375  -14.2235   20.6352 C   0  0  0  0  0  0  0  0  0  0  0  0
    6.5705  -13.4868   19.5576 C   0  0  0  0  0  0  0  0  0  0  0  0
   15.9394  -19.3126   23.5596 N   0  0  0  0  0  0  0  0  0  0  0  0
   14.8184  -19.9213   22.9494 C   0  0  0  0  0  0  0  0  0  0  0  0
   14.9349  -21.0498   22.4224 O   0  0  0  0  0  0  0  0  0  0  0  0
   13.5042  -19.2231   22.9334 C   0  0  0  0  0  0  0  0  0  0  0  0
   13.2769  -18.4558   24.2222 C   0  0  0  0  0  0  0  0  0  0  0  0
   11.9407  -17.8178   24.2815 C   0  0  2  0  0  0  0  0  0  0  0  0
   11.5013  -17.1112   23.1471 N   0  0  0  0  0  0  0  0  0  0  0  0
   11.9081  -16.9775   25.5369 C   0  0  0  0  0  0  0  0  0  0  0  0
   12.5290  -15.8803   25.5591 O   0  0  0  0  0  0  0  0  0  0  0  0
    9.2651  -12.6395   28.0025 N   0  0  0  0  0  0  0  0  0  0  0  0
    8.7131  -13.7317   27.2900 C   0  0  0  0  0  0  0  0  0  0  0  0
    7.5629  -13.5419   26.7635 O   0  0  0  0  0  0  0  0  0  0  0  0
    9.3717  -15.0346   27.1190 C   0  0  0  0  0  0  0  0  0  0  0  0
   10.7324  -15.1911   27.6448 C   0  0  0  0  0  0  0  0  0  0  0  0
   11.2290  -16.5487   27.9221 C   0  0  2  0  0  0  0  0  0  0  0  0
   11.2046  -17.3714   26.7013 N   0  0  0  0  0  0  0  0  0  0  0  0
   10.5969  -17.2834   28.9841 C   0  0  0  0  0  0  0  0  0  0  0  0
    9.9901  -18.3937   28.8490 O   0  0  0  0  0  0  0  0  0  0  0  0
   10.6065  -16.7993   30.3141 O   0  0  0  0  0  0  0  0  0  0  0  0
  2  1  1  0
  3  2  2  0
  4  3  1  0
  5 11  1  0
  5  4  2  0
  6  5  1  0
  7  6  1  0
  7  8  1  1
  9  7  1  0
  9 10  2  0
 11 12  2  0
 12  2  1  0
 13 14  1  0
 14 15  2  0
 16 17  1  0
 16 14  1  0
 18 19  1  0
 18 17  1  6
 19  9  1  0
 20 18  1  0
 21 20  2  0
 23 22  1  0
 23 24  2  0
 25 23  1  0
 26 25  1  0
 27 26  1  6
 27 28  1  0
 28 20  1  0
 29 27  1  0
 29 31  1  0
 30 29  2  0
M  END
$$$$
