YQQ.pdb
     RDKit          3D

 31 31  0  0  1  0  0  0  0  0999 V2000
    5.2360  -12.8479   14.7225 O   0  0  0  0  0  0  0  0  0  0  0  0
    6.1765  -13.6187   15.4111 C   0  0  0  0  0  0  0  0  0  0  0  0
    7.2336  -14.1246   14.7242 C   0  0  0  0  0  0  0  0  0  0  0  0
    8.1988  -14.9010   15.3724 C   0  0  0  0  0  0  0  0  0  0  0  0
    8.0847  -15.1597   16.7174 C   0  0  0  0  0  0  0  0  0  0  0  0
    9.0806  -15.9706   17.4199 C   0  0  0  0  0  0  0  0  0  0  0  0
    9.5381  -15.3217   18.7264 C   0  0  2  0  0  0  0  0  0  0  0  0
    9.2869  -13.9021   18.5908 N   0  0  0  0  0  0  0  0  0  0  0  0
   10.9866  -15.5558   18.8653 C   0  0  0  0  0  0  0  0  0  0  0  0
   11.4147  -16.7325   18.8628 O   0  0  0  0  0  0  0  0  0  0  0  0
    7.0153  -14.6455   17.4019 C   0  0  0  0  0  0  0  0  0  0  0  0
    6.0595  -13.8760   16.7566 C   0  0  0  0  0  0  0  0  0  0  0  0
   17.5453  -12.6641   18.4990 N   0  0  0  0  0  0  0  0  0  0  0  0
   16.6848  -13.6148   17.9031 C   0  0  0  0  0  0  0  0  0  0  0  0
   16.7279  -13.8023   16.6670 O   0  0  0  0  0  0  0  0  0  0  0  0
   15.7311  -14.3903   18.7420 C   0  0  0  0  0  0  0  0  0  0  0  0
   14.2946  -14.0366   18.4058 C   0  0  0  0  0  0  0  0  0  0  0  0
   13.3125  -14.8231   19.1886 C   0  0  2  0  0  0  0  0  0  0  0  0
   11.9475  -14.5365   19.0040 N   0  0  0  0  0  0  0  0  0  0  0  0
   13.7324  -14.7371   20.6376 C   0  0  0  0  0  0  0  0  0  0  0  0
   13.6682  -13.6270   21.2319 O   0  0  0  0  0  0  0  0  0  0  0  0
   10.7972  -16.9868   25.2689 N   0  0  0  0  0  0  0  0  0  0  0  0
   11.0120  -17.6051   24.0131 C   0  0  0  0  0  0  0  0  0  0  0  0
   10.3007  -18.6378   23.7606 O   0  0  0  0  0  0  0  0  0  0  0  0
   11.9751  -17.1365   23.0064 C   0  0  0  0  0  0  0  0  0  0  0  0
   12.7748  -15.9475   23.3214 C   0  0  0  0  0  0  0  0  0  0  0  0
   14.1631  -15.8831   22.8366 C   0  0  2  0  0  0  0  0  0  0  0  0
   14.1999  -15.8589   21.3649 N   0  0  0  0  0  0  0  0  0  0  0  0
   15.0770  -16.8903   23.3027 C   0  0  0  0  0  0  0  0  0  0  0  0
   15.5937  -17.8032   22.5822 O   0  0  0  0  0  0  0  0  0  0  0  0
   15.4832  -16.9379   24.6577 O   0  0  0  0  0  0  0  0  0  0  0  0
  2  1  1  0
  3  2  2  0
  4  3  1  0
  5 11  1  0
  5  4  2  0
  6  5  1  0
  7  6  1  0
  7  8  1  6
  9  7  1  0
  9 10  2  0
 11 12  2  0
 12  2  1  0
 13 14  1  0
 14 15  2  0
 16 17  1  0
 16 14  1  0
 18 19  1  0
 18 17  1  6
 19  9  1  0
 20 18  1  0
 21 20  2  0
 23 22  1  0
 23 24  2  0
 25 23  1  0
 26 25  1  0
 27 26  1  6
 27 28  1  0
 28 20  1  0
 29 27  1  0
 29 31  1  0
 30 29  2  0
M  END
$$$$
