YQQ.pdb
     RDKit          3D

 31 31  0  0  1  0  0  0  0  0999 V2000
    7.8486  -12.4928   17.3615 O   0  0  0  0  0  0  0  0  0  0  0  0
    7.7238  -13.0270   18.6467 C   0  0  0  0  0  0  0  0  0  0  0  0
    6.5435  -13.5963   19.0045 C   0  0  0  0  0  0  0  0  0  0  0  0
    6.3739  -14.1433   20.2798 C   0  0  0  0  0  0  0  0  0  0  0  0
    7.4061  -14.1091   21.1865 C   0  0  0  0  0  0  0  0  0  0  0  0
    7.2544  -14.6735   22.5286 C   0  0  0  0  0  0  0  0  0  0  0  0
    8.1857  -15.8626   22.7650 C   0  0  2  0  0  0  0  0  0  0  0  0
    8.0189  -16.7478   21.6313 N   0  0  0  0  0  0  0  0  0  0  0  0
    7.7445  -16.5459   23.9941 C   0  0  0  0  0  0  0  0  0  0  0  0
    7.7072  -15.9017   25.0672 O   0  0  0  0  0  0  0  0  0  0  0  0
    8.5927  -13.5329   20.8170 C   0  0  0  0  0  0  0  0  0  0  0  0
    8.7583  -12.9910   19.5517 C   0  0  0  0  0  0  0  0  0  0  0  0
    5.8255  -22.5691   25.3098 N   0  0  0  0  0  0  0  0  0  0  0  0
    6.2096  -22.0156   26.5530 C   0  0  0  0  0  0  0  0  0  0  0  0
    6.1211  -22.7048   27.5933 O   0  0  0  0  0  0  0  0  0  0  0  0
    6.7176  -20.6187   26.6251 C   0  0  0  0  0  0  0  0  0  0  0  0
    6.7731  -19.9852   25.2478 C   0  0  0  0  0  0  0  0  0  0  0  0
    7.2725  -18.5903   25.2782 C   0  0  2  0  0  0  0  0  0  0  0  0
    7.3535  -17.8968   24.0568 N   0  0  0  0  0  0  0  0  0  0  0  0
    8.5870  -18.6083   26.0233 C   0  0  0  0  0  0  0  0  0  0  0  0
    9.6367  -18.9440   25.4110 O   0  0  0  0  0  0  0  0  0  0  0  0
    9.9721  -13.4060   30.0041 N   0  0  0  0  0  0  0  0  0  0  0  0
   10.6835  -14.0205   28.9450 C   0  0  0  0  0  0  0  0  0  0  0  0
   11.2141  -13.2341   28.0871 O   0  0  0  0  0  0  0  0  0  0  0  0
   10.8490  -15.4721   28.7830 C   0  0  0  0  0  0  0  0  0  0  0  0
    9.7437  -16.2270   28.1824 C   0  0  0  0  0  0  0  0  0  0  0  0
    9.9258  -17.6666   27.9351 C   0  0  2  0  0  0  0  0  0  0  0  0
    8.6932  -18.2616   27.3924 N   0  0  0  0  0  0  0  0  0  0  0  0
   10.3831  -18.4764   29.0316 C   0  0  0  0  0  0  0  0  0  0  0  0
   11.4922  -18.3321   29.6386 O   0  0  0  0  0  0  0  0  0  0  0  0
    9.5946  -19.5391   29.5338 O   0  0  0  0  0  0  0  0  0  0  0  0
  2  1  1  0
  3  2  2  0
  4  3  1  0
  5 11  1  0
  5  4  2  0
  6  5  1  0
  7  6  1  0
  7  8  1  6
  9  7  1  0
  9 10  2  0
 11 12  2  0
 12  2  1  0
 13 14  1  0
 14 15  2  0
 16 17  1  0
 16 14  1  0
 18 19  1  0
 18 17  1  6
 19  9  1  0
 20 18  1  0
 21 20  2  0
 23 22  1  0
 23 24  2  0
 25 23  1  0
 26 25  1  0
 27 26  1  1
 27 28  1  0
 28 20  1  0
 29 27  1  0
 29 31  1  0
 30 29  2  0
M  END
$$$$
