YQQ.pdb
     RDKit          3D

 31 31  0  0  1  0  0  0  0  0999 V2000
    6.5440  -13.0476   16.1576 O   0  0  0  0  0  0  0  0  0  0  0  0
    7.2629  -13.2948   17.3303 C   0  0  0  0  0  0  0  0  0  0  0  0
    8.3301  -14.1334   17.2763 C   0  0  0  0  0  0  0  0  0  0  0  0
    9.0781  -14.4093   18.4247 C   0  0  0  0  0  0  0  0  0  0  0  0
    8.7373  -13.8307   19.6239 C   0  0  0  0  0  0  0  0  0  0  0  0
    9.5031  -14.1037   20.8413 C   0  0  0  0  0  0  0  0  0  0  0  0
    9.2836  -15.5263   21.3563 C   0  0  2  0  0  0  0  0  0  0  0  0
    7.9131  -15.5895   21.8193 N   0  0  0  0  0  0  0  0  0  0  0  0
   10.1987  -15.7432   22.4911 C   0  0  0  0  0  0  0  0  0  0  0  0
    9.8155  -15.4468   23.6457 O   0  0  0  0  0  0  0  0  0  0  0  0
    7.6595  -12.9864   19.6687 C   0  0  0  0  0  0  0  0  0  0  0  0
    6.9194  -12.7146   18.5285 C   0  0  0  0  0  0  0  0  0  0  0  0
   10.8183  -19.6390   26.1049 N   0  0  0  0  0  0  0  0  0  0  0  0
   11.9787  -18.9418   26.5132 C   0  0  0  0  0  0  0  0  0  0  0  0
   12.5376  -19.2438   27.5909 O   0  0  0  0  0  0  0  0  0  0  0  0
   12.5344  -17.8526   25.6649 C   0  0  0  0  0  0  0  0  0  0  0  0
   11.6629  -17.6090   24.4474 C   0  0  0  0  0  0  0  0  0  0  0  0
   12.2565  -16.6329   23.5036 C   0  0  2  0  0  0  0  0  0  0  0  0
   11.4993  -16.2691   22.3750 N   0  0  0  0  0  0  0  0  0  0  0  0
   13.6290  -17.1496   23.1393 C   0  0  0  0  0  0  0  0  0  0  0  0
   13.7275  -18.1994   22.4480 O   0  0  0  0  0  0  0  0  0  0  0  0
   15.5572  -15.5887   18.4982 N   0  0  0  0  0  0  0  0  0  0  0  0
   15.5703  -14.6177   19.5289 C   0  0  0  0  0  0  0  0  0  0  0  0
   15.4507  -13.3986   19.1607 O   0  0  0  0  0  0  0  0  0  0  0  0
   15.7027  -14.9227   20.9606 C   0  0  0  0  0  0  0  0  0  0  0  0
   15.8411  -16.3294   21.3537 C   0  0  0  0  0  0  0  0  0  0  0  0
   16.0674  -16.6455   22.7734 C   0  0  2  0  0  0  0  0  0  0  0  0
   14.8212  -16.5010   23.5440 N   0  0  0  0  0  0  0  0  0  0  0  0
   17.1141  -15.9326   23.4541 C   0  0  0  0  0  0  0  0  0  0  0  0
   17.8879  -16.4282   24.3344 O   0  0  0  0  0  0  0  0  0  0  0  0
   17.3668  -14.5674   23.1793 O   0  0  0  0  0  0  0  0  0  0  0  0
  2  1  1  0
  3  2  2  0
  4  3  1  0
  5 11  1  0
  5  4  2  0
  6  5  1  0
  7  6  1  0
  7  8  1  1
  9  7  1  0
  9 10  2  0
 11 12  2  0
 12  2  1  0
 13 14  1  0
 14 15  2  0
 16 17  1  0
 16 14  1  0
 18 19  1  0
 18 17  1  6
 19  9  1  0
 20 18  1  0
 21 20  2  0
 23 22  1  0
 23 24  2  0
 25 23  1  0
 26 25  1  0
 27 26  1  6
 27 28  1  0
 28 20  1  0
 29 27  1  0
 29 31  1  0
 30 29  2  0
M  END
$$$$
