YQQ.pdb
     RDKit          3D

 31 31  0  0  1  0  0  0  0  0999 V2000
    9.0122  -11.9561   20.1176 O   0  0  0  0  0  0  0  0  0  0  0  0
    8.2812  -12.9047   20.8378 C   0  0  0  0  0  0  0  0  0  0  0  0
    7.6905  -13.9238   20.1614 C   0  0  0  0  0  0  0  0  0  0  0  0
    6.9498  -14.8953   20.8411 C   0  0  0  0  0  0  0  0  0  0  0  0
    6.8129  -14.8262   22.2069 C   0  0  0  0  0  0  0  0  0  0  0  0
    6.0419  -15.8297   22.9426 C   0  0  0  0  0  0  0  0  0  0  0  0
    6.5625  -17.2475   22.7059 C   0  0  2  0  0  0  0  0  0  0  0  0
    5.6219  -18.1434   23.3457 N   0  0  0  0  0  0  0  0  0  0  0  0
    7.8777  -17.3622   23.3611 C   0  0  0  0  0  0  0  0  0  0  0  0
    7.9258  -17.6131   24.5869 O   0  0  0  0  0  0  0  0  0  0  0  0
    7.4121  -13.7948   22.8807 C   0  0  0  0  0  0  0  0  0  0  0  0
    8.1460  -12.8327   22.2042 C   0  0  0  0  0  0  0  0  0  0  0  0
   13.9244  -17.4391   21.1140 N   0  0  0  0  0  0  0  0  0  0  0  0
   14.0346  -17.6830   22.5024 C   0  0  0  0  0  0  0  0  0  0  0  0
   15.1572  -17.9094   23.0058 O   0  0  0  0  0  0  0  0  0  0  0  0
   12.8204  -17.6708   23.3629 C   0  0  0  0  0  0  0  0  0  0  0  0
   11.5714  -17.4093   22.5425 C   0  0  0  0  0  0  0  0  0  0  0  0
   10.3372  -17.4053   23.3628 C   0  0  2  0  0  0  0  0  0  0  0  0
    9.1115  -17.2076   22.7012 N   0  0  0  0  0  0  0  0  0  0  0  0
   10.5565  -16.4177   24.4853 C   0  0  0  0  0  0  0  0  0  0  0  0
   10.8482  -15.2234   24.2056 O   0  0  0  0  0  0  0  0  0  0  0  0
    6.5497  -13.5064   25.1301 N   0  0  0  0  0  0  0  0  0  0  0  0
    7.6233  -13.6338   26.0448 C   0  0  0  0  0  0  0  0  0  0  0  0
    7.8063  -12.6522   26.8443 O   0  0  0  0  0  0  0  0  0  0  0  0
    8.5117  -14.8016   26.1310 C   0  0  0  0  0  0  0  0  0  0  0  0
    9.8239  -14.6217   26.7619 C   0  0  0  0  0  0  0  0  0  0  0  0
   10.6968  -15.7964   26.9201 C   0  0  2  0  0  0  0  0  0  0  0  0
   10.4482  -16.7775   25.8508 N   0  0  0  0  0  0  0  0  0  0  0  0
   10.6698  -16.4786   28.1853 C   0  0  0  0  0  0  0  0  0  0  0  0
   10.9261  -15.9462   29.3124 O   0  0  0  0  0  0  0  0  0  0  0  0
   10.3415  -17.8529   28.2677 O   0  0  0  0  0  0  0  0  0  0  0  0
  2  1  1  0
  3  2  2  0
  4  3  1  0
  5 11  1  0
  5  4  2  0
  6  5  1  0
  7  6  1  0
  7  8  1  1
  9  7  1  0
  9 10  2  0
 11 12  2  0
 12  2  1  0
 13 14  1  0
 14 15  2  0
 16 17  1  0
 16 14  1  0
 18 19  1  0
 18 17  1  6
 19  9  1  0
 20 18  1  0
 21 20  2  0
 23 22  1  0
 23 24  2  0
 25 23  1  0
 26 25  1  0
 27 26  1  1
 27 28  1  0
 28 20  1  0
 29 27  1  0
 29 31  1  0
 30 29  2  0
M  END
$$$$
