YQQ.pdb
     RDKit          3D

 31 31  0  0  1  0  0  0  0  0999 V2000
    5.7288  -10.9040   28.6762 O   0  0  0  0  0  0  0  0  0  0  0  0
    6.2912  -11.7065   27.6799 C   0  0  0  0  0  0  0  0  0  0  0  0
    7.3020  -12.5498   28.0151 C   0  0  0  0  0  0  0  0  0  0  0  0
    7.8941  -13.3710   27.0510 C   0  0  0  0  0  0  0  0  0  0  0  0
    7.4553  -13.3311   25.7491 C   0  0  0  0  0  0  0  0  0  0  0  0
    8.0588  -14.1795   24.7201 C   0  0  0  0  0  0  0  0  0  0  0  0
    7.0667  -15.1943   24.1517 C   0  0  2  0  0  0  0  0  0  0  0  0
    7.0330  -16.3028   25.0828 N   0  0  0  0  0  0  0  0  0  0  0  0
    7.5863  -15.6565   22.8522 C   0  0  0  0  0  0  0  0  0  0  0  0
    8.2392  -16.7239   22.8040 O   0  0  0  0  0  0  0  0  0  0  0  0
    6.4355  -12.4776   25.4204 C   0  0  0  0  0  0  0  0  0  0  0  0
    5.8502  -11.6642   26.3784 C   0  0  0  0  0  0  0  0  0  0  0  0
    7.4181  -13.1910   16.8842 N   0  0  0  0  0  0  0  0  0  0  0  0
    8.1242  -14.4107   16.7706 C   0  0  0  0  0  0  0  0  0  0  0  0
    8.5149  -14.7997   15.6476 O   0  0  0  0  0  0  0  0  0  0  0  0
    8.4024  -15.2298   17.9815 C   0  0  0  0  0  0  0  0  0  0  0  0
    7.7725  -14.6125   19.2158 C   0  0  0  0  0  0  0  0  0  0  0  0
    7.9898  -15.4235   20.4369 C   0  0  2  0  0  0  0  0  0  0  0  0
    7.4019  -14.9757   21.6340 N   0  0  0  0  0  0  0  0  0  0  0  0
    9.4803  -15.6354   20.5665 C   0  0  0  0  0  0  0  0  0  0  0  0
   10.1012  -15.0771   21.5112 O   0  0  0  0  0  0  0  0  0  0  0  0
   11.3757  -19.3923   23.7367 N   0  0  0  0  0  0  0  0  0  0  0  0
   12.5730  -19.1979   23.0059 C   0  0  0  0  0  0  0  0  0  0  0  0
   13.6166  -19.7800   23.4624 O   0  0  0  0  0  0  0  0  0  0  0  0
   12.6813  -18.3928   21.7810 C   0  0  0  0  0  0  0  0  0  0  0  0
   11.4801  -17.6954   21.3086 C   0  0  0  0  0  0  0  0  0  0  0  0
   11.5421  -16.9741   20.0269 C   0  0  2  0  0  0  0  0  0  0  0  0
   10.2182  -16.4409   19.6651 N   0  0  0  0  0  0  0  0  0  0  0  0
   12.0796  -17.6775   18.8940 C   0  0  0  0  0  0  0  0  0  0  0  0
   11.3942  -18.1605   17.9368 O   0  0  0  0  0  0  0  0  0  0  0  0
   13.4723  -17.8911   18.7599 O   0  0  0  0  0  0  0  0  0  0  0  0
  2  1  1  0
  3  2  2  0
  4  3  1  0
  5 11  1  0
  5  4  2  0
  6  5  1  0
  7  6  1  0
  7  8  1  1
  9  7  1  0
  9 10  2  0
 11 12  2  0
 12  2  1  0
 13 14  1  0
 14 15  2  0
 16 17  1  0
 16 14  1  0
 18 19  1  0
 18 17  1  6
 19  9  1  0
 20 18  1  0
 21 20  2  0
 23 22  1  0
 23 24  2  0
 25 23  1  0
 26 25  1  0
 27 26  1  1
 27 28  1  0
 28 20  1  0
 29 27  1  0
 29 31  1  0
 30 29  2  0
M  END
$$$$
