HPM.pdb
     RDKit          3D

 26 27  0  0  1  0  0  0  0  0999 V2000
    9.2485  -18.0423   18.0011 N   0  0  0  0  0  0  0  0  0  0  0  0
    8.1999  -17.6587   18.8799 C   0  0  1  0  0  0  0  0  0  0  0  0
    7.5005  -18.9160   19.3643 C   0  0  0  0  0  0  0  0  0  0  0  0
    6.0639  -18.5844   19.5555 C   0  0  0  0  0  0  0  0  0  0  0  0
    5.0459  -18.6328   18.6187 C   0  0  0  0  0  0  0  0  0  0  0  0
    3.8842  -18.2604   19.1733 N   0  0  0  0  0  0  0  0  0  0  0  0
    4.1349  -17.9684   20.4676 C   0  0  0  0  0  0  0  0  0  0  0  0
    5.4585  -18.1659   20.6969 N   0  0  0  0  0  0  0  0  0  0  0  0
    8.5496  -16.7569   19.9757 C   0  0  0  0  0  0  0  0  0  0  0  0
    9.6121  -17.0613   20.6303 O   0  0  0  0  0  0  0  0  0  0  0  0
    7.8628  -15.5986   20.3975 N   0  0  0  0  0  0  0  0  0  0  0  0
    6.5730  -15.0738   20.0099 C   0  0  0  0  0  0  0  0  0  0  0  0
    6.8753  -13.5754   19.9132 C   0  0  0  0  0  0  0  0  0  0  0  0
    7.6664  -13.3493   21.1756 C   0  0  0  0  0  0  0  0  0  0  0  0
    8.3728  -14.6478   21.3768 C   0  0  1  0  0  0  0  0  0  0  0  0
    8.2298  -15.1829   22.7613 C   0  0  0  0  0  0  0  0  0  0  0  0
    7.4557  -16.1447   23.0223 O   0  0  0  0  0  0  0  0  0  0  0  0
   11.0456  -14.7736   30.1889 C   0  0  0  0  0  0  0  0  0  0  0  0
   10.3598  -13.8569   28.8201 S   0  0  0  0  0  0  0  0  0  0  0  0
    9.4589  -14.7832   27.6028 C   0  0  0  0  0  0  0  0  0  0  0  0
    9.5667  -14.3258   26.1864 C   0  0  0  0  0  0  0  0  0  0  0  0
    8.8125  -15.1549   25.2337 C   0  0  2  0  0  0  0  0  0  0  0  0
    8.9501  -14.6458   23.8547 N   0  0  0  0  0  0  0  0  0  0  0  0
    7.3546  -15.0500   25.4957 C   0  0  0  0  0  0  0  0  0  0  0  0
    6.5647  -13.9852   25.0319 O   0  0  0  0  0  0  0  0  0  0  0  0
    6.7516  -15.9136   26.1490 O   0  0  0  0  0  0  0  0  0  0  0  0
  2  1  1  1
  3  2  1  0
  4  3  1  0
  5  4  2  0
  6  7  1  0
  6  5  1  0
  7  8  2  0
  8  4  1  0
  9 11  1  0
  9  2  1  0
 10  9  2  0
 11 15  1  0
 12 13  1  0
 12 11  1  0
 13 14  1  0
 14 15  1  0
 15 16  1  1
 16 17  2  0
 19 18  1  0
 19 20  1  0
 20 21  1  0
 22 21  1  1
 22 23  1  0
 23 16  1  0
 24 22  1  0
 25 24  1  0
 26 24  2  0
M  END
$$$$
