HPM.pdb
     RDKit          3D

 26 27  0  0  1  0  0  0  0  0999 V2000
    6.3496  -19.0864   20.0784 N   0  0  0  0  0  0  0  0  0  0  0  0
    6.1317  -17.8008   20.6430 C   0  0  1  0  0  0  0  0  0  0  0  0
    5.2324  -17.9592   21.8556 C   0  0  0  0  0  0  0  0  0  0  0  0
    3.9135  -18.4488   21.3747 C   0  0  0  0  0  0  0  0  0  0  0  0
    3.4904  -18.6131   20.0671 C   0  0  0  0  0  0  0  0  0  0  0  0
    2.2340  -19.0783   20.0388 N   0  0  0  0  0  0  0  0  0  0  0  0
    1.8315  -19.2198   21.3200 C   0  0  0  0  0  0  0  0  0  0  0  0
    2.8527  -18.8371   22.1287 N   0  0  0  0  0  0  0  0  0  0  0  0
    7.3156  -16.9923   20.9276 C   0  0  0  0  0  0  0  0  0  0  0  0
    8.3843  -17.6481   21.2063 O   0  0  0  0  0  0  0  0  0  0  0  0
    7.4234  -15.5853   20.9327 N   0  0  0  0  0  0  0  0  0  0  0  0
    6.4065  -14.5616   20.8467 C   0  0  0  0  0  0  0  0  0  0  0  0
    7.0750  -13.5525   19.9083 C   0  0  0  0  0  0  0  0  0  0  0  0
    8.4644  -13.4825   20.4875 C   0  0  0  0  0  0  0  0  0  0  0  0
    8.6800  -14.8545   21.0322 C   0  0  1  0  0  0  0  0  0  0  0  0
    9.1845  -14.8539   22.4355 C   0  0  0  0  0  0  0  0  0  0  0  0
   10.2979  -14.3429   22.7382 O   0  0  0  0  0  0  0  0  0  0  0  0
    6.9695  -10.6904   27.7561 C   0  0  0  0  0  0  0  0  0  0  0  0
    6.5480  -12.2043   26.9106 S   0  0  0  0  0  0  0  0  0  0  0  0
    7.8938  -13.1713   26.2739 C   0  0  0  0  0  0  0  0  0  0  0  0
    7.5412  -14.4093   25.5188 C   0  0  0  0  0  0  0  0  0  0  0  0
    8.6984  -15.0901   24.9176 C   0  0  2  0  0  0  0  0  0  0  0  0
    8.4475  -15.4229   23.5013 N   0  0  0  0  0  0  0  0  0  0  0  0
    8.9065  -16.4168   25.5515 C   0  0  0  0  0  0  0  0  0  0  0  0
    9.6008  -16.5911   26.7600 O   0  0  0  0  0  0  0  0  0  0  0  0
    8.4693  -17.4553   25.0354 O   0  0  0  0  0  0  0  0  0  0  0  0
  2  1  1  1
  3  2  1  0
  4  3  1  0
  5  4  2  0
  6  7  1  0
  6  5  1  0
  7  8  2  0
  8  4  1  0
  9 11  1  0
  9  2  1  0
 10  9  2  0
 11 15  1  0
 12 13  1  0
 12 11  1  0
 13 14  1  0
 14 15  1  0
 15 16  1  1
 16 17  2  0
 19 18  1  0
 19 20  1  0
 20 21  1  0
 22 21  1  1
 22 23  1  0
 23 16  1  0
 24 22  1  0
 25 24  1  0
 26 24  2  0
M  END
$$$$
