HPM.pdb
     RDKit          3D

 26 27  0  0  1  0  0  0  0  0999 V2000
   13.3404  -14.0126   18.7267 N   0  0  0  0  0  0  0  0  0  0  0  0
   12.2070  -14.7996   19.0663 C   0  0  1  0  0  0  0  0  0  0  0  0
   12.6965  -16.1231   19.6258 C   0  0  0  0  0  0  0  0  0  0  0  0
   12.3953  -17.1744   18.6185 C   0  0  0  0  0  0  0  0  0  0  0  0
   11.8302  -17.0168   17.3648 C   0  0  0  0  0  0  0  0  0  0  0  0
   11.7192  -18.2030   16.7512 N   0  0  0  0  0  0  0  0  0  0  0  0
   12.2081  -19.1367   17.5954 C   0  0  0  0  0  0  0  0  0  0  0  0
   12.6179  -18.5097   18.7279 N   0  0  0  0  0  0  0  0  0  0  0  0
   11.1959  -14.1739   19.9161 C   0  0  0  0  0  0  0  0  0  0  0  0
   11.6429  -13.5442   20.9426 O   0  0  0  0  0  0  0  0  0  0  0  0
    9.7953  -14.1794   19.7441 N   0  0  0  0  0  0  0  0  0  0  0  0
    8.9785  -14.7144   18.6783 C   0  0  0  0  0  0  0  0  0  0  0  0
    7.9322  -13.6076   18.5173 C   0  0  0  0  0  0  0  0  0  0  0  0
    7.5753  -13.3241   19.9537 C   0  0  0  0  0  0  0  0  0  0  0  0
    8.8462  -13.5988   20.6851 C   0  0  1  0  0  0  0  0  0  0  0  0
    8.6599  -14.4874   21.8680 C   0  0  0  0  0  0  0  0  0  0  0  0
    9.3624  -15.5222   22.0355 O   0  0  0  0  0  0  0  0  0  0  0  0
    6.6017  -11.9976   29.1740 C   0  0  0  0  0  0  0  0  0  0  0  0
    6.2221  -12.1819   27.4402 S   0  0  0  0  0  0  0  0  0  0  0  0
    7.2681  -13.2641   26.4986 C   0  0  0  0  0  0  0  0  0  0  0  0
    7.0802  -13.2695   25.0182 C   0  0  0  0  0  0  0  0  0  0  0  0
    8.0168  -14.1493   24.3022 C   0  0  2  0  0  0  0  0  0  0  0  0
    7.6903  -14.2222   22.8642 N   0  0  0  0  0  0  0  0  0  0  0  0
    7.8639  -15.5532   24.7616 C   0  0  0  0  0  0  0  0  0  0  0  0
    8.6606  -16.1240   25.7678 O   0  0  0  0  0  0  0  0  0  0  0  0
    7.0094  -16.3045   24.2703 O   0  0  0  0  0  0  0  0  0  0  0  0
  2  1  1  1
  3  2  1  0
  4  3  1  0
  5  4  2  0
  6  7  1  0
  6  5  1  0
  7  8  2  0
  8  4  1  0
  9 11  1  0
  9  2  1  0
 10  9  2  0
 11 15  1  0
 12 13  1  0
 12 11  1  0
 13 14  1  0
 14 15  1  0
 15 16  1  1
 16 17  2  0
 19 18  1  0
 19 20  1  0
 20 21  1  0
 22 21  1  1
 22 23  1  0
 23 16  1  0
 24 22  1  0
 25 24  1  0
 26 24  2  0
M  END
$$$$
