HPM.pdb
     RDKit          3D

 26 27  0  0  1  0  0  0  0  0999 V2000
   10.9656  -17.7978   18.6911 N   0  0  0  0  0  0  0  0  0  0  0  0
    9.7270  -17.8765   19.3830 C   0  0  1  0  0  0  0  0  0  0  0  0
    9.5477  -19.3002   19.8784 C   0  0  0  0  0  0  0  0  0  0  0  0
    9.0531  -20.1133   18.7362 C   0  0  0  0  0  0  0  0  0  0  0  0
    7.7796  -20.1360   18.1943 C   0  0  0  0  0  0  0  0  0  0  0  0
    7.7241  -20.9987   17.1704 N   0  0  0  0  0  0  0  0  0  0  0  0
    8.9536  -21.5412   17.0381 C   0  0  0  0  0  0  0  0  0  0  0  0
    9.7582  -21.0021   17.9897 N   0  0  0  0  0  0  0  0  0  0  0  0
    9.4891  -16.8864   20.4315 C   0  0  0  0  0  0  0  0  0  0  0  0
   10.5198  -16.5411   21.1159 O   0  0  0  0  0  0  0  0  0  0  0  0
    8.2691  -16.2686   20.7793 N   0  0  0  0  0  0  0  0  0  0  0  0
    6.9245  -16.5028   20.3033 C   0  0  0  0  0  0  0  0  0  0  0  0
    6.3958  -15.0706   20.1801 C   0  0  0  0  0  0  0  0  0  0  0  0
    6.8656  -14.4672   21.4786 C   0  0  0  0  0  0  0  0  0  0  0  0
    8.1364  -15.1971   21.7578 C   0  0  1  0  0  0  0  0  0  0  0  0
    8.2091  -15.7343   23.1469 C   0  0  0  0  0  0  0  0  0  0  0  0
    8.1451  -16.9725   23.3818 O   0  0  0  0  0  0  0  0  0  0  0  0
    5.9864  -10.7186   27.3205 C   0  0  0  0  0  0  0  0  0  0  0  0
    7.2978  -11.9072   27.5474 S   0  0  0  0  0  0  0  0  0  0  0  0
    7.3839  -13.2424   26.3806 C   0  0  0  0  0  0  0  0  0  0  0  0
    8.4073  -14.2987   26.6334 C   0  0  0  0  0  0  0  0  0  0  0  0
    8.3788  -15.4008   25.6595 C   0  0  2  0  0  0  0  0  0  0  0  0
    8.3535  -14.8909   24.2742 N   0  0  0  0  0  0  0  0  0  0  0  0
    7.1065  -16.1586   25.7709 C   0  0  0  0  0  0  0  0  0  0  0  0
    6.9019  -17.1841   26.7087 O   0  0  0  0  0  0  0  0  0  0  0  0
    6.1443  -15.9187   25.0275 O   0  0  0  0  0  0  0  0  0  0  0  0
  2  1  1  1
  3  2  1  0
  4  3  1  0
  5  4  2  0
  6  7  1  0
  6  5  1  0
  7  8  2  0
  8  4  1  0
  9 11  1  0
  9  2  1  0
 10  9  2  0
 11 15  1  0
 12 13  1  0
 12 11  1  0
 13 14  1  0
 14 15  1  0
 15 16  1  1
 16 17  2  0
 19 18  1  0
 19 20  1  0
 20 21  1  0
 22 21  1  1
 22 23  1  0
 23 16  1  0
 24 22  1  0
 25 24  1  0
 26 24  2  0
M  END
$$$$
