HPM.pdb
     RDKit          3D

 26 27  0  0  1  0  0  0  0  0999 V2000
    7.3479  -16.9319   19.0032 N   0  0  0  0  0  0  0  0  0  0  0  0
    8.1476  -16.1128   19.8451 C   0  0  1  0  0  0  0  0  0  0  0  0
    7.5388  -14.7225   19.8748 C   0  0  0  0  0  0  0  0  0  0  0  0
    7.7273  -14.1218   18.5280 C   0  0  0  0  0  0  0  0  0  0  0  0
    8.4056  -12.9606   18.1999 C   0  0  0  0  0  0  0  0  0  0  0  0
    8.3561  -12.7498   16.8774 N   0  0  0  0  0  0  0  0  0  0  0  0
    7.6495  -13.7659   16.3372 C   0  0  0  0  0  0  0  0  0  0  0  0
    7.2691  -14.5971   17.3411 N   0  0  0  0  0  0  0  0  0  0  0  0
    8.4398  -16.6231   21.1832 C   0  0  0  0  0  0  0  0  0  0  0  0
    7.4235  -16.7860   21.9516 O   0  0  0  0  0  0  0  0  0  0  0  0
    9.6982  -16.9560   21.7280 N   0  0  0  0  0  0  0  0  0  0  0  0
   11.0121  -16.9713   21.1256 C   0  0  0  0  0  0  0  0  0  0  0  0
   11.5981  -18.2574   21.7157 C   0  0  0  0  0  0  0  0  0  0  0  0
   11.2052  -18.1260   23.1646 C   0  0  0  0  0  0  0  0  0  0  0  0
    9.9151  -17.3791   23.1053 C   0  0  1  0  0  0  0  0  0  0  0  0
    9.8720  -16.2121   24.0326 C   0  0  0  0  0  0  0  0  0  0  0  0
   10.4086  -15.1096   23.7342 O   0  0  0  0  0  0  0  0  0  0  0  0
    6.2667  -10.5913   27.2636 C   0  0  0  0  0  0  0  0  0  0  0  0
    6.3006  -12.1406   26.3788 S   0  0  0  0  0  0  0  0  0  0  0  0
    7.4622  -13.3610   26.9382 C   0  0  0  0  0  0  0  0  0  0  0  0
    7.7156  -14.5205   26.0337 C   0  0  0  0  0  0  0  0  0  0  0  0
    9.0628  -15.0961   26.1664 C   0  0  2  0  0  0  0  0  0  0  0  0
    9.2303  -16.2742   25.2925 N   0  0  0  0  0  0  0  0  0  0  0  0
    9.2586  -15.6488   27.5308 C   0  0  0  0  0  0  0  0  0  0  0  0
    9.3779  -17.0234   27.7937 O   0  0  0  0  0  0  0  0  0  0  0  0
    9.3278  -14.9100   28.5234 O   0  0  0  0  0  0  0  0  0  0  0  0
  2  1  1  1
  3  2  1  0
  4  3  1  0
  5  4  2  0
  6  7  1  0
  6  5  1  0
  7  8  2  0
  8  4  1  0
  9 11  1  0
  9  2  1  0
 10  9  2  0
 11 15  1  0
 12 13  1  0
 12 11  1  0
 13 14  1  0
 14 15  1  0
 15 16  1  1
 16 17  2  0
 19 18  1  0
 19 20  1  0
 20 21  1  0
 22 21  1  1
 22 23  1  0
 23 16  1  0
 24 22  1  0
 25 24  1  0
 26 24  2  0
M  END
$$$$
