HPM.pdb
     RDKit          3D

 26 27  0  0  1  0  0  0  0  0999 V2000
    6.5441  -19.0483   20.0871 N   0  0  0  0  0  0  0  0  0  0  0  0
    6.2986  -17.7561   20.6248 C   0  0  1  0  0  0  0  0  0  0  0  0
    5.4293  -17.9112   21.8595 C   0  0  0  0  0  0  0  0  0  0  0  0
    4.0667  -18.2928   21.4033 C   0  0  0  0  0  0  0  0  0  0  0  0
    3.6326  -18.5151   20.1079 C   0  0  0  0  0  0  0  0  0  0  0  0
    2.3332  -18.8429   20.1016 N   0  0  0  0  0  0  0  0  0  0  0  0
    1.9135  -18.8368   21.3851 C   0  0  0  0  0  0  0  0  0  0  0  0
    2.9676  -18.5027   22.1730 N   0  0  0  0  0  0  0  0  0  0  0  0
    7.4628  -16.9057   20.8649 C   0  0  0  0  0  0  0  0  0  0  0  0
    8.5663  -17.5228   21.0916 O   0  0  0  0  0  0  0  0  0  0  0  0
    7.5182  -15.4957   20.8773 N   0  0  0  0  0  0  0  0  0  0  0  0
    6.4705  -14.5098   20.7376 C   0  0  0  0  0  0  0  0  0  0  0  0
    7.1508  -13.4739   19.8377 C   0  0  0  0  0  0  0  0  0  0  0  0
    8.5035  -13.3547   20.4909 C   0  0  0  0  0  0  0  0  0  0  0  0
    8.7400  -14.7196   21.0451 C   0  0  1  0  0  0  0  0  0  0  0  0
    9.1679  -14.7047   22.4735 C   0  0  0  0  0  0  0  0  0  0  0  0
   10.2247  -14.1218   22.8416 O   0  0  0  0  0  0  0  0  0  0  0  0
    6.1256  -10.8136   27.4323 C   0  0  0  0  0  0  0  0  0  0  0  0
    5.9972  -12.4689   26.7786 S   0  0  0  0  0  0  0  0  0  0  0  0
    7.4794  -13.1908   26.1201 C   0  0  0  0  0  0  0  0  0  0  0  0
    7.3673  -14.5629   25.5442 C   0  0  0  0  0  0  0  0  0  0  0  0
    8.6093  -15.0532   24.9270 C   0  0  2  0  0  0  0  0  0  0  0  0
    8.4172  -15.3396   23.4915 N   0  0  0  0  0  0  0  0  0  0  0  0
    8.9845  -16.3732   25.4943 C   0  0  0  0  0  0  0  0  0  0  0  0
    8.9994  -17.5581   24.7402 O   0  0  0  0  0  0  0  0  0  0  0  0
    9.3094  -16.4965   26.6840 O   0  0  0  0  0  0  0  0  0  0  0  0
  2  1  1  1
  3  2  1  0
  4  3  1  0
  5  4  2  0
  6  7  1  0
  6  5  1  0
  7  8  2  0
  8  4  1  0
  9 11  1  0
  9  2  1  0
 10  9  2  0
 11 15  1  0
 12 13  1  0
 12 11  1  0
 13 14  1  0
 14 15  1  0
 15 16  1  1
 16 17  2  0
 19 18  1  0
 19 20  1  0
 20 21  1  0
 22 21  1  1
 22 23  1  0
 23 16  1  0
 24 22  1  0
 25 24  1  0
 26 24  2  0
M  END
$$$$
