HPM.pdb
     RDKit          3D

 26 27  0  0  1  0  0  0  0  0999 V2000
   10.8500  -17.9164   18.6176 N   0  0  0  0  0  0  0  0  0  0  0  0
    9.5801  -17.8445   19.2511 C   0  0  1  0  0  0  0  0  0  0  0  0
    9.1818  -19.2451   19.6800 C   0  0  0  0  0  0  0  0  0  0  0  0
    8.5950  -19.9266   18.4961 C   0  0  0  0  0  0  0  0  0  0  0  0
    7.2849  -19.8853   18.0512 C   0  0  0  0  0  0  0  0  0  0  0  0
    7.1442  -20.6305   16.9464 N   0  0  0  0  0  0  0  0  0  0  0  0
    8.3542  -21.1597   16.6648 C   0  0  0  0  0  0  0  0  0  0  0  0
    9.2329  -20.7308   17.6068 N   0  0  0  0  0  0  0  0  0  0  0  0
    9.4305  -16.8672   20.3276 C   0  0  0  0  0  0  0  0  0  0  0  0
   10.4165  -16.7854   21.1469 O   0  0  0  0  0  0  0  0  0  0  0  0
    8.3382  -16.0081   20.5724 N   0  0  0  0  0  0  0  0  0  0  0  0
    7.0280  -15.9522   19.9645 C   0  0  0  0  0  0  0  0  0  0  0  0
    6.8249  -14.4404   19.8271 C   0  0  0  0  0  0  0  0  0  0  0  0
    7.2800  -13.9548   21.1791 C   0  0  0  0  0  0  0  0  0  0  0  0
    8.3364  -14.9368   21.5602 C   0  0  1  0  0  0  0  0  0  0  0  0
    8.1579  -15.4832   22.9361 C   0  0  0  0  0  0  0  0  0  0  0  0
    7.6507  -16.6213   23.1355 O   0  0  0  0  0  0  0  0  0  0  0  0
    5.5941  -10.8290   27.0110 C   0  0  0  0  0  0  0  0  0  0  0  0
    6.9926  -11.9031   27.2842 S   0  0  0  0  0  0  0  0  0  0  0  0
    7.2085  -13.2477   26.1454 C   0  0  0  0  0  0  0  0  0  0  0  0
    8.2931  -14.2264   26.4499 C   0  0  0  0  0  0  0  0  0  0  0  0
    8.4189  -15.3042   25.4566 C   0  0  2  0  0  0  0  0  0  0  0  0
    8.5453  -14.7607   24.0898 N   0  0  0  0  0  0  0  0  0  0  0  0
    7.1679  -16.1021   25.3957 C   0  0  0  0  0  0  0  0  0  0  0  0
    6.9358  -17.2305   26.1993 O   0  0  0  0  0  0  0  0  0  0  0  0
    6.2497  -15.8057   24.6179 O   0  0  0  0  0  0  0  0  0  0  0  0
  2  1  1  1
  3  2  1  0
  4  3  1  0
  5  4  2  0
  6  7  1  0
  6  5  1  0
  7  8  2  0
  8  4  1  0
  9 11  1  0
  9  2  1  0
 10  9  2  0
 11 15  1  0
 12 13  1  0
 12 11  1  0
 13 14  1  0
 14 15  1  0
 15 16  1  1
 16 17  2  0
 19 18  1  0
 19 20  1  0
 20 21  1  0
 22 21  1  1
 22 23  1  0
 23 16  1  0
 24 22  1  0
 25 24  1  0
 26 24  2  0
M  END
$$$$
