HPM.pdb
     RDKit          3D

 26 27  0  0  1  0  0  0  0  0999 V2000
   12.3321  -14.0371   18.8669 N   0  0  0  0  0  0  0  0  0  0  0  0
   11.4294  -15.0328   19.3283 C   0  0  1  0  0  0  0  0  0  0  0  0
   12.1887  -16.3409   19.4581 C   0  0  0  0  0  0  0  0  0  0  0  0
   12.4564  -16.8420   18.0841 C   0  0  0  0  0  0  0  0  0  0  0  0
   11.5520  -17.0256   17.0525 C   0  0  0  0  0  0  0  0  0  0  0  0
   12.1766  -17.4933   15.9630 N   0  0  0  0  0  0  0  0  0  0  0  0
   13.4846  -17.6171   16.2747 C   0  0  0  0  0  0  0  0  0  0  0  0
   13.6518  -17.2210   17.5626 N   0  0  0  0  0  0  0  0  0  0  0  0
   10.6504  -14.7184   20.5244 C   0  0  0  0  0  0  0  0  0  0  0  0
   11.2948  -14.1395   21.4728 O   0  0  0  0  0  0  0  0  0  0  0  0
    9.2827  -14.9739   20.7596 N   0  0  0  0  0  0  0  0  0  0  0  0
    8.3022  -15.6703   19.9577 C   0  0  0  0  0  0  0  0  0  0  0  0
    7.0765  -14.7687   20.1320 C   0  0  0  0  0  0  0  0  0  0  0  0
    7.1012  -14.5165   21.6175 C   0  0  0  0  0  0  0  0  0  0  0  0
    8.5558  -14.5456   21.9476 C   0  0  1  0  0  0  0  0  0  0  0  0
    8.8741  -15.4234   23.1104 C   0  0  0  0  0  0  0  0  0  0  0  0
    9.3860  -16.5664   22.9560 O   0  0  0  0  0  0  0  0  0  0  0  0
   10.2190  -14.6055   30.9278 C   0  0  0  0  0  0  0  0  0  0  0  0
   10.0825  -13.8506   29.3167 S   0  0  0  0  0  0  0  0  0  0  0  0
   10.1326  -14.9363   27.9130 C   0  0  0  0  0  0  0  0  0  0  0  0
    9.3877  -14.5036   26.6944 C   0  0  0  0  0  0  0  0  0  0  0  0
    9.4535  -15.4654   25.5833 C   0  0  2  0  0  0  0  0  0  0  0  0
    8.6218  -15.0265   24.4452 N   0  0  0  0  0  0  0  0  0  0  0  0
    8.8402  -16.7585   25.9797 C   0  0  0  0  0  0  0  0  0  0  0  0
    9.5710  -17.8128   26.5518 O   0  0  0  0  0  0  0  0  0  0  0  0
    7.6302  -16.9750   25.8220 O   0  0  0  0  0  0  0  0  0  0  0  0
  2  1  1  1
  3  2  1  0
  4  3  1  0
  5  4  2  0
  6  7  1  0
  6  5  1  0
  7  8  2  0
  8  4  1  0
  9 11  1  0
  9  2  1  0
 10  9  2  0
 11 15  1  0
 12 13  1  0
 12 11  1  0
 13 14  1  0
 14 15  1  0
 15 16  1  1
 16 17  2  0
 19 18  1  0
 19 20  1  0
 20 21  1  0
 22 21  1  1
 22 23  1  0
 23 16  1  0
 24 22  1  0
 25 24  1  0
 26 24  2  0
M  END
$$$$
