HPM.pdb
     RDKit          3D

 26 27  0  0  1  0  0  0  0  0999 V2000
   10.8887  -17.2430   18.1943 N   0  0  0  0  0  0  0  0  0  0  0  0
    9.5847  -17.0741   18.7330 C   0  0  1  0  0  0  0  0  0  0  0  0
    9.0189  -18.4466   19.0502 C   0  0  0  0  0  0  0  0  0  0  0  0
    8.5576  -19.0478   17.7711 C   0  0  0  0  0  0  0  0  0  0  0  0
    8.5737  -18.4813   16.5082 C   0  0  0  0  0  0  0  0  0  0  0  0
    8.0741  -19.3378   15.6068 N   0  0  0  0  0  0  0  0  0  0  0  0
    7.7308  -20.4620   16.2715 C   0  0  0  0  0  0  0  0  0  0  0  0
    8.0254  -20.2834   17.5848 N   0  0  0  0  0  0  0  0  0  0  0  0
    9.4441  -16.1407   19.8489 C   0  0  0  0  0  0  0  0  0  0  0  0
   10.5178  -15.8978   20.5108 O   0  0  0  0  0  0  0  0  0  0  0  0
    8.2759  -15.4789   20.2831 N   0  0  0  0  0  0  0  0  0  0  0  0
    6.9135  -15.5613   19.8071 C   0  0  0  0  0  0  0  0  0  0  0  0
    6.4906  -14.0899   19.8510 C   0  0  0  0  0  0  0  0  0  0  0  0
    7.0150  -13.6696   21.1998 C   0  0  0  0  0  0  0  0  0  0  0  0
    8.2311  -14.5157   21.3755 C   0  0  1  0  0  0  0  0  0  0  0  0
    8.2764  -15.2074   22.6958 C   0  0  0  0  0  0  0  0  0  0  0  0
    8.1182  -16.4554   22.7948 O   0  0  0  0  0  0  0  0  0  0  0  0
    9.8546  -14.2708   30.4960 C   0  0  0  0  0  0  0  0  0  0  0  0
   10.0943  -13.7244   28.8143 S   0  0  0  0  0  0  0  0  0  0  0  0
    9.5445  -14.8170   27.5276 C   0  0  0  0  0  0  0  0  0  0  0  0
    9.2873  -14.2115   26.1881 C   0  0  0  0  0  0  0  0  0  0  0  0
    8.8634  -15.1821   25.1672 C   0  0  2  0  0  0  0  0  0  0  0  0
    8.4984  -14.5075   23.9057 N   0  0  0  0  0  0  0  0  0  0  0  0
    7.6023  -15.8498   25.5782 C   0  0  0  0  0  0  0  0  0  0  0  0
    7.5695  -17.0675   26.2776 O   0  0  0  0  0  0  0  0  0  0  0  0
    6.4955  -15.3558   25.3194 O   0  0  0  0  0  0  0  0  0  0  0  0
  2  1  1  1
  3  2  1  0
  4  3  1  0
  5  4  2  0
  6  7  1  0
  6  5  1  0
  7  8  2  0
  8  4  1  0
  9 11  1  0
  9  2  1  0
 10  9  2  0
 11 15  1  0
 12 13  1  0
 12 11  1  0
 13 14  1  0
 14 15  1  0
 15 16  1  1
 16 17  2  0
 19 18  1  0
 19 20  1  0
 20 21  1  0
 22 21  1  1
 22 23  1  0
 23 16  1  0
 24 22  1  0
 25 24  1  0
 26 24  2  0
M  END
$$$$
