HPM.pdb
     RDKit          3D

 26 27  0  0  1  0  0  0  0  0999 V2000
    9.8141  -17.9448   17.9115 N   0  0  0  0  0  0  0  0  0  0  0  0
    8.7169  -17.2423   18.4789 C   0  0  1  0  0  0  0  0  0  0  0  0
    7.6728  -18.2568   18.9091 C   0  0  0  0  0  0  0  0  0  0  0  0
    7.2350  -18.9923   17.6934 C   0  0  0  0  0  0  0  0  0  0  0  0
    6.0402  -18.8677   17.0058 C   0  0  0  0  0  0  0  0  0  0  0  0
    6.0166  -19.7021   15.9575 N   0  0  0  0  0  0  0  0  0  0  0  0
    7.1887  -20.3727   15.9543 C   0  0  0  0  0  0  0  0  0  0  0  0
    7.9264  -19.9399   17.0088 N   0  0  0  0  0  0  0  0  0  0  0  0
    9.0219  -16.2746   19.5310 C   0  0  0  0  0  0  0  0  0  0  0  0
   10.0060  -16.5780   20.2988 O   0  0  0  0  0  0  0  0  0  0  0  0
    8.3676  -15.0540   19.8019 N   0  0  0  0  0  0  0  0  0  0  0  0
    7.2607  -14.4090   19.1326 C   0  0  0  0  0  0  0  0  0  0  0  0
    7.7173  -12.9470   19.1380 C   0  0  0  0  0  0  0  0  0  0  0  0
    8.2069  -12.7933   20.5549 C   0  0  0  0  0  0  0  0  0  0  0  0
    8.7203  -14.1530   20.8914 C   0  0  1  0  0  0  0  0  0  0  0  0
    8.2057  -14.6667   22.1933 C   0  0  0  0  0  0  0  0  0  0  0  0
    7.0189  -15.0761   22.3205 O   0  0  0  0  0  0  0  0  0  0  0  0
    5.9447  -11.2494   27.6136 C   0  0  0  0  0  0  0  0  0  0  0  0
    7.1581  -12.3121   26.8503 S   0  0  0  0  0  0  0  0  0  0  0  0
    6.5564  -13.7888   26.0698 C   0  0  0  0  0  0  0  0  0  0  0  0
    7.0950  -14.1070   24.7149 C   0  0  0  0  0  0  0  0  0  0  0  0
    8.5590  -14.2446   24.6732 C   0  0  2  0  0  0  0  0  0  0  0  0
    9.0145  -14.7242   23.3532 N   0  0  0  0  0  0  0  0  0  0  0  0
    9.0061  -15.3143   25.6012 C   0  0  0  0  0  0  0  0  0  0  0  0
    8.9042  -15.2121   26.9984 O   0  0  0  0  0  0  0  0  0  0  0  0
    9.5004  -16.3700   25.1803 O   0  0  0  0  0  0  0  0  0  0  0  0
  2  1  1  1
  3  2  1  0
  4  3  1  0
  5  4  2  0
  6  7  1  0
  6  5  1  0
  7  8  2  0
  8  4  1  0
  9 11  1  0
  9  2  1  0
 10  9  2  0
 11 15  1  0
 12 13  1  0
 12 11  1  0
 13 14  1  0
 14 15  1  0
 15 16  1  1
 16 17  2  0
 19 18  1  0
 19 20  1  0
 20 21  1  0
 22 21  1  6
 22 23  1  0
 23 16  1  0
 24 22  1  0
 25 24  1  0
 26 24  2  0
M  END
$$$$
