HPM.pdb
     RDKit          3D

 26 27  0  0  1  0  0  0  0  0999 V2000
   10.9990  -14.8463   18.8235 N   0  0  0  0  0  0  0  0  0  0  0  0
    9.7390  -14.8018   19.4790 C   0  0  1  0  0  0  0  0  0  0  0  0
    8.8163  -15.8018   18.8059 C   0  0  0  0  0  0  0  0  0  0  0  0
    8.4910  -15.2728   17.4550 C   0  0  0  0  0  0  0  0  0  0  0  0
    8.9561  -14.1133   16.8589 C   0  0  0  0  0  0  0  0  0  0  0  0
    8.4349  -13.9789   15.6317 N   0  0  0  0  0  0  0  0  0  0  0  0
    7.6313  -15.0433   15.4202 C   0  0  0  0  0  0  0  0  0  0  0  0
    7.6672  -15.8270   16.5284 N   0  0  0  0  0  0  0  0  0  0  0  0
    9.7434  -14.9378   20.9342 C   0  0  0  0  0  0  0  0  0  0  0  0
   10.8459  -15.3454   21.4524 O   0  0  0  0  0  0  0  0  0  0  0  0
    8.6868  -14.6763   21.8322 N   0  0  0  0  0  0  0  0  0  0  0  0
    7.2963  -14.3666   21.5874 C   0  0  0  0  0  0  0  0  0  0  0  0
    7.0447  -13.2718   22.6284 C   0  0  0  0  0  0  0  0  0  0  0  0
    7.6976  -13.8663   23.8494 C   0  0  0  0  0  0  0  0  0  0  0  0
    8.8199  -14.6698   23.2832 C   0  0  1  0  0  0  0  0  0  0  0  0
    8.8712  -16.0608   23.8182 C   0  0  0  0  0  0  0  0  0  0  0  0
    7.8388  -16.7835   23.8827 O   0  0  0  0  0  0  0  0  0  0  0  0
   10.5932  -12.8886   28.9332 C   0  0  0  0  0  0  0  0  0  0  0  0
    9.5748  -14.3538   28.9461 S   0  0  0  0  0  0  0  0  0  0  0  0
   10.1174  -15.7191   27.9496 C   0  0  0  0  0  0  0  0  0  0  0  0
    9.8821  -15.6209   26.4792 C   0  0  0  0  0  0  0  0  0  0  0  0
   10.4104  -16.7607   25.7140 C   0  0  2  0  0  0  0  0  0  0  0  0
   10.0738  -16.6460   24.2811 N   0  0  0  0  0  0  0  0  0  0  0  0
    9.7375  -18.0187   26.1262 C   0  0  0  0  0  0  0  0  0  0  0  0
   10.3893  -19.0442   26.8308 O   0  0  0  0  0  0  0  0  0  0  0  0
    8.5447  -18.2295   25.8637 O   0  0  0  0  0  0  0  0  0  0  0  0
  2  1  1  6
  3  2  1  0
  4  3  1  0
  5  4  2  0
  6  7  1  0
  6  5  1  0
  7  8  2  0
  8  4  1  0
  9 11  1  0
  9  2  1  0
 10  9  2  0
 11 15  1  0
 12 13  1  0
 12 11  1  0
 13 14  1  0
 14 15  1  0
 15 16  1  1
 16 17  2  0
 19 18  1  0
 19 20  1  0
 20 21  1  0
 22 21  1  1
 22 23  1  0
 23 16  1  0
 24 22  1  0
 25 24  1  0
 26 24  2  0
M  END
$$$$
