HPM.pdb
     RDKit          3D

 26 27  0  0  1  0  0  0  0  0999 V2000
   11.1233  -17.7537   18.3885 N   0  0  0  0  0  0  0  0  0  0  0  0
   10.4161  -18.2570   19.5136 C   0  0  1  0  0  0  0  0  0  0  0  0
   11.4291  -18.7422   20.5349 C   0  0  0  0  0  0  0  0  0  0  0  0
   11.9542  -20.0493   20.0592 C   0  0  0  0  0  0  0  0  0  0  0  0
   11.2486  -21.0954   19.4904 C   0  0  0  0  0  0  0  0  0  0  0  0
   12.0751  -22.1068   19.1911 N   0  0  0  0  0  0  0  0  0  0  0  0
   13.3180  -21.7295   19.5604 C   0  0  0  0  0  0  0  0  0  0  0  0
   13.2418  -20.4804   20.0869 N   0  0  0  0  0  0  0  0  0  0  0  0
    9.4021  -17.3853   20.1036 C   0  0  0  0  0  0  0  0  0  0  0  0
    9.6654  -16.1283   20.0793 O   0  0  0  0  0  0  0  0  0  0  0  0
    8.1756  -17.7582   20.6934 N   0  0  0  0  0  0  0  0  0  0  0  0
    7.5733  -19.0598   20.8733 C   0  0  0  0  0  0  0  0  0  0  0  0
    6.1089  -18.7621   20.5377 C   0  0  0  0  0  0  0  0  0  0  0  0
    5.8826  -17.4830   21.3017 C   0  0  0  0  0  0  0  0  0  0  0  0
    7.2199  -16.8225   21.2715 C   0  0  1  0  0  0  0  0  0  0  0  0
    7.6745  -16.3609   22.6147 C   0  0  0  0  0  0  0  0  0  0  0  0
    8.5405  -16.9980   23.2752 O   0  0  0  0  0  0  0  0  0  0  0  0
    7.0685  -10.7862   28.3809 C   0  0  0  0  0  0  0  0  0  0  0  0
    6.6069  -11.3994   26.7700 S   0  0  0  0  0  0  0  0  0  0  0  0
    7.2703  -12.9741   26.2885 C   0  0  0  0  0  0  0  0  0  0  0  0
    6.9241  -13.4666   24.9230 C   0  0  0  0  0  0  0  0  0  0  0  0
    7.5705  -14.7392   24.5672 C   0  0  2  0  0  0  0  0  0  0  0  0
    7.1635  -15.1887   23.2211 N   0  0  0  0  0  0  0  0  0  0  0  0
    7.0914  -15.8299   25.4539 C   0  0  0  0  0  0  0  0  0  0  0  0
    7.8121  -16.2861   26.5699 O   0  0  0  0  0  0  0  0  0  0  0  0
    6.0114  -16.4022   25.2488 O   0  0  0  0  0  0  0  0  0  0  0  0
  2  1  1  6
  3  2  1  0
  4  3  1  0
  5  4  2  0
  6  7  1  0
  6  5  1  0
  7  8  2  0
  8  4  1  0
  9 11  1  0
  9  2  1  0
 10  9  2  0
 11 15  1  0
 12 13  1  0
 12 11  1  0
 13 14  1  0
 14 15  1  0
 15 16  1  1
 16 17  2  0
 19 18  1  0
 19 20  1  0
 20 21  1  0
 22 21  1  1
 22 23  1  0
 23 16  1  0
 24 22  1  0
 25 24  1  0
 26 24  2  0
M  END
$$$$
