HPM.pdb
     RDKit          3D

 26 27  0  0  1  0  0  0  0  0999 V2000
    9.7173  -14.4353   21.6853 N   0  0  0  0  0  0  0  0  0  0  0  0
    8.5975  -14.0088   22.4491 C   0  0  1  0  0  0  0  0  0  0  0  0
    7.3350  -14.3930   21.6988 C   0  0  0  0  0  0  0  0  0  0  0  0
    7.4820  -13.9138   20.2991 C   0  0  0  0  0  0  0  0  0  0  0  0
    7.9442  -12.6840   19.8632 C   0  0  0  0  0  0  0  0  0  0  0  0
    7.9308  -12.6290   18.5244 N   0  0  0  0  0  0  0  0  0  0  0  0
    7.4626  -13.8153   18.0805 C   0  0  0  0  0  0  0  0  0  0  0  0
    7.1911  -14.5932   19.1597 N   0  0  0  0  0  0  0  0  0  0  0  0
    8.5585  -14.4151   23.8525 C   0  0  0  0  0  0  0  0  0  0  0  0
    9.4452  -15.2734   24.2089 O   0  0  0  0  0  0  0  0  0  0  0  0
    7.6678  -13.9792   24.8564 N   0  0  0  0  0  0  0  0  0  0  0  0
    6.4148  -13.2651   24.7597 C   0  0  0  0  0  0  0  0  0  0  0  0
    6.5408  -12.2785   25.9244 C   0  0  0  0  0  0  0  0  0  0  0  0
    7.0549  -13.1759   27.0204 C   0  0  0  0  0  0  0  0  0  0  0  0
    7.8690  -14.1866   26.2846 C   0  0  1  0  0  0  0  0  0  0  0  0
    7.5445  -15.5906   26.6684 C   0  0  0  0  0  0  0  0  0  0  0  0
    6.3729  -16.0491   26.5715 O   0  0  0  0  0  0  0  0  0  0  0  0
    8.3974  -19.4430   22.4884 C   0  0  0  0  0  0  0  0  0  0  0  0
    8.7240  -19.8168   24.2023 S   0  0  0  0  0  0  0  0  0  0  0  0
    8.2150  -18.6093   25.4000 C   0  0  0  0  0  0  0  0  0  0  0  0
    8.5384  -18.8936   26.8289 C   0  0  0  0  0  0  0  0  0  0  0  0
    8.1946  -17.7967   27.7469 C   0  0  2  0  0  0  0  0  0  0  0  0
    8.5264  -16.4833   27.1600 N   0  0  0  0  0  0  0  0  0  0  0  0
    9.0430  -17.8542   28.9644 C   0  0  0  0  0  0  0  0  0  0  0  0
    8.8827  -18.8236   29.9682 O   0  0  0  0  0  0  0  0  0  0  0  0
    9.9516  -17.0340   29.1582 O   0  0  0  0  0  0  0  0  0  0  0  0
  2  1  1  6
  3  2  1  0
  4  3  1  0
  5  4  2  0
  6  7  1  0
  6  5  1  0
  7  8  2  0
  8  4  1  0
  9 11  1  0
  9  2  1  0
 10  9  2  0
 11 15  1  0
 12 13  1  0
 12 11  1  0
 13 14  1  0
 14 15  1  0
 15 16  1  1
 16 17  2  0
 19 18  1  0
 19 20  1  0
 20 21  1  0
 22 21  1  6
 22 23  1  0
 23 16  1  0
 24 22  1  0
 25 24  1  0
 26 24  2  0
M  END
$$$$
