AHY.pdb
     RDKit          3D

 28 29  0  0  1  0  0  0  0  0999 V2000
    8.0810  -12.1047   20.6072 C   0  0  0  0  0  0  0  0  0  0  0  0
    8.3321  -13.2899   19.7291 C   0  0  2  0  0  0  0  0  0  0  0  0
    7.4373  -13.3171   18.5907 N   0  0  0  0  0  0  0  0  0  0  0  0
    8.2103  -14.5765   20.4766 C   0  0  0  0  0  0  0  0  0  0  0  0
    7.1418  -15.2503   20.4552 O   0  0  0  0  0  0  0  0  0  0  0  0
    9.2956  -15.0411   21.2105 N   0  0  0  0  0  0  0  0  0  0  0  0
    9.3218  -16.4093   21.8497 C   0  0  1  0  0  0  0  0  0  0  0  0
   10.5712  -16.9889   21.2820 C   0  0  0  0  0  0  0  0  0  0  0  0
   11.0002  -18.3059   21.6942 C   0  0  0  0  0  0  0  0  0  0  0  0
   12.1193  -18.8219   22.2407 C   0  0  0  0  0  0  0  0  0  0  0  0
   11.9686  -20.1487   22.4984 N   0  0  0  0  0  0  0  0  0  0  0  0
   10.7416  -20.4422   22.1045 C   0  0  0  0  0  0  0  0  0  0  0  0
   10.1322  -19.3769   21.6211 N   0  0  0  0  0  0  0  0  0  0  0  0
    9.5671  -16.0251   23.2924 C   0  0  0  0  0  0  0  0  0  0  0  0
   10.4989  -15.1771   23.5661 O   0  0  0  0  0  0  0  0  0  0  0  0
    6.1930  -10.6784   25.9834 O   0  0  0  0  0  0  0  0  0  0  0  0
    6.6978  -11.9599   26.1662 C   0  0  0  0  0  0  0  0  0  0  0  0
    5.9720  -13.0605   25.7638 C   0  0  0  0  0  0  0  0  0  0  0  0
    6.4640  -14.3379   25.9406 C   0  0  0  0  0  0  0  0  0  0  0  0
    7.6915  -14.5812   26.5214 C   0  0  0  0  0  0  0  0  0  0  0  0
    8.1970  -15.9662   26.6993 C   0  0  0  0  0  0  0  0  0  0  0  0
    9.3481  -16.2695   25.7724 C   0  0  2  0  0  0  0  0  0  0  0  0
    8.8629  -16.5064   24.4028 N   0  0  0  0  0  0  0  0  0  0  0  0
   10.1136  -17.4598   26.2195 C   0  0  0  0  0  0  0  0  0  0  0  0
    9.9862  -18.5794   25.6670 O   0  0  0  0  0  0  0  0  0  0  0  0
    8.4139  -13.4721   26.9226 C   0  0  0  0  0  0  0  0  0  0  0  0
    7.9271  -12.1849   26.7488 C   0  0  0  0  0  0  0  0  0  0  0  0
   10.9979  -17.3314   27.2812 O   0  0  0  0  0  0  0  0  0  0  0  0
  2  1  1  1
  2  4  1  0
  3  2  1  0
  4  6  1  0
  5  4  2  0
  6  7  1  0
  7  8  1  6
  9  8  1  0
 10  9  2  0
 11 10  1  0
 12 11  1  0
 12 13  2  0
 13  9  1  0
 14  7  1  0
 14 15  2  0
 16 17  1  0
 17 18  2  0
 17 27  1  0
 18 19  1  0
 19 20  2  0
 20 21  1  0
 22 21  1  1
 22 23  1  0
 22 24  1  0
 23 14  1  0
 24 25  2  0
 24 28  1  0
 26 20  1  0
 27 26  2  0
M  END
$$$$
