AHY.pdb
     RDKit          3D

 28 29  0  0  1  0  0  0  0  0999 V2000
    8.3191  -12.3129   19.3656 C   0  0  0  0  0  0  0  0  0  0  0  0
    8.4602  -13.5060   18.4738 C   0  0  2  0  0  0  0  0  0  0  0  0
    7.4189  -13.5543   17.4684 N   0  0  0  0  0  0  0  0  0  0  0  0
    8.4547  -14.7848   19.2441 C   0  0  0  0  0  0  0  0  0  0  0  0
    7.4244  -15.5139   19.2998 O   0  0  0  0  0  0  0  0  0  0  0  0
    9.6074  -15.1799   19.9131 N   0  0  0  0  0  0  0  0  0  0  0  0
    9.6939  -16.4676   20.6976 C   0  0  1  0  0  0  0  0  0  0  0  0
   10.7854  -17.1882   19.9845 C   0  0  0  0  0  0  0  0  0  0  0  0
   11.2654  -18.4500   20.5002 C   0  0  0  0  0  0  0  0  0  0  0  0
   10.9630  -19.2310   21.5565 C   0  0  0  0  0  0  0  0  0  0  0  0
   11.6911  -20.3795   21.5376 N   0  0  0  0  0  0  0  0  0  0  0  0
   12.4446  -20.2956   20.4551 C   0  0  0  0  0  0  0  0  0  0  0  0
   12.2230  -19.1665   19.8105 N   0  0  0  0  0  0  0  0  0  0  0  0
   10.2261  -15.9434   22.0133 C   0  0  0  0  0  0  0  0  0  0  0  0
   11.0120  -14.9213   22.0096 O   0  0  0  0  0  0  0  0  0  0  0  0
    6.2139  -11.3440   27.9391 O   0  0  0  0  0  0  0  0  0  0  0  0
    6.7248  -12.1840   26.9573 C   0  0  0  0  0  0  0  0  0  0  0  0
    5.8943  -13.0472   26.2752 C   0  0  0  0  0  0  0  0  0  0  0  0
    6.3913  -13.8859   25.2982 C   0  0  0  0  0  0  0  0  0  0  0  0
    7.7272  -13.9070   24.9545 C   0  0  0  0  0  0  0  0  0  0  0  0
    8.2353  -14.8195   23.8988 C   0  0  0  0  0  0  0  0  0  0  0  0
    9.4369  -15.6048   24.3629 C   0  0  2  0  0  0  0  0  0  0  0  0
    9.9436  -16.4656   23.2814 N   0  0  0  0  0  0  0  0  0  0  0  0
    9.1174  -16.4537   25.5377 C   0  0  0  0  0  0  0  0  0  0  0  0
    8.3399  -17.4356   25.4578 O   0  0  0  0  0  0  0  0  0  0  0  0
    8.5543  -13.0383   25.6432 C   0  0  0  0  0  0  0  0  0  0  0  0
    8.0634  -12.1921   26.6265 C   0  0  0  0  0  0  0  0  0  0  0  0
    9.6962  -16.1530   26.7626 O   0  0  0  0  0  0  0  0  0  0  0  0
  2  1  1  1
  2  4  1  0
  3  2  1  0
  4  6  1  0
  5  4  2  0
  6  7  1  0
  7  8  1  6
  9  8  1  0
 10  9  2  0
 11 10  1  0
 12 11  1  0
 12 13  2  0
 13  9  1  0
 14  7  1  0
 14 15  2  0
 16 17  1  0
 17 18  2  0
 17 27  1  0
 18 19  1  0
 19 20  2  0
 20 21  1  0
 22 21  1  6
 22 23  1  0
 22 24  1  0
 23 14  1  0
 24 25  2  0
 24 28  1  0
 26 20  1  0
 27 26  2  0
M  END
$$$$
