AHY.pdb
     RDKit          3D

 28 29  0  0  1  0  0  0  0  0999 V2000
    8.3660  -12.1294   20.0141 C   0  0  0  0  0  0  0  0  0  0  0  0
    8.5839  -13.3517   19.1790 C   0  0  2  0  0  0  0  0  0  0  0  0
    7.8190  -13.3088   17.9500 N   0  0  0  0  0  0  0  0  0  0  0  0
    8.2477  -14.6034   19.9199 C   0  0  0  0  0  0  0  0  0  0  0  0
    7.1930  -15.2523   19.6691 O   0  0  0  0  0  0  0  0  0  0  0  0
    9.1136  -15.0630   20.9055 N   0  0  0  0  0  0  0  0  0  0  0  0
    8.9874  -16.4337   21.5271 C   0  0  1  0  0  0  0  0  0  0  0  0
   10.1247  -17.1614   20.8979 C   0  0  0  0  0  0  0  0  0  0  0  0
   10.3578  -18.5484   21.2302 C   0  0  0  0  0  0  0  0  0  0  0  0
   11.4142  -19.2662   21.6615 C   0  0  0  0  0  0  0  0  0  0  0  0
   11.0636  -20.5602   21.8899 N   0  0  0  0  0  0  0  0  0  0  0  0
    9.7772  -20.6290   21.5946 C   0  0  0  0  0  0  0  0  0  0  0  0
    9.3189  -19.4572   21.1992 N   0  0  0  0  0  0  0  0  0  0  0  0
    9.3420  -16.1096   22.9618 C   0  0  0  0  0  0  0  0  0  0  0  0
   10.3455  -15.3362   23.2007 O   0  0  0  0  0  0  0  0  0  0  0  0
    6.0382  -10.6589   25.7915 O   0  0  0  0  0  0  0  0  0  0  0  0
    6.5380  -11.9470   25.9387 C   0  0  0  0  0  0  0  0  0  0  0  0
    5.6980  -13.0364   25.8510 C   0  0  0  0  0  0  0  0  0  0  0  0
    6.1840  -14.3201   25.9956 C   0  0  0  0  0  0  0  0  0  0  0  0
    7.5178  -14.5811   26.2325 C   0  0  0  0  0  0  0  0  0  0  0  0
    8.0140  -15.9725   26.3837 C   0  0  0  0  0  0  0  0  0  0  0  0
    9.1641  -16.2653   25.4523 C   0  0  2  0  0  0  0  0  0  0  0  0
    8.6709  -16.5735   24.0998 N   0  0  0  0  0  0  0  0  0  0  0  0
    9.9826  -17.4063   25.9327 C   0  0  0  0  0  0  0  0  0  0  0  0
    9.9736  -18.5213   25.3567 O   0  0  0  0  0  0  0  0  0  0  0  0
    8.3545  -13.4831   26.3191 C   0  0  0  0  0  0  0  0  0  0  0  0
    7.8746  -12.1897   26.1750 C   0  0  0  0  0  0  0  0  0  0  0  0
   10.7829  -17.2356   27.0534 O   0  0  0  0  0  0  0  0  0  0  0  0
  2  1  1  1
  2  4  1  0
  3  2  1  0
  4  6  1  0
  5  4  2  0
  6  7  1  0
  7  8  1  6
  9  8  1  0
 10  9  2  0
 11 10  1  0
 12 11  1  0
 12 13  2  0
 13  9  1  0
 14  7  1  0
 14 15  2  0
 16 17  1  0
 17 18  2  0
 17 27  1  0
 18 19  1  0
 19 20  2  0
 20 21  1  0
 22 21  1  1
 22 23  1  0
 22 24  1  0
 23 14  1  0
 24 25  2  0
 24 28  1  0
 26 20  1  0
 27 26  2  0
M  END
$$$$
