AHY.pdb
     RDKit          3D

 28 29  0  0  1  0  0  0  0  0999 V2000
   11.8974  -17.5175   18.2725 C   0  0  0  0  0  0  0  0  0  0  0  0
   11.1611  -18.0996   19.4377 C   0  0  2  0  0  0  0  0  0  0  0  0
    9.9985  -18.8546   19.0187 N   0  0  0  0  0  0  0  0  0  0  0  0
   10.7372  -17.0515   20.4127 C   0  0  0  0  0  0  0  0  0  0  0  0
   11.5727  -16.2540   20.9247 O   0  0  0  0  0  0  0  0  0  0  0  0
    9.3957  -16.9524   20.7632 N   0  0  0  0  0  0  0  0  0  0  0  0
    8.8698  -15.8717   21.6778 C   0  0  1  0  0  0  0  0  0  0  0  0
    7.6625  -15.4061   20.9397 C   0  0  0  0  0  0  0  0  0  0  0  0
    7.8103  -14.4877   19.8337 C   0  0  0  0  0  0  0  0  0  0  0  0
    7.5716  -14.5377   18.5079 C   0  0  0  0  0  0  0  0  0  0  0  0
    7.8298  -13.3385   17.9207 N   0  0  0  0  0  0  0  0  0  0  0  0
    8.2293  -12.5495   18.9028 C   0  0  0  0  0  0  0  0  0  0  0  0
    8.2319  -13.1918   20.0548 N   0  0  0  0  0  0  0  0  0  0  0  0
    8.4332  -16.7107   22.8587 C   0  0  0  0  0  0  0  0  0  0  0  0
    8.9852  -17.8600   23.0500 O   0  0  0  0  0  0  0  0  0  0  0  0
   10.8081  -14.6498   30.6871 O   0  0  0  0  0  0  0  0  0  0  0  0
   10.3159  -14.7316   29.3903 C   0  0  0  0  0  0  0  0  0  0  0  0
   10.7554  -15.7214   28.5376 C   0  0  0  0  0  0  0  0  0  0  0  0
   10.2731  -15.8118   27.2475 C   0  0  0  0  0  0  0  0  0  0  0  0
    9.3380  -14.9298   26.7466 C   0  0  0  0  0  0  0  0  0  0  0  0
    8.8357  -15.0504   25.3543 C   0  0  0  0  0  0  0  0  0  0  0  0
    7.8138  -16.1517   25.2171 C   0  0  2  0  0  0  0  0  0  0  0  0
    7.4609  -16.3589   23.8029 N   0  0  0  0  0  0  0  0  0  0  0  0
    6.5758  -15.8496   25.9779 C   0  0  0  0  0  0  0  0  0  0  0  0
    6.1364  -16.6186   26.8670 O   0  0  0  0  0  0  0  0  0  0  0  0
    8.9017  -13.9396   27.6080 C   0  0  0  0  0  0  0  0  0  0  0  0
    9.3810  -13.8413   28.9059 C   0  0  0  0  0  0  0  0  0  0  0  0
    5.8823  -14.6806   25.6980 O   0  0  0  0  0  0  0  0  0  0  0  0
  2  1  1  6
  2  4  1  0
  3  2  1  0
  4  6  1  0
  5  4  2  0
  6  7  1  0
  7  8  1  6
  9  8  1  0
 10  9  2  0
 11 10  1  0
 12 11  1  0
 12 13  2  0
 13  9  1  0
 14  7  1  0
 14 15  2  0
 16 17  1  0
 17 18  2  0
 17 27  1  0
 18 19  1  0
 19 20  2  0
 20 21  1  0
 22 21  1  6
 22 23  1  0
 22 24  1  0
 23 14  1  0
 24 25  2  0
 24 28  1  0
 26 20  1  0
 27 26  2  0
M  END
$$$$
