AHY.pdb
     RDKit          3D

 28 29  0  0  1  0  0  0  0  0999 V2000
    7.1046  -12.8945   19.1839 C   0  0  0  0  0  0  0  0  0  0  0  0
    8.1374  -13.0438   20.2563 C   0  0  2  0  0  0  0  0  0  0  0  0
    9.4800  -13.0616   19.7136 N   0  0  0  0  0  0  0  0  0  0  0  0
    7.9240  -14.2760   21.0718 C   0  0  0  0  0  0  0  0  0  0  0  0
    6.7722  -14.6091   21.4700 O   0  0  0  0  0  0  0  0  0  0  0  0
    9.0159  -15.0717   21.3988 N   0  0  0  0  0  0  0  0  0  0  0  0
    8.8695  -16.4494   22.0002 C   0  0  1  0  0  0  0  0  0  0  0  0
    9.9746  -17.1937   21.3339 C   0  0  0  0  0  0  0  0  0  0  0  0
   10.2717  -18.5482   21.7406 C   0  0  0  0  0  0  0  0  0  0  0  0
   11.1070  -19.1202   22.6308 C   0  0  0  0  0  0  0  0  0  0  0  0
   10.9345  -20.4688   22.6640 N   0  0  0  0  0  0  0  0  0  0  0  0
    9.9811  -20.7191   21.7836 C   0  0  0  0  0  0  0  0  0  0  0  0
    9.5598  -19.6070   21.2131 N   0  0  0  0  0  0  0  0  0  0  0  0
    9.2633  -16.1588   23.4318 C   0  0  0  0  0  0  0  0  0  0  0  0
   10.2267  -15.3335   23.6623 O   0  0  0  0  0  0  0  0  0  0  0  0
    6.2531  -10.6886   25.9170 O   0  0  0  0  0  0  0  0  0  0  0  0
    6.6739  -11.9947   26.1349 C   0  0  0  0  0  0  0  0  0  0  0  0
    7.8911  -12.2461   26.7309 C   0  0  0  0  0  0  0  0  0  0  0  0
    8.3188  -13.5396   26.9521 C   0  0  0  0  0  0  0  0  0  0  0  0
    7.5633  -14.6372   26.5944 C   0  0  0  0  0  0  0  0  0  0  0  0
    8.0476  -16.0185   26.8444 C   0  0  0  0  0  0  0  0  0  0  0  0
    9.1797  -16.3948   25.9209 C   0  0  2  0  0  0  0  0  0  0  0  0
    8.6699  -16.7069   24.5755 N   0  0  0  0  0  0  0  0  0  0  0  0
    9.9352  -17.5672   26.4282 C   0  0  0  0  0  0  0  0  0  0  0  0
    9.9463  -18.6655   25.8212 O   0  0  0  0  0  0  0  0  0  0  0  0
    6.3433  -14.3770   25.9970 C   0  0  0  0  0  0  0  0  0  0  0  0
    5.9057  -13.0803   25.7709 C   0  0  0  0  0  0  0  0  0  0  0  0
   10.6518  -17.4457   27.6104 O   0  0  0  0  0  0  0  0  0  0  0  0
  2  1  1  6
  2  4  1  0
  3  2  1  0
  4  6  1  0
  5  4  2  0
  6  7  1  0
  7  8  1  6
  9  8  1  0
 10  9  2  0
 11 10  1  0
 12 11  1  0
 12 13  2  0
 13  9  1  0
 14  7  1  0
 14 15  2  0
 16 17  1  0
 17 18  2  0
 17 27  1  0
 18 19  1  0
 19 20  2  0
 20 21  1  0
 22 21  1  1
 22 23  1  0
 22 24  1  0
 23 14  1  0
 24 25  2  0
 24 28  1  0
 26 20  1  0
 27 26  2  0
M  END
$$$$
