AHY.pdb
     RDKit          3D

 28 29  0  0  1  0  0  0  0  0999 V2000
    6.5411  -19.3633   19.8349 C   0  0  0  0  0  0  0  0  0  0  0  0
    6.8123  -18.8051   21.1964 C   0  0  2  0  0  0  0  0  0  0  0  0
    5.6353  -18.1861   21.7700 N   0  0  0  0  0  0  0  0  0  0  0  0
    7.9281  -17.8133   21.1831 C   0  0  0  0  0  0  0  0  0  0  0  0
    9.0549  -18.0986   20.6879 O   0  0  0  0  0  0  0  0  0  0  0  0
    7.7214  -16.5508   21.7269 N   0  0  0  0  0  0  0  0  0  0  0  0
    8.7424  -15.4425   21.6257 C   0  0  1  0  0  0  0  0  0  0  0  0
    7.9333  -14.3319   21.0504 C   0  0  0  0  0  0  0  0  0  0  0  0
    8.1584  -13.9160   19.6848 C   0  0  0  0  0  0  0  0  0  0  0  0
    8.6772  -12.8238   19.0888 C   0  0  0  0  0  0  0  0  0  0  0  0
    8.7176  -12.9786   17.7382 N   0  0  0  0  0  0  0  0  0  0  0  0
    8.2180  -14.1808   17.5111 C   0  0  0  0  0  0  0  0  0  0  0  0
    7.8740  -14.7713   18.6392 N   0  0  0  0  0  0  0  0  0  0  0  0
    8.9842  -15.1677   23.0938 C   0  0  0  0  0  0  0  0  0  0  0  0
    8.4450  -14.1290   23.6348 O   0  0  0  0  0  0  0  0  0  0  0  0
    5.5528  -11.1200   26.9546 O   0  0  0  0  0  0  0  0  0  0  0  0
    6.2087  -12.3185   26.7017 C   0  0  0  0  0  0  0  0  0  0  0  0
    7.5633  -12.4348   26.9290 C   0  0  0  0  0  0  0  0  0  0  0  0
    8.2248  -13.6206   26.6813 C   0  0  0  0  0  0  0  0  0  0  0  0
    7.5770  -14.7393   26.1995 C   0  0  0  0  0  0  0  0  0  0  0  0
    8.3133  -16.0029   25.9419 C   0  0  0  0  0  0  0  0  0  0  0  0
    9.7048  -15.7478   25.4181 C   0  0  2  0  0  0  0  0  0  0  0  0
    9.7560  -15.9507   23.9608 N   0  0  0  0  0  0  0  0  0  0  0  0
   10.7043  -16.6385   26.0588 C   0  0  0  0  0  0  0  0  0  0  0  0
   11.1404  -16.4259   27.2162 O   0  0  0  0  0  0  0  0  0  0  0  0
    6.2180  -14.6150   25.9738 C   0  0  0  0  0  0  0  0  0  0  0  0
    5.5454  -13.4271   26.2200 C   0  0  0  0  0  0  0  0  0  0  0  0
   11.1713  -17.7407   25.3568 O   0  0  0  0  0  0  0  0  0  0  0  0
  2  1  1  6
  2  4  1  0
  3  2  1  0
  4  6  1  0
  5  4  2  0
  6  7  1  0
  7  8  1  6
  9  8  1  0
 10  9  2  0
 11 10  1  0
 12 11  1  0
 12 13  2  0
 13  9  1  0
 14  7  1  0
 14 15  2  0
 16 17  1  0
 17 18  2  0
 17 27  1  0
 18 19  1  0
 19 20  2  0
 20 21  1  0
 22 21  1  1
 22 23  1  0
 22 24  1  0
 23 14  1  0
 24 25  2  0
 24 28  1  0
 26 20  1  0
 27 26  2  0
M  END
$$$$
