AHY.pdb
     RDKit          3D

 28 29  0  0  1  0  0  0  0  0999 V2000
   16.4744  -16.1857   15.5277 C   0  0  0  0  0  0  0  0  0  0  0  0
   15.3364  -16.6918   14.6984 C   0  0  2  0  0  0  0  0  0  0  0  0
   15.4268  -16.2403   13.3253 N   0  0  0  0  0  0  0  0  0  0  0  0
   14.0125  -16.2889   15.2587 C   0  0  0  0  0  0  0  0  0  0  0  0
   13.3887  -15.2846   14.8132 O   0  0  0  0  0  0  0  0  0  0  0  0
   13.4563  -17.0350   16.2913 N   0  0  0  0  0  0  0  0  0  0  0  0
   12.0745  -16.7664   16.8385 C   0  0  1  0  0  0  0  0  0  0  0  0
   11.5078  -18.1411   16.9283 C   0  0  0  0  0  0  0  0  0  0  0  0
   10.2118  -18.3423   17.5353 C   0  0  0  0  0  0  0  0  0  0  0  0
    9.0622  -17.6407   17.5951 C   0  0  0  0  0  0  0  0  0  0  0  0
    8.1001  -18.3375   18.2572 N   0  0  0  0  0  0  0  0  0  0  0  0
    8.6723  -19.4776   18.6029 C   0  0  0  0  0  0  0  0  0  0  0  0
    9.9254  -19.5214   18.1937 N   0  0  0  0  0  0  0  0  0  0  0  0
   12.4270  -16.2861   18.2292 C   0  0  0  0  0  0  0  0  0  0  0  0
   13.5524  -16.6404   18.7489 O   0  0  0  0  0  0  0  0  0  0  0  0
    6.1721  -13.1205   18.8045 O   0  0  0  0  0  0  0  0  0  0  0  0
    7.4591  -13.2818   19.3026 C   0  0  0  0  0  0  0  0  0  0  0  0
    8.5471  -12.8340   18.5845 C   0  0  0  0  0  0  0  0  0  0  0  0
    9.8299  -12.9891   19.0699 C   0  0  0  0  0  0  0  0  0  0  0  0
   10.0911  -13.5920   20.2829 C   0  0  0  0  0  0  0  0  0  0  0  0
   11.4814  -13.7457   20.7816 C   0  0  0  0  0  0  0  0  0  0  0  0
   12.0770  -15.0754   20.3902 C   0  0  2  0  0  0  0  0  0  0  0  0
   11.6350  -15.4650   19.0411 N   0  0  0  0  0  0  0  0  0  0  0  0
   11.6991  -16.1480   21.3439 C   0  0  0  0  0  0  0  0  0  0  0  0
   12.0651  -16.1308   22.5442 O   0  0  0  0  0  0  0  0  0  0  0  0
    8.9945  -14.0388   20.9977 C   0  0  0  0  0  0  0  0  0  0  0  0
    7.7021  -13.8870   20.5174 C   0  0  0  0  0  0  0  0  0  0  0  0
   10.9170  -17.2027   20.8951 O   0  0  0  0  0  0  0  0  0  0  0  0
  2  1  1  1
  2  4  1  0
  3  2  1  0
  4  6  1  0
  5  4  2  0
  6  7  1  0
  7  8  1  1
  9  8  1  0
 10  9  2  0
 11 10  1  0
 12 11  1  0
 12 13  2  0
 13  9  1  0
 14  7  1  0
 14 15  2  0
 16 17  1  0
 17 18  2  0
 17 27  1  0
 18 19  1  0
 19 20  2  0
 20 21  1  0
 22 21  1  1
 22 23  1  0
 22 24  1  0
 23 14  1  0
 24 25  2  0
 24 28  1  0
 26 20  1  0
 27 26  2  0
M  END
$$$$
