AHY.pdb
     RDKit          3D

 28 29  0  0  1  0  0  0  0  0999 V2000
    8.3892  -12.0688   20.3788 C   0  0  0  0  0  0  0  0  0  0  0  0
    8.6032  -13.2732   19.5171 C   0  0  2  0  0  0  0  0  0  0  0  0
    7.8775  -13.1783   18.2674 N   0  0  0  0  0  0  0  0  0  0  0  0
    8.2145  -14.5358   20.2126 C   0  0  0  0  0  0  0  0  0  0  0  0
    7.3350  -15.3059   19.7336 O   0  0  0  0  0  0  0  0  0  0  0  0
    8.8339  -14.8692   21.4116 N   0  0  0  0  0  0  0  0  0  0  0  0
    8.8790  -16.2833   21.9402 C   0  0  1  0  0  0  0  0  0  0  0  0
   10.0489  -16.8464   21.2098 C   0  0  0  0  0  0  0  0  0  0  0  0
   10.3981  -18.2379   21.3832 C   0  0  0  0  0  0  0  0  0  0  0  0
    9.9001  -19.2697   22.0936 C   0  0  0  0  0  0  0  0  0  0  0  0
   10.5866  -20.4151   21.8360 N   0  0  0  0  0  0  0  0  0  0  0  0
   11.5129  -20.0748   20.9569 C   0  0  0  0  0  0  0  0  0  0  0  0
   11.4360  -18.7918   20.6608 N   0  0  0  0  0  0  0  0  0  0  0  0
    9.2745  -16.0188   23.3764 C   0  0  0  0  0  0  0  0  0  0  0  0
   10.2574  -15.2208   23.6197 O   0  0  0  0  0  0  0  0  0  0  0  0
    5.9858  -10.7557   25.7598 O   0  0  0  0  0  0  0  0  0  0  0  0
    6.5177  -12.0124   26.0208 C   0  0  0  0  0  0  0  0  0  0  0  0
    5.7297  -13.1389   25.9209 C   0  0  0  0  0  0  0  0  0  0  0  0
    6.2478  -14.3921   26.1780 C   0  0  0  0  0  0  0  0  0  0  0  0
    7.5640  -14.5847   26.5439 C   0  0  0  0  0  0  0  0  0  0  0  0
    8.0958  -15.9446   26.8144 C   0  0  0  0  0  0  0  0  0  0  0  0
    9.2022  -16.3175   25.8591 C   0  0  2  0  0  0  0  0  0  0  0  0
    8.6631  -16.5647   24.5116 N   0  0  0  0  0  0  0  0  0  0  0  0
    9.9317  -17.5288   26.3102 C   0  0  0  0  0  0  0  0  0  0  0  0
    9.8963  -18.6055   25.6666 O   0  0  0  0  0  0  0  0  0  0  0  0
    8.3486  -13.4498   26.6420 C   0  0  0  0  0  0  0  0  0  0  0  0
    7.8360  -12.1867   26.3855 C   0  0  0  0  0  0  0  0  0  0  0  0
   10.6762  -17.4693   27.4798 O   0  0  0  0  0  0  0  0  0  0  0  0
  2  1  1  1
  2  4  1  0
  3  2  1  0
  4  6  1  0
  5  4  2  0
  6  7  1  0
  7  8  1  6
  9  8  1  0
 10  9  2  0
 11 10  1  0
 12 11  1  0
 12 13  2  0
 13  9  1  0
 14  7  1  0
 14 15  2  0
 16 17  1  0
 17 18  2  0
 17 27  1  0
 18 19  1  0
 19 20  2  0
 20 21  1  0
 22 21  1  1
 22 23  1  0
 22 24  1  0
 23 14  1  0
 24 25  2  0
 24 28  1  0
 26 20  1  0
 27 26  2  0
M  END
$$$$
