AHY.pdb
     RDKit          3D

 28 29  0  0  1  0  0  0  0  0999 V2000
    8.7349  -12.1874   19.7315 C   0  0  0  0  0  0  0  0  0  0  0  0
    8.8066  -13.4097   18.8715 C   0  0  2  0  0  0  0  0  0  0  0  0
    7.8341  -13.3726   17.7990 N   0  0  0  0  0  0  0  0  0  0  0  0
    8.6150  -14.6622   19.6611 C   0  0  0  0  0  0  0  0  0  0  0  0
    7.5007  -15.2569   19.6897 O   0  0  0  0  0  0  0  0  0  0  0  0
    9.6854  -15.1832   20.3788 N   0  0  0  0  0  0  0  0  0  0  0  0
    9.5772  -16.4436   21.2040 C   0  0  1  0  0  0  0  0  0  0  0  0
   10.5175  -17.3558   20.4950 C   0  0  0  0  0  0  0  0  0  0  0  0
   10.0162  -18.2461   19.4730 C   0  0  0  0  0  0  0  0  0  0  0  0
   10.0401  -18.2682   18.1253 C   0  0  0  0  0  0  0  0  0  0  0  0
    9.4624  -19.4024   17.6463 N   0  0  0  0  0  0  0  0  0  0  0  0
    9.0838  -20.0785   18.7168 C   0  0  0  0  0  0  0  0  0  0  0  0
    9.3937  -19.4280   19.8216 N   0  0  0  0  0  0  0  0  0  0  0  0
   10.2200  -15.9756   22.4913 C   0  0  0  0  0  0  0  0  0  0  0  0
   11.1403  -15.0740   22.4414 O   0  0  0  0  0  0  0  0  0  0  0  0
    5.9885  -11.3673   28.3075 O   0  0  0  0  0  0  0  0  0  0  0  0
    6.4980  -12.2089   27.3263 C   0  0  0  0  0  0  0  0  0  0  0  0
    7.8585  -12.3917   27.2006 C   0  0  0  0  0  0  0  0  0  0  0  0
    8.3753  -13.2254   26.2295 C   0  0  0  0  0  0  0  0  0  0  0  0
    7.5713  -13.9122   25.3435 C   0  0  0  0  0  0  0  0  0  0  0  0
    8.1539  -14.8032   24.3082 C   0  0  0  0  0  0  0  0  0  0  0  0
    9.3897  -15.5119   24.8051 C   0  0  2  0  0  0  0  0  0  0  0  0
    9.9091  -16.4305   23.7785 N   0  0  0  0  0  0  0  0  0  0  0  0
    9.1189  -16.2845   26.0430 C   0  0  0  0  0  0  0  0  0  0  0  0
    9.5787  -15.9379   27.1580 O   0  0  0  0  0  0  0  0  0  0  0  0
    6.2074  -13.7238   25.4758 C   0  0  0  0  0  0  0  0  0  0  0  0
    5.6795  -12.8879   26.4487 C   0  0  0  0  0  0  0  0  0  0  0  0
    8.3329  -17.4256   25.9658 O   0  0  0  0  0  0  0  0  0  0  0  0
  2  1  1  1
  2  4  1  0
  3  2  1  0
  4  6  1  0
  5  4  2  0
  6  7  1  0
  7  8  1  6
  9  8  1  0
 10  9  2  0
 11 10  1  0
 12 11  1  0
 12 13  2  0
 13  9  1  0
 14  7  1  0
 14 15  2  0
 16 17  1  0
 17 18  2  0
 17 27  1  0
 18 19  1  0
 19 20  2  0
 20 21  1  0
 22 21  1  6
 22 23  1  0
 22 24  1  0
 23 14  1  0
 24 25  2  0
 24 28  1  0
 26 20  1  0
 27 26  2  0
M  END
$$$$
