AHY.pdb
     RDKit          3D

 28 29  0  0  1  0  0  0  0  0999 V2000
    8.4367  -12.0842   20.1960 C   0  0  0  0  0  0  0  0  0  0  0  0
    8.5628  -13.3627   19.4289 C   0  0  2  0  0  0  0  0  0  0  0  0
    7.7310  -13.3648   18.2433 N   0  0  0  0  0  0  0  0  0  0  0  0
    8.2248  -14.5529   20.2644 C   0  0  0  0  0  0  0  0  0  0  0  0
    7.1213  -15.1545   20.1352 O   0  0  0  0  0  0  0  0  0  0  0  0
    9.1440  -15.0070   21.2032 N   0  0  0  0  0  0  0  0  0  0  0  0
    9.0823  -16.3930   21.8002 C   0  0  1  0  0  0  0  0  0  0  0  0
   10.2646  -17.0489   21.1748 C   0  0  0  0  0  0  0  0  0  0  0  0
   10.5420  -18.4394   21.4539 C   0  0  0  0  0  0  0  0  0  0  0  0
    9.9489  -19.4080   22.1802 C   0  0  0  0  0  0  0  0  0  0  0  0
   10.6056  -20.5910   22.0432 N   0  0  0  0  0  0  0  0  0  0  0  0
   11.6099  -20.3381   21.2221 C   0  0  0  0  0  0  0  0  0  0  0  0
   11.6086  -19.0731   20.8484 N   0  0  0  0  0  0  0  0  0  0  0  0
    9.4008  -16.0756   23.2448 C   0  0  0  0  0  0  0  0  0  0  0  0
   10.3833  -15.2844   23.5115 O   0  0  0  0  0  0  0  0  0  0  0  0
    6.0118  -10.6150   25.8915 O   0  0  0  0  0  0  0  0  0  0  0  0
    6.4648  -11.9180   26.0577 C   0  0  0  0  0  0  0  0  0  0  0  0
    7.7270  -12.1605   26.5556 C   0  0  0  0  0  0  0  0  0  0  0  0
    8.1869  -13.4509   26.7248 C   0  0  0  0  0  0  0  0  0  0  0  0
    7.4205  -14.5539   26.4098 C   0  0  0  0  0  0  0  0  0  0  0  0
    7.9401  -15.9316   26.6021 C   0  0  0  0  0  0  0  0  0  0  0  0
    9.1389  -16.2089   25.7291 C   0  0  2  0  0  0  0  0  0  0  0  0
    8.7160  -16.5637   24.3643 N   0  0  0  0  0  0  0  0  0  0  0  0
    9.9701  -17.3119   26.2725 C   0  0  0  0  0  0  0  0  0  0  0  0
   10.7526  -17.1420   27.2388 O   0  0  0  0  0  0  0  0  0  0  0  0
    6.1552  -14.3027   25.9108 C   0  0  0  0  0  0  0  0  0  0  0  0
    5.6850  -13.0092   25.7376 C   0  0  0  0  0  0  0  0  0  0  0  0
    9.8796  -18.5703   25.6946 O   0  0  0  0  0  0  0  0  0  0  0  0
  2  1  1  1
  2  4  1  0
  3  2  1  0
  4  6  1  0
  5  4  2  0
  6  7  1  0
  7  8  1  6
  9  8  1  0
 10  9  2  0
 11 10  1  0
 12 11  1  0
 12 13  2  0
 13  9  1  0
 14  7  1  0
 14 15  2  0
 16 17  1  0
 17 18  2  0
 17 27  1  0
 18 19  1  0
 19 20  2  0
 20 21  1  0
 22 21  1  1
 22 23  1  0
 22 24  1  0
 23 14  1  0
 24 25  2  0
 24 28  1  0
 26 20  1  0
 27 26  2  0
M  END
$$$$
