AHY.pdb
     RDKit          3D

 28 29  0  0  1  0  0  0  0  0999 V2000
    5.4026  -18.5948   22.5064 C   0  0  0  0  0  0  0  0  0  0  0  0
    5.7868  -18.0513   21.1663 C   0  0  2  0  0  0  0  0  0  0  0  0
    5.7085  -19.0617   20.1317 N   0  0  0  0  0  0  0  0  0  0  0  0
    7.1595  -17.4643   21.1725 C   0  0  0  0  0  0  0  0  0  0  0  0
    8.1762  -18.1680   20.9129 O   0  0  0  0  0  0  0  0  0  0  0  0
    7.3205  -16.1161   21.4702 N   0  0  0  0  0  0  0  0  0  0  0  0
    8.6650  -15.4288   21.4369 C   0  0  1  0  0  0  0  0  0  0  0  0
    8.3421  -14.1581   20.7296 C   0  0  0  0  0  0  0  0  0  0  0  0
    8.3703  -14.1163   19.2853 C   0  0  0  0  0  0  0  0  0  0  0  0
    8.5779  -15.0174   18.3043 C   0  0  0  0  0  0  0  0  0  0  0  0
    8.4203  -14.4487   17.0790 N   0  0  0  0  0  0  0  0  0  0  0  0
    8.1117  -13.1862   17.3189 C   0  0  0  0  0  0  0  0  0  0  0  0
    8.0711  -12.9469   18.6153 N   0  0  0  0  0  0  0  0  0  0  0  0
    8.8533  -15.1395   22.9100 C   0  0  0  0  0  0  0  0  0  0  0  0
    8.3138  -14.0834   23.4160 O   0  0  0  0  0  0  0  0  0  0  0  0
    6.0944  -10.5820   27.1356 O   0  0  0  0  0  0  0  0  0  0  0  0
    6.5562  -11.8433   26.7802 C   0  0  0  0  0  0  0  0  0  0  0  0
    7.7003  -12.3555   27.3537 C   0  0  0  0  0  0  0  0  0  0  0  0
    8.1678  -13.6072   27.0079 C   0  0  0  0  0  0  0  0  0  0  0  0
    7.5259  -14.4042   26.0827 C   0  0  0  0  0  0  0  0  0  0  0  0
    8.0507  -15.7477   25.7293 C   0  0  0  0  0  0  0  0  0  0  0  0
    9.4856  -15.6887   25.2672 C   0  0  2  0  0  0  0  0  0  0  0  0
    9.5740  -15.9260   23.8170 N   0  0  0  0  0  0  0  0  0  0  0  0
   10.3289  -16.6902   25.9663 C   0  0  0  0  0  0  0  0  0  0  0  0
   10.9390  -16.4209   27.0294 O   0  0  0  0  0  0  0  0  0  0  0  0
    6.3787  -13.8837   25.5115 C   0  0  0  0  0  0  0  0  0  0  0  0
    5.9019  -12.6267   25.8532 C   0  0  0  0  0  0  0  0  0  0  0  0
   10.4467  -17.9639   25.4283 O   0  0  0  0  0  0  0  0  0  0  0  0
  2  1  1  1
  2  4  1  0
  3  2  1  0
  4  6  1  0
  5  4  2  0
  6  7  1  0
  7  8  1  6
  9  8  1  0
 10  9  2  0
 11 10  1  0
 12 11  1  0
 12 13  2  0
 13  9  1  0
 14  7  1  0
 14 15  2  0
 16 17  1  0
 17 18  2  0
 17 27  1  0
 18 19  1  0
 19 20  2  0
 20 21  1  0
 22 21  1  1
 22 23  1  0
 22 24  1  0
 23 14  1  0
 24 25  2  0
 24 28  1  0
 26 20  1  0
 27 26  2  0
M  END
$$$$
