WYS.pdb
     RDKit          3D

 33 35  0  0  1  0  0  0  0  0999 V2000
    7.1265  -18.3017   26.2540 N   0  0  0  0  0  0  0  0  0  0  0  0
    7.3980  -17.0049   25.7268 C   0  0  1  0  0  0  0  0  0  0  0  0
    8.6785  -16.4602   26.2836 C   0  0  0  0  0  0  0  0  0  0  0  0
    8.4911  -15.4113   27.3009 C   0  0  0  0  0  0  0  0  0  0  0  0
    8.6220  -15.5936   28.6708 C   0  0  0  0  0  0  0  0  0  0  0  0
    8.4061  -14.4234   29.2891 N   0  0  0  0  0  0  0  0  0  0  0  0
    8.1351  -13.4669   28.3769 C   0  0  0  0  0  0  0  0  0  0  0  0
    7.8468  -12.1289   28.5487 C   0  0  0  0  0  0  0  0  0  0  0  0
    7.5964  -11.3557   27.4475 C   0  0  0  0  0  0  0  0  0  0  0  0
    7.6387  -11.9337   26.1980 C   0  0  0  0  0  0  0  0  0  0  0  0
    7.9294  -13.2798   26.0326 C   0  0  0  0  0  0  0  0  0  0  0  0
    8.1868  -14.0782   27.1410 C   0  0  0  0  0  0  0  0  0  0  0  0
    7.4079  -17.0694   24.2495 C   0  0  0  0  0  0  0  0  0  0  0  0
    7.6184  -18.1641   23.6855 O   0  0  0  0  0  0  0  0  0  0  0  0
    8.1771  -13.2526   16.2350 O   0  0  0  0  0  0  0  0  0  0  0  0
    7.8881  -13.5408   17.5646 C   0  0  0  0  0  0  0  0  0  0  0  0
    8.3277  -12.7423   18.5993 C   0  0  0  0  0  0  0  0  0  0  0  0
    8.0610  -12.9978   19.9152 C   0  0  0  0  0  0  0  0  0  0  0  0
    7.3024  -14.1299   20.2172 C   0  0  0  0  0  0  0  0  0  0  0  0
    6.9681  -14.4895   21.5925 C   0  0  0  0  0  0  0  0  0  0  0  0
    7.4984  -15.8206   22.0588 C   0  0  2  0  0  0  0  0  0  0  0  0
    7.1837  -15.9158   23.4660 N   0  0  0  0  0  0  0  0  0  0  0  0
    8.9605  -15.9609   21.8714 C   0  0  0  0  0  0  0  0  0  0  0  0
    9.7396  -15.2391   22.5441 O   0  0  0  0  0  0  0  0  0  0  0  0
    6.8532  -14.9422   19.1906 C   0  0  0  0  0  0  0  0  0  0  0  0
    7.1357  -14.6630   17.8691 C   0  0  0  0  0  0  0  0  0  0  0  0
   10.4733  -19.1148   19.9093 O   0  0  0  0  0  0  0  0  0  0  0  0
   11.3725  -18.4238   20.7258 C   0  0  0  0  0  0  0  0  0  0  0  0
   10.9307  -16.9731   20.7539 C   0  0  2  0  0  0  0  0  0  0  0  0
    9.5005  -16.8980   20.9435 N   0  0  0  0  0  0  0  0  0  0  0  0
   11.3352  -16.2947   19.5089 C   0  0  0  0  0  0  0  0  0  0  0  0
   10.4670  -15.8228   18.7474 O   0  0  0  0  0  0  0  0  0  0  0  0
   12.6747  -16.1752   19.1744 O   0  0  0  0  0  0  0  0  0  0  0  0
  2  1  1  1
  3  2  1  0
  4  3  1  0
  4  5  2  0
  6  5  1  0
  7  6  1  0
  8  7  2  0
  9  8  1  0
 10  9  2  0
 10 11  1  0
 11 12  2  0
 12  7  1  0
 12  4  1  0
 13  2  1  0
 14 13  2  0
 16 15  1  0
 16 17  2  0
 18 17  1  0
 19 18  2  0
 20 19  1  0
 21 20  1  1
 21 22  1  0
 22 13  1  0
 23 21  1  0
 24 23  2  0
 25 26  2  0
 25 19  1  0
 26 16  1  0
 27 28  1  0
 29 28  1  6
 29 30  1  0
 30 23  1  0
 31 33  1  0
 31 29  1  0
 32 31  2  0
M  END
$$$$
