WYS.pdb
     RDKit          3D

 33 35  0  0  1  0  0  0  0  0999 V2000
    6.4286  -17.0829   23.3749 N   0  0  0  0  0  0  0  0  0  0  0  0
    7.7821  -16.6833   23.5791 C   0  0  1  0  0  0  0  0  0  0  0  0
    8.0293  -16.3542   25.0203 C   0  0  0  0  0  0  0  0  0  0  0  0
    7.1588  -15.2901   25.5496 C   0  0  0  0  0  0  0  0  0  0  0  0
    5.8311  -15.4536   25.9200 C   0  0  0  0  0  0  0  0  0  0  0  0
    5.3592  -14.2851   26.3788 N   0  0  0  0  0  0  0  0  0  0  0  0
    6.3282  -13.3479   26.3260 C   0  0  0  0  0  0  0  0  0  0  0  0
    6.2991  -12.0160   26.6841 C   0  0  0  0  0  0  0  0  0  0  0  0
    7.4286  -11.2597   26.5255 C   0  0  0  0  0  0  0  0  0  0  0  0
    8.5637  -11.8480   26.0129 C   0  0  0  0  0  0  0  0  0  0  0  0
    8.5860  -13.1878   25.6551 C   0  0  0  0  0  0  0  0  0  0  0  0
    7.4471  -13.9695   25.8108 C   0  0  0  0  0  0  0  0  0  0  0  0
    8.6857  -17.7419   23.0795 C   0  0  0  0  0  0  0  0  0  0  0  0
    8.7332  -18.8386   23.6761 O   0  0  0  0  0  0  0  0  0  0  0  0
    6.7060  -13.2086   17.5972 O   0  0  0  0  0  0  0  0  0  0  0  0
    7.4304  -13.7093   18.6738 C   0  0  0  0  0  0  0  0  0  0  0  0
    8.1957  -14.8519   18.5736 C   0  0  0  0  0  0  0  0  0  0  0  0
    8.9186  -15.3693   19.6117 C   0  0  0  0  0  0  0  0  0  0  0  0
    8.8730  -14.6976   20.8345 C   0  0  0  0  0  0  0  0  0  0  0  0
    9.6074  -15.1737   22.0034 C   0  0  0  0  0  0  0  0  0  0  0  0
   10.4136  -16.4291   21.7922 C   0  0  2  0  0  0  0  0  0  0  0  0
    9.4949  -17.5347   21.9407 N   0  0  0  0  0  0  0  0  0  0  0  0
   11.5221  -16.5773   22.7625 C   0  0  0  0  0  0  0  0  0  0  0  0
   12.4517  -15.7309   22.7694 O   0  0  0  0  0  0  0  0  0  0  0  0
    8.1096  -13.5492   20.9523 C   0  0  0  0  0  0  0  0  0  0  0  0
    7.3882  -13.0463   19.8890 C   0  0  0  0  0  0  0  0  0  0  0  0
   11.6540  -19.8325   25.1323 O   0  0  0  0  0  0  0  0  0  0  0  0
   12.2947  -18.7428   25.7278 C   0  0  0  0  0  0  0  0  0  0  0  0
   12.6537  -17.7718   24.6194 C   0  0  2  0  0  0  0  0  0  0  0  0
   11.5551  -17.6605   23.6880 N   0  0  0  0  0  0  0  0  0  0  0  0
   13.8834  -18.2131   23.9360 C   0  0  0  0  0  0  0  0  0  0  0  0
   14.9618  -18.2551   24.5618 O   0  0  0  0  0  0  0  0  0  0  0  0
   13.8538  -18.5831   22.6009 O   0  0  0  0  0  0  0  0  0  0  0  0
  2  1  1  1
  3  2  1  0
  4  3  1  0
  4  5  2  0
  6  5  1  0
  7  6  1  0
  8  7  2  0
  9  8  1  0
 10  9  2  0
 10 11  1  0
 11 12  2  0
 12  7  1  0
 12  4  1  0
 13  2  1  0
 14 13  2  0
 16 15  1  0
 16 17  2  0
 18 17  1  0
 19 18  2  0
 20 19  1  0
 21 20  1  1
 21 22  1  0
 22 13  1  0
 23 21  1  0
 24 23  2  0
 25 26  2  0
 25 19  1  0
 26 16  1  0
 27 28  1  0
 29 28  1  1
 29 30  1  0
 30 23  1  0
 31 33  1  0
 31 29  1  0
 32 31  2  0
M  END
$$$$
