WYS.pdb
     RDKit          3D

 33 35  0  0  1  0  0  0  0  0999 V2000
    5.7456  -17.0660   23.4275 N   0  0  0  0  0  0  0  0  0  0  0  0
    7.0107  -16.5029   23.0869 C   0  0  1  0  0  0  0  0  0  0  0  0
    7.7646  -16.1013   24.3184 C   0  0  0  0  0  0  0  0  0  0  0  0
    7.0356  -15.1609   25.1870 C   0  0  0  0  0  0  0  0  0  0  0  0
    5.8942  -15.4662   25.9156 C   0  0  0  0  0  0  0  0  0  0  0  0
    5.5170  -14.3826   26.6097 N   0  0  0  0  0  0  0  0  0  0  0  0
    6.3689  -13.3648   26.3678 C   0  0  0  0  0  0  0  0  0  0  0  0
    6.3730  -12.0729   26.8518 C   0  0  0  0  0  0  0  0  0  0  0  0
    7.3560  -11.2127   26.4434 C   0  0  0  0  0  0  0  0  0  0  0  0
    8.3143  -11.6592   25.5606 C   0  0  0  0  0  0  0  0  0  0  0  0
    8.3043  -12.9596   25.0780 C   0  0  0  0  0  0  0  0  0  0  0  0
    7.3131  -13.8456   25.4839 C   0  0  0  0  0  0  0  0  0  0  0  0
    7.7648  -17.4627   22.2521 C   0  0  0  0  0  0  0  0  0  0  0  0
    7.1410  -18.2993   21.5652 O   0  0  0  0  0  0  0  0  0  0  0  0
    7.0939  -13.3342   16.9307 O   0  0  0  0  0  0  0  0  0  0  0  0
    7.5712  -13.7922   18.1542 C   0  0  0  0  0  0  0  0  0  0  0  0
    7.8653  -15.1213   18.3745 C   0  0  0  0  0  0  0  0  0  0  0  0
    8.3355  -15.6028   19.5640 C   0  0  0  0  0  0  0  0  0  0  0  0
    8.5247  -14.6925   20.6051 C   0  0  0  0  0  0  0  0  0  0  0  0
    9.0193  -15.1101   21.9141 C   0  0  0  0  0  0  0  0  0  0  0  0
    9.9669  -16.2816   21.9025 C   0  0  2  0  0  0  0  0  0  0  0  0
    9.1767  -17.4497   22.2179 N   0  0  0  0  0  0  0  0  0  0  0  0
   11.0646  -16.1500   22.8875 C   0  0  0  0  0  0  0  0  0  0  0  0
   11.9259  -15.2473   22.7327 O   0  0  0  0  0  0  0  0  0  0  0  0
    8.2344  -13.3547   20.4008 C   0  0  0  0  0  0  0  0  0  0  0  0
    7.7605  -12.8927   19.1901 C   0  0  0  0  0  0  0  0  0  0  0  0
   11.3656  -18.8410   25.8528 O   0  0  0  0  0  0  0  0  0  0  0  0
   11.9245  -17.6175   26.2316 C   0  0  0  0  0  0  0  0  0  0  0  0
   12.2346  -16.8519   24.9595 C   0  0  2  0  0  0  0  0  0  0  0  0
   11.1631  -17.0268   24.0066 N   0  0  0  0  0  0  0  0  0  0  0  0
   13.5211  -17.3016   24.3968 C   0  0  0  0  0  0  0  0  0  0  0  0
   13.5602  -17.7976   23.2528 O   0  0  0  0  0  0  0  0  0  0  0  0
   14.6918  -17.1786   25.1281 O   0  0  0  0  0  0  0  0  0  0  0  0
  2  1  1  1
  3  2  1  0
  4  3  1  0
  4  5  2  0
  6  5  1  0
  7  6  1  0
  8  7  2  0
  9  8  1  0
 10  9  2  0
 10 11  1  0
 11 12  2  0
 12  7  1  0
 12  4  1  0
 13  2  1  0
 14 13  2  0
 16 15  1  0
 16 17  2  0
 18 17  1  0
 19 18  2  0
 20 19  1  0
 21 20  1  1
 21 22  1  0
 22 13  1  0
 23 21  1  0
 24 23  2  0
 25 26  2  0
 25 19  1  0
 26 16  1  0
 27 28  1  0
 29 28  1  1
 29 30  1  0
 30 23  1  0
 31 33  1  0
 31 29  1  0
 32 31  2  0
M  END
$$$$
