WYS.pdb
     RDKit          3D

 33 35  0  0  1  0  0  0  0  0999 V2000
    9.7826  -16.6631   20.5313 N   0  0  0  0  0  0  0  0  0  0  0  0
    9.3989  -15.8321   21.6247 C   0  0  1  0  0  0  0  0  0  0  0  0
    7.9065  -15.7661   21.7463 C   0  0  0  0  0  0  0  0  0  0  0  0
    7.3971  -14.4479   22.1623 C   0  0  0  0  0  0  0  0  0  0  0  0
    7.0803  -13.4054   21.3022 C   0  0  0  0  0  0  0  0  0  0  0  0
    6.6245  -12.3696   22.0217 N   0  0  0  0  0  0  0  0  0  0  0  0
    6.6274  -12.6867   23.3331 C   0  0  0  0  0  0  0  0  0  0  0  0
    6.2531  -11.9395   24.4306 C   0  0  0  0  0  0  0  0  0  0  0  0
    6.3580  -12.4917   25.6784 C   0  0  0  0  0  0  0  0  0  0  0  0
    6.8343  -13.7779   25.8052 C   0  0  0  0  0  0  0  0  0  0  0  0
    7.2087  -14.5236   24.6973 C   0  0  0  0  0  0  0  0  0  0  0  0
    7.1074  -13.9772   23.4231 C   0  0  0  0  0  0  0  0  0  0  0  0
   10.0443  -16.3218   22.8618 C   0  0  0  0  0  0  0  0  0  0  0  0
   10.4195  -17.5116   22.9273 O   0  0  0  0  0  0  0  0  0  0  0  0
   11.1052  -16.2169   31.5510 O   0  0  0  0  0  0  0  0  0  0  0  0
   11.0194  -15.8264   30.2188 C   0  0  0  0  0  0  0  0  0  0  0  0
   10.3295  -14.6978   29.8294 C   0  0  0  0  0  0  0  0  0  0  0  0
   10.2265  -14.2873   28.5299 C   0  0  0  0  0  0  0  0  0  0  0  0
   10.8571  -15.0586   27.5523 C   0  0  0  0  0  0  0  0  0  0  0  0
   10.8015  -14.7049   26.1365 C   0  0  0  0  0  0  0  0  0  0  0  0
   10.9344  -15.8590   25.1769 C   0  0  2  0  0  0  0  0  0  0  0  0
   10.2437  -15.4682   23.9693 N   0  0  0  0  0  0  0  0  0  0  0  0
   10.3466  -17.1154   25.6950 C   0  0  0  0  0  0  0  0  0  0  0  0
    9.0980  -17.2617   25.6832 O   0  0  0  0  0  0  0  0  0  0  0  0
   11.5538  -16.1947   27.9259 C   0  0  0  0  0  0  0  0  0  0  0  0
   11.6434  -16.5886   29.2453 C   0  0  0  0  0  0  0  0  0  0  0  0
   10.0495  -21.3282   24.8650 O   0  0  0  0  0  0  0  0  0  0  0  0
   10.3401  -19.9624   24.8110 C   0  0  0  0  0  0  0  0  0  0  0  0
   10.6728  -19.5175   26.2224 C   0  0  2  0  0  0  0  0  0  0  0  0
   11.1689  -18.1609   26.2064 N   0  0  0  0  0  0  0  0  0  0  0  0
   11.6586  -20.4338   26.8247 C   0  0  0  0  0  0  0  0  0  0  0  0
   11.3784  -21.6406   26.9700 O   0  0  0  0  0  0  0  0  0  0  0  0
   12.8979  -19.9666   27.2325 O   0  0  0  0  0  0  0  0  0  0  0  0
  2  1  1  6
  3  2  1  0
  4  3  1  0
  4  5  2  0
  6  5  1  0
  7  6  1  0
  8  7  2  0
  9  8  1  0
 10  9  2  0
 10 11  1  0
 11 12  2  0
 12  7  1  0
 12  4  1  0
 13  2  1  0
 14 13  2  0
 16 15  1  0
 16 17  2  0
 18 17  1  0
 19 18  2  0
 20 19  1  0
 21 20  1  1
 21 22  1  0
 22 13  1  0
 23 21  1  0
 24 23  2  0
 25 26  2  0
 25 19  1  0
 26 16  1  0
 27 28  1  0
 29 28  1  6
 29 30  1  0
 30 23  1  0
 31 33  1  0
 31 29  1  0
 32 31  2  0
M  END
$$$$
