WYS.pdb
     RDKit          3D

 33 35  0  0  1  0  0  0  0  0999 V2000
    8.5989  -17.0749   23.3836 N   0  0  0  0  0  0  0  0  0  0  0  0
    8.3666  -15.9153   22.5869 C   0  0  1  0  0  0  0  0  0  0  0  0
    6.9969  -15.3613   22.8382 C   0  0  0  0  0  0  0  0  0  0  0  0
    6.7267  -15.0500   24.2525 C   0  0  0  0  0  0  0  0  0  0  0  0
    6.3760  -15.9787   25.2227 C   0  0  0  0  0  0  0  0  0  0  0  0
    6.2316  -15.3487   26.3976 N   0  0  0  0  0  0  0  0  0  0  0  0
    6.4739  -14.0305   26.2429 C   0  0  0  0  0  0  0  0  0  0  0  0
    6.4395  -13.0047   27.1646 C   0  0  0  0  0  0  0  0  0  0  0  0
    6.7214  -11.7305   26.7525 C   0  0  0  0  0  0  0  0  0  0  0  0
    7.0315  -11.5062   25.4294 C   0  0  0  0  0  0  0  0  0  0  0  0
    7.0644  -12.5424   24.5079 C   0  0  0  0  0  0  0  0  0  0  0  0
    6.7813  -13.8423   24.9110 C   0  0  0  0  0  0  0  0  0  0  0  0
    9.4322  -14.9229   22.8446 C   0  0  0  0  0  0  0  0  0  0  0  0
    9.1428  -13.7080   22.8781 O   0  0  0  0  0  0  0  0  0  0  0  0
   11.0377  -15.4991   30.7409 O   0  0  0  0  0  0  0  0  0  0  0  0
   10.8132  -15.6532   29.3770 C   0  0  0  0  0  0  0  0  0  0  0  0
   10.8353  -16.8892   28.7661 C   0  0  0  0  0  0  0  0  0  0  0  0
   10.6187  -17.0742   27.4294 C   0  0  0  0  0  0  0  0  0  0  0  0
   10.3623  -15.9452   26.6497 C   0  0  0  0  0  0  0  0  0  0  0  0
   10.1223  -16.0392   25.2124 C   0  0  0  0  0  0  0  0  0  0  0  0
   11.3057  -15.7149   24.3377 C   0  0  2  0  0  0  0  0  0  0  0  0
   10.7701  -15.3245   23.0535 N   0  0  0  0  0  0  0  0  0  0  0  0
   12.2265  -16.8604   24.1587 C   0  0  0  0  0  0  0  0  0  0  0  0
   13.1613  -17.0335   24.9813 O   0  0  0  0  0  0  0  0  0  0  0  0
   10.3365  -14.6969   27.2470 C   0  0  0  0  0  0  0  0  0  0  0  0
   10.5583  -14.5359   28.5993 C   0  0  0  0  0  0  0  0  0  0  0  0
   11.9584  -19.0520   20.8487 O   0  0  0  0  0  0  0  0  0  0  0  0
   12.4413  -19.8529   21.8870 C   0  0  0  0  0  0  0  0  0  0  0  0
   12.9374  -18.9235   22.9781 C   0  0  2  0  0  0  0  0  0  0  0  0
   12.0732  -17.7698   23.0721 N   0  0  0  0  0  0  0  0  0  0  0  0
   14.3297  -18.5203   22.7078 C   0  0  0  0  0  0  0  0  0  0  0  0
   14.6292  -17.3102   22.6624 O   0  0  0  0  0  0  0  0  0  0  0  0
   15.3129  -19.4752   22.5030 O   0  0  0  0  0  0  0  0  0  0  0  0
  2  1  1  1
  3  2  1  0
  4  3  1  0
  4  5  2  0
  6  5  1  0
  7  6  1  0
  8  7  2  0
  9  8  1  0
 10  9  2  0
 10 11  1  0
 11 12  2  0
 12  7  1  0
 12  4  1  0
 13  2  1  0
 14 13  2  0
 16 15  1  0
 16 17  2  0
 18 17  1  0
 19 18  2  0
 20 19  1  0
 21 20  1  1
 21 22  1  0
 22 13  1  0
 23 21  1  0
 24 23  2  0
 25 26  2  0
 25 19  1  0
 26 16  1  0
 27 28  1  0
 29 28  1  6
 29 30  1  0
 30 23  1  0
 31 33  1  0
 31 29  1  0
 32 31  2  0
M  END
$$$$
