WYS.pdb
     RDKit          3D

 33 35  0  0  1  0  0  0  0  0999 V2000
    8.7643  -17.4670   21.0695 N   0  0  0  0  0  0  0  0  0  0  0  0
    8.7638  -16.0735   21.3721 C   0  0  1  0  0  0  0  0  0  0  0  0
    7.3673  -15.5762   21.5930 C   0  0  0  0  0  0  0  0  0  0  0  0
    7.2885  -14.1471   21.9417 C   0  0  0  0  0  0  0  0  0  0  0  0
    7.5978  -13.0975   21.0876 C   0  0  0  0  0  0  0  0  0  0  0  0
    7.3889  -11.9380   21.7280 N   0  0  0  0  0  0  0  0  0  0  0  0
    6.9510  -12.1797   22.9810 C   0  0  0  0  0  0  0  0  0  0  0  0
    6.6161  -11.3027   23.9918 C   0  0  0  0  0  0  0  0  0  0  0  0
    6.1996  -11.8029   25.1956 C   0  0  0  0  0  0  0  0  0  0  0  0
    6.1260  -13.1678   25.3659 C   0  0  0  0  0  0  0  0  0  0  0  0
    6.4640  -14.0439   24.3452 C   0  0  0  0  0  0  0  0  0  0  0  0
    6.8881  -13.5514   23.1164 C   0  0  0  0  0  0  0  0  0  0  0  0
    9.6415  -15.8251   22.5360 C   0  0  0  0  0  0  0  0  0  0  0  0
   10.6891  -15.1618   22.3829 O   0  0  0  0  0  0  0  0  0  0  0  0
   11.3560  -15.1834   31.2388 O   0  0  0  0  0  0  0  0  0  0  0  0
   10.7962  -15.3991   29.9840 C   0  0  0  0  0  0  0  0  0  0  0  0
   10.4958  -16.6637   29.5236 C   0  0  0  0  0  0  0  0  0  0  0  0
    9.9456  -16.9091   28.2969 C   0  0  0  0  0  0  0  0  0  0  0  0
    9.6773  -15.8144   27.4736 C   0  0  0  0  0  0  0  0  0  0  0  0
    9.0940  -15.9739   26.1444 C   0  0  0  0  0  0  0  0  0  0  0  0
   10.0831  -16.0498   25.0101 C   0  0  2  0  0  0  0  0  0  0  0  0
    9.3160  -16.3243   23.8166 N   0  0  0  0  0  0  0  0  0  0  0  0
   11.0994  -17.1104   25.1962 C   0  0  0  0  0  0  0  0  0  0  0  0
   11.9635  -16.9833   26.1004 O   0  0  0  0  0  0  0  0  0  0  0  0
    9.9727  -14.5381   27.9202 C   0  0  0  0  0  0  0  0  0  0  0  0
   10.5282  -14.3159   29.1636 C   0  0  0  0  0  0  0  0  0  0  0  0
   11.3759  -20.2491   22.5816 O   0  0  0  0  0  0  0  0  0  0  0  0
   11.6960  -20.5788   23.9013 C   0  0  0  0  0  0  0  0  0  0  0  0
   12.1090  -19.2961   24.5975 C   0  0  2  0  0  0  0  0  0  0  0  0
   11.1165  -18.2714   24.3700 N   0  0  0  0  0  0  0  0  0  0  0  0
   13.4350  -18.8631   24.1199 C   0  0  0  0  0  0  0  0  0  0  0  0
   14.4205  -19.6161   24.2532 O   0  0  0  0  0  0  0  0  0  0  0  0
   13.5986  -17.6236   23.5221 O   0  0  0  0  0  0  0  0  0  0  0  0
  2  1  1  1
  3  2  1  0
  4  3  1  0
  4  5  2  0
  6  5  1  0
  7  6  1  0
  8  7  2  0
  9  8  1  0
 10  9  2  0
 10 11  1  0
 11 12  2  0
 12  7  1  0
 12  4  1  0
 13  2  1  0
 14 13  2  0
 16 15  1  0
 16 17  2  0
 18 17  1  0
 19 18  2  0
 20 19  1  0
 21 20  1  1
 21 22  1  0
 22 13  1  0
 23 21  1  0
 24 23  2  0
 25 26  2  0
 25 19  1  0
 26 16  1  0
 27 28  1  0
 29 28  1  6
 29 30  1  0
 30 23  1  0
 31 33  1  0
 31 29  1  0
 32 31  2  0
M  END
$$$$
