WYS.pdb
     RDKit          3D

 33 35  0  0  1  0  0  0  0  0999 V2000
    7.5756  -15.7253   22.5729 N   0  0  0  0  0  0  0  0  0  0  0  0
    8.7370  -15.1907   23.2043 C   0  0  1  0  0  0  0  0  0  0  0  0
    8.6593  -15.3565   24.6919 C   0  0  0  0  0  0  0  0  0  0  0  0
    7.4291  -14.8117   25.2919 C   0  0  0  0  0  0  0  0  0  0  0  0
    6.4513  -15.5616   25.9309 C   0  0  0  0  0  0  0  0  0  0  0  0
    5.4902  -14.7381   26.3742 N   0  0  0  0  0  0  0  0  0  0  0  0
    5.7945  -13.4640   26.0513 C   0  0  0  0  0  0  0  0  0  0  0  0
    5.1041  -12.2947   26.2945 C   0  0  0  0  0  0  0  0  0  0  0  0
    5.6262  -11.1096   25.8518 C   0  0  0  0  0  0  0  0  0  0  0  0
    6.8261  -11.1159   25.1754 C   0  0  0  0  0  0  0  0  0  0  0  0
    7.5150  -12.2953   24.9345 C   0  0  0  0  0  0  0  0  0  0  0  0
    6.9984  -13.5070   25.3785 C   0  0  0  0  0  0  0  0  0  0  0  0
    9.9427  -15.8244   22.6286 C   0  0  0  0  0  0  0  0  0  0  0  0
    9.8129  -16.7001   21.7471 O   0  0  0  0  0  0  0  0  0  0  0  0
   11.7623  -16.2421   30.7752 O   0  0  0  0  0  0  0  0  0  0  0  0
   11.4552  -16.0729   29.4293 C   0  0  0  0  0  0  0  0  0  0  0  0
   10.8771  -14.9165   28.9497 C   0  0  0  0  0  0  0  0  0  0  0  0
   10.5634  -14.7192   27.6342 C   0  0  0  0  0  0  0  0  0  0  0  0
   10.8474  -15.7494   26.7363 C   0  0  0  0  0  0  0  0  0  0  0  0
   10.5461  -15.6356   25.3119 C   0  0  0  0  0  0  0  0  0  0  0  0
   11.7400  -15.6817   24.3938 C   0  0  2  0  0  0  0  0  0  0  0  0
   11.2372  -15.4570   23.0577 N   0  0  0  0  0  0  0  0  0  0  0  0
   12.4567  -16.9766   24.4380 C   0  0  0  0  0  0  0  0  0  0  0  0
   13.2486  -17.2100   25.3861 O   0  0  0  0  0  0  0  0  0  0  0  0
   11.4276  -16.9169   27.2009 C   0  0  0  0  0  0  0  0  0  0  0  0
   11.7351  -17.0924   28.5346 C   0  0  0  0  0  0  0  0  0  0  0  0
   12.3820  -19.4013   21.2576 O   0  0  0  0  0  0  0  0  0  0  0  0
   12.4746  -20.1614   22.4266 C   0  0  0  0  0  0  0  0  0  0  0  0
   12.9450  -19.2332   23.5301 C   0  0  2  0  0  0  0  0  0  0  0  0
   12.2658  -17.9624   23.4268 N   0  0  0  0  0  0  0  0  0  0  0  0
   14.4073  -19.0584   23.4581 C   0  0  0  0  0  0  0  0  0  0  0  0
   14.8917  -17.9155   23.3339 O   0  0  0  0  0  0  0  0  0  0  0  0
   15.2524  -20.1545   23.5272 O   0  0  0  0  0  0  0  0  0  0  0  0
  2  1  1  6
  3  2  1  0
  4  3  1  0
  4  5  2  0
  6  5  1  0
  7  6  1  0
  8  7  2  0
  9  8  1  0
 10  9  2  0
 10 11  1  0
 11 12  2  0
 12  7  1  0
 12  4  1  0
 13  2  1  0
 14 13  2  0
 16 15  1  0
 16 17  2  0
 18 17  1  0
 19 18  2  0
 20 19  1  0
 21 20  1  1
 21 22  1  0
 22 13  1  0
 23 21  1  0
 24 23  2  0
 25 26  2  0
 25 19  1  0
 26 16  1  0
 27 28  1  0
 29 28  1  6
 29 30  1  0
 30 23  1  0
 31 33  1  0
 31 29  1  0
 32 31  2  0
M  END
$$$$
