WYS.pdb
     RDKit          3D

 33 35  0  0  1  0  0  0  0  0999 V2000
    6.9459  -19.2008   25.4871 N   0  0  0  0  0  0  0  0  0  0  0  0
    6.9161  -17.7951   25.2497 C   0  0  1  0  0  0  0  0  0  0  0  0
    7.5436  -17.0486   26.3878 C   0  0  0  0  0  0  0  0  0  0  0  0
    7.1284  -15.6382   26.4805 C   0  0  0  0  0  0  0  0  0  0  0  0
    5.8254  -15.1780   26.3494 C   0  0  0  0  0  0  0  0  0  0  0  0
    5.8140  -13.8473   26.5151 N   0  0  0  0  0  0  0  0  0  0  0  0
    7.0664  -13.4049   26.7518 C   0  0  0  0  0  0  0  0  0  0  0  0
    7.5315  -12.1254   26.9742 C   0  0  0  0  0  0  0  0  0  0  0  0
    8.8697  -11.9313   27.1851 C   0  0  0  0  0  0  0  0  0  0  0  0
    9.7160  -13.0179   27.1695 C   0  0  0  0  0  0  0  0  0  0  0  0
    9.2416  -14.3018   26.9454 C   0  0  0  0  0  0  0  0  0  0  0  0
    7.8849  -14.5155   26.7304 C   0  0  0  0  0  0  0  0  0  0  0  0
    7.5694  -17.5032   23.9556 C   0  0  0  0  0  0  0  0  0  0  0  0
    8.3958  -18.3161   23.4894 O   0  0  0  0  0  0  0  0  0  0  0  0
    8.2323  -13.3955   16.1090 O   0  0  0  0  0  0  0  0  0  0  0  0
    7.9399  -13.7312   17.4267 C   0  0  0  0  0  0  0  0  0  0  0  0
    8.0700  -12.8263   18.4591 C   0  0  0  0  0  0  0  0  0  0  0  0
    7.7910  -13.1246   19.7634 C   0  0  0  0  0  0  0  0  0  0  0  0
    7.3515  -14.4168   20.0554 C   0  0  0  0  0  0  0  0  0  0  0  0
    7.0320  -14.8329   21.4182 C   0  0  0  0  0  0  0  0  0  0  0  0
    7.8110  -16.0163   21.9314 C   0  0  2  0  0  0  0  0  0  0  0  0
    7.2755  -16.3226   23.2382 N   0  0  0  0  0  0  0  0  0  0  0  0
    9.2631  -15.7503   22.0451 C   0  0  0  0  0  0  0  0  0  0  0  0
    9.9260  -15.4977   21.0072 O   0  0  0  0  0  0  0  0  0  0  0  0
    7.2155  -15.3375   19.0310 C   0  0  0  0  0  0  0  0  0  0  0  0
    7.5036  -15.0121   17.7213 C   0  0  0  0  0  0  0  0  0  0  0  0
   11.2078  -16.4776   25.4777 O   0  0  0  0  0  0  0  0  0  0  0  0
   11.7482  -15.3536   24.8474 C   0  0  0  0  0  0  0  0  0  0  0  0
   11.3156  -15.4015   23.3945 C   0  0  2  0  0  0  0  0  0  0  0  0
    9.9228  -15.7752   23.3081 N   0  0  0  0  0  0  0  0  0  0  0  0
   12.1636  -16.3448   22.6427 C   0  0  0  0  0  0  0  0  0  0  0  0
   13.4002  -16.1831   22.6150 O   0  0  0  0  0  0  0  0  0  0  0  0
   11.5992  -17.4131   21.9641 O   0  0  0  0  0  0  0  0  0  0  0  0
  2  1  1  1
  3  2  1  0
  4  3  1  0
  4  5  2  0
  6  5  1  0
  7  6  1  0
  8  7  2  0
  9  8  1  0
 10  9  2  0
 10 11  1  0
 11 12  2  0
 12  7  1  0
 12  4  1  0
 13  2  1  0
 14 13  2  0
 16 15  1  0
 16 17  2  0
 18 17  1  0
 19 18  2  0
 20 19  1  0
 21 20  1  1
 21 22  1  0
 22 13  1  0
 23 21  1  0
 24 23  2  0
 25 26  2  0
 25 19  1  0
 26 16  1  0
 27 28  1  0
 29 28  1  1
 29 30  1  0
 30 23  1  0
 31 33  1  0
 31 29  1  0
 32 31  2  0
M  END
$$$$
