WYS.pdb
     RDKit          3D

 33 35  0  0  1  0  0  0  0  0999 V2000
    8.5996  -16.9168   22.5485 N   0  0  0  0  0  0  0  0  0  0  0  0
    9.1457  -15.6351   22.8529 C   0  0  1  0  0  0  0  0  0  0  0  0
    8.1123  -14.5622   22.6875 C   0  0  0  0  0  0  0  0  0  0  0  0
    7.5636  -14.4640   21.3239 C   0  0  0  0  0  0  0  0  0  0  0  0
    6.4784  -15.1850   20.8449 C   0  0  0  0  0  0  0  0  0  0  0  0
    6.2426  -14.8257   19.5746 N   0  0  0  0  0  0  0  0  0  0  0  0
    7.1349  -13.8895   19.1905 C   0  0  0  0  0  0  0  0  0  0  0  0
    7.2790  -13.2394   17.9824 C   0  0  0  0  0  0  0  0  0  0  0  0
    8.2837  -12.3216   17.8366 C   0  0  0  0  0  0  0  0  0  0  0  0
    9.1238  -12.0718   18.8992 C   0  0  0  0  0  0  0  0  0  0  0  0
    8.9731  -12.7291   20.1112 C   0  0  0  0  0  0  0  0  0  0  0  0
    7.9570  -13.6634   20.2754 C   0  0  0  0  0  0  0  0  0  0  0  0
    9.7207  -15.6590   24.2150 C   0  0  0  0  0  0  0  0  0  0  0  0
   10.6433  -14.8679   24.5045 O   0  0  0  0  0  0  0  0  0  0  0  0
    6.0419  -11.2983   26.6017 O   0  0  0  0  0  0  0  0  0  0  0  0
    6.6669  -12.5226   26.8136 C   0  0  0  0  0  0  0  0  0  0  0  0
    7.9220  -12.6163   27.3769 C   0  0  0  0  0  0  0  0  0  0  0  0
    8.5629  -13.8030   27.5983 C   0  0  0  0  0  0  0  0  0  0  0  0
    7.9031  -14.9770   27.2311 C   0  0  0  0  0  0  0  0  0  0  0  0
    8.5063  -16.2928   27.4236 C   0  0  0  0  0  0  0  0  0  0  0  0
    9.7078  -16.5846   26.5622 C   0  0  2  0  0  0  0  0  0  0  0  0
    9.2451  -16.5597   25.1934 N   0  0  0  0  0  0  0  0  0  0  0  0
   10.3223  -17.9007   26.8497 C   0  0  0  0  0  0  0  0  0  0  0  0
   10.3314  -18.3313   28.0308 O   0  0  0  0  0  0  0  0  0  0  0  0
    6.6427  -14.9008   26.6644 C   0  0  0  0  0  0  0  0  0  0  0  0
    6.0161  -13.6901   26.4509 C   0  0  0  0  0  0  0  0  0  0  0  0
   11.9581  -20.1349   23.8379 O   0  0  0  0  0  0  0  0  0  0  0  0
   11.4245  -20.8719   24.8984 C   0  0  0  0  0  0  0  0  0  0  0  0
   11.4610  -19.9830   26.1268 C   0  0  2  0  0  0  0  0  0  0  0  0
   10.9032  -18.6878   25.8134 N   0  0  0  0  0  0  0  0  0  0  0  0
   12.8441  -19.8571   26.6219 C   0  0  0  0  0  0  0  0  0  0  0  0
   13.3672  -18.7294   26.7263 O   0  0  0  0  0  0  0  0  0  0  0  0
   13.5720  -20.9826   26.9738 O   0  0  0  0  0  0  0  0  0  0  0  0
  2  1  1  1
  3  2  1  0
  4  3  1  0
  4  5  2  0
  6  5  1  0
  7  6  1  0
  8  7  2  0
  9  8  1  0
 10  9  2  0
 10 11  1  0
 11 12  2  0
 12  7  1  0
 12  4  1  0
 13  2  1  0
 14 13  2  0
 16 15  1  0
 16 17  2  0
 18 17  1  0
 19 18  2  0
 20 19  1  0
 21 20  1  1
 21 22  1  0
 22 13  1  0
 23 21  1  0
 24 23  2  0
 25 26  2  0
 25 19  1  0
 26 16  1  0
 27 28  1  0
 29 28  1  6
 29 30  1  0
 30 23  1  0
 31 33  1  0
 31 29  1  0
 32 31  2  0
M  END
$$$$
