WYS.pdb
     RDKit          3D

 33 35  0  0  1  0  0  0  0  0999 V2000
    5.8817  -17.4018   24.2560 N   0  0  0  0  0  0  0  0  0  0  0  0
    7.0320  -16.6795   23.8216 C   0  0  1  0  0  0  0  0  0  0  0  0
    7.7307  -16.0405   24.9834 C   0  0  0  0  0  0  0  0  0  0  0  0
    6.9116  -15.0508   25.7044 C   0  0  0  0  0  0  0  0  0  0  0  0
    5.7328  -15.3299   26.3820 C   0  0  0  0  0  0  0  0  0  0  0  0
    5.2719  -14.2004   26.9390 N   0  0  0  0  0  0  0  0  0  0  0  0
    6.1042  -13.1773   26.6547 C   0  0  0  0  0  0  0  0  0  0  0  0
    6.0312  -11.8458   27.0078 C   0  0  0  0  0  0  0  0  0  0  0  0
    7.0111  -10.9902   26.5826 C   0  0  0  0  0  0  0  0  0  0  0  0
    8.0433  -11.4809   25.8138 C   0  0  0  0  0  0  0  0  0  0  0  0
    8.1106  -12.8211   25.4627 C   0  0  0  0  0  0  0  0  0  0  0  0
    7.1235  -13.7029   25.8875 C   0  0  0  0  0  0  0  0  0  0  0  0
    7.9186  -17.5842   23.0586 C   0  0  0  0  0  0  0  0  0  0  0  0
    7.4578  -18.6516   22.6013 O   0  0  0  0  0  0  0  0  0  0  0  0
    7.0812  -13.0572   17.0224 O   0  0  0  0  0  0  0  0  0  0  0  0
    7.5241  -13.5449   18.2474 C   0  0  0  0  0  0  0  0  0  0  0  0
    8.0484  -12.7182   19.2185 C   0  0  0  0  0  0  0  0  0  0  0  0
    8.4919  -13.1657   20.4313 C   0  0  0  0  0  0  0  0  0  0  0  0
    8.4051  -14.5344   20.6910 C   0  0  0  0  0  0  0  0  0  0  0  0
    8.8562  -15.1094   21.9553 C   0  0  0  0  0  0  0  0  0  0  0  0
    9.7326  -16.3291   21.8336 C   0  0  2  0  0  0  0  0  0  0  0  0
    9.2760  -17.2624   22.8380 N   0  0  0  0  0  0  0  0  0  0  0  0
   11.1678  -16.0366   22.0505 C   0  0  0  0  0  0  0  0  0  0  0  0
   11.7793  -15.3093   21.2272 O   0  0  0  0  0  0  0  0  0  0  0  0
    7.8815  -15.3783   19.7271 C   0  0  0  0  0  0  0  0  0  0  0  0
    7.4401  -14.9022   18.5095 C   0  0  0  0  0  0  0  0  0  0  0  0
   13.1743  -17.8841   25.0184 O   0  0  0  0  0  0  0  0  0  0  0  0
   13.6697  -16.5963   24.7969 C   0  0  0  0  0  0  0  0  0  0  0  0
   13.2440  -16.1850   23.4005 C   0  0  2  0  0  0  0  0  0  0  0  0
   11.8684  -16.5636   23.1740 N   0  0  0  0  0  0  0  0  0  0  0  0
   14.1332  -16.7985   22.3970 C   0  0  0  0  0  0  0  0  0  0  0  0
   13.6466  -17.4387   21.4433 O   0  0  0  0  0  0  0  0  0  0  0  0
   15.5091  -16.6709   22.5025 O   0  0  0  0  0  0  0  0  0  0  0  0
  2  1  1  1
  3  2  1  0
  4  3  1  0
  4  5  2  0
  6  5  1  0
  7  6  1  0
  8  7  2  0
  9  8  1  0
 10  9  2  0
 10 11  1  0
 11 12  2  0
 12  7  1  0
 12  4  1  0
 13  2  1  0
 14 13  2  0
 16 15  1  0
 16 17  2  0
 18 17  1  0
 19 18  2  0
 20 19  1  0
 21 20  1  1
 21 22  1  0
 22 13  1  0
 23 21  1  0
 24 23  2  0
 25 26  2  0
 25 19  1  0
 26 16  1  0
 27 28  1  0
 29 28  1  1
 29 30  1  0
 30 23  1  0
 31 33  1  0
 31 29  1  0
 32 31  2  0
M  END
$$$$
