WYS.pdb
     RDKit          3D

 33 35  0  0  1  0  0  0  0  0999 V2000
    8.6388  -17.1742   23.6119 N   0  0  0  0  0  0  0  0  0  0  0  0
    9.0106  -15.8950   24.1206 C   0  0  1  0  0  0  0  0  0  0  0  0
    8.5139  -15.7138   25.5230 C   0  0  0  0  0  0  0  0  0  0  0  0
    7.2834  -14.9102   25.6236 C   0  0  0  0  0  0  0  0  0  0  0  0
    5.9937  -15.4228   25.6506 C   0  0  0  0  0  0  0  0  0  0  0  0
    5.1240  -14.4094   25.7729 N   0  0  0  0  0  0  0  0  0  0  0  0
    5.7911  -13.2380   25.8278 C   0  0  0  0  0  0  0  0  0  0  0  0
    5.3167  -11.9479   25.9451 C   0  0  0  0  0  0  0  0  0  0  0  0
    6.2093  -10.9108   25.9712 C   0  0  0  0  0  0  0  0  0  0  0  0
    7.5566  -11.1824   25.8796 C   0  0  0  0  0  0  0  0  0  0  0  0
    8.0266  -12.4821   25.7620 C   0  0  0  0  0  0  0  0  0  0  0  0
    7.1328  -13.5463   25.7348 C   0  0  0  0  0  0  0  0  0  0  0  0
   10.4768  -15.7341   24.0165 C   0  0  0  0  0  0  0  0  0  0  0  0
   10.9487  -14.6329   23.6622 O   0  0  0  0  0  0  0  0  0  0  0  0
   10.0467  -15.4895   30.3089 O   0  0  0  0  0  0  0  0  0  0  0  0
   10.7903  -15.9258   29.2175 C   0  0  0  0  0  0  0  0  0  0  0  0
   11.6235  -15.0816   28.5144 C   0  0  0  0  0  0  0  0  0  0  0  0
   12.3669  -15.4790   27.4386 C   0  0  0  0  0  0  0  0  0  0  0  0
   12.2705  -16.8127   27.0383 C   0  0  0  0  0  0  0  0  0  0  0  0
   13.0218  -17.3320   25.8988 C   0  0  0  0  0  0  0  0  0  0  0  0
   12.7616  -16.6413   24.5851 C   0  0  2  0  0  0  0  0  0  0  0  0
   11.3521  -16.8029   24.3105 N   0  0  0  0  0  0  0  0  0  0  0  0
   13.5487  -17.2072   23.4659 C   0  0  0  0  0  0  0  0  0  0  0  0
   14.8013  -17.2595   23.5586 O   0  0  0  0  0  0  0  0  0  0  0  0
   11.4388  -17.6736   27.7331 C   0  0  0  0  0  0  0  0  0  0  0  0
   10.6979  -17.2483   28.8167 C   0  0  0  0  0  0  0  0  0  0  0  0
   11.7431  -18.4187   19.9567 O   0  0  0  0  0  0  0  0  0  0  0  0
   12.8634  -19.1545   20.3522 C   0  0  0  0  0  0  0  0  0  0  0  0
   13.7144  -18.2464   21.2192 C   0  0  2  0  0  0  0  0  0  0  0  0
   12.9133  -17.6931   22.2864 N   0  0  0  0  0  0  0  0  0  0  0  0
   14.3141  -17.1774   20.3997 C   0  0  0  0  0  0  0  0  0  0  0  0
   14.0827  -15.9819   20.6708 O   0  0  0  0  0  0  0  0  0  0  0  0
   15.1351  -17.4879   19.3274 O   0  0  0  0  0  0  0  0  0  0  0  0
  2  1  1  1
  3  2  1  0
  4  3  1  0
  4  5  2  0
  6  5  1  0
  7  6  1  0
  8  7  2  0
  9  8  1  0
 10  9  2  0
 10 11  1  0
 11 12  2  0
 12  7  1  0
 12  4  1  0
 13  2  1  0
 14 13  2  0
 16 15  1  0
 16 17  2  0
 18 17  1  0
 19 18  2  0
 20 19  1  0
 21 20  1  1
 21 22  1  0
 22 13  1  0
 23 21  1  0
 24 23  2  0
 25 26  2  0
 25 19  1  0
 26 16  1  0
 27 28  1  0
 29 28  1  6
 29 30  1  0
 30 23  1  0
 31 33  1  0
 31 29  1  0
 32 31  2  0
M  END
$$$$
