WYS.pdb
     RDKit          3D

 33 35  0  0  1  0  0  0  0  0999 V2000
    6.8695  -17.9176   25.9344 N   0  0  0  0  0  0  0  0  0  0  0  0
    7.2058  -16.6439   25.3883 C   0  0  1  0  0  0  0  0  0  0  0  0
    8.4467  -16.0999   26.0290 C   0  0  0  0  0  0  0  0  0  0  0  0
    8.2008  -14.9848   26.9598 C   0  0  0  0  0  0  0  0  0  0  0  0
    8.7328  -14.8778   28.2374 C   0  0  0  0  0  0  0  0  0  0  0  0
    8.3188  -13.7269   28.7872 N   0  0  0  0  0  0  0  0  0  0  0  0
    7.5280  -13.0632   27.9186 C   0  0  0  0  0  0  0  0  0  0  0  0
    6.8786  -11.8534   28.0514 C   0  0  0  0  0  0  0  0  0  0  0  0
    6.1168  -11.3899   27.0131 C   0  0  0  0  0  0  0  0  0  0  0  0
    6.0188  -12.1433   25.8642 C   0  0  0  0  0  0  0  0  0  0  0  0
    6.6746  -13.3588   25.7375 C   0  0  0  0  0  0  0  0  0  0  0  0
    7.4528  -13.8428   26.7827 C   0  0  0  0  0  0  0  0  0  0  0  0
    7.3336  -16.7593   23.9197 C   0  0  0  0  0  0  0  0  0  0  0  0
    7.5093  -17.8848   23.4066 O   0  0  0  0  0  0  0  0  0  0  0  0
    8.6471  -13.1294   15.8374 O   0  0  0  0  0  0  0  0  0  0  0  0
    8.2657  -13.4324   17.1402 C   0  0  0  0  0  0  0  0  0  0  0  0
    7.4541  -14.5077   17.4343 C   0  0  0  0  0  0  0  0  0  0  0  0
    7.0618  -14.8321   18.7027 C   0  0  0  0  0  0  0  0  0  0  0  0
    7.5121  -14.0256   19.7491 C   0  0  0  0  0  0  0  0  0  0  0  0
    7.1446  -14.2880   21.1379 C   0  0  0  0  0  0  0  0  0  0  0  0
    7.5742  -15.6278   21.6773 C   0  0  2  0  0  0  0  0  0  0  0  0
    7.2603  -15.6202   23.0879 N   0  0  0  0  0  0  0  0  0  0  0  0
    9.0203  -15.8897   21.4968 C   0  0  0  0  0  0  0  0  0  0  0  0
    9.8523  -15.2617   22.1995 O   0  0  0  0  0  0  0  0  0  0  0  0
    8.3275  -12.9422   19.4714 C   0  0  0  0  0  0  0  0  0  0  0  0
    8.7101  -12.6351   18.1817 C   0  0  0  0  0  0  0  0  0  0  0  0
   10.3536  -19.2574   19.9205 O   0  0  0  0  0  0  0  0  0  0  0  0
   11.2869  -18.4628   20.5915 C   0  0  0  0  0  0  0  0  0  0  0  0
   10.9062  -17.0157   20.3433 C   0  0  2  0  0  0  0  0  0  0  0  0
    9.4862  -16.8396   20.5420 N   0  0  0  0  0  0  0  0  0  0  0  0
   11.3035  -16.6123   18.9819 C   0  0  0  0  0  0  0  0  0  0  0  0
   10.4348  -16.2571   18.1601 O   0  0  0  0  0  0  0  0  0  0  0  0
   12.6367  -16.6235   18.6043 O   0  0  0  0  0  0  0  0  0  0  0  0
  2  1  1  1
  3  2  1  0
  4  3  1  0
  4  5  2  0
  6  5  1  0
  7  6  1  0
  8  7  2  0
  9  8  1  0
 10  9  2  0
 10 11  1  0
 11 12  2  0
 12  7  1  0
 12  4  1  0
 13  2  1  0
 14 13  2  0
 16 15  1  0
 16 17  2  0
 18 17  1  0
 19 18  2  0
 20 19  1  0
 21 20  1  1
 21 22  1  0
 22 13  1  0
 23 21  1  0
 24 23  2  0
 25 26  2  0
 25 19  1  0
 26 16  1  0
 27 28  1  0
 29 28  1  6
 29 30  1  0
 30 23  1  0
 31 33  1  0
 31 29  1  0
 32 31  2  0
M  END
$$$$
