KFC.pdb
     RDKit          3D

 27 27  0  0  1  0  0  0  0  0999 V2000
   28.1998  -22.9672  -17.8328 N   0  0  0  0  0  0  0  0  0  0  0  0
   27.7914  -21.7115  -17.2634 C   0  0  1  0  0  0  0  0  0  0  0  0
   27.1018  -20.8084  -18.2161 C   0  0  0  0  0  0  0  0  0  0  0  0
   27.9530  -20.0855  -19.1966 C   0  0  0  0  0  0  0  0  0  0  0  0
   29.4120  -20.0678  -18.8867 C   0  0  0  0  0  0  0  0  0  0  0  0
   30.0946  -18.8589  -19.5542 C   0  0  0  0  0  0  0  0  0  0  0  0
   30.0854  -18.9786  -20.9828 N   0  0  0  0  0  0  0  0  0  0  0  0
   26.9716  -22.0209  -16.0601 C   0  0  0  0  0  0  0  0  0  0  0  0
   26.1845  -22.9873  -15.9828 O   0  0  0  0  0  0  0  0  0  0  0  0
   27.0975  -21.1655  -14.9437 N   0  0  0  0  0  0  0  0  0  0  0  0
   26.2653  -21.2385  -13.7657 C   0  0  1  0  0  0  0  0  0  0  0  0
   26.8838  -20.3835  -12.7008 C   0  0  0  0  0  0  0  0  0  0  0  0
   26.1837  -20.4375  -11.4159 C   0  0  0  0  0  0  0  0  0  0  0  0
   25.4033  -19.3611  -11.0442 C   0  0  0  0  0  0  0  0  0  0  0  0
   24.7088  -19.3387   -9.8405 C   0  0  0  0  0  0  0  0  0  0  0  0
   24.7881  -20.4095   -8.9809 C   0  0  0  0  0  0  0  0  0  0  0  0
   25.5552  -21.4830   -9.3318 C   0  0  0  0  0  0  0  0  0  0  0  0
   26.2410  -21.4950  -10.5300 C   0  0  0  0  0  0  0  0  0  0  0  0
   24.8929  -20.7800  -13.9953 C   0  0  0  0  0  0  0  0  0  0  0  0
   24.5595  -19.7307  -14.5959 O   0  0  0  0  0  0  0  0  0  0  0  0
   23.8276  -21.5810  -13.5014 N   0  0  0  0  0  0  0  0  0  0  0  0
   22.4528  -21.1656  -13.5874 C   0  0  1  0  0  0  0  0  0  0  0  0
   21.6701  -22.3369  -14.1790 C   0  0  0  0  0  0  0  0  0  0  0  0
   19.9042  -22.0384  -14.1617 S   0  0  0  0  0  0  0  0  0  0  0  0
   21.8898  -20.7046  -12.3285 C   0  0  0  0  0  0  0  0  0  0  0  0
   22.1908  -21.2655  -11.2542 O   0  0  0  0  0  0  0  0  0  0  0  0
   21.0145  -19.6395  -12.3079 O   0  0  0  0  0  0  0  0  0  0  0  0
  2  1  1  6
  2  3  1  0
  3  4  1  0
  4  5  1  0
  5  6  1  0
  6  7  1  0
  8  2  1  0
  9  8  2  0
 10  8  1  0
 11 10  1  0
 11 12  1  1
 12 13  1  0
 13 14  2  0
 14 15  1  0
 16 15  2  0
 17 16  1  0
 18 13  1  0
 18 17  2  0
 19 20  2  0
 19 11  1  0
 21 19  1  0
 22 21  1  0
 22 23  1  1
 24 23  1  0
 25 27  1  0
 25 22  1  0
 26 25  2  0
M  END
$$$$
