KFC.pdb
     RDKit          3D

 27 27  0  0  1  0  0  0  0  0999 V2000
   21.6327  -20.2344  -14.7734 N   0  0  0  0  0  0  0  0  0  0  0  0
   21.3363  -19.4399  -15.9348 C   0  0  1  0  0  0  0  0  0  0  0  0
   19.9077  -19.4541  -16.3317 C   0  0  0  0  0  0  0  0  0  0  0  0
   18.9265  -19.8894  -15.3040 C   0  0  0  0  0  0  0  0  0  0  0  0
   19.0952  -21.2866  -14.8096 C   0  0  0  0  0  0  0  0  0  0  0  0
   17.8630  -21.7279  -13.9971 C   0  0  0  0  0  0  0  0  0  0  0  0
   18.0633  -23.0189  -13.4067 N   0  0  0  0  0  0  0  0  0  0  0  0
   21.8521  -18.0685  -15.6720 C   0  0  0  0  0  0  0  0  0  0  0  0
   21.5683  -17.4001  -14.6560 O   0  0  0  0  0  0  0  0  0  0  0  0
   22.7128  -17.4966  -16.6341 N   0  0  0  0  0  0  0  0  0  0  0  0
   23.2969  -16.1806  -16.5222 C   0  0  1  0  0  0  0  0  0  0  0  0
   24.6857  -16.2344  -17.0844 C   0  0  0  0  0  0  0  0  0  0  0  0
   25.5970  -15.2426  -16.5100 C   0  0  0  0  0  0  0  0  0  0  0  0
   26.3176  -14.4348  -17.3667 C   0  0  0  0  0  0  0  0  0  0  0  0
   27.2019  -13.4709  -16.8969 C   0  0  0  0  0  0  0  0  0  0  0  0
   27.3785  -13.3010  -15.5435 C   0  0  0  0  0  0  0  0  0  0  0  0
   26.6742  -14.0910  -14.6811 C   0  0  0  0  0  0  0  0  0  0  0  0
   25.7982  -15.0456  -15.1583 C   0  0  0  0  0  0  0  0  0  0  0  0
   22.5426  -15.1480  -17.2373 C   0  0  0  0  0  0  0  0  0  0  0  0
   22.0484  -15.2609  -18.3844 O   0  0  0  0  0  0  0  0  0  0  0  0
   22.3406  -13.8980  -16.5916 N   0  0  0  0  0  0  0  0  0  0  0  0
   21.6310  -12.8161  -17.2209 C   0  0  1  0  0  0  0  0  0  0  0  0
   20.6315  -12.2832  -16.1954 C   0  0  0  0  0  0  0  0  0  0  0  0
   19.8356  -10.7796  -16.7555 S   0  0  0  0  0  0  0  0  0  0  0  0
   22.4894  -11.7692  -17.7514 C   0  0  0  0  0  0  0  0  0  0  0  0
   22.0413  -10.9274  -18.5576 O   0  0  0  0  0  0  0  0  0  0  0  0
   23.8118  -11.6949  -17.3684 O   0  0  0  0  0  0  0  0  0  0  0  0
  2  1  1  1
  2  3  1  0
  3  4  1  0
  4  5  1  0
  5  6  1  0
  6  7  1  0
  8  2  1  0
  9  8  2  0
 10  8  1  0
 11 10  1  0
 11 12  1  6
 12 13  1  0
 13 14  2  0
 14 15  1  0
 16 15  2  0
 17 16  1  0
 18 13  1  0
 18 17  2  0
 19 20  2  0
 19 11  1  0
 21 19  1  0
 22 21  1  0
 22 23  1  1
 24 23  1  0
 25 27  1  0
 25 22  1  0
 26 25  2  0
M  END
$$$$
