KFC.pdb
     RDKit          3D

 27 27  0  0  1  0  0  0  0  0999 V2000
   21.7209  -20.5016   -9.2096 N   0  0  0  0  0  0  0  0  0  0  0  0
   22.3736  -21.2909  -10.2189 C   0  0  1  0  0  0  0  0  0  0  0  0
   21.5102  -21.6325  -11.3751 C   0  0  0  0  0  0  0  0  0  0  0  0
   20.1465  -22.1391  -11.0720 C   0  0  0  0  0  0  0  0  0  0  0  0
   20.0497  -23.6067  -10.8231 C   0  0  0  0  0  0  0  0  0  0  0  0
   18.5986  -24.0080  -10.4970 C   0  0  0  0  0  0  0  0  0  0  0  0
   18.4853  -25.4202  -10.2776 N   0  0  0  0  0  0  0  0  0  0  0  0
   23.6109  -20.5635  -10.6134 C   0  0  0  0  0  0  0  0  0  0  0  0
   23.6383  -19.3556  -10.9292 O   0  0  0  0  0  0  0  0  0  0  0  0
   24.8215  -21.2900  -10.6288 N   0  0  0  0  0  0  0  0  0  0  0  0
   26.0709  -20.7770  -11.1399 C   0  0  1  0  0  0  0  0  0  0  0  0
   27.1842  -21.3391  -10.3078 C   0  0  0  0  0  0  0  0  0  0  0  0
   27.3645  -20.6612   -9.0225 C   0  0  0  0  0  0  0  0  0  0  0  0
   26.6143  -19.5321   -8.7615 C   0  0  0  0  0  0  0  0  0  0  0  0
   26.7295  -18.8346   -7.5648 C   0  0  0  0  0  0  0  0  0  0  0  0
   27.6103  -19.2651   -6.6000 C   0  0  0  0  0  0  0  0  0  0  0  0
   28.3606  -20.3800   -6.8407 C   0  0  0  0  0  0  0  0  0  0  0  0
   28.2383  -21.0655   -8.0329 C   0  0  0  0  0  0  0  0  0  0  0  0
   26.3121  -21.1274  -12.5419 C   0  0  0  0  0  0  0  0  0  0  0  0
   26.2127  -22.2739  -13.0404 O   0  0  0  0  0  0  0  0  0  0  0  0
   26.6943  -20.0900  -13.4354 N   0  0  0  0  0  0  0  0  0  0  0  0
   26.5363  -20.2091  -14.8605 C   0  0  1  0  0  0  0  0  0  0  0  0
   25.2211  -19.5205  -15.2217 C   0  0  0  0  0  0  0  0  0  0  0  0
   24.9461  -19.4891  -16.9912 S   0  0  0  0  0  0  0  0  0  0  0  0
   27.6583  -19.6952  -15.6294 C   0  0  0  0  0  0  0  0  0  0  0  0
   28.3663  -18.7698  -15.1801 O   0  0  0  0  0  0  0  0  0  0  0  0
   27.9533  -20.2262  -16.8672 O   0  0  0  0  0  0  0  0  0  0  0  0
  2  1  1  1
  2  3  1  0
  3  4  1  0
  4  5  1  0
  5  6  1  0
  6  7  1  0
  8  2  1  0
  9  8  2  0
 10  8  1  0
 11 10  1  0
 11 12  1  1
 12 13  1  0
 13 14  2  0
 14 15  1  0
 16 15  2  0
 17 16  1  0
 18 13  1  0
 18 17  2  0
 19 20  2  0
 19 11  1  0
 21 19  1  0
 22 21  1  0
 22 23  1  6
 24 23  1  0
 25 27  1  0
 25 22  1  0
 26 25  2  0
M  END
$$$$
