KFC.pdb
     RDKit          3D

 27 27  0  0  1  0  0  0  0  0999 V2000
   23.4551  -14.4207  -17.3920 N   0  0  0  0  0  0  0  0  0  0  0  0
   22.4056  -13.4525  -17.5624 C   0  0  1  0  0  0  0  0  0  0  0  0
   21.0377  -14.0178  -17.4734 C   0  0  0  0  0  0  0  0  0  0  0  0
   20.6851  -15.0865  -18.4440 C   0  0  0  0  0  0  0  0  0  0  0  0
   20.6433  -14.6638  -19.8739 C   0  0  0  0  0  0  0  0  0  0  0  0
   20.2040  -15.8343  -20.7739 C   0  0  0  0  0  0  0  0  0  0  0  0
   20.0324  -15.4108  -22.1328 N   0  0  0  0  0  0  0  0  0  0  0  0
   22.6487  -12.3634  -16.5773 C   0  0  0  0  0  0  0  0  0  0  0  0
   22.7047  -12.5405  -15.3424 O   0  0  0  0  0  0  0  0  0  0  0  0
   22.8255  -11.0548  -17.0774 N   0  0  0  0  0  0  0  0  0  0  0  0
   23.0366   -9.8900  -16.2502 C   0  0  1  0  0  0  0  0  0  0  0  0
   24.3233   -9.2444  -16.6688 C   0  0  0  0  0  0  0  0  0  0  0  0
   25.5099  -10.0607  -16.4049 C   0  0  0  0  0  0  0  0  0  0  0  0
   25.9862  -10.1330  -15.1112 C   0  0  0  0  0  0  0  0  0  0  0  0
   27.1068  -10.8867  -14.7825 C   0  0  0  0  0  0  0  0  0  0  0  0
   27.7745  -11.5880  -15.7593 C   0  0  0  0  0  0  0  0  0  0  0  0
   27.3178  -11.5283  -17.0445 C   0  0  0  0  0  0  0  0  0  0  0  0
   26.2036  -10.7765  -17.3602 C   0  0  0  0  0  0  0  0  0  0  0  0
   21.9611   -8.9008  -16.3553 C   0  0  0  0  0  0  0  0  0  0  0  0
   21.3936   -8.5421  -17.4146 O   0  0  0  0  0  0  0  0  0  0  0  0
   21.5039   -8.2790  -15.1616 N   0  0  0  0  0  0  0  0  0  0  0  0
   20.4913   -7.2569  -15.1692 C   0  0  1  0  0  0  0  0  0  0  0  0
   19.8669   -7.2387  -13.7748 C   0  0  0  0  0  0  0  0  0  0  0  0
   19.0854   -8.7988  -13.3711 S   0  0  0  0  0  0  0  0  0  0  0  0
   20.9707   -5.9462  -15.5770 C   0  0  0  0  0  0  0  0  0  0  0  0
   22.1831   -5.7563  -15.8085 O   0  0  0  0  0  0  0  0  0  0  0  0
   20.0884   -4.8954  -15.7129 O   0  0  0  0  0  0  0  0  0  0  0  0
  2  1  1  1
  2  3  1  0
  3  4  1  0
  4  5  1  0
  5  6  1  0
  6  7  1  0
  8  2  1  0
  9  8  2  0
 10  8  1  0
 11 10  1  0
 11 12  1  6
 12 13  1  0
 13 14  2  0
 14 15  1  0
 16 15  2  0
 17 16  1  0
 18 13  1  0
 18 17  2  0
 19 20  2  0
 19 11  1  0
 21 19  1  0
 22 21  1  0
 22 23  1  1
 24 23  1  0
 25 27  1  0
 25 22  1  0
 26 25  2  0
M  END
$$$$
