KFC.pdb
     RDKit          3D

 27 27  0  0  1  0  0  0  0  0999 V2000
   28.8661  -22.4391  -17.8426 N   0  0  0  0  0  0  0  0  0  0  0  0
   28.1732  -21.2653  -17.3844 C   0  0  1  0  0  0  0  0  0  0  0  0
   27.3542  -20.5986  -18.4252 C   0  0  0  0  0  0  0  0  0  0  0  0
   28.0715  -19.7276  -19.3924 C   0  0  0  0  0  0  0  0  0  0  0  0
   29.2068  -18.9426  -18.8268 C   0  0  0  0  0  0  0  0  0  0  0  0
   29.3245  -17.5757  -19.5274 C   0  0  0  0  0  0  0  0  0  0  0  0
   28.5493  -17.5396  -20.7328 N   0  0  0  0  0  0  0  0  0  0  0  0
   27.3809  -21.6620  -16.1883 C   0  0  0  0  0  0  0  0  0  0  0  0
   26.7127  -22.7144  -16.1127 O   0  0  0  0  0  0  0  0  0  0  0  0
   27.3908  -20.7908  -15.0772 N   0  0  0  0  0  0  0  0  0  0  0  0
   26.6122  -20.9940  -13.8780 C   0  0  1  0  0  0  0  0  0  0  0  0
   27.2267  -20.1830  -12.7768 C   0  0  0  0  0  0  0  0  0  0  0  0
   26.5963  -20.3828  -11.4704 C   0  0  0  0  0  0  0  0  0  0  0  0
   25.6897  -19.4419  -11.0248 C   0  0  0  0  0  0  0  0  0  0  0  0
   25.0507  -19.5622   -9.7964 C   0  0  0  0  0  0  0  0  0  0  0  0
   25.3152  -20.6420   -8.9866 C   0  0  0  0  0  0  0  0  0  0  0  0
   26.2091  -21.5827   -9.4108 C   0  0  0  0  0  0  0  0  0  0  0  0
   26.8384  -21.4535  -10.6330 C   0  0  0  0  0  0  0  0  0  0  0  0
   25.2090  -20.5984  -14.0230 C   0  0  0  0  0  0  0  0  0  0  0  0
   24.7970  -19.5090  -14.4881 O   0  0  0  0  0  0  0  0  0  0  0  0
   24.2076  -21.5166  -13.6054 N   0  0  0  0  0  0  0  0  0  0  0  0
   22.8044  -21.2095  -13.6862 C   0  0  1  0  0  0  0  0  0  0  0  0
   22.0934  -22.4881  -14.1269 C   0  0  0  0  0  0  0  0  0  0  0  0
   20.3116  -22.3136  -14.0788 S   0  0  0  0  0  0  0  0  0  0  0  0
   22.2434  -20.6591  -12.4628 C   0  0  0  0  0  0  0  0  0  0  0  0
   21.4941  -19.6608  -12.4999 O   0  0  0  0  0  0  0  0  0  0  0  0
   22.5339  -21.2359  -11.2447 O   0  0  0  0  0  0  0  0  0  0  0  0
  2  1  1  6
  2  3  1  0
  3  4  1  0
  4  5  1  0
  5  6  1  0
  6  7  1  0
  8  2  1  0
  9  8  2  0
 10  8  1  0
 11 10  1  0
 11 12  1  1
 12 13  1  0
 13 14  2  0
 14 15  1  0
 16 15  2  0
 17 16  1  0
 18 13  1  0
 18 17  2  0
 19 20  2  0
 19 11  1  0
 21 19  1  0
 22 21  1  0
 22 23  1  1
 24 23  1  0
 25 27  1  0
 25 22  1  0
 26 25  2  0
M  END
$$$$
