KFC.pdb
     RDKit          3D

 27 27  0  0  1  0  0  0  0  0999 V2000
   27.8283  -23.2140  -17.6755 N   0  0  0  0  0  0  0  0  0  0  0  0
   27.4841  -21.9094  -17.1780 C   0  0  1  0  0  0  0  0  0  0  0  0
   26.7687  -21.0556  -18.1568 C   0  0  0  0  0  0  0  0  0  0  0  0
   27.5909  -20.3978  -19.2056 C   0  0  0  0  0  0  0  0  0  0  0  0
   29.0642  -20.5946  -19.0808 C   0  0  0  0  0  0  0  0  0  0  0  0
   29.8077  -19.8667  -20.2167 C   0  0  0  0  0  0  0  0  0  0  0  0
   30.7203  -18.8893  -19.6997 N   0  0  0  0  0  0  0  0  0  0  0  0
   26.7219  -22.1080  -15.9150 C   0  0  0  0  0  0  0  0  0  0  0  0
   25.7869  -22.9259  -15.7867 O   0  0  0  0  0  0  0  0  0  0  0  0
   27.0839  -21.3206  -14.8003 N   0  0  0  0  0  0  0  0  0  0  0  0
   26.3373  -21.2681  -13.5652 C   0  0  1  0  0  0  0  0  0  0  0  0
   27.1931  -20.6056  -12.5277 C   0  0  0  0  0  0  0  0  0  0  0  0
   26.5586  -20.5045  -11.2119 C   0  0  0  0  0  0  0  0  0  0  0  0
   26.5932  -21.6032  -10.3768 C   0  0  0  0  0  0  0  0  0  0  0  0
   26.0133  -21.5839   -9.1138 C   0  0  0  0  0  0  0  0  0  0  0  0
   25.3822  -20.4476   -8.6642 C   0  0  0  0  0  0  0  0  0  0  0  0
   25.3382  -19.3511   -9.4765 C   0  0  0  0  0  0  0  0  0  0  0  0
   25.9175  -19.3809  -10.7294 C   0  0  0  0  0  0  0  0  0  0  0  0
   25.0798  -20.5250  -13.6782 C   0  0  0  0  0  0  0  0  0  0  0  0
   24.9579  -19.3438  -14.0816 O   0  0  0  0  0  0  0  0  0  0  0  0
   23.8770  -21.1827  -13.3022 N   0  0  0  0  0  0  0  0  0  0  0  0
   22.6028  -20.5148  -13.3127 C   0  0  1  0  0  0  0  0  0  0  0  0
   21.8892  -20.9374  -14.5960 C   0  0  0  0  0  0  0  0  0  0  0  0
   21.5378  -22.6935  -14.6190 S   0  0  0  0  0  0  0  0  0  0  0  0
   21.7951  -20.7533  -12.1274 C   0  0  0  0  0  0  0  0  0  0  0  0
   22.1540  -21.5884  -11.2710 O   0  0  0  0  0  0  0  0  0  0  0  0
   20.6203  -20.0575  -11.9359 O   0  0  0  0  0  0  0  0  0  0  0  0
  2  1  1  6
  2  3  1  0
  3  4  1  0
  4  5  1  0
  5  6  1  0
  6  7  1  0
  8  2  1  0
  9  8  2  0
 10  8  1  0
 11 10  1  0
 11 12  1  1
 12 13  1  0
 13 14  2  0
 14 15  1  0
 16 15  2  0
 17 16  1  0
 18 13  1  0
 18 17  2  0
 19 20  2  0
 19 11  1  0
 21 19  1  0
 22 21  1  0
 22 23  1  6
 24 23  1  0
 25 27  1  0
 25 22  1  0
 26 25  2  0
M  END
$$$$
