KFC.pdb
     RDKit          3D

 27 27  0  0  1  0  0  0  0  0999 V2000
   27.6264  -22.6253  -16.8325 N   0  0  0  0  0  0  0  0  0  0  0  0
   27.7624  -21.4563  -16.0062 C   0  0  1  0  0  0  0  0  0  0  0  0
   27.5288  -20.1777  -16.7201 C   0  0  0  0  0  0  0  0  0  0  0  0
   27.5437  -20.2221  -18.2054 C   0  0  0  0  0  0  0  0  0  0  0  0
   28.8963  -20.2958  -18.8298 C   0  0  0  0  0  0  0  0  0  0  0  0
   29.1992  -19.0107  -19.6234 C   0  0  0  0  0  0  0  0  0  0  0  0
   28.5303  -19.0116  -20.8915 N   0  0  0  0  0  0  0  0  0  0  0  0
   26.8628  -21.6395  -14.8345 C   0  0  0  0  0  0  0  0  0  0  0  0
   25.8232  -22.3312  -14.8557 O   0  0  0  0  0  0  0  0  0  0  0  0
   27.2132  -20.9891  -13.6313 N   0  0  0  0  0  0  0  0  0  0  0  0
   26.4420  -21.0636  -12.4126 C   0  0  1  0  0  0  0  0  0  0  0  0
   27.2965  -20.5660  -11.2856 C   0  0  0  0  0  0  0  0  0  0  0  0
   26.6075  -20.5202   -9.9944 C   0  0  0  0  0  0  0  0  0  0  0  0
   26.6486  -19.3482   -9.2662 C   0  0  0  0  0  0  0  0  0  0  0  0
   26.0192  -19.2278   -8.0328 C   0  0  0  0  0  0  0  0  0  0  0  0
   25.3306  -20.2951   -7.5051 C   0  0  0  0  0  0  0  0  0  0  0  0
   25.2792  -21.4624   -8.2113 C   0  0  0  0  0  0  0  0  0  0  0  0
   25.9080  -21.5713   -9.4357 C   0  0  0  0  0  0  0  0  0  0  0  0
   25.2126  -20.2677  -12.4540 C   0  0  0  0  0  0  0  0  0  0  0  0
   25.1333  -19.0535  -12.7576 O   0  0  0  0  0  0  0  0  0  0  0  0
   23.9879  -20.9093  -12.1242 N   0  0  0  0  0  0  0  0  0  0  0  0
   22.7096  -20.3263  -12.4340 C   0  0  1  0  0  0  0  0  0  0  0  0
   22.3494  -20.7704  -13.8509 C   0  0  0  0  0  0  0  0  0  0  0  0
   22.0750  -19.3752  -14.9400 S   0  0  0  0  0  0  0  0  0  0  0  0
   21.6633  -20.6397  -11.4741 C   0  0  0  0  0  0  0  0  0  0  0  0
   21.7715  -21.6253  -10.7149 O   0  0  0  0  0  0  0  0  0  0  0  0
   20.5368  -19.8490  -11.3918 O   0  0  0  0  0  0  0  0  0  0  0  0
  2  1  1  6
  2  3  1  0
  3  4  1  0
  4  5  1  0
  5  6  1  0
  6  7  1  0
  8  2  1  0
  9  8  2  0
 10  8  1  0
 11 10  1  0
 11 12  1  1
 12 13  1  0
 13 14  2  0
 14 15  1  0
 16 15  2  0
 17 16  1  0
 18 13  1  0
 18 17  2  0
 19 20  2  0
 19 11  1  0
 21 19  1  0
 22 21  1  0
 22 23  1  6
 24 23  1  0
 25 27  1  0
 25 22  1  0
 26 25  2  0
M  END
$$$$
