KFC.pdb
     RDKit          3D

 27 27  0  0  1  0  0  0  0  0999 V2000
   28.4687  -21.0553  -18.3304 N   0  0  0  0  0  0  0  0  0  0  0  0
   27.4979  -20.1637  -17.7556 C   0  0  1  0  0  0  0  0  0  0  0  0
   26.4627  -19.6969  -18.7091 C   0  0  0  0  0  0  0  0  0  0  0  0
   26.9277  -19.2739  -20.0557 C   0  0  0  0  0  0  0  0  0  0  0  0
   27.0350  -20.3646  -21.0675 C   0  0  0  0  0  0  0  0  0  0  0  0
   27.4255  -19.7928  -22.4435 C   0  0  0  0  0  0  0  0  0  0  0  0
   27.7842  -20.8364  -23.3587 N   0  0  0  0  0  0  0  0  0  0  0  0
   26.9239  -20.8481  -16.5649 C   0  0  0  0  0  0  0  0  0  0  0  0
   26.4832  -22.0166  -16.5778 O   0  0  0  0  0  0  0  0  0  0  0  0
   26.8785  -20.1260  -15.3524 N   0  0  0  0  0  0  0  0  0  0  0  0
   26.2254  -20.5930  -14.1520 C   0  0  1  0  0  0  0  0  0  0  0  0
   26.8234  -19.8716  -12.9817 C   0  0  0  0  0  0  0  0  0  0  0  0
   26.3147  -20.3217  -11.6845 C   0  0  0  0  0  0  0  0  0  0  0  0
   25.2642  -19.6323  -11.1127 C   0  0  0  0  0  0  0  0  0  0  0  0
   24.7273  -19.9992   -9.8843 C   0  0  0  0  0  0  0  0  0  0  0  0
   25.2428  -21.0769   -9.2028 C   0  0  0  0  0  0  0  0  0  0  0  0
   26.2820  -21.7708   -9.7530 C   0  0  0  0  0  0  0  0  0  0  0  0
   26.8079  -21.3979  -10.9739 C   0  0  0  0  0  0  0  0  0  0  0  0
   24.7782  -20.3647  -14.1524 C   0  0  0  0  0  0  0  0  0  0  0  0
   24.2063  -19.2744  -14.3911 O   0  0  0  0  0  0  0  0  0  0  0  0
   23.9266  -21.4642  -13.8584 N   0  0  0  0  0  0  0  0  0  0  0  0
   22.4945  -21.3334  -13.8119 C   0  0  1  0  0  0  0  0  0  0  0  0
   21.9106  -22.6396  -14.3478 C   0  0  0  0  0  0  0  0  0  0  0  0
   22.4009  -22.9460  -16.0430 S   0  0  0  0  0  0  0  0  0  0  0  0
   21.9698  -20.9909  -12.4998 C   0  0  0  0  0  0  0  0  0  0  0  0
   22.7256  -20.9362  -11.5073 O   0  0  0  0  0  0  0  0  0  0  0  0
   20.6272  -20.7221  -12.3373 O   0  0  0  0  0  0  0  0  0  0  0  0
  2  1  1  6
  2  3  1  0
  3  4  1  0
  4  5  1  0
  5  6  1  0
  6  7  1  0
  8  2  1  0
  9  8  2  0
 10  8  1  0
 11 10  1  0
 11 12  1  1
 12 13  1  0
 13 14  2  0
 14 15  1  0
 16 15  2  0
 17 16  1  0
 18 13  1  0
 18 17  2  0
 19 20  2  0
 19 11  1  0
 21 19  1  0
 22 21  1  0
 22 23  1  1
 24 23  1  0
 25 27  1  0
 25 22  1  0
 26 25  2  0
M  END
$$$$
