KFC.pdb
     RDKit          3D

 27 27  0  0  1  0  0  0  0  0999 V2000
   25.9843  -37.3022   -2.1604 N   0  0  0  0  0  0  0  0  0  0  0  0
   24.9946  -36.7946   -1.2491 C   0  0  1  0  0  0  0  0  0  0  0  0
   24.1990  -37.8454   -0.5697 C   0  0  0  0  0  0  0  0  0  0  0  0
   23.1867  -38.5607   -1.3894 C   0  0  0  0  0  0  0  0  0  0  0  0
   22.3465  -39.5474   -0.6508 C   0  0  0  0  0  0  0  0  0  0  0  0
   21.4714  -38.8375    0.3994 C   0  0  0  0  0  0  0  0  0  0  0  0
   20.6237  -39.7677    1.0861 N   0  0  0  0  0  0  0  0  0  0  0  0
   25.6967  -35.8914   -0.2967 C   0  0  0  0  0  0  0  0  0  0  0  0
   26.9391  -35.8154   -0.1956 O   0  0  0  0  0  0  0  0  0  0  0  0
   24.9031  -35.0753    0.5387 N   0  0  0  0  0  0  0  0  0  0  0  0
   25.4334  -34.1202    1.4832 C   0  0  1  0  0  0  0  0  0  0  0  0
   24.9437  -32.7569    1.0967 C   0  0  0  0  0  0  0  0  0  0  0  0
   25.2941  -32.3665   -0.2704 C   0  0  0  0  0  0  0  0  0  0  0  0
   26.6292  -32.2911   -0.6131 C   0  0  0  0  0  0  0  0  0  0  0  0
   27.0399  -31.9278   -1.8903 C   0  0  0  0  0  0  0  0  0  0  0  0
   26.1053  -31.6310   -2.8547 C   0  0  0  0  0  0  0  0  0  0  0  0
   24.7801  -31.7002   -2.5339 C   0  0  0  0  0  0  0  0  0  0  0  0
   24.3829  -32.0622   -1.2621 C   0  0  0  0  0  0  0  0  0  0  0  0
   25.0307  -34.3869    2.8664 C   0  0  0  0  0  0  0  0  0  0  0  0
   23.8595  -34.5953    3.2636 O   0  0  0  0  0  0  0  0  0  0  0  0
   26.0422  -34.4169    3.8646 N   0  0  0  0  0  0  0  0  0  0  0  0
   25.7463  -34.6789    5.2480 C   0  0  1  0  0  0  0  0  0  0  0  0
   27.0492  -35.1345    5.9034 C   0  0  0  0  0  0  0  0  0  0  0  0
   27.8868  -36.3832    4.9302 S   0  0  0  0  0  0  0  0  0  0  0  0
   25.1369  -33.5603    5.9491 C   0  0  0  0  0  0  0  0  0  0  0  0
   24.9386  -32.4751    5.3639 O   0  0  0  0  0  0  0  0  0  0  0  0
   24.7705  -33.6865    7.2723 O   0  0  0  0  0  0  0  0  0  0  0  0
  2  1  1  6
  2  3  1  0
  3  4  1  0
  4  5  1  0
  5  6  1  0
  6  7  1  0
  8  2  1  0
  9  8  2  0
 10  8  1  0
 11 10  1  0
 11 12  1  6
 12 13  1  0
 13 14  2  0
 14 15  1  0
 16 15  2  0
 17 16  1  0
 18 13  1  0
 18 17  2  0
 19 20  2  0
 19 11  1  0
 21 19  1  0
 22 21  1  0
 22 23  1  1
 24 23  1  0
 25 27  1  0
 25 22  1  0
 26 25  2  0
M  END
$$$$
