KFC.pdb
     RDKit          3D

 27 27  0  0  1  0  0  0  0  0999 V2000
   19.3678  -19.7245  -17.4015 N   0  0  0  0  0  0  0  0  0  0  0  0
   19.9576  -18.4149  -17.4719 C   0  0  1  0  0  0  0  0  0  0  0  0
   20.7066  -18.1529  -18.7245 C   0  0  0  0  0  0  0  0  0  0  0  0
   21.4165  -19.3046  -19.3393 C   0  0  0  0  0  0  0  0  0  0  0  0
   22.8454  -19.4621  -18.9411 C   0  0  0  0  0  0  0  0  0  0  0  0
   23.5078  -20.6044  -19.7345 C   0  0  0  0  0  0  0  0  0  0  0  0
   24.2460  -21.4788  -18.8709 N   0  0  0  0  0  0  0  0  0  0  0  0
   18.8686  -17.4294  -17.2299 C   0  0  0  0  0  0  0  0  0  0  0  0
   17.9590  -17.1808  -18.0488 O   0  0  0  0  0  0  0  0  0  0  0  0
   18.8717  -16.7385  -15.9985 N   0  0  0  0  0  0  0  0  0  0  0  0
   17.9301  -15.7019  -15.6456 C   0  0  1  0  0  0  0  0  0  0  0  0
   17.4497  -15.9601  -14.2491 C   0  0  0  0  0  0  0  0  0  0  0  0
   16.0149  -15.7345  -14.0643 C   0  0  0  0  0  0  0  0  0  0  0  0
   15.1369  -16.7331  -14.4354 C   0  0  0  0  0  0  0  0  0  0  0  0
   13.7617  -16.5928  -14.2906 C   0  0  0  0  0  0  0  0  0  0  0  0
   13.2404  -15.4338  -13.7647 C   0  0  0  0  0  0  0  0  0  0  0  0
   14.0935  -14.4352  -13.3920 C   0  0  0  0  0  0  0  0  0  0  0  0
   15.4580  -14.5849  -13.5401 C   0  0  0  0  0  0  0  0  0  0  0  0
   18.5025  -14.3544  -15.7016 C   0  0  0  0  0  0  0  0  0  0  0  0
   19.7111  -14.0766  -15.8891 O   0  0  0  0  0  0  0  0  0  0  0  0
   17.6275  -13.2474  -15.5306 N   0  0  0  0  0  0  0  0  0  0  0  0
   18.0768  -11.8873  -15.6664 C   0  0  1  0  0  0  0  0  0  0  0  0
   18.4057  -11.6724  -17.1429 C   0  0  0  0  0  0  0  0  0  0  0  0
   18.6812   -9.9438  -17.5224 S   0  0  0  0  0  0  0  0  0  0  0  0
   17.1406  -10.8971  -15.1592 C   0  0  0  0  0  0  0  0  0  0  0  0
   15.9088  -11.0803  -15.2525 O   0  0  0  0  0  0  0  0  0  0  0  0
   17.6048   -9.7413  -14.5678 O   0  0  0  0  0  0  0  0  0  0  0  0
  2  1  1  6
  2  3  1  0
  3  4  1  0
  4  5  1  0
  5  6  1  0
  6  7  1  0
  8  2  1  0
  9  8  2  0
 10  8  1  0
 11 10  1  0
 11 12  1  1
 12 13  1  0
 13 14  2  0
 14 15  1  0
 16 15  2  0
 17 16  1  0
 18 13  1  0
 18 17  2  0
 19 20  2  0
 19 11  1  0
 21 19  1  0
 22 21  1  0
 22 23  1  6
 24 23  1  0
 25 27  1  0
 25 22  1  0
 26 25  2  0
M  END
$$$$
