KFC.pdb
     RDKit          3D

 27 27  0  0  1  0  0  0  0  0999 V2000
   27.3655  -22.1969  -16.7363 N   0  0  0  0  0  0  0  0  0  0  0  0
   26.1081  -21.7616  -16.1910 C   0  0  1  0  0  0  0  0  0  0  0  0
   24.9211  -22.3435  -16.8626 C   0  0  0  0  0  0  0  0  0  0  0  0
   24.2466  -21.5042  -17.8869 C   0  0  0  0  0  0  0  0  0  0  0  0
   25.0036  -21.3142  -19.1580 C   0  0  0  0  0  0  0  0  0  0  0  0
   24.3583  -20.2083  -20.0146 C   0  0  0  0  0  0  0  0  0  0  0  0
   22.9324  -20.3495  -20.0597 N   0  0  0  0  0  0  0  0  0  0  0  0
   26.1430  -22.0410  -14.7293 C   0  0  0  0  0  0  0  0  0  0  0  0
   26.0646  -23.1859  -14.2366 O   0  0  0  0  0  0  0  0  0  0  0  0
   26.2725  -20.9402  -13.8547 N   0  0  0  0  0  0  0  0  0  0  0  0
   26.2955  -21.0445  -12.4145 C   0  0  1  0  0  0  0  0  0  0  0  0
   27.1618  -19.9446  -11.8782 C   0  0  0  0  0  0  0  0  0  0  0  0
   27.3497  -19.9918  -10.4269 C   0  0  0  0  0  0  0  0  0  0  0  0
   28.3504  -20.7947   -9.9172 C   0  0  0  0  0  0  0  0  0  0  0  0
   28.5897  -20.8917   -8.5514 C   0  0  0  0  0  0  0  0  0  0  0  0
   27.8188  -20.1755   -7.6657 C   0  0  0  0  0  0  0  0  0  0  0  0
   26.8244  -19.3761   -8.1516 C   0  0  0  0  0  0  0  0  0  0  0  0
   26.5951  -19.2870   -9.5102 C   0  0  0  0  0  0  0  0  0  0  0  0
   24.9685  -20.9348  -11.8034 C   0  0  0  0  0  0  0  0  0  0  0  0
   24.0393  -20.1882  -12.1934 O   0  0  0  0  0  0  0  0  0  0  0  0
   24.6869  -21.7378  -10.6648 N   0  0  0  0  0  0  0  0  0  0  0  0
   23.4408  -21.6461   -9.9515 C   0  0  1  0  0  0  0  0  0  0  0  0
   23.7410  -21.9664   -8.4880 C   0  0  0  0  0  0  0  0  0  0  0  0
   22.2468  -22.0724   -7.5061 S   0  0  0  0  0  0  0  0  0  0  0  0
   22.7562  -20.3731  -10.1092 C   0  0  0  0  0  0  0  0  0  0  0  0
   23.3934  -19.2998  -10.0729 O   0  0  0  0  0  0  0  0  0  0  0  0
   21.3913  -20.3377  -10.3010 O   0  0  0  0  0  0  0  0  0  0  0  0
  2  1  1  6
  2  3  1  0
  3  4  1  0
  4  5  1  0
  5  6  1  0
  6  7  1  0
  8  2  1  0
  9  8  2  0
 10  8  1  0
 11 10  1  0
 11 12  1  1
 12 13  1  0
 13 14  2  0
 14 15  1  0
 16 15  2  0
 17 16  1  0
 18 13  1  0
 18 17  2  0
 19 20  2  0
 19 11  1  0
 21 19  1  0
 22 21  1  0
 22 23  1  1
 24 23  1  0
 25 27  1  0
 25 22  1  0
 26 25  2  0
M  END
$$$$
