KFC.pdb
     RDKit          3D

 27 27  0  0  1  0  0  0  0  0999 V2000
   26.5803  -20.7777  -17.9561 N   0  0  0  0  0  0  0  0  0  0  0  0
   26.1188  -19.8035  -17.0043 C   0  0  1  0  0  0  0  0  0  0  0  0
   24.8296  -19.1657  -17.3648 C   0  0  0  0  0  0  0  0  0  0  0  0
   24.8725  -18.0902  -18.3895 C   0  0  0  0  0  0  0  0  0  0  0  0
   26.2115  -17.4716  -18.6123 C   0  0  0  0  0  0  0  0  0  0  0  0
   26.1223  -16.3455  -19.6596 C   0  0  0  0  0  0  0  0  0  0  0  0
   27.4078  -15.7609  -19.9068 N   0  0  0  0  0  0  0  0  0  0  0  0
   26.0842  -20.4710  -15.6743 C   0  0  0  0  0  0  0  0  0  0  0  0
   25.5965  -21.6034  -15.4755 O   0  0  0  0  0  0  0  0  0  0  0  0
   26.6377  -19.7755  -14.5773 N   0  0  0  0  0  0  0  0  0  0  0  0
   26.5267  -20.2047  -13.2029 C   0  0  1  0  0  0  0  0  0  0  0  0
   27.4419  -19.3569  -12.3714 C   0  0  0  0  0  0  0  0  0  0  0  0
   27.4916  -19.7455  -10.9605 C   0  0  0  0  0  0  0  0  0  0  0  0
   26.7542  -19.0164  -10.0493 C   0  0  0  0  0  0  0  0  0  0  0  0
   26.7505  -19.3242   -8.6939 C   0  0  0  0  0  0  0  0  0  0  0  0
   27.4961  -20.3814   -8.2268 C   0  0  0  0  0  0  0  0  0  0  0  0
   28.2318  -21.1138   -9.1135 C   0  0  0  0  0  0  0  0  0  0  0  0
   28.2283  -20.7995  -10.4580 C   0  0  0  0  0  0  0  0  0  0  0  0
   25.1679  -20.0904  -12.6671 C   0  0  0  0  0  0  0  0  0  0  0  0
   24.4042  -19.1053  -12.8048 O   0  0  0  0  0  0  0  0  0  0  0  0
   24.6482  -21.1828  -11.9208 N   0  0  0  0  0  0  0  0  0  0  0  0
   23.3729  -21.1202  -11.2577 C   0  0  1  0  0  0  0  0  0  0  0  0
   22.4785  -22.1718  -11.9127 C   0  0  0  0  0  0  0  0  0  0  0  0
   20.8742  -22.2717  -11.1227 S   0  0  0  0  0  0  0  0  0  0  0  0
   23.4436  -21.2770   -9.8139 C   0  0  0  0  0  0  0  0  0  0  0  0
   24.4157  -21.8545   -9.2840 O   0  0  0  0  0  0  0  0  0  0  0  0
   22.4342  -20.7879   -9.0120 O   0  0  0  0  0  0  0  0  0  0  0  0
  2  1  1  6
  2  3  1  0
  3  4  1  0
  4  5  1  0
  5  6  1  0
  6  7  1  0
  8  2  1  0
  9  8  2  0
 10  8  1  0
 11 10  1  0
 11 12  1  1
 12 13  1  0
 13 14  2  0
 14 15  1  0
 16 15  2  0
 17 16  1  0
 18 13  1  0
 18 17  2  0
 19 20  2  0
 19 11  1  0
 21 19  1  0
 22 21  1  0
 22 23  1  6
 24 23  1  0
 25 27  1  0
 25 22  1  0
 26 25  2  0
M  END
$$$$
