KFC.pdb
     RDKit          3D

 27 27  0  0  1  0  0  0  0  0999 V2000
   26.4500  -21.9141  -13.8978 N   0  0  0  0  0  0  0  0  0  0  0  0
   26.2360  -20.7439  -13.0900 C   0  0  1  0  0  0  0  0  0  0  0  0
   25.0003  -19.9945  -13.4221 C   0  0  0  0  0  0  0  0  0  0  0  0
   24.2714  -20.4061  -14.6500 C   0  0  0  0  0  0  0  0  0  0  0  0
   23.2044  -21.4287  -14.4482 C   0  0  0  0  0  0  0  0  0  0  0  0
   22.4788  -21.7259  -15.7742 C   0  0  0  0  0  0  0  0  0  0  0  0
   21.5306  -22.7904  -15.6221 N   0  0  0  0  0  0  0  0  0  0  0  0
   26.2871  -21.1773  -11.6669 C   0  0  0  0  0  0  0  0  0  0  0  0
   26.0215  -22.3350  -11.2811 O   0  0  0  0  0  0  0  0  0  0  0  0
   26.6588  -20.2159  -10.7019 N   0  0  0  0  0  0  0  0  0  0  0  0
   26.7039  -20.4663   -9.2803 C   0  0  1  0  0  0  0  0  0  0  0  0
   27.5207  -19.3848   -8.6393 C   0  0  0  0  0  0  0  0  0  0  0  0
   27.7986  -19.6138   -7.2200 C   0  0  0  0  0  0  0  0  0  0  0  0
   27.0574  -18.9223   -6.2829 C   0  0  0  0  0  0  0  0  0  0  0  0
   27.2628  -19.0862   -4.9180 C   0  0  0  0  0  0  0  0  0  0  0  0
   28.2272  -19.9572   -4.4675 C   0  0  0  0  0  0  0  0  0  0  0  0
   28.9700  -20.6498   -5.3799 C   0  0  0  0  0  0  0  0  0  0  0  0
   28.7578  -20.4796   -6.7335 C   0  0  0  0  0  0  0  0  0  0  0  0
   25.3804  -20.4872   -8.6524 C   0  0  0  0  0  0  0  0  0  0  0  0
   24.4535  -19.6694   -8.8644 O   0  0  0  0  0  0  0  0  0  0  0  0
   25.0997  -21.5185   -7.7154 N   0  0  0  0  0  0  0  0  0  0  0  0
   23.7928  -21.6975   -7.1412 C   0  0  1  0  0  0  0  0  0  0  0  0
   23.9312  -22.7448   -6.0373 C   0  0  0  0  0  0  0  0  0  0  0  0
   24.0865  -21.9942   -4.4185 S   0  0  0  0  0  0  0  0  0  0  0  0
   23.1784  -20.4692   -6.6636 C   0  0  0  0  0  0  0  0  0  0  0  0
   23.8730  -19.4553   -6.4422 O   0  0  0  0  0  0  0  0  0  0  0  0
   21.8176  -20.4110   -6.4492 O   0  0  0  0  0  0  0  0  0  0  0  0
  2  1  1  6
  2  3  1  0
  3  4  1  0
  4  5  1  0
  5  6  1  0
  6  7  1  0
  8  2  1  0
  9  8  2  0
 10  8  1  0
 11 10  1  0
 11 12  1  1
 12 13  1  0
 13 14  2  0
 14 15  1  0
 16 15  2  0
 17 16  1  0
 18 13  1  0
 18 17  2  0
 19 20  2  0
 19 11  1  0
 21 19  1  0
 22 21  1  0
 22 23  1  1
 24 23  1  0
 25 27  1  0
 25 22  1  0
 26 25  2  0
M  END
$$$$
