KFC.pdb
     RDKit          3D

 27 27  0  0  1  0  0  0  0  0999 V2000
   28.6421  -22.0522  -16.4047 N   0  0  0  0  0  0  0  0  0  0  0  0
   27.8746  -20.8885  -16.0521 C   0  0  1  0  0  0  0  0  0  0  0  0
   27.1638  -20.2614  -17.1924 C   0  0  0  0  0  0  0  0  0  0  0  0
   28.0025  -19.6938  -18.2800 C   0  0  0  0  0  0  0  0  0  0  0  0
   29.0436  -18.7191  -17.8428 C   0  0  0  0  0  0  0  0  0  0  0  0
   29.7906  -18.1400  -19.0592 C   0  0  0  0  0  0  0  0  0  0  0  0
   29.1397  -16.9644  -19.5591 N   0  0  0  0  0  0  0  0  0  0  0  0
   26.9610  -21.2838  -14.9453 C   0  0  0  0  0  0  0  0  0  0  0  0
   26.0905  -22.1737  -15.0446 O   0  0  0  0  0  0  0  0  0  0  0  0
   27.0931  -20.6071  -13.7132 N   0  0  0  0  0  0  0  0  0  0  0  0
   26.2059  -20.7866  -12.5879 C   0  0  1  0  0  0  0  0  0  0  0  0
   26.8170  -20.1122  -11.3965 C   0  0  0  0  0  0  0  0  0  0  0  0
   28.0987  -20.6864  -10.9825 C   0  0  0  0  0  0  0  0  0  0  0  0
   29.1886  -20.5366  -11.8164 C   0  0  0  0  0  0  0  0  0  0  0  0
   30.4375  -21.0535  -11.4923 C   0  0  0  0  0  0  0  0  0  0  0  0
   30.6135  -21.7370  -10.3118 C   0  0  0  0  0  0  0  0  0  0  0  0
   29.5468  -21.8950   -9.4745 C   0  0  0  0  0  0  0  0  0  0  0  0
   28.3105  -21.3775   -9.8061 C   0  0  0  0  0  0  0  0  0  0  0  0
   24.8696  -20.2276  -12.8075 C   0  0  0  0  0  0  0  0  0  0  0  0
   24.6008  -19.0165  -12.9912 O   0  0  0  0  0  0  0  0  0  0  0  0
   23.7634  -21.1202  -12.8172 N   0  0  0  0  0  0  0  0  0  0  0  0
   22.4175  -20.6702  -13.0537 C   0  0  1  0  0  0  0  0  0  0  0  0
   22.1231  -20.9059  -14.5344 C   0  0  0  0  0  0  0  0  0  0  0  0
   20.4121  -20.5647  -14.9391 S   0  0  0  0  0  0  0  0  0  0  0  0
   21.4232  -21.2839  -12.1883 C   0  0  0  0  0  0  0  0  0  0  0  0
   21.4699  -22.5053  -11.9327 O   0  0  0  0  0  0  0  0  0  0  0  0
   20.4147  -20.5208  -11.6390 O   0  0  0  0  0  0  0  0  0  0  0  0
  2  1  1  6
  2  3  1  0
  3  4  1  0
  4  5  1  0
  5  6  1  0
  6  7  1  0
  8  2  1  0
  9  8  2  0
 10  8  1  0
 11 10  1  0
 11 12  1  1
 12 13  1  0
 13 14  2  0
 14 15  1  0
 16 15  2  0
 17 16  1  0
 18 13  1  0
 18 17  2  0
 19 20  2  0
 19 11  1  0
 21 19  1  0
 22 21  1  0
 22 23  1  6
 24 23  1  0
 25 27  1  0
 25 22  1  0
 26 25  2  0
M  END
$$$$
