VQL.pdb
     RDKit          3D

 25 24  0  0  1  0  0  0  0  0999 V2000
   27.3648  -16.5401  -18.3824 C   0  0  0  0  0  0  0  0  0  0  0  0
   26.6988  -16.5050  -17.0009 C   0  0  2  0  0  0  0  0  0  0  0  0
   26.7701  -15.0936  -16.4964 C   0  0  0  0  0  0  0  0  0  0  0  0
   27.3714  -17.4976  -16.0780 C   0  0  2  0  0  0  0  0  0  0  0  0
   27.8296  -18.6671  -16.7708 N   0  0  0  0  0  0  0  0  0  0  0  0
   26.4456  -17.8064  -14.9706 C   0  0  0  0  0  0  0  0  0  0  0  0
   26.0527  -16.8510  -14.2517 O   0  0  0  0  0  0  0  0  0  0  0  0
   21.5319  -20.9968  -12.5882 N   0  0  0  0  0  0  0  0  0  0  0  0
   21.4495  -19.7367  -13.2030 C   0  0  0  0  0  0  0  0  0  0  0  0
   20.3943  -19.0840  -13.0740 O   0  0  0  0  0  0  0  0  0  0  0  0
   22.5630  -19.1646  -13.9896 C   0  0  0  0  0  0  0  0  0  0  0  0
   23.7843  -20.0078  -14.0356 C   0  0  0  0  0  0  0  0  0  0  0  0
   25.0578  -19.3228  -13.6009 C   0  0  2  0  0  0  0  0  0  0  0  0
   25.9753  -19.1071  -14.6699 N   0  0  0  0  0  0  0  0  0  0  0  0
   25.6975  -20.2731  -12.6215 C   0  0  0  0  0  0  0  0  0  0  0  0
   26.2125  -21.3149  -13.0826 O   0  0  0  0  0  0  0  0  0  0  0  0
   28.7777  -20.3498   -9.3105 C   0  0  0  0  0  0  0  0  0  0  0  0
   27.5726  -19.4084   -9.1202 C   0  0  2  0  0  0  0  0  0  0  0  0
   27.7624  -18.6211   -7.8659 C   0  0  0  0  0  0  0  0  0  0  0  0
   26.3703  -20.2924   -9.0128 C   0  0  0  0  0  0  0  0  0  0  0  0
   26.1289  -21.0104  -10.3114 C   0  0  2  0  0  0  0  0  0  0  0  0
   25.6976  -19.9701  -11.2523 N   0  0  0  0  0  0  0  0  0  0  0  0
   25.0941  -22.0584  -10.2011 C   0  0  0  0  0  0  0  0  0  0  0  0
   25.5290  -23.3997  -10.1469 O   0  0  0  0  0  0  0  0  0  0  0  0
   23.8659  -21.8894  -10.1499 O   0  0  0  0  0  0  0  0  0  0  0  0
  2  1  1  6
  2  4  1  0
  3  2  1  0
  4  5  1  6
  6 14  1  0
  6  4  1  0
  7  6  2  0
  9  8  1  0
  9 11  1  0
 10  9  2  0
 12 11  1  0
 13 12  1  6
 13 14  1  0
 15 13  1  0
 16 15  2  0
 18 20  1  0
 18 17  1  1
 19 18  1  0
 21 20  1  1
 21 22  1  0
 21 23  1  0
 22 15  1  0
 23 24  1  0
 25 23  2  0
M  END
$$$$
