VQL.pdb
     RDKit          3D

 25 24  0  0  1  0  0  0  0  0999 V2000
   16.7817  -12.1748  -16.5392 C   0  0  0  0  0  0  0  0  0  0  0  0
   17.8033  -12.1585  -17.6834 C   0  0  2  0  0  0  0  0  0  0  0  0
   17.4356  -13.2561  -18.6382 C   0  0  0  0  0  0  0  0  0  0  0  0
   19.2033  -12.3023  -17.1279 C   0  0  2  0  0  0  0  0  0  0  0  0
   19.3873  -13.5346  -16.4171 N   0  0  0  0  0  0  0  0  0  0  0  0
   19.5052  -11.1115  -16.3096 C   0  0  0  0  0  0  0  0  0  0  0  0
   19.3688  -11.2078  -15.0621 O   0  0  0  0  0  0  0  0  0  0  0  0
   24.6151   -8.3446  -15.5302 N   0  0  0  0  0  0  0  0  0  0  0  0
   23.9461   -9.3932  -14.8779 C   0  0  0  0  0  0  0  0  0  0  0  0
   24.6142  -10.1650  -14.1609 O   0  0  0  0  0  0  0  0  0  0  0  0
   22.4896   -9.6085  -15.0119 C   0  0  0  0  0  0  0  0  0  0  0  0
   21.7919   -8.6064  -15.8568 C   0  0  0  0  0  0  0  0  0  0  0  0
   20.2990   -8.7955  -15.9818 C   0  0  2  0  0  0  0  0  0  0  0  0
   19.9371   -9.8730  -16.8415 N   0  0  0  0  0  0  0  0  0  0  0  0
   19.7939   -7.5164  -16.5986 C   0  0  0  0  0  0  0  0  0  0  0  0
   19.3943   -7.5665  -17.7822 O   0  0  0  0  0  0  0  0  0  0  0  0
   15.4027   -4.7084  -16.5863 C   0  0  0  0  0  0  0  0  0  0  0  0
   16.8469   -4.4127  -17.0354 C   0  0  2  0  0  0  0  0  0  0  0  0
   16.8833   -4.3115  -18.5246 C   0  0  0  0  0  0  0  0  0  0  0  0
   17.6715   -5.5685  -16.5637 C   0  0  0  0  0  0  0  0  0  0  0  0
   19.1094   -5.1583  -16.4072 C   0  0  2  0  0  0  0  0  0  0  0  0
   19.7862   -6.3332  -15.8460 N   0  0  0  0  0  0  0  0  0  0  0  0
   19.2778   -3.9966  -15.5107 C   0  0  0  0  0  0  0  0  0  0  0  0
   19.3017   -2.7157  -16.1022 O   0  0  0  0  0  0  0  0  0  0  0  0
   19.4026   -4.0208  -14.2764 O   0  0  0  0  0  0  0  0  0  0  0  0
  2  1  1  1
  2  4  1  0
  3  2  1  0
  4  5  1  1
  6 14  1  0
  6  4  1  0
  7  6  2  0
  9  8  1  0
  9 11  1  0
 10  9  2  0
 12 11  1  0
 13 12  1  6
 13 14  1  0
 15 13  1  0
 16 15  2  0
 18 20  1  0
 18 17  1  6
 19 18  1  0
 21 20  1  1
 21 22  1  0
 21 23  1  0
 22 15  1  0
 23 24  1  0
 25 23  2  0
M  END
$$$$
