VQL.pdb
     RDKit          3D

 25 24  0  0  1  0  0  0  0  0999 V2000
   28.6424  -19.5292  -14.2277 C   0  0  0  0  0  0  0  0  0  0  0  0
   28.1025  -20.0891  -15.5498 C   0  0  2  0  0  0  0  0  0  0  0  0
   29.2751  -20.3342  -16.4535 C   0  0  0  0  0  0  0  0  0  0  0  0
   27.0901  -19.1324  -16.1408 C   0  0  2  0  0  0  0  0  0  0  0  0
   27.6724  -17.8722  -16.5021 N   0  0  0  0  0  0  0  0  0  0  0  0
   25.9652  -19.0002  -15.1944 C   0  0  0  0  0  0  0  0  0  0  0  0
   25.8823  -17.9360  -14.5276 O   0  0  0  0  0  0  0  0  0  0  0  0
   20.0398  -21.3045  -15.4768 N   0  0  0  0  0  0  0  0  0  0  0  0
   20.1161  -20.5629  -14.2864 C   0  0  0  0  0  0  0  0  0  0  0  0
   19.0611  -20.3448  -13.6573 O   0  0  0  0  0  0  0  0  0  0  0  0
   21.3943  -20.0386  -13.7601 C   0  0  0  0  0  0  0  0  0  0  0  0
   22.5646  -20.2587  -14.6471 C   0  0  0  0  0  0  0  0  0  0  0  0
   23.8862  -19.7696  -14.1047 C   0  0  2  0  0  0  0  0  0  0  0  0
   24.9781  -19.9944  -14.9926 N   0  0  0  0  0  0  0  0  0  0  0  0
   24.1224  -20.5844  -12.8589 C   0  0  0  0  0  0  0  0  0  0  0  0
   25.1460  -21.3014  -12.8254 O   0  0  0  0  0  0  0  0  0  0  0  0
   24.1826  -20.4974   -7.7677 C   0  0  0  0  0  0  0  0  0  0  0  0
   25.3044  -20.8668   -8.7576 C   0  0  2  0  0  0  0  0  0  0  0  0
   26.5610  -20.1697   -8.3526 C   0  0  0  0  0  0  0  0  0  0  0  0
   24.8449  -20.3913  -10.0996 C   0  0  0  0  0  0  0  0  0  0  0  0
   23.5935  -21.1149  -10.5127 C   0  0  2  0  0  0  0  0  0  0  0  0
   23.2092  -20.5174  -11.7967 N   0  0  0  0  0  0  0  0  0  0  0  0
   22.4979  -20.9664   -9.5334 C   0  0  0  0  0  0  0  0  0  0  0  0
   22.2966  -22.0202   -8.6168 O   0  0  0  0  0  0  0  0  0  0  0  0
   21.7223  -20.0040   -9.4243 O   0  0  0  0  0  0  0  0  0  0  0  0
  2  1  1  1
  2  4  1  0
  3  2  1  0
  4  5  1  1
  6 14  1  0
  6  4  1  0
  7  6  2  0
  9  8  1  0
  9 11  1  0
 10  9  2  0
 12 11  1  0
 13 12  1  6
 13 14  1  0
 15 13  1  0
 16 15  2  0
 18 20  1  0
 18 17  1  1
 19 18  1  0
 21 20  1  1
 21 22  1  0
 21 23  1  0
 22 15  1  0
 23 24  1  0
 25 23  2  0
M  END
$$$$
