VQL.pdb
     RDKit          3D

 25 24  0  0  1  0  0  0  0  0999 V2000
   26.5137  -27.9968    8.2510 C   0  0  0  0  0  0  0  0  0  0  0  0
   27.3754  -27.0026    9.0398 C   0  0  2  0  0  0  0  0  0  0  0  0
   27.9351  -26.0101    8.0634 C   0  0  0  0  0  0  0  0  0  0  0  0
   28.4467  -27.7444    9.8088 C   0  0  2  0  0  0  0  0  0  0  0  0
   27.9004  -28.7182   10.7094 N   0  0  0  0  0  0  0  0  0  0  0  0
   29.3090  -26.7532   10.4816 C   0  0  0  0  0  0  0  0  0  0  0  0
   28.7849  -26.0223   11.3621 O   0  0  0  0  0  0  0  0  0  0  0  0
   35.1439  -27.6458   12.4949 N   0  0  0  0  0  0  0  0  0  0  0  0
   34.8027  -26.3534   12.9259 C   0  0  0  0  0  0  0  0  0  0  0  0
   35.5738  -25.7704   13.7144 O   0  0  0  0  0  0  0  0  0  0  0  0
   33.5712  -25.6683   12.4786 C   0  0  0  0  0  0  0  0  0  0  0  0
   32.7060  -26.4755   11.5815 C   0  0  0  0  0  0  0  0  0  0  0  0
   31.5014  -25.7540   11.0264 C   0  0  2  0  0  0  0  0  0  0  0  0
   30.6842  -26.5762   10.1973 N   0  0  0  0  0  0  0  0  0  0  0  0
   32.0676  -24.6478   10.1736 C   0  0  0  0  0  0  0  0  0  0  0  0
   32.6907  -24.9781    9.1413 O   0  0  0  0  0  0  0  0  0  0  0  0
   30.7547  -21.5104    7.5060 C   0  0  0  0  0  0  0  0  0  0  0  0
   30.3041  -21.4268    8.9773 C   0  0  2  0  0  0  0  0  0  0  0  0
   29.2928  -20.3373    9.1162 C   0  0  0  0  0  0  0  0  0  0  0  0
   31.5336  -21.1112    9.7691 C   0  0  0  0  0  0  0  0  0  0  0  0
   32.4970  -22.2645    9.7248 C   0  0  2  0  0  0  0  0  0  0  0  0
   31.8844  -23.3101   10.5524 N   0  0  0  0  0  0  0  0  0  0  0  0
   33.8318  -21.9146   10.2516 C   0  0  0  0  0  0  0  0  0  0  0  0
   34.6021  -20.9918    9.5123 O   0  0  0  0  0  0  0  0  0  0  0  0
   34.3603  -22.3475   11.2873 O   0  0  0  0  0  0  0  0  0  0  0  0
  2  1  1  6
  2  4  1  0
  3  2  1  0
  4  5  1  1
  6 14  1  0
  6  4  1  0
  7  6  2  0
  9  8  1  0
  9 11  1  0
 10  9  2  0
 12 11  1  0
 13 12  1  6
 13 14  1  0
 15 13  1  0
 16 15  2  0
 18 20  1  0
 18 17  1  6
 19 18  1  0
 21 20  1  1
 21 22  1  0
 21 23  1  0
 22 15  1  0
 23 24  1  0
 25 23  2  0
M  END
$$$$
