VQL.pdb
     RDKit          3D

 25 24  0  0  1  0  0  0  0  0999 V2000
   18.0577  -10.9521  -19.4932 C   0  0  0  0  0  0  0  0  0  0  0  0
   18.8968  -10.3136  -18.3791 C   0  0  2  0  0  0  0  0  0  0  0  0
   19.4331   -9.0130  -18.9010 C   0  0  0  0  0  0  0  0  0  0  0  0
   19.9852  -11.2687  -17.9403 C   0  0  2  0  0  0  0  0  0  0  0  0
   19.4689  -12.5535  -17.5655 N   0  0  0  0  0  0  0  0  0  0  0  0
   20.7674  -10.6237  -16.8675 C   0  0  0  0  0  0  0  0  0  0  0  0
   20.3150  -10.6850  -15.6947 O   0  0  0  0  0  0  0  0  0  0  0  0
   26.9165  -10.4286  -16.2282 N   0  0  0  0  0  0  0  0  0  0  0  0
   25.9680  -11.3942  -15.8534 C   0  0  0  0  0  0  0  0  0  0  0  0
   26.3618  -12.5589  -15.6425 O   0  0  0  0  0  0  0  0  0  0  0  0
   24.5319  -11.0770  -15.7016 C   0  0  0  0  0  0  0  0  0  0  0  0
   24.1757   -9.6666  -15.9994 C   0  0  0  0  0  0  0  0  0  0  0  0
   22.6976   -9.3583  -15.9874 C   0  0  2  0  0  0  0  0  0  0  0  0
   21.9906   -9.9434  -17.0779 N   0  0  0  0  0  0  0  0  0  0  0  0
   22.6102   -7.8599  -16.1248 C   0  0  0  0  0  0  0  0  0  0  0  0
   22.6083   -7.3870  -17.2821 O   0  0  0  0  0  0  0  0  0  0  0  0
   19.4041   -3.8880  -16.7007 C   0  0  0  0  0  0  0  0  0  0  0  0
   20.8455   -3.9750  -16.1624 C   0  0  2  0  0  0  0  0  0  0  0  0
   21.7835   -3.4367  -17.1917 C   0  0  0  0  0  0  0  0  0  0  0  0
   21.1078   -5.4271  -15.9158 C   0  0  0  0  0  0  0  0  0  0  0  0
   22.3920   -5.6067  -15.1548 C   0  0  2  0  0  0  0  0  0  0  0  0
   22.5354   -7.0563  -14.9780 N   0  0  0  0  0  0  0  0  0  0  0  0
   22.3766   -4.9322  -13.8409 C   0  0  0  0  0  0  0  0  0  0  0  0
   22.6133   -3.5412  -13.8203 O   0  0  0  0  0  0  0  0  0  0  0  0
   22.1759   -5.4594  -12.7358 O   0  0  0  0  0  0  0  0  0  0  0  0
  2  1  1  6
  2  4  1  0
  3  2  1  0
  4  5  1  1
  6 14  1  0
  6  4  1  0
  7  6  2  0
  9  8  1  0
  9 11  1  0
 10  9  2  0
 12 11  1  0
 13 12  1  6
 13 14  1  0
 15 13  1  0
 16 15  2  0
 18 20  1  0
 18 17  1  6
 19 18  1  0
 21 20  1  1
 21 22  1  0
 21 23  1  0
 22 15  1  0
 23 24  1  0
 25 23  2  0
M  END
$$$$
