VQL.pdb
     RDKit          3D

 25 24  0  0  1  0  0  0  0  0999 V2000
   28.9324  -18.8815  -16.1349 C   0  0  0  0  0  0  0  0  0  0  0  0
   28.1378  -18.7546  -14.8289 C   0  0  2  0  0  0  0  0  0  0  0  0
   29.1037  -18.9089  -13.6910 C   0  0  0  0  0  0  0  0  0  0  0  0
   27.0230  -19.7773  -14.8012 C   0  0  2  0  0  0  0  0  0  0  0  0
   26.2017  -19.7251  -15.9761 N   0  0  0  0  0  0  0  0  0  0  0  0
   26.2578  -19.5996  -13.5516 C   0  0  0  0  0  0  0  0  0  0  0  0
   25.6867  -18.4935  -13.3665 O   0  0  0  0  0  0  0  0  0  0  0  0
   21.3361  -20.1517  -11.1229 N   0  0  0  0  0  0  0  0  0  0  0  0
   21.7887  -20.2236  -12.4505 C   0  0  0  0  0  0  0  0  0  0  0  0
   21.0524  -19.7733  -13.3512 O   0  0  0  0  0  0  0  0  0  0  0  0
   23.0975  -20.8095  -12.8107 C   0  0  0  0  0  0  0  0  0  0  0  0
   23.9333  -21.2144  -11.6521 C   0  0  0  0  0  0  0  0  0  0  0  0
   25.2118  -20.4311  -11.4740 C   0  0  2  0  0  0  0  0  0  0  0  0
   26.1283  -20.5945  -12.5532 N   0  0  0  0  0  0  0  0  0  0  0  0
   25.8479  -20.9994  -10.2314 C   0  0  0  0  0  0  0  0  0  0  0  0
   26.5470  -22.0277  -10.3613 O   0  0  0  0  0  0  0  0  0  0  0  0
   28.8045  -20.7484   -7.2925 C   0  0  0  0  0  0  0  0  0  0  0  0
   27.7913  -19.5880   -7.3355 C   0  0  2  0  0  0  0  0  0  0  0  0
   28.2838  -18.4785   -6.4663 C   0  0  0  0  0  0  0  0  0  0  0  0
   26.5056  -20.1419   -6.8081 C   0  0  0  0  0  0  0  0  0  0  0  0
   25.9283  -21.1392   -7.7738 C   0  0  2  0  0  0  0  0  0  0  0  0
   25.6430  -20.3741   -8.9930 N   0  0  0  0  0  0  0  0  0  0  0  0
   24.6935  -21.7738   -7.2699 C   0  0  0  0  0  0  0  0  0  0  0  0
   23.5070  -21.5639   -8.0043 O   0  0  0  0  0  0  0  0  0  0  0  0
   24.5803  -22.4820   -6.2573 O   0  0  0  0  0  0  0  0  0  0  0  0
  2  1  1  6
  2  4  1  0
  3  2  1  0
  4  5  1  6
  6 14  1  0
  6  4  1  0
  7  6  2  0
  9  8  1  0
  9 11  1  0
 10  9  2  0
 12 11  1  0
 13 12  1  6
 13 14  1  0
 15 13  1  0
 16 15  2  0
 18 20  1  0
 18 17  1  1
 19 18  1  0
 21 20  1  1
 21 22  1  0
 21 23  1  0
 22 15  1  0
 23 24  1  0
 25 23  2  0
M  END
$$$$
