VQL.pdb
     RDKit          3D

 25 24  0  0  1  0  0  0  0  0999 V2000
   28.7794  -20.7944  -16.1417 C   0  0  0  0  0  0  0  0  0  0  0  0
   28.8553  -22.3257  -16.1889 C   0  0  2  0  0  0  0  0  0  0  0  0
   30.2995  -22.7061  -16.3349 C   0  0  0  0  0  0  0  0  0  0  0  0
   27.9888  -22.8514  -17.3124 C   0  0  2  0  0  0  0  0  0  0  0  0
   28.4582  -22.4419  -18.6045 N   0  0  0  0  0  0  0  0  0  0  0  0
   26.5922  -22.4519  -17.0505 C   0  0  0  0  0  0  0  0  0  0  0  0
   26.2481  -21.2831  -17.3659 O   0  0  0  0  0  0  0  0  0  0  0  0
   24.1568  -25.9229  -18.4299 N   0  0  0  0  0  0  0  0  0  0  0  0
   23.6596  -24.7792  -19.0760 C   0  0  0  0  0  0  0  0  0  0  0  0
   23.6851  -24.7467  -20.3228 O   0  0  0  0  0  0  0  0  0  0  0  0
   23.1116  -23.6246  -18.3328 C   0  0  0  0  0  0  0  0  0  0  0  0
   23.2365  -23.7242  -16.8565 C   0  0  0  0  0  0  0  0  0  0  0  0
   24.2922  -22.8398  -16.2374 C   0  0  2  0  0  0  0  0  0  0  0  0
   25.6207  -23.3010  -16.4684 N   0  0  0  0  0  0  0  0  0  0  0  0
   24.0293  -22.8979  -14.7544 C   0  0  0  0  0  0  0  0  0  0  0  0
   24.6171  -23.7861  -14.0998 O   0  0  0  0  0  0  0  0  0  0  0  0
   25.8805  -19.8185  -10.9563 C   0  0  0  0  0  0  0  0  0  0  0  0
   24.8280  -20.9422  -11.0204 C   0  0  2  0  0  0  0  0  0  0  0  0
   25.3531  -22.1433  -10.3057 C   0  0  0  0  0  0  0  0  0  0  0  0
   24.6262  -21.2375  -12.4731 C   0  0  0  0  0  0  0  0  0  0  0  0
   23.2400  -21.7676  -12.7134 C   0  0  2  0  0  0  0  0  0  0  0  0
   23.1534  -21.9759  -14.1634 N   0  0  0  0  0  0  0  0  0  0  0  0
   22.1860  -20.8333  -12.2690 C   0  0  0  0  0  0  0  0  0  0  0  0
   21.6506  -21.0225  -10.9771 O   0  0  0  0  0  0  0  0  0  0  0  0
   21.7107  -19.8858  -12.9139 O   0  0  0  0  0  0  0  0  0  0  0  0
  2  1  1  6
  2  4  1  0
  3  2  1  0
  4  5  1  6
  6 14  1  0
  6  4  1  0
  7  6  2  0
  9  8  1  0
  9 11  1  0
 10  9  2  0
 12 11  1  0
 13 12  1  6
 13 14  1  0
 15 13  1  0
 16 15  2  0
 18 20  1  0
 18 17  1  6
 19 18  1  0
 21 20  1  6
 21 22  1  0
 21 23  1  0
 22 15  1  0
 23 24  1  0
 25 23  2  0
M  END
$$$$
