VQL.pdb
     RDKit          3D

 25 24  0  0  1  0  0  0  0  0999 V2000
   26.7850  -14.3640  -16.7034 C   0  0  0  0  0  0  0  0  0  0  0  0
   25.9586  -15.3743  -15.8975 C   0  0  2  0  0  0  0  0  0  0  0  0
   26.6913  -15.6431  -14.6159 C   0  0  0  0  0  0  0  0  0  0  0  0
   25.7260  -16.6236  -16.7190 C   0  0  2  0  0  0  0  0  0  0  0  0
   25.1750  -16.3350  -18.0116 N   0  0  0  0  0  0  0  0  0  0  0  0
   24.8943  -17.5529  -15.9295 C   0  0  0  0  0  0  0  0  0  0  0  0
   23.6440  -17.4354  -16.0128 O   0  0  0  0  0  0  0  0  0  0  0  0
   25.5758  -23.4081  -14.9032 N   0  0  0  0  0  0  0  0  0  0  0  0
   24.2105  -23.1796  -14.6659 C   0  0  0  0  0  0  0  0  0  0  0  0
   23.5206  -24.1225  -14.2287 O   0  0  0  0  0  0  0  0  0  0  0  0
   23.5715  -21.8696  -14.9145 C   0  0  0  0  0  0  0  0  0  0  0  0
   24.4947  -20.8147  -15.4039 C   0  0  0  0  0  0  0  0  0  0  0  0
   24.5684  -19.5737  -14.5468 C   0  0  2  0  0  0  0  0  0  0  0  0
   25.4164  -18.5641  -15.0880 N   0  0  0  0  0  0  0  0  0  0  0  0
   25.1659  -20.0352  -13.2423 C   0  0  0  0  0  0  0  0  0  0  0  0
   26.3924  -19.8585  -13.0764 O   0  0  0  0  0  0  0  0  0  0  0  0
   27.0997  -21.3723   -9.6642 C   0  0  0  0  0  0  0  0  0  0  0  0
   26.9164  -19.8828  -10.0142 C   0  0  2  0  0  0  0  0  0  0  0  0
   27.2211  -19.0575   -8.8078 C   0  0  0  0  0  0  0  0  0  0  0  0
   25.4835  -19.7253  -10.4144 C   0  0  0  0  0  0  0  0  0  0  0  0
   24.9551  -21.0097  -10.9903 C   0  0  2  0  0  0  0  0  0  0  0  0
   24.3493  -20.6359  -12.2734 N   0  0  0  0  0  0  0  0  0  0  0  0
   23.9503  -21.6548  -10.1210 C   0  0  0  0  0  0  0  0  0  0  0  0
   22.5944  -21.3333  -10.3435 O   0  0  0  0  0  0  0  0  0  0  0  0
   24.1677  -22.4604   -9.2027 O   0  0  0  0  0  0  0  0  0  0  0  0
  2  1  1  6
  2  4  1  0
  3  2  1  0
  4  5  1  6
  6 14  1  0
  6  4  1  0
  7  6  2  0
  9  8  1  0
  9 11  1  0
 10  9  2  0
 12 11  1  0
 13 12  1  6
 13 14  1  0
 15 13  1  0
 16 15  2  0
 18 20  1  0
 18 17  1  1
 19 18  1  0
 21 20  1  1
 21 22  1  0
 21 23  1  0
 22 15  1  0
 23 24  1  0
 25 23  2  0
M  END
$$$$
