VQL.pdb
     RDKit          3D

 25 24  0  0  1  0  0  0  0  0999 V2000
   26.7960  -20.4071   -8.4600 C   0  0  0  0  0  0  0  0  0  0  0  0
   26.0656  -20.2896   -9.8038 C   0  0  2  0  0  0  0  0  0  0  0  0
   24.6120  -20.5695   -9.5583 C   0  0  0  0  0  0  0  0  0  0  0  0
   26.6868  -21.2301  -10.8133 C   0  0  2  0  0  0  0  0  0  0  0  0
   28.1196  -21.2377  -10.7464 N   0  0  0  0  0  0  0  0  0  0  0  0
   26.1716  -20.8836  -12.1524 C   0  0  0  0  0  0  0  0  0  0  0  0
   26.9930  -20.8491  -13.1054 O   0  0  0  0  0  0  0  0  0  0  0  0
   25.5875  -23.8459  -15.3451 N   0  0  0  0  0  0  0  0  0  0  0  0
   24.1922  -23.9422  -15.4730 C   0  0  0  0  0  0  0  0  0  0  0  0
   23.7293  -24.5258  -16.4737 O   0  0  0  0  0  0  0  0  0  0  0  0
   23.2638  -23.3803  -14.4689 C   0  0  0  0  0  0  0  0  0  0  0  0
   23.9258  -22.6868  -13.3350 C   0  0  0  0  0  0  0  0  0  0  0  0
   24.1419  -21.2043  -13.5232 C   0  0  2  0  0  0  0  0  0  0  0  0
   24.8149  -20.5889  -12.4279 N   0  0  0  0  0  0  0  0  0  0  0  0
   22.7571  -20.6158  -13.6101 C   0  0  0  0  0  0  0  0  0  0  0  0
   21.9621  -20.8747  -12.6806 O   0  0  0  0  0  0  0  0  0  0  0  0
   19.6698  -17.0822  -17.5101 C   0  0  0  0  0  0  0  0  0  0  0  0
   19.7334  -17.6370  -16.0738 C   0  0  2  0  0  0  0  0  0  0  0  0
   19.6854  -16.4987  -15.1089 C   0  0  0  0  0  0  0  0  0  0  0  0
   21.0365  -18.3645  -15.9688 C   0  0  0  0  0  0  0  0  0  0  0  0
   21.0921  -19.1606  -14.6946 C   0  0  2  0  0  0  0  0  0  0  0  0
   22.4064  -19.8132  -14.7053 N   0  0  0  0  0  0  0  0  0  0  0  0
   20.0209  -20.1736  -14.6066 C   0  0  0  0  0  0  0  0  0  0  0  0
   18.9416  -19.9062  -13.7378 O   0  0  0  0  0  0  0  0  0  0  0  0
   19.9624  -21.2505  -15.2203 O   0  0  0  0  0  0  0  0  0  0  0  0
  2  1  1  1
  2  4  1  0
  3  2  1  0
  4  5  1  6
  6 14  1  0
  6  4  1  0
  7  6  2  0
  9  8  1  0
  9 11  1  0
 10  9  2  0
 12 11  1  0
 13 12  1  1
 13 14  1  0
 15 13  1  0
 16 15  2  0
 18 20  1  0
 18 17  1  6
 19 18  1  0
 21 20  1  6
 21 22  1  0
 21 23  1  0
 22 15  1  0
 23 24  1  0
 25 23  2  0
M  END
$$$$
