YYE.pdb
     RDKit          3D

 34 35  0  0  1  0  0  0  0  0999 V2000
   24.0411  -16.5782  -23.1640 O   0  0  0  0  0  0  0  0  0  0  0  0
   23.6827  -15.6986  -22.1221 C   0  0  0  0  0  0  0  0  0  0  0  0
   24.5439  -14.7553  -21.6296 C   0  0  0  0  0  0  0  0  0  0  0  0
   24.1947  -13.8911  -20.6077 C   0  0  0  0  0  0  0  0  0  0  0  0
   22.9346  -13.9900  -20.0729 C   0  0  0  0  0  0  0  0  0  0  0  0
   22.5407  -13.0714  -18.9694 C   0  0  0  0  0  0  0  0  0  0  0  0
   23.1343  -13.4911  -17.6486 C   0  0  2  0  0  0  0  0  0  0  0  0
   22.5457  -14.7468  -17.2275 N   0  0  0  0  0  0  0  0  0  0  0  0
   22.9105  -12.4977  -16.5868 C   0  0  0  0  0  0  0  0  0  0  0  0
   21.8072  -12.4320  -15.9900 O   0  0  0  0  0  0  0  0  0  0  0  0
   22.0390  -14.9250  -20.5404 C   0  0  0  0  0  0  0  0  0  0  0  0
   22.4230  -15.7677  -21.5586 C   0  0  0  0  0  0  0  0  0  0  0  0
   29.3674   -9.9216  -18.2960 O   0  0  0  0  0  0  0  0  0  0  0  0
   28.3184   -9.9880  -17.3841 C   0  0  0  0  0  0  0  0  0  0  0  0
   27.4356   -8.9395  -17.2238 C   0  0  0  0  0  0  0  0  0  0  0  0
   26.3766   -8.9962  -16.3097 C   0  0  0  0  0  0  0  0  0  0  0  0
   26.1916  -10.1155  -15.5414 C   0  0  0  0  0  0  0  0  0  0  0  0
   25.0972  -10.2388  -14.5638 C   0  0  0  0  0  0  0  0  0  0  0  0
   23.7491  -10.5372  -15.2009 C   0  0  2  0  0  0  0  0  0  0  0  0
   23.9106  -11.5658  -16.1770 N   0  0  0  0  0  0  0  0  0  0  0  0
   23.2979   -9.2509  -15.7974 C   0  0  0  0  0  0  0  0  0  0  0  0
   23.7031   -8.9725  -16.9502 O   0  0  0  0  0  0  0  0  0  0  0  0
   27.0708  -11.1771  -15.6917 C   0  0  0  0  0  0  0  0  0  0  0  0
   28.1161  -11.1143  -16.5976 C   0  0  0  0  0  0  0  0  0  0  0  0
   22.4503   -8.3494  -15.1313 N   0  0  0  0  0  0  0  0  0  0  0  0
   21.9340   -7.1205  -15.7902 C   0  0  1  0  0  0  0  0  0  0  0  0
   20.6025   -7.5076  -16.3391 C   0  0  0  0  0  0  0  0  0  0  0  0
   19.4898   -7.8417  -15.4500 C   0  0  0  0  0  0  0  0  0  0  0  0
   18.2047   -8.2583  -15.9937 C   0  0  0  0  0  0  0  0  0  0  0  0
   17.4202   -7.3568  -16.4539 O   0  0  0  0  0  0  0  0  0  0  0  0
   21.7855   -6.1599  -14.6730 C   0  0  0  0  0  0  0  0  0  0  0  0
   21.8761   -6.6316  -13.4813 O   0  0  0  0  0  0  0  0  0  0  0  0
   17.7724   -9.5709  -16.0488 O   0  0  0  0  0  0  0  0  0  0  0  0
   21.5653   -4.8121  -14.7701 O   0  0  0  0  0  0  0  0  0  0  0  0
  2  1  1  0
  3  2  2  0
  4  3  1  0
  5  4  2  0
  5 11  1  0
  6  7  1  0
  6  5  1  0
  7  9  1  0
  7  8  1  1
  9 10  2  0
 11 12  2  0
 12  2  1  0
 13 14  1  0
 14 24  2  0
 15 14  1  0
 16 15  2  0
 16 17  1  0
 17 23  2  0
 18 17  1  0
 19 18  1  6
 20 19  1  0
 20  9  1  0
 21 19  1  0
 21 25  1  0
 22 21  2  0
 23 24  1  0
 26 25  1  0
 26 27  1  1
 27 28  1  0
 28 29  1  0
 29 33  1  0
 30 29  2  0
 31 26  1  0
 32 31  2  0
 34 31  1  0
M  END
$$$$
