YYE.pdb
     RDKit          3D

 34 35  0  0  1  0  0  0  0  0999 V2000
   29.8300  -15.2854  -22.9181 O   0  0  0  0  0  0  0  0  0  0  0  0
   29.3447  -16.3169  -22.0883 C   0  0  0  0  0  0  0  0  0  0  0  0
   28.0908  -16.8467  -22.2337 C   0  0  0  0  0  0  0  0  0  0  0  0
   27.6126  -17.8588  -21.4212 C   0  0  0  0  0  0  0  0  0  0  0  0
   28.4332  -18.3445  -20.4342 C   0  0  0  0  0  0  0  0  0  0  0  0
   27.9356  -19.4312  -19.5465 C   0  0  0  0  0  0  0  0  0  0  0  0
   27.0994  -18.8936  -18.4129 C   0  0  2  0  0  0  0  0  0  0  0  0
   27.6330  -17.6188  -17.9765 N   0  0  0  0  0  0  0  0  0  0  0  0
   27.0662  -19.8005  -17.2551 C   0  0  0  0  0  0  0  0  0  0  0  0
   26.8210  -21.0235  -17.4032 O   0  0  0  0  0  0  0  0  0  0  0  0
   29.7010  -17.8388  -20.2556 C   0  0  0  0  0  0  0  0  0  0  0  0
   30.1417  -16.8318  -21.0839 C   0  0  0  0  0  0  0  0  0  0  0  0
   25.4677  -21.2185   -8.5538 O   0  0  0  0  0  0  0  0  0  0  0  0
   25.9900  -20.8054   -9.7756 C   0  0  0  0  0  0  0  0  0  0  0  0
   26.7190  -21.6627  -10.5744 C   0  0  0  0  0  0  0  0  0  0  0  0
   27.2484  -21.2575  -11.8056 C   0  0  0  0  0  0  0  0  0  0  0  0
   27.0490  -19.9772  -12.2510 C   0  0  0  0  0  0  0  0  0  0  0  0
   27.5771  -19.4896  -13.5362 C   0  0  0  0  0  0  0  0  0  0  0  0
   26.7516  -19.9305  -14.7348 C   0  0  2  0  0  0  0  0  0  0  0  0
   27.3044  -19.3579  -15.9194 N   0  0  0  0  0  0  0  0  0  0  0  0
   25.3689  -19.4529  -14.4623 C   0  0  0  0  0  0  0  0  0  0  0  0
   25.1687  -18.2159  -14.4791 O   0  0  0  0  0  0  0  0  0  0  0  0
   26.3182  -19.1046  -11.4591 C   0  0  0  0  0  0  0  0  0  0  0  0
   25.7976  -19.5119  -10.2424 C   0  0  0  0  0  0  0  0  0  0  0  0
   24.2957  -20.3185  -14.1905 N   0  0  0  0  0  0  0  0  0  0  0  0
   22.9340  -19.8100  -13.8769 C   0  0  1  0  0  0  0  0  0  0  0  0
   22.1586  -19.9802  -15.1393 C   0  0  0  0  0  0  0  0  0  0  0  0
   20.7053  -19.8133  -15.1586 C   0  0  0  0  0  0  0  0  0  0  0  0
   20.0656  -18.9965  -16.1804 C   0  0  0  0  0  0  0  0  0  0  0  0
   20.7564  -18.6536  -17.2028 O   0  0  0  0  0  0  0  0  0  0  0  0
   22.4469  -20.7361  -12.8290 C   0  0  0  0  0  0  0  0  0  0  0  0
   22.9506  -21.9180  -12.8142 O   0  0  0  0  0  0  0  0  0  0  0  0
   18.7529  -18.5649  -16.1218 O   0  0  0  0  0  0  0  0  0  0  0  0
   21.5147  -20.4686  -11.8627 O   0  0  0  0  0  0  0  0  0  0  0  0
  2  1  1  0
  3  2  2  0
  4  3  1  0
  5  4  2  0
  5 11  1  0
  6  7  1  0
  6  5  1  0
  7  9  1  0
  7  8  1  1
  9 10  2  0
 11 12  2  0
 12  2  1  0
 13 14  1  0
 14 24  2  0
 15 14  1  0
 16 15  2  0
 16 17  1  0
 17 23  2  0
 18 17  1  0
 19 18  1  1
 20 19  1  0
 20  9  1  0
 21 19  1  0
 21 25  1  0
 22 21  2  0
 23 24  1  0
 26 25  1  0
 26 27  1  6
 27 28  1  0
 28 29  1  0
 29 33  1  0
 30 29  2  0
 31 26  1  0
 32 31  2  0
 34 31  1  0
M  END
$$$$
