YYE.pdb
     RDKit          3D

 34 35  0  0  1  0  0  0  0  0999 V2000
   24.9261  -34.6403   -6.1074 O   0  0  0  0  0  0  0  0  0  0  0  0
   25.1979  -33.9499   -4.9086 C   0  0  0  0  0  0  0  0  0  0  0  0
   26.4060  -34.0355   -4.2705 C   0  0  0  0  0  0  0  0  0  0  0  0
   26.6753  -33.3589   -3.0946 C   0  0  0  0  0  0  0  0  0  0  0  0
   25.6878  -32.5740   -2.5537 C   0  0  0  0  0  0  0  0  0  0  0  0
   25.9566  -31.8408   -1.2862 C   0  0  0  0  0  0  0  0  0  0  0  0
   25.8761  -32.7468   -0.0838 C   0  0  2  0  0  0  0  0  0  0  0  0
   24.5190  -33.2315    0.0705 N   0  0  0  0  0  0  0  0  0  0  0  0
   26.2684  -32.0695    1.1619 C   0  0  0  0  0  0  0  0  0  0  0  0
   27.4407  -31.6482    1.3229 O   0  0  0  0  0  0  0  0  0  0  0  0
   24.4595  -32.4613   -3.1648 C   0  0  0  0  0  0  0  0  0  0  0  0
   24.2290  -33.1498   -4.3341 C   0  0  0  0  0  0  0  0  0  0  0  0
   25.8411  -27.2453    8.5462 O   0  0  0  0  0  0  0  0  0  0  0  0
   25.6050  -27.9174    7.3509 C   0  0  0  0  0  0  0  0  0  0  0  0
   26.5374  -27.9273    6.3335 C   0  0  0  0  0  0  0  0  0  0  0  0
   26.3101  -28.6008    5.1272 C   0  0  0  0  0  0  0  0  0  0  0  0
   25.1350  -29.2769    4.9289 C   0  0  0  0  0  0  0  0  0  0  0  0
   24.8356  -30.0059    3.6849 C   0  0  0  0  0  0  0  0  0  0  0  0
   25.6815  -31.2558    3.4988 C   0  0  2  0  0  0  0  0  0  0  0  0
   25.3620  -31.8538    2.2430 N   0  0  0  0  0  0  0  0  0  0  0  0
   25.3482  -32.1365    4.6509 C   0  0  0  0  0  0  0  0  0  0  0  0
   24.3704  -32.9103    4.5255 O   0  0  0  0  0  0  0  0  0  0  0  0
   24.1888  -29.2758    5.9424 C   0  0  0  0  0  0  0  0  0  0  0  0
   24.4200  -28.6075    7.1329 C   0  0  0  0  0  0  0  0  0  0  0  0
   26.0729  -32.1354    5.8549 N   0  0  0  0  0  0  0  0  0  0  0  0
   25.6935  -33.0008    7.0030 C   0  0  1  0  0  0  0  0  0  0  0  0
   25.9768  -34.3922    6.5474 C   0  0  0  0  0  0  0  0  0  0  0  0
   25.9055  -35.5185    7.4782 C   0  0  0  0  0  0  0  0  0  0  0  0
   24.6215  -36.1036    7.8383 C   0  0  0  0  0  0  0  0  0  0  0  0
   24.3964  -36.3586    9.0730 O   0  0  0  0  0  0  0  0  0  0  0  0
   26.6326  -32.5943    8.0735 C   0  0  0  0  0  0  0  0  0  0  0  0
   26.2694  -32.8191    9.2853 O   0  0  0  0  0  0  0  0  0  0  0  0
   23.6213  -36.4024    6.9310 O   0  0  0  0  0  0  0  0  0  0  0  0
   27.8578  -32.0047    7.9135 O   0  0  0  0  0  0  0  0  0  0  0  0
  2  1  1  0
  3  2  2  0
  4  3  1  0
  5  4  2  0
  5 11  1  0
  6  7  1  0
  6  5  1  0
  7  9  1  0
  7  8  1  1
  9 10  2  0
 11 12  2  0
 12  2  1  0
 13 14  1  0
 14 24  2  0
 15 14  1  0
 16 15  2  0
 16 17  1  0
 17 23  2  0
 18 17  1  0
 19 18  1  1
 20 19  1  0
 20  9  1  0
 21 19  1  0
 21 25  1  0
 22 21  2  0
 23 24  1  0
 26 25  1  0
 26 27  1  6
 27 28  1  0
 28 29  1  0
 29 33  1  0
 30 29  2  0
 31 26  1  0
 32 31  2  0
 34 31  1  0
M  END
$$$$
