YYE.pdb
     RDKit          3D

 34 35  0  0  1  0  0  0  0  0999 V2000
   27.3350  -30.2495    7.6593 O   0  0  0  0  0  0  0  0  0  0  0  0
   27.4041  -31.1341    6.5637 C   0  0  0  0  0  0  0  0  0  0  0  0
   26.6399  -32.2672    6.4863 C   0  0  0  0  0  0  0  0  0  0  0  0
   26.7057  -33.1364    5.4124 C   0  0  0  0  0  0  0  0  0  0  0  0
   27.5730  -32.8440    4.3897 C   0  0  0  0  0  0  0  0  0  0  0  0
   27.6615  -33.7692    3.2267 C   0  0  0  0  0  0  0  0  0  0  0  0
   26.8764  -33.2627    2.0433 C   0  0  2  0  0  0  0  0  0  0  0  0
   25.4603  -33.2915    2.3504 N   0  0  0  0  0  0  0  0  0  0  0  0
   27.1017  -34.0638    0.8302 C   0  0  0  0  0  0  0  0  0  0  0  0
   26.5828  -35.2008    0.7050 O   0  0  0  0  0  0  0  0  0  0  0  0
   28.3586  -31.7143    4.4295 C   0  0  0  0  0  0  0  0  0  0  0  0
   28.2651  -30.8732    5.5150 C   0  0  0  0  0  0  0  0  0  0  0  0
   29.4201  -35.8524   -7.5861 O   0  0  0  0  0  0  0  0  0  0  0  0
   29.1923  -35.2388   -6.3582 C   0  0  0  0  0  0  0  0  0  0  0  0
   27.9315  -34.8195   -5.9851 C   0  0  0  0  0  0  0  0  0  0  0  0
   27.6913  -34.2016   -4.7519 C   0  0  0  0  0  0  0  0  0  0  0  0
   28.7228  -33.9972   -3.8736 C   0  0  0  0  0  0  0  0  0  0  0  0
   28.5364  -33.3553   -2.5614 C   0  0  0  0  0  0  0  0  0  0  0  0
   28.1877  -34.3364   -1.4532 C   0  0  2  0  0  0  0  0  0  0  0  0
   27.9072  -33.6103   -0.2570 N   0  0  0  0  0  0  0  0  0  0  0  0
   29.3760  -35.2215   -1.3175 C   0  0  0  0  0  0  0  0  0  0  0  0
   30.3628  -34.7751   -0.6869 O   0  0  0  0  0  0  0  0  0  0  0  0
   29.9952  -34.4134   -4.2348 C   0  0  0  0  0  0  0  0  0  0  0  0
   30.2257  -35.0237   -5.4561 C   0  0  0  0  0  0  0  0  0  0  0  0
   29.4365  -36.5167   -1.8596 N   0  0  0  0  0  0  0  0  0  0  0  0
   30.6346  -37.3824   -1.6986 C   0  0  1  0  0  0  0  0  0  0  0  0
   30.3907  -38.1489   -0.4428 C   0  0  0  0  0  0  0  0  0  0  0  0
   31.2020  -39.3185   -0.1050 C   0  0  0  0  0  0  0  0  0  0  0  0
   30.9029  -40.1123    1.0787 C   0  0  0  0  0  0  0  0  0  0  0  0
   31.3646  -41.3052    1.1411 O   0  0  0  0  0  0  0  0  0  0  0  0
   30.5838  -38.2743   -2.8798 C   0  0  0  0  0  0  0  0  0  0  0  0
   29.4235  -38.6753   -3.2591 O   0  0  0  0  0  0  0  0  0  0  0  0
   30.1506  -39.6611    2.1480 O   0  0  0  0  0  0  0  0  0  0  0  0
   31.6449  -38.7187   -3.6219 O   0  0  0  0  0  0  0  0  0  0  0  0
  2  1  1  0
  3  2  2  0
  4  3  1  0
  5  4  2  0
  5 11  1  0
  6  7  1  0
  6  5  1  0
  7  9  1  0
  7  8  1  1
  9 10  2  0
 11 12  2  0
 12  2  1  0
 13 14  1  0
 14 24  2  0
 15 14  1  0
 16 15  2  0
 16 17  1  0
 17 23  2  0
 18 17  1  0
 19 18  1  6
 20 19  1  0
 20  9  1  0
 21 19  1  0
 21 25  1  0
 22 21  2  0
 23 24  1  0
 26 25  1  0
 26 27  1  1
 27 28  1  0
 28 29  1  0
 29 33  1  0
 30 29  2  0
 31 26  1  0
 32 31  2  0
 34 31  1  0
M  END
$$$$
