YYE.pdb
     RDKit          3D

 34 35  0  0  1  0  0  0  0  0999 V2000
   28.9523  -12.0043  -15.0645 O   0  0  0  0  0  0  0  0  0  0  0  0
   27.9961  -11.0584  -15.4873 C   0  0  0  0  0  0  0  0  0  0  0  0
   28.2593  -10.1353  -16.4634 C   0  0  0  0  0  0  0  0  0  0  0  0
   27.3229   -9.2065  -16.8801 C   0  0  0  0  0  0  0  0  0  0  0  0
   26.0852   -9.2180  -16.2871 C   0  0  0  0  0  0  0  0  0  0  0  0
   25.0646   -8.2238  -16.7189 C   0  0  0  0  0  0  0  0  0  0  0  0
   23.7692   -8.8838  -17.1180 C   0  0  2  0  0  0  0  0  0  0  0  0
   24.0230   -9.8707  -18.1485 N   0  0  0  0  0  0  0  0  0  0  0  0
   22.7802   -7.9238  -17.6323 C   0  0  0  0  0  0  0  0  0  0  0  0
   22.8424   -7.5088  -18.8163 O   0  0  0  0  0  0  0  0  0  0  0  0
   25.7811  -10.1303  -15.3021 C   0  0  0  0  0  0  0  0  0  0  0  0
   26.7391  -11.0391  -14.9140 C   0  0  0  0  0  0  0  0  0  0  0  0
   18.4072  -11.1743  -21.2085 O   0  0  0  0  0  0  0  0  0  0  0  0
   18.6344  -10.2430  -20.2000 C   0  0  0  0  0  0  0  0  0  0  0  0
   19.0215  -10.6321  -18.9337 C   0  0  0  0  0  0  0  0  0  0  0  0
   19.2532   -9.7032  -17.9120 C   0  0  0  0  0  0  0  0  0  0  0  0
   19.0979   -8.3635  -18.1535 C   0  0  0  0  0  0  0  0  0  0  0  0
   19.3276   -7.3365  -17.1234 C   0  0  0  0  0  0  0  0  0  0  0  0
   20.6410   -6.5900  -17.2971 C   0  0  2  0  0  0  0  0  0  0  0  0
   21.7115   -7.4136  -16.8360 N   0  0  0  0  0  0  0  0  0  0  0  0
   20.4974   -5.3422  -16.4994 C   0  0  0  0  0  0  0  0  0  0  0  0
   20.7102   -5.4142  -15.2664 O   0  0  0  0  0  0  0  0  0  0  0  0
   18.7095   -7.9577  -19.4212 C   0  0  0  0  0  0  0  0  0  0  0  0
   18.4819   -8.8816  -20.4270 C   0  0  0  0  0  0  0  0  0  0  0  0
   20.1377   -4.1060  -17.0629 N   0  0  0  0  0  0  0  0  0  0  0  0
   20.0543   -2.8643  -16.2492 C   0  0  1  0  0  0  0  0  0  0  0  0
   20.1201   -1.7500  -17.2381 C   0  0  0  0  0  0  0  0  0  0  0  0
   20.0055   -0.3558  -16.8102 C   0  0  0  0  0  0  0  0  0  0  0  0
   19.9782    0.7213  -17.7897 C   0  0  0  0  0  0  0  0  0  0  0  0
   19.7551    1.9124  -17.3752 O   0  0  0  0  0  0  0  0  0  0  0  0
   18.7117   -2.9413  -15.6291 C   0  0  0  0  0  0  0  0  0  0  0  0
   17.8104   -3.5978  -16.2674 O   0  0  0  0  0  0  0  0  0  0  0  0
   20.1806    0.5440  -19.1464 O   0  0  0  0  0  0  0  0  0  0  0  0
   18.3222   -2.3897  -14.4381 O   0  0  0  0  0  0  0  0  0  0  0  0
  2  1  1  0
  3  2  2  0
  4  3  1  0
  5  4  2  0
  5 11  1  0
  6  7  1  0
  6  5  1  0
  7  9  1  0
  7  8  1  6
  9 10  2  0
 11 12  2  0
 12  2  1  0
 13 14  1  0
 14 24  2  0
 15 14  1  0
 16 15  2  0
 16 17  1  0
 17 23  2  0
 18 17  1  0
 19 18  1  1
 20 19  1  0
 20  9  1  0
 21 19  1  0
 21 25  1  0
 22 21  2  0
 23 24  1  0
 26 25  1  0
 26 27  1  6
 27 28  1  0
 28 29  1  0
 29 33  1  0
 30 29  2  0
 31 26  1  0
 32 31  2  0
 34 31  1  0
M  END
$$$$
