YYE.pdb
     RDKit          3D

 34 35  0  0  1  0  0  0  0  0999 V2000
   27.8324  -25.4161  -17.4171 O   0  0  0  0  0  0  0  0  0  0  0  0
   26.9789  -24.6654  -16.5829 C   0  0  0  0  0  0  0  0  0  0  0  0
   26.0404  -25.2510  -15.7764 C   0  0  0  0  0  0  0  0  0  0  0  0
   25.2021  -24.5169  -14.9570 C   0  0  0  0  0  0  0  0  0  0  0  0
   25.3226  -23.1497  -14.9588 C   0  0  0  0  0  0  0  0  0  0  0  0
   24.4268  -22.3414  -14.0867 C   0  0  0  0  0  0  0  0  0  0  0  0
   22.9710  -22.5907  -14.3899 C   0  0  2  0  0  0  0  0  0  0  0  0
   22.6216  -21.9631  -15.6486 N   0  0  0  0  0  0  0  0  0  0  0  0
   22.0777  -22.0623  -13.3473 C   0  0  0  0  0  0  0  0  0  0  0  0
   22.4221  -21.0817  -12.6419 O   0  0  0  0  0  0  0  0  0  0  0  0
   26.2540  -22.5226  -15.7552 C   0  0  0  0  0  0  0  0  0  0  0  0
   27.0706  -23.2870  -16.5572 C   0  0  0  0  0  0  0  0  0  0  0  0
   20.2502  -16.1950  -14.4453 O   0  0  0  0  0  0  0  0  0  0  0  0
   19.8839  -17.4657  -14.0128 C   0  0  0  0  0  0  0  0  0  0  0  0
   19.6458  -17.7324  -12.6799 C   0  0  0  0  0  0  0  0  0  0  0  0
   19.2762  -19.0072  -12.2342 C   0  0  0  0  0  0  0  0  0  0  0  0
   19.1403  -20.0353  -13.1297 C   0  0  0  0  0  0  0  0  0  0  0  0
   18.7529  -21.3974  -12.7260 C   0  0  0  0  0  0  0  0  0  0  0  0
   19.8816  -22.1770  -12.0698 C   0  0  2  0  0  0  0  0  0  0  0  0
   20.7917  -22.6187  -13.0765 N   0  0  0  0  0  0  0  0  0  0  0  0
   19.2238  -23.3074  -11.3602 C   0  0  0  0  0  0  0  0  0  0  0  0
   18.9042  -24.3111  -12.0392 O   0  0  0  0  0  0  0  0  0  0  0  0
   19.3762  -19.7821  -14.4725 C   0  0  0  0  0  0  0  0  0  0  0  0
   19.7416  -18.5190  -14.9064 C   0  0  0  0  0  0  0  0  0  0  0  0
   18.9499  -23.2953   -9.9819 N   0  0  0  0  0  0  0  0  0  0  0  0
   18.2486  -24.4205   -9.3087 C   0  0  1  0  0  0  0  0  0  0  0  0
   18.2689  -24.0749   -7.8582 C   0  0  0  0  0  0  0  0  0  0  0  0
   17.4950  -24.8503   -6.8886 C   0  0  0  0  0  0  0  0  0  0  0  0
   18.1635  -25.5938   -5.8298 C   0  0  0  0  0  0  0  0  0  0  0  0
   19.4292  -25.4521   -5.6956 O   0  0  0  0  0  0  0  0  0  0  0  0
   16.8718  -24.3488   -9.8493 C   0  0  0  0  0  0  0  0  0  0  0  0
   16.3795  -23.1774  -10.0400 O   0  0  0  0  0  0  0  0  0  0  0  0
   17.5190  -26.4466   -4.9522 O   0  0  0  0  0  0  0  0  0  0  0  0
   16.0600  -25.4017  -10.1761 O   0  0  0  0  0  0  0  0  0  0  0  0
  2  1  1  0
  3  2  2  0
  4  3  1  0
  5  4  2  0
  5 11  1  0
  6  7  1  0
  6  5  1  0
  7  9  1  0
  7  8  1  6
  9 10  2  0
 11 12  2  0
 12  2  1  0
 13 14  1  0
 14 24  2  0
 15 14  1  0
 16 15  2  0
 16 17  1  0
 17 23  2  0
 18 17  1  0
 19 18  1  6
 20 19  1  0
 20  9  1  0
 21 19  1  0
 21 25  1  0
 22 21  2  0
 23 24  1  0
 26 25  1  0
 26 27  1  1
 27 28  1  0
 28 29  1  0
 29 33  1  0
 30 29  2  0
 31 26  1  0
 32 31  2  0
 34 31  1  0
M  END
$$$$
