YYE.pdb
     RDKit          3D

 34 35  0  0  1  0  0  0  0  0999 V2000
   29.3704  -37.3697  -25.5890 O   0  0  0  0  0  0  0  0  0  0  0  0
   29.3306  -36.9286  -24.2505 C   0  0  0  0  0  0  0  0  0  0  0  0
   28.5926  -35.8448  -23.8569 C   0  0  0  0  0  0  0  0  0  0  0  0
   28.5516  -35.4103  -22.5444 C   0  0  0  0  0  0  0  0  0  0  0  0
   29.2817  -36.0979  -21.6074 C   0  0  0  0  0  0  0  0  0  0  0  0
   29.2540  -35.6436  -20.1899 C   0  0  0  0  0  0  0  0  0  0  0  0
   29.7952  -34.2448  -20.0363 C   0  0  2  0  0  0  0  0  0  0  0  0
   31.2435  -34.2759  -20.0790 N   0  0  0  0  0  0  0  0  0  0  0  0
   29.3844  -33.6151  -18.7718 C   0  0  0  0  0  0  0  0  0  0  0  0
   30.1068  -33.6987  -17.7475 O   0  0  0  0  0  0  0  0  0  0  0  0
   30.0364  -37.1929  -21.9627 C   0  0  0  0  0  0  0  0  0  0  0  0
   30.0520  -37.5953  -23.2788 C   0  0  0  0  0  0  0  0  0  0  0  0
   31.9227  -27.6845  -19.1757 O   0  0  0  0  0  0  0  0  0  0  0  0
   30.8148  -28.4459  -18.8166 C   0  0  0  0  0  0  0  0  0  0  0  0
   30.5866  -28.8123  -17.5058 C   0  0  0  0  0  0  0  0  0  0  0  0
   29.4748  -29.5776  -17.1336 C   0  0  0  0  0  0  0  0  0  0  0  0
   28.5735  -29.9857  -18.0814 C   0  0  0  0  0  0  0  0  0  0  0  0
   27.3839  -30.7902  -17.7554 C   0  0  0  0  0  0  0  0  0  0  0  0
   27.7046  -32.2435  -17.4434 C   0  0  2  0  0  0  0  0  0  0  0  0
   28.1657  -32.8860  -18.6314 N   0  0  0  0  0  0  0  0  0  0  0  0
   26.4355  -32.8300  -16.9339 C   0  0  0  0  0  0  0  0  0  0  0  0
   25.5404  -33.0918  -17.7709 O   0  0  0  0  0  0  0  0  0  0  0  0
   28.7897  -29.6249  -19.4027 C   0  0  0  0  0  0  0  0  0  0  0  0
   29.8914  -28.8679  -19.7638 C   0  0  0  0  0  0  0  0  0  0  0  0
   26.2031  -33.0972  -15.5739 N   0  0  0  0  0  0  0  0  0  0  0  0
   24.9556  -33.7550  -15.1028 C   0  0  1  0  0  0  0  0  0  0  0  0
   25.2268  -34.1248  -13.6838 C   0  0  0  0  0  0  0  0  0  0  0  0
   24.6699  -33.3404  -12.5816 C   0  0  0  0  0  0  0  0  0  0  0  0
   24.8780  -33.7500  -11.1998 C   0  0  0  0  0  0  0  0  0  0  0  0
   24.3306  -33.0563  -10.2728 O   0  0  0  0  0  0  0  0  0  0  0  0
   23.9406  -32.6796  -15.1834 C   0  0  0  0  0  0  0  0  0  0  0  0
   24.3735  -31.4713  -15.2431 O   0  0  0  0  0  0  0  0  0  0  0  0
   25.6303  -34.8461  -10.8186 O   0  0  0  0  0  0  0  0  0  0  0  0
   22.5802  -32.8318  -15.2065 O   0  0  0  0  0  0  0  0  0  0  0  0
  2  1  1  0
  3  2  2  0
  4  3  1  0
  5  4  2  0
  5 11  1  0
  6  7  1  0
  6  5  1  0
  7  9  1  0
  7  8  1  1
  9 10  2  0
 11 12  2  0
 12  2  1  0
 13 14  1  0
 14 24  2  0
 15 14  1  0
 16 15  2  0
 16 17  1  0
 17 23  2  0
 18 17  1  0
 19 18  1  6
 20 19  1  0
 20  9  1  0
 21 19  1  0
 21 25  1  0
 22 21  2  0
 23 24  1  0
 26 25  1  0
 26 27  1  1
 27 28  1  0
 28 29  1  0
 29 33  1  0
 30 29  2  0
 31 26  1  0
 32 31  2  0
 34 31  1  0
M  END
$$$$
