YYE.pdb
     RDKit          3D

 34 35  0  0  1  0  0  0  0  0999 V2000
   19.6646  -17.1083  -22.0866 O   0  0  0  0  0  0  0  0  0  0  0  0
   19.4974  -16.0216  -21.2040 C   0  0  0  0  0  0  0  0  0  0  0  0
   18.3074  -15.7599  -20.5799 C   0  0  0  0  0  0  0  0  0  0  0  0
   18.1409  -14.6947  -19.7134 C   0  0  0  0  0  0  0  0  0  0  0  0
   19.2149  -13.8739  -19.4760 C   0  0  0  0  0  0  0  0  0  0  0  0
   19.0549  -12.7196  -18.5495 C   0  0  0  0  0  0  0  0  0  0  0  0
   19.9885  -12.8114  -17.3692 C   0  0  2  0  0  0  0  0  0  0  0  0
   19.6544  -13.9759  -16.5738 N   0  0  0  0  0  0  0  0  0  0  0  0
   19.9215  -11.6253  -16.5015 C   0  0  0  0  0  0  0  0  0  0  0  0
   18.9446  -11.4456  -15.7326 O   0  0  0  0  0  0  0  0  0  0  0  0
   20.4286  -14.1033  -20.0837 C   0  0  0  0  0  0  0  0  0  0  0  0
   20.5557  -15.1735  -20.9399 C   0  0  0  0  0  0  0  0  0  0  0  0
   22.4749   -3.6570  -13.3002 O   0  0  0  0  0  0  0  0  0  0  0  0
   22.4144   -4.9562  -13.7947 C   0  0  0  0  0  0  0  0  0  0  0  0
   21.9328   -5.9974  -13.0277 C   0  0  0  0  0  0  0  0  0  0  0  0
   21.8671   -7.3081  -13.5158 C   0  0  0  0  0  0  0  0  0  0  0  0
   22.2873   -7.5886  -14.7894 C   0  0  0  0  0  0  0  0  0  0  0  0
   22.2427   -8.9444  -15.3625 C   0  0  0  0  0  0  0  0  0  0  0  0
   20.8557   -9.3575  -15.8293 C   0  0  2  0  0  0  0  0  0  0  0  0
   20.9394  -10.6253  -16.4792 N   0  0  0  0  0  0  0  0  0  0  0  0
   20.4062   -8.2753  -16.7463 C   0  0  0  0  0  0  0  0  0  0  0  0
   21.0113   -8.1504  -17.8366 O   0  0  0  0  0  0  0  0  0  0  0  0
   22.7735   -6.5523  -15.5718 C   0  0  0  0  0  0  0  0  0  0  0  0
   22.8359   -5.2584  -15.0828 C   0  0  0  0  0  0  0  0  0  0  0  0
   19.3483   -7.4009  -16.4442 N   0  0  0  0  0  0  0  0  0  0  0  0
   18.9092   -6.3402  -17.3892 C   0  0  1  0  0  0  0  0  0  0  0  0
   17.4200   -6.3472  -17.3118 C   0  0  0  0  0  0  0  0  0  0  0  0
   16.6375   -7.4023  -17.9557 C   0  0  0  0  0  0  0  0  0  0  0  0
   15.2117   -7.5353  -17.6913 C   0  0  0  0  0  0  0  0  0  0  0  0
   14.4280   -6.6154  -18.1153 O   0  0  0  0  0  0  0  0  0  0  0  0
   19.4626   -5.0978  -16.8031 C   0  0  0  0  0  0  0  0  0  0  0  0
   19.6772   -5.0949  -15.5363 O   0  0  0  0  0  0  0  0  0  0  0  0
   14.6427   -8.5963  -17.0104 O   0  0  0  0  0  0  0  0  0  0  0  0
   19.7781   -3.9435  -17.4682 O   0  0  0  0  0  0  0  0  0  0  0  0
  2  1  1  0
  3  2  2  0
  4  3  1  0
  5  4  2  0
  5 11  1  0
  6  7  1  0
  6  5  1  0
  7  9  1  0
  7  8  1  1
  9 10  2  0
 11 12  2  0
 12  2  1  0
 13 14  1  0
 14 24  2  0
 15 14  1  0
 16 15  2  0
 16 17  1  0
 17 23  2  0
 18 17  1  0
 19 18  1  6
 20 19  1  0
 20  9  1  0
 21 19  1  0
 21 25  1  0
 22 21  2  0
 23 24  1  0
 26 25  1  0
 26 27  1  1
 27 28  1  0
 28 29  1  0
 29 33  1  0
 30 29  2  0
 31 26  1  0
 32 31  2  0
 34 31  1  0
M  END
$$$$
