YYE.pdb
     RDKit          3D

 34 35  0  0  1  0  0  0  0  0999 V2000
   18.2811  -14.0513  -18.3585 O   0  0  0  0  0  0  0  0  0  0  0  0
   18.7584  -12.9864  -17.5673 C   0  0  0  0  0  0  0  0  0  0  0  0
   19.1304  -13.1528  -16.2604 C   0  0  0  0  0  0  0  0  0  0  0  0
   19.5992  -12.1098  -15.4823 C   0  0  0  0  0  0  0  0  0  0  0  0
   19.6918  -10.8638  -16.0501 C   0  0  0  0  0  0  0  0  0  0  0  0
   20.1903   -9.7271  -15.2280 C   0  0  0  0  0  0  0  0  0  0  0  0
   21.6037   -9.3474  -15.5905 C   0  0  2  0  0  0  0  0  0  0  0  0
   22.5023  -10.4311  -15.2465 N   0  0  0  0  0  0  0  0  0  0  0  0
   22.0588   -8.1328  -14.8963 C   0  0  0  0  0  0  0  0  0  0  0  0
   22.4595   -8.1840  -13.7069 O   0  0  0  0  0  0  0  0  0  0  0  0
   19.3279  -10.6550  -17.3612 C   0  0  0  0  0  0  0  0  0  0  0  0
   18.8659  -11.7177  -18.1039 C   0  0  0  0  0  0  0  0  0  0  0  0
   26.1997   -6.7703  -20.0582 O   0  0  0  0  0  0  0  0  0  0  0  0
   25.6686   -6.4650  -18.8088 C   0  0  0  0  0  0  0  0  0  0  0  0
   25.4042   -5.1626  -18.4369 C   0  0  0  0  0  0  0  0  0  0  0  0
   24.8695   -4.8447  -17.1826 C   0  0  0  0  0  0  0  0  0  0  0  0
   24.5921   -5.8393  -16.2820 C   0  0  0  0  0  0  0  0  0  0  0  0
   24.0277   -5.5718  -14.9485 C   0  0  0  0  0  0  0  0  0  0  0  0
   22.5086   -5.6297  -14.9128 C   0  0  2  0  0  0  0  0  0  0  0  0
   22.0728   -6.8474  -15.5163 N   0  0  0  0  0  0  0  0  0  0  0  0
   22.0473   -4.4272  -15.6579 C   0  0  0  0  0  0  0  0  0  0  0  0
   22.1008   -4.4645  -16.9094 O   0  0  0  0  0  0  0  0  0  0  0  0
   24.8524   -7.1528  -16.6419 C   0  0  0  0  0  0  0  0  0  0  0  0
   25.3815   -7.4602  -17.8840 C   0  0  0  0  0  0  0  0  0  0  0  0
   21.5628   -3.2694  -15.0257 N   0  0  0  0  0  0  0  0  0  0  0  0
   20.8473   -2.2035  -15.7759 C   0  0  1  0  0  0  0  0  0  0  0  0
   19.4211   -2.6385  -15.7982 C   0  0  0  0  0  0  0  0  0  0  0  0
   18.3814   -1.7816  -16.3682 C   0  0  0  0  0  0  0  0  0  0  0  0
   16.9818   -2.1809  -16.3203 C   0  0  0  0  0  0  0  0  0  0  0  0
   16.6931   -3.3188  -15.8086 O   0  0  0  0  0  0  0  0  0  0  0  0
   21.0196   -1.0020  -14.9274 C   0  0  0  0  0  0  0  0  0  0  0  0
   21.4815   -1.1852  -13.7425 O   0  0  0  0  0  0  0  0  0  0  0  0
   15.9361   -1.4079  -16.7913 O   0  0  0  0  0  0  0  0  0  0  0  0
   20.7434    0.2943  -15.2704 O   0  0  0  0  0  0  0  0  0  0  0  0
  2  1  1  0
  3  2  2  0
  4  3  1  0
  5  4  2  0
  5 11  1  0
  6  7  1  0
  6  5  1  0
  7  9  1  0
  7  8  1  1
  9 10  2  0
 11 12  2  0
 12  2  1  0
 13 14  1  0
 14 24  2  0
 15 14  1  0
 16 15  2  0
 16 17  1  0
 17 23  2  0
 18 17  1  0
 19 18  1  6
 20 19  1  0
 20  9  1  0
 21 19  1  0
 21 25  1  0
 22 21  2  0
 23 24  1  0
 26 25  1  0
 26 27  1  1
 27 28  1  0
 28 29  1  0
 29 33  1  0
 30 29  2  0
 31 26  1  0
 32 31  2  0
 34 31  1  0
M  END
$$$$
