YYE.pdb
     RDKit          3D

 34 35  0  0  1  0  0  0  0  0999 V2000
   10.5550  -10.3827   -6.3898 O   0  0  0  0  0  0  0  0  0  0  0  0
   11.3747   -9.5282   -7.1551 C   0  0  0  0  0  0  0  0  0  0  0  0
   11.0008   -8.2527   -7.4828 C   0  0  0  0  0  0  0  0  0  0  0  0
   11.8032   -7.4123   -8.2332 C   0  0  0  0  0  0  0  0  0  0  0  0
   13.0192   -7.8833   -8.6613 C   0  0  0  0  0  0  0  0  0  0  0  0
   13.8959   -6.9956   -9.4736 C   0  0  0  0  0  0  0  0  0  0  0  0
   14.7400   -6.0939   -8.6089 C   0  0  2  0  0  0  0  0  0  0  0  0
   13.8977   -5.0991   -7.9754 N   0  0  0  0  0  0  0  0  0  0  0  0
   15.7853   -5.3947   -9.3722 C   0  0  0  0  0  0  0  0  0  0  0  0
   15.5242   -4.3404  -10.0031 O   0  0  0  0  0  0  0  0  0  0  0  0
   13.4319   -9.1598   -8.3527 C   0  0  0  0  0  0  0  0  0  0  0  0
   12.6058   -9.9666   -7.6038 C   0  0  0  0  0  0  0  0  0  0  0  0
   23.1603   -6.1219  -14.3976 O   0  0  0  0  0  0  0  0  0  0  0  0
   22.2420   -6.1285  -13.3522 C   0  0  0  0  0  0  0  0  0  0  0  0
   21.7623   -4.9550  -12.8071 C   0  0  0  0  0  0  0  0  0  0  0  0
   20.8378   -4.9505  -11.7556 C   0  0  0  0  0  0  0  0  0  0  0  0
   20.3816   -6.1338  -11.2370 C   0  0  0  0  0  0  0  0  0  0  0  0
   19.4088   -6.1975  -10.1334 C   0  0  0  0  0  0  0  0  0  0  0  0
   18.0790   -5.5368  -10.4614 C   0  0  2  0  0  0  0  0  0  0  0  0
   17.1325   -5.8602   -9.4435 N   0  0  0  0  0  0  0  0  0  0  0  0
   17.6879   -6.0708  -11.7940 C   0  0  0  0  0  0  0  0  0  0  0  0
   17.2891   -7.2576  -11.8490 O   0  0  0  0  0  0  0  0  0  0  0  0
   20.8547   -7.3210  -11.7749 C   0  0  0  0  0  0  0  0  0  0  0  0
   21.7691   -7.3183  -12.8147 C   0  0  0  0  0  0  0  0  0  0  0  0
   17.7474   -5.3111  -12.9749 N   0  0  0  0  0  0  0  0  0  0  0  0
   17.3260   -5.8644  -14.2891 C   0  0  1  0  0  0  0  0  0  0  0  0
   15.9078   -5.4331  -14.4523 C   0  0  0  0  0  0  0  0  0  0  0  0
   15.2359   -5.5296  -15.7482 C   0  0  0  0  0  0  0  0  0  0  0  0
   13.8423   -5.1326  -15.8930 C   0  0  0  0  0  0  0  0  0  0  0  0
   13.3005   -5.2324  -17.0491 O   0  0  0  0  0  0  0  0  0  0  0  0
   18.2038   -5.1704  -15.2591 C   0  0  0  0  0  0  0  0  0  0  0  0
   18.5243   -3.9554  -14.9913 O   0  0  0  0  0  0  0  0  0  0  0  0
   13.0586   -4.6538  -14.8588 O   0  0  0  0  0  0  0  0  0  0  0  0
   18.7203   -5.6863  -16.4174 O   0  0  0  0  0  0  0  0  0  0  0  0
  2  1  1  0
  3  2  2  0
  4  3  1  0
  5  4  2  0
  5 11  1  0
  6  7  1  0
  6  5  1  0
  7  9  1  0
  7  8  1  6
  9 10  2  0
 11 12  2  0
 12  2  1  0
 13 14  1  0
 14 24  2  0
 15 14  1  0
 16 15  2  0
 16 17  1  0
 17 23  2  0
 18 17  1  0
 19 18  1  1
 20 19  1  0
 20  9  1  0
 21 19  1  0
 21 25  1  0
 22 21  2  0
 23 24  1  0
 26 25  1  0
 26 27  1  6
 27 28  1  0
 28 29  1  0
 29 33  1  0
 30 29  2  0
 31 26  1  0
 32 31  2  0
 34 31  1  0
M  END
$$$$
