YYE.pdb
     RDKit          3D

 34 35  0  0  1  0  0  0  0  0999 V2000
   18.4007  -32.8333    0.8368 O   0  0  0  0  0  0  0  0  0  0  0  0
   19.5014  -33.2970    0.0877 C   0  0  0  0  0  0  0  0  0  0  0  0
   20.7960  -33.0317    0.4450 C   0  0  0  0  0  0  0  0  0  0  0  0
   21.8775  -33.4856   -0.2881 C   0  0  0  0  0  0  0  0  0  0  0  0
   21.6343  -34.2297   -1.4153 C   0  0  0  0  0  0  0  0  0  0  0  0
   22.7849  -34.7243   -2.2203 C   0  0  0  0  0  0  0  0  0  0  0  0
   23.3100  -33.6684   -3.1598 C   0  0  2  0  0  0  0  0  0  0  0  0
   22.3643  -33.4630   -4.2386 N   0  0  0  0  0  0  0  0  0  0  0  0
   24.6092  -34.0299   -3.7477 C   0  0  0  0  0  0  0  0  0  0  0  0
   24.6742  -34.7929   -4.7434 O   0  0  0  0  0  0  0  0  0  0  0  0
   20.3470  -34.5185   -1.8083 C   0  0  0  0  0  0  0  0  0  0  0  0
   19.2965  -34.0493   -1.0530 C   0  0  0  0  0  0  0  0  0  0  0  0
   25.7379  -32.0965   -9.7049 O   0  0  0  0  0  0  0  0  0  0  0  0
   26.2270  -32.2508   -8.4115 C   0  0  0  0  0  0  0  0  0  0  0  0
   25.5607  -31.7278   -7.3220 C   0  0  0  0  0  0  0  0  0  0  0  0
   26.0438  -31.8778   -6.0164 C   0  0  0  0  0  0  0  0  0  0  0  0
   27.2101  -32.5603   -5.7898 C   0  0  0  0  0  0  0  0  0  0  0  0
   27.7703  -32.7546   -4.4419 C   0  0  0  0  0  0  0  0  0  0  0  0
   27.1495  -33.9230   -3.6924 C   0  0  2  0  0  0  0  0  0  0  0  0
   25.8507  -33.5479   -3.2350 N   0  0  0  0  0  0  0  0  0  0  0  0
   28.0845  -34.2193   -2.5735 C   0  0  0  0  0  0  0  0  0  0  0  0
   28.1524  -33.3875   -1.6386 O   0  0  0  0  0  0  0  0  0  0  0  0
   27.8904  -33.0915   -6.8750 C   0  0  0  0  0  0  0  0  0  0  0  0
   27.4070  -32.9393   -8.1635 C   0  0  0  0  0  0  0  0  0  0  0  0
   28.8825  -35.3750   -2.5234 N   0  0  0  0  0  0  0  0  0  0  0  0
   29.7870  -35.6582   -1.3778 C   0  0  1  0  0  0  0  0  0  0  0  0
   28.9487  -36.4117   -0.4014 C   0  0  0  0  0  0  0  0  0  0  0  0
   29.5580  -37.1265    0.7202 C   0  0  0  0  0  0  0  0  0  0  0  0
   28.7344  -37.8789    1.6561 C   0  0  0  0  0  0  0  0  0  0  0  0
   29.3215  -38.5692    2.5611 O   0  0  0  0  0  0  0  0  0  0  0  0
   30.8302  -36.5317   -1.9626 C   0  0  0  0  0  0  0  0  0  0  0  0
   32.0041  -36.4668   -1.4443 O   0  0  0  0  0  0  0  0  0  0  0  0
   27.3516  -37.8968    1.6349 O   0  0  0  0  0  0  0  0  0  0  0  0
   30.6799  -37.4119   -3.0003 O   0  0  0  0  0  0  0  0  0  0  0  0
  2  1  1  0
  3  2  2  0
  4  3  1  0
  5  4  2  0
  5 11  1  0
  6  7  1  0
  6  5  1  0
  7  9  1  0
  7  8  1  6
  9 10  2  0
 11 12  2  0
 12  2  1  0
 13 14  1  0
 14 24  2  0
 15 14  1  0
 16 15  2  0
 16 17  1  0
 17 23  2  0
 18 17  1  0
 19 18  1  1
 20 19  1  0
 20  9  1  0
 21 19  1  0
 21 25  1  0
 22 21  2  0
 23 24  1  0
 26 25  1  0
 26 27  1  1
 27 28  1  0
 28 29  1  0
 29 33  1  0
 30 29  2  0
 31 26  1  0
 32 31  2  0
 34 31  1  0
M  END
$$$$
