YYE.pdb
     RDKit          3D

 34 35  0  0  1  0  0  0  0  0999 V2000
   17.8108  -24.8358   -7.1068 O   0  0  0  0  0  0  0  0  0  0  0  0
   18.4312  -24.0724   -8.1168 C   0  0  0  0  0  0  0  0  0  0  0  0
   19.4063  -23.1508   -7.8453 C   0  0  0  0  0  0  0  0  0  0  0  0
   20.0167  -22.4009   -8.8343 C   0  0  0  0  0  0  0  0  0  0  0  0
   19.6236  -22.5946  -10.1349 C   0  0  0  0  0  0  0  0  0  0  0  0
   20.2656  -21.7944  -11.2137 C   0  0  0  0  0  0  0  0  0  0  0  0
   21.3070  -20.8494  -10.6699 C   0  0  2  0  0  0  0  0  0  0  0  0
   20.6562  -19.7332  -10.0136 N   0  0  0  0  0  0  0  0  0  0  0  0
   22.1902  -20.3166  -11.7189 C   0  0  0  0  0  0  0  0  0  0  0  0
   21.9936  -19.1759  -12.2066 O   0  0  0  0  0  0  0  0  0  0  0  0
   18.6466  -23.5120  -10.4495 C   0  0  0  0  0  0  0  0  0  0  0  0
   18.0623  -24.2396   -9.4378 C   0  0  0  0  0  0  0  0  0  0  0  0
   29.6194  -19.5529  -16.5750 O   0  0  0  0  0  0  0  0  0  0  0  0
   28.6324  -19.9715  -15.6880 C   0  0  0  0  0  0  0  0  0  0  0  0
   28.0699  -21.2286  -15.7768 C   0  0  0  0  0  0  0  0  0  0  0  0
   27.0767  -21.6599  -14.8892 C   0  0  0  0  0  0  0  0  0  0  0  0
   26.6351  -20.8268  -13.8951 C   0  0  0  0  0  0  0  0  0  0  0  0
   25.5956  -21.2203  -12.9292 C   0  0  0  0  0  0  0  0  0  0  0  0
   24.2481  -20.5663  -13.1921 C   0  0  2  0  0  0  0  0  0  0  0  0
   23.3014  -21.0463  -12.2381 N   0  0  0  0  0  0  0  0  0  0  0  0
   23.8907  -20.9395  -14.5874 C   0  0  0  0  0  0  0  0  0  0  0  0
   23.4470  -22.0951  -14.7832 O   0  0  0  0  0  0  0  0  0  0  0  0
   27.1913  -19.5607  -13.7935 C   0  0  0  0  0  0  0  0  0  0  0  0
   28.1732  -19.1405  -14.6747 C   0  0  0  0  0  0  0  0  0  0  0  0
   24.0290  -20.0634  -15.6775 N   0  0  0  0  0  0  0  0  0  0  0  0
   23.5566  -20.4223  -17.0409 C   0  0  1  0  0  0  0  0  0  0  0  0
   22.4225  -19.4930  -17.3132 C   0  0  0  0  0  0  0  0  0  0  0  0
   21.0475  -19.9862  -17.3933 C   0  0  0  0  0  0  0  0  0  0  0  0
   20.1191  -19.7783  -16.2908 C   0  0  0  0  0  0  0  0  0  0  0  0
   19.8960  -20.7555  -15.4936 O   0  0  0  0  0  0  0  0  0  0  0  0
   24.7159  -20.1085  -17.9073 C   0  0  0  0  0  0  0  0  0  0  0  0
   25.5400  -19.2198  -17.4808 O   0  0  0  0  0  0  0  0  0  0  0  0
   19.4591  -18.5882  -16.0438 O   0  0  0  0  0  0  0  0  0  0  0  0
   25.0122  -20.6689  -19.1208 O   0  0  0  0  0  0  0  0  0  0  0  0
  2  1  1  0
  3  2  2  0
  4  3  1  0
  5  4  2  0
  5 11  1  0
  6  7  1  0
  6  5  1  0
  7  9  1  0
  7  8  1  6
  9 10  2  0
 11 12  2  0
 12  2  1  0
 13 14  1  0
 14 24  2  0
 15 14  1  0
 16 15  2  0
 16 17  1  0
 17 23  2  0
 18 17  1  0
 19 18  1  1
 20 19  1  0
 20  9  1  0
 21 19  1  0
 21 25  1  0
 22 21  2  0
 23 24  1  0
 26 25  1  0
 26 27  1  6
 27 28  1  0
 28 29  1  0
 29 33  1  0
 30 29  2  0
 31 26  1  0
 32 31  2  0
 34 31  1  0
M  END
$$$$
