YYE.pdb
     RDKit          3D

 34 35  0  0  1  0  0  0  0  0999 V2000
   18.8684  -14.6730  -22.4058 O   0  0  0  0  0  0  0  0  0  0  0  0
   19.3208  -13.8276  -21.3722 C   0  0  0  0  0  0  0  0  0  0  0  0
   18.9362  -13.9920  -20.0687 C   0  0  0  0  0  0  0  0  0  0  0  0
   19.3788  -13.1642  -19.0529 C   0  0  0  0  0  0  0  0  0  0  0  0
   20.2362  -12.1415  -19.3728 C   0  0  0  0  0  0  0  0  0  0  0  0
   20.7209  -11.2369  -18.2943 C   0  0  0  0  0  0  0  0  0  0  0  0
   22.1582  -11.5128  -17.9317 C   0  0  2  0  0  0  0  0  0  0  0  0
   22.2708  -12.8421  -17.3656 N   0  0  0  0  0  0  0  0  0  0  0  0
   22.6902  -10.5492  -16.9556 C   0  0  0  0  0  0  0  0  0  0  0  0
   22.5508  -10.7403  -15.7220 O   0  0  0  0  0  0  0  0  0  0  0  0
   20.6469  -11.9427  -20.6716 C   0  0  0  0  0  0  0  0  0  0  0  0
   20.1850  -12.7872  -21.6553 C   0  0  0  0  0  0  0  0  0  0  0  0
   28.2562  -13.2151  -16.3714 O   0  0  0  0  0  0  0  0  0  0  0  0
   27.5709  -12.0070  -16.4561 C   0  0  0  0  0  0  0  0  0  0  0  0
   27.4201  -11.1856  -15.3575 C   0  0  0  0  0  0  0  0  0  0  0  0
   26.7330   -9.9680  -15.4320 C   0  0  0  0  0  0  0  0  0  0  0  0
   26.1865   -9.5592  -16.6201 C   0  0  0  0  0  0  0  0  0  0  0  0
   25.4542   -8.2899  -16.7652 C   0  0  0  0  0  0  0  0  0  0  0  0
   23.9705   -8.4097  -16.4544 C   0  0  2  0  0  0  0  0  0  0  0  0
   23.3826   -9.3620  -17.3400 N   0  0  0  0  0  0  0  0  0  0  0  0
   23.4143   -7.0418  -16.6374 C   0  0  0  0  0  0  0  0  0  0  0  0
   23.3052   -6.6120  -17.8095 O   0  0  0  0  0  0  0  0  0  0  0  0
   26.3303  -10.3742  -17.7326 C   0  0  0  0  0  0  0  0  0  0  0  0
   27.0109  -11.5773  -17.6519 C   0  0  0  0  0  0  0  0  0  0  0  0
   23.0137   -6.2247  -15.5665 N   0  0  0  0  0  0  0  0  0  0  0  0
   22.3248   -4.9249  -15.7828 C   0  0  1  0  0  0  0  0  0  0  0  0
   21.0221   -5.2795  -16.4161 C   0  0  0  0  0  0  0  0  0  0  0  0
   19.9696   -4.2775  -16.5852 C   0  0  0  0  0  0  0  0  0  0  0  0
   18.6726   -4.6488  -17.1333 C   0  0  0  0  0  0  0  0  0  0  0  0
   17.8848   -5.3487  -16.4056 O   0  0  0  0  0  0  0  0  0  0  0  0
   22.1208   -4.4040  -14.4116 C   0  0  0  0  0  0  0  0  0  0  0  0
   22.2580   -5.2379  -13.4438 O   0  0  0  0  0  0  0  0  0  0  0  0
   18.2303   -4.2922  -18.3943 O   0  0  0  0  0  0  0  0  0  0  0  0
   21.8043   -3.1200  -14.0574 O   0  0  0  0  0  0  0  0  0  0  0  0
  2  1  1  0
  3  2  2  0
  4  3  1  0
  5  4  2  0
  5 11  1  0
  6  7  1  0
  6  5  1  0
  7  9  1  0
  7  8  1  1
  9 10  2  0
 11 12  2  0
 12  2  1  0
 13 14  1  0
 14 24  2  0
 15 14  1  0
 16 15  2  0
 16 17  1  0
 17 23  2  0
 18 17  1  0
 19 18  1  6
 20 19  1  0
 20  9  1  0
 21 19  1  0
 21 25  1  0
 22 21  2  0
 23 24  1  0
 26 25  1  0
 26 27  1  1
 27 28  1  0
 28 29  1  0
 29 33  1  0
 30 29  2  0
 31 26  1  0
 32 31  2  0
 34 31  1  0
M  END
$$$$
