YYE.pdb
     RDKit          3D

 34 35  0  0  1  0  0  0  0  0999 V2000
   26.9655   -0.8983  -15.9306 O   0  0  0  0  0  0  0  0  0  0  0  0
   25.9487   -1.8746  -15.9021 C   0  0  0  0  0  0  0  0  0  0  0  0
   26.2041   -3.1920  -15.6315 C   0  0  0  0  0  0  0  0  0  0  0  0
   25.2084   -4.1516  -15.6027 C   0  0  0  0  0  0  0  0  0  0  0  0
   23.9179   -3.7592  -15.8563 C   0  0  0  0  0  0  0  0  0  0  0  0
   22.8322   -4.7778  -15.8339 C   0  0  0  0  0  0  0  0  0  0  0  0
   22.8883   -5.6868  -17.0355 C   0  0  2  0  0  0  0  0  0  0  0  0
   22.7945   -4.8977  -18.2475 N   0  0  0  0  0  0  0  0  0  0  0  0
   21.8018   -6.6786  -17.0456 C   0  0  0  0  0  0  0  0  0  0  0  0
   20.6724   -6.3903  -17.5139 O   0  0  0  0  0  0  0  0  0  0  0  0
   23.6196   -2.4440  -16.1324 C   0  0  0  0  0  0  0  0  0  0  0  0
   24.6375   -1.5178  -16.1520 C   0  0  0  0  0  0  0  0  0  0  0  0
   18.0036  -14.7225  -16.2971 O   0  0  0  0  0  0  0  0  0  0  0  0
   18.8727  -13.6395  -16.2084 C   0  0  0  0  0  0  0  0  0  0  0  0
   19.1545  -13.0389  -14.9982 C   0  0  0  0  0  0  0  0  0  0  0  0
   20.0278  -11.9492  -14.8978 C   0  0  0  0  0  0  0  0  0  0  0  0
   20.6323  -11.4477  -16.0205 C   0  0  0  0  0  0  0  0  0  0  0  0
   21.5614  -10.3059  -15.9824 C   0  0  0  0  0  0  0  0  0  0  0  0
   20.9529   -9.0143  -16.5059 C   0  0  2  0  0  0  0  0  0  0  0  0
   21.9582   -8.0017  -16.5344 N   0  0  0  0  0  0  0  0  0  0  0  0
   19.8431   -8.6896  -15.5694 C   0  0  0  0  0  0  0  0  0  0  0  0
   20.1505   -8.2995  -14.4188 O   0  0  0  0  0  0  0  0  0  0  0  0
   20.3588  -12.0411  -17.2435 C   0  0  0  0  0  0  0  0  0  0  0  0
   19.4939  -13.1185  -17.3356 C   0  0  0  0  0  0  0  0  0  0  0  0
   18.4859   -8.8016  -15.9167 N   0  0  0  0  0  0  0  0  0  0  0  0
   17.3983   -8.5232  -14.9418 C   0  0  1  0  0  0  0  0  0  0  0  0
   16.6550   -7.3638  -15.5138 C   0  0  0  0  0  0  0  0  0  0  0  0
   17.0209   -5.9902  -15.1679 C   0  0  0  0  0  0  0  0  0  0  0  0
   16.3444   -4.8622  -15.7928 C   0  0  0  0  0  0  0  0  0  0  0  0
   15.4382   -5.1059  -16.6643 O   0  0  0  0  0  0  0  0  0  0  0  0
   16.5712   -9.7512  -14.9796 C   0  0  0  0  0  0  0  0  0  0  0  0
   16.4338  -10.3278  -16.1195 O   0  0  0  0  0  0  0  0  0  0  0  0
   16.6148   -3.5367  -15.5051 O   0  0  0  0  0  0  0  0  0  0  0  0
   15.9353  -10.3480  -13.9243 O   0  0  0  0  0  0  0  0  0  0  0  0
  2  1  1  0
  3  2  2  0
  4  3  1  0
  5  4  2  0
  5 11  1  0
  6  7  1  0
  6  5  1  0
  7  9  1  0
  7  8  1  6
  9 10  2  0
 11 12  2  0
 12  2  1  0
 13 14  1  0
 14 24  2  0
 15 14  1  0
 16 15  2  0
 16 17  1  0
 17 23  2  0
 18 17  1  0
 19 18  1  1
 20 19  1  0
 20  9  1  0
 21 19  1  0
 21 25  1  0
 22 21  2  0
 23 24  1  0
 26 25  1  0
 26 27  1  6
 27 28  1  0
 28 29  1  0
 29 33  1  0
 30 29  2  0
 31 26  1  0
 32 31  2  0
 34 31  1  0
M  END
$$$$
