LRP.pdb
     RDKit          3D

 27 27  0  0  1  0  0  0  0  0999 V2000
   28.3637  -20.1701   -5.6735 C   0  0  0  0  0  0  0  0  0  0  0  0
   27.0684  -19.8389   -6.4101 C   0  0  1  0  0  0  0  0  0  0  0  0
   27.0785  -18.3409   -6.6334 C   0  0  0  0  0  0  0  0  0  0  0  0
   27.1317  -20.5678   -7.7312 C   0  0  0  0  0  0  0  0  0  0  0  0
   25.8562  -20.4306   -8.5257 C   0  0  2  0  0  0  0  0  0  0  0  0
   24.7945  -21.0988   -7.8167 N   0  0  0  0  0  0  0  0  0  0  0  0
   25.9602  -20.9718   -9.8867 C   0  0  0  0  0  0  0  0  0  0  0  0
   26.6361  -22.0113  -10.1180 O   0  0  0  0  0  0  0  0  0  0  0  0
   25.8558  -25.5910  -15.4455 N   0  0  0  0  0  0  0  0  0  0  0  0
   24.8291  -24.8841  -16.1707 C   0  0  0  0  0  0  0  0  0  0  0  0
   24.4420  -25.2886  -17.3277 N   0  0  0  0  0  0  0  0  0  0  0  0
   24.2249  -23.7275  -15.6220 N   0  0  0  0  0  0  0  0  0  0  0  0
   24.5291  -23.3242  -14.2304 C   0  0  0  0  0  0  0  0  0  0  0  0
   23.7831  -22.0645  -13.9088 C   0  0  0  0  0  0  0  0  0  0  0  0
   24.0473  -21.4307  -12.6054 C   0  0  0  0  0  0  0  0  0  0  0  0
   25.3751  -20.7992  -12.3537 C   0  0  2  0  0  0  0  0  0  0  0  0
   25.3004  -20.3266  -10.9442 N   0  0  0  0  0  0  0  0  0  0  0  0
   25.7192  -19.6452  -13.1773 C   0  0  0  0  0  0  0  0  0  0  0  0
   25.2361  -18.5062  -12.7563 O   0  0  0  0  0  0  0  0  0  0  0  0
   23.7753  -24.7200  -17.8705 N   0  0  0  0  0  0  0  0  0  0  0  0
   26.5001  -19.6378  -14.3466 C   0  0  0  0  0  0  0  0  0  0  0  0
   27.0139  -20.8237  -15.0043 C   0  0  0  0  0  0  0  0  0  0  0  0
   28.2942  -20.3498  -15.6174 C   0  0  0  0  0  0  0  0  0  0  0  0
   28.3943  -18.8693  -15.3678 C   0  0  2  0  0  0  0  0  0  0  0  0
   26.9083  -18.5322  -15.1430 C   0  0  0  0  0  0  0  0  0  0  0  0
   26.2647  -18.5479  -16.5056 O   0  0  0  0  0  0  0  0  0  0  0  0
   26.5493  -17.5896  -17.4426 O   0  0  0  0  0  0  0  0  0  0  0  0
  2  3  1  6
  2  1  1  0
  4  2  1  0
  5  6  1  1
  5  4  1  0
  7  5  1  0
  8  7  2  0
  9 10  1  0
 10 12  1  0
 11 10  2  0
 12 13  1  0
 13 14  1  0
 15 14  1  0
 16 15  1  6
 16 17  1  0
 17  7  1  0
 18 16  1  0
 19 18  2  0
 20 18  1  0
 21 20  1  0
 22 21  1  0
 23 22  1  0
 23 24  1  0
 24 20  1  0
 24 25  1  6
 25 26  1  0
 27 25  2  0
M  END
$$$$
