LRP.pdb
     RDKit          3D

 27 27  0  0  1  0  0  0  0  0999 V2000
   28.6750  -18.4303   -4.3846 C   0  0  0  0  0  0  0  0  0  0  0  0
   28.5506  -19.6394   -5.3080 C   0  0  1  0  0  0  0  0  0  0  0  0
   27.9433  -20.7489   -4.4749 C   0  0  0  0  0  0  0  0  0  0  0  0
   27.6053  -19.2347   -6.4140 C   0  0  0  0  0  0  0  0  0  0  0  0
   27.3877  -20.3400   -7.4179 C   0  0  2  0  0  0  0  0  0  0  0  0
   28.6708  -20.8425   -7.8393 N   0  0  0  0  0  0  0  0  0  0  0  0
   26.6134  -19.9137   -8.5904 C   0  0  0  0  0  0  0  0  0  0  0  0
   26.5243  -18.6933   -8.8962 O   0  0  0  0  0  0  0  0  0  0  0  0
   26.0483  -22.1159  -16.0599 N   0  0  0  0  0  0  0  0  0  0  0  0
   27.3847  -22.3623  -15.5772 C   0  0  0  0  0  0  0  0  0  0  0  0
   28.0984  -23.3117  -16.0683 N   0  0  0  0  0  0  0  0  0  0  0  0
   27.9395  -21.5618  -14.5499 N   0  0  0  0  0  0  0  0  0  0  0  0
   27.1659  -20.4262  -13.9986 C   0  0  0  0  0  0  0  0  0  0  0  0
   26.0603  -20.9561  -13.1365 C   0  0  0  0  0  0  0  0  0  0  0  0
   26.3325  -21.1075  -11.6966 C   0  0  0  0  0  0  0  0  0  0  0  0
   25.3616  -20.5586  -10.7059 C   0  0  2  0  0  0  0  0  0  0  0  0
   25.9639  -20.8739   -9.3817 N   0  0  0  0  0  0  0  0  0  0  0  0
   24.0198  -21.1312  -10.7162 C   0  0  0  0  0  0  0  0  0  0  0  0
   23.8413  -22.1275   -9.8896 O   0  0  0  0  0  0  0  0  0  0  0  0
   29.0689  -23.4402  -15.7459 N   0  0  0  0  0  0  0  0  0  0  0  0
   22.9286  -20.7260  -11.5052 C   0  0  0  0  0  0  0  0  0  0  0  0
   22.9968  -19.7377  -12.5642 C   0  0  0  0  0  0  0  0  0  0  0  0
   21.6357  -19.1160  -12.5429 C   0  0  0  0  0  0  0  0  0  0  0  0
   20.8117  -19.8659  -11.5314 C   0  0  1  0  0  0  0  0  0  0  0  0
   21.5863  -21.1964  -11.4851 C   0  0  0  0  0  0  0  0  0  0  0  0
   21.2263  -21.9346  -12.7486 O   0  0  0  0  0  0  0  0  0  0  0  0
   20.0346  -22.5990  -12.8744 O   0  0  0  0  0  0  0  0  0  0  0  0
  2  3  1  1
  2  1  1  0
  4  2  1  0
  5  6  1  6
  5  4  1  0
  7  5  1  0
  8  7  2  0
  9 10  1  0
 10 12  1  0
 11 10  2  0
 12 13  1  0
 13 14  1  0
 15 14  1  0
 16 15  1  6
 16 17  1  0
 17  7  1  0
 18 16  1  0
 19 18  2  0
 20 18  1  0
 21 20  1  0
 22 21  1  0
 23 22  1  0
 23 24  1  0
 24 20  1  0
 24 25  1  6
 25 26  1  0
 27 25  2  0
M  END
$$$$
