LRP.pdb
     RDKit          3D

 27 27  0  0  1  0  0  0  0  0999 V2000
   28.1117  -18.8052  -15.6777 C   0  0  0  0  0  0  0  0  0  0  0  0
   27.4285  -19.9661  -14.9596 C   0  0  1  0  0  0  0  0  0  0  0  0
   28.4956  -21.0194  -14.7453 C   0  0  0  0  0  0  0  0  0  0  0  0
   26.9510  -19.4242  -13.6333 C   0  0  0  0  0  0  0  0  0  0  0  0
   26.3494  -20.4953  -12.7571 C   0  0  2  0  0  0  0  0  0  0  0  0
   25.1762  -21.0213  -13.4077 N   0  0  0  0  0  0  0  0  0  0  0  0
   25.9983  -20.0161  -11.4144 C   0  0  0  0  0  0  0  0  0  0  0  0
   25.3800  -18.9278  -11.2586 O   0  0  0  0  0  0  0  0  0  0  0  0
   20.3247  -23.1734   -6.8320 N   0  0  0  0  0  0  0  0  0  0  0  0
   20.5273  -22.1854   -7.8627 C   0  0  0  0  0  0  0  0  0  0  0  0
   19.6035  -21.9260   -8.7179 N   0  0  0  0  0  0  0  0  0  0  0  0
   21.7506  -21.4790   -7.9542 N   0  0  0  0  0  0  0  0  0  0  0  0
   22.8639  -21.8068   -7.0350 C   0  0  0  0  0  0  0  0  0  0  0  0
   24.0318  -20.9181   -7.3397 C   0  0  0  0  0  0  0  0  0  0  0  0
   24.7134  -21.1085   -8.6318 C   0  0  0  0  0  0  0  0  0  0  0  0
   25.9902  -20.3852   -8.9000 C   0  0  2  0  0  0  0  0  0  0  0  0
   26.3539  -20.7763  -10.2894 N   0  0  0  0  0  0  0  0  0  0  0  0
   27.1253  -20.7200   -8.0471 C   0  0  0  0  0  0  0  0  0  0  0  0
   27.8372  -21.7375   -8.4543 O   0  0  0  0  0  0  0  0  0  0  0  0
   19.7905  -21.2658   -9.4870 N   0  0  0  0  0  0  0  0  0  0  0  0
   27.5195  -20.0719   -6.8631 C   0  0  0  0  0  0  0  0  0  0  0  0
   26.8741  -18.8967   -6.3105 C   0  0  0  0  0  0  0  0  0  0  0  0
   27.9937  -18.1810   -5.6220 C   0  0  0  0  0  0  0  0  0  0  0  0
   29.2173  -19.0508   -5.7245 C   0  0  1  0  0  0  0  0  0  0  0  0
   28.5552  -20.4225   -5.9532 C   0  0  0  0  0  0  0  0  0  0  0  0
   28.0115  -20.8532   -4.6153 O   0  0  0  0  0  0  0  0  0  0  0  0
   28.8411  -21.2512   -3.6002 O   0  0  0  0  0  0  0  0  0  0  0  0
  2  3  1  1
  2  1  1  0
  4  2  1  0
  5  6  1  6
  5  4  1  0
  7  5  1  0
  8  7  2  0
  9 10  1  0
 10 12  1  0
 11 10  2  0
 12 13  1  0
 13 14  1  0
 15 14  1  0
 16 15  1  1
 16 17  1  0
 17  7  1  0
 18 16  1  0
 19 18  2  0
 20 18  1  0
 21 20  1  0
 22 21  1  0
 23 22  1  0
 23 24  1  0
 24 20  1  0
 24 25  1  1
 25 26  1  0
 27 25  2  0
M  END
$$$$
