LRP.pdb
     RDKit          3D

 27 27  0  0  1  0  0  0  0  0999 V2000
   22.2736  -22.2070  -17.9559 C   0  0  0  0  0  0  0  0  0  0  0  0
   23.0816  -22.6698  -16.7464 C   0  0  1  0  0  0  0  0  0  0  0  0
   23.1483  -24.1804  -16.8334 C   0  0  0  0  0  0  0  0  0  0  0  0
   24.4601  -22.0730  -16.9018 C   0  0  0  0  0  0  0  0  0  0  0  0
   25.4435  -22.6277  -15.9008 C   0  0  2  0  0  0  0  0  0  0  0  0
   25.1512  -22.0683  -14.6053 N   0  0  0  0  0  0  0  0  0  0  0  0
   26.8432  -22.3575  -16.2525 C   0  0  0  0  0  0  0  0  0  0  0  0
   27.3400  -21.2098  -16.0887 O   0  0  0  0  0  0  0  0  0  0  0  0
   28.3043  -28.7253  -16.6194 N   0  0  0  0  0  0  0  0  0  0  0  0
   29.6376  -28.6741  -17.1662 C   0  0  0  0  0  0  0  0  0  0  0  0
   30.0335  -29.5485  -18.0210 N   0  0  0  0  0  0  0  0  0  0  0  0
   30.5403  -27.6573  -16.7721 N   0  0  0  0  0  0  0  0  0  0  0  0
   30.1276  -26.6517  -15.7670 C   0  0  0  0  0  0  0  0  0  0  0  0
   29.2839  -25.6073  -16.4333 C   0  0  0  0  0  0  0  0  0  0  0  0
   29.8186  -24.2358  -16.4924 C   0  0  0  0  0  0  0  0  0  0  0  0
   29.0484  -23.1797  -17.2113 C   0  0  2  0  0  0  0  0  0  0  0  0
   27.6397  -23.3871  -16.7774 N   0  0  0  0  0  0  0  0  0  0  0  0
   29.0628  -23.2352  -18.6690 C   0  0  0  0  0  0  0  0  0  0  0  0
   28.0412  -23.8488  -19.2055 O   0  0  0  0  0  0  0  0  0  0  0  0
   31.0089  -29.5319  -18.3540 N   0  0  0  0  0  0  0  0  0  0  0  0
   30.0401  -22.7059  -19.5304 C   0  0  0  0  0  0  0  0  0  0  0  0
   31.2474  -22.0312  -19.0944 C   0  0  0  0  0  0  0  0  0  0  0  0
   31.5076  -21.0478  -20.1922 C   0  0  0  0  0  0  0  0  0  0  0  0
   30.4830  -21.2889  -21.2675 C   0  0  2  0  0  0  0  0  0  0  0  0
   30.0972  -22.7461  -20.9512 C   0  0  0  0  0  0  0  0  0  0  0  0
   31.2366  -23.5981  -21.4480 O   0  0  0  0  0  0  0  0  0  0  0  0
   32.1052  -24.2076  -20.5814 O   0  0  0  0  0  0  0  0  0  0  0  0
  2  3  1  6
  2  1  1  0
  4  2  1  0
  5  6  1  1
  5  4  1  0
  7  5  1  0
  8  7  2  0
  9 10  1  0
 10 12  1  0
 11 10  2  0
 12 13  1  0
 13 14  1  0
 15 14  1  0
 16 15  1  1
 16 17  1  0
 17  7  1  0
 18 16  1  0
 19 18  2  0
 20 18  1  0
 21 20  1  0
 22 21  1  0
 23 22  1  0
 23 24  1  0
 24 20  1  0
 24 25  1  6
 25 26  1  0
 27 25  2  0
M  END
$$$$
