LRP.pdb
     RDKit          3D

 27 27  0  0  1  0  0  0  0  0999 V2000
   25.2380  -20.6272   -7.0375 C   0  0  0  0  0  0  0  0  0  0  0  0
   26.0694  -20.0611   -8.1857 C   0  0  1  0  0  0  0  0  0  0  0  0
   27.4087  -20.7659   -8.1274 C   0  0  0  0  0  0  0  0  0  0  0  0
   25.3400  -20.4225   -9.4578 C   0  0  0  0  0  0  0  0  0  0  0  0
   26.0777  -19.9676  -10.6930 C   0  0  2  0  0  0  0  0  0  0  0  0
   26.6878  -18.6901  -10.4242 N   0  0  0  0  0  0  0  0  0  0  0  0
   25.2164  -19.8656  -11.8778 C   0  0  0  0  0  0  0  0  0  0  0  0
   24.2759  -19.0264  -11.9217 O   0  0  0  0  0  0  0  0  0  0  0  0
   25.5142  -25.7497  -15.7128 N   0  0  0  0  0  0  0  0  0  0  0  0
   25.3839  -24.9858  -16.9289 C   0  0  0  0  0  0  0  0  0  0  0  0
   24.6545  -25.4096  -17.8987 N   0  0  0  0  0  0  0  0  0  0  0  0
   26.0583  -23.7504  -17.0803 N   0  0  0  0  0  0  0  0  0  0  0  0
   26.9403  -23.2526  -16.0005 C   0  0  0  0  0  0  0  0  0  0  0  0
   26.1005  -22.6268  -14.9282 C   0  0  0  0  0  0  0  0  0  0  0  0
   25.4347  -21.3508  -15.2426 C   0  0  0  0  0  0  0  0  0  0  0  0
   24.5978  -20.6855  -14.2023 C   0  0  2  0  0  0  0  0  0  0  0  0
   25.4405  -20.7110  -12.9755 N   0  0  0  0  0  0  0  0  0  0  0  0
   23.3318  -21.3292  -13.8687 C   0  0  0  0  0  0  0  0  0  0  0  0
   23.3913  -22.1767  -12.8757 O   0  0  0  0  0  0  0  0  0  0  0  0
   24.6073  -24.8700  -18.7756 N   0  0  0  0  0  0  0  0  0  0  0  0
   22.0871  -21.1312  -14.4922 C   0  0  0  0  0  0  0  0  0  0  0  0
   21.8764  -20.3231  -15.6778 C   0  0  0  0  0  0  0  0  0  0  0  0
   20.4860  -19.8004  -15.4953 C   0  0  0  0  0  0  0  0  0  0  0  0
   19.9247  -20.4331  -14.2507 C   0  0  2  0  0  0  0  0  0  0  0  0
   20.8199  -21.6829  -14.1558 C   0  0  0  0  0  0  0  0  0  0  0  0
   20.3200  -22.6369  -15.2098 O   0  0  0  0  0  0  0  0  0  0  0  0
   19.1691  -23.3590  -15.0336 O   0  0  0  0  0  0  0  0  0  0  0  0
  2  3  1  6
  2  1  1  0
  4  2  1  0
  5  6  1  1
  5  4  1  0
  7  5  1  0
  8  7  2  0
  9 10  1  0
 10 12  1  0
 11 10  2  0
 12 13  1  0
 13 14  1  0
 15 14  1  0
 16 15  1  6
 16 17  1  0
 17  7  1  0
 18 16  1  0
 19 18  2  0
 20 18  1  0
 21 20  1  0
 22 21  1  0
 23 22  1  0
 23 24  1  0
 24 20  1  0
 24 25  1  6
 25 26  1  0
 27 25  2  0
M  END
$$$$
