LRP.pdb
     RDKit          3D

 27 27  0  0  1  0  0  0  0  0999 V2000
   20.7423  -11.4701    5.9219 C   0  0  0  0  0  0  0  0  0  0  0  0
   19.3902  -11.9791    5.4290 C   0  0  1  0  0  0  0  0  0  0  0  0
   19.6667  -12.7551    4.1581 C   0  0  0  0  0  0  0  0  0  0  0  0
   18.8649  -12.9007    6.5039 C   0  0  0  0  0  0  0  0  0  0  0  0
   17.7458  -13.7833    6.0085 C   0  0  2  0  0  0  0  0  0  0  0  0
   16.5813  -12.9676    5.7742 N   0  0  0  0  0  0  0  0  0  0  0  0
   17.4105  -14.8701    6.9372 C   0  0  0  0  0  0  0  0  0  0  0  0
   16.8568  -14.6257    8.0439 O   0  0  0  0  0  0  0  0  0  0  0  0
   14.5370  -19.5422    2.5981 N   0  0  0  0  0  0  0  0  0  0  0  0
   15.9152  -19.8733    2.3326 C   0  0  0  0  0  0  0  0  0  0  0  0
   16.3185  -20.1049    1.1344 N   0  0  0  0  0  0  0  0  0  0  0  0
   16.8547  -19.9505    3.3887 N   0  0  0  0  0  0  0  0  0  0  0  0
   16.4014  -19.8207    4.7921 C   0  0  0  0  0  0  0  0  0  0  0  0
   17.0264  -18.6017    5.4005 C   0  0  0  0  0  0  0  0  0  0  0  0
   16.7666  -18.3435    6.8274 C   0  0  0  0  0  0  0  0  0  0  0  0
   17.5889  -17.3300    7.5499 C   0  0  2  0  0  0  0  0  0  0  0  0
   17.7087  -16.1974    6.5916 N   0  0  0  0  0  0  0  0  0  0  0  0
   18.9433  -17.7269    7.9192 C   0  0  0  0  0  0  0  0  0  0  0  0
   19.8654  -17.4089    7.0494 O   0  0  0  0  0  0  0  0  0  0  0  0
   17.3259  -20.2165    0.9474 N   0  0  0  0  0  0  0  0  0  0  0  0
   19.3437  -18.3978    9.0883 C   0  0  0  0  0  0  0  0  0  0  0  0
   18.4453  -18.8304   10.1412 C   0  0  0  0  0  0  0  0  0  0  0  0
   19.2913  -18.7438   11.3727 C   0  0  0  0  0  0  0  0  0  0  0  0
   20.6820  -18.3653   10.9402 C   0  0  1  0  0  0  0  0  0  0  0  0
   20.6439  -18.8290    9.4719 C   0  0  0  0  0  0  0  0  0  0  0  0
   20.7553  -20.3315    9.5043 O   0  0  0  0  0  0  0  0  0  0  0  0
   21.9482  -20.9553    9.7596 O   0  0  0  0  0  0  0  0  0  0  0  0
  2  3  1  6
  2  1  1  0
  4  2  1  0
  5  6  1  1
  5  4  1  0
  7  5  1  0
  8  7  2  0
  9 10  1  0
 10 12  1  0
 11 10  2  0
 12 13  1  0
 13 14  1  0
 15 14  1  0
 16 15  1  6
 16 17  1  0
 17  7  1  0
 18 16  1  0
 19 18  2  0
 20 18  1  0
 21 20  1  0
 22 21  1  0
 23 22  1  0
 23 24  1  0
 24 20  1  0
 24 25  1  1
 25 26  1  0
 27 25  2  0
M  END
$$$$
