LRP.pdb
     RDKit          3D

 27 27  0  0  1  0  0  0  0  0999 V2000
   28.7355  -18.2692   -5.0179 C   0  0  0  0  0  0  0  0  0  0  0  0
   28.3216  -19.5453   -5.7463 C   0  0  1  0  0  0  0  0  0  0  0  0
   27.7315  -20.4617   -4.6947 C   0  0  0  0  0  0  0  0  0  0  0  0
   27.2634  -19.1410   -6.7450 C   0  0  0  0  0  0  0  0  0  0  0  0
   26.8231  -20.2929   -7.6146 C   0  0  2  0  0  0  0  0  0  0  0  0
   27.9099  -21.2328   -7.7239 N   0  0  0  0  0  0  0  0  0  0  0  0
   26.3926  -19.8755   -8.9550 C   0  0  0  0  0  0  0  0  0  0  0  0
   26.6462  -18.7163   -9.3825 O   0  0  0  0  0  0  0  0  0  0  0  0
   29.5874  -22.9758  -14.8744 N   0  0  0  0  0  0  0  0  0  0  0  0
   28.3856  -22.3554  -15.3748 C   0  0  0  0  0  0  0  0  0  0  0  0
   27.7850  -22.8223  -16.4109 N   0  0  0  0  0  0  0  0  0  0  0  0
   27.8412  -21.2167  -14.7339 N   0  0  0  0  0  0  0  0  0  0  0  0
   28.4450  -20.7159  -13.4783 C   0  0  0  0  0  0  0  0  0  0  0  0
   27.3731  -20.1084  -12.6248 C   0  0  0  0  0  0  0  0  0  0  0  0
   26.3965  -21.0212  -12.0057 C   0  0  0  0  0  0  0  0  0  0  0  0
   25.2950  -20.4591  -11.1714 C   0  0  2  0  0  0  0  0  0  0  0  0
   25.6906  -20.7755   -9.7718 N   0  0  0  0  0  0  0  0  0  0  0  0
   23.9637  -21.0183  -11.3796 C   0  0  0  0  0  0  0  0  0  0  0  0
   23.6240  -21.9567  -10.5360 O   0  0  0  0  0  0  0  0  0  0  0  0
   26.8858  -22.4145  -16.7067 N   0  0  0  0  0  0  0  0  0  0  0  0
   23.0345  -20.6552  -12.3706 C   0  0  0  0  0  0  0  0  0  0  0  0
   23.3268  -19.7970  -13.5024 C   0  0  0  0  0  0  0  0  0  0  0  0
   22.0205  -19.1151  -13.7636 C   0  0  0  0  0  0  0  0  0  0  0  0
   21.0053  -19.7074  -12.8240 C   0  0  2  0  0  0  0  0  0  0  0  0
   21.6781  -21.0583  -12.5161 C   0  0  0  0  0  0  0  0  0  0  0  0
   21.4708  -21.9172  -13.7369 O   0  0  0  0  0  0  0  0  0  0  0  0
   20.2796  -22.5524  -13.9711 O   0  0  0  0  0  0  0  0  0  0  0  0
  2  3  1  1
  2  1  1  0
  4  2  1  0
  5  6  1  6
  5  4  1  0
  7  5  1  0
  8  7  2  0
  9 10  1  0
 10 12  1  0
 11 10  2  0
 12 13  1  0
 13 14  1  0
 15 14  1  0
 16 15  1  6
 16 17  1  0
 17  7  1  0
 18 16  1  0
 19 18  2  0
 20 18  1  0
 21 20  1  0
 22 21  1  0
 23 22  1  0
 23 24  1  0
 24 20  1  0
 24 25  1  6
 25 26  1  0
 27 25  2  0
M  END
$$$$
