LRP.pdb
     RDKit          3D

 27 27  0  0  1  0  0  0  0  0999 V2000
   19.6248  -19.1071  -21.1732 C   0  0  0  0  0  0  0  0  0  0  0  0
   19.4438  -19.8253  -19.8385 C   0  0  1  0  0  0  0  0  0  0  0  0
   20.0804  -21.1899  -20.0013 C   0  0  0  0  0  0  0  0  0  0  0  0
   20.1970  -19.0128  -18.8123 C   0  0  0  0  0  0  0  0  0  0  0  0
   20.2624  -19.6992  -17.4702 C   0  0  2  0  0  0  0  0  0  0  0  0
   19.0718  -19.3757  -16.7256 N   0  0  0  0  0  0  0  0  0  0  0  0
   21.4502  -19.3322  -16.6888 C   0  0  0  0  0  0  0  0  0  0  0  0
   21.5658  -18.1778  -16.1939 O   0  0  0  0  0  0  0  0  0  0  0  0
   24.7365  -20.5539  -10.1623 N   0  0  0  0  0  0  0  0  0  0  0  0
   25.9733  -21.1598  -10.5899 C   0  0  0  0  0  0  0  0  0  0  0  0
   27.0558  -20.9938   -9.9171 N   0  0  0  0  0  0  0  0  0  0  0  0
   26.0210  -21.9516  -11.7623 N   0  0  0  0  0  0  0  0  0  0  0  0
   24.8156  -22.0892  -12.6108 C   0  0  0  0  0  0  0  0  0  0  0  0
   24.8458  -21.0416  -13.6824 C   0  0  0  0  0  0  0  0  0  0  0  0
   23.7068  -20.9888  -14.6153 C   0  0  0  0  0  0  0  0  0  0  0  0
   23.7060  -19.9796  -15.7138 C   0  0  2  0  0  0  0  0  0  0  0  0
   22.4702  -20.2754  -16.4890 N   0  0  0  0  0  0  0  0  0  0  0  0
   24.8238  -20.0283  -16.6500 C   0  0  0  0  0  0  0  0  0  0  0  0
   24.6209  -20.7654  -17.7099 O   0  0  0  0  0  0  0  0  0  0  0  0
   27.9241  -21.4563  -10.2246 N   0  0  0  0  0  0  0  0  0  0  0  0
   26.0636  -19.3760  -16.5285 C   0  0  0  0  0  0  0  0  0  0  0  0
   26.5407  -18.7268  -15.3228 C   0  0  0  0  0  0  0  0  0  0  0  0
   27.3943  -17.6143  -15.8457 C   0  0  0  0  0  0  0  0  0  0  0  0
   27.4503  -17.7527  -17.3430 C   0  0  2  0  0  0  0  0  0  0  0  0
   27.1045  -19.2465  -17.4893 C   0  0  0  0  0  0  0  0  0  0  0  0
   28.3435  -20.0043  -17.0871 O   0  0  0  0  0  0  0  0  0  0  0  0
   29.4410  -20.0671  -17.9049 O   0  0  0  0  0  0  0  0  0  0  0  0
  2  3  1  6
  2  1  1  0
  4  2  1  0
  5  6  1  1
  5  4  1  0
  7  5  1  0
  8  7  2  0
  9 10  1  0
 10 12  1  0
 11 10  2  0
 12 13  1  0
 13 14  1  0
 15 14  1  0
 16 15  1  1
 16 17  1  0
 17  7  1  0
 18 16  1  0
 19 18  2  0
 20 18  1  0
 21 20  1  0
 22 21  1  0
 23 22  1  0
 23 24  1  0
 24 20  1  0
 24 25  1  1
 25 26  1  0
 27 25  2  0
M  END
$$$$
