LRP.pdb
     RDKit          3D

 27 27  0  0  1  0  0  0  0  0999 V2000
   19.3890  -19.0790  -18.5752 C   0  0  0  0  0  0  0  0  0  0  0  0
   19.8956  -19.9320  -17.4152 C   0  0  1  0  0  0  0  0  0  0  0  0
   21.0854  -20.7051  -17.9449 C   0  0  0  0  0  0  0  0  0  0  0  0
   20.3323  -18.9685  -16.3374 C   0  0  0  0  0  0  0  0  0  0  0  0
   21.4553  -19.5195  -15.4936 C   0  0  2  0  0  0  0  0  0  0  0  0
   20.8889  -20.2333  -14.3773 N   0  0  0  0  0  0  0  0  0  0  0  0
   22.3745  -18.4841  -15.0046 C   0  0  0  0  0  0  0  0  0  0  0  0
   21.9799  -17.6005  -14.1957 O   0  0  0  0  0  0  0  0  0  0  0  0
   28.4600  -20.6301  -16.8204 N   0  0  0  0  0  0  0  0  0  0  0  0
   27.9426  -21.7115  -16.0190 C   0  0  0  0  0  0  0  0  0  0  0  0
   27.9028  -22.9115  -16.4777 N   0  0  0  0  0  0  0  0  0  0  0  0
   27.4666  -21.4734  -14.7072 N   0  0  0  0  0  0  0  0  0  0  0  0
   27.3287  -20.0851  -14.2117 C   0  0  0  0  0  0  0  0  0  0  0  0
   26.1380  -19.4467  -14.8608 C   0  0  0  0  0  0  0  0  0  0  0  0
   25.8203  -18.0582  -14.4848 C   0  0  0  0  0  0  0  0  0  0  0  0
   24.6577  -17.3745  -15.1220 C   0  0  2  0  0  0  0  0  0  0  0  0
   23.7085  -18.4757  -15.4411 N   0  0  0  0  0  0  0  0  0  0  0  0
   24.9194  -16.6575  -16.3653 C   0  0  0  0  0  0  0  0  0  0  0  0
   24.5248  -17.2736  -17.4482 O   0  0  0  0  0  0  0  0  0  0  0  0
   27.4874  -23.6627  -15.9072 N   0  0  0  0  0  0  0  0  0  0  0  0
   25.5357  -15.4018  -16.5092 C   0  0  0  0  0  0  0  0  0  0  0  0
   26.2266  -14.6944  -15.4484 C   0  0  0  0  0  0  0  0  0  0  0  0
   26.0050  -13.2552  -15.7934 C   0  0  0  0  0  0  0  0  0  0  0  0
   25.2813  -13.2124  -17.1121 C   0  0  1  0  0  0  0  0  0  0  0  0
   25.6619  -14.5951  -17.6740 C   0  0  0  0  0  0  0  0  0  0  0  0
   27.0933  -14.4815  -18.1314 O   0  0  0  0  0  0  0  0  0  0  0  0
   27.4642  -13.5953  -19.1083 O   0  0  0  0  0  0  0  0  0  0  0  0
  2  3  1  6
  2  1  1  0
  4  2  1  0
  5  6  1  1
  5  4  1  0
  7  5  1  0
  8  7  2  0
  9 10  1  0
 10 12  1  0
 11 10  2  0
 12 13  1  0
 13 14  1  0
 15 14  1  0
 16 15  1  6
 16 17  1  0
 17  7  1  0
 18 16  1  0
 19 18  2  0
 20 18  1  0
 21 20  1  0
 22 21  1  0
 23 22  1  0
 23 24  1  0
 24 20  1  0
 24 25  1  6
 25 26  1  0
 27 25  2  0
M  END
$$$$
