LRP.pdb
     RDKit          3D

 27 27  0  0  1  0  0  0  0  0999 V2000
   19.5087  -17.3953  -19.7243 C   0  0  0  0  0  0  0  0  0  0  0  0
   19.6727  -18.0027  -18.3336 C   0  0  1  0  0  0  0  0  0  0  0  0
   19.7603  -19.5016  -18.5328 C   0  0  0  0  0  0  0  0  0  0  0  0
   20.9748  -17.4681  -17.7865 C   0  0  0  0  0  0  0  0  0  0  0  0
   21.3534  -18.1085  -16.4738 C   0  0  2  0  0  0  0  0  0  0  0  0
   20.4816  -17.6037  -15.4434 N   0  0  0  0  0  0  0  0  0  0  0  0
   22.7531  -17.8740  -16.0970 C   0  0  0  0  0  0  0  0  0  0  0  0
   23.1994  -16.7012  -15.9695 O   0  0  0  0  0  0  0  0  0  0  0  0
   23.1396  -23.3778  -13.8795 N   0  0  0  0  0  0  0  0  0  0  0  0
   24.4409  -23.9669  -14.0777 C   0  0  0  0  0  0  0  0  0  0  0  0
   24.5722  -25.0776  -14.7111 N   0  0  0  0  0  0  0  0  0  0  0  0
   25.6034  -23.3326  -13.5775 N   0  0  0  0  0  0  0  0  0  0  0  0
   25.5727  -21.8908  -13.2427 C   0  0  0  0  0  0  0  0  0  0  0  0
   25.2504  -21.1054  -14.4780 C   0  0  0  0  0  0  0  0  0  0  0  0
   25.3015  -19.6361  -14.3834 C   0  0  0  0  0  0  0  0  0  0  0  0
   25.0622  -18.8147  -15.6054 C   0  0  2  0  0  0  0  0  0  0  0  0
   23.6062  -18.9663  -15.8755 N   0  0  0  0  0  0  0  0  0  0  0  0
   25.7692  -19.2185  -16.8159 C   0  0  0  0  0  0  0  0  0  0  0  0
   25.0556  -19.9110  -17.6638 O   0  0  0  0  0  0  0  0  0  0  0  0
   25.5069  -25.5002  -14.8122 N   0  0  0  0  0  0  0  0  0  0  0  0
   27.1063  -18.9415  -17.1519 C   0  0  0  0  0  0  0  0  0  0  0  0
   28.0523  -18.2644  -16.2862 C   0  0  0  0  0  0  0  0  0  0  0  0
   28.9493  -17.5506  -17.2482 C   0  0  0  0  0  0  0  0  0  0  0  0
   28.5311  -17.9495  -18.6376 C   0  0  2  0  0  0  0  0  0  0  0  0
   27.8209  -19.2820  -18.3338 C   0  0  0  0  0  0  0  0  0  0  0  0
   28.9120  -20.2864  -18.0659 O   0  0  0  0  0  0  0  0  0  0  0  0
   29.7607  -20.7026  -19.0577 O   0  0  0  0  0  0  0  0  0  0  0  0
  2  3  1  6
  2  1  1  0
  4  2  1  0
  5  6  1  1
  5  4  1  0
  7  5  1  0
  8  7  2  0
  9 10  1  0
 10 12  1  0
 11 10  2  0
 12 13  1  0
 13 14  1  0
 15 14  1  0
 16 15  1  1
 16 17  1  0
 17  7  1  0
 18 16  1  0
 19 18  2  0
 20 18  1  0
 21 20  1  0
 22 21  1  0
 23 22  1  0
 23 24  1  0
 24 20  1  0
 24 25  1  6
 25 26  1  0
 27 25  2  0
M  END
$$$$
