LRP.pdb
     RDKit          3D

 27 27  0  0  1  0  0  0  0  0999 V2000
   29.0968  -21.1245  -17.0279 C   0  0  0  0  0  0  0  0  0  0  0  0
   27.6857  -21.7054  -16.9912 C   0  0  1  0  0  0  0  0  0  0  0  0
   27.8004  -23.0563  -16.3159 C   0  0  0  0  0  0  0  0  0  0  0  0
   26.8599  -20.7641  -16.1469 C   0  0  0  0  0  0  0  0  0  0  0  0
   25.4228  -21.2084  -16.0281 C   0  0  2  0  0  0  0  0  0  0  0  0
   24.8591  -21.3126  -17.3502 N   0  0  0  0  0  0  0  0  0  0  0  0
   24.6029  -20.3060  -15.2099 C   0  0  0  0  0  0  0  0  0  0  0  0
   24.9385  -19.1015  -15.0438 O   0  0  0  0  0  0  0  0  0  0  0  0
   17.6022  -17.3553  -17.3049 N   0  0  0  0  0  0  0  0  0  0  0  0
   17.5720  -18.2924  -16.2092 C   0  0  0  0  0  0  0  0  0  0  0  0
   16.5243  -18.9991  -15.9749 N   0  0  0  0  0  0  0  0  0  0  0  0
   18.6983  -18.4537  -15.3670 N   0  0  0  0  0  0  0  0  0  0  0  0
   19.9129  -17.6379  -15.5928 C   0  0  0  0  0  0  0  0  0  0  0  0
   20.9362  -17.9802  -14.5524 C   0  0  0  0  0  0  0  0  0  0  0  0
   21.9706  -18.9653  -14.9129 C   0  0  0  0  0  0  0  0  0  0  0  0
   22.4779  -19.9081  -13.8742 C   0  0  2  0  0  0  0  0  0  0  0  0
   23.4317  -20.7872  -14.6044 N   0  0  0  0  0  0  0  0  0  0  0  0
   21.4923  -20.7760  -13.2387 C   0  0  0  0  0  0  0  0  0  0  0  0
   21.1698  -21.8381  -13.9284 O   0  0  0  0  0  0  0  0  0  0  0  0
   16.4957  -19.6102  -15.1454 N   0  0  0  0  0  0  0  0  0  0  0  0
   20.8737  -20.5882  -11.9900 C   0  0  0  0  0  0  0  0  0  0  0  0
   21.0033  -19.3959  -11.1749 C   0  0  0  0  0  0  0  0  0  0  0  0
   20.8833  -19.9194   -9.7780 C   0  0  0  0  0  0  0  0  0  0  0  0
   20.5775  -21.3898   -9.8707 C   0  0  2  0  0  0  0  0  0  0  0  0
   19.9867  -21.4537  -11.2917 C   0  0  0  0  0  0  0  0  0  0  0  0
   18.5966  -20.8800  -11.1933 O   0  0  0  0  0  0  0  0  0  0  0  0
   17.5695  -21.5863  -10.6246 O   0  0  0  0  0  0  0  0  0  0  0  0
  2  3  1  1
  2  1  1  0
  4  2  1  0
  5  6  1  6
  5  4  1  0
  7  5  1  0
  8  7  2  0
  9 10  1  0
 10 12  1  0
 11 10  2  0
 12 13  1  0
 13 14  1  0
 15 14  1  0
 16 15  1  6
 16 17  1  0
 17  7  1  0
 18 16  1  0
 19 18  2  0
 20 18  1  0
 21 20  1  0
 22 21  1  0
 23 22  1  0
 23 24  1  0
 24 20  1  0
 24 25  1  1
 25 26  1  0
 27 25  2  0
M  END
$$$$
