LRP.pdb
     RDKit          3D

 27 27  0  0  1  0  0  0  0  0999 V2000
   23.8079   -9.3349    8.7832 C   0  0  0  0  0  0  0  0  0  0  0  0
   22.4812   -9.2903    8.0297 C   0  0  1  0  0  0  0  0  0  0  0  0
   22.8110   -9.5483    6.5741 C   0  0  0  0  0  0  0  0  0  0  0  0
   21.6384  -10.4138    8.5849 C   0  0  0  0  0  0  0  0  0  0  0  0
   20.2110  -10.3565    8.0992 C   0  0  2  0  0  0  0  0  0  0  0  0
   19.5773   -9.1899    8.6595 N   0  0  0  0  0  0  0  0  0  0  0  0
   19.4340  -11.5545    8.4411 C   0  0  0  0  0  0  0  0  0  0  0  0
   19.0762  -11.7741    9.6305 O   0  0  0  0  0  0  0  0  0  0  0  0
   15.3237  -16.3844    2.2904 N   0  0  0  0  0  0  0  0  0  0  0  0
   16.6202  -16.9501    2.5705 C   0  0  0  0  0  0  0  0  0  0  0  0
   17.1136  -17.8706    1.8213 N   0  0  0  0  0  0  0  0  0  0  0  0
   17.3783  -16.5024    3.6791 N   0  0  0  0  0  0  0  0  0  0  0  0
   16.9004  -15.3578    4.4874 C   0  0  0  0  0  0  0  0  0  0  0  0
   17.8388  -15.1402    5.6357 C   0  0  0  0  0  0  0  0  0  0  0  0
   17.5501  -14.0203    6.5483 C   0  0  0  0  0  0  0  0  0  0  0  0
   18.4430  -13.7804    7.7189 C   0  0  2  0  0  0  0  0  0  0  0  0
   19.0840  -12.4675    7.4342 N   0  0  0  0  0  0  0  0  0  0  0  0
   19.5155  -14.7457    7.9343 C   0  0  0  0  0  0  0  0  0  0  0  0
   20.5906  -14.5409    7.2202 O   0  0  0  0  0  0  0  0  0  0  0  0
   18.0586  -18.2341    2.0143 N   0  0  0  0  0  0  0  0  0  0  0  0
   19.5072  -15.8438    8.8127 C   0  0  0  0  0  0  0  0  0  0  0  0
   18.3663  -16.2584    9.6060 C   0  0  0  0  0  0  0  0  0  0  0  0
   18.9942  -16.8528   10.8275 C   0  0  0  0  0  0  0  0  0  0  0  0
   20.4844  -16.8465   10.6185 C   0  0  2  0  0  0  0  0  0  0  0  0
   20.5413  -16.7831    9.0806 C   0  0  0  0  0  0  0  0  0  0  0  0
   20.1914  -18.1649    8.5915 O   0  0  0  0  0  0  0  0  0  0  0  0
   18.9581  -18.4470    8.0656 O   0  0  0  0  0  0  0  0  0  0  0  0
  2  3  1  6
  2  1  1  0
  4  2  1  0
  5  6  1  1
  5  4  1  0
  7  5  1  0
  8  7  2  0
  9 10  1  0
 10 12  1  0
 11 10  2  0
 12 13  1  0
 13 14  1  0
 15 14  1  0
 16 15  1  6
 16 17  1  0
 17  7  1  0
 18 16  1  0
 19 18  2  0
 20 18  1  0
 21 20  1  0
 22 21  1  0
 23 22  1  0
 23 24  1  0
 24 20  1  0
 24 25  1  1
 25 26  1  0
 27 25  2  0
M  END
$$$$
