LRP.pdb
     RDKit          3D

 27 27  0  0  1  0  0  0  0  0999 V2000
   26.5887  -13.1667  -17.2479 C   0  0  0  0  0  0  0  0  0  0  0  0
   26.8151  -14.4312  -18.0725 C   0  0  1  0  0  0  0  0  0  0  0  0
   28.2796  -14.7839  -17.9150 C   0  0  0  0  0  0  0  0  0  0  0  0
   25.9471  -15.5024  -17.4560 C   0  0  0  0  0  0  0  0  0  0  0  0
   26.7023  -16.3566  -16.4676 C   0  0  2  0  0  0  0  0  0  0  0  0
   27.6706  -17.1478  -17.1838 N   0  0  0  0  0  0  0  0  0  0  0  0
   25.8314  -17.2357  -15.6773 C   0  0  0  0  0  0  0  0  0  0  0  0
   24.6128  -16.9564  -15.5103 O   0  0  0  0  0  0  0  0  0  0  0  0
   24.6037  -25.4625  -14.9265 N   0  0  0  0  0  0  0  0  0  0  0  0
   23.8351  -24.3408  -15.4066 C   0  0  0  0  0  0  0  0  0  0  0  0
   22.5866  -24.4677  -15.6842 N   0  0  0  0  0  0  0  0  0  0  0  0
   24.4412  -23.0737  -15.5827 N   0  0  0  0  0  0  0  0  0  0  0  0
   25.9015  -22.9202  -15.3933 C   0  0  0  0  0  0  0  0  0  0  0  0
   26.2783  -21.4862  -15.6129 C   0  0  0  0  0  0  0  0  0  0  0  0
   25.2500  -20.4642  -15.3510 C   0  0  0  0  0  0  0  0  0  0  0  0
   25.5254  -19.3859  -14.3577 C   0  0  2  0  0  0  0  0  0  0  0  0
   26.3590  -18.4011  -15.0999 N   0  0  0  0  0  0  0  0  0  0  0  0
   26.2713  -19.7688  -13.1639 C   0  0  0  0  0  0  0  0  0  0  0  0
   27.5477  -19.4904  -13.2008 O   0  0  0  0  0  0  0  0  0  0  0  0
   22.0673  -23.6690  -16.0778 N   0  0  0  0  0  0  0  0  0  0  0  0
   25.7655  -20.3891  -12.0078 C   0  0  0  0  0  0  0  0  0  0  0  0
   24.3933  -20.8263  -11.8381 C   0  0  0  0  0  0  0  0  0  0  0  0
   24.1618  -20.6706  -10.3678 C   0  0  0  0  0  0  0  0  0  0  0  0
   25.4663  -20.2500   -9.7466 C   0  0  1  0  0  0  0  0  0  0  0  0
   26.4510  -20.7572  -10.8169 C   0  0  0  0  0  0  0  0  0  0  0  0
   26.5231  -22.2526  -10.6445 O   0  0  0  0  0  0  0  0  0  0  0  0
   27.2725  -22.8229   -9.6494 O   0  0  0  0  0  0  0  0  0  0  0  0
  2  3  1  1
  2  1  1  0
  4  2  1  0
  5  6  1  6
  5  4  1  0
  7  5  1  0
  8  7  2  0
  9 10  1  0
 10 12  1  0
 11 10  2  0
 12 13  1  0
 13 14  1  0
 15 14  1  0
 16 15  1  6
 16 17  1  0
 17  7  1  0
 18 16  1  0
 19 18  2  0
 20 18  1  0
 21 20  1  0
 22 21  1  0
 23 22  1  0
 23 24  1  0
 24 20  1  0
 24 25  1  1
 25 26  1  0
 27 25  2  0
M  END
$$$$
