DCF.pdb
     RDKit          3D

 26 26  0  0  1  0  0  0  0  0999 V2000
   23.6403  -17.0920  -18.8945 N   0  0  0  0  0  0  0  0  0  0  0  0
   23.8277  -16.7182  -17.5015 C   0  0  1  0  0  0  0  0  0  0  0  0
   22.4623  -16.4540  -16.9014 C   0  0  0  0  0  0  0  0  0  0  0  0
   21.9775  -15.1004  -17.3354 C   0  0  0  0  0  0  0  0  0  0  0  0
   20.9320  -14.5934  -16.8727 O   0  0  0  0  0  0  0  0  0  0  0  0
   24.5012  -17.8023  -16.7373 C   0  0  0  0  0  0  0  0  0  0  0  0
   23.8911  -18.8661  -16.5742 O   0  0  0  0  0  0  0  0  0  0  0  0
   22.7036  -14.3757  -18.2812 O   0  0  0  0  0  0  0  0  0  0  0  0
   25.7985  -17.6771  -16.1905 N   0  0  0  0  0  0  0  0  0  0  0  0
   26.4427  -18.6730  -15.3910 C   0  0  1  0  0  0  0  0  0  0  0  0
   27.9167  -18.4730  -15.2311 C   0  0  0  0  0  0  0  0  0  0  0  0
   28.7778  -18.3579  -16.8170 S   0  0  0  0  0  0  0  0  0  0  0  0
   25.8266  -18.7749  -14.0308 C   0  0  0  0  0  0  0  0  0  0  0  0
   25.1642  -17.8216  -13.5339 O   0  0  0  0  0  0  0  0  0  0  0  0
   25.9519  -19.9415  -13.2301 N   0  0  0  0  0  0  0  0  0  0  0  0
   25.2389  -20.1209  -11.9657 C   0  0  1  0  0  0  0  0  0  0  0  0
   23.7738  -20.2747  -12.1693 C   0  0  0  0  0  0  0  0  0  0  0  0
   23.0742  -20.2865  -10.8664 C   0  0  0  0  0  0  0  0  0  0  0  0
   23.2322  -21.3989  -10.0329 C   0  0  0  0  0  0  0  0  0  0  0  0
   22.6295  -21.4684   -8.8095 C   0  0  0  0  0  0  0  0  0  0  0  0
   21.8481  -20.4002   -8.4057 C   0  0  0  0  0  0  0  0  0  0  0  0
   21.6717  -19.2942   -9.1973 C   0  0  0  0  0  0  0  0  0  0  0  0
   22.2830  -19.2350  -10.4267 C   0  0  0  0  0  0  0  0  0  0  0  0
   25.8794  -21.1608  -11.1395 C   0  0  0  0  0  0  0  0  0  0  0  0
   26.1811  -21.0418   -9.7934 O   0  0  0  0  0  0  0  0  0  0  0  0
   26.2119  -22.2934  -11.6479 O   0  0  0  0  0  0  0  0  0  0  0  0
  2  1  1  6
  3  2  1  0
  3  4  1  0
  4  8  1  0
  5  4  2  0
  6  2  1  0
  6  7  2  0
  9  6  1  0
 10 13  1  0
 10  9  1  0
 10 11  1  1
 12 11  1  0
 13 15  1  0
 14 13  2  0
 15 16  1  0
 16 24  1  0
 16 17  1  6
 18 17  1  0
 19 18  2  0
 20 19  1  0
 21 20  2  0
 21 22  1  0
 22 23  2  0
 23 18  1  0
 24 26  2  0
 24 25  1  0
M  END
$$$$
