DCF.pdb
     RDKit          3D

 26 26  0  0  1  0  0  0  0  0999 V2000
   17.5652  -12.7176  -17.9654 N   0  0  0  0  0  0  0  0  0  0  0  0
   18.4714  -12.2161  -16.9442 C   0  0  1  0  0  0  0  0  0  0  0  0
   19.8216  -12.8687  -17.1572 C   0  0  0  0  0  0  0  0  0  0  0  0
   19.7726  -14.2905  -16.6758 C   0  0  0  0  0  0  0  0  0  0  0  0
   19.1806  -14.6112  -15.6217 O   0  0  0  0  0  0  0  0  0  0  0  0
   18.6183  -10.7384  -17.0310 C   0  0  0  0  0  0  0  0  0  0  0  0
   18.7012  -10.2259  -18.1538 O   0  0  0  0  0  0  0  0  0  0  0  0
   20.4007  -15.2935  -17.4150 O   0  0  0  0  0  0  0  0  0  0  0  0
   18.6678   -9.8946  -15.8981 N   0  0  0  0  0  0  0  0  0  0  0  0
   18.7755   -8.4694  -15.9509 C   0  0  1  0  0  0  0  0  0  0  0  0
   17.4652   -7.7513  -15.8749 C   0  0  0  0  0  0  0  0  0  0  0  0
   16.5172   -8.1909  -14.3990 S   0  0  0  0  0  0  0  0  0  0  0  0
   19.6700   -7.9413  -14.8732 C   0  0  0  0  0  0  0  0  0  0  0  0
   19.9396   -8.6250  -13.8463 O   0  0  0  0  0  0  0  0  0  0  0  0
   20.2607   -6.6516  -14.9461 N   0  0  0  0  0  0  0  0  0  0  0  0
   21.2147   -6.1546  -13.9550 C   0  0  1  0  0  0  0  0  0  0  0  0
   22.3467   -7.0971  -13.7498 C   0  0  0  0  0  0  0  0  0  0  0  0
   23.1770   -7.1737  -14.9712 C   0  0  0  0  0  0  0  0  0  0  0  0
   23.1929   -8.3710  -15.6946 C   0  0  0  0  0  0  0  0  0  0  0  0
   23.9234   -8.5055  -16.8405 C   0  0  0  0  0  0  0  0  0  0  0  0
   24.6579   -7.4173  -17.2774 C   0  0  0  0  0  0  0  0  0  0  0  0
   24.6650   -6.2288  -16.5931 C   0  0  0  0  0  0  0  0  0  0  0  0
   23.9262   -6.1046  -15.4410 C   0  0  0  0  0  0  0  0  0  0  0  0
   21.5927   -4.7577  -14.2379 C   0  0  0  0  0  0  0  0  0  0  0  0
   21.2054   -4.0326  -15.3521 O   0  0  0  0  0  0  0  0  0  0  0  0
   22.3421   -4.1012  -13.4260 O   0  0  0  0  0  0  0  0  0  0  0  0
  2  1  1  6
  3  2  1  0
  3  4  1  0
  4  8  1  0
  5  4  2  0
  6  2  1  0
  6  7  2  0
  9  6  1  0
 10 13  1  0
 10  9  1  0
 10 11  1  1
 12 11  1  0
 13 15  1  0
 14 13  2  0
 15 16  1  0
 16 24  1  0
 16 17  1  6
 18 17  1  0
 19 18  2  0
 20 19  1  0
 21 20  2  0
 21 22  1  0
 22 23  2  0
 23 18  1  0
 24 26  2  0
 24 25  1  0
M  END
$$$$
