DCF.pdb
     RDKit          3D

 26 26  0  0  1  0  0  0  0  0999 V2000
   33.0486  -25.5249  -20.0997 N   0  0  0  0  0  0  0  0  0  0  0  0
   32.5992  -26.9064  -20.0300 C   0  0  1  0  0  0  0  0  0  0  0  0
   33.5247  -27.6513  -19.0903 C   0  0  0  0  0  0  0  0  0  0  0  0
   34.6577  -28.2504  -19.8732 C   0  0  0  0  0  0  0  0  0  0  0  0
   34.7660  -28.0877  -21.1086 O   0  0  0  0  0  0  0  0  0  0  0  0
   31.2040  -26.9956  -19.5219 C   0  0  0  0  0  0  0  0  0  0  0  0
   30.7969  -26.0968  -18.7757 O   0  0  0  0  0  0  0  0  0  0  0  0
   35.6251  -29.0129  -19.2176 O   0  0  0  0  0  0  0  0  0  0  0  0
   30.3242  -28.0526  -19.8484 N   0  0  0  0  0  0  0  0  0  0  0  0
   28.9808  -28.1679  -19.3715 C   0  0  1  0  0  0  0  0  0  0  0  0
   27.9367  -27.8446  -20.3932 C   0  0  0  0  0  0  0  0  0  0  0  0
   26.2745  -27.7635  -19.6856 S   0  0  0  0  0  0  0  0  0  0  0  0
   28.7029  -29.5327  -18.8235 C   0  0  0  0  0  0  0  0  0  0  0  0
   29.0267  -30.5760  -19.4569 O   0  0  0  0  0  0  0  0  0  0  0  0
   28.0646  -29.7279  -17.5696 N   0  0  0  0  0  0  0  0  0  0  0  0
   27.8247  -31.0512  -16.9946 C   0  0  1  0  0  0  0  0  0  0  0  0
   28.6288  -31.2781  -15.7643 C   0  0  0  0  0  0  0  0  0  0  0  0
   30.0670  -31.3558  -16.0997 C   0  0  0  0  0  0  0  0  0  0  0  0
   30.8022  -30.1677  -16.1697 C   0  0  0  0  0  0  0  0  0  0  0  0
   32.1372  -30.1676  -16.4571 C   0  0  0  0  0  0  0  0  0  0  0  0
   32.7564  -31.3847  -16.6807 C   0  0  0  0  0  0  0  0  0  0  0  0
   32.0662  -32.5683  -16.6199 C   0  0  0  0  0  0  0  0  0  0  0  0
   30.7230  -32.5566  -16.3300 C   0  0  0  0  0  0  0  0  0  0  0  0
   26.3804  -31.3204  -16.8698 C   0  0  0  0  0  0  0  0  0  0  0  0
   25.8220  -32.5021  -16.4128 O   0  0  0  0  0  0  0  0  0  0  0  0
   25.5140  -30.4288  -17.1957 O   0  0  0  0  0  0  0  0  0  0  0  0
  2  1  1  1
  3  2  1  0
  3  4  1  0
  4  8  1  0
  5  4  2  0
  6  2  1  0
  6  7  2  0
  9  6  1  0
 10 13  1  0
 10  9  1  0
 10 11  1  6
 12 11  1  0
 13 15  1  0
 14 13  2  0
 15 16  1  0
 16 24  1  0
 16 17  1  1
 18 17  1  0
 19 18  2  0
 20 19  1  0
 21 20  2  0
 21 22  1  0
 22 23  2  0
 23 18  1  0
 24 26  2  0
 24 25  1  0
M  END
$$$$
