DCF.pdb
     RDKit          3D

 26 26  0  0  1  0  0  0  0  0999 V2000
   25.2610  -17.8380  -15.9026 N   0  0  0  0  0  0  0  0  0  0  0  0
   26.2411  -17.9443  -14.8332 C   0  0  1  0  0  0  0  0  0  0  0  0
   26.2926  -16.6126  -14.1133 C   0  0  0  0  0  0  0  0  0  0  0  0
   26.8126  -15.5578  -15.0473 C   0  0  0  0  0  0  0  0  0  0  0  0
   27.8735  -15.7107  -15.6919 O   0  0  0  0  0  0  0  0  0  0  0  0
   25.8724  -19.0136  -13.8671 C   0  0  0  0  0  0  0  0  0  0  0  0
   24.6920  -19.0904  -13.5051 O   0  0  0  0  0  0  0  0  0  0  0  0
   26.1029  -14.3676  -15.2112 O   0  0  0  0  0  0  0  0  0  0  0  0
   26.8009  -19.9423  -13.3444 N   0  0  0  0  0  0  0  0  0  0  0  0
   26.4581  -21.0498  -12.5067 C   0  0  1  0  0  0  0  0  0  0  0  0
   26.9439  -22.3729  -13.0087 C   0  0  0  0  0  0  0  0  0  0  0  0
   27.1204  -22.4104  -14.8080 S   0  0  0  0  0  0  0  0  0  0  0  0
   26.9554  -20.8607  -11.1076 C   0  0  0  0  0  0  0  0  0  0  0  0
   28.1643  -20.5847  -10.8693 O   0  0  0  0  0  0  0  0  0  0  0  0
   26.1007  -20.9801   -9.9794 N   0  0  0  0  0  0  0  0  0  0  0  0
   26.5844  -20.9029   -8.6012 C   0  0  1  0  0  0  0  0  0  0  0  0
   27.4763  -19.7321   -8.3885 C   0  0  0  0  0  0  0  0  0  0  0  0
   27.8651  -19.6365   -6.9649 C   0  0  0  0  0  0  0  0  0  0  0  0
   28.8233  -20.5288   -6.4723 C   0  0  0  0  0  0  0  0  0  0  0  0
   29.2412  -20.4853   -5.1729 C   0  0  0  0  0  0  0  0  0  0  0  0
   28.6893  -19.5265   -4.3420 C   0  0  0  0  0  0  0  0  0  0  0  0
   27.7481  -18.6360   -4.7916 C   0  0  0  0  0  0  0  0  0  0  0  0
   27.3347  -18.6890   -6.1011 C   0  0  0  0  0  0  0  0  0  0  0  0
   25.4732  -21.0394   -7.6416 C   0  0  0  0  0  0  0  0  0  0  0  0
   24.1559  -20.6898   -7.8859 O   0  0  0  0  0  0  0  0  0  0  0  0
   25.6747  -21.5134   -6.4641 O   0  0  0  0  0  0  0  0  0  0  0  0
  2  1  1  6
  3  2  1  0
  3  4  1  0
  4  8  1  0
  5  4  2  0
  6  2  1  0
  6  7  2  0
  9  6  1  0
 10 13  1  0
 10  9  1  0
 10 11  1  6
 12 11  1  0
 13 15  1  0
 14 13  2  0
 15 16  1  0
 16 24  1  0
 16 17  1  6
 18 17  1  0
 19 18  2  0
 20 19  1  0
 21 20  2  0
 21 22  1  0
 22 23  2  0
 23 18  1  0
 24 26  2  0
 24 25  1  0
M  END
$$$$
