DCF.pdb
     RDKit          3D

 26 26  0  0  1  0  0  0  0  0999 V2000
   33.2869  -30.8563  -18.2869 N   0  0  0  0  0  0  0  0  0  0  0  0
   32.0510  -30.2557  -17.8101 C   0  0  1  0  0  0  0  0  0  0  0  0
   31.6544  -29.1673  -18.7859 C   0  0  0  0  0  0  0  0  0  0  0  0
   32.5787  -27.9938  -18.6308 C   0  0  0  0  0  0  0  0  0  0  0  0
   33.1889  -27.7701  -17.5622 O   0  0  0  0  0  0  0  0  0  0  0  0
   30.9595  -31.2626  -17.7235 C   0  0  0  0  0  0  0  0  0  0  0  0
   30.5883  -31.8112  -18.7683 O   0  0  0  0  0  0  0  0  0  0  0  0
   32.7726  -27.1192  -19.7006 O   0  0  0  0  0  0  0  0  0  0  0  0
   30.3280  -31.6216  -16.5109 N   0  0  0  0  0  0  0  0  0  0  0  0
   29.2655  -32.5725  -16.3990 C   0  0  1  0  0  0  0  0  0  0  0  0
   29.4572  -33.5822  -15.3116 C   0  0  0  0  0  0  0  0  0  0  0  0
   28.0265  -34.6704  -15.1145 S   0  0  0  0  0  0  0  0  0  0  0  0
   27.9420  -31.9031  -16.1979 C   0  0  0  0  0  0  0  0  0  0  0  0
   27.7647  -31.0558  -15.2786 O   0  0  0  0  0  0  0  0  0  0  0  0
   26.8210  -32.1817  -17.0246 N   0  0  0  0  0  0  0  0  0  0  0  0
   25.5074  -31.5723  -16.8185 C   0  0  1  0  0  0  0  0  0  0  0  0
   24.9954  -30.9214  -18.0538 C   0  0  0  0  0  0  0  0  0  0  0  0
   23.6587  -30.3381  -17.8088 C   0  0  0  0  0  0  0  0  0  0  0  0
   22.5288  -31.0939  -18.1393 C   0  0  0  0  0  0  0  0  0  0  0  0
   21.2648  -30.6239  -17.9237 C   0  0  0  0  0  0  0  0  0  0  0  0
   21.1231  -29.3667  -17.3634 C   0  0  0  0  0  0  0  0  0  0  0  0
   22.2087  -28.5991  -17.0271 C   0  0  0  0  0  0  0  0  0  0  0  0
   23.4761  -29.0819  -17.2486 C   0  0  0  0  0  0  0  0  0  0  0  0
   24.5820  -32.5168  -16.1662 C   0  0  0  0  0  0  0  0  0  0  0  0
   23.6562  -32.1870  -15.1908 O   0  0  0  0  0  0  0  0  0  0  0  0
   24.5829  -33.7629  -16.4809 O   0  0  0  0  0  0  0  0  0  0  0  0
  2  1  1  6
  3  2  1  0
  3  4  1  0
  4  8  1  0
  5  4  2  0
  6  2  1  0
  6  7  2  0
  9  6  1  0
 10 13  1  0
 10  9  1  0
 10 11  1  1
 12 11  1  0
 13 15  1  0
 14 13  2  0
 15 16  1  0
 16 24  1  0
 16 17  1  6
 18 17  1  0
 19 18  2  0
 20 19  1  0
 21 20  2  0
 21 22  1  0
 22 23  2  0
 23 18  1  0
 24 26  2  0
 24 25  1  0
M  END
$$$$
