DCF.pdb
     RDKit          3D

 26 26  0  0  1  0  0  0  0  0999 V2000
   21.0272  -21.1751  -13.4167 N   0  0  0  0  0  0  0  0  0  0  0  0
   21.9117  -20.2410  -12.7381 C   0  0  1  0  0  0  0  0  0  0  0  0
   21.0817  -19.4435  -11.7536 C   0  0  0  0  0  0  0  0  0  0  0  0
   20.1520  -18.5332  -12.5037 C   0  0  0  0  0  0  0  0  0  0  0  0
   20.4730  -18.0153  -13.5960 O   0  0  0  0  0  0  0  0  0  0  0  0
   22.9931  -20.9548  -12.0075 C   0  0  0  0  0  0  0  0  0  0  0  0
   22.6711  -21.8624  -11.2309 O   0  0  0  0  0  0  0  0  0  0  0  0
   18.8907  -18.2477  -11.9797 O   0  0  0  0  0  0  0  0  0  0  0  0
   24.3648  -20.6481  -12.1561 N   0  0  0  0  0  0  0  0  0  0  0  0
   25.4327  -21.3954  -11.5671 C   0  0  1  0  0  0  0  0  0  0  0  0
   26.5438  -21.7279  -12.5123 C   0  0  0  0  0  0  0  0  0  0  0  0
   27.2383  -20.2615  -13.3106 S   0  0  0  0  0  0  0  0  0  0  0  0
   26.0129  -20.6911  -10.3806 C   0  0  0  0  0  0  0  0  0  0  0  0
   25.4565  -19.6737   -9.8808 O   0  0  0  0  0  0  0  0  0  0  0  0
   27.2123  -21.1257   -9.7560 N   0  0  0  0  0  0  0  0  0  0  0  0
   27.7993  -20.4492   -8.5996 C   0  0  1  0  0  0  0  0  0  0  0  0
   26.8517  -20.3780   -7.4557 C   0  0  0  0  0  0  0  0  0  0  0  0
   27.5339  -19.8408   -6.2585 C   0  0  0  0  0  0  0  0  0  0  0  0
   27.5920  -18.4534   -6.0885 C   0  0  0  0  0  0  0  0  0  0  0  0
   28.1909  -17.8901   -4.9981 C   0  0  0  0  0  0  0  0  0  0  0  0
   28.7468  -18.7323   -4.0514 C   0  0  0  0  0  0  0  0  0  0  0  0
   28.7076  -20.0966   -4.1862 C   0  0  0  0  0  0  0  0  0  0  0  0
   28.1025  -20.6526   -5.2876 C   0  0  0  0  0  0  0  0  0  0  0  0
   29.1334  -20.9943   -8.2882 C   0  0  0  0  0  0  0  0  0  0  0  0
   30.2031  -20.2643   -7.7984 O   0  0  0  0  0  0  0  0  0  0  0  0
   29.3926  -22.2409   -8.4637 O   0  0  0  0  0  0  0  0  0  0  0  0
  2  1  1  1
  3  2  1  0
  3  4  1  0
  4  8  1  0
  5  4  2  0
  6  2  1  0
  6  7  2  0
  9  6  1  0
 10 13  1  0
 10  9  1  0
 10 11  1  6
 12 11  1  0
 13 15  1  0
 14 13  2  0
 15 16  1  0
 16 24  1  0
 16 17  1  1
 18 17  1  0
 19 18  2  0
 20 19  1  0
 21 20  2  0
 21 22  1  0
 22 23  2  0
 23 18  1  0
 24 26  2  0
 24 25  1  0
M  END
$$$$
