DCF.pdb
     RDKit          3D

 26 26  0  0  1  0  0  0  0  0999 V2000
   13.9579  -13.0326  -19.1175 N   0  0  0  0  0  0  0  0  0  0  0  0
   14.5716  -12.7218  -17.8361 C   0  0  1  0  0  0  0  0  0  0  0  0
   15.8664  -13.5015  -17.7375 C   0  0  0  0  0  0  0  0  0  0  0  0
   15.5629  -14.9708  -17.6693 C   0  0  0  0  0  0  0  0  0  0  0  0
   14.3940  -15.4084  -17.7497 O   0  0  0  0  0  0  0  0  0  0  0  0
   14.8606  -11.2678  -17.7142 C   0  0  0  0  0  0  0  0  0  0  0  0
   14.7389  -10.5627  -18.7234 O   0  0  0  0  0  0  0  0  0  0  0  0
   16.6042  -15.8861  -17.5118 O   0  0  0  0  0  0  0  0  0  0  0  0
   15.2659  -10.6547  -16.5068 N   0  0  0  0  0  0  0  0  0  0  0  0
   15.4455   -9.2466  -16.3312 C   0  0  1  0  0  0  0  0  0  0  0  0
   14.1807   -8.4957  -16.0576 C   0  0  0  0  0  0  0  0  0  0  0  0
   14.4685   -6.7350  -15.7626 S   0  0  0  0  0  0  0  0  0  0  0  0
   16.4230   -8.9450  -15.2386 C   0  0  0  0  0  0  0  0  0  0  0  0
   16.4987   -9.6655  -14.2043 O   0  0  0  0  0  0  0  0  0  0  0  0
   17.3130   -7.8400  -15.3048 N   0  0  0  0  0  0  0  0  0  0  0  0
   18.5469   -7.7622  -14.5231 C   0  0  1  0  0  0  0  0  0  0  0  0
   19.4166   -8.9497  -14.7353 C   0  0  0  0  0  0  0  0  0  0  0  0
   20.6523   -8.8294  -13.9319 C   0  0  0  0  0  0  0  0  0  0  0  0
   20.7163   -9.4908  -12.7009 C   0  0  0  0  0  0  0  0  0  0  0  0
   21.8326   -9.4369  -11.9161 C   0  0  0  0  0  0  0  0  0  0  0  0
   22.9146   -8.7040  -12.3707 C   0  0  0  0  0  0  0  0  0  0  0  0
   22.8863   -8.0435  -13.5723 C   0  0  0  0  0  0  0  0  0  0  0  0
   21.7576   -8.1045  -14.3539 C   0  0  0  0  0  0  0  0  0  0  0  0
   19.2029   -6.4533  -14.6981 C   0  0  0  0  0  0  0  0  0  0  0  0
   19.9969   -5.8225  -13.7554 O   0  0  0  0  0  0  0  0  0  0  0  0
   19.0670   -5.7895  -15.7902 O   0  0  0  0  0  0  0  0  0  0  0  0
  2  1  1  6
  3  2  1  0
  3  4  1  0
  4  8  1  0
  5  4  2  0
  6  2  1  0
  6  7  2  0
  9  6  1  0
 10 13  1  0
 10  9  1  0
 10 11  1  1
 12 11  1  0
 13 15  1  0
 14 13  2  0
 15 16  1  0
 16 24  1  0
 16 17  1  6
 18 17  1  0
 19 18  2  0
 20 19  1  0
 21 20  2  0
 21 22  1  0
 22 23  2  0
 23 18  1  0
 24 26  2  0
 24 25  1  0
M  END
$$$$
