DCF.pdb
     RDKit          3D

 26 26  0  0  1  0  0  0  0  0999 V2000
   19.2362  -11.8575  -16.1550 N   0  0  0  0  0  0  0  0  0  0  0  0
   18.1789  -10.9000  -15.8709 C   0  0  1  0  0  0  0  0  0  0  0  0
   16.8600  -11.6447  -15.8804 C   0  0  0  0  0  0  0  0  0  0  0  0
   16.2516  -11.5692  -17.2513 C   0  0  0  0  0  0  0  0  0  0  0  0
   16.8688  -11.0782  -18.2221 O   0  0  0  0  0  0  0  0  0  0  0  0
   18.3738  -10.2584  -14.5431 C   0  0  0  0  0  0  0  0  0  0  0  0
   18.3692  -10.9820  -13.5397 O   0  0  0  0  0  0  0  0  0  0  0  0
   14.9616  -12.0568  -17.4639 O   0  0  0  0  0  0  0  0  0  0  0  0
   18.5631   -8.8681  -14.3722 N   0  0  0  0  0  0  0  0  0  0  0  0
   18.8763   -8.2379  -13.1270 C   0  0  1  0  0  0  0  0  0  0  0  0
   19.8217   -7.0842  -13.2435 C   0  0  0  0  0  0  0  0  0  0  0  0
   21.5044   -7.6041  -13.6536 S   0  0  0  0  0  0  0  0  0  0  0  0
   17.6439   -7.7727  -12.4164 C   0  0  0  0  0  0  0  0  0  0  0  0
   16.6793   -7.2511  -13.0423 O   0  0  0  0  0  0  0  0  0  0  0  0
   17.4928   -7.8919  -11.0090 N   0  0  0  0  0  0  0  0  0  0  0  0
   16.3091   -7.4194  -10.2915 C   0  0  1  0  0  0  0  0  0  0  0  0
   16.1271   -8.1220   -8.9935 C   0  0  0  0  0  0  0  0  0  0  0  0
   14.8376   -7.7379   -8.3797 C   0  0  0  0  0  0  0  0  0  0  0  0
   14.8259   -6.6968   -7.4453 C   0  0  0  0  0  0  0  0  0  0  0  0
   13.6685   -6.2792   -6.8531 C   0  0  0  0  0  0  0  0  0  0  0  0
   12.4907   -6.9163   -7.2015 C   0  0  0  0  0  0  0  0  0  0  0  0
   12.4657   -7.9402   -8.1138 C   0  0  0  0  0  0  0  0  0  0  0  0
   13.6365   -8.3523   -8.7036 C   0  0  0  0  0  0  0  0  0  0  0  0
   16.2817   -5.9465  -10.2273 C   0  0  0  0  0  0  0  0  0  0  0  0
   17.3799   -5.1335  -10.0033 O   0  0  0  0  0  0  0  0  0  0  0  0
   15.1811   -5.3012  -10.3824 O   0  0  0  0  0  0  0  0  0  0  0  0
  2  1  1  1
  3  2  1  0
  3  4  1  0
  4  8  1  0
  5  4  2  0
  6  2  1  0
  6  7  2  0
  9  6  1  0
 10 13  1  0
 10  9  1  0
 10 11  1  6
 12 11  1  0
 13 15  1  0
 14 13  2  0
 15 16  1  0
 16 24  1  0
 16 17  1  1
 18 17  1  0
 19 18  2  0
 20 19  1  0
 21 20  2  0
 21 22  1  0
 22 23  2  0
 23 18  1  0
 24 26  2  0
 24 25  1  0
M  END
$$$$
