DCF.pdb
     RDKit          3D

 26 26  0  0  1  0  0  0  0  0999 V2000
   26.9813  -19.0052  -15.3265 N   0  0  0  0  0  0  0  0  0  0  0  0
   26.6747  -20.2249  -14.5960 C   0  0  1  0  0  0  0  0  0  0  0  0
   27.9426  -21.0491  -14.5108 C   0  0  0  0  0  0  0  0  0  0  0  0
   28.2129  -21.6919  -15.8409 C   0  0  0  0  0  0  0  0  0  0  0  0
   29.1795  -22.4659  -16.0166 O   0  0  0  0  0  0  0  0  0  0  0  0
   26.1883  -19.9242  -13.2228 C   0  0  0  0  0  0  0  0  0  0  0  0
   26.5208  -18.8491  -12.7090 O   0  0  0  0  0  0  0  0  0  0  0  0
   27.3702  -21.4278  -16.9213 O   0  0  0  0  0  0  0  0  0  0  0  0
   25.3685  -20.8032  -12.4790 N   0  0  0  0  0  0  0  0  0  0  0  0
   24.7695  -20.4851  -11.2197 C   0  0  1  0  0  0  0  0  0  0  0  0
   23.4360  -21.1253  -10.9950 C   0  0  0  0  0  0  0  0  0  0  0  0
   22.7375  -20.7244   -9.3759 S   0  0  0  0  0  0  0  0  0  0  0  0
   25.6659  -20.8397  -10.0747 C   0  0  0  0  0  0  0  0  0  0  0  0
   26.1712  -21.9917   -9.9652 O   0  0  0  0  0  0  0  0  0  0  0  0
   25.9954  -19.9063   -9.0559 N   0  0  0  0  0  0  0  0  0  0  0  0
   26.8117  -20.2513   -7.8923 C   0  0  1  0  0  0  0  0  0  0  0  0
   27.5578  -19.0768   -7.3673 C   0  0  0  0  0  0  0  0  0  0  0  0
   28.2523  -19.4314   -6.1107 C   0  0  0  0  0  0  0  0  0  0  0  0
   29.4247  -20.1908   -6.1863 C   0  0  0  0  0  0  0  0  0  0  0  0
   30.1258  -20.5389   -5.0672 C   0  0  0  0  0  0  0  0  0  0  0  0
   29.6454  -20.1186   -3.8395 C   0  0  0  0  0  0  0  0  0  0  0  0
   28.4996  -19.3730   -3.7289 C   0  0  0  0  0  0  0  0  0  0  0  0
   27.8020  -19.0285   -4.8617 C   0  0  0  0  0  0  0  0  0  0  0  0
   26.0245  -21.0022   -6.8971 C   0  0  0  0  0  0  0  0  0  0  0  0
   26.5305  -21.9529   -6.0269 O   0  0  0  0  0  0  0  0  0  0  0  0
   24.7599  -20.8079   -6.7755 O   0  0  0  0  0  0  0  0  0  0  0  0
  2  1  1  1
  3  2  1  0
  3  4  1  0
  4  8  1  0
  5  4  2  0
  6  2  1  0
  6  7  2  0
  9  6  1  0
 10 13  1  0
 10  9  1  0
 10 11  1  1
 12 11  1  0
 13 15  1  0
 14 13  2  0
 15 16  1  0
 16 24  1  0
 16 17  1  1
 18 17  1  0
 19 18  2  0
 20 19  1  0
 21 20  2  0
 21 22  1  0
 22 23  2  0
 23 18  1  0
 24 26  2  0
 24 25  1  0
M  END
$$$$
