DCF.pdb
     RDKit          3D

 26 26  0  0  1  0  0  0  0  0999 V2000
   21.8252  -22.0232  -14.5141 N   0  0  0  0  0  0  0  0  0  0  0  0
   22.2567  -21.0642  -13.5093 C   0  0  1  0  0  0  0  0  0  0  0  0
   21.1499  -20.9332  -12.4836 C   0  0  0  0  0  0  0  0  0  0  0  0
   19.9973  -20.1800  -13.0834 C   0  0  0  0  0  0  0  0  0  0  0  0
   20.0260  -19.7549  -14.2593 O   0  0  0  0  0  0  0  0  0  0  0  0
   23.5040  -21.5132  -12.8347 C   0  0  0  0  0  0  0  0  0  0  0  0
   23.6223  -22.7155  -12.5683 O   0  0  0  0  0  0  0  0  0  0  0  0
   18.8547  -19.9398  -12.3193 O   0  0  0  0  0  0  0  0  0  0  0  0
   24.5565  -20.6371  -12.4843 N   0  0  0  0  0  0  0  0  0  0  0  0
   25.7540  -21.0345  -11.8106 C   0  0  1  0  0  0  0  0  0  0  0  0
   27.0098  -20.7531  -12.5736 C   0  0  0  0  0  0  0  0  0  0  0  0
   28.4965  -21.2449  -11.6692 S   0  0  0  0  0  0  0  0  0  0  0  0
   25.8662  -20.3998  -10.4598 C   0  0  0  0  0  0  0  0  0  0  0  0
   25.6407  -19.1692  -10.2888 O   0  0  0  0  0  0  0  0  0  0  0  0
   26.2295  -21.1416   -9.3042 N   0  0  0  0  0  0  0  0  0  0  0  0
   26.6307  -20.5122   -8.0463 C   0  0  1  0  0  0  0  0  0  0  0  0
   27.4291  -21.4319   -7.1930 C   0  0  0  0  0  0  0  0  0  0  0  0
   27.9184  -20.7209   -5.9921 C   0  0  0  0  0  0  0  0  0  0  0  0
   27.3009  -20.9801   -4.7639 C   0  0  0  0  0  0  0  0  0  0  0  0
   27.7133  -20.3722   -3.6127 C   0  0  0  0  0  0  0  0  0  0  0  0
   28.7699  -19.4818   -3.6876 C   0  0  0  0  0  0  0  0  0  0  0  0
   29.3981  -19.2045   -4.8747 C   0  0  0  0  0  0  0  0  0  0  0  0
   28.9747  -19.8220   -6.0271 C   0  0  0  0  0  0  0  0  0  0  0  0
   27.2283  -19.1855   -8.2851 C   0  0  0  0  0  0  0  0  0  0  0  0
   26.8774  -18.0185   -7.6278 O   0  0  0  0  0  0  0  0  0  0  0  0
   28.1548  -19.0290   -9.1619 O   0  0  0  0  0  0  0  0  0  0  0  0
  2  1  1  6
  3  2  1  0
  3  4  1  0
  4  8  1  0
  5  4  2  0
  6  2  1  0
  6  7  2  0
  9  6  1  0
 10 13  1  0
 10  9  1  0
 10 11  1  6
 12 11  1  0
 13 15  1  0
 14 13  2  0
 15 16  1  0
 16 24  1  0
 16 17  1  6
 18 17  1  0
 19 18  2  0
 20 19  1  0
 21 20  2  0
 21 22  1  0
 22 23  2  0
 23 18  1  0
 24 26  2  0
 24 25  1  0
M  END
$$$$
