DCF.pdb
     RDKit          3D

 26 26  0  0  1  0  0  0  0  0999 V2000
   13.3523  -12.4259  -13.2670 N   0  0  0  0  0  0  0  0  0  0  0  0
   13.2121  -11.3421  -12.3073 C   0  0  1  0  0  0  0  0  0  0  0  0
   12.7699  -11.9411  -10.9882 C   0  0  0  0  0  0  0  0  0  0  0  0
   11.2959  -12.2248  -11.0356 C   0  0  0  0  0  0  0  0  0  0  0  0
   10.8225  -13.3238  -10.6717 O   0  0  0  0  0  0  0  0  0  0  0  0
   14.4988  -10.6209  -12.1152 C   0  0  0  0  0  0  0  0  0  0  0  0
   15.5504  -11.2446  -12.3042 O   0  0  0  0  0  0  0  0  0  0  0  0
   10.4167  -11.2442  -11.4965 O   0  0  0  0  0  0  0  0  0  0  0  0
   14.5787   -9.2637  -11.7286 N   0  0  0  0  0  0  0  0  0  0  0  0
   15.7713   -8.4753  -11.7730 C   0  0  1  0  0  0  0  0  0  0  0  0
   16.3214   -8.2712  -13.1493 C   0  0  0  0  0  0  0  0  0  0  0  0
   17.8506   -7.3060  -13.1496 S   0  0  0  0  0  0  0  0  0  0  0  0
   15.5732   -7.1351  -11.1368 C   0  0  0  0  0  0  0  0  0  0  0  0
   14.6992   -6.3275  -11.5593 O   0  0  0  0  0  0  0  0  0  0  0  0
   16.3515   -6.7014  -10.0305 N   0  0  0  0  0  0  0  0  0  0  0  0
   16.0893   -5.4553   -9.3110 C   0  0  1  0  0  0  0  0  0  0  0  0
   15.8596   -5.6875   -7.8601 C   0  0  0  0  0  0  0  0  0  0  0  0
   14.5402   -6.3203   -7.6454 C   0  0  0  0  0  0  0  0  0  0  0  0
   14.4895   -7.6998   -7.4188 C   0  0  0  0  0  0  0  0  0  0  0  0
   13.3072   -8.3459   -7.1958 C   0  0  0  0  0  0  0  0  0  0  0  0
   12.1439   -7.5967   -7.1989 C   0  0  0  0  0  0  0  0  0  0  0  0
   12.1570   -6.2428   -7.4175 C   0  0  0  0  0  0  0  0  0  0  0  0
   13.3526   -5.6030   -7.6408 C   0  0  0  0  0  0  0  0  0  0  0  0
   17.0982   -4.4315   -9.6399 C   0  0  0  0  0  0  0  0  0  0  0  0
   17.0664   -3.1118   -9.2222 O   0  0  0  0  0  0  0  0  0  0  0  0
   18.1151   -4.7204  -10.3709 O   0  0  0  0  0  0  0  0  0  0  0  0
  2  1  1  6
  3  2  1  0
  3  4  1  0
  4  8  1  0
  5  4  2  0
  6  2  1  0
  6  7  2  0
  9  6  1  0
 10 13  1  0
 10  9  1  0
 10 11  1  6
 12 11  1  0
 13 15  1  0
 14 13  2  0
 15 16  1  0
 16 24  1  0
 16 17  1  1
 18 17  1  0
 19 18  2  0
 20 19  1  0
 21 20  2  0
 21 22  1  0
 22 23  2  0
 23 18  1  0
 24 26  2  0
 24 25  1  0
M  END
$$$$
