DCF.pdb
     RDKit          3D

 26 26  0  0  1  0  0  0  0  0999 V2000
   18.9397  -14.2534  -19.4710 N   0  0  0  0  0  0  0  0  0  0  0  0
   18.9103  -13.4527  -18.2571 C   0  0  1  0  0  0  0  0  0  0  0  0
   19.7591  -14.1525  -17.2159 C   0  0  0  0  0  0  0  0  0  0  0  0
   18.9227  -15.1626  -16.4839 C   0  0  0  0  0  0  0  0  0  0  0  0
   17.9955  -15.7852  -17.0468 O   0  0  0  0  0  0  0  0  0  0  0  0
   19.4501  -12.0876  -18.4974 C   0  0  0  0  0  0  0  0  0  0  0  0
   20.3877  -11.9635  -19.2948 O   0  0  0  0  0  0  0  0  0  0  0  0
   19.1754  -15.4248  -15.1369 O   0  0  0  0  0  0  0  0  0  0  0  0
   18.9465  -10.9299  -17.8618 N   0  0  0  0  0  0  0  0  0  0  0  0
   19.3955   -9.5978  -18.1258 C   0  0  1  0  0  0  0  0  0  0  0  0
   18.6208   -8.8887  -19.1915 C   0  0  0  0  0  0  0  0  0  0  0  0
   16.8345   -9.1032  -19.0105 S   0  0  0  0  0  0  0  0  0  0  0  0
   19.3844   -8.7544  -16.8894 C   0  0  0  0  0  0  0  0  0  0  0  0
   18.5143   -8.9161  -15.9888 O   0  0  0  0  0  0  0  0  0  0  0  0
   20.3456   -7.7334  -16.6627 N   0  0  0  0  0  0  0  0  0  0  0  0
   20.3413   -6.8848  -15.4714 C   0  0  1  0  0  0  0  0  0  0  0  0
   21.6743   -6.8417  -14.8134 C   0  0  0  0  0  0  0  0  0  0  0  0
   22.1027   -8.2056  -14.4347 C   0  0  0  0  0  0  0  0  0  0  0  0
   21.5279   -8.7973  -13.3049 C   0  0  0  0  0  0  0  0  0  0  0  0
   21.8642  -10.0601  -12.9085 C   0  0  0  0  0  0  0  0  0  0  0  0
   22.7988  -10.7520  -13.6585 C   0  0  0  0  0  0  0  0  0  0  0  0
   23.3820  -10.2025  -14.7715 C   0  0  0  0  0  0  0  0  0  0  0  0
   23.0361   -8.9309  -15.1613 C   0  0  0  0  0  0  0  0  0  0  0  0
   19.7298   -5.5739  -15.7572 C   0  0  0  0  0  0  0  0  0  0  0  0
   19.2540   -4.6871  -14.8062 O   0  0  0  0  0  0  0  0  0  0  0  0
   19.5959   -5.1596  -16.9664 O   0  0  0  0  0  0  0  0  0  0  0  0
  2  1  1  6
  3  2  1  0
  3  4  1  0
  4  8  1  0
  5  4  2  0
  6  2  1  0
  6  7  2  0
  9  6  1  0
 10 13  1  0
 10  9  1  0
 10 11  1  6
 12 11  1  0
 13 15  1  0
 14 13  2  0
 15 16  1  0
 16 24  1  0
 16 17  1  6
 18 17  1  0
 19 18  2  0
 20 19  1  0
 21 20  2  0
 21 22  1  0
 22 23  2  0
 23 18  1  0
 24 26  2  0
 24 25  1  0
M  END
$$$$
