DCF.pdb
     RDKit          3D

 26 26  0  0  1  0  0  0  0  0999 V2000
   21.2455  -21.4190  -13.7766 N   0  0  0  0  0  0  0  0  0  0  0  0
   22.0169  -20.4046  -13.0759 C   0  0  1  0  0  0  0  0  0  0  0  0
   21.1384  -19.8169  -11.9910 C   0  0  0  0  0  0  0  0  0  0  0  0
   20.0835  -18.9492  -12.6155 C   0  0  0  0  0  0  0  0  0  0  0  0
   20.3243  -18.2270  -13.6078 O   0  0  0  0  0  0  0  0  0  0  0  0
   23.2397  -20.9858  -12.4597 C   0  0  0  0  0  0  0  0  0  0  0  0
   23.1114  -21.9820  -11.7376 O   0  0  0  0  0  0  0  0  0  0  0  0
   18.7931  -18.9378  -12.0846 O   0  0  0  0  0  0  0  0  0  0  0  0
   24.5358  -20.4577  -12.6579 N   0  0  0  0  0  0  0  0  0  0  0  0
   25.7305  -21.0029  -12.0911 C   0  0  1  0  0  0  0  0  0  0  0  0
   26.9111  -20.9816  -13.0099 C   0  0  0  0  0  0  0  0  0  0  0  0
   28.4286  -21.5445  -12.2035 S   0  0  0  0  0  0  0  0  0  0  0  0
   26.1060  -20.3101  -10.8186 C   0  0  0  0  0  0  0  0  0  0  0  0
   26.0872  -19.0512  -10.7230 O   0  0  0  0  0  0  0  0  0  0  0  0
   26.5008  -21.0258   -9.6568 N   0  0  0  0  0  0  0  0  0  0  0  0
   27.3099  -20.4332   -8.5921 C   0  0  1  0  0  0  0  0  0  0  0  0
   26.6055  -20.4498   -7.2824 C   0  0  0  0  0  0  0  0  0  0  0  0
   27.4871  -19.9192   -6.2202 C   0  0  0  0  0  0  0  0  0  0  0  0
   28.0550  -20.8188   -5.3117 C   0  0  0  0  0  0  0  0  0  0  0  0
   28.8918  -20.3997   -4.3172 C   0  0  0  0  0  0  0  0  0  0  0  0
   29.1703  -19.0474   -4.2257 C   0  0  0  0  0  0  0  0  0  0  0  0
   28.6311  -18.1380   -5.0994 C   0  0  0  0  0  0  0  0  0  0  0  0
   27.7901  -18.5709   -6.0963 C   0  0  0  0  0  0  0  0  0  0  0  0
   28.6735  -20.9941   -8.5886 C   0  0  0  0  0  0  0  0  0  0  0  0
   29.0063  -22.2936   -8.9316 O   0  0  0  0  0  0  0  0  0  0  0  0
   29.6813  -20.2725   -8.2487 O   0  0  0  0  0  0  0  0  0  0  0  0
  2  1  1  1
  3  2  1  0
  3  4  1  0
  4  8  1  0
  5  4  2  0
  6  2  1  0
  6  7  2  0
  9  6  1  0
 10 13  1  0
 10  9  1  0
 10 11  1  6
 12 11  1  0
 13 15  1  0
 14 13  2  0
 15 16  1  0
 16 24  1  0
 16 17  1  1
 18 17  1  0
 19 18  2  0
 20 19  1  0
 21 20  2  0
 21 22  1  0
 22 23  2  0
 23 18  1  0
 24 26  2  0
 24 25  1  0
M  END
$$$$
