WRV.pdb
     RDKit          3D

 33 34  0  0  1  0  0  0  0  0999 V2000
    5.8174  -19.1666   25.3006 N   0  0  0  0  0  0  0  0  0  0  0  0
    6.1171  -17.7415   25.2313 C   0  0  1  0  0  0  0  0  0  0  0  0
    6.3900  -17.3220   26.6724 C   0  0  0  0  0  0  0  0  0  0  0  0
    5.8615  -15.9327   26.7989 C   0  0  0  0  0  0  0  0  0  0  0  0
    4.5390  -15.4930   26.7980 C   0  0  0  0  0  0  0  0  0  0  0  0
    4.4727  -14.1813   26.9608 N   0  0  0  0  0  0  0  0  0  0  0  0
    5.7312  -13.7243   27.0711 C   0  0  0  0  0  0  0  0  0  0  0  0
    6.1542  -12.4244   27.2459 C   0  0  0  0  0  0  0  0  0  0  0  0
    7.5176  -12.1738   27.3299 C   0  0  0  0  0  0  0  0  0  0  0  0
    8.4151  -13.2007   27.2403 C   0  0  0  0  0  0  0  0  0  0  0  0
    7.9610  -14.5051   27.0634 C   0  0  0  0  0  0  0  0  0  0  0  0
    6.6141  -14.7766   26.9769 C   0  0  0  0  0  0  0  0  0  0  0  0
    7.2822  -17.4570   24.3359 C   0  0  0  0  0  0  0  0  0  0  0  0
    8.2773  -18.2488   24.3050 O   0  0  0  0  0  0  0  0  0  0  0  0
    8.6862  -15.1241   16.1059 N   0  0  0  0  0  0  0  0  0  0  0  0
    8.9846  -14.2023   17.1568 C   0  0  0  0  0  0  0  0  0  0  0  0
    9.6009  -13.0988   16.9452 N   0  0  0  0  0  0  0  0  0  0  0  0
    8.5667  -14.5612   18.4628 N   0  0  0  0  0  0  0  0  0  0  0  0
    8.8366  -13.7237   19.6103 C   0  0  0  0  0  0  0  0  0  0  0  0
    9.2775  -14.5893   20.7902 C   0  0  0  0  0  0  0  0  0  0  0  0
    8.1281  -14.8635   21.7175 C   0  0  0  0  0  0  0  0  0  0  0  0
    8.4696  -15.9785   22.6567 C   0  0  2  0  0  0  0  0  0  0  0  0
    7.3343  -16.3072   23.4898 N   0  0  0  0  0  0  0  0  0  0  0  0
    9.6635  -15.6535   23.4872 C   0  0  0  0  0  0  0  0  0  0  0  0
   10.6758  -15.2379   22.8830 O   0  0  0  0  0  0  0  0  0  0  0  0
    9.8248  -12.4962   17.7729 C   0  0  0  0  0  0  0  0  0  0  0  0
   11.4357  -14.1127   27.7403 C   0  0  2  0  0  0  0  0  0  0  0  0
   10.3088  -14.5197   26.8250 C   0  0  0  0  0  0  0  0  0  0  0  0
    9.4973  -13.3379   26.3546 C   0  0  1  0  0  0  0  0  0  0  0  0
   10.7789  -15.3797   25.6667 N   0  0  0  0  0  0  0  0  0  0  0  0
    9.6363  -15.8135   24.9020 C   0  0  0  0  0  0  0  0  0  0  0  0
   11.6461  -16.4730   26.0894 O   0  0  0  0  0  0  0  0  0  0  0  0
   12.7362  -16.2867   26.6821 O   0  0  0  0  0  0  0  0  0  0  0  0
  2  1  1  1
  3  2  1  0
  4  3  1  0
  4  5  2  0
  6  5  1  0
  7  6  1  0
  8  7  2  0
  9  8  1  0
 10  9  2  0
 10 11  1  0
 11 12  2  0
 12  7  1  0
 12  4  1  0
 13  2  1  0
 13 14  2  0
 16 17  2  0
 16 15  1  0
 18 16  1  0
 19 20  1  0
 19 18  1  0
 20 21  1  0
 22 21  1  1
 22 23  1  0
 23 13  1  0
 24 22  1  0
 24 25  2  0
 27 26  1  1
 27 28  1  0
 29 30  1  1
 29 27  1  0
 30 24  1  0
 31 29  1  0
 32 31  2  0
 33 31  1  0
M  END
$$$$
