WRV.pdb
     RDKit          3D

 33 34  0  0  1  0  0  0  0  0999 V2000
    6.0316  -18.7509   25.3458 N   0  0  0  0  0  0  0  0  0  0  0  0
    6.3204  -17.3376   25.1340 C   0  0  1  0  0  0  0  0  0  0  0  0
    6.8048  -16.8237   26.4863 C   0  0  0  0  0  0  0  0  0  0  0  0
    6.1941  -15.4726   26.6508 C   0  0  0  0  0  0  0  0  0  0  0  0
    4.8472  -15.1183   26.7029 C   0  0  0  0  0  0  0  0  0  0  0  0
    4.7038  -13.8156   26.8862 N   0  0  0  0  0  0  0  0  0  0  0  0
    5.9338  -13.2803   26.9582 C   0  0  0  0  0  0  0  0  0  0  0  0
    6.2796  -11.9582   27.1361 C   0  0  0  0  0  0  0  0  0  0  0  0
    7.6264  -11.6219   27.1751 C   0  0  0  0  0  0  0  0  0  0  0  0
    8.5835  -12.5883   27.0394 C   0  0  0  0  0  0  0  0  0  0  0  0
    8.2070  -13.9169   26.8606 C   0  0  0  0  0  0  0  0  0  0  0  0
    6.8778  -14.2729   26.8181 C   0  0  0  0  0  0  0  0  0  0  0  0
    7.3403  -17.1292   24.0586 C   0  0  0  0  0  0  0  0  0  0  0  0
    8.2390  -18.0042   23.8471 O   0  0  0  0  0  0  0  0  0  0  0  0
    8.0871  -15.6486   18.1499 N   0  0  0  0  0  0  0  0  0  0  0  0
    8.7925  -14.6561   17.4012 C   0  0  0  0  0  0  0  0  0  0  0  0
    9.2304  -14.8746   16.2168 N   0  0  0  0  0  0  0  0  0  0  0  0
    8.9930  -13.4011   18.0290 N   0  0  0  0  0  0  0  0  0  0  0  0
    8.5715  -13.1495   19.3892 C   0  0  0  0  0  0  0  0  0  0  0  0
    8.9722  -14.3245   20.2806 C   0  0  0  0  0  0  0  0  0  0  0  0
    7.9672  -14.5378   21.3764 C   0  0  0  0  0  0  0  0  0  0  0  0
    8.3516  -15.7173   22.2149 C   0  0  2  0  0  0  0  0  0  0  0  0
    7.3555  -15.9629   23.2340 N   0  0  0  0  0  0  0  0  0  0  0  0
    9.7024  -15.5461   22.8206 C   0  0  0  0  0  0  0  0  0  0  0  0
   10.6540  -15.3518   22.0335 O   0  0  0  0  0  0  0  0  0  0  0  0
    9.6327  -14.0653   15.6861 C   0  0  0  0  0  0  0  0  0  0  0  0
   10.5279  -13.6243   26.2708 C   0  0  2  0  0  0  0  0  0  0  0  0
   11.1673  -14.9868   26.1807 C   0  0  0  0  0  0  0  0  0  0  0  0
   10.5340  -15.9805   27.1230 C   0  0  2  0  0  0  0  0  0  0  0  0
   11.2232  -15.5127   24.7585 N   0  0  0  0  0  0  0  0  0  0  0  0
    9.8842  -15.6031   24.2319 C   0  0  0  0  0  0  0  0  0  0  0  0
   11.9793  -16.7542   24.6437 O   0  0  0  0  0  0  0  0  0  0  0  0
   11.4539  -17.8419   24.3042 O   0  0  0  0  0  0  0  0  0  0  0  0
  2  1  1  1
  3  2  1  0
  4  3  1  0
  4  5  2  0
  6  5  1  0
  7  6  1  0
  8  7  2  0
  9  8  1  0
 10  9  2  0
 10 11  1  0
 11 12  2  0
 12  7  1  0
 12  4  1  0
 13  2  1  0
 13 14  2  0
 16 17  2  0
 16 15  1  0
 18 16  1  0
 19 20  1  0
 19 18  1  0
 20 21  1  0
 22 21  1  1
 22 23  1  0
 23 13  1  0
 24 22  1  0
 24 25  2  0
 27 26  1  1
 27 28  1  0
 29 30  1  6
 29 27  1  0
 30 24  1  0
 31 29  1  0
 32 31  2  0
 33 31  1  0
M  END
$$$$
