WRV.pdb
     RDKit          3D

 33 34  0  0  1  0  0  0  0  0999 V2000
    5.5375  -17.6567   25.1071 N   0  0  0  0  0  0  0  0  0  0  0  0
    6.6847  -16.8029   24.8234 C   0  0  1  0  0  0  0  0  0  0  0  0
    6.9817  -16.0865   26.1371 C   0  0  0  0  0  0  0  0  0  0  0  0
    6.1566  -14.8438   26.1188 C   0  0  0  0  0  0  0  0  0  0  0  0
    4.8573  -14.6458   26.5822 C   0  0  0  0  0  0  0  0  0  0  0  0
    4.4772  -13.3895   26.4133 N   0  0  0  0  0  0  0  0  0  0  0  0
    5.4994  -12.7322   25.8408 C   0  0  0  0  0  0  0  0  0  0  0  0
    5.5606  -11.4059   25.4715 C   0  0  0  0  0  0  0  0  0  0  0  0
    6.7260  -10.9318   24.8837 C   0  0  0  0  0  0  0  0  0  0  0  0
    7.7864  -11.7696   24.6792 C   0  0  0  0  0  0  0  0  0  0  0  0
    7.6983  -13.1057   25.0615 C   0  0  0  0  0  0  0  0  0  0  0  0
    6.5526  -13.5974   25.6453 C   0  0  0  0  0  0  0  0  0  0  0  0
    7.8615  -17.5893   24.3368 C   0  0  0  0  0  0  0  0  0  0  0  0
    8.0608  -18.7735   24.7560 O   0  0  0  0  0  0  0  0  0  0  0  0
   10.9081  -13.0723   19.6823 N   0  0  0  0  0  0  0  0  0  0  0  0
    9.6925  -13.5847   19.1321 C   0  0  0  0  0  0  0  0  0  0  0  0
    8.7958  -12.8226   18.6247 N   0  0  0  0  0  0  0  0  0  0  0  0
    9.5134  -14.9903   19.1703 N   0  0  0  0  0  0  0  0  0  0  0  0
   10.4281  -15.8598   19.8762 C   0  0  0  0  0  0  0  0  0  0  0  0
    9.8859  -16.1553   21.2743 C   0  0  0  0  0  0  0  0  0  0  0  0
   10.7802  -17.1130   22.0086 C   0  0  0  0  0  0  0  0  0  0  0  0
   10.1850  -17.4703   23.3353 C   0  0  2  0  0  0  0  0  0  0  0  0
    8.7995  -17.0610   23.3977 N   0  0  0  0  0  0  0  0  0  0  0  0
   10.9641  -16.8873   24.4639 C   0  0  0  0  0  0  0  0  0  0  0  0
   12.1039  -16.4489   24.1966 O   0  0  0  0  0  0  0  0  0  0  0  0
    7.9025  -13.2651   18.3013 C   0  0  0  0  0  0  0  0  0  0  0  0
   11.1244  -14.6722   28.7739 C   0  0  2  0  0  0  0  0  0  0  0  0
   10.4459  -15.1693   27.5226 C   0  0  0  0  0  0  0  0  0  0  0  0
   10.1048  -14.0486   26.5717 C   0  0  1  0  0  0  0  0  0  0  0  0
   11.2249  -16.2758   26.8361 N   0  0  0  0  0  0  0  0  0  0  0  0
   10.4213  -16.8382   25.7796 C   0  0  0  0  0  0  0  0  0  0  0  0
   11.7373  -17.2706   27.7708 O   0  0  0  0  0  0  0  0  0  0  0  0
   11.2011  -18.3937   27.9309 O   0  0  0  0  0  0  0  0  0  0  0  0
  2  1  1  1
  3  2  1  0
  4  3  1  0
  4  5  2  0
  6  5  1  0
  7  6  1  0
  8  7  2  0
  9  8  1  0
 10  9  2  0
 10 11  1  0
 11 12  2  0
 12  7  1  0
 12  4  1  0
 13  2  1  0
 13 14  2  0
 16 17  2  0
 16 15  1  0
 18 16  1  0
 19 20  1  0
 19 18  1  0
 20 21  1  0
 22 21  1  6
 22 23  1  0
 23 13  1  0
 24 22  1  0
 24 25  2  0
 27 26  1  1
 27 28  1  0
 29 30  1  1
 29 27  1  0
 30 24  1  0
 31 29  1  0
 32 31  2  0
 33 31  1  0
M  END
$$$$
