WRV.pdb
     RDKit          3D

 33 34  0  0  1  0  0  0  0  0999 V2000
    6.3329  -18.1328   25.2016 N   0  0  0  0  0  0  0  0  0  0  0  0
    6.7005  -16.7924   24.7616 C   0  0  1  0  0  0  0  0  0  0  0  0
    7.5825  -16.2362   25.8751 C   0  0  0  0  0  0  0  0  0  0  0  0
    6.8575  -15.0490   26.4140 C   0  0  0  0  0  0  0  0  0  0  0  0
    5.7657  -15.0051   27.2790 C   0  0  0  0  0  0  0  0  0  0  0  0
    5.4216  -13.7562   27.5492 N   0  0  0  0  0  0  0  0  0  0  0  0
    6.2634  -12.9517   26.8793 C   0  0  0  0  0  0  0  0  0  0  0  0
    6.2848  -11.5740   26.8504 C   0  0  0  0  0  0  0  0  0  0  0  0
    7.2488  -10.9395   26.0780 C   0  0  0  0  0  0  0  0  0  0  0  0
    8.1544  -11.6733   25.3641 C   0  0  0  0  0  0  0  0  0  0  0  0
    8.1106  -13.0643   25.4106 C   0  0  0  0  0  0  0  0  0  0  0  0
    7.1632  -13.7144   26.1690 C   0  0  0  0  0  0  0  0  0  0  0  0
    7.4090  -16.8103   23.4433 C   0  0  0  0  0  0  0  0  0  0  0  0
    8.1582  -17.7892   23.1296 O   0  0  0  0  0  0  0  0  0  0  0  0
    7.9177  -13.0596   16.3480 N   0  0  0  0  0  0  0  0  0  0  0  0
    8.7521  -14.2081   16.1810 C   0  0  0  0  0  0  0  0  0  0  0  0
    9.8419  -14.1707   15.5078 N   0  0  0  0  0  0  0  0  0  0  0  0
    8.3210  -15.4094   16.7978 N   0  0  0  0  0  0  0  0  0  0  0  0
    7.5505  -15.4080   18.0214 C   0  0  0  0  0  0  0  0  0  0  0  0
    8.2602  -14.5626   19.0785 C   0  0  0  0  0  0  0  0  0  0  0  0
    7.5141  -14.5905   20.3819 C   0  0  0  0  0  0  0  0  0  0  0  0
    8.0184  -15.7028   21.2483 C   0  0  2  0  0  0  0  0  0  0  0  0
    7.2823  -15.7521   22.4921 N   0  0  0  0  0  0  0  0  0  0  0  0
    9.4824  -15.5849   21.5002 C   0  0  0  0  0  0  0  0  0  0  0  0
    9.8893  -14.5002   21.9699 O   0  0  0  0  0  0  0  0  0  0  0  0
   10.4621  -15.0152   15.5320 C   0  0  0  0  0  0  0  0  0  0  0  0
   11.5517  -17.1497   23.8944 C   0  0  2  0  0  0  0  0  0  0  0  0
   12.1995  -17.4557   22.5677 C   0  0  0  0  0  0  0  0  0  0  0  0
   12.0124  -18.8954   22.1570 C   0  0  2  0  0  0  0  0  0  0  0  0
   11.7714  -16.4955   21.4736 N   0  0  0  0  0  0  0  0  0  0  0  0
   10.3636  -16.6666   21.2147 C   0  0  0  0  0  0  0  0  0  0  0  0
   12.5998  -16.5946   20.2778 O   0  0  0  0  0  0  0  0  0  0  0  0
   13.8029  -16.2390   20.2521 O   0  0  0  0  0  0  0  0  0  0  0  0
  2  1  1  1
  3  2  1  0
  4  3  1  0
  4  5  2  0
  6  5  1  0
  7  6  1  0
  8  7  2  0
  9  8  1  0
 10  9  2  0
 10 11  1  0
 11 12  2  0
 12  7  1  0
 12  4  1  0
 13  2  1  0
 13 14  2  0
 16 17  2  0
 16 15  1  0
 18 16  1  0
 19 20  1  0
 19 18  1  0
 20 21  1  0
 22 21  1  6
 22 23  1  0
 23 13  1  0
 24 22  1  0
 24 25  2  0
 27 26  1  1
 27 28  1  0
 29 30  1  6
 29 27  1  0
 30 24  1  0
 31 29  1  0
 32 31  2  0
 33 31  1  0
M  END
$$$$
