WRV.pdb
     RDKit          3D

 33 34  0  0  1  0  0  0  0  0999 V2000
    6.6508  -18.6272   25.4758 N   0  0  0  0  0  0  0  0  0  0  0  0
    6.7749  -17.2392   25.0475 C   0  0  1  0  0  0  0  0  0  0  0  0
    7.4414  -16.5205   26.2166 C   0  0  0  0  0  0  0  0  0  0  0  0
    6.6512  -15.2735   26.4316 C   0  0  0  0  0  0  0  0  0  0  0  0
    5.2710  -15.1173   26.5451 C   0  0  0  0  0  0  0  0  0  0  0  0
    4.9506  -13.8513   26.7590 N   0  0  0  0  0  0  0  0  0  0  0  0
    6.0933  -13.1457   26.7911 C   0  0  0  0  0  0  0  0  0  0  0  0
    6.2536  -11.7900   26.9800 C   0  0  0  0  0  0  0  0  0  0  0  0
    7.5388  -11.2640   26.9706 C   0  0  0  0  0  0  0  0  0  0  0  0
    8.6177  -12.0809   26.7777 C   0  0  0  0  0  0  0  0  0  0  0  0
    8.4279  -13.4473   26.5890 C   0  0  0  0  0  0  0  0  0  0  0  0
    7.1627  -13.9902   26.5938 C   0  0  0  0  0  0  0  0  0  0  0  0
    7.5699  -17.1111   23.7859 C   0  0  0  0  0  0  0  0  0  0  0  0
    8.5012  -17.9378   23.5266 O   0  0  0  0  0  0  0  0  0  0  0  0
    7.5581  -15.3400   16.8627 N   0  0  0  0  0  0  0  0  0  0  0  0
    8.5306  -14.3261   16.5990 C   0  0  0  0  0  0  0  0  0  0  0  0
    9.2875  -14.3556   15.5654 N   0  0  0  0  0  0  0  0  0  0  0  0
    8.6277  -13.2702   17.5397 N   0  0  0  0  0  0  0  0  0  0  0  0
    7.9487  -13.3166   18.8156 C   0  0  0  0  0  0  0  0  0  0  0  0
    8.4729  -14.4934   19.6379 C   0  0  0  0  0  0  0  0  0  0  0  0
    7.7053  -14.6398   20.9207 C   0  0  0  0  0  0  0  0  0  0  0  0
    8.1385  -15.8734   21.6505 C   0  0  2  0  0  0  0  0  0  0  0  0
    7.3282  -16.0769   22.8307 N   0  0  0  0  0  0  0  0  0  0  0  0
    9.5865  -15.8271   22.0000 C   0  0  0  0  0  0  0  0  0  0  0  0
   10.0209  -14.7519   22.4666 O   0  0  0  0  0  0  0  0  0  0  0  0
   10.0405  -13.6306   15.4886 C   0  0  0  0  0  0  0  0  0  0  0  0
   13.8204  -18.1653   22.8833 C   0  0  2  0  0  0  0  0  0  0  0  0
   12.3192  -18.1199   22.7495 C   0  0  0  0  0  0  0  0  0  0  0  0
   11.6189  -18.3859   24.0591 C   0  0  1  0  0  0  0  0  0  0  0  0
   11.8297  -16.8410   22.0960 N   0  0  0  0  0  0  0  0  0  0  0  0
   10.4227  -16.9634   21.8064 C   0  0  0  0  0  0  0  0  0  0  0  0
   12.6306  -16.4535   20.9409 O   0  0  0  0  0  0  0  0  0  0  0  0
   13.5711  -15.6258   21.0118 O   0  0  0  0  0  0  0  0  0  0  0  0
  2  1  1  1
  3  2  1  0
  4  3  1  0
  4  5  2  0
  6  5  1  0
  7  6  1  0
  8  7  2  0
  9  8  1  0
 10  9  2  0
 10 11  1  0
 11 12  2  0
 12  7  1  0
 12  4  1  0
 13  2  1  0
 13 14  2  0
 16 17  2  0
 16 15  1  0
 18 16  1  0
 19 20  1  0
 19 18  1  0
 20 21  1  0
 22 21  1  1
 22 23  1  0
 23 13  1  0
 24 22  1  0
 24 25  2  0
 27 26  1  6
 27 28  1  0
 29 30  1  6
 29 27  1  0
 30 24  1  0
 31 29  1  0
 32 31  2  0
 33 31  1  0
M  END
$$$$
