WRV.pdb
     RDKit          3D

 33 34  0  0  1  0  0  0  0  0999 V2000
    8.4488  -16.0038   21.4887 N   0  0  0  0  0  0  0  0  0  0  0  0
    8.6998  -15.7092   22.8943 C   0  0  1  0  0  0  0  0  0  0  0  0
    7.3440  -15.3033   23.4638 C   0  0  0  0  0  0  0  0  0  0  0  0
    7.2450  -13.8278   23.2669 C   0  0  0  0  0  0  0  0  0  0  0  0
    7.3927  -13.0864   22.0961 C   0  0  0  0  0  0  0  0  0  0  0  0
    7.2045  -11.7962   22.3220 N   0  0  0  0  0  0  0  0  0  0  0  0
    6.9322  -11.6509   23.6295 C   0  0  0  0  0  0  0  0  0  0  0  0
    6.6737  -10.4883   24.3228 C   0  0  0  0  0  0  0  0  0  0  0  0
    6.4205  -10.5685   25.6859 C   0  0  0  0  0  0  0  0  0  0  0  0
    6.4291  -11.7796   26.3196 C   0  0  0  0  0  0  0  0  0  0  0  0
    6.6934  -12.9392   25.5955 C   0  0  0  0  0  0  0  0  0  0  0  0
    6.9478  -12.8832   24.2436 C   0  0  0  0  0  0  0  0  0  0  0  0
    9.2812  -16.8834   23.6176 C   0  0  0  0  0  0  0  0  0  0  0  0
    8.5387  -17.6317   24.3295 O   0  0  0  0  0  0  0  0  0  0  0  0
   14.0103  -19.1761   19.9359 N   0  0  0  0  0  0  0  0  0  0  0  0
   13.0176  -20.1592   19.6341 C   0  0  0  0  0  0  0  0  0  0  0  0
   12.6683  -20.4331   18.4320 N   0  0  0  0  0  0  0  0  0  0  0  0
   12.4242  -20.8299   20.7329 N   0  0  0  0  0  0  0  0  0  0  0  0
   12.7470  -20.4919   22.1013 C   0  0  0  0  0  0  0  0  0  0  0  0
   12.2950  -19.0631   22.4015 C   0  0  0  0  0  0  0  0  0  0  0  0
   12.5526  -18.7062   23.8376 C   0  0  0  0  0  0  0  0  0  0  0  0
   11.3204  -18.1270   24.4607 C   0  0  2  0  0  0  0  0  0  0  0  0
   10.6688  -17.2155   23.5466 N   0  0  0  0  0  0  0  0  0  0  0  0
   11.6213  -17.4567   25.7573 C   0  0  0  0  0  0  0  0  0  0  0  0
   12.7696  -16.9818   25.8946 O   0  0  0  0  0  0  0  0  0  0  0  0
   11.8628  -21.0892   18.2931 C   0  0  0  0  0  0  0  0  0  0  0  0
   10.4246  -15.0206   29.7210 C   0  0  2  0  0  0  0  0  0  0  0  0
   10.0901  -15.6617   28.3980 C   0  0  0  0  0  0  0  0  0  0  0  0
   10.0103  -14.6549   27.2771 C   0  0  1  0  0  0  0  0  0  0  0  0
   11.0157  -16.8148   28.0574 N   0  0  0  0  0  0  0  0  0  0  0  0
   10.6360  -17.3686   26.7816 C   0  0  0  0  0  0  0  0  0  0  0  0
   11.0981  -17.8076   29.1220 O   0  0  0  0  0  0  0  0  0  0  0  0
   10.2807  -18.7529   29.2357 O   0  0  0  0  0  0  0  0  0  0  0  0
  2  1  1  6
  3  2  1  0
  4  3  1  0
  4  5  2  0
  6  5  1  0
  7  6  1  0
  8  7  2  0
  9  8  1  0
 10  9  2  0
 10 11  1  0
 11 12  2  0
 12  7  1  0
 12  4  1  0
 13  2  1  0
 13 14  2  0
 16 17  2  0
 16 15  1  0
 18 16  1  0
 19 20  1  0
 19 18  1  0
 20 21  1  0
 22 21  1  6
 22 23  1  0
 23 13  1  0
 24 22  1  0
 24 25  2  0
 27 26  1  1
 27 28  1  0
 29 30  1  1
 29 27  1  0
 30 24  1  0
 31 29  1  0
 32 31  2  0
 33 31  1  0
M  END
$$$$
