WRV.pdb
     RDKit          3D

 33 34  0  0  1  0  0  0  0  0999 V2000
    5.5523  -17.4286   24.9857 N   0  0  0  0  0  0  0  0  0  0  0  0
    6.6815  -16.5080   24.9316 C   0  0  1  0  0  0  0  0  0  0  0  0
    6.7370  -15.8652   26.3141 C   0  0  0  0  0  0  0  0  0  0  0  0
    6.0614  -14.5424   26.1754 C   0  0  0  0  0  0  0  0  0  0  0  0
    4.7334  -14.2041   26.4286 C   0  0  0  0  0  0  0  0  0  0  0  0
    4.5200  -12.9161   26.2119 N   0  0  0  0  0  0  0  0  0  0  0  0
    5.6838  -12.3756   25.8141 C   0  0  0  0  0  0  0  0  0  0  0  0
    5.9427  -11.0665   25.4701 C   0  0  0  0  0  0  0  0  0  0  0  0
    7.2302  -10.7235   25.0783 C   0  0  0  0  0  0  0  0  0  0  0  0
    8.2149  -11.6706   25.0376 C   0  0  0  0  0  0  0  0  0  0  0  0
    7.9264  -12.9864   25.3901 C   0  0  0  0  0  0  0  0  0  0  0  0
    6.6571  -13.3491   25.7809 C   0  0  0  0  0  0  0  0  0  0  0  0
    7.9591  -17.2082   24.5888 C   0  0  0  0  0  0  0  0  0  0  0  0
    8.2753  -18.2918   25.1750 O   0  0  0  0  0  0  0  0  0  0  0  0
   13.6219  -19.4367   18.9464 N   0  0  0  0  0  0  0  0  0  0  0  0
   14.5405  -18.6048   19.6585 C   0  0  0  0  0  0  0  0  0  0  0  0
   15.8033  -18.8231   19.6590 N   0  0  0  0  0  0  0  0  0  0  0  0
   13.9927  -17.5120   20.3762 N   0  0  0  0  0  0  0  0  0  0  0  0
   12.5670  -17.2823   20.4502 C   0  0  0  0  0  0  0  0  0  0  0  0
   12.0801  -17.5095   21.8810 C   0  0  0  0  0  0  0  0  0  0  0  0
   10.7801  -16.7986   22.1279 C   0  0  0  0  0  0  0  0  0  0  0  0
   10.2324  -17.1642   23.4727 C   0  0  2  0  0  0  0  0  0  0  0  0
    8.8677  -16.7057   23.6077 N   0  0  0  0  0  0  0  0  0  0  0  0
   11.0833  -16.6365   24.5764 C   0  0  0  0  0  0  0  0  0  0  0  0
   11.7073  -15.5768   24.3514 O   0  0  0  0  0  0  0  0  0  0  0  0
   16.4067  -18.2078   20.2556 C   0  0  0  0  0  0  0  0  0  0  0  0
   10.6986  -14.7110   27.0826 C   0  0  2  0  0  0  0  0  0  0  0  0
   11.3003  -15.9067   27.7766 C   0  0  0  0  0  0  0  0  0  0  0  0
   10.2808  -16.6765   28.5792 C   0  0  2  0  0  0  0  0  0  0  0  0
   12.0695  -16.8067   26.8276 N   0  0  0  0  0  0  0  0  0  0  0  0
   11.1703  -17.3184   25.8236 C   0  0  0  0  0  0  0  0  0  0  0  0
   12.8226  -17.8462   27.5193 O   0  0  0  0  0  0  0  0  0  0  0  0
   12.5370  -19.0650   27.4331 O   0  0  0  0  0  0  0  0  0  0  0  0
  2  1  1  1
  3  2  1  0
  4  3  1  0
  4  5  2  0
  6  5  1  0
  7  6  1  0
  8  7  2  0
  9  8  1  0
 10  9  2  0
 10 11  1  0
 11 12  2  0
 12  7  1  0
 12  4  1  0
 13  2  1  0
 13 14  2  0
 16 17  2  0
 16 15  1  0
 18 16  1  0
 19 20  1  0
 19 18  1  0
 20 21  1  0
 22 21  1  6
 22 23  1  0
 23 13  1  0
 24 22  1  0
 24 25  2  0
 27 26  1  1
 27 28  1  0
 29 30  1  1
 29 27  1  0
 30 24  1  0
 31 29  1  0
 32 31  2  0
 33 31  1  0
M  END
$$$$
