WRV.pdb
     RDKit          3D

 33 34  0  0  1  0  0  0  0  0999 V2000
    6.5692  -17.5506   22.3650 N   0  0  0  0  0  0  0  0  0  0  0  0
    7.3395  -16.4520   22.9354 C   0  0  1  0  0  0  0  0  0  0  0  0
    6.3796  -15.7459   23.8879 C   0  0  0  0  0  0  0  0  0  0  0  0
    6.7372  -14.2988   23.8274 C   0  0  0  0  0  0  0  0  0  0  0  0
    7.3102  -13.5791   22.7805 C   0  0  0  0  0  0  0  0  0  0  0  0
    7.4502  -12.3026   23.1001 N   0  0  0  0  0  0  0  0  0  0  0  0
    6.9815  -12.1456   24.3493 C   0  0  0  0  0  0  0  0  0  0  0  0
    6.9291  -10.9925   25.1020 C   0  0  0  0  0  0  0  0  0  0  0  0
    6.4045  -11.0591   26.3862 C   0  0  0  0  0  0  0  0  0  0  0  0
    5.9512  -12.2478   26.8860 C   0  0  0  0  0  0  0  0  0  0  0  0
    6.0159  -13.3984   26.1044 C   0  0  0  0  0  0  0  0  0  0  0  0
    6.5326  -13.3557   24.8291 C   0  0  0  0  0  0  0  0  0  0  0  0
    8.5694  -16.9357   23.6378 C   0  0  0  0  0  0  0  0  0  0  0  0
    8.4721  -17.6333   24.6970 O   0  0  0  0  0  0  0  0  0  0  0  0
   15.0636  -16.0762   20.1337 N   0  0  0  0  0  0  0  0  0  0  0  0
   15.3921  -15.3000   21.2881 C   0  0  0  0  0  0  0  0  0  0  0  0
   16.0158  -14.1834   21.2077 N   0  0  0  0  0  0  0  0  0  0  0  0
   14.9959  -15.8210   22.5454 N   0  0  0  0  0  0  0  0  0  0  0  0
   14.7503  -17.2317   22.7466 C   0  0  0  0  0  0  0  0  0  0  0  0
   13.5184  -17.4213   23.6311 C   0  0  0  0  0  0  0  0  0  0  0  0
   12.2799  -16.9176   22.9465 C   0  0  0  0  0  0  0  0  0  0  0  0
   11.0906  -17.0652   23.8441 C   0  0  2  0  0  0  0  0  0  0  0  0
    9.8854  -16.6447   23.1645 N   0  0  0  0  0  0  0  0  0  0  0  0
   11.2689  -16.3201   25.1223 C   0  0  0  0  0  0  0  0  0  0  0  0
   12.0167  -15.3187   25.0929 O   0  0  0  0  0  0  0  0  0  0  0  0
   16.2812  -13.7049   22.1016 C   0  0  0  0  0  0  0  0  0  0  0  0
   10.0757  -13.9765   27.0649 C   0  0  2  0  0  0  0  0  0  0  0  0
   10.1486  -15.1225   28.0420 C   0  0  0  0  0  0  0  0  0  0  0  0
    8.7838  -15.6515   28.4078 C   0  0  2  0  0  0  0  0  0  0  0  0
   11.0776  -16.2283   27.5767 N   0  0  0  0  0  0  0  0  0  0  0  0
   10.6108  -16.7412   26.3129 C   0  0  0  0  0  0  0  0  0  0  0  0
   11.2779  -17.2611   28.5863 O   0  0  0  0  0  0  0  0  0  0  0  0
   10.8719  -18.4398   28.4438 O   0  0  0  0  0  0  0  0  0  0  0  0
  2  1  1  1
  3  2  1  0
  4  3  1  0
  4  5  2  0
  6  5  1  0
  7  6  1  0
  8  7  2  0
  9  8  1  0
 10  9  2  0
 10 11  1  0
 11 12  2  0
 12  7  1  0
 12  4  1  0
 13  2  1  0
 13 14  2  0
 16 17  2  0
 16 15  1  0
 18 16  1  0
 19 20  1  0
 19 18  1  0
 20 21  1  0
 22 21  1  6
 22 23  1  0
 23 13  1  0
 24 22  1  0
 24 25  2  0
 27 26  1  1
 27 28  1  0
 29 30  1  1
 29 27  1  0
 30 24  1  0
 31 29  1  0
 32 31  2  0
 33 31  1  0
M  END
$$$$
