WRV.pdb
     RDKit          3D

 33 34  0  0  1  0  0  0  0  0999 V2000
    6.8389  -17.3940   23.6579 N   0  0  0  0  0  0  0  0  0  0  0  0
    7.8686  -16.3651   23.5750 C   0  0  1  0  0  0  0  0  0  0  0  0
    8.2613  -16.0781   25.0209 C   0  0  0  0  0  0  0  0  0  0  0  0
    7.2509  -15.1067   25.5319 C   0  0  0  0  0  0  0  0  0  0  0  0
    5.9502  -15.3432   25.9727 C   0  0  0  0  0  0  0  0  0  0  0  0
    5.3728  -14.2232   26.3771 N   0  0  0  0  0  0  0  0  0  0  0  0
    6.2626  -13.2296   26.2161 C   0  0  0  0  0  0  0  0  0  0  0  0
    6.1043  -11.8894   26.4951 C   0  0  0  0  0  0  0  0  0  0  0  0
    7.1638  -11.0275   26.2437 C   0  0  0  0  0  0  0  0  0  0  0  0
    8.3365  -11.5064   25.7302 C   0  0  0  0  0  0  0  0  0  0  0  0
    8.4701  -12.8653   25.4570 C   0  0  0  0  0  0  0  0  0  0  0  0
    7.4327  -13.7377   25.6977 C   0  0  0  0  0  0  0  0  0  0  0  0
    9.0394  -16.8091   22.7552 C   0  0  0  0  0  0  0  0  0  0  0  0
    9.3920  -18.0313   22.7475 O   0  0  0  0  0  0  0  0  0  0  0  0
    7.3916  -15.0500   18.9925 N   0  0  0  0  0  0  0  0  0  0  0  0
    7.6552  -13.8356   18.2861 C   0  0  0  0  0  0  0  0  0  0  0  0
    6.7182  -13.0533   17.8958 N   0  0  0  0  0  0  0  0  0  0  0  0
    9.0142  -13.5250   18.0290 N   0  0  0  0  0  0  0  0  0  0  0  0
   10.0894  -14.4061   18.4272 C   0  0  0  0  0  0  0  0  0  0  0  0
   10.3140  -14.2993   19.9352 C   0  0  0  0  0  0  0  0  0  0  0  0
   11.4695  -15.1546   20.3706 C   0  0  0  0  0  0  0  0  0  0  0  0
   10.9883  -16.2870   21.2239 C   0  0  2  0  0  0  0  0  0  0  0  0
    9.8031  -15.9027   21.9579 N   0  0  0  0  0  0  0  0  0  0  0  0
   12.0527  -16.7722   22.1473 C   0  0  0  0  0  0  0  0  0  0  0  0
   12.5332  -15.9372   22.9439 O   0  0  0  0  0  0  0  0  0  0  0  0
    6.9912  -12.1710   17.4003 C   0  0  0  0  0  0  0  0  0  0  0  0
   14.6631  -20.5578   23.9903 C   0  0  2  0  0  0  0  0  0  0  0  0
   13.4660  -20.0192   23.2484 C   0  0  0  0  0  0  0  0  0  0  0  0
   12.1643  -20.3901   23.9150 C   0  0  1  0  0  0  0  0  0  0  0  0
   13.5630  -18.5276   22.9880 N   0  0  0  0  0  0  0  0  0  0  0  0
   12.4903  -18.1269   22.1122 C   0  0  0  0  0  0  0  0  0  0  0  0
   14.8818  -18.1199   22.5181 O   0  0  0  0  0  0  0  0  0  0  0  0
   15.2304  -18.2005   21.3154 O   0  0  0  0  0  0  0  0  0  0  0  0
  2  1  1  1
  3  2  1  0
  4  3  1  0
  4  5  2  0
  6  5  1  0
  7  6  1  0
  8  7  2  0
  9  8  1  0
 10  9  2  0
 10 11  1  0
 11 12  2  0
 12  7  1  0
 12  4  1  0
 13  2  1  0
 13 14  2  0
 16 17  2  0
 16 15  1  0
 18 16  1  0
 19 20  1  0
 19 18  1  0
 20 21  1  0
 22 21  1  1
 22 23  1  0
 23 13  1  0
 24 22  1  0
 24 25  2  0
 27 26  1  6
 27 28  1  0
 29 30  1  6
 29 27  1  0
 30 24  1  0
 31 29  1  0
 32 31  2  0
 33 31  1  0
M  END
$$$$
