WRV.pdb
     RDKit          3D

 33 34  0  0  1  0  0  0  0  0999 V2000
    7.8288  -15.6327   25.6512 N   0  0  0  0  0  0  0  0  0  0  0  0
    7.1386  -16.7221   24.9713 C   0  0  1  0  0  0  0  0  0  0  0  0
    6.1826  -16.0407   23.9972 C   0  0  0  0  0  0  0  0  0  0  0  0
    6.6695  -14.6369   23.8638 C   0  0  0  0  0  0  0  0  0  0  0  0
    7.3968  -14.0546   22.8274 C   0  0  0  0  0  0  0  0  0  0  0  0
    7.6181  -12.7713   23.0627 N   0  0  0  0  0  0  0  0  0  0  0  0
    7.0524  -12.4743   24.2445 C   0  0  0  0  0  0  0  0  0  0  0  0
    7.0325  -11.2622   24.8999 C   0  0  0  0  0  0  0  0  0  0  0  0
    6.3886  -11.1799   26.1276 C   0  0  0  0  0  0  0  0  0  0  0  0
    5.7891  -12.2830   26.6681 C   0  0  0  0  0  0  0  0  0  0  0  0
    5.8241  -13.4959   25.9851 C   0  0  0  0  0  0  0  0  0  0  0  0
    6.4573  -13.6007   24.7671 C   0  0  0  0  0  0  0  0  0  0  0  0
    8.0921  -17.6384   24.2703 C   0  0  0  0  0  0  0  0  0  0  0  0
    7.8718  -18.8907   24.2356 O   0  0  0  0  0  0  0  0  0  0  0  0
   11.5507  -14.4572   19.0620 N   0  0  0  0  0  0  0  0  0  0  0  0
   12.6891  -14.7532   19.8741 C   0  0  0  0  0  0  0  0  0  0  0  0
   13.7088  -13.9792   19.9321 N   0  0  0  0  0  0  0  0  0  0  0  0
   12.6467  -15.9550   20.6245 N   0  0  0  0  0  0  0  0  0  0  0  0
   11.6893  -17.0011   20.3413 C   0  0  0  0  0  0  0  0  0  0  0  0
   10.7551  -17.1848   21.5369 C   0  0  0  0  0  0  0  0  0  0  0  0
   11.5344  -17.4156   22.8001 C   0  0  0  0  0  0  0  0  0  0  0  0
   10.6056  -17.6058   23.9591 C   0  0  2  0  0  0  0  0  0  0  0  0
    9.2715  -17.1631   23.6194 N   0  0  0  0  0  0  0  0  0  0  0  0
   11.1014  -16.9135   25.1821 C   0  0  0  0  0  0  0  0  0  0  0  0
   12.1674  -16.2696   25.0738 O   0  0  0  0  0  0  0  0  0  0  0  0
   14.5294  -14.2919   20.5042 C   0  0  0  0  0  0  0  0  0  0  0  0
   10.5140  -14.7674   29.4351 C   0  0  2  0  0  0  0  0  0  0  0  0
   10.1337  -15.2448   28.0564 C   0  0  0  0  0  0  0  0  0  0  0  0
   10.1238  -14.1255   27.0448 C   0  0  1  0  0  0  0  0  0  0  0  0
   10.9752  -16.4190   27.5923 N   0  0  0  0  0  0  0  0  0  0  0  0
   10.3824  -16.9907   26.4090 C   0  0  0  0  0  0  0  0  0  0  0  0
   11.2201  -17.3926   28.6497 O   0  0  0  0  0  0  0  0  0  0  0  0
   12.1055  -17.2381   29.5253 O   0  0  0  0  0  0  0  0  0  0  0  0
  2  1  1  6
  3  2  1  0
  4  3  1  0
  4  5  2  0
  6  5  1  0
  7  6  1  0
  8  7  2  0
  9  8  1  0
 10  9  2  0
 10 11  1  0
 11 12  2  0
 12  7  1  0
 12  4  1  0
 13  2  1  0
 13 14  2  0
 16 17  2  0
 16 15  1  0
 18 16  1  0
 19 20  1  0
 19 18  1  0
 20 21  1  0
 22 21  1  6
 22 23  1  0
 23 13  1  0
 24 22  1  0
 24 25  2  0
 27 26  1  1
 27 28  1  0
 29 30  1  1
 29 27  1  0
 30 24  1  0
 31 29  1  0
 32 31  2  0
 33 31  1  0
M  END
$$$$
