WRV.pdb
     RDKit          3D

 33 34  0  0  1  0  0  0  0  0999 V2000
    8.7547  -17.6326   20.5784 N   0  0  0  0  0  0  0  0  0  0  0  0
    8.5033  -16.6470   21.6229 C   0  0  1  0  0  0  0  0  0  0  0  0
    7.0890  -16.1397   21.3588 C   0  0  0  0  0  0  0  0  0  0  0  0
    7.1919  -15.2496   20.1661 C   0  0  0  0  0  0  0  0  0  0  0  0
    6.9046  -15.5326   18.8320 C   0  0  0  0  0  0  0  0  0  0  0  0
    7.0960  -14.4696   18.0674 N   0  0  0  0  0  0  0  0  0  0  0  0
    7.5102  -13.4695   18.8630 C   0  0  0  0  0  0  0  0  0  0  0  0
    7.8388  -12.1787   18.5094 C   0  0  0  0  0  0  0  0  0  0  0  0
    8.2528  -11.3013   19.5031 C   0  0  0  0  0  0  0  0  0  0  0  0
    8.3299  -11.7171   20.8029 C   0  0  0  0  0  0  0  0  0  0  0  0
    7.9924  -13.0270   21.1332 C   0  0  0  0  0  0  0  0  0  0  0  0
    7.5801  -13.9140   20.1643 C   0  0  0  0  0  0  0  0  0  0  0  0
    8.6399  -17.2349   22.9924 C   0  0  0  0  0  0  0  0  0  0  0  0
    7.6113  -17.4219   23.7170 O   0  0  0  0  0  0  0  0  0  0  0  0
   13.0853  -20.8950   21.8480 N   0  0  0  0  0  0  0  0  0  0  0  0
   11.8511  -21.2567   21.2243 C   0  0  0  0  0  0  0  0  0  0  0  0
   11.6563  -21.1255   19.9645 N   0  0  0  0  0  0  0  0  0  0  0  0
   10.8344  -21.7736   22.0659 N   0  0  0  0  0  0  0  0  0  0  0  0
   10.6016  -21.2523   23.3944 C   0  0  0  0  0  0  0  0  0  0  0  0
   11.1644  -19.8353   23.4999 C   0  0  0  0  0  0  0  0  0  0  0  0
   11.0006  -19.2918   24.8906 C   0  0  0  0  0  0  0  0  0  0  0  0
   10.0733  -18.1162   24.8857 C   0  0  2  0  0  0  0  0  0  0  0  0
    9.9045  -17.6073   23.5427 N   0  0  0  0  0  0  0  0  0  0  0  0
   10.5399  -17.0423   25.8076 C   0  0  0  0  0  0  0  0  0  0  0  0
   11.5350  -16.3787   25.4440 O   0  0  0  0  0  0  0  0  0  0  0  0
   10.6906  -21.3011   19.5971 C   0  0  0  0  0  0  0  0  0  0  0  0
    9.6199  -13.5765   28.9809 C   0  0  2  0  0  0  0  0  0  0  0  0
    9.2423  -14.6885   28.0353 C   0  0  0  0  0  0  0  0  0  0  0  0
    8.7623  -14.1691   26.7025 C   0  0  1  0  0  0  0  0  0  0  0  0
   10.3441  -15.7195   27.8767 N   0  0  0  0  0  0  0  0  0  0  0  0
    9.8722  -16.7952   27.0409 C   0  0  0  0  0  0  0  0  0  0  0  0
   10.8865  -16.1688   29.1534 O   0  0  0  0  0  0  0  0  0  0  0  0
   10.5483  -17.2496   29.6939 O   0  0  0  0  0  0  0  0  0  0  0  0
  2  1  1  6
  3  2  1  0
  4  3  1  0
  4  5  2  0
  6  5  1  0
  7  6  1  0
  8  7  2  0
  9  8  1  0
 10  9  2  0
 10 11  1  0
 11 12  2  0
 12  7  1  0
 12  4  1  0
 13  2  1  0
 13 14  2  0
 16 17  2  0
 16 15  1  0
 18 16  1  0
 19 20  1  0
 19 18  1  0
 20 21  1  0
 22 21  1  6
 22 23  1  0
 23 13  1  0
 24 22  1  0
 24 25  2  0
 27 26  1  1
 27 28  1  0
 29 30  1  1
 29 27  1  0
 30 24  1  0
 31 29  1  0
 32 31  2  0
 33 31  1  0
M  END
$$$$
