WRV.pdb
     RDKit          3D

 33 34  0  0  1  0  0  0  0  0999 V2000
    5.5248  -17.4411   25.1282 N   0  0  0  0  0  0  0  0  0  0  0  0
    6.6544  -16.5589   24.8611 C   0  0  1  0  0  0  0  0  0  0  0  0
    6.8787  -15.7950   26.1625 C   0  0  0  0  0  0  0  0  0  0  0  0
    6.1852  -14.4855   25.9905 C   0  0  0  0  0  0  0  0  0  0  0  0
    5.0028  -14.0349   26.5746 C   0  0  0  0  0  0  0  0  0  0  0  0
    4.7235  -12.7989   26.1930 N   0  0  0  0  0  0  0  0  0  0  0  0
    5.6987  -12.4045   25.3574 C   0  0  0  0  0  0  0  0  0  0  0  0
    5.8272  -11.1967   24.7063 C   0  0  0  0  0  0  0  0  0  0  0  0
    6.9229  -11.0016   23.8756 C   0  0  0  0  0  0  0  0  0  0  0  0
    7.8506  -11.9921   23.7126 C   0  0  0  0  0  0  0  0  0  0  0  0
    7.6968  -13.2033   24.3820 C   0  0  0  0  0  0  0  0  0  0  0  0
    6.6181  -13.4188   25.2099 C   0  0  0  0  0  0  0  0  0  0  0  0
    7.8730  -17.3202   24.4424 C   0  0  0  0  0  0  0  0  0  0  0  0
    8.1759  -18.4143   25.0162 O   0  0  0  0  0  0  0  0  0  0  0  0
   13.4429  -14.8612   18.6408 N   0  0  0  0  0  0  0  0  0  0  0  0
   14.2336  -14.9773   19.8259 C   0  0  0  0  0  0  0  0  0  0  0  0
   15.1586  -14.1393   20.1167 N   0  0  0  0  0  0  0  0  0  0  0  0
   13.9516  -16.0724   20.6805 N   0  0  0  0  0  0  0  0  0  0  0  0
   12.7327  -16.8413   20.5628 C   0  0  0  0  0  0  0  0  0  0  0  0
   12.1735  -17.1404   21.9534 C   0  0  0  0  0  0  0  0  0  0  0  0
   10.7554  -16.6616   22.0792 C   0  0  0  0  0  0  0  0  0  0  0  0
   10.1608  -17.1249   23.3730 C   0  0  2  0  0  0  0  0  0  0  0  0
    8.7383  -16.8665   23.4003 N   0  0  0  0  0  0  0  0  0  0  0  0
   10.8380  -16.5020   24.5453 C   0  0  0  0  0  0  0  0  0  0  0  0
   11.4000  -15.4018   24.3540 O   0  0  0  0  0  0  0  0  0  0  0  0
   15.6815  -14.2787   21.0143 C   0  0  0  0  0  0  0  0  0  0  0  0
   10.6621  -15.2224   29.0463 C   0  0  2  0  0  0  0  0  0  0  0  0
   10.2241  -15.7870   27.7186 C   0  0  0  0  0  0  0  0  0  0  0  0
    9.4809  -14.7747   26.8824 C   0  0  1  0  0  0  0  0  0  0  0  0
   11.3661  -16.4258   26.9504 N   0  0  0  0  0  0  0  0  0  0  0  0
   10.8352  -17.1420   25.8174 C   0  0  0  0  0  0  0  0  0  0  0  0
   12.2342  -17.2358   27.7968 O   0  0  0  0  0  0  0  0  0  0  0  0
   12.2235  -18.4904   27.7794 O   0  0  0  0  0  0  0  0  0  0  0  0
  2  1  1  1
  3  2  1  0
  4  3  1  0
  4  5  2  0
  6  5  1  0
  7  6  1  0
  8  7  2  0
  9  8  1  0
 10  9  2  0
 10 11  1  0
 11 12  2  0
 12  7  1  0
 12  4  1  0
 13  2  1  0
 13 14  2  0
 16 17  2  0
 16 15  1  0
 18 16  1  0
 19 20  1  0
 19 18  1  0
 20 21  1  0
 22 21  1  6
 22 23  1  0
 23 13  1  0
 24 22  1  0
 24 25  2  0
 27 26  1  1
 27 28  1  0
 29 30  1  1
 29 27  1  0
 30 24  1  0
 31 29  1  0
 32 31  2  0
 33 31  1  0
M  END
$$$$
