WRV.pdb
     RDKit          3D

 33 34  0  0  1  0  0  0  0  0999 V2000
    5.4771  -17.6567   24.8233 N   0  0  0  0  0  0  0  0  0  0  0  0
    6.6481  -16.7951   24.7138 C   0  0  1  0  0  0  0  0  0  0  0  0
    6.8903  -16.2719   26.1262 C   0  0  0  0  0  0  0  0  0  0  0  0
    6.1783  -14.9632   26.2031 C   0  0  0  0  0  0  0  0  0  0  0  0
    4.9046  -14.6843   26.6953 C   0  0  0  0  0  0  0  0  0  0  0  0
    4.6362  -13.3908   26.6174 N   0  0  0  0  0  0  0  0  0  0  0  0
    5.7089  -12.7878   26.0785 C   0  0  0  0  0  0  0  0  0  0  0  0
    5.8849  -11.4496   25.8000 C   0  0  0  0  0  0  0  0  0  0  0  0
    7.0840  -11.0402   25.2314 C   0  0  0  0  0  0  0  0  0  0  0  0
    8.0647  -11.9519   24.9569 C   0  0  0  0  0  0  0  0  0  0  0  0
    7.8611  -13.2983   25.2480 C   0  0  0  0  0  0  0  0  0  0  0  0
    6.6801  -13.7266   25.8111 C   0  0  0  0  0  0  0  0  0  0  0  0
    7.8366  -17.5305   24.1784 C   0  0  0  0  0  0  0  0  0  0  0  0
    8.0840  -18.7178   24.5621 O   0  0  0  0  0  0  0  0  0  0  0  0
    8.5163  -14.9633   18.3237 N   0  0  0  0  0  0  0  0  0  0  0  0
    8.7470  -13.7615   19.0622 C   0  0  0  0  0  0  0  0  0  0  0  0
    7.9185  -12.7839   19.0557 N   0  0  0  0  0  0  0  0  0  0  0  0
    9.9469  -13.6908   19.8137 N   0  0  0  0  0  0  0  0  0  0  0  0
   10.6645  -14.8773   20.2237 C   0  0  0  0  0  0  0  0  0  0  0  0
   10.0989  -15.3925   21.5468 C   0  0  0  0  0  0  0  0  0  0  0  0
   10.7751  -16.6677   21.9626 C   0  0  0  0  0  0  0  0  0  0  0  0
   10.1571  -17.2009   23.2180 C   0  0  2  0  0  0  0  0  0  0  0  0
    8.7332  -16.9489   23.2305 N   0  0  0  0  0  0  0  0  0  0  0  0
   10.8083  -16.6387   24.4348 C   0  0  0  0  0  0  0  0  0  0  0  0
   11.8374  -15.9513   24.2583 O   0  0  0  0  0  0  0  0  0  0  0  0
    8.1981  -11.9013   19.5467 C   0  0  0  0  0  0  0  0  0  0  0  0
   10.4511  -14.8382   28.8805 C   0  0  2  0  0  0  0  0  0  0  0  0
    9.9578  -15.3110   27.5365 C   0  0  0  0  0  0  0  0  0  0  0  0
    9.5904  -14.1658   26.6255 C   0  0  1  0  0  0  0  0  0  0  0  0
   10.9177  -16.2784   26.8695 N   0  0  0  0  0  0  0  0  0  0  0  0
   10.2707  -16.8814   25.7310 C   0  0  0  0  0  0  0  0  0  0  0  0
   11.4812  -17.2487   27.8007 O   0  0  0  0  0  0  0  0  0  0  0  0
   12.2229  -16.9213   28.7584 O   0  0  0  0  0  0  0  0  0  0  0  0
  2  1  1  1
  3  2  1  0
  4  3  1  0
  4  5  2  0
  6  5  1  0
  7  6  1  0
  8  7  2  0
  9  8  1  0
 10  9  2  0
 10 11  1  0
 11 12  2  0
 12  7  1  0
 12  4  1  0
 13  2  1  0
 13 14  2  0
 16 17  2  0
 16 15  1  0
 18 16  1  0
 19 20  1  0
 19 18  1  0
 20 21  1  0
 22 21  1  6
 22 23  1  0
 23 13  1  0
 24 22  1  0
 24 25  2  0
 27 26  1  1
 27 28  1  0
 29 30  1  1
 29 27  1  0
 30 24  1  0
 31 29  1  0
 32 31  2  0
 33 31  1  0
M  END
$$$$
