MGI.pdb
     RDKit          3D

 21 20  0  0  1  0  0  0  0  0999 V2000
    1.3243  -19.1223   21.3371 C   0  0  0  0  0  0  0  0  0  0  0  0
    2.3307  -20.2428   20.3313 S   0  0  0  0  0  0  0  0  0  0  0  0
    4.0957  -19.7968   20.4357 C   0  0  0  0  0  0  0  0  0  0  0  0
    4.2616  -18.4349   21.1111 C   0  0  0  0  0  0  0  0  0  0  0  0
    5.2607  -18.6465   22.2347 C   0  0  2  0  0  0  0  0  0  0  0  0
    4.5542  -19.2837   23.3266 N   0  0  0  0  0  0  0  0  0  0  0  0
    5.8606  -17.4026   22.7170 C   0  0  0  0  0  0  0  0  0  0  0  0
    5.1241  -16.4503   23.0922 O   0  0  0  0  0  0  0  0  0  0  0  0
    7.2896  -17.2851   22.7558 N   0  0  0  0  0  0  0  0  0  0  0  0
    7.8838  -16.0089   23.0884 C   0  0  0  0  0  0  0  0  0  0  0  0
    7.4783  -15.6133   24.4501 C   0  0  0  0  0  0  0  0  0  0  0  0
    6.7033  -16.3448   25.1171 O   0  0  0  0  0  0  0  0  0  0  0  0
   10.6509  -14.7592   28.3142 C   0  0  0  0  0  0  0  0  0  0  0  0
    9.4329  -15.0399   27.4501 C   0  0  0  0  0  0  0  0  0  0  0  0
    8.6573  -13.7725   27.2326 C   0  0  2  0  0  0  0  0  0  0  0  0
    8.3216  -13.0848   28.5334 C   0  0  0  0  0  0  0  0  0  0  0  0
    7.4488  -13.9993   26.3822 C   0  0  2  0  0  0  0  0  0  0  0  0
    7.9325  -14.4195   25.0548 N   0  0  0  0  0  0  0  0  0  0  0  0
    6.7050  -12.7385   26.1606 C   0  0  0  0  0  0  0  0  0  0  0  0
    7.0069  -11.9315   25.2433 O   0  0  0  0  0  0  0  0  0  0  0  0
    5.6109  -12.3724   26.9714 O   0  0  0  0  0  0  0  0  0  0  0  0
  2  1  1  0
  3  4  1  0
  3  2  1  0
  4  5  1  0
  5  7  1  0
  5  6  1  1
  7  9  1  0
  8  7  2  0
  9 10  1  0
 10 11  1  0
 11 12  2  0
 11 18  1  0
 14 13  1  0
 15 16  1  1
 15 14  1  0
 17 15  1  0
 17 18  1  6
 19 21  1  0
 19 17  1  0
 20 19  2  0
M  END
$$$$
