MGI.pdb
     RDKit          3D

 21 20  0  0  1  0  0  0  0  0999 V2000
    8.5490  -12.1776   19.6498 C   0  0  0  0  0  0  0  0  0  0  0  0
    8.4450  -13.1284   18.1119 S   0  0  0  0  0  0  0  0  0  0  0  0
    8.3719  -14.9166   18.4606 C   0  0  0  0  0  0  0  0  0  0  0  0
    7.3088  -15.2095   19.5200 C   0  0  0  0  0  0  0  0  0  0  0  0
    7.4579  -16.6809   19.8638 C   0  0  2  0  0  0  0  0  0  0  0  0
    6.8465  -17.4390   18.7918 N   0  0  0  0  0  0  0  0  0  0  0  0
    6.8213  -17.0465   21.1290 C   0  0  0  0  0  0  0  0  0  0  0  0
    5.5673  -17.1613   21.1949 O   0  0  0  0  0  0  0  0  0  0  0  0
    7.6411  -17.2708   22.2844 N   0  0  0  0  0  0  0  0  0  0  0  0
    7.0939  -17.0128   23.5984 C   0  0  0  0  0  0  0  0  0  0  0  0
    7.9187  -16.0042   24.2894 C   0  0  0  0  0  0  0  0  0  0  0  0
    9.0326  -15.6650   23.8153 O   0  0  0  0  0  0  0  0  0  0  0  0
    5.5234  -11.9086   26.6959 C   0  0  0  0  0  0  0  0  0  0  0  0
    6.4826  -12.8054   25.9313 C   0  0  0  0  0  0  0  0  0  0  0  0
    7.4478  -13.4510   26.8834 C   0  0  2  0  0  0  0  0  0  0  0  0
    8.2033  -12.4315   27.7004 C   0  0  0  0  0  0  0  0  0  0  0  0
    8.3601  -14.4084   26.1861 C   0  0  2  0  0  0  0  0  0  0  0  0
    7.5038  -15.3858   25.4906 N   0  0  0  0  0  0  0  0  0  0  0  0
    9.1597  -15.1902   27.1564 C   0  0  0  0  0  0  0  0  0  0  0  0
   10.3580  -14.9108   27.4207 O   0  0  0  0  0  0  0  0  0  0  0  0
    8.6172  -16.2973   27.8408 O   0  0  0  0  0  0  0  0  0  0  0  0
  2  1  1  0
  3  4  1  0
  3  2  1  0
  4  5  1  0
  5  7  1  0
  5  6  1  6
  7  9  1  0
  8  7  2  0
  9 10  1  0
 10 11  1  0
 11 12  2  0
 11 18  1  0
 14 13  1  0
 15 16  1  6
 15 14  1  0
 17 15  1  0
 17 18  1  1
 19 21  1  0
 19 17  1  0
 20 19  2  0
M  END
$$$$
