MGI.pdb
     RDKit          3D

 21 20  0  0  1  0  0  0  0  0999 V2000
    8.8038  -12.3579   19.9527 C   0  0  0  0  0  0  0  0  0  0  0  0
    8.0488  -13.7591   19.0887 S   0  0  0  0  0  0  0  0  0  0  0  0
    6.9932  -14.7240   20.2200 C   0  0  0  0  0  0  0  0  0  0  0  0
    6.2857  -15.8468   19.4603 C   0  0  0  0  0  0  0  0  0  0  0  0
    6.6311  -17.1292   20.1963 C   0  0  2  0  0  0  0  0  0  0  0  0
    6.0603  -18.2266   19.4429 N   0  0  0  0  0  0  0  0  0  0  0  0
    6.1120  -17.1691   21.5633 C   0  0  0  0  0  0  0  0  0  0  0  0
    4.8936  -16.9301   21.7833 O   0  0  0  0  0  0  0  0  0  0  0  0
    7.0052  -17.4824   22.6410 N   0  0  0  0  0  0  0  0  0  0  0  0
    6.6398  -17.1116   23.9906 C   0  0  0  0  0  0  0  0  0  0  0  0
    7.6616  -16.2071   24.5499 C   0  0  0  0  0  0  0  0  0  0  0  0
    8.6892  -15.9241   23.8832 O   0  0  0  0  0  0  0  0  0  0  0  0
    5.8124  -11.9938   26.9872 C   0  0  0  0  0  0  0  0  0  0  0  0
    6.6536  -12.9650   26.1759 C   0  0  0  0  0  0  0  0  0  0  0  0
    7.7045  -13.5856   27.0508 C   0  0  2  0  0  0  0  0  0  0  0  0
    8.5847  -12.5464   27.7011 C   0  0  0  0  0  0  0  0  0  0  0  0
    8.4956  -14.6222   26.3195 C   0  0  2  0  0  0  0  0  0  0  0  0
    7.5352  -15.6291   25.8333 N   0  0  0  0  0  0  0  0  0  0  0  0
    9.4090  -15.3437   27.2344 C   0  0  0  0  0  0  0  0  0  0  0  0
   10.5892  -14.9614   27.4463 O   0  0  0  0  0  0  0  0  0  0  0  0
    9.0022  -16.5057   27.9218 O   0  0  0  0  0  0  0  0  0  0  0  0
  2  1  1  0
  3  4  1  0
  3  2  1  0
  4  5  1  0
  5  7  1  0
  5  6  1  6
  7  9  1  0
  8  7  2  0
  9 10  1  0
 10 11  1  0
 11 12  2  0
 11 18  1  0
 14 13  1  0
 15 16  1  6
 15 14  1  0
 17 15  1  0
 17 18  1  1
 19 21  1  0
 19 17  1  0
 20 19  2  0
M  END
$$$$
