MGI.pdb
     RDKit          3D

 21 20  0  0  1  0  0  0  0  0999 V2000
   11.0518  -14.3573   28.9662 C   0  0  0  0  0  0  0  0  0  0  0  0
    9.7133  -15.4002   28.3331 S   0  0  0  0  0  0  0  0  0  0  0  0
    9.7568  -17.0500   29.1084 C   0  0  0  0  0  0  0  0  0  0  0  0
    8.3684  -17.6901   29.0765 C   0  0  0  0  0  0  0  0  0  0  0  0
    8.4529  -18.8173   28.0628 C   0  0  2  0  0  0  0  0  0  0  0  0
    9.7515  -18.7303   27.4275 N   0  0  0  0  0  0  0  0  0  0  0  0
    7.4143  -18.7497   27.0348 C   0  0  0  0  0  0  0  0  0  0  0  0
    6.2090  -18.5815   27.3651 O   0  0  0  0  0  0  0  0  0  0  0  0
    7.7870  -18.8768   25.6557 N   0  0  0  0  0  0  0  0  0  0  0  0
    6.7764  -18.7127   24.6337 C   0  0  0  0  0  0  0  0  0  0  0  0
    6.7784  -17.3180   24.1542 C   0  0  0  0  0  0  0  0  0  0  0  0
    6.1523  -17.0073   23.1092 O   0  0  0  0  0  0  0  0  0  0  0  0
    6.7934  -12.2268   26.4903 C   0  0  0  0  0  0  0  0  0  0  0  0
    7.6263  -13.3939   25.9870 C   0  0  0  0  0  0  0  0  0  0  0  0
    7.0217  -13.9488   24.7294 C   0  0  2  0  0  0  0  0  0  0  0  0
    5.5861  -14.3689   24.9299 C   0  0  0  0  0  0  0  0  0  0  0  0
    7.8572  -15.0432   24.1469 C   0  0  2  0  0  0  0  0  0  0  0  0
    7.4693  -16.2888   24.8328 N   0  0  0  0  0  0  0  0  0  0  0  0
    9.2918  -14.8431   24.4531 C   0  0  0  0  0  0  0  0  0  0  0  0
    9.8625  -15.4250   25.4121 O   0  0  0  0  0  0  0  0  0  0  0  0
   10.1007  -13.9840   23.6811 O   0  0  0  0  0  0  0  0  0  0  0  0
  2  1  1  0
  3  4  1  0
  3  2  1  0
  4  5  1  0
  5  7  1  0
  5  6  1  6
  7  9  1  0
  8  7  2  0
  9 10  1  0
 10 11  1  0
 11 12  2  0
 11 18  1  0
 14 13  1  0
 15 16  1  1
 15 14  1  0
 17 15  1  0
 17 18  1  1
 19 21  1  0
 19 17  1  0
 20 19  2  0
M  END
$$$$
