MGI.pdb
     RDKit          3D

 21 20  0  0  1  0  0  0  0  0999 V2000
    9.4424  -12.0545   19.5326 C   0  0  0  0  0  0  0  0  0  0  0  0
    7.6572  -12.2404   19.2906 S   0  0  0  0  0  0  0  0  0  0  0  0
    7.1209  -13.9329   19.7060 C   0  0  0  0  0  0  0  0  0  0  0  0
    8.3196  -14.7820   20.1311 C   0  0  0  0  0  0  0  0  0  0  0  0
    7.7623  -16.1571   20.4533 C   0  0  2  0  0  0  0  0  0  0  0  0
    6.4446  -15.9664   21.0235 N   0  0  0  0  0  0  0  0  0  0  0  0
    8.5868  -16.9080   21.3999 C   0  0  0  0  0  0  0  0  0  0  0  0
    8.8191  -18.1316   21.2027 O   0  0  0  0  0  0  0  0  0  0  0  0
    9.1225  -16.2343   22.5473 N   0  0  0  0  0  0  0  0  0  0  0  0
    9.3072  -16.9735   23.7770 C   0  0  0  0  0  0  0  0  0  0  0  0
    9.8105  -16.0694   24.8278 C   0  0  0  0  0  0  0  0  0  0  0  0
   10.8802  -15.4317   24.6549 O   0  0  0  0  0  0  0  0  0  0  0  0
    6.5888  -12.6366   26.4382 C   0  0  0  0  0  0  0  0  0  0  0  0
    7.8326  -13.4391   26.0945 C   0  0  0  0  0  0  0  0  0  0  0  0
    8.4399  -14.0024   27.3471 C   0  0  2  0  0  0  0  0  0  0  0  0
    8.7967  -12.9215   28.3381 C   0  0  0  0  0  0  0  0  0  0  0  0
    9.5956  -14.9025   27.0484 C   0  0  2  0  0  0  0  0  0  0  0  0
    9.1283  -15.8822   26.0512 N   0  0  0  0  0  0  0  0  0  0  0  0
    9.9822  -15.6919   28.2398 C   0  0  0  0  0  0  0  0  0  0  0  0
   10.7522  -15.2388   29.1262 O   0  0  0  0  0  0  0  0  0  0  0  0
    9.5047  -17.0025   28.4462 O   0  0  0  0  0  0  0  0  0  0  0  0
  2  1  1  0
  3  4  1  0
  3  2  1  0
  4  5  1  0
  5  7  1  0
  5  6  1  1
  7  9  1  0
  8  7  2  0
  9 10  1  0
 10 11  1  0
 11 12  2  0
 11 18  1  0
 14 13  1  0
 15 16  1  1
 15 14  1  0
 17 15  1  0
 17 18  1  6
 19 21  1  0
 19 17  1  0
 20 19  2  0
M  END
$$$$
