MGI.pdb
     RDKit          3D

 21 20  0  0  1  0  0  0  0  0999 V2000
    9.0679  -11.4475   19.6383 C   0  0  0  0  0  0  0  0  0  0  0  0
    8.1256  -12.8088   20.3723 S   0  0  0  0  0  0  0  0  0  0  0  0
    7.2470  -13.7553   19.0850 C   0  0  0  0  0  0  0  0  0  0  0  0
    6.3489  -14.8157   19.7235 C   0  0  0  0  0  0  0  0  0  0  0  0
    7.2797  -15.9145   20.2047 C   0  0  2  0  0  0  0  0  0  0  0  0
    7.1046  -17.0473   19.3194 N   0  0  0  0  0  0  0  0  0  0  0  0
    7.0122  -16.3383   21.5790 C   0  0  0  0  0  0  0  0  0  0  0  0
    5.8238  -16.4475   21.9861 O   0  0  0  0  0  0  0  0  0  0  0  0
    8.1158  -16.6254   22.4489 N   0  0  0  0  0  0  0  0  0  0  0  0
    7.8593  -16.9090   23.8441 C   0  0  0  0  0  0  0  0  0  0  0  0
    8.7320  -16.0721   24.6885 C   0  0  0  0  0  0  0  0  0  0  0  0
    9.9472  -15.9317   24.3985 O   0  0  0  0  0  0  0  0  0  0  0  0
    6.7560  -11.7316   27.0471 C   0  0  0  0  0  0  0  0  0  0  0  0
    7.6510  -12.7439   26.3519 C   0  0  0  0  0  0  0  0  0  0  0  0
    8.3635  -13.5828   27.3735 C   0  0  2  0  0  0  0  0  0  0  0  0
    9.1884  -12.7436   28.3184 C   0  0  0  0  0  0  0  0  0  0  0  0
    9.1640  -14.6732   26.7367 C   0  0  2  0  0  0  0  0  0  0  0  0
    8.2527  -15.4039   25.8379 N   0  0  0  0  0  0  0  0  0  0  0  0
    9.6186  -15.6611   27.7414 C   0  0  0  0  0  0  0  0  0  0  0  0
    8.8610  -16.5591   28.1926 O   0  0  0  0  0  0  0  0  0  0  0  0
   10.9338  -15.6482   28.2497 O   0  0  0  0  0  0  0  0  0  0  0  0
  2  1  1  0
  3  4  1  0
  3  2  1  0
  4  5  1  0
  5  7  1  0
  5  6  1  6
  7  9  1  0
  8  7  2  0
  9 10  1  0
 10 11  1  0
 11 12  2  0
 11 18  1  0
 14 13  1  0
 15 16  1  6
 15 14  1  0
 17 15  1  0
 17 18  1  6
 19 21  1  0
 19 17  1  0
 20 19  2  0
M  END
$$$$
