MGI.pdb
     RDKit          3D

 21 20  0  0  1  0  0  0  0  0999 V2000
    7.0858  -12.4114   19.6747 C   0  0  0  0  0  0  0  0  0  0  0  0
    8.3295  -12.9655   18.4805 S   0  0  0  0  0  0  0  0  0  0  0  0
    7.9961  -14.6768   17.9463 C   0  0  0  0  0  0  0  0  0  0  0  0
    7.0027  -15.3471   18.8962 C   0  0  0  0  0  0  0  0  0  0  0  0
    7.7271  -16.5492   19.4755 C   0  0  2  0  0  0  0  0  0  0  0  0
    7.5204  -17.6574   18.5662 N   0  0  0  0  0  0  0  0  0  0  0  0
    7.2478  -16.9279   20.8047 C   0  0  0  0  0  0  0  0  0  0  0  0
    6.1804  -17.5881   20.9266 O   0  0  0  0  0  0  0  0  0  0  0  0
    8.0065  -16.5387   21.9580 N   0  0  0  0  0  0  0  0  0  0  0  0
    7.3308  -16.3844   23.2277 C   0  0  0  0  0  0  0  0  0  0  0  0
    8.2798  -15.8756   24.2355 C   0  0  0  0  0  0  0  0  0  0  0  0
    9.5097  -15.8278   23.9791 O   0  0  0  0  0  0  0  0  0  0  0  0
    6.3716  -11.7909   26.7860 C   0  0  0  0  0  0  0  0  0  0  0  0
    7.1850  -12.8580   26.0728 C   0  0  0  0  0  0  0  0  0  0  0  0
    8.0000  -13.6309   27.0696 C   0  0  2  0  0  0  0  0  0  0  0  0
    8.8690  -12.7282   27.9107 C   0  0  0  0  0  0  0  0  0  0  0  0
    8.7823  -14.7259   26.4183 C   0  0  2  0  0  0  0  0  0  0  0  0
    7.8595  -15.4280   25.5083 N   0  0  0  0  0  0  0  0  0  0  0  0
    9.2185  -15.7356   27.4093 C   0  0  0  0  0  0  0  0  0  0  0  0
    8.4621  -16.6602   27.8053 O   0  0  0  0  0  0  0  0  0  0  0  0
   10.5138  -15.7147   27.9661 O   0  0  0  0  0  0  0  0  0  0  0  0
  2  1  1  0
  3  4  1  0
  3  2  1  0
  4  5  1  0
  5  7  1  0
  5  6  1  6
  7  9  1  0
  8  7  2  0
  9 10  1  0
 10 11  1  0
 11 12  2  0
 11 18  1  0
 14 13  1  0
 15 16  1  6
 15 14  1  0
 17 15  1  0
 17 18  1  6
 19 21  1  0
 19 17  1  0
 20 19  2  0
M  END
$$$$
