MGI.pdb
     RDKit          3D

 21 20  0  0  1  0  0  0  0  0999 V2000
    6.2407  -21.4607   28.4171 C   0  0  0  0  0  0  0  0  0  0  0  0
    6.7777  -20.4521   27.0120 S   0  0  0  0  0  0  0  0  0  0  0  0
    6.6154  -21.3797   25.4505 C   0  0  0  0  0  0  0  0  0  0  0  0
    7.2436  -20.5955   24.2977 C   0  0  0  0  0  0  0  0  0  0  0  0
    6.7114  -19.1787   24.4192 C   0  0  2  0  0  0  0  0  0  0  0  0
    5.3561  -19.1811   23.9084 N   0  0  0  0  0  0  0  0  0  0  0  0
    7.5001  -18.1987   23.6727 C   0  0  0  0  0  0  0  0  0  0  0  0
    8.7586  -18.2098   23.7505 O   0  0  0  0  0  0  0  0  0  0  0  0
    6.8231  -17.2325   22.8570 N   0  0  0  0  0  0  0  0  0  0  0  0
    7.5991  -16.2310   22.1587 C   0  0  0  0  0  0  0  0  0  0  0  0
    8.1940  -15.2971   23.1327 C   0  0  0  0  0  0  0  0  0  0  0  0
    9.0685  -14.4718   22.7653 O   0  0  0  0  0  0  0  0  0  0  0  0
    5.0634  -12.6403   26.1544 C   0  0  0  0  0  0  0  0  0  0  0  0
    6.2526  -13.1063   25.3313 C   0  0  0  0  0  0  0  0  0  0  0  0
    7.2779  -13.7396   26.2274 C   0  0  2  0  0  0  0  0  0  0  0  0
    7.7557  -12.7904   27.2990 C   0  0  0  0  0  0  0  0  0  0  0  0
    8.4083  -14.3308   25.4477 C   0  0  2  0  0  0  0  0  0  0  0  0
    7.8167  -15.2868   24.4946 N   0  0  0  0  0  0  0  0  0  0  0  0
    9.3007  -15.1287   26.3189 C   0  0  0  0  0  0  0  0  0  0  0  0
    9.0263  -16.3075   26.6637 O   0  0  0  0  0  0  0  0  0  0  0  0
   10.5143  -14.6065   26.8118 O   0  0  0  0  0  0  0  0  0  0  0  0
  2  1  1  0
  3  4  1  0
  3  2  1  0
  4  5  1  0
  5  7  1  0
  5  6  1  6
  7  9  1  0
  8  7  2  0
  9 10  1  0
 10 11  1  0
 11 12  2  0
 11 18  1  0
 14 13  1  0
 15 16  1  1
 15 14  1  0
 17 15  1  0
 17 18  1  6
 19 21  1  0
 19 17  1  0
 20 19  2  0
M  END
$$$$
