MGI.pdb
     RDKit          3D

 21 20  0  0  1  0  0  0  0  0999 V2000
    9.6575  -12.2632   19.2429 C   0  0  0  0  0  0  0  0  0  0  0  0
    8.4227  -12.4264   17.9282 S   0  0  0  0  0  0  0  0  0  0  0  0
    7.9805  -14.1764   17.6697 C   0  0  0  0  0  0  0  0  0  0  0  0
    7.3579  -14.7613   18.9381 C   0  0  0  0  0  0  0  0  0  0  0  0
    8.5194  -15.2547   19.7825 C   0  0  2  0  0  0  0  0  0  0  0  0
    9.0153  -16.4686   19.1675 N   0  0  0  0  0  0  0  0  0  0  0  0
    8.1467  -15.5405   21.1678 C   0  0  0  0  0  0  0  0  0  0  0  0
    7.7063  -14.6183   21.9063 O   0  0  0  0  0  0  0  0  0  0  0  0
    8.2896  -16.8771   21.6682 N   0  0  0  0  0  0  0  0  0  0  0  0
    7.8116  -17.1876   22.9977 C   0  0  0  0  0  0  0  0  0  0  0  0
    8.4158  -16.2589   23.9710 C   0  0  0  0  0  0  0  0  0  0  0  0
    9.6529  -16.0359   23.9491 O   0  0  0  0  0  0  0  0  0  0  0  0
    6.4802  -11.3941   27.0836 C   0  0  0  0  0  0  0  0  0  0  0  0
    7.5637  -12.4560   26.9978 C   0  0  0  0  0  0  0  0  0  0  0  0
    7.1030  -13.5870   26.1239 C   0  0  2  0  0  0  0  0  0  0  0  0
    5.9241  -14.3174   26.7192 C   0  0  0  0  0  0  0  0  0  0  0  0
    8.2247  -14.5109   25.7730 C   0  0  2  0  0  0  0  0  0  0  0  0
    7.6485  -15.5910   24.9521 N   0  0  0  0  0  0  0  0  0  0  0  0
    8.7739  -15.1698   26.9798 C   0  0  0  0  0  0  0  0  0  0  0  0
    9.5115  -14.5642   27.8002 O   0  0  0  0  0  0  0  0  0  0  0  0
    8.4977  -16.5204   27.2761 O   0  0  0  0  0  0  0  0  0  0  0  0
  2  1  1  0
  3  4  1  0
  3  2  1  0
  4  5  1  0
  5  7  1  0
  5  6  1  6
  7  9  1  0
  8  7  2  0
  9 10  1  0
 10 11  1  0
 11 12  2  0
 11 18  1  0
 14 13  1  0
 15 16  1  1
 15 14  1  0
 17 15  1  0
 17 18  1  6
 19 21  1  0
 19 17  1  0
 20 19  2  0
M  END
$$$$
