MGI.pdb
     RDKit          3D

 21 20  0  0  1  0  0  0  0  0999 V2000
    6.3846  -13.2886   25.7065 C   0  0  0  0  0  0  0  0  0  0  0  0
    6.9967  -14.1692   24.2472 S   0  0  0  0  0  0  0  0  0  0  0  0
    6.7124  -15.9632   24.4077 C   0  0  0  0  0  0  0  0  0  0  0  0
    6.4233  -16.5810   23.0390 C   0  0  0  0  0  0  0  0  0  0  0  0
    7.4623  -17.6713   22.8467 C   0  0  2  0  0  0  0  0  0  0  0  0
    7.3704  -18.5613   23.9856 N   0  0  0  0  0  0  0  0  0  0  0  0
    8.8288  -17.1579   22.7525 C   0  0  0  0  0  0  0  0  0  0  0  0
    9.1887  -16.5031   21.7367 O   0  0  0  0  0  0  0  0  0  0  0  0
    9.7453  -17.4097   23.8266 N   0  0  0  0  0  0  0  0  0  0  0  0
   11.1062  -16.9310   23.7198 C   0  0  0  0  0  0  0  0  0  0  0  0
   11.5065  -16.2889   24.9857 C   0  0  0  0  0  0  0  0  0  0  0  0
   12.7082  -15.9776   25.1850 O   0  0  0  0  0  0  0  0  0  0  0  0
    7.9214  -13.3928   28.1565 C   0  0  0  0  0  0  0  0  0  0  0  0
    8.7174  -14.6167   27.7352 C   0  0  0  0  0  0  0  0  0  0  0  0
   10.1676  -14.2566   27.5852 C   0  0  2  0  0  0  0  0  0  0  0  0
   10.3763  -13.1642   26.5650 C   0  0  0  0  0  0  0  0  0  0  0  0
   11.0132  -15.4586   27.3108 C   0  0  2  0  0  0  0  0  0  0  0  0
   10.5777  -16.0003   26.0110 N   0  0  0  0  0  0  0  0  0  0  0  0
   10.7592  -16.5300   28.3005 C   0  0  0  0  0  0  0  0  0  0  0  0
   10.1556  -17.5930   28.0013 O   0  0  0  0  0  0  0  0  0  0  0  0
   11.1832  -16.4154   29.6405 O   0  0  0  0  0  0  0  0  0  0  0  0
  2  1  1  0
  3  4  1  0
  3  2  1  0
  4  5  1  0
  5  7  1  0
  5  6  1  1
  7  9  1  0
  8  7  2  0
  9 10  1  0
 10 11  1  0
 11 12  2  0
 11 18  1  0
 14 13  1  0
 15 16  1  6
 15 14  1  0
 17 15  1  0
 17 18  1  6
 19 21  1  0
 19 17  1  0
 20 19  2  0
M  END
$$$$
