MGI.pdb
     RDKit          3D

 21 20  0  0  1  0  0  0  0  0999 V2000
    6.2288  -11.8475   25.9153 C   0  0  0  0  0  0  0  0  0  0  0  0
    5.4707  -13.3123   26.6634 S   0  0  0  0  0  0  0  0  0  0  0  0
    5.5629  -14.7382   25.5306 C   0  0  0  0  0  0  0  0  0  0  0  0
    6.7357  -14.5745   24.5630 C   0  0  0  0  0  0  0  0  0  0  0  0
    6.8886  -15.9137   23.8639 C   0  0  2  0  0  0  0  0  0  0  0  0
    5.9952  -16.8470   24.5185 N   0  0  0  0  0  0  0  0  0  0  0  0
    8.2517  -16.4417   23.9176 C   0  0  0  0  0  0  0  0  0  0  0  0
    8.4663  -17.5882   24.3966 O   0  0  0  0  0  0  0  0  0  0  0  0
    9.3317  -15.6397   23.4199 N   0  0  0  0  0  0  0  0  0  0  0  0
   10.6459  -16.2296   23.2881 C   0  0  0  0  0  0  0  0  0  0  0  0
   11.2841  -16.3194   24.6146 C   0  0  0  0  0  0  0  0  0  0  0  0
   12.4531  -16.7687   24.7253 O   0  0  0  0  0  0  0  0  0  0  0  0
    9.9795  -12.5668   28.2100 C   0  0  0  0  0  0  0  0  0  0  0  0
   10.8466  -13.5484   27.4396 C   0  0  0  0  0  0  0  0  0  0  0  0
   10.6438  -14.9375   27.9729 C   0  0  2  0  0  0  0  0  0  0  0  0
   11.0622  -15.0549   29.4182 C   0  0  0  0  0  0  0  0  0  0  0  0
   11.2979  -15.9662   27.1074 C   0  0  2  0  0  0  0  0  0  0  0  0
   10.6252  -15.9131   25.7970 N   0  0  0  0  0  0  0  0  0  0  0  0
   11.0626  -17.3323   27.6273 C   0  0  0  0  0  0  0  0  0  0  0  0
   11.8290  -17.8745   28.4654 O   0  0  0  0  0  0  0  0  0  0  0  0
    9.9592  -18.1039   27.2082 O   0  0  0  0  0  0  0  0  0  0  0  0
  2  1  1  0
  3  4  1  0
  3  2  1  0
  4  5  1  0
  5  7  1  0
  5  6  1  1
  7  9  1  0
  8  7  2  0
  9 10  1  0
 10 11  1  0
 11 12  2  0
 11 18  1  0
 14 13  1  0
 15 16  1  1
 15 14  1  0
 17 15  1  0
 17 18  1  6
 19 21  1  0
 19 17  1  0
 20 19  2  0
M  END
$$$$
