MGI.pdb
     RDKit          3D

 21 20  0  0  1  0  0  0  0  0999 V2000
    9.3185  -12.6380   20.1570 C   0  0  0  0  0  0  0  0  0  0  0  0
    7.5958  -12.6571   20.7154 S   0  0  0  0  0  0  0  0  0  0  0  0
    7.1477  -14.2970   21.3747 C   0  0  0  0  0  0  0  0  0  0  0  0
    7.5998  -15.3984   20.4151 C   0  0  0  0  0  0  0  0  0  0  0  0
    7.0981  -16.7016   21.0110 C   0  0  2  0  0  0  0  0  0  0  0  0
    5.6603  -16.5899   21.1452 N   0  0  0  0  0  0  0  0  0  0  0  0
    7.6769  -16.9991   22.3211 C   0  0  0  0  0  0  0  0  0  0  0  0
    6.9438  -17.4299   23.2522 O   0  0  0  0  0  0  0  0  0  0  0  0
    9.0815  -16.7944   22.5271 N   0  0  0  0  0  0  0  0  0  0  0  0
    9.6982  -17.2979   23.7348 C   0  0  0  0  0  0  0  0  0  0  0  0
   10.0533  -16.1707   24.6170 C   0  0  0  0  0  0  0  0  0  0  0  0
   11.1699  -15.6046   24.5021 O   0  0  0  0  0  0  0  0  0  0  0  0
    6.1470  -13.0181   26.5032 C   0  0  0  0  0  0  0  0  0  0  0  0
    7.4521  -13.5611   25.9455 C   0  0  0  0  0  0  0  0  0  0  0  0
    8.3502  -13.9887   27.0704 C   0  0  2  0  0  0  0  0  0  0  0  0
    8.6456  -12.8539   28.0206 C   0  0  0  0  0  0  0  0  0  0  0  0
    9.5951  -14.6471   26.5683 C   0  0  2  0  0  0  0  0  0  0  0  0
    9.1735  -15.6853   25.6109 N   0  0  0  0  0  0  0  0  0  0  0  0
   10.2992  -15.3628   27.6564 C   0  0  0  0  0  0  0  0  0  0  0  0
   11.2146  -14.8257   28.3328 O   0  0  0  0  0  0  0  0  0  0  0  0
    9.9792  -16.6937   27.9951 O   0  0  0  0  0  0  0  0  0  0  0  0
  2  1  1  0
  3  4  1  0
  3  2  1  0
  4  5  1  0
  5  7  1  0
  5  6  1  1
  7  9  1  0
  8  7  2  0
  9 10  1  0
 10 11  1  0
 11 12  2  0
 11 18  1  0
 14 13  1  0
 15 16  1  6
 15 14  1  0
 17 15  1  0
 17 18  1  6
 19 21  1  0
 19 17  1  0
 20 19  2  0
M  END
$$$$
