MGI.pdb
     RDKit          3D

 21 20  0  0  1  0  0  0  0  0999 V2000
    8.4398  -11.5267   19.9929 C   0  0  0  0  0  0  0  0  0  0  0  0
    8.7056  -12.5199   18.5020 S   0  0  0  0  0  0  0  0  0  0  0  0
    9.2628  -14.2011   18.9354 C   0  0  0  0  0  0  0  0  0  0  0  0
    8.3335  -14.8167   19.9822 C   0  0  0  0  0  0  0  0  0  0  0  0
    8.9217  -16.1770   20.3125 C   0  0  2  0  0  0  0  0  0  0  0  0
    9.0887  -16.8902   19.0630 N   0  0  0  0  0  0  0  0  0  0  0  0
    8.0773  -16.9710   21.2049 C   0  0  0  0  0  0  0  0  0  0  0  0
    7.4976  -18.0038   20.7724 O   0  0  0  0  0  0  0  0  0  0  0  0
    7.9211  -16.5581   22.5696 N   0  0  0  0  0  0  0  0  0  0  0  0
    6.6020  -16.2205   23.0579 C   0  0  0  0  0  0  0  0  0  0  0  0
    6.6633  -15.9539   24.5071 C   0  0  0  0  0  0  0  0  0  0  0  0
    5.6263  -15.6174   25.1331 O   0  0  0  0  0  0  0  0  0  0  0  0
    5.4984  -12.7597   26.8533 C   0  0  0  0  0  0  0  0  0  0  0  0
    6.4159  -13.5394   25.9264 C   0  0  0  0  0  0  0  0  0  0  0  0
    7.4797  -14.2349   26.7263 C   0  0  2  0  0  0  0  0  0  0  0  0
    8.1005  -13.3222   27.7555 C   0  0  0  0  0  0  0  0  0  0  0  0
    8.5036  -14.8793   25.8479 C   0  0  2  0  0  0  0  0  0  0  0  0
    7.8650  -16.0620   25.2431 N   0  0  0  0  0  0  0  0  0  0  0  0
    9.6417  -15.3961   26.6414 C   0  0  0  0  0  0  0  0  0  0  0  0
   10.5176  -14.6383   27.1339 O   0  0  0  0  0  0  0  0  0  0  0  0
    9.8058  -16.7744   26.8893 O   0  0  0  0  0  0  0  0  0  0  0  0
  2  1  1  0
  3  4  1  0
  3  2  1  0
  4  5  1  0
  5  7  1  0
  5  6  1  6
  7  9  1  0
  8  7  2  0
  9 10  1  0
 10 11  1  0
 11 12  2  0
 11 18  1  0
 14 13  1  0
 15 16  1  1
 15 14  1  0
 17 15  1  0
 17 18  1  1
 19 21  1  0
 19 17  1  0
 20 19  2  0
M  END
$$$$
