MGI.pdb
     RDKit          3D

 21 20  0  0  1  0  0  0  0  0999 V2000
    7.8563  -12.1722   19.5196 C   0  0  0  0  0  0  0  0  0  0  0  0
    7.9516  -13.2899   18.0977 S   0  0  0  0  0  0  0  0  0  0  0  0
    7.9136  -15.0305   18.6395 C   0  0  0  0  0  0  0  0  0  0  0  0
    7.1611  -15.1594   19.9645 C   0  0  0  0  0  0  0  0  0  0  0  0
    7.1801  -16.6373   20.3119 C   0  0  2  0  0  0  0  0  0  0  0  0
    6.3685  -17.3229   19.3275 N   0  0  0  0  0  0  0  0  0  0  0  0
    6.6541  -16.9245   21.6463 C   0  0  0  0  0  0  0  0  0  0  0  0
    5.4087  -16.9839   21.8348 O   0  0  0  0  0  0  0  0  0  0  0  0
    7.5716  -17.1359   22.7283 N   0  0  0  0  0  0  0  0  0  0  0  0
    7.1197  -16.9297   24.0870 C   0  0  0  0  0  0  0  0  0  0  0  0
    8.1659  -16.2309   24.8565 C   0  0  0  0  0  0  0  0  0  0  0  0
    9.3266  -16.1164   24.3872 O   0  0  0  0  0  0  0  0  0  0  0  0
    6.5678  -11.8863   27.2108 C   0  0  0  0  0  0  0  0  0  0  0  0
    7.3334  -12.9856   26.4937 C   0  0  0  0  0  0  0  0  0  0  0  0
    8.2091  -13.7186   27.4689 C   0  0  2  0  0  0  0  0  0  0  0  0
    9.1444  -12.7867   28.2000 C   0  0  0  0  0  0  0  0  0  0  0  0
    8.9325  -14.8553   26.8209 C   0  0  2  0  0  0  0  0  0  0  0  0
    7.9171  -15.6699   26.1296 N   0  0  0  0  0  0  0  0  0  0  0  0
    9.5456  -15.7464   27.8318 C   0  0  0  0  0  0  0  0  0  0  0  0
    8.8783  -16.6054   28.4647 O   0  0  0  0  0  0  0  0  0  0  0  0
   10.9197  -15.6794   28.1414 O   0  0  0  0  0  0  0  0  0  0  0  0
  2  1  1  0
  3  4  1  0
  3  2  1  0
  4  5  1  0
  5  7  1  0
  5  6  1  6
  7  9  1  0
  8  7  2  0
  9 10  1  0
 10 11  1  0
 11 12  2  0
 11 18  1  0
 14 13  1  0
 15 16  1  6
 15 14  1  0
 17 15  1  0
 17 18  1  1
 19 21  1  0
 19 17  1  0
 20 19  2  0
M  END
$$$$
