NLQ.pdb
     RDKit          3D

 26 25  0  0  1  0  0  0  0  0999 V2000
    8.7996  -17.8131   18.5126 N   0  0  0  0  0  0  0  0  0  0  0  0
    7.7211  -17.1431   19.1438 C   0  0  0  0  0  0  0  0  0  0  0  0
    6.5546  -17.5450   18.8621 O   0  0  0  0  0  0  0  0  0  0  0  0
    8.0173  -16.0455   20.0676 C   0  0  0  0  0  0  0  0  0  0  0  0
    8.3502  -16.5203   21.4631 C   0  0  2  0  0  0  0  0  0  0  0  0
    7.3371  -17.3940   22.0043 N   0  0  0  0  0  0  0  0  0  0  0  0
    8.5645  -15.3894   22.3958 C   0  0  0  0  0  0  0  0  0  0  0  0
    9.4852  -14.5331   22.1580 O   0  0  0  0  0  0  0  0  0  0  0  0
    5.7637  -12.4223   26.9727 C   0  0  0  0  0  0  0  0  0  0  0  0
    6.4292  -12.4241   25.6340 C   0  0  1  0  0  0  0  0  0  0  0  0
    7.5956  -11.4320   25.6102 C   0  0  0  0  0  0  0  0  0  0  0  0
    6.7665  -13.7115   25.0268 C   0  0  0  0  0  0  0  0  0  0  0  0
    8.1032  -14.0230   24.4915 C   0  0  2  0  0  0  0  0  0  0  0  0
    7.8170  -15.1728   23.5549 N   0  0  0  0  0  0  0  0  0  0  0  0
    9.0254  -14.6037   25.4737 C   0  0  0  0  0  0  0  0  0  0  0  0
    8.9620  -14.2709   26.7190 O   0  0  0  0  0  0  0  0  0  0  0  0
    7.0368  -20.0484   26.8711 N   0  0  0  0  0  0  0  0  0  0  0  0
    7.8111  -19.1896   27.6708 C   0  0  0  0  0  0  0  0  0  0  0  0
    7.3994  -18.8874   28.8136 O   0  0  0  0  0  0  0  0  0  0  0  0
    9.0765  -18.6583   27.1785 C   0  0  0  0  0  0  0  0  0  0  0  0
    9.0140  -17.5430   26.2066 C   0  0  0  0  0  0  0  0  0  0  0  0
   10.2773  -16.7096   26.0940 C   0  0  2  0  0  0  0  0  0  0  0  0
   10.0503  -15.5676   25.2079 N   0  0  0  0  0  0  0  0  0  0  0  0
   11.3324  -17.6239   25.6253 C   0  0  0  0  0  0  0  0  0  0  0  0
   12.1086  -18.1490   26.4967 O   0  0  0  0  0  0  0  0  0  0  0  0
   11.5889  -17.9916   24.3235 O   0  0  0  0  0  0  0  0  0  0  0  0
  2  3  2  0
  2  1  1  0
  4  2  1  0
  5  4  1  0
  5  6  1  1
  7  8  2  0
  7  5  1  0
 10  9  1  1
 10 12  1  0
 10 11  1  0
 13 12  1  1
 13 14  1  0
 14  7  1  0
 15 13  1  0
 15 16  2  0
 18 17  1  0
 18 19  2  0
 20 18  1  0
 21 20  1  0
 22 21  1  6
 23 22  1  0
 23 15  1  0
 24 22  1  0
 25 24  2  0
 26 24  1  0
M  END
$$$$
