NLQ.pdb
     RDKit          3D

 26 25  0  0  1  0  0  0  0  0999 V2000
    8.2515  -19.2503   19.4578 N   0  0  0  0  0  0  0  0  0  0  0  0
    7.4920  -18.0630   19.6116 C   0  0  0  0  0  0  0  0  0  0  0  0
    6.8313  -17.6723   18.6054 O   0  0  0  0  0  0  0  0  0  0  0  0
    7.5177  -17.3724   20.9032 C   0  0  0  0  0  0  0  0  0  0  0  0
    8.0180  -15.9500   20.8037 C   0  0  2  0  0  0  0  0  0  0  0  0
    9.1001  -15.8112   19.8590 N   0  0  0  0  0  0  0  0  0  0  0  0
    8.4511  -15.4226   22.1187 C   0  0  0  0  0  0  0  0  0  0  0  0
    9.6615  -15.5825   22.5019 O   0  0  0  0  0  0  0  0  0  0  0  0
    8.0804  -11.7339   26.4498 C   0  0  0  0  0  0  0  0  0  0  0  0
    6.9823  -12.6693   26.0572 C   0  0  1  0  0  0  0  0  0  0  0  0
    5.6139  -12.0508   26.3574 C   0  0  0  0  0  0  0  0  0  0  0  0
    7.0436  -13.2991   24.7382 C   0  0  0  0  0  0  0  0  0  0  0  0
    8.1072  -14.2391   24.3442 C   0  0  2  0  0  0  0  0  0  0  0  0
    7.6171  -14.7403   23.0064 N   0  0  0  0  0  0  0  0  0  0  0  0
    8.1704  -15.4552   25.1625 C   0  0  0  0  0  0  0  0  0  0  0  0
    7.2142  -16.3215   25.1359 O   0  0  0  0  0  0  0  0  0  0  0  0
   11.1332  -19.1184   22.6009 N   0  0  0  0  0  0  0  0  0  0  0  0
   11.0995  -19.8420   23.8058 C   0  0  0  0  0  0  0  0  0  0  0  0
   11.4781  -21.0351   23.8091 O   0  0  0  0  0  0  0  0  0  0  0  0
   10.6316  -19.2135   25.0354 C   0  0  0  0  0  0  0  0  0  0  0  0
   10.0900  -17.8392   24.9336 C   0  0  0  0  0  0  0  0  0  0  0  0
    9.6062  -17.2346   26.2389 C   0  0  2  0  0  0  0  0  0  0  0  0
    9.2378  -15.8329   26.0389 N   0  0  0  0  0  0  0  0  0  0  0  0
   10.6956  -17.4292   27.2106 C   0  0  0  0  0  0  0  0  0  0  0  0
   10.9140  -18.6127   27.6454 O   0  0  0  0  0  0  0  0  0  0  0  0
   11.5312  -16.4606   27.7201 O   0  0  0  0  0  0  0  0  0  0  0  0
  2  3  2  0
  2  1  1  0
  4  2  1  0
  5  4  1  0
  5  6  1  6
  7  8  2  0
  7  5  1  0
 10  9  1  6
 10 12  1  0
 10 11  1  0
 13 12  1  1
 13 14  1  0
 14  7  1  0
 15 13  1  0
 15 16  2  0
 18 17  1  0
 18 19  2  0
 20 18  1  0
 21 20  1  0
 22 21  1  6
 23 22  1  0
 23 15  1  0
 24 22  1  0
 25 24  2  0
 26 24  1  0
M  END
$$$$
