NLQ.pdb
     RDKit          3D

 26 25  0  0  1  0  0  0  0  0999 V2000
    9.9829  -20.2059   16.9300 N   0  0  0  0  0  0  0  0  0  0  0  0
    9.5090  -18.9719   16.4171 C   0  0  0  0  0  0  0  0  0  0  0  0
    8.9459  -19.0019   15.2842 O   0  0  0  0  0  0  0  0  0  0  0  0
    9.6967  -17.7582   17.2156 C   0  0  0  0  0  0  0  0  0  0  0  0
    9.8195  -18.0370   18.6957 C   0  0  2  0  0  0  0  0  0  0  0  0
    8.6299  -18.6438   19.2428 N   0  0  0  0  0  0  0  0  0  0  0  0
   10.1369  -16.8113   19.4650 C   0  0  0  0  0  0  0  0  0  0  0  0
   11.2319  -16.1868   19.2451 O   0  0  0  0  0  0  0  0  0  0  0  0
    6.1558  -13.4303   21.0545 C   0  0  0  0  0  0  0  0  0  0  0  0
    7.5204  -13.8530   20.6139 C   0  0  1  0  0  0  0  0  0  0  0  0
    8.1924  -12.7430   19.8006 C   0  0  0  0  0  0  0  0  0  0  0  0
    8.4155  -14.4536   21.6028 C   0  0  0  0  0  0  0  0  0  0  0  0
    9.7158  -15.0513   21.2530 C   0  0  2  0  0  0  0  0  0  0  0  0
    9.3092  -16.2612   20.4456 N   0  0  0  0  0  0  0  0  0  0  0  0
   10.4399  -15.6276   22.3913 C   0  0  0  0  0  0  0  0  0  0  0  0
   10.8522  -14.8815   23.3602 O   0  0  0  0  0  0  0  0  0  0  0  0
   10.1846  -21.3865   25.1824 N   0  0  0  0  0  0  0  0  0  0  0  0
   11.1062  -20.6388   25.9361 C   0  0  0  0  0  0  0  0  0  0  0  0
   11.5698  -21.1298   26.9902 O   0  0  0  0  0  0  0  0  0  0  0  0
   11.5183  -19.3107   25.4979 C   0  0  0  0  0  0  0  0  0  0  0  0
   10.9531  -18.8085   24.2248 C   0  0  0  0  0  0  0  0  0  0  0  0
   11.4993  -17.4727   23.7551 C   0  0  2  0  0  0  0  0  0  0  0  0
   10.7592  -17.0105   22.5807 N   0  0  0  0  0  0  0  0  0  0  0  0
   12.9361  -17.6805   23.5074 C   0  0  0  0  0  0  0  0  0  0  0  0
   13.2867  -18.2309   22.4066 O   0  0  0  0  0  0  0  0  0  0  0  0
   13.9762  -17.3420   24.3437 O   0  0  0  0  0  0  0  0  0  0  0  0
  2  3  2  0
  2  1  1  0
  4  2  1  0
  5  4  1  0
  5  6  1  1
  7  8  2  0
  7  5  1  0
 10  9  1  1
 10 12  1  0
 10 11  1  0
 13 12  1  1
 13 14  1  0
 14  7  1  0
 15 13  1  0
 15 16  2  0
 18 17  1  0
 18 19  2  0
 20 18  1  0
 21 20  1  0
 22 21  1  6
 23 22  1  0
 23 15  1  0
 24 22  1  0
 25 24  2  0
 26 24  1  0
M  END
$$$$
