NLQ.pdb
     RDKit          3D

 26 25  0  0  1  0  0  0  0  0999 V2000
    6.9864  -17.6764   17.8472 N   0  0  0  0  0  0  0  0  0  0  0  0
    8.0101  -17.8210   18.8175 C   0  0  0  0  0  0  0  0  0  0  0  0
    8.5951  -18.9420   18.8690 O   0  0  0  0  0  0  0  0  0  0  0  0
    8.3232  -16.6839   19.6864 C   0  0  0  0  0  0  0  0  0  0  0  0
    8.4492  -17.0689   21.1422 C   0  0  2  0  0  0  0  0  0  0  0  0
    7.2479  -17.6815   21.6562 N   0  0  0  0  0  0  0  0  0  0  0  0
    8.8044  -15.9088   21.9924 C   0  0  0  0  0  0  0  0  0  0  0  0
    9.8270  -15.1961   21.7028 O   0  0  0  0  0  0  0  0  0  0  0  0
    7.3675  -11.5971   25.4226 C   0  0  0  0  0  0  0  0  0  0  0  0
    7.1402  -13.0361   25.7583 C   0  0  1  0  0  0  0  0  0  0  0  0
    5.8848  -13.1968   26.6206 C   0  0  0  0  0  0  0  0  0  0  0  0
    7.2189  -14.0224   24.6808 C   0  0  0  0  0  0  0  0  0  0  0  0
    8.4488  -14.2760   23.9105 C   0  0  2  0  0  0  0  0  0  0  0  0
    8.0890  -15.5145   23.1247 N   0  0  0  0  0  0  0  0  0  0  0  0
    9.5912  -14.7072   24.7239 C   0  0  0  0  0  0  0  0  0  0  0  0
   10.5573  -13.8948   24.9920 O   0  0  0  0  0  0  0  0  0  0  0  0
   10.1577  -16.6764   30.3784 N   0  0  0  0  0  0  0  0  0  0  0  0
   10.5193  -15.4316   29.8341 C   0  0  0  0  0  0  0  0  0  0  0  0
   10.5971  -14.4370   30.5903 O   0  0  0  0  0  0  0  0  0  0  0  0
   10.8011  -15.2987   28.4098 C   0  0  0  0  0  0  0  0  0  0  0  0
   10.5872  -16.4920   27.5597 C   0  0  0  0  0  0  0  0  0  0  0  0
   10.9635  -16.3234   26.0991 C   0  0  2  0  0  0  0  0  0  0  0  0
    9.7763  -16.0019   25.3068 N   0  0  0  0  0  0  0  0  0  0  0  0
   11.6235  -17.5773   25.6975 C   0  0  0  0  0  0  0  0  0  0  0  0
   12.6946  -17.9195   26.3082 O   0  0  0  0  0  0  0  0  0  0  0  0
   11.2117  -18.4499   24.7152 O   0  0  0  0  0  0  0  0  0  0  0  0
  2  3  2  0
  2  1  1  0
  4  2  1  0
  5  4  1  0
  5  6  1  1
  7  8  2  0
  7  5  1  0
 10  9  1  6
 10 12  1  0
 10 11  1  0
 13 12  1  1
 13 14  1  0
 14  7  1  0
 15 13  1  0
 15 16  2  0
 18 17  1  0
 18 19  2  0
 20 18  1  0
 21 20  1  0
 22 21  1  1
 23 22  1  0
 23 15  1  0
 24 22  1  0
 25 24  2  0
 26 24  1  0
M  END
$$$$
