NLQ.pdb
     RDKit          3D

 26 25  0  0  1  0  0  0  0  0999 V2000
    7.6457  -18.1785   20.0600 N   0  0  0  0  0  0  0  0  0  0  0  0
    9.0464  -18.0356   20.2269 C   0  0  0  0  0  0  0  0  0  0  0  0
    9.7858  -18.7704   19.5093 O   0  0  0  0  0  0  0  0  0  0  0  0
    9.5442  -17.0632   21.2029 C   0  0  0  0  0  0  0  0  0  0  0  0
    8.4384  -16.3739   21.9681 C   0  0  2  0  0  0  0  0  0  0  0  0
    7.6315  -15.5246   21.1253 N   0  0  0  0  0  0  0  0  0  0  0  0
    8.9635  -15.5760   23.1005 C   0  0  0  0  0  0  0  0  0  0  0  0
   10.1957  -15.2311   23.1197 O   0  0  0  0  0  0  0  0  0  0  0  0
    5.6264  -12.1342   26.1408 C   0  0  0  0  0  0  0  0  0  0  0  0
    6.9071  -12.5376   25.4835 C   0  0  1  0  0  0  0  0  0  0  0  0
    7.8634  -11.3452   25.3886 C   0  0  0  0  0  0  0  0  0  0  0  0
    7.5679  -13.7603   25.9398 C   0  0  0  0  0  0  0  0  0  0  0  0
    8.7753  -14.3095   25.2988 C   0  0  2  0  0  0  0  0  0  0  0  0
    8.1966  -15.1536   24.1881 N   0  0  0  0  0  0  0  0  0  0  0  0
    9.5055  -15.2806   26.1211 C   0  0  0  0  0  0  0  0  0  0  0  0
    9.0791  -16.4917   26.2507 O   0  0  0  0  0  0  0  0  0  0  0  0
   10.1713  -19.4150   29.4852 N   0  0  0  0  0  0  0  0  0  0  0  0
   10.6710  -18.4393   30.3655 C   0  0  0  0  0  0  0  0  0  0  0  0
   10.9841  -18.7744   31.5302 O   0  0  0  0  0  0  0  0  0  0  0  0
   10.8242  -17.0563   29.9298 C   0  0  0  0  0  0  0  0  0  0  0  0
   10.3260  -16.7092   28.5795 C   0  0  0  0  0  0  0  0  0  0  0  0
   11.3499  -16.0805   27.6523 C   0  0  2  0  0  0  0  0  0  0  0  0
   10.7211  -15.0400   26.8385 N   0  0  0  0  0  0  0  0  0  0  0  0
   11.9235  -17.1847   26.8644 C   0  0  0  0  0  0  0  0  0  0  0  0
   12.8823  -17.8593   27.3772 O   0  0  0  0  0  0  0  0  0  0  0  0
   11.5382  -17.5888   25.6058 O   0  0  0  0  0  0  0  0  0  0  0  0
  2  3  2  0
  2  1  1  0
  4  2  1  0
  5  4  1  0
  5  6  1  6
  7  8  2  0
  7  5  1  0
 10  9  1  1
 10 12  1  0
 10 11  1  0
 13 12  1  1
 13 14  1  0
 14  7  1  0
 15 13  1  0
 15 16  2  0
 18 17  1  0
 18 19  2  0
 20 18  1  0
 21 20  1  0
 22 21  1  1
 23 22  1  0
 23 15  1  0
 24 22  1  0
 25 24  2  0
 26 24  1  0
M  END
$$$$
