NLQ.pdb
     RDKit          3D

 26 25  0  0  1  0  0  0  0  0999 V2000
    7.5313  -12.6195   17.5844 N   0  0  0  0  0  0  0  0  0  0  0  0
    8.0917  -13.8032   18.1276 C   0  0  0  0  0  0  0  0  0  0  0  0
    8.0493  -14.8405   17.4039 O   0  0  0  0  0  0  0  0  0  0  0  0
    8.6756  -13.7547   19.4702 C   0  0  0  0  0  0  0  0  0  0  0  0
    8.1494  -14.8373   20.3837 C   0  0  2  0  0  0  0  0  0  0  0  0
    6.7124  -14.9577   20.3250 N   0  0  0  0  0  0  0  0  0  0  0  0
    8.5614  -14.6227   21.7905 C   0  0  0  0  0  0  0  0  0  0  0  0
    9.7976  -14.7013   22.1114 O   0  0  0  0  0  0  0  0  0  0  0  0
    8.0541  -11.9875   26.7402 C   0  0  0  0  0  0  0  0  0  0  0  0
    6.9833  -12.8904   26.2176 C   0  0  1  0  0  0  0  0  0  0  0  0
    5.5998  -12.3850   26.6369 C   0  0  0  0  0  0  0  0  0  0  0  0
    7.0384  -13.2942   24.8127 C   0  0  0  0  0  0  0  0  0  0  0  0
    8.1608  -14.0560   24.2380 C   0  0  2  0  0  0  0  0  0  0  0  0
    7.6797  -14.3308   22.8329 N   0  0  0  0  0  0  0  0  0  0  0  0
    8.3339  -15.3966   24.8083 C   0  0  0  0  0  0  0  0  0  0  0  0
    7.4696  -16.3283   24.5838 O   0  0  0  0  0  0  0  0  0  0  0  0
   10.4980  -19.7546   22.5946 N   0  0  0  0  0  0  0  0  0  0  0  0
   11.3417  -18.6800   22.9262 C   0  0  0  0  0  0  0  0  0  0  0  0
   12.3556  -18.4642   22.2246 O   0  0  0  0  0  0  0  0  0  0  0  0
   11.0414  -17.8271   24.0700 C   0  0  0  0  0  0  0  0  0  0  0  0
    9.7974  -18.1099   24.8216 C   0  0  0  0  0  0  0  0  0  0  0  0
    9.5606  -17.2327   26.0372 C   0  0  2  0  0  0  0  0  0  0  0  0
    9.4216  -15.8343   25.6302 N   0  0  0  0  0  0  0  0  0  0  0  0
   10.6932  -17.4764   26.9466 C   0  0  0  0  0  0  0  0  0  0  0  0
   10.8450  -18.6550   27.4212 O   0  0  0  0  0  0  0  0  0  0  0  0
   11.6351  -16.5599   27.3573 O   0  0  0  0  0  0  0  0  0  0  0  0
  2  3  2  0
  2  1  1  0
  4  2  1  0
  5  4  1  0
  5  6  1  1
  7  8  2  0
  7  5  1  0
 10  9  1  6
 10 12  1  0
 10 11  1  0
 13 12  1  1
 13 14  1  0
 14  7  1  0
 15 13  1  0
 15 16  2  0
 18 17  1  0
 18 19  2  0
 20 18  1  0
 21 20  1  0
 22 21  1  6
 23 22  1  0
 23 15  1  0
 24 22  1  0
 25 24  2  0
 26 24  1  0
M  END
$$$$
