NLQ.pdb
     RDKit          3D

 26 25  0  0  1  0  0  0  0  0999 V2000
    8.0749  -16.6565   18.8625 N   0  0  0  0  0  0  0  0  0  0  0  0
    8.6006  -15.3548   19.0610 C   0  0  0  0  0  0  0  0  0  0  0  0
    8.7511  -14.6354   18.0307 O   0  0  0  0  0  0  0  0  0  0  0  0
    8.9319  -14.9287   20.4229 C   0  0  0  0  0  0  0  0  0  0  0  0
    8.6900  -16.0056   21.4550 C   0  0  2  0  0  0  0  0  0  0  0  0
    7.3190  -16.4560   21.4707 N   0  0  0  0  0  0  0  0  0  0  0  0
    9.0709  -15.5626   22.8165 C   0  0  0  0  0  0  0  0  0  0  0  0
   10.2860  -15.2500   23.0680 O   0  0  0  0  0  0  0  0  0  0  0  0
    5.8981  -12.3340   25.9972 C   0  0  0  0  0  0  0  0  0  0  0  0
    7.1961  -12.9153   25.5366 C   0  0  1  0  0  0  0  0  0  0  0  0
    8.3660  -12.0182   25.9509 C   0  0  0  0  0  0  0  0  0  0  0  0
    7.4513  -14.3335   25.7887 C   0  0  0  0  0  0  0  0  0  0  0  0
    8.6325  -15.0434   25.2680 C   0  0  2  0  0  0  0  0  0  0  0  0
    8.1807  -15.4536   23.8865 N   0  0  0  0  0  0  0  0  0  0  0  0
    8.9078  -16.3226   25.9314 C   0  0  0  0  0  0  0  0  0  0  0  0
    7.9712  -17.1931   26.1059 O   0  0  0  0  0  0  0  0  0  0  0  0
   13.9571  -18.3534   25.0213 N   0  0  0  0  0  0  0  0  0  0  0  0
   12.7902  -18.7036   24.3196 C   0  0  0  0  0  0  0  0  0  0  0  0
   12.8333  -18.7865   23.0713 O   0  0  0  0  0  0  0  0  0  0  0  0
   11.5467  -18.9678   25.0335 C   0  0  0  0  0  0  0  0  0  0  0  0
   11.5520  -18.7791   26.5021 C   0  0  0  0  0  0  0  0  0  0  0  0
   10.3360  -18.0698   27.0691 C   0  0  2  0  0  0  0  0  0  0  0  0
   10.1745  -16.7613   26.4347 N   0  0  0  0  0  0  0  0  0  0  0  0
   10.5421  -18.0017   28.5258 C   0  0  0  0  0  0  0  0  0  0  0  0
   10.6324  -16.8474   29.0706 O   0  0  0  0  0  0  0  0  0  0  0  0
   10.6511  -19.0637   29.3953 O   0  0  0  0  0  0  0  0  0  0  0  0
  2  3  2  0
  2  1  1  0
  4  2  1  0
  5  4  1  0
  5  6  1  1
  7  8  2  0
  7  5  1  0
 10  9  1  1
 10 12  1  0
 10 11  1  0
 13 12  1  1
 13 14  1  0
 14  7  1  0
 15 13  1  0
 15 16  2  0
 18 17  1  0
 18 19  2  0
 20 18  1  0
 21 20  1  0
 22 21  1  6
 23 22  1  0
 23 15  1  0
 24 22  1  0
 25 24  2  0
 26 24  1  0
M  END
$$$$
