NLQ.pdb
     RDKit          3D

 26 25  0  0  1  0  0  0  0  0999 V2000
   10.7190  -17.4227   18.7370 N   0  0  0  0  0  0  0  0  0  0  0  0
    9.6502  -16.6664   19.2811 C   0  0  0  0  0  0  0  0  0  0  0  0
    8.5443  -16.7156   18.6677 O   0  0  0  0  0  0  0  0  0  0  0  0
    9.8866  -15.8875   20.4990 C   0  0  0  0  0  0  0  0  0  0  0  0
    9.2084  -16.4722   21.7162 C   0  0  2  0  0  0  0  0  0  0  0  0
    7.8028  -16.7172   21.4994 N   0  0  0  0  0  0  0  0  0  0  0  0
    9.3722  -15.6088   22.9090 C   0  0  0  0  0  0  0  0  0  0  0  0
   10.5453  -15.3312   23.3382 O   0  0  0  0  0  0  0  0  0  0  0  0
    7.6299  -11.3221   26.3018 C   0  0  0  0  0  0  0  0  0  0  0  0
    6.9296  -12.6303   26.1196 C   0  0  1  0  0  0  0  0  0  0  0  0
    5.4174  -12.4611   26.2928 C   0  0  0  0  0  0  0  0  0  0  0  0
    7.2800  -13.4512   24.9607 C   0  0  0  0  0  0  0  0  0  0  0  0
    8.5365  -14.2144   24.8657 C   0  0  2  0  0  0  0  0  0  0  0  0
    8.3135  -15.0526   23.6293 N   0  0  0  0  0  0  0  0  0  0  0  0
    8.7177  -15.2115   25.9265 C   0  0  0  0  0  0  0  0  0  0  0  0
    9.2150  -14.8789   27.0700 O   0  0  0  0  0  0  0  0  0  0  0  0
    5.7311  -20.8435   24.8568 N   0  0  0  0  0  0  0  0  0  0  0  0
    6.6889  -20.6984   25.8757 C   0  0  0  0  0  0  0  0  0  0  0  0
    6.7470  -21.5594   26.7824 O   0  0  0  0  0  0  0  0  0  0  0  0
    7.6031  -19.5626   25.8777 C   0  0  0  0  0  0  0  0  0  0  0  0
    7.4509  -18.5686   26.9646 C   0  0  0  0  0  0  0  0  0  0  0  0
    8.5144  -17.4868   27.0075 C   0  0  2  0  0  0  0  0  0  0  0  0
    8.3787  -16.6007   25.8512 N   0  0  0  0  0  0  0  0  0  0  0  0
    9.8092  -18.1857   27.0710 C   0  0  0  0  0  0  0  0  0  0  0  0
   10.5421  -18.1977   26.0222 O   0  0  0  0  0  0  0  0  0  0  0  0
   10.3395  -18.8456   28.1569 O   0  0  0  0  0  0  0  0  0  0  0  0
  2  3  2  0
  2  1  1  0
  4  2  1  0
  5  4  1  0
  5  6  1  6
  7  8  2  0
  7  5  1  0
 10  9  1  6
 10 12  1  0
 10 11  1  0
 13 12  1  1
 13 14  1  0
 14  7  1  0
 15 13  1  0
 15 16  2  0
 18 17  1  0
 18 19  2  0
 20 18  1  0
 21 20  1  0
 22 21  1  6
 23 22  1  0
 23 15  1  0
 24 22  1  0
 25 24  2  0
 26 24  1  0
M  END
$$$$
