NLQ.pdb
     RDKit          3D

 26 25  0  0  1  0  0  0  0  0999 V2000
    7.2061  -16.9310   18.7800 N   0  0  0  0  0  0  0  0  0  0  0  0
    8.1528  -15.8757   18.8019 C   0  0  0  0  0  0  0  0  0  0  0  0
    8.5709  -15.4590   17.6825 O   0  0  0  0  0  0  0  0  0  0  0  0
    8.5822  -15.3412   20.0965 C   0  0  0  0  0  0  0  0  0  0  0  0
    8.0295  -16.1169   21.2696 C   0  0  2  0  0  0  0  0  0  0  0  0
    6.5866  -16.1391   21.2850 N   0  0  0  0  0  0  0  0  0  0  0  0
    8.5206  -15.5878   22.5634 C   0  0  0  0  0  0  0  0  0  0  0  0
    9.7693  -15.3605   22.7259 O   0  0  0  0  0  0  0  0  0  0  0  0
    5.6257  -12.2085   25.9865 C   0  0  0  0  0  0  0  0  0  0  0  0
    6.8500  -12.8052   25.3701 C   0  0  1  0  0  0  0  0  0  0  0  0
    8.0611  -11.8928   25.5846 C   0  0  0  0  0  0  0  0  0  0  0  0
    7.1461  -14.2132   25.6345 C   0  0  0  0  0  0  0  0  0  0  0  0
    8.2702  -14.9303   25.0081 C   0  0  2  0  0  0  0  0  0  0  0  0
    7.7032  -15.3062   23.6596 N   0  0  0  0  0  0  0  0  0  0  0  0
    8.5761  -16.2265   25.6236 C   0  0  0  0  0  0  0  0  0  0  0  0
    7.6616  -17.1266   25.7607 O   0  0  0  0  0  0  0  0  0  0  0  0
   12.6645  -20.4982   24.2427 N   0  0  0  0  0  0  0  0  0  0  0  0
   11.9846  -21.0527   25.3412 C   0  0  0  0  0  0  0  0  0  0  0  0
   12.1411  -22.2667   25.6032 O   0  0  0  0  0  0  0  0  0  0  0  0
   11.1100  -20.2273   26.1656 C   0  0  0  0  0  0  0  0  0  0  0  0
   10.9648  -18.8029   25.7887 C   0  0  0  0  0  0  0  0  0  0  0  0
   10.0496  -17.9858   26.6820 C   0  0  2  0  0  0  0  0  0  0  0  0
    9.8520  -16.6515   26.1152 N   0  0  0  0  0  0  0  0  0  0  0  0
   10.6762  -17.9777   28.0148 C   0  0  0  0  0  0  0  0  0  0  0  0
   10.4569  -18.9701   28.7923 O   0  0  0  0  0  0  0  0  0  0  0  0
   11.4941  -17.0011   28.5374 O   0  0  0  0  0  0  0  0  0  0  0  0
  2  3  2  0
  2  1  1  0
  4  2  1  0
  5  4  1  0
  5  6  1  1
  7  8  2  0
  7  5  1  0
 10  9  1  1
 10 12  1  0
 10 11  1  0
 13 12  1  1
 13 14  1  0
 14  7  1  0
 15 13  1  0
 15 16  2  0
 18 17  1  0
 18 19  2  0
 20 18  1  0
 21 20  1  0
 22 21  1  6
 23 22  1  0
 23 15  1  0
 24 22  1  0
 25 24  2  0
 26 24  1  0
M  END
$$$$
