NLQ.pdb
     RDKit          3D

 26 25  0  0  1  0  0  0  0  0999 V2000
    5.3372  -18.9951   22.9467 N   0  0  0  0  0  0  0  0  0  0  0  0
    6.6458  -18.8866   22.4118 C   0  0  0  0  0  0  0  0  0  0  0  0
    6.8952  -19.5593   21.3693 O   0  0  0  0  0  0  0  0  0  0  0  0
    7.6130  -18.0174   23.0863 C   0  0  0  0  0  0  0  0  0  0  0  0
    7.5451  -16.5820   22.6190 C   0  0  2  0  0  0  0  0  0  0  0  0
    8.1187  -16.4018   21.3071 N   0  0  0  0  0  0  0  0  0  0  0  0
    8.2078  -15.6588   23.5695 C   0  0  0  0  0  0  0  0  0  0  0  0
    9.4341  -15.3373   23.3952 O   0  0  0  0  0  0  0  0  0  0  0  0
    5.4435  -11.7609   26.5377 C   0  0  0  0  0  0  0  0  0  0  0  0
    6.5754  -12.3811   25.7833 C   0  0  1  0  0  0  0  0  0  0  0  0
    7.5458  -11.3056   25.2865 C   0  0  0  0  0  0  0  0  0  0  0  0
    7.2578  -13.5318   26.3751 C   0  0  0  0  0  0  0  0  0  0  0  0
    8.3389  -14.2642   25.6931 C   0  0  2  0  0  0  0  0  0  0  0  0
    7.5817  -15.0897   24.6800 N   0  0  0  0  0  0  0  0  0  0  0  0
    9.0035  -15.2718   26.5269 C   0  0  0  0  0  0  0  0  0  0  0  0
    9.7509  -14.9219   27.5191 O   0  0  0  0  0  0  0  0  0  0  0  0
    7.3993  -21.3652   27.8281 N   0  0  0  0  0  0  0  0  0  0  0  0
    8.5083  -21.0779   28.6430 C   0  0  0  0  0  0  0  0  0  0  0  0
    8.8678  -21.9179   29.4986 O   0  0  0  0  0  0  0  0  0  0  0  0
    9.2314  -19.8206   28.4948 C   0  0  0  0  0  0  0  0  0  0  0  0
    8.7419  -18.8708   27.4698 C   0  0  0  0  0  0  0  0  0  0  0  0
    9.5678  -17.6078   27.3090 C   0  0  2  0  0  0  0  0  0  0  0  0
    8.9122  -16.6926   26.3744 N   0  0  0  0  0  0  0  0  0  0  0  0
   10.9052  -18.0440   26.8730 C   0  0  0  0  0  0  0  0  0  0  0  0
   11.6438  -18.6629   27.7149 O   0  0  0  0  0  0  0  0  0  0  0  0
   11.4701  -17.8600   25.6309 O   0  0  0  0  0  0  0  0  0  0  0  0
  2  3  2  0
  2  1  1  0
  4  2  1  0
  5  4  1  0
  5  6  1  6
  7  8  2  0
  7  5  1  0
 10  9  1  1
 10 12  1  0
 10 11  1  0
 13 12  1  1
 13 14  1  0
 14  7  1  0
 15 13  1  0
 15 16  2  0
 18 17  1  0
 18 19  2  0
 20 18  1  0
 21 20  1  0
 22 21  1  6
 23 22  1  0
 23 15  1  0
 24 22  1  0
 25 24  2  0
 26 24  1  0
M  END
$$$$
