NLQ.pdb
     RDKit          3D

 26 25  0  0  1  0  0  0  0  0999 V2000
    9.4763  -17.7342   18.1757 N   0  0  0  0  0  0  0  0  0  0  0  0
    8.4006  -17.2160   18.9404 C   0  0  0  0  0  0  0  0  0  0  0  0
    7.2519  -17.6940   18.7090 O   0  0  0  0  0  0  0  0  0  0  0  0
    8.6792  -16.1769   19.9347 C   0  0  0  0  0  0  0  0  0  0  0  0
    8.5367  -16.6660   21.3574 C   0  0  2  0  0  0  0  0  0  0  0  0
    7.2112  -17.1622   21.6394 N   0  0  0  0  0  0  0  0  0  0  0  0
    8.8802  -15.6130   22.3413 C   0  0  0  0  0  0  0  0  0  0  0  0
   10.0243  -15.0421   22.2902 O   0  0  0  0  0  0  0  0  0  0  0  0
    7.6072  -11.3242   25.8244 C   0  0  0  0  0  0  0  0  0  0  0  0
    7.0134  -12.6893   25.9608 C   0  0  1  0  0  0  0  0  0  0  0  0
    5.5828  -12.6036   26.5007 C   0  0  0  0  0  0  0  0  0  0  0  0
    7.1419  -13.6190   24.8387 C   0  0  0  0  0  0  0  0  0  0  0  0
    8.4398  -14.1175   24.3516 C   0  0  2  0  0  0  0  0  0  0  0  0
    8.0272  -15.1762   23.3566 N   0  0  0  0  0  0  0  0  0  0  0  0
    9.2101  -14.8680   25.3495 C   0  0  0  0  0  0  0  0  0  0  0  0
    9.8852  -14.2552   26.2628 O   0  0  0  0  0  0  0  0  0  0  0  0
    7.9157  -20.2304   28.4229 N   0  0  0  0  0  0  0  0  0  0  0  0
    9.2014  -19.8780   28.8692 C   0  0  0  0  0  0  0  0  0  0  0  0
    9.6877  -20.4759   29.8556 O   0  0  0  0  0  0  0  0  0  0  0  0
    9.9599  -18.8320   28.1936 C   0  0  0  0  0  0  0  0  0  0  0  0
    9.2649  -18.0619   27.1372 C   0  0  0  0  0  0  0  0  0  0  0  0
   10.0727  -16.9365   26.5173 C   0  0  2  0  0  0  0  0  0  0  0  0
    9.3049  -16.2931   25.4510 N   0  0  0  0  0  0  0  0  0  0  0  0
   11.3347  -17.5412   26.0581 C   0  0  0  0  0  0  0  0  0  0  0  0
   12.1806  -17.9191   26.9407 O   0  0  0  0  0  0  0  0  0  0  0  0
   11.7222  -17.7547   24.7542 O   0  0  0  0  0  0  0  0  0  0  0  0
  2  3  2  0
  2  1  1  0
  4  2  1  0
  5  4  1  0
  5  6  1  1
  7  8  2  0
  7  5  1  0
 10  9  1  6
 10 12  1  0
 10 11  1  0
 13 12  1  1
 13 14  1  0
 14  7  1  0
 15 13  1  0
 15 16  2  0
 18 17  1  0
 18 19  2  0
 20 18  1  0
 21 20  1  0
 22 21  1  6
 23 22  1  0
 23 15  1  0
 24 22  1  0
 25 24  2  0
 26 24  1  0
M  END
$$$$
