NLQ.pdb
     RDKit          3D

 26 25  0  0  1  0  0  0  0  0999 V2000
    9.8115  -18.0127   14.8348 N   0  0  0  0  0  0  0  0  0  0  0  0
   10.5407  -18.2869   16.0194 C   0  0  0  0  0  0  0  0  0  0  0  0
   10.9746  -19.4670   16.1637 O   0  0  0  0  0  0  0  0  0  0  0  0
   10.7442  -17.2066   16.9876 C   0  0  0  0  0  0  0  0  0  0  0  0
   10.5766  -17.6569   18.4203 C   0  0  2  0  0  0  0  0  0  0  0  0
    9.3805  -18.4405   18.6153 N   0  0  0  0  0  0  0  0  0  0  0  0
   10.5664  -16.5132   19.3620 C   0  0  0  0  0  0  0  0  0  0  0  0
   11.6307  -15.8258   19.5410 O   0  0  0  0  0  0  0  0  0  0  0  0
    6.1147  -13.3408   20.1212 C   0  0  0  0  0  0  0  0  0  0  0  0
    7.5603  -13.7136   20.0422 C   0  0  1  0  0  0  0  0  0  0  0  0
    8.4113  -12.4967   19.6676 C   0  0  0  0  0  0  0  0  0  0  0  0
    8.1377  -14.4953   21.1356 C   0  0  0  0  0  0  0  0  0  0  0  0
    9.5215  -15.0003   21.1202 C   0  0  2  0  0  0  0  0  0  0  0  0
    9.4502  -16.1087   20.0967 N   0  0  0  0  0  0  0  0  0  0  0  0
    9.9234  -15.6947   22.3485 C   0  0  0  0  0  0  0  0  0  0  0  0
    9.0585  -16.3364   23.0596 O   0  0  0  0  0  0  0  0  0  0  0  0
   10.9416  -20.7979   23.4081 N   0  0  0  0  0  0  0  0  0  0  0  0
   11.8046  -20.0666   22.5733 C   0  0  0  0  0  0  0  0  0  0  0  0
   12.3859  -20.6559   21.6343 O   0  0  0  0  0  0  0  0  0  0  0  0
   12.0202  -18.6419   22.7955 C   0  0  0  0  0  0  0  0  0  0  0  0
   11.2454  -17.9976   23.8804 C   0  0  0  0  0  0  0  0  0  0  0  0
   11.5415  -16.5258   24.1028 C   0  0  2  0  0  0  0  0  0  0  0  0
   11.2475  -15.7637   22.8890 N   0  0  0  0  0  0  0  0  0  0  0  0
   12.9504  -16.4493   24.5250 C   0  0  0  0  0  0  0  0  0  0  0  0
   13.2840  -17.0142   25.6236 O   0  0  0  0  0  0  0  0  0  0  0  0
   13.9802  -15.8248   23.8577 O   0  0  0  0  0  0  0  0  0  0  0  0
  2  3  2  0
  2  1  1  0
  4  2  1  0
  5  4  1  0
  5  6  1  6
  7  8  2  0
  7  5  1  0
 10  9  1  1
 10 12  1  0
 10 11  1  0
 13 12  1  1
 13 14  1  0
 14  7  1  0
 15 13  1  0
 15 16  2  0
 18 17  1  0
 18 19  2  0
 20 18  1  0
 21 20  1  0
 22 21  1  6
 23 22  1  0
 23 15  1  0
 24 22  1  0
 25 24  2  0
 26 24  1  0
M  END
$$$$
