NLQ.pdb
     RDKit          3D

 26 25  0  0  1  0  0  0  0  0999 V2000
    8.0845  -15.6190   18.5592 N   0  0  0  0  0  0  0  0  0  0  0  0
    8.0968  -14.2527   18.9378 C   0  0  0  0  0  0  0  0  0  0  0  0
    7.9681  -13.4010   18.0106 O   0  0  0  0  0  0  0  0  0  0  0  0
    8.2551  -13.9154   20.3546 C   0  0  0  0  0  0  0  0  0  0  0  0
    8.3883  -15.1320   21.2410 C   0  0  2  0  0  0  0  0  0  0  0  0
    7.1948  -15.9433   21.2465 N   0  0  0  0  0  0  0  0  0  0  0  0
    8.7327  -14.7660   22.6347 C   0  0  0  0  0  0  0  0  0  0  0  0
    9.8415  -14.1776   22.8833 O   0  0  0  0  0  0  0  0  0  0  0  0
    5.4518  -12.0384   26.1890 C   0  0  0  0  0  0  0  0  0  0  0  0
    6.7470  -12.5195   25.6180 C   0  0  1  0  0  0  0  0  0  0  0  0
    7.9190  -11.7133   26.1853 C   0  0  0  0  0  0  0  0  0  0  0  0
    7.0057  -13.9591   25.5970 C   0  0  0  0  0  0  0  0  0  0  0  0
    8.2745  -14.5418   25.1270 C   0  0  2  0  0  0  0  0  0  0  0  0
    7.9172  -15.0190   23.7393 N   0  0  0  0  0  0  0  0  0  0  0  0
    8.6660  -15.7733   25.8216 C   0  0  0  0  0  0  0  0  0  0  0  0
    9.1532  -15.7336   27.0160 O   0  0  0  0  0  0  0  0  0  0  0  0
   10.9853  -19.1588   21.6693 N   0  0  0  0  0  0  0  0  0  0  0  0
   11.9576  -19.2541   22.6802 C   0  0  0  0  0  0  0  0  0  0  0  0
   12.9663  -19.9700   22.4879 O   0  0  0  0  0  0  0  0  0  0  0  0
   11.7961  -18.5296   23.9351 C   0  0  0  0  0  0  0  0  0  0  0  0
   10.5907  -17.6822   24.0812 C   0  0  0  0  0  0  0  0  0  0  0  0
    9.7090  -18.0088   25.2724 C   0  0  2  0  0  0  0  0  0  0  0  0
    8.5580  -17.1063   25.3099 N   0  0  0  0  0  0  0  0  0  0  0  0
   10.5738  -17.9175   26.4611 C   0  0  0  0  0  0  0  0  0  0  0  0
   10.5256  -18.8663   27.3183 O   0  0  0  0  0  0  0  0  0  0  0  0
   11.4535  -16.9035   26.7669 O   0  0  0  0  0  0  0  0  0  0  0  0
  2  3  2  0
  2  1  1  0
  4  2  1  0
  5  4  1  0
  5  6  1  1
  7  8  2  0
  7  5  1  0
 10  9  1  1
 10 12  1  0
 10 11  1  0
 13 12  1  1
 13 14  1  0
 14  7  1  0
 15 13  1  0
 15 16  2  0
 18 17  1  0
 18 19  2  0
 20 18  1  0
 21 20  1  0
 22 21  1  6
 23 22  1  0
 23 15  1  0
 24 22  1  0
 25 24  2  0
 26 24  1  0
M  END
$$$$
