NLQ.pdb
     RDKit          3D

 26 25  0  0  1  0  0  0  0  0999 V2000
   11.2177  -17.4940   14.0406 N   0  0  0  0  0  0  0  0  0  0  0  0
   10.8683  -17.9473   15.3377 C   0  0  0  0  0  0  0  0  0  0  0  0
   10.3760  -19.1100   15.4240 O   0  0  0  0  0  0  0  0  0  0  0  0
   11.0944  -17.0580   16.4797 C   0  0  0  0  0  0  0  0  0  0  0  0
   10.4061  -17.5274   17.7403 C   0  0  2  0  0  0  0  0  0  0  0  0
    9.0287  -17.8934   17.5127 N   0  0  0  0  0  0  0  0  0  0  0  0
   10.4665  -16.5098   18.8153 C   0  0  0  0  0  0  0  0  0  0  0  0
   11.5988  -16.0484   19.1929 O   0  0  0  0  0  0  0  0  0  0  0  0
    6.4168  -12.7353   19.7108 C   0  0  0  0  0  0  0  0  0  0  0  0
    7.7911  -13.3196   19.6411 C   0  0  1  0  0  0  0  0  0  0  0  0
    8.8427  -12.2122   19.5258 C   0  0  0  0  0  0  0  0  0  0  0  0
    8.1578  -14.3520   20.6105 C   0  0  0  0  0  0  0  0  0  0  0  0
    9.4725  -15.0167   20.6193 C   0  0  2  0  0  0  0  0  0  0  0  0
    9.3490  -15.9936   19.4741 N   0  0  0  0  0  0  0  0  0  0  0  0
    9.7030  -15.8808   21.7823 C   0  0  0  0  0  0  0  0  0  0  0  0
    8.9287  -16.8841   22.0256 O   0  0  0  0  0  0  0  0  0  0  0  0
   13.4199  -19.6477   20.7573 N   0  0  0  0  0  0  0  0  0  0  0  0
   13.2271  -19.9962   22.1056 C   0  0  0  0  0  0  0  0  0  0  0  0
   13.6795  -21.0865   22.5223 O   0  0  0  0  0  0  0  0  0  0  0  0
   12.5117  -19.1018   23.0077 C   0  0  0  0  0  0  0  0  0  0  0  0
   11.9868  -17.8393   22.4394 C   0  0  0  0  0  0  0  0  0  0  0  0
   11.3151  -16.9103   23.4339 C   0  0  2  0  0  0  0  0  0  0  0  0
   10.7581  -15.7483   22.7412 N   0  0  0  0  0  0  0  0  0  0  0  0
   12.3402  -16.5696   24.4350 C   0  0  0  0  0  0  0  0  0  0  0  0
   13.1381  -15.6026   24.1786 O   0  0  0  0  0  0  0  0  0  0  0  0
   12.5466  -17.1855   25.6490 O   0  0  0  0  0  0  0  0  0  0  0  0
  2  3  2  0
  2  1  1  0
  4  2  1  0
  5  4  1  0
  5  6  1  6
  7  8  2  0
  7  5  1  0
 10  9  1  1
 10 12  1  0
 10 11  1  0
 13 12  1  1
 13 14  1  0
 14  7  1  0
 15 13  1  0
 15 16  2  0
 18 17  1  0
 18 19  2  0
 20 18  1  0
 21 20  1  0
 22 21  1  6
 23 22  1  0
 23 15  1  0
 24 22  1  0
 25 24  2  0
 26 24  1  0
M  END
$$$$
