NLQ.pdb
     RDKit          3D

 26 25  0  0  1  0  0  0  0  0999 V2000
    9.1954  -18.4512   19.6007 N   0  0  0  0  0  0  0  0  0  0  0  0
    9.7432  -17.1822   19.2847 C   0  0  0  0  0  0  0  0  0  0  0  0
   10.0776  -16.9876   18.0797 O   0  0  0  0  0  0  0  0  0  0  0  0
    9.8866  -16.1906   20.3534 C   0  0  0  0  0  0  0  0  0  0  0  0
    9.4227  -16.6993   21.6985 C   0  0  2  0  0  0  0  0  0  0  0  0
    8.0757  -17.2158   21.6578 N   0  0  0  0  0  0  0  0  0  0  0  0
    9.5104  -15.6546   22.7453 C   0  0  0  0  0  0  0  0  0  0  0  0
   10.5950  -14.9922   22.8950 O   0  0  0  0  0  0  0  0  0  0  0  0
    7.6307  -11.6022   26.1682 C   0  0  0  0  0  0  0  0  0  0  0  0
    6.9240  -12.9114   26.0215 C   0  0  1  0  0  0  0  0  0  0  0  0
    5.4089  -12.7228   26.1410 C   0  0  0  0  0  0  0  0  0  0  0  0
    7.3015  -13.7849   24.9104 C   0  0  0  0  0  0  0  0  0  0  0  0
    8.6543  -14.3460   24.7519 C   0  0  2  0  0  0  0  0  0  0  0  0
    8.4691  -15.3209   23.6134 N   0  0  0  0  0  0  0  0  0  0  0  0
    9.0875  -15.1983   25.8647 C   0  0  0  0  0  0  0  0  0  0  0  0
    8.4757  -15.1660   27.0005 O   0  0  0  0  0  0  0  0  0  0  0  0
    6.4159  -18.7586   27.2263 N   0  0  0  0  0  0  0  0  0  0  0  0
    7.4390  -19.7094   27.3863 C   0  0  0  0  0  0  0  0  0  0  0  0
    7.2276  -20.7156   28.1003 O   0  0  0  0  0  0  0  0  0  0  0  0
    8.7285  -19.5287   26.7302 C   0  0  0  0  0  0  0  0  0  0  0  0
    8.9588  -18.2481   26.0236 C   0  0  0  0  0  0  0  0  0  0  0  0
   10.1001  -17.4059   26.5632 C   0  0  2  0  0  0  0  0  0  0  0  0
   10.1714  -16.1337   25.8441 N   0  0  0  0  0  0  0  0  0  0  0  0
   11.3146  -18.2291   26.4350 C   0  0  0  0  0  0  0  0  0  0  0  0
   11.5903  -19.0510   27.3762 O   0  0  0  0  0  0  0  0  0  0  0  0
   12.2133  -18.2189   25.3919 O   0  0  0  0  0  0  0  0  0  0  0  0
  2  3  2  0
  2  1  1  0
  4  2  1  0
  5  4  1  0
  5  6  1  6
  7  8  2  0
  7  5  1  0
 10  9  1  6
 10 12  1  0
 10 11  1  0
 13 12  1  1
 13 14  1  0
 14  7  1  0
 15 13  1  0
 15 16  2  0
 18 17  1  0
 18 19  2  0
 20 18  1  0
 21 20  1  0
 22 21  1  6
 23 22  1  0
 23 15  1  0
 24 22  1  0
 25 24  2  0
 26 24  1  0
M  END
$$$$
