TRI.pdb
     RDKit          3D

 27 26  0  0  1  0  0  0  0  0999 V2000
   30.0125  -21.8939  -12.8301 C   0  0  0  0  0  0  0  0  0  0  0  0
   30.1064  -21.0318  -14.0511 C   0  0  1  0  0  0  0  0  0  0  0  0
   31.0886  -21.5520  -14.9047 O   0  0  0  0  0  0  0  0  0  0  0  0
   28.7774  -21.0467  -14.8093 C   0  0  2  0  0  0  0  0  0  0  0  0
   28.9174  -20.1085  -15.9329 N   0  0  0  0  0  0  0  0  0  0  0  0
   27.6823  -20.5675  -13.9534 C   0  0  0  0  0  0  0  0  0  0  0  0
   27.6660  -19.3370  -13.5946 O   0  0  0  0  0  0  0  0  0  0  0  0
   19.2935  -22.0939  -11.9548 N   0  0  0  0  0  0  0  0  0  0  0  0
   19.6099  -20.7828  -11.4950 C   0  0  0  0  0  0  0  0  0  0  0  0
   18.7616  -20.1720  -10.7124 N   0  0  0  0  0  0  0  0  0  0  0  0
   20.8085  -20.1051  -11.8483 N   0  0  0  0  0  0  0  0  0  0  0  0
   21.7919  -20.7927  -12.6580 C   0  0  0  0  0  0  0  0  0  0  0  0
   23.1965  -20.5513  -12.1777 C   0  0  0  0  0  0  0  0  0  0  0  0
   24.2356  -21.0989  -13.1284 C   0  0  0  0  0  0  0  0  0  0  0  0
   25.6059  -20.7673  -12.5648 C   0  0  2  0  0  0  0  0  0  0  0  0
   26.6015  -21.3381  -13.4628 N   0  0  0  0  0  0  0  0  0  0  0  0
   25.7704  -21.2442  -11.1821 C   0  0  0  0  0  0  0  0  0  0  0  0
   25.6523  -22.4692  -10.9247 O   0  0  0  0  0  0  0  0  0  0  0  0
   18.9632  -19.2172  -10.3506 C   0  0  0  0  0  0  0  0  0  0  0  0
   28.3507  -19.6394   -5.8484 C   0  0  0  0  0  0  0  0  0  0  0  0
   27.2882  -20.4326   -6.5541 C   0  0  2  0  0  0  0  0  0  0  0  0
   27.1217  -20.0239   -7.9904 C   0  0  0  0  0  0  0  0  0  0  0  0
   26.6812  -18.5812   -8.0296 C   0  0  2  0  0  0  0  0  0  0  0  0
   26.1083  -20.8562   -8.7223 N   0  0  0  0  0  0  0  0  0  0  0  0
   26.0621  -20.3838  -10.0916 C   0  0  0  0  0  0  0  0  0  0  0  0
   24.7664  -20.7892   -8.1455 O   0  0  0  0  0  0  0  0  0  0  0  0
   23.9133  -19.9791   -8.5884 O   0  0  0  0  0  0  0  0  0  0  0  0
  2  1  1  1
  3  2  1  0
  4  2  1  0
  4  5  1  6
  6  4  1  0
  6 16  1  0
  7  6  2  0
  9  8  1  0
 10  9  2  0
 11  9  1  0
 12 13  1  0
 12 11  1  0
 13 14  1  0
 15 14  1  6
 15 16  1  0
 17 15  1  0
 18 17  2  0
 19 20  1  0
 21 20  1  0
 21 23  1  0
 21 22  1  6
 23 25  1  0
 23 24  1  1
 24 17  1  0
 25 27  1  0
 26 25  2  0
M  END
$$$$
