TRI.pdb
     RDKit          3D

 27 26  0  0  1  0  0  0  0  0999 V2000
   28.8902  -19.5562  -14.5363 C   0  0  0  0  0  0  0  0  0  0  0  0
   28.3121  -18.5225  -15.4527 C   0  0  1  0  0  0  0  0  0  0  0  0
   29.1425  -18.3880  -16.5735 O   0  0  0  0  0  0  0  0  0  0  0  0
   26.9343  -18.9685  -15.9467 C   0  0  2  0  0  0  0  0  0  0  0  0
   26.4353  -17.9069  -16.8333 N   0  0  0  0  0  0  0  0  0  0  0  0
   25.9942  -19.0997  -14.8241 C   0  0  0  0  0  0  0  0  0  0  0  0
   25.6304  -18.0462  -14.1908 O   0  0  0  0  0  0  0  0  0  0  0  0
   18.3631  -21.4451  -11.9694 N   0  0  0  0  0  0  0  0  0  0  0  0
   18.9567  -21.0526  -13.2039 C   0  0  0  0  0  0  0  0  0  0  0  0
   18.2104  -20.4613  -14.0975 N   0  0  0  0  0  0  0  0  0  0  0  0
   20.3269  -21.2743  -13.5109 N   0  0  0  0  0  0  0  0  0  0  0  0
   21.1656  -21.9425  -12.5385 C   0  0  0  0  0  0  0  0  0  0  0  0
   22.4516  -21.2034  -12.2900 C   0  0  0  0  0  0  0  0  0  0  0  0
   23.2993  -21.0816  -13.5351 C   0  0  0  0  0  0  0  0  0  0  0  0
   24.5599  -20.3185  -13.1696 C   0  0  2  0  0  0  0  0  0  0  0  0
   25.4211  -20.3017  -14.3450 N   0  0  0  0  0  0  0  0  0  0  0  0
   25.2379  -20.8915  -11.9957 C   0  0  0  0  0  0  0  0  0  0  0  0
   25.7944  -22.0157  -12.0815 O   0  0  0  0  0  0  0  0  0  0  0  0
   18.5990  -20.1990  -15.0267 C   0  0  0  0  0  0  0  0  0  0  0  0
   28.4490  -19.3741   -7.1088 C   0  0  0  0  0  0  0  0  0  0  0  0
   27.5177  -20.3808   -7.7216 C   0  0  2  0  0  0  0  0  0  0  0  0
   26.8373  -19.8604   -8.9562 C   0  0  0  0  0  0  0  0  0  0  0  0
   26.0562  -18.6233   -8.5869 C   0  0  2  0  0  0  0  0  0  0  0  0
   25.8972  -20.8572   -9.5709 N   0  0  0  0  0  0  0  0  0  0  0  0
   25.3044  -20.2361  -10.7384 C   0  0  0  0  0  0  0  0  0  0  0  0
   24.8338  -21.2958   -8.6681 O   0  0  0  0  0  0  0  0  0  0  0  0
   23.6913  -20.7737   -8.7151 O   0  0  0  0  0  0  0  0  0  0  0  0
  2  1  1  1
  3  2  1  0
  4  2  1  0
  4  5  1  6
  6  4  1  0
  6 16  1  0
  7  6  2  0
  9  8  1  0
 10  9  2  0
 11  9  1  0
 12 13  1  0
 12 11  1  0
 13 14  1  0
 15 14  1  6
 15 16  1  0
 17 15  1  0
 18 17  2  0
 19 20  1  0
 21 20  1  0
 21 23  1  0
 21 22  1  6
 23 25  1  0
 23 24  1  1
 24 17  1  0
 25 27  1  0
 26 25  2  0
M  END
$$$$
