TRI.pdb
     RDKit          3D

 27 26  0  0  1  0  0  0  0  0999 V2000
   28.5737  -19.1551  -15.7251 C   0  0  0  0  0  0  0  0  0  0  0  0
   27.9939  -17.9688  -16.4316 C   0  0  1  0  0  0  0  0  0  0  0  0
   28.8684  -17.5705  -17.4517 O   0  0  0  0  0  0  0  0  0  0  0  0
   26.6610  -18.3438  -17.0831 C   0  0  2  0  0  0  0  0  0  0  0  0
   26.1262  -17.1183  -17.6950 N   0  0  0  0  0  0  0  0  0  0  0  0
   25.6969  -18.8032  -16.0728 C   0  0  0  0  0  0  0  0  0  0  0  0
   25.1642  -17.9437  -15.2850 O   0  0  0  0  0  0  0  0  0  0  0  0
   19.1530  -22.0860  -12.2211 N   0  0  0  0  0  0  0  0  0  0  0  0
   19.3668  -20.8756  -12.9419 C   0  0  0  0  0  0  0  0  0  0  0  0
   18.5451  -19.8790  -12.7500 N   0  0  0  0  0  0  0  0  0  0  0  0
   20.4351  -20.6996  -13.8632 N   0  0  0  0  0  0  0  0  0  0  0  0
   21.0467  -21.8675  -14.4611 C   0  0  0  0  0  0  0  0  0  0  0  0
   22.5158  -21.9630  -14.1538 C   0  0  0  0  0  0  0  0  0  0  0  0
   23.3793  -21.5064  -15.3068 C   0  0  0  0  0  0  0  0  0  0  0  0
   24.3684  -20.4850  -14.7742 C   0  0  2  0  0  0  0  0  0  0  0  0
   25.2714  -20.1365  -15.8635 N   0  0  0  0  0  0  0  0  0  0  0  0
   25.0932  -20.9752  -13.5907 C   0  0  0  0  0  0  0  0  0  0  0  0
   25.9556  -21.8815  -13.7163 O   0  0  0  0  0  0  0  0  0  0  0  0
   18.6946  -18.9662  -13.2269 C   0  0  0  0  0  0  0  0  0  0  0  0
   26.9941  -17.5786   -9.9417 C   0  0  0  0  0  0  0  0  0  0  0  0
   26.7788  -18.7656  -10.8367 C   0  0  2  0  0  0  0  0  0  0  0  0
   25.8627  -19.7888  -10.2271 C   0  0  0  0  0  0  0  0  0  0  0  0
   26.4883  -20.2906   -8.9490 C   0  0  2  0  0  0  0  0  0  0  0  0
   25.6099  -20.9610  -11.1314 N   0  0  0  0  0  0  0  0  0  0  0  0
   24.8731  -20.4748  -12.2808 C   0  0  0  0  0  0  0  0  0  0  0  0
   24.8535  -22.0396  -10.4971 O   0  0  0  0  0  0  0  0  0  0  0  0
   23.5975  -22.0090  -10.4553 O   0  0  0  0  0  0  0  0  0  0  0  0
  2  1  1  6
  3  2  1  0
  4  2  1  0
  4  5  1  1
  6  4  1  0
  6 16  1  0
  7  6  2  0
  9  8  1  0
 10  9  2  0
 11  9  1  0
 12 13  1  0
 12 11  1  0
 13 14  1  0
 15 14  1  6
 15 16  1  0
 17 15  1  0
 18 17  2  0
 19 20  1  0
 21 20  1  0
 21 23  1  0
 21 22  1  6
 23 25  1  0
 23 24  1  6
 24 17  1  0
 25 27  1  0
 26 25  2  0
M  END
$$$$
