TRI.pdb
     RDKit          3D

 27 26  0  0  1  0  0  0  0  0999 V2000
   29.3431  -21.6879  -15.6450 C   0  0  0  0  0  0  0  0  0  0  0  0
   28.5782  -21.2507  -14.4340 C   0  0  1  0  0  0  0  0  0  0  0  0
   29.2634  -20.1963  -13.8153 O   0  0  0  0  0  0  0  0  0  0  0  0
   27.1981  -20.7310  -14.8425 C   0  0  2  0  0  0  0  0  0  0  0  0
   27.4218  -19.5843  -15.7354 N   0  0  0  0  0  0  0  0  0  0  0  0
   26.4520  -20.2527  -13.6696 C   0  0  0  0  0  0  0  0  0  0  0  0
   26.6033  -19.0380  -13.2889 O   0  0  0  0  0  0  0  0  0  0  0  0
   21.0842  -17.9793  -14.3011 N   0  0  0  0  0  0  0  0  0  0  0  0
   20.8124  -19.1856  -15.0092 C   0  0  0  0  0  0  0  0  0  0  0  0
   20.4492  -19.1085  -16.2611 N   0  0  0  0  0  0  0  0  0  0  0  0
   20.9180  -20.4736  -14.4168 N   0  0  0  0  0  0  0  0  0  0  0  0
   21.4024  -20.5839  -13.0572 C   0  0  0  0  0  0  0  0  0  0  0  0
   22.8723  -20.2844  -12.9488 C   0  0  0  0  0  0  0  0  0  0  0  0
   23.4814  -20.8267  -11.6767 C   0  0  0  0  0  0  0  0  0  0  0  0
   24.9548  -20.4606  -11.6708 C   0  0  2  0  0  0  0  0  0  0  0  0
   25.5495  -21.0078  -12.8835 N   0  0  0  0  0  0  0  0  0  0  0  0
   25.6416  -20.9317  -10.4573 C   0  0  0  0  0  0  0  0  0  0  0  0
   26.0813  -22.1085  -10.4041 O   0  0  0  0  0  0  0  0  0  0  0  0
   20.2379  -19.9682  -16.8082 C   0  0  0  0  0  0  0  0  0  0  0  0
   28.8666  -18.3314   -6.8997 C   0  0  0  0  0  0  0  0  0  0  0  0
   28.1418  -19.3731   -7.7033 C   0  0  2  0  0  0  0  0  0  0  0  0
   26.7690  -19.6640   -7.1660 C   0  0  0  0  0  0  0  0  0  0  0  0
   26.9074  -20.1901   -5.7585 C   0  0  2  0  0  0  0  0  0  0  0  0
   26.0216  -20.6759   -7.9863 N   0  0  0  0  0  0  0  0  0  0  0  0
   25.8439  -20.1179   -9.3120 C   0  0  0  0  0  0  0  0  0  0  0  0
   24.7143  -21.0291   -7.4346 O   0  0  0  0  0  0  0  0  0  0  0  0
   23.6831  -20.3860   -7.7561 O   0  0  0  0  0  0  0  0  0  0  0  0
  2  1  1  6
  3  2  1  0
  4  2  1  0
  4  5  1  6
  6  4  1  0
  6 16  1  0
  7  6  2  0
  9  8  1  0
 10  9  2  0
 11  9  1  0
 12 13  1  0
 12 11  1  0
 13 14  1  0
 15 14  1  1
 15 16  1  0
 17 15  1  0
 18 17  2  0
 19 20  1  0
 21 20  1  0
 21 23  1  0
 21 22  1  6
 23 25  1  0
 23 24  1  6
 24 17  1  0
 25 27  1  0
 26 25  2  0
M  END
$$$$
