TRI.pdb
     RDKit          3D

 27 26  0  0  1  0  0  0  0  0999 V2000
   19.8217  -17.0959  -14.8574 C   0  0  0  0  0  0  0  0  0  0  0  0
   20.9703  -17.9935  -14.5145 C   0  0  1  0  0  0  0  0  0  0  0  0
   20.7407  -18.5720  -13.2588 O   0  0  0  0  0  0  0  0  0  0  0  0
   21.0750  -19.1279  -15.5360 C   0  0  2  0  0  0  0  0  0  0  0  0
   19.9641  -20.0516  -15.2622 N   0  0  0  0  0  0  0  0  0  0  0  0
   22.3328  -19.8697  -15.3658 C   0  0  0  0  0  0  0  0  0  0  0  0
   22.3927  -20.7992  -14.4850 O   0  0  0  0  0  0  0  0  0  0  0  0
   29.0146  -23.5170  -16.8464 N   0  0  0  0  0  0  0  0  0  0  0  0
   28.3653  -23.4245  -18.1115 C   0  0  0  0  0  0  0  0  0  0  0  0
   28.2033  -24.5137  -18.8133 N   0  0  0  0  0  0  0  0  0  0  0  0
   27.8835  -22.1996  -18.6484 N   0  0  0  0  0  0  0  0  0  0  0  0
   27.9163  -21.0100  -17.8242 C   0  0  0  0  0  0  0  0  0  0  0  0
   26.9252  -21.0708  -16.6946 C   0  0  0  0  0  0  0  0  0  0  0  0
   25.6199  -20.3883  -17.0323 C   0  0  0  0  0  0  0  0  0  0  0  0
   24.7355  -20.4345  -15.7991 C   0  0  2  0  0  0  0  0  0  0  0  0
   23.5307  -19.6690  -16.0921 N   0  0  0  0  0  0  0  0  0  0  0  0
   25.4271  -19.9387  -14.5981 C   0  0  0  0  0  0  0  0  0  0  0  0
   25.6365  -18.7065  -14.4608 O   0  0  0  0  0  0  0  0  0  0  0  0
   27.8301  -24.4713  -19.7838 C   0  0  0  0  0  0  0  0  0  0  0  0
   24.0148  -21.0221   -9.7092 C   0  0  0  0  0  0  0  0  0  0  0  0
   24.6434  -20.3676  -10.9061 C   0  0  2  0  0  0  0  0  0  0  0  0
   26.0285  -20.8803  -11.1827 C   0  0  0  0  0  0  0  0  0  0  0  0
   26.9086  -20.5411  -10.0048 C   0  0  2  0  0  0  0  0  0  0  0  0
   26.6352  -20.2885  -12.4225 N   0  0  0  0  0  0  0  0  0  0  0  0
   25.8846  -20.7881  -13.5572 C   0  0  0  0  0  0  0  0  0  0  0  0
   28.0489  -20.6175  -12.5992 O   0  0  0  0  0  0  0  0  0  0  0  0
   28.3999  -21.6017  -13.2980 O   0  0  0  0  0  0  0  0  0  0  0  0
  2  1  1  6
  3  2  1  0
  4  2  1  0
  4  5  1  1
  6  4  1  0
  6 16  1  0
  7  6  2  0
  9  8  1  0
 10  9  2  0
 11  9  1  0
 12 13  1  0
 12 11  1  0
 13 14  1  0
 15 14  1  6
 15 16  1  0
 17 15  1  0
 18 17  2  0
 19 20  1  0
 21 20  1  0
 21 23  1  0
 21 22  1  6
 23 25  1  0
 23 24  1  6
 24 17  1  0
 25 27  1  0
 26 25  2  0
M  END
$$$$
