TRI.pdb
     RDKit          3D

 27 26  0  0  1  0  0  0  0  0999 V2000
   17.0576  -18.4170  -13.7239 C   0  0  0  0  0  0  0  0  0  0  0  0
   17.4043  -19.6877  -13.0113 C   0  0  1  0  0  0  0  0  0  0  0  0
   16.2259  -20.2918  -12.5526 O   0  0  0  0  0  0  0  0  0  0  0  0
   18.0814  -20.6640  -13.9755 C   0  0  2  0  0  0  0  0  0  0  0  0
   18.0355  -21.9899  -13.3414 N   0  0  0  0  0  0  0  0  0  0  0  0
   19.4934  -20.3062  -14.1751 C   0  0  0  0  0  0  0  0  0  0  0  0
   19.7816  -19.1483  -14.6436 O   0  0  0  0  0  0  0  0  0  0  0  0
   25.5859  -23.5529  -15.7678 N   0  0  0  0  0  0  0  0  0  0  0  0
   26.6708  -22.7986  -15.2346 C   0  0  0  0  0  0  0  0  0  0  0  0
   27.7780  -22.7218  -15.9227 N   0  0  0  0  0  0  0  0  0  0  0  0
   26.6061  -22.1230  -13.9855 N   0  0  0  0  0  0  0  0  0  0  0  0
   25.3673  -22.1475  -13.2369 C   0  0  0  0  0  0  0  0  0  0  0  0
   24.3357  -21.2150  -13.8097 C   0  0  0  0  0  0  0  0  0  0  0  0
   22.9229  -21.6652  -13.5183 C   0  0  0  0  0  0  0  0  0  0  0  0
   21.9732  -20.6663  -14.1550 C   0  0  2  0  0  0  0  0  0  0  0  0
   20.6141  -21.1241  -13.8967 N   0  0  0  0  0  0  0  0  0  0  0  0
   22.2327  -20.4886  -15.5929 C   0  0  0  0  0  0  0  0  0  0  0  0
   21.8293  -21.3524  -16.4128 O   0  0  0  0  0  0  0  0  0  0  0  0
   28.6493  -22.3521  -15.4900 C   0  0  0  0  0  0  0  0  0  0  0  0
   20.8697  -16.1829  -18.1245 C   0  0  0  0  0  0  0  0  0  0  0  0
   21.2646  -17.6048  -17.8445 C   0  0  2  0  0  0  0  0  0  0  0  0
   22.7505  -17.8159  -17.9182 C   0  0  0  0  0  0  0  0  0  0  0  0
   23.2042  -17.5373  -19.3302 C   0  0  2  0  0  0  0  0  0  0  0  0
   23.1628  -19.2115  -17.5471 N   0  0  0  0  0  0  0  0  0  0  0  0
   22.9289  -19.3725  -16.1259 C   0  0  0  0  0  0  0  0  0  0  0  0
   24.5646  -19.5071  -17.8398 O   0  0  0  0  0  0  0  0  0  0  0  0
   25.4863  -19.0316  -17.1294 O   0  0  0  0  0  0  0  0  0  0  0  0
  2  1  1  6
  3  2  1  0
  4  2  1  0
  4  5  1  1
  6  4  1  0
  6 16  1  0
  7  6  2  0
  9  8  1  0
 10  9  2  0
 11  9  1  0
 12 13  1  0
 12 11  1  0
 13 14  1  0
 15 14  1  6
 15 16  1  0
 17 15  1  0
 18 17  2  0
 19 20  1  0
 21 20  1  0
 21 23  1  0
 21 22  1  1
 23 25  1  0
 23 24  1  6
 24 17  1  0
 25 27  1  0
 26 25  2  0
M  END
$$$$
