TRI.pdb
     RDKit          3D

 27 26  0  0  1  0  0  0  0  0999 V2000
   18.2803  -18.0413  -15.2453 C   0  0  0  0  0  0  0  0  0  0  0  0
   19.4336  -18.7806  -14.6404 C   0  0  1  0  0  0  0  0  0  0  0  0
   19.6554  -18.3007  -13.3425 O   0  0  0  0  0  0  0  0  0  0  0  0
   19.1058  -20.2715  -14.5343 C   0  0  2  0  0  0  0  0  0  0  0  0
   18.1932  -20.4267  -13.3917 N   0  0  0  0  0  0  0  0  0  0  0  0
   20.3183  -21.0543  -14.2548 C   0  0  0  0  0  0  0  0  0  0  0  0
   20.5767  -21.3904  -13.0450 O   0  0  0  0  0  0  0  0  0  0  0  0
   27.3381  -23.6989  -17.0667 N   0  0  0  0  0  0  0  0  0  0  0  0
   27.0759  -24.9858  -16.5138 C   0  0  0  0  0  0  0  0  0  0  0  0
   28.0843  -25.7127  -16.1138 N   0  0  0  0  0  0  0  0  0  0  0  0
   25.7651  -25.5185  -16.3761 N   0  0  0  0  0  0  0  0  0  0  0  0
   24.6325  -24.7086  -16.7717 C   0  0  0  0  0  0  0  0  0  0  0  0
   24.0932  -23.8866  -15.6335 C   0  0  0  0  0  0  0  0  0  0  0  0
   22.8892  -23.0651  -16.0323 C   0  0  0  0  0  0  0  0  0  0  0  0
   22.4247  -22.2928  -14.8104 C   0  0  2  0  0  0  0  0  0  0  0  0
   21.2687  -21.4981  -15.2047 N   0  0  0  0  0  0  0  0  0  0  0  0
   23.4956  -21.4631  -14.2350 C   0  0  0  0  0  0  0  0  0  0  0  0
   23.7747  -20.3529  -14.7552 O   0  0  0  0  0  0  0  0  0  0  0  0
   27.9351  -26.6771  -15.7523 C   0  0  0  0  0  0  0  0  0  0  0  0
   25.8210  -19.8367   -9.3841 C   0  0  0  0  0  0  0  0  0  0  0  0
   26.5524  -20.6789  -10.3900 C   0  0  2  0  0  0  0  0  0  0  0  0
   25.6310  -21.5670  -11.1776 C   0  0  0  0  0  0  0  0  0  0  0  0
   26.3122  -22.8968  -11.3885 C   0  0  2  0  0  0  0  0  0  0  0  0
   25.2694  -20.9939  -12.5179 N   0  0  0  0  0  0  0  0  0  0  0  0
   24.2534  -21.8488  -13.0986 C   0  0  0  0  0  0  0  0  0  0  0  0
   26.4003  -20.8973  -13.4397 O   0  0  0  0  0  0  0  0  0  0  0  0
   26.7354  -21.8754  -14.1546 O   0  0  0  0  0  0  0  0  0  0  0  0
  2  1  1  1
  3  2  1  0
  4  2  1  0
  4  5  1  1
  6  4  1  0
  6 16  1  0
  7  6  2  0
  9  8  1  0
 10  9  2  0
 11  9  1  0
 12 13  1  0
 12 11  1  0
 13 14  1  0
 15 14  1  6
 15 16  1  0
 17 15  1  0
 18 17  2  0
 19 20  1  0
 21 20  1  0
 21 23  1  0
 21 22  1  6
 23 25  1  0
 23 24  1  6
 24 17  1  0
 25 27  1  0
 26 25  2  0
M  END
$$$$
