TRI.pdb
     RDKit          3D

 27 26  0  0  1  0  0  0  0  0999 V2000
   23.7652  -22.2340  -17.5440 C   0  0  0  0  0  0  0  0  0  0  0  0
   25.0338  -21.6763  -18.1117 C   0  0  1  0  0  0  0  0  0  0  0  0
   24.7964  -21.2401  -19.4222 O   0  0  0  0  0  0  0  0  0  0  0  0
   25.4884  -20.4651  -17.2946 C   0  0  2  0  0  0  0  0  0  0  0  0
   26.6345  -19.8781  -18.0045 N   0  0  0  0  0  0  0  0  0  0  0  0
   25.9458  -20.8775  -15.9597 C   0  0  0  0  0  0  0  0  0  0  0  0
   25.1438  -21.5293  -15.2011 O   0  0  0  0  0  0  0  0  0  0  0  0
   32.1427  -21.7063   -9.6628 N   0  0  0  0  0  0  0  0  0  0  0  0
   32.2734  -22.2849  -10.9584 C   0  0  0  0  0  0  0  0  0  0  0  0
   33.0284  -23.3410  -11.0992 N   0  0  0  0  0  0  0  0  0  0  0  0
   31.6194  -21.7664  -12.1092 N   0  0  0  0  0  0  0  0  0  0  0  0
   30.7171  -20.6445  -11.9587 C   0  0  0  0  0  0  0  0  0  0  0  0
   29.3030  -20.9953  -12.3319 C   0  0  0  0  0  0  0  0  0  0  0  0
   28.9977  -20.7032  -13.7828 C   0  0  0  0  0  0  0  0  0  0  0  0
   27.5294  -21.0069  -14.0219 C   0  0  2  0  0  0  0  0  0  0  0  0
   27.2194  -20.6298  -15.3949 N   0  0  0  0  0  0  0  0  0  0  0  0
   26.6547  -20.3290  -13.0515 C   0  0  0  0  0  0  0  0  0  0  0  0
   26.6810  -19.0757  -12.9545 O   0  0  0  0  0  0  0  0  0  0  0  0
   33.1678  -23.7750  -12.0348 C   0  0  0  0  0  0  0  0  0  0  0  0
   21.1128  -19.8602  -11.2615 C   0  0  0  0  0  0  0  0  0  0  0  0
   22.5319  -19.7535  -10.7808 C   0  0  2  0  0  0  0  0  0  0  0  0
   23.5066  -20.4237  -11.7074 C   0  0  0  0  0  0  0  0  0  0  0  0
   23.1276  -21.8791  -11.8297 C   0  0  2  0  0  0  0  0  0  0  0  0
   24.9267  -20.3353  -11.2269 N   0  0  0  0  0  0  0  0  0  0  0  0
   25.7588  -21.0210  -12.1953 C   0  0  0  0  0  0  0  0  0  0  0  0
   25.1380  -20.9278   -9.9069 O   0  0  0  0  0  0  0  0  0  0  0  0
   25.5634  -22.1047   -9.7885 O   0  0  0  0  0  0  0  0  0  0  0  0
  2  1  1  1
  3  2  1  0
  4  2  1  0
  4  5  1  6
  6  4  1  0
  6 16  1  0
  7  6  2  0
  9  8  1  0
 10  9  2  0
 11  9  1  0
 12 13  1  0
 12 11  1  0
 13 14  1  0
 15 14  1  1
 15 16  1  0
 17 15  1  0
 18 17  2  0
 19 20  1  0
 21 20  1  0
 21 23  1  0
 21 22  1  6
 23 25  1  0
 23 24  1  1
 24 17  1  0
 25 27  1  0
 26 25  2  0
M  END
$$$$
