TRI.pdb
     RDKit          3D

 27 26  0  0  1  0  0  0  0  0999 V2000
   28.2445  -23.7304  -18.9522 C   0  0  0  0  0  0  0  0  0  0  0  0
   27.8001  -22.8838  -17.7997 C   0  0  1  0  0  0  0  0  0  0  0  0
   28.8544  -22.7668  -16.8838 O   0  0  0  0  0  0  0  0  0  0  0  0
   27.4490  -21.4759  -18.2854 C   0  0  2  0  0  0  0  0  0  0  0  0
   28.6754  -20.9063  -18.8631 N   0  0  0  0  0  0  0  0  0  0  0  0
   27.0397  -20.6222  -17.1607 C   0  0  0  0  0  0  0  0  0  0  0  0
   27.8552  -19.7346  -16.7244 O   0  0  0  0  0  0  0  0  0  0  0  0
   20.9923  -21.3456  -16.5527 N   0  0  0  0  0  0  0  0  0  0  0  0
   20.3715  -20.2209  -15.9362 C   0  0  0  0  0  0  0  0  0  0  0  0
   19.3109  -20.4165  -15.2000 N   0  0  0  0  0  0  0  0  0  0  0  0
   20.8525  -18.8913  -16.0843 N   0  0  0  0  0  0  0  0  0  0  0  0
   22.1186  -18.6724  -16.7510 C   0  0  0  0  0  0  0  0  0  0  0  0
   23.2103  -19.5517  -16.2060 C   0  0  0  0  0  0  0  0  0  0  0  0
   24.4593  -18.7756  -15.8581 C   0  0  0  0  0  0  0  0  0  0  0  0
   25.5049  -19.7648  -15.3749 C   0  0  2  0  0  0  0  0  0  0  0  0
   25.8002  -20.6684  -16.4793 N   0  0  0  0  0  0  0  0  0  0  0  0
   25.0721  -20.4889  -14.1688 C   0  0  0  0  0  0  0  0  0  0  0  0
   24.3771  -21.5308  -14.2804 O   0  0  0  0  0  0  0  0  0  0  0  0
   18.7786  -19.6124  -14.8086 C   0  0  0  0  0  0  0  0  0  0  0  0
   28.2722  -20.5088  -11.4930 C   0  0  0  0  0  0  0  0  0  0  0  0
   27.2295  -21.2902  -10.7457 C   0  0  2  0  0  0  0  0  0  0  0  0
   25.9458  -20.5272  -10.5797 C   0  0  0  0  0  0  0  0  0  0  0  0
   25.3234  -20.9181   -9.2619 C   0  0  2  0  0  0  0  0  0  0  0  0
   24.9574  -20.7982  -11.6775 N   0  0  0  0  0  0  0  0  0  0  0  0
   25.3994  -20.0729  -12.8519 C   0  0  0  0  0  0  0  0  0  0  0  0
   23.5907  -20.3948  -11.3500 O   0  0  0  0  0  0  0  0  0  0  0  0
   23.2019  -19.2153  -11.5441 O   0  0  0  0  0  0  0  0  0  0  0  0
  2  1  1  6
  3  2  1  0
  4  2  1  0
  4  5  1  1
  6  4  1  0
  6 16  1  0
  7  6  2  0
  9  8  1  0
 10  9  2  0
 11  9  1  0
 12 13  1  0
 12 11  1  0
 13 14  1  0
 15 14  1  6
 15 16  1  0
 17 15  1  0
 18 17  2  0
 19 20  1  0
 21 20  1  0
 21 23  1  0
 21 22  1  6
 23 25  1  0
 23 24  1  6
 24 17  1  0
 25 27  1  0
 26 25  2  0
M  END
$$$$
