TRI.pdb
     RDKit          3D

 27 26  0  0  1  0  0  0  0  0999 V2000
   26.6373  -25.0199  -16.2942 C   0  0  0  0  0  0  0  0  0  0  0  0
   28.0795  -24.6208  -16.2356 C   0  0  1  0  0  0  0  0  0  0  0  0
   28.8516  -25.5976  -16.8788 O   0  0  0  0  0  0  0  0  0  0  0  0
   28.2905  -23.2994  -16.9776 C   0  0  2  0  0  0  0  0  0  0  0  0
   29.7150  -22.9594  -16.8456 N   0  0  0  0  0  0  0  0  0  0  0  0
   27.5082  -22.2208  -16.3564 C   0  0  0  0  0  0  0  0  0  0  0  0
   27.9004  -21.7328  -15.2377 O   0  0  0  0  0  0  0  0  0  0  0  0
   20.6596  -18.5761  -15.7860 N   0  0  0  0  0  0  0  0  0  0  0  0
   21.1734  -17.2537  -15.9182 C   0  0  0  0  0  0  0  0  0  0  0  0
   20.5264  -16.2710  -15.3516 N   0  0  0  0  0  0  0  0  0  0  0  0
   22.3605  -16.9511  -16.6394 N   0  0  0  0  0  0  0  0  0  0  0  0
   23.0502  -18.0163  -17.3359 C   0  0  0  0  0  0  0  0  0  0  0  0
   23.9843  -18.7764  -16.4348 C   0  0  0  0  0  0  0  0  0  0  0  0
   24.7762  -19.8280  -17.1767 C   0  0  0  0  0  0  0  0  0  0  0  0
   25.6385  -20.5632  -16.1661 C   0  0  2  0  0  0  0  0  0  0  0  0
   26.3276  -21.6355  -16.8723 N   0  0  0  0  0  0  0  0  0  0  0  0
   24.8552  -21.0662  -15.0260 C   0  0  0  0  0  0  0  0  0  0  0  0
   23.9548  -21.9232  -15.2151 O   0  0  0  0  0  0  0  0  0  0  0  0
   20.8132  -15.2832  -15.5100 C   0  0  0  0  0  0  0  0  0  0  0  0
   27.0573  -21.0633   -9.9483 C   0  0  0  0  0  0  0  0  0  0  0  0
   26.3143  -21.4660  -11.1900 C   0  0  2  0  0  0  0  0  0  0  0  0
   24.9845  -20.7777  -11.3151 C   0  0  0  0  0  0  0  0  0  0  0  0
   24.1241  -21.1818  -10.1431 C   0  0  2  0  0  0  0  0  0  0  0  0
   24.2620  -21.1261  -12.5848 N   0  0  0  0  0  0  0  0  0  0  0  0
   25.0587  -20.6321  -13.6901 C   0  0  0  0  0  0  0  0  0  0  0  0
   22.9174  -20.5579  -12.6702 O   0  0  0  0  0  0  0  0  0  0  0  0
   22.7466  -19.3418  -12.9385 O   0  0  0  0  0  0  0  0  0  0  0  0
  2  1  1  6
  3  2  1  0
  4  2  1  0
  4  5  1  1
  6  4  1  0
  6 16  1  0
  7  6  2  0
  9  8  1  0
 10  9  2  0
 11  9  1  0
 12 13  1  0
 12 11  1  0
 13 14  1  0
 15 14  1  6
 15 16  1  0
 17 15  1  0
 18 17  2  0
 19 20  1  0
 21 20  1  0
 21 23  1  0
 21 22  1  6
 23 25  1  0
 23 24  1  6
 24 17  1  0
 25 27  1  0
 26 25  2  0
M  END
$$$$
