TRI.pdb
     RDKit          3D

 27 26  0  0  1  0  0  0  0  0999 V2000
   28.9933  -21.9297  -12.8151 C   0  0  0  0  0  0  0  0  0  0  0  0
   28.4401  -21.2166  -14.0101 C   0  0  1  0  0  0  0  0  0  0  0  0
   28.7000  -21.9770  -15.1583 O   0  0  0  0  0  0  0  0  0  0  0  0
   26.9220  -21.0738  -13.8818 C   0  0  2  0  0  0  0  0  0  0  0  0
   26.4631  -20.3265  -15.0622 N   0  0  0  0  0  0  0  0  0  0  0  0
   26.5700  -20.2931  -12.6868 C   0  0  0  0  0  0  0  0  0  0  0  0
   26.3077  -19.0448  -12.8142 O   0  0  0  0  0  0  0  0  0  0  0  0
   19.4096  -20.0691  -11.2443 N   0  0  0  0  0  0  0  0  0  0  0  0
   19.9816  -21.2931  -10.7913 C   0  0  0  0  0  0  0  0  0  0  0  0
   19.2061  -22.3352  -10.6581 N   0  0  0  0  0  0  0  0  0  0  0  0
   21.3606  -21.4352  -10.4763 N   0  0  0  0  0  0  0  0  0  0  0  0
   22.2434  -20.3027  -10.6594 C   0  0  0  0  0  0  0  0  0  0  0  0
   23.6763  -20.6402  -10.3513 C   0  0  0  0  0  0  0  0  0  0  0  0
   24.6113  -19.4801  -10.6031 C   0  0  0  0  0  0  0  0  0  0  0  0
   26.0207  -19.9346  -10.2682 C   0  0  2  0  0  0  0  0  0  0  0  0
   26.4822  -20.7807  -11.3612 N   0  0  0  0  0  0  0  0  0  0  0  0
   26.0909  -20.6226   -8.9690 C   0  0  0  0  0  0  0  0  0  0  0  0
   25.7194  -21.8201   -8.8745 O   0  0  0  0  0  0  0  0  0  0  0  0
   19.5915  -23.2488  -10.3421 C   0  0  0  0  0  0  0  0  0  0  0  0
   30.2462  -19.9259   -4.5842 C   0  0  0  0  0  0  0  0  0  0  0  0
   29.0320  -20.6776   -5.0499 C   0  0  2  0  0  0  0  0  0  0  0  0
   28.3217  -19.9839   -6.1777 C   0  0  0  0  0  0  0  0  0  0  0  0
   27.8431  -18.6395   -5.6872 C   0  0  2  0  0  0  0  0  0  0  0  0
   27.1406  -20.7574   -6.6897 N   0  0  0  0  0  0  0  0  0  0  0  0
   26.5647  -20.0015   -7.7840 C   0  0  0  0  0  0  0  0  0  0  0  0
   26.1124  -20.9971   -5.6781 O   0  0  0  0  0  0  0  0  0  0  0  0
   26.3610  -21.6851   -4.6557 O   0  0  0  0  0  0  0  0  0  0  0  0
  2  1  1  1
  3  2  1  0
  4  2  1  0
  4  5  1  6
  6  4  1  0
  6 16  1  0
  7  6  2  0
  9  8  1  0
 10  9  2  0
 11  9  1  0
 12 13  1  0
 12 11  1  0
 13 14  1  0
 15 14  1  6
 15 16  1  0
 17 15  1  0
 18 17  2  0
 19 20  1  0
 21 20  1  0
 21 23  1  0
 21 22  1  6
 23 25  1  0
 23 24  1  1
 24 17  1  0
 25 27  1  0
 26 25  2  0
M  END
$$$$
