TRI.pdb
     RDKit          3D

 27 26  0  0  1  0  0  0  0  0999 V2000
   25.5187  -15.3531  -18.4600 C   0  0  0  0  0  0  0  0  0  0  0  0
   25.9118  -16.2604  -19.5847 C   0  0  1  0  0  0  0  0  0  0  0  0
   26.4707  -15.4949  -20.6170 O   0  0  0  0  0  0  0  0  0  0  0  0
   26.9775  -17.2520  -19.1130 C   0  0  2  0  0  0  0  0  0  0  0  0
   27.2366  -18.1652  -20.2361 N   0  0  0  0  0  0  0  0  0  0  0  0
   26.4826  -18.0525  -17.9836 C   0  0  0  0  0  0  0  0  0  0  0  0
   25.5103  -18.8655  -18.1760 O   0  0  0  0  0  0  0  0  0  0  0  0
   25.9053  -21.9888  -12.3193 N   0  0  0  0  0  0  0  0  0  0  0  0
   25.8339  -21.1806  -11.1479 C   0  0  0  0  0  0  0  0  0  0  0  0
   24.9008  -21.4322  -10.2696 N   0  0  0  0  0  0  0  0  0  0  0  0
   26.7323  -20.1100  -10.8881 N   0  0  0  0  0  0  0  0  0  0  0  0
   27.4214  -19.4861  -11.9977 C   0  0  0  0  0  0  0  0  0  0  0  0
   26.5832  -19.4562  -13.2461 C   0  0  0  0  0  0  0  0  0  0  0  0
   27.2964  -18.8021  -14.4067 C   0  0  0  0  0  0  0  0  0  0  0  0
   26.3601  -18.8218  -15.6018 C   0  0  2  0  0  0  0  0  0  0  0  0
   26.9768  -18.0293  -16.6577 N   0  0  0  0  0  0  0  0  0  0  0  0
   25.0124  -18.3370  -15.2622 C   0  0  0  0  0  0  0  0  0  0  0  0
   24.8664  -17.1907  -14.7666 O   0  0  0  0  0  0  0  0  0  0  0  0
   24.8393  -20.8849   -9.3865 C   0  0  0  0  0  0  0  0  0  0  0  0
   19.4628  -17.9624  -17.3021 C   0  0  0  0  0  0  0  0  0  0  0  0
   20.2836  -18.0727  -16.0490 C   0  0  2  0  0  0  0  0  0  0  0  0
   21.6747  -18.5756  -16.3132 C   0  0  0  0  0  0  0  0  0  0  0  0
   21.5794  -19.9655  -16.8928 C   0  0  2  0  0  0  0  0  0  0  0  0
   22.5233  -18.6280  -15.0752 N   0  0  0  0  0  0  0  0  0  0  0  0
   23.8355  -19.1040  -15.4651 C   0  0  0  0  0  0  0  0  0  0  0  0
   21.9864  -19.5002  -14.0317 O   0  0  0  0  0  0  0  0  0  0  0  0
   20.9770  -19.1612  -13.3635 O   0  0  0  0  0  0  0  0  0  0  0  0
  2  1  1  1
  3  2  1  0
  4  2  1  0
  4  5  1  6
  6  4  1  0
  6 16  1  0
  7  6  2  0
  9  8  1  0
 10  9  2  0
 11  9  1  0
 12 13  1  0
 12 11  1  0
 13 14  1  0
 15 14  1  1
 15 16  1  0
 17 15  1  0
 18 17  2  0
 19 20  1  0
 21 20  1  0
 21 23  1  0
 21 22  1  6
 23 25  1  0
 23 24  1  1
 24 17  1  0
 25 27  1  0
 26 25  2  0
M  END
$$$$
