TRI.pdb
     RDKit          3D

 27 26  0  0  1  0  0  0  0  0999 V2000
   27.3534  -24.3561  -17.7682 C   0  0  0  0  0  0  0  0  0  0  0  0
   27.0779  -23.3937  -16.6544 C   0  0  1  0  0  0  0  0  0  0  0  0
   27.1922  -24.0655  -15.4297 O   0  0  0  0  0  0  0  0  0  0  0  0
   28.1133  -22.2671  -16.6641 C   0  0  2  0  0  0  0  0  0  0  0  0
   29.4289  -22.8958  -16.4736 N   0  0  0  0  0  0  0  0  0  0  0  0
   27.8879  -21.3409  -15.5449 C   0  0  0  0  0  0  0  0  0  0  0  0
   28.7886  -21.2282  -14.6396 O   0  0  0  0  0  0  0  0  0  0  0  0
   21.8969  -20.1767  -16.3394 N   0  0  0  0  0  0  0  0  0  0  0  0
   21.7657  -19.1089  -15.4051 C   0  0  0  0  0  0  0  0  0  0  0  0
   20.7428  -19.1094  -14.5933 N   0  0  0  0  0  0  0  0  0  0  0  0
   22.6976  -18.0393  -15.3134 N   0  0  0  0  0  0  0  0  0  0  0  0
   23.8438  -18.0285  -16.1975 C   0  0  0  0  0  0  0  0  0  0  0  0
   24.8963  -19.0183  -15.7796 C   0  0  0  0  0  0  0  0  0  0  0  0
   25.5018  -18.6867  -14.4354 C   0  0  0  0  0  0  0  0  0  0  0  0
   26.6087  -19.6890  -14.1612 C   0  0  2  0  0  0  0  0  0  0  0  0
   26.7478  -20.5267  -15.3455 N   0  0  0  0  0  0  0  0  0  0  0  0
   26.3535  -20.4837  -12.9489 C   0  0  0  0  0  0  0  0  0  0  0  0
   25.8302  -21.6229  -13.0463 O   0  0  0  0  0  0  0  0  0  0  0  0
   20.5954  -18.3279  -13.9220 C   0  0  0  0  0  0  0  0  0  0  0  0
   27.4220  -20.1639   -6.8231 C   0  0  0  0  0  0  0  0  0  0  0  0
   26.7574  -20.8418   -7.9871 C   0  0  2  0  0  0  0  0  0  0  0  0
   26.9735  -20.1095   -9.2812 C   0  0  0  0  0  0  0  0  0  0  0  0
   26.3875  -18.7250   -9.1515 C   0  0  2  0  0  0  0  0  0  0  0  0
   26.3343  -20.7942  -10.4552 N   0  0  0  0  0  0  0  0  0  0  0  0
   26.6701  -20.0319  -11.6412 C   0  0  0  0  0  0  0  0  0  0  0  0
   24.8800  -20.9041  -10.3506 O   0  0  0  0  0  0  0  0  0  0  0  0
   24.1289  -20.0333  -10.8583 O   0  0  0  0  0  0  0  0  0  0  0  0
  2  1  1  6
  3  2  1  0
  4  2  1  0
  4  5  1  1
  6  4  1  0
  6 16  1  0
  7  6  2  0
  9  8  1  0
 10  9  2  0
 11  9  1  0
 12 13  1  0
 12 11  1  0
 13 14  1  0
 15 14  1  6
 15 16  1  0
 17 15  1  0
 18 17  2  0
 19 20  1  0
 21 20  1  0
 21 23  1  0
 21 22  1  6
 23 25  1  0
 23 24  1  6
 24 17  1  0
 25 27  1  0
 26 25  2  0
M  END
$$$$
