GAH.pdb
     RDKit          3D

 20 20  0  0  1  0  0  0  0  0999 V2000
   21.1523  -12.7805  -19.7009 N   0  0  0  0  0  0  0  0  0  0  0  0
   22.2601  -11.9923  -19.2599 C   0  0  0  0  0  0  0  0  0  0  0  0
   21.9775  -11.3078  -17.9541 C   0  0  0  0  0  0  0  0  0  0  0  0
   20.8733  -10.7816  -17.6910 O   0  0  0  0  0  0  0  0  0  0  0  0
   24.0254  -11.0308  -14.8421 C   0  0  0  0  0  0  0  0  0  0  0  0
   22.9026  -10.5201  -15.7496 C   0  0  2  0  0  0  0  0  0  0  0  0
   22.9870  -11.2470  -16.9738 N   0  0  0  0  0  0  0  0  0  0  0  0
   22.9298   -9.0737  -15.8868 C   0  0  0  0  0  0  0  0  0  0  0  0
   23.7334   -8.5260  -16.6701 O   0  0  0  0  0  0  0  0  0  0  0  0
   22.0449   -8.2700  -15.1331 N   0  0  0  0  0  0  0  0  0  0  0  0
   22.0549   -6.8094  -15.2009 C   0  0  1  0  0  0  0  0  0  0  0  0
   20.9512   -6.3146  -16.1114 C   0  0  0  0  0  0  0  0  0  0  0  0
   20.8927   -4.8337  -16.1351 C   0  0  0  0  0  0  0  0  0  0  0  0
   21.8409   -3.9689  -16.6898 C   0  0  0  0  0  0  0  0  0  0  0  0
   21.4522   -2.6933  -16.5239 N   0  0  0  0  0  0  0  0  0  0  0  0
   20.2709   -2.7334  -15.8721 C   0  0  0  0  0  0  0  0  0  0  0  0
   19.9366   -4.0134  -15.6397 N   0  0  0  0  0  0  0  0  0  0  0  0
   21.9832   -6.2101  -13.8566 C   0  0  0  0  0  0  0  0  0  0  0  0
   21.4035   -6.7623  -12.8915 O   0  0  0  0  0  0  0  0  0  0  0  0
   22.5734   -4.9639  -13.5846 O   0  0  0  0  0  0  0  0  0  0  0  0
  2  1  1  0
  3  2  1  0
  4  3  2  0
  6  5  1  1
  6  7  1  0
  7  3  1  0
  8  6  1  0
  8  9  2  0
 10  8  1  0
 11 10  1  0
 12 13  1  0
 11 12  1  6
 13 14  2  0
 14 15  1  0
 16 15  1  0
 17 13  1  0
 17 16  2  0
 18 11  1  0
 19 18  2  0
 20 18  1  0
M  END
$$$$
