GAH.pdb
     RDKit          3D

 20 20  0  0  1  0  0  0  0  0999 V2000
   26.9744  -14.8725  -15.5570 N   0  0  0  0  0  0  0  0  0  0  0  0
   25.8526  -14.8990  -16.4423 C   0  0  0  0  0  0  0  0  0  0  0  0
   25.8002  -13.6813  -17.3186 C   0  0  0  0  0  0  0  0  0  0  0  0
   26.2012  -12.5580  -16.9407 O   0  0  0  0  0  0  0  0  0  0  0  0
   25.4012  -13.3159  -20.9532 C   0  0  0  0  0  0  0  0  0  0  0  0
   25.1760  -12.7211  -19.5601 C   0  0  2  0  0  0  0  0  0  0  0  0
   25.2809  -13.7913  -18.6232 N   0  0  0  0  0  0  0  0  0  0  0  0
   23.9427  -11.9559  -19.4886 C   0  0  0  0  0  0  0  0  0  0  0  0
   23.7564  -10.9808  -20.2461 O   0  0  0  0  0  0  0  0  0  0  0  0
   22.9388  -12.3084  -18.5586 N   0  0  0  0  0  0  0  0  0  0  0  0
   21.7008  -11.5450  -18.4078 C   0  0  1  0  0  0  0  0  0  0  0  0
   20.5748  -12.4481  -17.9514 C   0  0  0  0  0  0  0  0  0  0  0  0
   20.2514  -13.4694  -18.9758 C   0  0  0  0  0  0  0  0  0  0  0  0
   19.7366  -13.2364  -20.2546 C   0  0  0  0  0  0  0  0  0  0  0  0
   19.5704  -14.4018  -20.9025 N   0  0  0  0  0  0  0  0  0  0  0  0
   19.9717  -15.3729  -20.0554 C   0  0  0  0  0  0  0  0  0  0  0  0
   20.3789  -14.8152  -18.9033 N   0  0  0  0  0  0  0  0  0  0  0  0
   21.8896  -10.3891  -17.5134 C   0  0  0  0  0  0  0  0  0  0  0  0
   22.9397  -10.1979  -16.8552 O   0  0  0  0  0  0  0  0  0  0  0  0
   20.8808   -9.4242  -17.3510 O   0  0  0  0  0  0  0  0  0  0  0  0
  2  1  1  0
  3  2  1  0
  4  3  2  0
  6  5  1  6
  6  7  1  0
  7  3  1  0
  8  6  1  0
  8  9  2  0
 10  8  1  0
 11 10  1  0
 12 13  1  0
 11 12  1  1
 13 14  2  0
 14 15  1  0
 16 15  1  0
 17 13  1  0
 17 16  2  0
 18 11  1  0
 19 18  2  0
 20 18  1  0
M  END
$$$$
