GAH.pdb
     RDKit          3D

 20 20  0  0  1  0  0  0  0  0999 V2000
   15.5561  -20.1055  -11.9403 N   0  0  0  0  0  0  0  0  0  0  0  0
   14.3294  -20.7728  -11.6357 C   0  0  0  0  0  0  0  0  0  0  0  0
   13.8678  -20.4874  -10.2360 C   0  0  0  0  0  0  0  0  0  0  0  0
   14.5596  -19.8482   -9.4124 O   0  0  0  0  0  0  0  0  0  0  0  0
   10.5377  -20.8980   -8.6385 C   0  0  0  0  0  0  0  0  0  0  0  0
   12.0594  -20.7838   -8.5103 C   0  0  2  0  0  0  0  0  0  0  0  0
   12.6058  -20.9518   -9.8170 N   0  0  0  0  0  0  0  0  0  0  0  0
   12.5888  -21.6828   -7.4989 C   0  0  0  0  0  0  0  0  0  0  0  0
   12.9834  -22.8260   -7.8104 O   0  0  0  0  0  0  0  0  0  0  0  0
   12.6629  -21.2718   -6.1490 N   0  0  0  0  0  0  0  0  0  0  0  0
   13.1175  -22.1584   -5.0788 C   0  0  1  0  0  0  0  0  0  0  0  0
   13.2108  -21.4032   -3.7700 C   0  0  0  0  0  0  0  0  0  0  0  0
   13.6518  -22.2877   -2.6654 C   0  0  0  0  0  0  0  0  0  0  0  0
   14.7022  -23.2096   -2.7018 C   0  0  0  0  0  0  0  0  0  0  0  0
   14.8089  -23.8318   -1.5156 N   0  0  0  0  0  0  0  0  0  0  0  0
   13.8423  -23.3197   -0.7249 C   0  0  0  0  0  0  0  0  0  0  0  0
   13.1505  -22.3964   -1.4125 N   0  0  0  0  0  0  0  0  0  0  0  0
   12.2638  -23.3551   -4.9755 C   0  0  0  0  0  0  0  0  0  0  0  0
   11.0114  -23.3076   -5.0164 O   0  0  0  0  0  0  0  0  0  0  0  0
   12.8233  -24.6353   -4.8230 O   0  0  0  0  0  0  0  0  0  0  0  0
  2  1  1  0
  3  2  1  0
  4  3  2  0
  6  5  1  6
  6  7  1  0
  7  3  1  0
  8  6  1  0
  8  9  2  0
 10  8  1  0
 11 10  1  0
 12 13  1  0
 11 12  1  1
 13 14  2  0
 14 15  1  0
 16 15  1  0
 17 13  1  0
 17 16  2  0
 18 11  1  0
 19 18  2  0
 20 18  1  0
M  END
$$$$
