GAH.pdb
     RDKit          3D

 20 20  0  0  1  0  0  0  0  0999 V2000
   17.8909  -10.9848  -16.3946 N   0  0  0  0  0  0  0  0  0  0  0  0
   17.6601  -10.3760  -15.1222 C   0  0  0  0  0  0  0  0  0  0  0  0
   18.8791   -9.6643  -14.6111 C   0  0  0  0  0  0  0  0  0  0  0  0
   18.9034   -9.0685  -13.5112 O   0  0  0  0  0  0  0  0  0  0  0  0
   22.4029   -9.8372  -15.7247 C   0  0  0  0  0  0  0  0  0  0  0  0
   21.2918   -9.0657  -15.0069 C   0  0  2  0  0  0  0  0  0  0  0  0
   20.0523   -9.6578  -15.3905 N   0  0  0  0  0  0  0  0  0  0  0  0
   21.3893   -7.6339  -15.2351 C   0  0  0  0  0  0  0  0  0  0  0  0
   22.3990   -6.9997  -14.8637 O   0  0  0  0  0  0  0  0  0  0  0  0
   20.3398   -6.9426  -15.8812 N   0  0  0  0  0  0  0  0  0  0  0  0
   20.3738   -5.4998  -16.1168 C   0  0  1  0  0  0  0  0  0  0  0  0
   20.1078   -5.1957  -17.5758 C   0  0  0  0  0  0  0  0  0  0  0  0
   21.1550   -5.7768  -18.4491 C   0  0  0  0  0  0  0  0  0  0  0  0
   22.5132   -5.4450  -18.4594 C   0  0  0  0  0  0  0  0  0  0  0  0
   23.1580   -6.1767  -19.3837 N   0  0  0  0  0  0  0  0  0  0  0  0
   22.2308   -6.9692  -19.9617 C   0  0  0  0  0  0  0  0  0  0  0  0
   21.0332   -6.7299  -19.4027 N   0  0  0  0  0  0  0  0  0  0  0  0
   19.4476   -4.7883  -15.2182 C   0  0  0  0  0  0  0  0  0  0  0  0
   18.6639   -5.3782  -14.4370 O   0  0  0  0  0  0  0  0  0  0  0  0
   19.3961   -3.3840  -15.1923 O   0  0  0  0  0  0  0  0  0  0  0  0
  2  1  1  0
  3  2  1  0
  4  3  2  0
  6  5  1  6
  6  7  1  0
  7  3  1  0
  8  6  1  0
  8  9  2  0
 10  8  1  0
 11 10  1  0
 12 13  1  0
 11 12  1  6
 13 14  2  0
 14 15  1  0
 16 15  1  0
 17 13  1  0
 17 16  2  0
 18 11  1  0
 19 18  2  0
 20 18  1  0
M  END
$$$$
