GAH.pdb
     RDKit          3D

 20 20  0  0  1  0  0  0  0  0999 V2000
   32.8330  -26.0526  -15.1846 N   0  0  0  0  0  0  0  0  0  0  0  0
   32.3865  -25.6099  -16.4681 C   0  0  0  0  0  0  0  0  0  0  0  0
   31.6852  -24.2847  -16.3922 C   0  0  0  0  0  0  0  0  0  0  0  0
   31.3957  -23.7337  -15.3068 O   0  0  0  0  0  0  0  0  0  0  0  0
   31.0098  -21.7540  -19.0250 C   0  0  0  0  0  0  0  0  0  0  0  0
   30.6757  -22.3571  -17.6576 C   0  0  2  0  0  0  0  0  0  0  0  0
   31.3318  -23.6214  -17.5833 N   0  0  0  0  0  0  0  0  0  0  0  0
   29.2438  -22.3888  -17.4125 C   0  0  0  0  0  0  0  0  0  0  0  0
   28.5530  -23.3492  -17.8123 O   0  0  0  0  0  0  0  0  0  0  0  0
   28.6166  -21.3304  -16.7173 N   0  0  0  0  0  0  0  0  0  0  0  0
   27.1734  -21.2849  -16.4863 C   0  0  1  0  0  0  0  0  0  0  0  0
   26.8526  -20.3708  -15.3229 C   0  0  0  0  0  0  0  0  0  0  0  0
   25.3893  -20.2294  -15.1337 C   0  0  0  0  0  0  0  0  0  0  0  0
   24.4996  -21.2269  -14.7239 C   0  0  0  0  0  0  0  0  0  0  0  0
   23.2513  -20.7331  -14.6640 N   0  0  0  0  0  0  0  0  0  0  0  0
   23.3332  -19.4364  -15.0296 C   0  0  0  0  0  0  0  0  0  0  0  0
   24.6117  -19.1354  -15.3104 N   0  0  0  0  0  0  0  0  0  0  0  0
   26.4462  -20.9087  -17.7116 C   0  0  0  0  0  0  0  0  0  0  0  0
   26.8817  -20.0692  -18.5350 O   0  0  0  0  0  0  0  0  0  0  0  0
   25.2028  -21.4846  -18.0238 O   0  0  0  0  0  0  0  0  0  0  0  0
  2  1  1  0
  3  2  1  0
  4  3  2  0
  6  5  1  6
  6  7  1  0
  7  3  1  0
  8  6  1  0
  8  9  2  0
 10  8  1  0
 11 10  1  0
 12 13  1  0
 11 12  1  1
 13 14  2  0
 14 15  1  0
 16 15  1  0
 17 13  1  0
 17 16  2  0
 18 11  1  0
 19 18  2  0
 20 18  1  0
M  END
$$$$
