GAH.pdb
     RDKit          3D

 20 20  0  0  1  0  0  0  0  0999 V2000
   15.5417  -10.7995  -18.2244 N   0  0  0  0  0  0  0  0  0  0  0  0
   16.0591  -10.0658  -17.1122 C   0  0  0  0  0  0  0  0  0  0  0  0
   17.0130   -8.9901  -17.5443 C   0  0  0  0  0  0  0  0  0  0  0  0
   17.0941   -8.5932  -18.7281 O   0  0  0  0  0  0  0  0  0  0  0  0
   17.8888   -6.1262  -17.3179 C   0  0  0  0  0  0  0  0  0  0  0  0
   18.7442   -7.3035  -16.8411 C   0  0  2  0  0  0  0  0  0  0  0  0
   17.8586   -8.3928  -16.5893 N   0  0  0  0  0  0  0  0  0  0  0  0
   19.6032   -6.9359  -15.7282 C   0  0  0  0  0  0  0  0  0  0  0  0
   19.1375   -6.8349  -14.5739 O   0  0  0  0  0  0  0  0  0  0  0  0
   20.9780   -6.6881  -15.9413 N   0  0  0  0  0  0  0  0  0  0  0  0
   21.9160   -6.4537  -14.8443 C   0  0  1  0  0  0  0  0  0  0  0  0
   23.2586   -7.0813  -15.1532 C   0  0  0  0  0  0  0  0  0  0  0  0
   23.1164   -8.5108  -15.5182 C   0  0  0  0  0  0  0  0  0  0  0  0
   22.3319   -9.4659  -14.8647 C   0  0  0  0  0  0  0  0  0  0  0  0
   22.4510  -10.6558  -15.4775 N   0  0  0  0  0  0  0  0  0  0  0  0
   23.2994  -10.4723  -16.5111 C   0  0  0  0  0  0  0  0  0  0  0  0
   23.6972   -9.1897  -16.5352 N   0  0  0  0  0  0  0  0  0  0  0  0
   22.0272   -5.0179  -14.5319 C   0  0  0  0  0  0  0  0  0  0  0  0
   21.6076   -4.1169  -15.2965 O   0  0  0  0  0  0  0  0  0  0  0  0
   22.6216   -4.5786  -13.3365 O   0  0  0  0  0  0  0  0  0  0  0  0
  2  1  1  0
  3  2  1  0
  4  3  2  0
  6  5  1  1
  6  7  1  0
  7  3  1  0
  8  6  1  0
  8  9  2  0
 10  8  1  0
 11 10  1  0
 12 13  1  0
 11 12  1  6
 13 14  2  0
 14 15  1  0
 16 15  1  0
 17 13  1  0
 17 16  2  0
 18 11  1  0
 19 18  2  0
 20 18  1  0
M  END
$$$$
