GAH.pdb
     RDKit          3D

 20 20  0  0  1  0  0  0  0  0999 V2000
   43.2987  -27.0390    2.1806 N   0  0  0  0  0  0  0  0  0  0  0  0
   42.1984  -27.8056    2.6752 C   0  0  0  0  0  0  0  0  0  0  0  0
   40.9452  -26.9858    2.7800 C   0  0  0  0  0  0  0  0  0  0  0  0
   40.9515  -25.7348    2.7610 O   0  0  0  0  0  0  0  0  0  0  0  0
   37.3586  -28.0487    2.9779 C   0  0  0  0  0  0  0  0  0  0  0  0
   38.4529  -26.9885    3.1325 C   0  0  2  0  0  0  0  0  0  0  0  0
   39.7027  -27.6371    2.9055 N   0  0  0  0  0  0  0  0  0  0  0  0
   38.3463  -26.2774    4.3953 C   0  0  0  0  0  0  0  0  0  0  0  0
   39.2784  -26.3158    5.2255 O   0  0  0  0  0  0  0  0  0  0  0  0
   37.1838  -25.5331    4.6977 N   0  0  0  0  0  0  0  0  0  0  0  0
   37.1242  -24.5790    5.8041 C   0  0  1  0  0  0  0  0  0  0  0  0
   38.0381  -23.4019    5.5372 C   0  0  0  0  0  0  0  0  0  0  0  0
   39.4263  -23.6854    5.9724 C   0  0  0  0  0  0  0  0  0  0  0  0
   40.4832  -24.1172    5.1654 C   0  0  0  0  0  0  0  0  0  0  0  0
   41.5942  -24.2697    5.9057 N   0  0  0  0  0  0  0  0  0  0  0  0
   41.2603  -23.9414    7.1716 C   0  0  0  0  0  0  0  0  0  0  0  0
   39.9640  -23.5920    7.2113 N   0  0  0  0  0  0  0  0  0  0  0  0
   35.7377  -24.1612    6.0773 C   0  0  0  0  0  0  0  0  0  0  0  0
   34.8730  -24.0304    5.1787 O   0  0  0  0  0  0  0  0  0  0  0  0
   35.3076  -23.8830    7.3861 O   0  0  0  0  0  0  0  0  0  0  0  0
  2  1  1  0
  3  2  1  0
  4  3  2  0
  6  5  1  1
  6  7  1  0
  7  3  1  0
  8  6  1  0
  8  9  2  0
 10  8  1  0
 11 10  1  0
 12 13  1  0
 11 12  1  6
 13 14  2  0
 14 15  1  0
 16 15  1  0
 17 13  1  0
 17 16  2  0
 18 11  1  0
 19 18  2  0
 20 18  1  0
M  END
$$$$
