GAH.pdb
     RDKit          3D

 20 20  0  0  1  0  0  0  0  0999 V2000
   20.4204  -13.6842  -18.1836 N   0  0  0  0  0  0  0  0  0  0  0  0
   19.7193  -12.4392  -18.2190 C   0  0  0  0  0  0  0  0  0  0  0  0
   20.1295  -11.5319  -17.0955 C   0  0  0  0  0  0  0  0  0  0  0  0
   20.0150  -11.8517  -15.8914 O   0  0  0  0  0  0  0  0  0  0  0  0
   21.7390   -8.1499  -17.1716 C   0  0  0  0  0  0  0  0  0  0  0  0
   20.9879   -9.2606  -16.4318 C   0  0  2  0  0  0  0  0  0  0  0  0
   20.6673  -10.2646  -17.3928 N   0  0  0  0  0  0  0  0  0  0  0  0
   19.8582   -8.7440  -15.6778 C   0  0  0  0  0  0  0  0  0  0  0  0
   18.7336   -8.6413  -16.2108 O   0  0  0  0  0  0  0  0  0  0  0  0
   20.0211   -8.3516  -14.3300 N   0  0  0  0  0  0  0  0  0  0  0  0
   18.9121   -7.8631  -13.5117 C   0  0  1  0  0  0  0  0  0  0  0  0
   18.8941   -8.5664  -12.1712 C   0  0  0  0  0  0  0  0  0  0  0  0
   17.8816   -7.9757  -11.2641 C   0  0  0  0  0  0  0  0  0  0  0  0
   16.9228   -7.0136  -11.5955 C   0  0  0  0  0  0  0  0  0  0  0  0
   16.1772   -6.7174  -10.5176 N   0  0  0  0  0  0  0  0  0  0  0  0
   16.6471   -7.4764   -9.5052 C   0  0  0  0  0  0  0  0  0  0  0  0
   17.6662   -8.2287   -9.9517 N   0  0  0  0  0  0  0  0  0  0  0  0
   18.9529   -6.3965  -13.3745 C   0  0  0  0  0  0  0  0  0  0  0  0
   17.9213   -5.6854  -13.3214 O   0  0  0  0  0  0  0  0  0  0  0  0
   20.1757   -5.7082  -13.2949 O   0  0  0  0  0  0  0  0  0  0  0  0
  2  1  1  0
  3  2  1  0
  4  3  2  0
  6  5  1  6
  6  7  1  0
  7  3  1  0
  8  6  1  0
  8  9  2  0
 10  8  1  0
 11 10  1  0
 12 13  1  0
 11 12  1  1
 13 14  2  0
 14 15  1  0
 16 15  1  0
 17 13  1  0
 17 16  2  0
 18 11  1  0
 19 18  2  0
 20 18  1  0
M  END
$$$$
