GAH.pdb
     RDKit          3D

 20 20  0  0  1  0  0  0  0  0999 V2000
   18.0658  -14.5982  -16.3216 N   0  0  0  0  0  0  0  0  0  0  0  0
   17.5276  -13.3287  -15.9454 C   0  0  0  0  0  0  0  0  0  0  0  0
   18.3540  -12.1908  -16.4707 C   0  0  0  0  0  0  0  0  0  0  0  0
   19.5896  -12.2773  -16.6480 O   0  0  0  0  0  0  0  0  0  0  0  0
   17.4098   -9.0752  -18.1902 C   0  0  0  0  0  0  0  0  0  0  0  0
   18.3915   -9.8034  -17.2677 C   0  0  2  0  0  0  0  0  0  0  0  0
   17.7274  -10.9683  -16.7815 N   0  0  0  0  0  0  0  0  0  0  0  0
   18.9277   -8.9247  -16.2420 C   0  0  0  0  0  0  0  0  0  0  0  0
   18.3645   -8.8282  -15.1316 O   0  0  0  0  0  0  0  0  0  0  0  0
   20.0950   -8.1682  -16.4913 N   0  0  0  0  0  0  0  0  0  0  0  0
   20.7428   -7.3563  -15.4621 C   0  0  1  0  0  0  0  0  0  0  0  0
   22.2487   -7.4697  -15.5691 C   0  0  0  0  0  0  0  0  0  0  0  0
   22.6964   -8.8759  -15.4312 C   0  0  0  0  0  0  0  0  0  0  0  0
   22.6929   -9.6431  -14.2624 C   0  0  0  0  0  0  0  0  0  0  0  0
   23.1698  -10.8730  -14.5184 N   0  0  0  0  0  0  0  0  0  0  0  0
   23.4767  -10.9000  -15.8325 C   0  0  0  0  0  0  0  0  0  0  0  0
   23.1936   -9.7058  -16.3782 N   0  0  0  0  0  0  0  0  0  0  0  0
   20.2811   -5.9578  -15.5136 C   0  0  0  0  0  0  0  0  0  0  0  0
   19.7653   -5.4448  -16.5350 O   0  0  0  0  0  0  0  0  0  0  0  0
   20.3988   -5.1126  -14.3968 O   0  0  0  0  0  0  0  0  0  0  0  0
  2  1  1  0
  3  2  1  0
  4  3  2  0
  6  5  1  1
  6  7  1  0
  7  3  1  0
  8  6  1  0
  8  9  2  0
 10  8  1  0
 11 10  1  0
 12 13  1  0
 11 12  1  6
 13 14  2  0
 14 15  1  0
 16 15  1  0
 17 13  1  0
 17 16  2  0
 18 11  1  0
 19 18  2  0
 20 18  1  0
M  END
$$$$
