GAH.pdb
     RDKit          3D

 20 20  0  0  1  0  0  0  0  0999 V2000
   29.1602  -16.5447  -22.4760 N   0  0  0  0  0  0  0  0  0  0  0  0
   28.1962  -15.5331  -22.1759 C   0  0  0  0  0  0  0  0  0  0  0  0
   28.7805  -14.1538  -22.2751 C   0  0  0  0  0  0  0  0  0  0  0  0
   29.8084  -13.9008  -22.9420 O   0  0  0  0  0  0  0  0  0  0  0  0
   28.5370  -11.3537  -23.1799 C   0  0  0  0  0  0  0  0  0  0  0  0
   28.5345  -11.7174  -21.6923 C   0  0  2  0  0  0  0  0  0  0  0  0
   28.1574  -13.0895  -21.5949 N   0  0  0  0  0  0  0  0  0  0  0  0
   27.7271  -10.7976  -20.9090 C   0  0  0  0  0  0  0  0  0  0  0  0
   26.4805  -10.8681  -20.9347 O   0  0  0  0  0  0  0  0  0  0  0  0
   28.3457   -9.8113  -20.1081 N   0  0  0  0  0  0  0  0  0  0  0  0
   27.5879   -8.9135  -19.2376 C   0  0  1  0  0  0  0  0  0  0  0  0
   28.1596   -8.9286  -17.8359 C   0  0  0  0  0  0  0  0  0  0  0  0
   28.0235  -10.2656  -17.2106 C   0  0  0  0  0  0  0  0  0  0  0  0
   27.4353  -11.3986  -17.7807 C   0  0  0  0  0  0  0  0  0  0  0  0
   27.4932  -12.4289  -16.9200 N   0  0  0  0  0  0  0  0  0  0  0  0
   28.1094  -11.9686  -15.8108 C   0  0  0  0  0  0  0  0  0  0  0  0
   28.4264  -10.6750  -15.9848 N   0  0  0  0  0  0  0  0  0  0  0  0
   27.5195   -7.5532  -19.8002 C   0  0  0  0  0  0  0  0  0  0  0  0
   28.1781   -7.1947  -20.8053 O   0  0  0  0  0  0  0  0  0  0  0  0
   26.6953   -6.5703  -19.2258 O   0  0  0  0  0  0  0  0  0  0  0  0
  2  1  1  0
  3  2  1  0
  4  3  2  0
  6  5  1  6
  6  7  1  0
  7  3  1  0
  8  6  1  0
  8  9  2  0
 10  8  1  0
 11 10  1  0
 12 13  1  0
 11 12  1  1
 13 14  2  0
 14 15  1  0
 16 15  1  0
 17 13  1  0
 17 16  2  0
 18 11  1  0
 19 18  2  0
 20 18  1  0
M  END
$$$$
