GAH.pdb
     RDKit          3D

 20 20  0  0  1  0  0  0  0  0999 V2000
   19.8658  -22.1281   -9.9949 N   0  0  0  0  0  0  0  0  0  0  0  0
   19.7353  -21.3205  -11.1669 C   0  0  0  0  0  0  0  0  0  0  0  0
   20.8689  -21.5371  -12.1268 C   0  0  0  0  0  0  0  0  0  0  0  0
   21.7677  -22.3854  -11.9322 O   0  0  0  0  0  0  0  0  0  0  0  0
   21.2809  -20.4159  -15.6309 C   0  0  0  0  0  0  0  0  0  0  0  0
   21.9166  -20.9072  -14.3272 C   0  0  2  0  0  0  0  0  0  0  0  0
   20.9379  -20.7610  -13.3002 N   0  0  0  0  0  0  0  0  0  0  0  0
   23.1896  -20.2576  -14.0645 C   0  0  0  0  0  0  0  0  0  0  0  0
   23.2292  -19.0641  -13.6992 O   0  0  0  0  0  0  0  0  0  0  0  0
   24.3992  -20.9716  -14.2200 N   0  0  0  0  0  0  0  0  0  0  0  0
   25.7040  -20.3890  -13.9099 C   0  0  1  0  0  0  0  0  0  0  0  0
   26.4281  -21.2309  -12.8810 C   0  0  0  0  0  0  0  0  0  0  0  0
   25.7780  -21.1386  -11.5521 C   0  0  0  0  0  0  0  0  0  0  0  0
   24.6214  -20.4195  -11.2360 C   0  0  0  0  0  0  0  0  0  0  0  0
   24.3291  -20.5691   -9.9330 N   0  0  0  0  0  0  0  0  0  0  0  0
   25.2821  -21.3725   -9.4152 C   0  0  0  0  0  0  0  0  0  0  0  0
   26.1484  -21.7129  -10.3835 N   0  0  0  0  0  0  0  0  0  0  0  0
   26.5038  -20.1856  -15.1308 C   0  0  0  0  0  0  0  0  0  0  0  0
   26.2343  -20.7363  -16.2247 O   0  0  0  0  0  0  0  0  0  0  0  0
   27.6315  -19.3469  -15.1290 O   0  0  0  0  0  0  0  0  0  0  0  0
  2  1  1  0
  3  2  1  0
  4  3  2  0
  6  5  1  6
  6  7  1  0
  7  3  1  0
  8  6  1  0
  8  9  2  0
 10  8  1  0
 11 10  1  0
 12 13  1  0
 11 12  1  1
 13 14  2  0
 14 15  1  0
 16 15  1  0
 17 13  1  0
 17 16  2  0
 18 11  1  0
 19 18  2  0
 20 18  1  0
M  END
$$$$
