GAH.pdb
     RDKit          3D

 20 20  0  0  1  0  0  0  0  0999 V2000
   29.0163  -15.6604  -18.8366 N   0  0  0  0  0  0  0  0  0  0  0  0
   28.3055  -16.8640  -19.1348 C   0  0  0  0  0  0  0  0  0  0  0  0
   27.0676  -17.0069  -18.2976 C   0  0  0  0  0  0  0  0  0  0  0  0
   26.8518  -16.3061  -17.2838 O   0  0  0  0  0  0  0  0  0  0  0  0
   23.8655  -18.7476  -18.9148 C   0  0  0  0  0  0  0  0  0  0  0  0
   24.9148  -18.2538  -17.9147 C   0  0  2  0  0  0  0  0  0  0  0  0
   26.0991  -17.9650  -18.6551 N   0  0  0  0  0  0  0  0  0  0  0  0
   25.0884  -19.1789  -16.8077 C   0  0  0  0  0  0  0  0  0  0  0  0
   25.9164  -20.1106  -16.8836 O   0  0  0  0  0  0  0  0  0  0  0  0
   24.3201  -19.0333  -15.6306 N   0  0  0  0  0  0  0  0  0  0  0  0
   24.4966  -19.8950  -14.4625 C   0  0  1  0  0  0  0  0  0  0  0  0
   25.0655  -19.1046  -13.3033 C   0  0  0  0  0  0  0  0  0  0  0  0
   25.1346  -19.9254  -12.0711 C   0  0  0  0  0  0  0  0  0  0  0  0
   26.1397  -20.8349  -11.7283 C   0  0  0  0  0  0  0  0  0  0  0  0
   25.8670  -21.3938  -10.5372 N   0  0  0  0  0  0  0  0  0  0  0  0
   24.7037  -20.8538  -10.1167 C   0  0  0  0  0  0  0  0  0  0  0  0
   24.2659  -19.9758  -11.0341 N   0  0  0  0  0  0  0  0  0  0  0  0
   23.2420  -20.5828  -14.1095 C   0  0  0  0  0  0  0  0  0  0  0  0
   22.1101  -20.0702  -14.2780 O   0  0  0  0  0  0  0  0  0  0  0  0
   23.2529  -21.8742  -13.5551 O   0  0  0  0  0  0  0  0  0  0  0  0
  2  1  1  0
  3  2  1  0
  4  3  2  0
  6  5  1  6
  6  7  1  0
  7  3  1  0
  8  6  1  0
  8  9  2  0
 10  8  1  0
 11 10  1  0
 12 13  1  0
 11 12  1  1
 13 14  2  0
 14 15  1  0
 16 15  1  0
 17 13  1  0
 17 16  2  0
 18 11  1  0
 19 18  2  0
 20 18  1  0
M  END
$$$$
