GAH.pdb
     RDKit          3D

 20 20  0  0  1  0  0  0  0  0999 V2000
   33.7672  -34.8228   -1.7267 N   0  0  0  0  0  0  0  0  0  0  0  0
   33.4802  -35.6769   -2.8362 C   0  0  0  0  0  0  0  0  0  0  0  0
   32.7569  -34.9493   -3.9322 C   0  0  0  0  0  0  0  0  0  0  0  0
   32.3605  -33.7686   -3.8135 O   0  0  0  0  0  0  0  0  0  0  0  0
   32.1218  -35.9360   -7.4778 C   0  0  0  0  0  0  0  0  0  0  0  0
   31.8271  -35.0426   -6.2695 C   0  0  2  0  0  0  0  0  0  0  0  0
   32.5064  -35.6096   -5.1508 N   0  0  0  0  0  0  0  0  0  0  0  0
   30.4014  -34.8314   -6.0843 C   0  0  0  0  0  0  0  0  0  0  0  0
   29.7541  -35.5385   -5.2839 O   0  0  0  0  0  0  0  0  0  0  0  0
   29.7308  -33.8211   -6.8100 N   0  0  0  0  0  0  0  0  0  0  0  0
   28.2930  -33.5850   -6.6878 C   0  0  1  0  0  0  0  0  0  0  0  0
   27.7932  -32.7519   -7.8488 C   0  0  0  0  0  0  0  0  0  0  0  0
   26.3292  -32.5349   -7.7682 C   0  0  0  0  0  0  0  0  0  0  0  0
   25.4694  -33.0000   -6.7686 C   0  0  0  0  0  0  0  0  0  0  0  0
   24.2100  -32.6094   -7.0273 N   0  0  0  0  0  0  0  0  0  0  0  0
   24.2553  -31.9027   -8.1763 C   0  0  0  0  0  0  0  0  0  0  0  0
   25.5225  -31.8583   -8.6193 N   0  0  0  0  0  0  0  0  0  0  0  0
   27.5522  -34.8511   -6.5469 C   0  0  0  0  0  0  0  0  0  0  0  0
   27.7301  -35.8356   -7.3030 O   0  0  0  0  0  0  0  0  0  0  0  0
   26.5898  -35.0209   -5.5368 O   0  0  0  0  0  0  0  0  0  0  0  0
  2  1  1  0
  3  2  1  0
  4  3  2  0
  6  5  1  6
  6  7  1  0
  7  3  1  0
  8  6  1  0
  8  9  2  0
 10  8  1  0
 11 10  1  0
 12 13  1  0
 11 12  1  6
 13 14  2  0
 14 15  1  0
 16 15  1  0
 17 13  1  0
 17 16  2  0
 18 11  1  0
 19 18  2  0
 20 18  1  0
M  END
$$$$
