GAH.pdb
     RDKit          3D

 20 20  0  0  1  0  0  0  0  0999 V2000
   17.5273  -13.8617  -15.7996 N   0  0  0  0  0  0  0  0  0  0  0  0
   16.9159  -12.5818  -15.6236 C   0  0  0  0  0  0  0  0  0  0  0  0
   17.7653  -11.4734  -16.1747 C   0  0  0  0  0  0  0  0  0  0  0  0
   19.0158  -11.5000  -16.1438 O   0  0  0  0  0  0  0  0  0  0  0  0
   16.8898   -8.5854  -18.3319 C   0  0  0  0  0  0  0  0  0  0  0  0
   17.8257   -9.2233  -17.3013 C   0  0  2  0  0  0  0  0  0  0  0  0
   17.1438  -10.3500  -16.7537 N   0  0  0  0  0  0  0  0  0  0  0  0
   18.3019   -8.2560  -16.3271 C   0  0  0  0  0  0  0  0  0  0  0  0
   17.7313   -8.1343  -15.2230 O   0  0  0  0  0  0  0  0  0  0  0  0
   19.4185   -7.4409  -16.6199 N   0  0  0  0  0  0  0  0  0  0  0  0
   19.9058   -6.4121  -15.7022 C   0  0  1  0  0  0  0  0  0  0  0  0
   21.4155   -6.4640  -15.6029 C   0  0  0  0  0  0  0  0  0  0  0  0
   21.8767   -7.7564  -15.0426 C   0  0  0  0  0  0  0  0  0  0  0  0
   21.5675   -8.2790  -13.7832 C   0  0  0  0  0  0  0  0  0  0  0  0
   22.1639   -9.4722  -13.6216 N   0  0  0  0  0  0  0  0  0  0  0  0
   22.8479   -9.7169  -14.7592 C   0  0  0  0  0  0  0  0  0  0  0  0
   22.6761   -8.6908  -15.6087 N   0  0  0  0  0  0  0  0  0  0  0  0
   19.4150   -5.0764  -16.0852 C   0  0  0  0  0  0  0  0  0  0  0  0
   18.8384   -4.8460  -17.1746 O   0  0  0  0  0  0  0  0  0  0  0  0
   19.5725   -3.9722  -15.2302 O   0  0  0  0  0  0  0  0  0  0  0  0
  2  1  1  0
  3  2  1  0
  4  3  2  0
  6  5  1  6
  6  7  1  0
  7  3  1  0
  8  6  1  0
  8  9  2  0
 10  8  1  0
 11 10  1  0
 12 13  1  0
 11 12  1  6
 13 14  2  0
 14 15  1  0
 16 15  1  0
 17 13  1  0
 17 16  2  0
 18 11  1  0
 19 18  2  0
 20 18  1  0
M  END
$$$$
