GAH.pdb
     RDKit          3D

 20 20  0  0  1  0  0  0  0  0999 V2000
   26.3178  -21.8347  -14.4650 N   0  0  0  0  0  0  0  0  0  0  0  0
   25.0677  -21.7545  -15.1534 C   0  0  0  0  0  0  0  0  0  0  0  0
   24.0129  -21.0806  -14.3247 C   0  0  0  0  0  0  0  0  0  0  0  0
   24.1656  -20.8300  -13.1084 O   0  0  0  0  0  0  0  0  0  0  0  0
   20.6988  -19.6240  -15.2401 C   0  0  0  0  0  0  0  0  0  0  0  0
   21.6189  -20.3092  -14.2257 C   0  0  2  0  0  0  0  0  0  0  0  0
   22.7950  -20.7088  -14.9266 N   0  0  0  0  0  0  0  0  0  0  0  0
   20.9381  -21.3718  -13.5053 C   0  0  0  0  0  0  0  0  0  0  0  0
   21.2605  -22.5653  -13.6817 O   0  0  0  0  0  0  0  0  0  0  0  0
   19.9015  -21.0648  -12.5953 N   0  0  0  0  0  0  0  0  0  0  0  0
   19.2428  -22.0828  -11.7780 C   0  0  1  0  0  0  0  0  0  0  0  0
   20.0163  -22.3148  -10.4974 C   0  0  0  0  0  0  0  0  0  0  0  0
   19.2993  -23.2454   -9.5935 C   0  0  0  0  0  0  0  0  0  0  0  0
   18.0641  -23.8557   -9.8315 C   0  0  0  0  0  0  0  0  0  0  0  0
   17.7277  -24.6342   -8.7892 N   0  0  0  0  0  0  0  0  0  0  0  0
   18.7301  -24.5284   -7.8915 C   0  0  0  0  0  0  0  0  0  0  0  0
   19.6697  -23.6980   -8.3726 N   0  0  0  0  0  0  0  0  0  0  0  0
   17.8325  -21.7376  -11.5260 C   0  0  0  0  0  0  0  0  0  0  0  0
   16.9356  -22.5991  -11.3651 O   0  0  0  0  0  0  0  0  0  0  0  0
   17.4148  -20.3977  -11.4522 O   0  0  0  0  0  0  0  0  0  0  0  0
  2  1  1  0
  3  2  1  0
  4  3  2  0
  6  5  1  6
  6  7  1  0
  7  3  1  0
  8  6  1  0
  8  9  2  0
 10  8  1  0
 11 10  1  0
 12 13  1  0
 11 12  1  1
 13 14  2  0
 14 15  1  0
 16 15  1  0
 17 13  1  0
 17 16  2  0
 18 11  1  0
 19 18  2  0
 20 18  1  0
M  END
$$$$
