QFV.pdb
     RDKit          3D

 28 28  0  0  1  0  0  0  0  0999 V2000
   28.3023  -21.2785  -14.9007 N   0  0  0  0  0  0  0  0  0  0  0  0
   29.1110  -20.1401  -14.6771 C   0  0  0  0  0  0  0  0  0  0  0  0
   29.1470  -19.2030  -15.5036 O   0  0  0  0  0  0  0  0  0  0  0  0
   29.9262  -20.1052  -13.4032 C   0  0  0  0  0  0  0  0  0  0  0  0
   29.5498  -21.3070  -12.5952 C   0  0  0  0  0  0  0  0  0  0  0  0
   29.5116  -21.0786  -11.1335 C   0  0  2  0  0  0  0  0  0  0  0  0
   30.4834  -21.9918  -10.4682 N   0  0  0  0  0  0  0  0  0  0  0  0
   28.2602  -21.1966  -10.4253 C   0  0  0  0  0  0  0  0  0  0  0  0
   27.9073  -22.3530  -10.0096 O   0  0  0  0  0  0  0  0  0  0  0  0
   27.4067  -20.1289  -10.1590 N   0  0  0  0  0  0  0  0  0  0  0  0
   26.1172  -20.2935   -9.4348 C   0  0  1  0  0  0  0  0  0  0  0  0
   26.1551  -19.2588   -8.3743 C   0  0  0  0  0  0  0  0  0  0  0  0
   26.7496  -19.5855   -7.0955 C   0  0  0  0  0  0  0  0  0  0  0  0
   26.5941  -20.7667   -6.4006 C   0  0  0  0  0  0  0  0  0  0  0  0
   27.1889  -21.0294   -5.2083 C   0  0  0  0  0  0  0  0  0  0  0  0
   28.0011  -20.1079   -4.6103 C   0  0  0  0  0  0  0  0  0  0  0  0
   28.1901  -18.8971   -5.2738 C   0  0  0  0  0  0  0  0  0  0  0  0
   27.5807  -18.6468   -6.4811 C   0  0  0  0  0  0  0  0  0  0  0  0
   25.0611  -20.1266  -10.4592 C   0  0  0  0  0  0  0  0  0  0  0  0
   25.0461  -19.1345  -11.2704 O   0  0  0  0  0  0  0  0  0  0  0  0
   24.4237  -21.8604  -13.3704 C   0  0  0  0  0  0  0  0  0  0  0  0
   23.0464  -21.8593  -12.7713 C   0  0  1  0  0  0  0  0  0  0  0  0
   22.7472  -23.2623  -12.2929 C   0  0  0  0  0  0  0  0  0  0  0  0
   22.9471  -20.8270  -11.6605 C   0  0  2  0  0  0  0  0  0  0  0  0
   23.9721  -21.0287  -10.6593 N   0  0  0  0  0  0  0  0  0  0  0  0
   21.5913  -20.6709  -11.1407 C   0  0  0  0  0  0  0  0  0  0  0  0
   20.5733  -20.1486  -11.9436 O   0  0  0  0  0  0  0  0  0  0  0  0
   21.2720  -20.9894   -9.9705 O   0  0  0  0  0  0  0  0  0  0  0  0
  2  1  1  0
  3  2  2  0
  4  2  1  0
  5  4  1  0
  5  6  1  0
  6  8  1  0
  6  7  1  1
  8  9  2  0
 10 11  1  0
 10  8  1  0
 11 12  1  1
 13 12  1  0
 14 13  2  0
 15 14  1  0
 16 17  1  0
 16 15  2  0
 17 18  2  0
 18 13  1  0
 19 11  1  0
 20 19  2  0
 22 21  1  1
 23 22  1  0
 24 22  1  0
 24 25  1  1
 25 19  1  0
 26 27  1  0
 26 24  1  0
 28 26  2  0
M  END
$$$$
