QFV.pdb
     RDKit          3D

 28 28  0  0  1  0  0  0  0  0999 V2000
   26.9734  -19.1736  -16.6017 N   0  0  0  0  0  0  0  0  0  0  0  0
   27.3909  -18.2366  -15.6281 C   0  0  0  0  0  0  0  0  0  0  0  0
   28.3175  -17.4315  -15.8645 O   0  0  0  0  0  0  0  0  0  0  0  0
   26.6734  -18.2506  -14.2964 C   0  0  0  0  0  0  0  0  0  0  0  0
   26.6127  -19.6720  -13.8330 C   0  0  0  0  0  0  0  0  0  0  0  0
   27.7079  -20.0690  -12.9202 C   0  0  2  0  0  0  0  0  0  0  0  0
   28.5482  -21.1060  -13.5833 N   0  0  0  0  0  0  0  0  0  0  0  0
   27.3946  -20.5539  -11.5980 C   0  0  0  0  0  0  0  0  0  0  0  0
   26.9798  -21.7573  -11.4778 O   0  0  0  0  0  0  0  0  0  0  0  0
   27.5173  -19.7963  -10.4360 N   0  0  0  0  0  0  0  0  0  0  0  0
   27.2386  -20.3506   -9.0835 C   0  0  1  0  0  0  0  0  0  0  0  0
   28.0966  -19.5541   -8.1745 C   0  0  0  0  0  0  0  0  0  0  0  0
   28.0138  -19.7862   -6.7481 C   0  0  0  0  0  0  0  0  0  0  0  0
   28.4081  -20.9280   -6.0823 C   0  0  0  0  0  0  0  0  0  0  0  0
   28.3236  -21.0888   -4.7364 C   0  0  0  0  0  0  0  0  0  0  0  0
   27.8263  -20.0962   -3.9402 C   0  0  0  0  0  0  0  0  0  0  0  0
   27.4140  -18.9215   -4.5663 C   0  0  0  0  0  0  0  0  0  0  0  0
   27.5068  -18.7744   -5.9306 C   0  0  0  0  0  0  0  0  0  0  0  0
   25.7788  -20.2017   -8.8851 C   0  0  0  0  0  0  0  0  0  0  0  0
   25.1532  -19.1263   -9.1927 O   0  0  0  0  0  0  0  0  0  0  0  0
   23.3627  -20.2853  -10.5618 C   0  0  0  0  0  0  0  0  0  0  0  0
   22.7759  -21.2059   -9.5302 C   0  0  1  0  0  0  0  0  0  0  0  0
   22.8531  -22.6166  -10.0693 C   0  0  0  0  0  0  0  0  0  0  0  0
   23.4938  -21.0459   -8.2004 C   0  0  2  0  0  0  0  0  0  0  0  0
   24.9234  -21.2121   -8.3489 N   0  0  0  0  0  0  0  0  0  0  0  0
   22.8856  -21.8210   -7.1223 C   0  0  0  0  0  0  0  0  0  0  0  0
   21.5997  -21.5215   -6.6636 O   0  0  0  0  0  0  0  0  0  0  0  0
   23.4708  -22.7772   -6.5601 O   0  0  0  0  0  0  0  0  0  0  0  0
  2  1  1  0
  3  2  2  0
  4  2  1  0
  5  4  1  0
  5  6  1  0
  6  8  1  0
  6  7  1  6
  8  9  2  0
 10 11  1  0
 10  8  1  0
 11 12  1  1
 13 12  1  0
 14 13  2  0
 15 14  1  0
 16 17  1  0
 16 15  2  0
 17 18  2  0
 18 13  1  0
 19 11  1  0
 20 19  2  0
 22 21  1  6
 23 22  1  0
 24 22  1  0
 24 25  1  6
 25 19  1  0
 26 27  1  0
 26 24  1  0
 28 26  2  0
M  END
$$$$
