QFV.pdb
     RDKit          3D

 28 28  0  0  1  0  0  0  0  0999 V2000
   26.4606  -17.7836  -13.4886 N   0  0  0  0  0  0  0  0  0  0  0  0
   25.9253  -18.4527  -14.6137 C   0  0  0  0  0  0  0  0  0  0  0  0
   26.1959  -18.0780  -15.7752 O   0  0  0  0  0  0  0  0  0  0  0  0
   25.0163  -19.6335  -14.3533 C   0  0  0  0  0  0  0  0  0  0  0  0
   24.9930  -19.8661  -12.8754 C   0  0  0  0  0  0  0  0  0  0  0  0
   26.1981  -20.5371  -12.3389 C   0  0  2  0  0  0  0  0  0  0  0  0
   26.4591  -21.7777  -13.1223 N   0  0  0  0  0  0  0  0  0  0  0  0
   26.2540  -20.8937  -10.9421 C   0  0  0  0  0  0  0  0  0  0  0  0
   25.7915  -22.0323  -10.5897 O   0  0  0  0  0  0  0  0  0  0  0  0
   26.7842  -20.0780   -9.9457 N   0  0  0  0  0  0  0  0  0  0  0  0
   26.8624  -20.4994   -8.5207 C   0  0  1  0  0  0  0  0  0  0  0  0
   27.9302  -19.6494   -7.9428 C   0  0  0  0  0  0  0  0  0  0  0  0
   28.1710  -19.6975   -6.5162 C   0  0  0  0  0  0  0  0  0  0  0  0
   28.6389  -20.7815   -5.8031 C   0  0  0  0  0  0  0  0  0  0  0  0
   28.8635  -20.7687   -4.4638 C   0  0  0  0  0  0  0  0  0  0  0  0
   28.6303  -19.6447   -3.7231 C   0  0  0  0  0  0  0  0  0  0  0  0
   28.1563  -18.5217   -4.3985 C   0  0  0  0  0  0  0  0  0  0  0  0
   27.9346  -18.5509   -5.7555 C   0  0  0  0  0  0  0  0  0  0  0  0
   25.5044  -20.2907   -7.9686 C   0  0  0  0  0  0  0  0  0  0  0  0
   24.8296  -19.2255   -8.1975 O   0  0  0  0  0  0  0  0  0  0  0  0
   22.3646  -21.4941   -8.6371 C   0  0  0  0  0  0  0  0  0  0  0  0
   22.4107  -21.7380   -7.1558 C   0  0  1  0  0  0  0  0  0  0  0  0
   22.5511  -23.2274   -6.9347 C   0  0  0  0  0  0  0  0  0  0  0  0
   23.5364  -20.9415   -6.5173 C   0  0  2  0  0  0  0  0  0  0  0  0
   24.8079  -21.2276   -7.1458 N   0  0  0  0  0  0  0  0  0  0  0  0
   23.5335  -21.0106   -5.0585 C   0  0  0  0  0  0  0  0  0  0  0  0
   22.4229  -20.5842   -4.3246 O   0  0  0  0  0  0  0  0  0  0  0  0
   24.5063  -21.4462   -4.3976 O   0  0  0  0  0  0  0  0  0  0  0  0
  2  1  1  0
  3  2  2  0
  4  2  1  0
  5  4  1  0
  5  6  1  0
  6  8  1  0
  6  7  1  6
  8  9  2  0
 10 11  1  0
 10  8  1  0
 11 12  1  1
 13 12  1  0
 14 13  2  0
 15 14  1  0
 16 17  1  0
 16 15  2  0
 17 18  2  0
 18 13  1  0
 19 11  1  0
 20 19  2  0
 22 21  1  6
 23 22  1  0
 24 22  1  0
 24 25  1  6
 25 19  1  0
 26 27  1  0
 26 24  1  0
 28 26  2  0
M  END
$$$$
