QFV.pdb
     RDKit          3D

 28 28  0  0  1  0  0  0  0  0999 V2000
   25.8597  -21.4384  -19.1088 N   0  0  0  0  0  0  0  0  0  0  0  0
   27.1993  -21.0113  -19.2619 C   0  0  0  0  0  0  0  0  0  0  0  0
   27.6194  -20.5898  -20.3613 O   0  0  0  0  0  0  0  0  0  0  0  0
   28.0966  -21.0864  -18.0464 C   0  0  0  0  0  0  0  0  0  0  0  0
   27.2399  -21.4570  -16.8770 C   0  0  0  0  0  0  0  0  0  0  0  0
   27.9563  -21.5157  -15.5833 C   0  0  2  0  0  0  0  0  0  0  0  0
   28.8817  -22.6838  -15.5870 N   0  0  0  0  0  0  0  0  0  0  0  0
   27.2045  -21.5696  -14.3531 C   0  0  0  0  0  0  0  0  0  0  0  0
   26.7326  -22.6983  -13.9819 O   0  0  0  0  0  0  0  0  0  0  0  0
   26.9595  -20.4693  -13.5355 N   0  0  0  0  0  0  0  0  0  0  0  0
   26.1417  -20.5570  -12.2955 C   0  0  1  0  0  0  0  0  0  0  0  0
   26.7562  -19.5688  -11.3777 C   0  0  0  0  0  0  0  0  0  0  0  0
   27.1848  -20.0017  -10.0646 C   0  0  0  0  0  0  0  0  0  0  0  0
   28.2874  -20.7803   -9.7810 C   0  0  0  0  0  0  0  0  0  0  0  0
   28.6554  -21.1460   -8.5259 C   0  0  0  0  0  0  0  0  0  0  0  0
   27.9299  -20.7506   -7.4379 C   0  0  0  0  0  0  0  0  0  0  0  0
   26.8054  -19.9616   -7.6725 C   0  0  0  0  0  0  0  0  0  0  0  0
   26.4466  -19.5996   -8.9499 C   0  0  0  0  0  0  0  0  0  0  0  0
   24.7511  -20.2684  -12.7143 C   0  0  0  0  0  0  0  0  0  0  0  0
   24.4499  -19.2470  -13.4272 O   0  0  0  0  0  0  0  0  0  0  0  0
   21.9878  -23.0829  -13.8064 C   0  0  0  0  0  0  0  0  0  0  0  0
   21.9654  -21.6129  -14.1138 C   0  0  1  0  0  0  0  0  0  0  0  0
   20.6104  -21.2813  -14.6976 C   0  0  0  0  0  0  0  0  0  0  0  0
   22.2823  -20.8013  -12.8688 C   0  0  2  0  0  0  0  0  0  0  0  0
   23.6187  -21.0748  -12.3863 N   0  0  0  0  0  0  0  0  0  0  0  0
   21.2302  -20.8656  -11.8579 C   0  0  0  0  0  0  0  0  0  0  0  0
   20.0965  -20.0536  -11.9529 O   0  0  0  0  0  0  0  0  0  0  0  0
   21.2846  -21.6358  -10.8696 O   0  0  0  0  0  0  0  0  0  0  0  0
  2  1  1  0
  3  2  2  0
  4  2  1  0
  5  4  1  0
  5  6  1  0
  6  8  1  0
  6  7  1  6
  8  9  2  0
 10 11  1  0
 10  8  1  0
 11 12  1  1
 13 12  1  0
 14 13  2  0
 15 14  1  0
 16 17  1  0
 16 15  2  0
 17 18  2  0
 18 13  1  0
 19 11  1  0
 20 19  2  0
 22 21  1  1
 23 22  1  0
 24 22  1  0
 24 25  1  1
 25 19  1  0
 26 27  1  0
 26 24  1  0
 28 26  2  0
M  END
$$$$
