QFV.pdb
     RDKit          3D

 28 28  0  0  1  0  0  0  0  0999 V2000
   29.6853  -19.1595  -18.0041 N   0  0  0  0  0  0  0  0  0  0  0  0
   28.2981  -18.9950  -18.2246 C   0  0  0  0  0  0  0  0  0  0  0  0
   27.7308  -17.9088  -17.9777 O   0  0  0  0  0  0  0  0  0  0  0  0
   27.5345  -20.1825  -18.7680 C   0  0  0  0  0  0  0  0  0  0  0  0
   26.6316  -20.6729  -17.6802 C   0  0  0  0  0  0  0  0  0  0  0  0
   27.3146  -21.4318  -16.6089 C   0  0  2  0  0  0  0  0  0  0  0  0
   27.7692  -22.7440  -17.1499 N   0  0  0  0  0  0  0  0  0  0  0  0
   26.6240  -21.6962  -15.3702 C   0  0  0  0  0  0  0  0  0  0  0  0
   25.8539  -22.7152  -15.3127 O   0  0  0  0  0  0  0  0  0  0  0  0
   26.7427  -20.9138  -14.2243 N   0  0  0  0  0  0  0  0  0  0  0  0
   26.0006  -21.2109  -12.9692 C   0  0  1  0  0  0  0  0  0  0  0  0
   26.8020  -20.5622  -11.9045 C   0  0  0  0  0  0  0  0  0  0  0  0
   26.2879  -20.5435  -10.5514 C   0  0  0  0  0  0  0  0  0  0  0  0
   25.7835  -21.6217   -9.8546 C   0  0  0  0  0  0  0  0  0  0  0  0
   25.3273  -21.5532   -8.5772 C   0  0  0  0  0  0  0  0  0  0  0  0
   25.3424  -20.3736   -7.8883 C   0  0  0  0  0  0  0  0  0  0  0  0
   25.8432  -19.2539   -8.5498 C   0  0  0  0  0  0  0  0  0  0  0  0
   26.3019  -19.3403   -9.8435 C   0  0  0  0  0  0  0  0  0  0  0  0
   24.6393  -20.6652  -13.1727 C   0  0  0  0  0  0  0  0  0  0  0  0
   24.4370  -19.4846  -13.6285 O   0  0  0  0  0  0  0  0  0  0  0  0
   20.0370  -20.7818  -14.4328 C   0  0  0  0  0  0  0  0  0  0  0  0
   21.3873  -21.4143  -14.2524 C   0  0  1  0  0  0  0  0  0  0  0  0
   22.1481  -21.2624  -15.5504 C   0  0  0  0  0  0  0  0  0  0  0  0
   22.1143  -20.7952  -13.0703 C   0  0  2  0  0  0  0  0  0  0  0  0
   23.4296  -21.3731  -12.8979 N   0  0  0  0  0  0  0  0  0  0  0  0
   21.2975  -20.7346  -11.8612 C   0  0  0  0  0  0  0  0  0  0  0  0
   20.6329  -19.5576  -11.5053 O   0  0  0  0  0  0  0  0  0  0  0  0
   21.1507  -21.7138  -11.0914 O   0  0  0  0  0  0  0  0  0  0  0  0
  2  1  1  0
  3  2  2  0
  4  2  1  0
  5  4  1  0
  5  6  1  0
  6  8  1  0
  6  7  1  6
  8  9  2  0
 10 11  1  0
 10  8  1  0
 11 12  1  1
 13 12  1  0
 14 13  2  0
 15 14  1  0
 16 17  1  0
 16 15  2  0
 17 18  2  0
 18 13  1  0
 19 11  1  0
 20 19  2  0
 22 21  1  6
 23 22  1  0
 24 22  1  0
 24 25  1  1
 25 19  1  0
 26 27  1  0
 26 24  1  0
 28 26  2  0
M  END
$$$$
