QFV.pdb
     RDKit          3D

 28 28  0  0  1  0  0  0  0  0999 V2000
   26.3825  -17.6533  -15.4044 N   0  0  0  0  0  0  0  0  0  0  0  0
   26.0963  -18.0038  -16.7443 C   0  0  0  0  0  0  0  0  0  0  0  0
   25.0172  -17.6715  -17.2807 O   0  0  0  0  0  0  0  0  0  0  0  0
   27.1449  -18.7936  -17.4959 C   0  0  0  0  0  0  0  0  0  0  0  0
   28.2847  -19.0355  -16.5572 C   0  0  0  0  0  0  0  0  0  0  0  0
   28.3941  -20.4279  -16.0679 C   0  0  2  0  0  0  0  0  0  0  0  0
   28.2548  -21.3650  -17.2183 N   0  0  0  0  0  0  0  0  0  0  0  0
   27.5066  -20.8911  -15.0291 C   0  0  0  0  0  0  0  0  0  0  0  0
   26.5738  -21.7049  -15.3491 O   0  0  0  0  0  0  0  0  0  0  0  0
   27.5996  -20.5123  -13.6923 N   0  0  0  0  0  0  0  0  0  0  0  0
   26.6935  -21.0491  -12.6410 C   0  0  1  0  0  0  0  0  0  0  0  0
   27.3844  -20.7415  -11.3664 C   0  0  0  0  0  0  0  0  0  0  0  0
   26.5953  -20.5560  -10.1670 C   0  0  0  0  0  0  0  0  0  0  0  0
   26.5983  -19.4436   -9.3515 C   0  0  0  0  0  0  0  0  0  0  0  0
   25.8242  -19.3134   -8.2433 C   0  0  0  0  0  0  0  0  0  0  0  0
   24.9715  -20.3099   -7.8610 C   0  0  0  0  0  0  0  0  0  0  0  0
   24.9320  -21.4557   -8.6533 C   0  0  0  0  0  0  0  0  0  0  0  0
   25.7221  -21.5716   -9.7730 C   0  0  0  0  0  0  0  0  0  0  0  0
   25.3949  -20.3690  -12.8494 C   0  0  0  0  0  0  0  0  0  0  0  0
   25.3006  -19.0963  -12.9662 O   0  0  0  0  0  0  0  0  0  0  0  0
   21.0139  -19.7118  -14.5985 C   0  0  0  0  0  0  0  0  0  0  0  0
   22.3018  -20.4748  -14.4752 C   0  0  1  0  0  0  0  0  0  0  0  0
   23.2442  -19.9708  -15.5450 C   0  0  0  0  0  0  0  0  0  0  0  0
   22.8748  -20.3341  -13.0748 C   0  0  2  0  0  0  0  0  0  0  0  0
   24.1347  -21.0341  -12.9472 N   0  0  0  0  0  0  0  0  0  0  0  0
   21.8991  -20.6119  -12.0242 C   0  0  0  0  0  0  0  0  0  0  0  0
   21.3005  -19.5698  -11.3105 O   0  0  0  0  0  0  0  0  0  0  0  0
   21.5521  -21.7756  -11.7105 O   0  0  0  0  0  0  0  0  0  0  0  0
  2  1  1  0
  3  2  2  0
  4  2  1  0
  5  4  1  0
  5  6  1  0
  6  8  1  0
  6  7  1  6
  8  9  2  0
 10 11  1  0
 10  8  1  0
 11 12  1  1
 13 12  1  0
 14 13  2  0
 15 14  1  0
 16 17  1  0
 16 15  2  0
 17 18  2  0
 18 13  1  0
 19 11  1  0
 20 19  2  0
 22 21  1  1
 23 22  1  0
 24 22  1  0
 24 25  1  6
 25 19  1  0
 26 27  1  0
 26 24  1  0
 28 26  2  0
M  END
$$$$
