QFV.pdb
     RDKit          3D

 28 28  0  0  1  0  0  0  0  0999 V2000
   23.9522  -19.0657  -14.0431 N   0  0  0  0  0  0  0  0  0  0  0  0
   23.1338  -20.0924  -13.5174 C   0  0  0  0  0  0  0  0  0  0  0  0
   22.1864  -20.5650  -14.1821 O   0  0  0  0  0  0  0  0  0  0  0  0
   23.4515  -20.5908  -12.1250 C   0  0  0  0  0  0  0  0  0  0  0  0
   24.6163  -19.7998  -11.6188 C   0  0  0  0  0  0  0  0  0  0  0  0
   25.8808  -20.5621  -11.5179 C   0  0  2  0  0  0  0  0  0  0  0  0
   25.7678  -21.8097  -12.3253 N   0  0  0  0  0  0  0  0  0  0  0  0
   26.3862  -20.9373  -10.2197 C   0  0  0  0  0  0  0  0  0  0  0  0
   26.0435  -22.0728   -9.7424 O   0  0  0  0  0  0  0  0  0  0  0  0
   27.2302  -20.1429   -9.4478 N   0  0  0  0  0  0  0  0  0  0  0  0
   27.7264  -20.5637   -8.1095 C   0  0  1  0  0  0  0  0  0  0  0  0
   28.9248  -19.7225   -7.8793 C   0  0  0  0  0  0  0  0  0  0  0  0
   29.4802  -19.6418   -6.5449 C   0  0  0  0  0  0  0  0  0  0  0  0
   30.2081  -20.6217   -5.9028 C   0  0  0  0  0  0  0  0  0  0  0  0
   30.7219  -20.4887   -4.6527 C   0  0  0  0  0  0  0  0  0  0  0  0
   30.5401  -19.3392   -3.9372 C   0  0  0  0  0  0  0  0  0  0  0  0
   29.8105  -18.3182   -4.5433 C   0  0  0  0  0  0  0  0  0  0  0  0
   29.2973  -18.4687   -5.8103 C   0  0  0  0  0  0  0  0  0  0  0  0
   26.5966  -20.3428   -7.1783 C   0  0  0  0  0  0  0  0  0  0  0  0
   25.7183  -19.4301   -7.3733 O   0  0  0  0  0  0  0  0  0  0  0  0
   24.6812  -23.2198   -4.7928 C   0  0  0  0  0  0  0  0  0  0  0  0
   24.1725  -21.8625   -5.1866 C   0  0  1  0  0  0  0  0  0  0  0  0
   22.9794  -21.5430   -4.3142 C   0  0  0  0  0  0  0  0  0  0  0  0
   25.2765  -20.8243   -5.0740 C   0  0  2  0  0  0  0  0  0  0  0  0
   26.3590  -21.1030   -5.9927 N   0  0  0  0  0  0  0  0  0  0  0  0
   25.6816  -20.5637   -3.6953 C   0  0  0  0  0  0  0  0  0  0  0  0
   24.8107  -19.9355   -2.8005 O   0  0  0  0  0  0  0  0  0  0  0  0
   26.8091  -20.8817   -3.2474 O   0  0  0  0  0  0  0  0  0  0  0  0
  2  1  1  0
  3  2  2  0
  4  2  1  0
  5  4  1  0
  5  6  1  0
  6  8  1  0
  6  7  1  6
  8  9  2  0
 10 11  1  0
 10  8  1  0
 11 12  1  1
 13 12  1  0
 14 13  2  0
 15 14  1  0
 16 17  1  0
 16 15  2  0
 17 18  2  0
 18 13  1  0
 19 11  1  0
 20 19  2  0
 22 21  1  1
 23 22  1  0
 24 22  1  0
 24 25  1  6
 25 19  1  0
 26 27  1  0
 26 24  1  0
 28 26  2  0
M  END
$$$$
