QFV.pdb
     RDKit          3D

 28 28  0  0  1  0  0  0  0  0999 V2000
   27.1664  -17.1403  -13.5922 N   0  0  0  0  0  0  0  0  0  0  0  0
   26.7501  -17.9137  -14.7007 C   0  0  0  0  0  0  0  0  0  0  0  0
   25.7664  -17.5716  -15.3919 O   0  0  0  0  0  0  0  0  0  0  0  0
   27.5407  -19.1653  -15.0118 C   0  0  0  0  0  0  0  0  0  0  0  0
   28.6428  -19.2633  -14.0046 C   0  0  0  0  0  0  0  0  0  0  0  0
   28.7849  -20.5953  -13.3754 C   0  0  2  0  0  0  0  0  0  0  0  0
   28.4068  -21.6470  -14.3614 N   0  0  0  0  0  0  0  0  0  0  0  0
   28.0802  -20.8847  -12.1503 C   0  0  0  0  0  0  0  0  0  0  0  0
   27.1137  -21.7206  -12.1915 O   0  0  0  0  0  0  0  0  0  0  0  0
   28.3854  -20.3142  -10.9171 N   0  0  0  0  0  0  0  0  0  0  0  0
   27.6607  -20.6696   -9.6670 C   0  0  1  0  0  0  0  0  0  0  0  0
   28.3816  -19.9343   -8.6010 C   0  0  0  0  0  0  0  0  0  0  0  0
   28.0169  -20.1646   -7.2192 C   0  0  0  0  0  0  0  0  0  0  0  0
   28.8357  -20.6726   -6.2323 C   0  0  0  0  0  0  0  0  0  0  0  0
   28.4476  -20.8544   -4.9437 C   0  0  0  0  0  0  0  0  0  0  0  0
   27.1825  -20.5344   -4.5393 C   0  0  0  0  0  0  0  0  0  0  0  0
   26.3163  -20.0170   -5.5006 C   0  0  0  0  0  0  0  0  0  0  0  0
   26.7253  -19.8385   -6.8015 C   0  0  0  0  0  0  0  0  0  0  0  0
   26.2551  -20.2622   -9.8920 C   0  0  0  0  0  0  0  0  0  0  0  0
   25.9392  -19.0836  -10.2837 O   0  0  0  0  0  0  0  0  0  0  0  0
   21.9044  -20.8957  -11.6611 C   0  0  0  0  0  0  0  0  0  0  0  0
   23.2869  -21.3684  -11.3133 C   0  0  1  0  0  0  0  0  0  0  0  0
   24.1878  -21.0758  -12.4922 C   0  0  0  0  0  0  0  0  0  0  0  0
   23.7691  -20.7134  -10.0297 C   0  0  2  0  0  0  0  0  0  0  0  0
   25.1224  -21.1128   -9.7092 N   0  0  0  0  0  0  0  0  0  0  0  0
   22.8110  -20.8244   -8.9331 C   0  0  0  0  0  0  0  0  0  0  0  0
   21.7039  -19.9741   -8.8618 O   0  0  0  0  0  0  0  0  0  0  0  0
   22.9261  -21.6700   -8.0141 O   0  0  0  0  0  0  0  0  0  0  0  0
  2  1  1  0
  3  2  2  0
  4  2  1  0
  5  4  1  0
  5  6  1  0
  6  8  1  0
  6  7  1  6
  8  9  2  0
 10 11  1  0
 10  8  1  0
 11 12  1  1
 13 12  1  0
 14 13  2  0
 15 14  1  0
 16 17  1  0
 16 15  2  0
 17 18  2  0
 18 13  1  0
 19 11  1  0
 20 19  2  0
 22 21  1  6
 23 22  1  0
 24 22  1  0
 24 25  1  1
 25 19  1  0
 26 27  1  0
 26 24  1  0
 28 26  2  0
M  END
$$$$
