QFV.pdb
     RDKit          3D

 28 28  0  0  1  0  0  0  0  0999 V2000
   26.9464  -17.6352  -15.9420 N   0  0  0  0  0  0  0  0  0  0  0  0
   28.3058  -17.9005  -16.2277 C   0  0  0  0  0  0  0  0  0  0  0  0
   29.0024  -17.0803  -16.8639 O   0  0  0  0  0  0  0  0  0  0  0  0
   28.8774  -19.2112  -15.7342 C   0  0  0  0  0  0  0  0  0  0  0  0
   27.8106  -19.8966  -14.9398 C   0  0  0  0  0  0  0  0  0  0  0  0
   28.2412  -20.3595  -13.6017 C   0  0  2  0  0  0  0  0  0  0  0  0
   29.2658  -21.4303  -13.7588 N   0  0  0  0  0  0  0  0  0  0  0  0
   27.2578  -20.8430  -12.6633 C   0  0  0  0  0  0  0  0  0  0  0  0
   27.0541  -22.1034  -12.5965 O   0  0  0  0  0  0  0  0  0  0  0  0
   26.5132  -20.0250  -11.8174 N   0  0  0  0  0  0  0  0  0  0  0  0
   25.4772  -20.5587  -10.8921 C   0  0  1  0  0  0  0  0  0  0  0  0
   25.6434  -19.7621   -9.6534 C   0  0  0  0  0  0  0  0  0  0  0  0
   26.7273  -20.0863   -8.7503 C   0  0  0  0  0  0  0  0  0  0  0  0
   27.6501  -21.0985   -8.9123 C   0  0  0  0  0  0  0  0  0  0  0  0
   28.6605  -21.3506   -8.0405 C   0  0  0  0  0  0  0  0  0  0  0  0
   28.8245  -20.5912   -6.9167 C   0  0  0  0  0  0  0  0  0  0  0  0
   27.9164  -19.5550   -6.7079 C   0  0  0  0  0  0  0  0  0  0  0  0
   26.8990  -19.3125   -7.6009 C   0  0  0  0  0  0  0  0  0  0  0  0
   24.1869  -20.3884  -11.5983 C   0  0  0  0  0  0  0  0  0  0  0  0
   23.8718  -19.2979  -12.1933 O   0  0  0  0  0  0  0  0  0  0  0  0
   23.0109  -22.2168  -14.4608 C   0  0  0  0  0  0  0  0  0  0  0  0
   21.8182  -22.2553  -13.5486 C   0  0  1  0  0  0  0  0  0  0  0  0
   21.6923  -23.6620  -13.0082 C   0  0  0  0  0  0  0  0  0  0  0  0
   21.9517  -21.2144  -12.4496 C   0  0  2  0  0  0  0  0  0  0  0  0
   23.1762  -21.3926  -11.6997 N   0  0  0  0  0  0  0  0  0  0  0  0
   20.7427  -21.0725  -11.6428 C   0  0  0  0  0  0  0  0  0  0  0  0
   19.5734  -20.5408  -12.1940 O   0  0  0  0  0  0  0  0  0  0  0  0
   20.6877  -21.4118  -10.4367 O   0  0  0  0  0  0  0  0  0  0  0  0
  2  1  1  0
  3  2  2  0
  4  2  1  0
  5  4  1  0
  5  6  1  0
  6  8  1  0
  6  7  1  6
  8  9  2  0
 10 11  1  0
 10  8  1  0
 11 12  1  1
 13 12  1  0
 14 13  2  0
 15 14  1  0
 16 17  1  0
 16 15  2  0
 17 18  2  0
 18 13  1  0
 19 11  1  0
 20 19  2  0
 22 21  1  6
 23 22  1  0
 24 22  1  0
 24 25  1  1
 25 19  1  0
 26 27  1  0
 26 24  1  0
 28 26  2  0
M  END
$$$$
