QFV.pdb
     RDKit          3D

 28 28  0  0  1  0  0  0  0  0999 V2000
   21.9942  -19.2972  -12.1445 N   0  0  0  0  0  0  0  0  0  0  0  0
   22.3413  -19.6476  -13.4700 C   0  0  0  0  0  0  0  0  0  0  0  0
   21.8068  -19.0802  -14.4473 O   0  0  0  0  0  0  0  0  0  0  0  0
   23.3800  -20.7318  -13.6535 C   0  0  0  0  0  0  0  0  0  0  0  0
   23.8572  -21.1326  -12.2932 C   0  0  0  0  0  0  0  0  0  0  0  0
   25.2419  -20.7153  -11.9790 C   0  0  2  0  0  0  0  0  0  0  0  0
   26.1677  -21.2733  -13.0050 N   0  0  0  0  0  0  0  0  0  0  0  0
   25.8031  -21.0207  -10.6854 C   0  0  0  0  0  0  0  0  0  0  0  0
   25.8655  -22.2465  -10.3274 O   0  0  0  0  0  0  0  0  0  0  0  0
   26.2879  -20.0650   -9.7961 N   0  0  0  0  0  0  0  0  0  0  0  0
   26.7683  -20.4100   -8.4306 C   0  0  1  0  0  0  0  0  0  0  0  0
   27.8007  -19.3888   -8.1340 C   0  0  0  0  0  0  0  0  0  0  0  0
   28.4296  -19.3843   -6.8302 C   0  0  0  0  0  0  0  0  0  0  0  0
   29.1458  -20.4190   -6.2654 C   0  0  0  0  0  0  0  0  0  0  0  0
   29.7311  -20.3571   -5.0415 C   0  0  0  0  0  0  0  0  0  0  0  0
   29.6398  -19.2296   -4.2754 C   0  0  0  0  0  0  0  0  0  0  0  0
   28.9257  -18.1553   -4.8026 C   0  0  0  0  0  0  0  0  0  0  0  0
   28.3393  -18.2340   -6.0441 C   0  0  0  0  0  0  0  0  0  0  0  0
   25.5664  -20.3798   -7.5662 C   0  0  0  0  0  0  0  0  0  0  0  0
   24.4574  -19.8686   -7.9549 O   0  0  0  0  0  0  0  0  0  0  0  0
   22.1250  -22.4143   -5.5205 C   0  0  0  0  0  0  0  0  0  0  0  0
   23.4302  -22.2120   -6.2355 C   0  0  1  0  0  0  0  0  0  0  0  0
   23.1221  -21.8620   -7.6740 C   0  0  0  0  0  0  0  0  0  0  0  0
   24.2627  -21.1488   -5.5385 C   0  0  2  0  0  0  0  0  0  0  0  0
   25.5047  -20.9067   -6.2401 N   0  0  0  0  0  0  0  0  0  0  0  0
   24.3929  -21.3720   -4.1011 C   0  0  0  0  0  0  0  0  0  0  0  0
   23.4606  -20.8379   -3.2070 O   0  0  0  0  0  0  0  0  0  0  0  0
   25.3284  -22.0403   -3.5999 O   0  0  0  0  0  0  0  0  0  0  0  0
  2  1  1  0
  3  2  2  0
  4  2  1  0
  5  4  1  0
  5  6  1  0
  6  8  1  0
  6  7  1  6
  8  9  2  0
 10 11  1  0
 10  8  1  0
 11 12  1  1
 13 12  1  0
 14 13  2  0
 15 14  1  0
 16 17  1  0
 16 15  2  0
 17 18  2  0
 18 13  1  0
 19 11  1  0
 20 19  2  0
 22 21  1  1
 23 22  1  0
 24 22  1  0
 24 25  1  6
 25 19  1  0
 26 27  1  0
 26 24  1  0
 28 26  2  0
M  END
$$$$
