QFV.pdb
     RDKit          3D

 28 28  0  0  1  0  0  0  0  0999 V2000
   27.3941  -17.9370  -13.7316 N   0  0  0  0  0  0  0  0  0  0  0  0
   28.6631  -18.1418  -14.3214 C   0  0  0  0  0  0  0  0  0  0  0  0
   29.2568  -17.2132  -14.9111 O   0  0  0  0  0  0  0  0  0  0  0  0
   29.2672  -19.5242  -14.2094 C   0  0  0  0  0  0  0  0  0  0  0  0
   28.3993  -20.3211  -13.2872 C   0  0  0  0  0  0  0  0  0  0  0  0
   28.8729  -20.3709  -11.8860 C   0  0  2  0  0  0  0  0  0  0  0  0
   30.0924  -21.2242  -11.8098 N   0  0  0  0  0  0  0  0  0  0  0  0
   27.9766  -20.8122  -10.8451 C   0  0  0  0  0  0  0  0  0  0  0  0
   27.8567  -22.0689  -10.6430 O   0  0  0  0  0  0  0  0  0  0  0  0
   27.2311  -19.9565  -10.0381 N   0  0  0  0  0  0  0  0  0  0  0  0
   26.0290  -20.4072   -9.2857 C   0  0  1  0  0  0  0  0  0  0  0  0
   25.9508  -19.4845   -8.1285 C   0  0  0  0  0  0  0  0  0  0  0  0
   26.7693  -19.7478   -6.9640 C   0  0  0  0  0  0  0  0  0  0  0  0
   27.6678  -18.8770   -6.3836 C   0  0  0  0  0  0  0  0  0  0  0  0
   28.4014  -19.1688   -5.2785 C   0  0  0  0  0  0  0  0  0  0  0  0
   28.2872  -20.3815   -4.6596 C   0  0  0  0  0  0  0  0  0  0  0  0
   27.3914  -21.2969   -5.2087 C   0  0  0  0  0  0  0  0  0  0  0  0
   26.6555  -20.9855   -6.3281 C   0  0  0  0  0  0  0  0  0  0  0  0
   24.9055  -20.3303  -10.2471 C   0  0  0  0  0  0  0  0  0  0  0  0
   24.6588  -19.2724  -10.9271 O   0  0  0  0  0  0  0  0  0  0  0  0
   21.8251  -22.3643  -13.4500 C   0  0  0  0  0  0  0  0  0  0  0  0
   22.9335  -22.4875  -12.4438 C   0  0  1  0  0  0  0  0  0  0  0  0
   24.2349  -22.6259  -13.2014 C   0  0  0  0  0  0  0  0  0  0  0  0
   22.9299  -21.2997  -11.4961 C   0  0  2  0  0  0  0  0  0  0  0  0
   23.9969  -21.3970  -10.5236 N   0  0  0  0  0  0  0  0  0  0  0  0
   21.6093  -21.0091  -10.9442 C   0  0  0  0  0  0  0  0  0  0  0  0
   20.6769  -20.2662  -11.6739 O   0  0  0  0  0  0  0  0  0  0  0  0
   21.2466  -21.4008   -9.8094 O   0  0  0  0  0  0  0  0  0  0  0  0
  2  1  1  0
  3  2  2  0
  4  2  1  0
  5  4  1  0
  5  6  1  0
  6  8  1  0
  6  7  1  6
  8  9  2  0
 10 11  1  0
 10  8  1  0
 11 12  1  1
 13 12  1  0
 14 13  2  0
 15 14  1  0
 16 17  1  0
 16 15  2  0
 17 18  2  0
 18 13  1  0
 19 11  1  0
 20 19  2  0
 22 21  1  6
 23 22  1  0
 24 22  1  0
 24 25  1  1
 25 19  1  0
 26 27  1  0
 26 24  1  0
 28 26  2  0
M  END
$$$$
