SMW.pdb
     RDKit          3D

 29 30  0  0  1  0  0  0  0  0999 V2000
   26.0059  -18.0455  -14.6834 O   0  0  0  0  0  0  0  0  0  0  0  0
   27.1288  -17.3804  -14.2219 C   0  0  0  0  0  0  0  0  0  0  0  0
   28.3497  -18.1769  -14.5841 C   0  0  2  0  0  0  0  0  0  0  0  0
   28.5504  -18.1217  -16.0393 N   0  0  0  0  0  0  0  0  0  0  0  0
   28.1486  -19.5865  -14.2057 C   0  0  0  0  0  0  0  0  0  0  0  0
   28.5285  -20.4856  -15.0283 O   0  0  0  0  0  0  0  0  0  0  0  0
   32.6841  -22.8294   -9.7030 C   0  0  0  0  0  0  0  0  0  0  0  0
   31.9749  -21.5070  -10.7048 S   0  0  0  0  0  0  0  0  0  0  0  0
   30.2847  -21.8931  -11.1849 C   0  0  0  0  0  0  0  0  0  0  0  0
   29.6255  -20.7058  -11.8670 C   0  0  0  0  0  0  0  0  0  0  0  0
   28.2071  -21.1001  -12.2655 C   0  0  2  0  0  0  0  0  0  0  0  0
   27.5657  -20.0319  -12.9969 N   0  0  0  0  0  0  0  0  0  0  0  0
   27.4543  -21.4502  -11.0287 C   0  0  0  0  0  0  0  0  0  0  0  0
   28.0724  -22.1089  -10.1446 O   0  0  0  0  0  0  0  0  0  0  0  0
   26.1015  -21.0614  -10.8495 N   0  0  0  0  0  0  0  0  0  0  0  0
   25.6215  -20.9126   -9.4764 C   0  0  1  0  0  0  0  0  0  0  0  0
   26.6049  -20.1832   -8.6435 C   0  0  0  0  0  0  0  0  0  0  0  0
   26.4569  -20.4504   -7.2090 C   0  0  0  0  0  0  0  0  0  0  0  0
   25.4505  -21.2036   -6.5870 C   0  0  0  0  0  0  0  0  0  0  0  0
   25.6310  -21.1805   -5.2641 N   0  0  0  0  0  0  0  0  0  0  0  0
   26.7095  -20.4515   -4.9470 C   0  0  0  0  0  0  0  0  0  0  0  0
   27.2984  -20.1598   -3.7137 C   0  0  0  0  0  0  0  0  0  0  0  0
   28.4371  -19.3877   -3.7413 C   0  0  0  0  0  0  0  0  0  0  0  0
   28.9814  -18.9186   -4.9152 C   0  0  0  0  0  0  0  0  0  0  0  0
   28.3818  -19.2198   -6.1072 C   0  0  0  0  0  0  0  0  0  0  0  0
   27.2320  -19.9924   -6.1484 C   0  0  0  0  0  0  0  0  0  0  0  0
   24.3017  -20.2952   -9.5121 C   0  0  0  0  0  0  0  0  0  0  0  0
   23.4356  -20.6128   -8.6204 O   0  0  0  0  0  0  0  0  0  0  0  0
   23.9011  -19.3483  -10.4713 O   0  0  0  0  0  0  0  0  0  0  0  0
  1  2  1  0
  3  2  1  0
  3  5  1  0
  3  4  1  6
  5  6  2  0
  8  7  1  0
  9 10  1  0
  9  8  1  0
 11 10  1  1
 12  5  1  0
 12 11  1  0
 13 11  1  0
 13 14  2  0
 15 13  1  0
 16 15  1  0
 16 27  1  0
 16 17  1  1
 18 17  1  0
 19 18  2  0
 20 21  1  0
 20 19  1  0
 21 26  2  0
 22 23  2  0
 22 21  1  0
 23 24  1  0
 24 25  2  0
 26 18  1  0
 26 25  1  0
 27 28  2  0
 27 29  1  0
M  END
$$$$
