SMW.pdb
     RDKit          3D

 29 30  0  0  1  0  0  0  0  0999 V2000
   27.6312  -18.3045  -16.0694 O   0  0  0  0  0  0  0  0  0  0  0  0
   28.9678  -18.4963  -15.7645 C   0  0  0  0  0  0  0  0  0  0  0  0
   29.2420  -19.9710  -15.6844 C   0  0  2  0  0  0  0  0  0  0  0  0
   28.5833  -20.6485  -16.8104 N   0  0  0  0  0  0  0  0  0  0  0  0
   28.6768  -20.5102  -14.4353 C   0  0  0  0  0  0  0  0  0  0  0  0
   27.6853  -21.3091  -14.5246 O   0  0  0  0  0  0  0  0  0  0  0  0
   33.3063  -23.3740  -10.8988 C   0  0  0  0  0  0  0  0  0  0  0  0
   32.0397  -22.2538  -10.2693 S   0  0  0  0  0  0  0  0  0  0  0  0
   30.6554  -22.1334  -11.4119 C   0  0  0  0  0  0  0  0  0  0  0  0
   29.6255  -21.1304  -10.9190 C   0  0  0  0  0  0  0  0  0  0  0  0
   28.5806  -20.9300  -12.0117 C   0  0  2  0  0  0  0  0  0  0  0  0
   29.1446  -20.2157  -13.1338 N   0  0  0  0  0  0  0  0  0  0  0  0
   27.4214  -20.2032  -11.4226 C   0  0  0  0  0  0  0  0  0  0  0  0
   27.4046  -18.9457  -11.5494 O   0  0  0  0  0  0  0  0  0  0  0  0
   26.3804  -20.8916  -10.7478 N   0  0  0  0  0  0  0  0  0  0  0  0
   25.4341  -20.0880   -9.9751 C   0  0  1  0  0  0  0  0  0  0  0  0
   24.6870  -19.1557  -10.8500 C   0  0  0  0  0  0  0  0  0  0  0  0
   23.8440  -19.8402  -11.8359 C   0  0  0  0  0  0  0  0  0  0  0  0
   22.7563  -20.6871  -11.5780 C   0  0  0  0  0  0  0  0  0  0  0  0
   22.2715  -21.1524  -12.7320 N   0  0  0  0  0  0  0  0  0  0  0  0
   22.9697  -20.6676  -13.7676 C   0  0  0  0  0  0  0  0  0  0  0  0
   22.8273  -20.8508  -15.1457 C   0  0  0  0  0  0  0  0  0  0  0  0
   23.7129  -20.1739  -15.9525 C   0  0  0  0  0  0  0  0  0  0  0  0
   24.6949  -19.3543  -15.4443 C   0  0  0  0  0  0  0  0  0  0  0  0
   24.8104  -19.1954  -14.0906 C   0  0  0  0  0  0  0  0  0  0  0  0
   23.9503  -19.8497  -13.2230 C   0  0  0  0  0  0  0  0  0  0  0  0
   24.5842  -20.9875   -9.2051 C   0  0  0  0  0  0  0  0  0  0  0  0
   24.7309  -22.2554   -9.3358 O   0  0  0  0  0  0  0  0  0  0  0  0
   23.5962  -20.5568   -8.3020 O   0  0  0  0  0  0  0  0  0  0  0  0
  1  2  1  0
  3  2  1  0
  3  5  1  0
  3  4  1  6
  5  6  2  0
  8  7  1  0
  9 10  1  0
  9  8  1  0
 11 10  1  1
 12  5  1  0
 12 11  1  0
 13 11  1  0
 13 14  2  0
 15 13  1  0
 16 15  1  0
 16 27  1  0
 16 17  1  6
 18 17  1  0
 19 18  2  0
 20 21  1  0
 20 19  1  0
 21 26  2  0
 22 23  2  0
 22 21  1  0
 23 24  1  0
 24 25  2  0
 26 18  1  0
 26 25  1  0
 27 28  2  0
 27 29  1  0
M  END
$$$$
