SMW.pdb
     RDKit          3D

 29 30  0  0  1  0  0  0  0  0999 V2000
   27.5957  -24.2048  -18.1009 O   0  0  0  0  0  0  0  0  0  0  0  0
   28.6343  -24.1354  -17.1883 C   0  0  0  0  0  0  0  0  0  0  0  0
   29.2236  -22.7542  -17.2255 C   0  0  2  0  0  0  0  0  0  0  0  0
   30.6828  -22.8454  -17.0724 N   0  0  0  0  0  0  0  0  0  0  0  0
   28.6965  -21.9631  -16.0999 C   0  0  0  0  0  0  0  0  0  0  0  0
   29.2851  -22.0641  -14.9718 O   0  0  0  0  0  0  0  0  0  0  0  0
   29.0633  -15.6395  -17.1002 C   0  0  0  0  0  0  0  0  0  0  0  0
   27.6289  -16.4897  -16.4110 S   0  0  0  0  0  0  0  0  0  0  0  0
   28.0309  -18.1875  -15.9726 C   0  0  0  0  0  0  0  0  0  0  0  0
   26.8224  -18.9027  -15.3915 C   0  0  0  0  0  0  0  0  0  0  0  0
   27.2377  -20.3160  -14.9962 C   0  0  2  0  0  0  0  0  0  0  0  0
   27.5840  -21.0927  -16.1642 N   0  0  0  0  0  0  0  0  0  0  0  0
   26.1182  -20.9365  -14.2343 C   0  0  0  0  0  0  0  0  0  0  0  0
   25.6030  -21.9846  -14.7176 O   0  0  0  0  0  0  0  0  0  0  0  0
   25.6493  -20.3760  -13.0180 N   0  0  0  0  0  0  0  0  0  0  0  0
   24.6750  -21.1521  -12.2522 C   0  0  1  0  0  0  0  0  0  0  0  0
   25.3413  -21.9617  -11.2064 C   0  0  0  0  0  0  0  0  0  0  0  0
   26.0217  -21.1481  -10.1933 C   0  0  0  0  0  0  0  0  0  0  0  0
   25.4357  -20.2263   -9.3136 C   0  0  0  0  0  0  0  0  0  0  0  0
   26.3868  -19.6520   -8.5728 N   0  0  0  0  0  0  0  0  0  0  0  0
   27.5942  -20.1331   -8.8982 C   0  0  0  0  0  0  0  0  0  0  0  0
   28.8671  -19.8558   -8.3924 C   0  0  0  0  0  0  0  0  0  0  0  0
   29.9153  -20.5579   -8.9417 C   0  0  0  0  0  0  0  0  0  0  0  0
   29.7365  -21.4894   -9.9391 C   0  0  0  0  0  0  0  0  0  0  0  0
   28.4785  -21.7386  -10.4148 C   0  0  0  0  0  0  0  0  0  0  0  0
   27.3801  -21.0648   -9.9048 C   0  0  0  0  0  0  0  0  0  0  0  0
   23.6590  -20.2418  -11.7391 C   0  0  0  0  0  0  0  0  0  0  0  0
   22.6202  -20.7228  -11.1596 O   0  0  0  0  0  0  0  0  0  0  0  0
   23.7395  -18.8409  -11.8283 O   0  0  0  0  0  0  0  0  0  0  0  0
  1  2  1  0
  3  2  1  0
  3  5  1  0
  3  4  1  1
  5  6  2  0
  8  7  1  0
  9 10  1  0
  9  8  1  0
 11 10  1  6
 12  5  1  0
 12 11  1  0
 13 11  1  0
 13 14  2  0
 15 13  1  0
 16 15  1  0
 16 27  1  0
 16 17  1  1
 18 17  1  0
 19 18  2  0
 20 21  1  0
 20 19  1  0
 21 26  2  0
 22 23  2  0
 22 21  1  0
 23 24  1  0
 24 25  2  0
 26 18  1  0
 26 25  1  0
 27 28  2  0
 27 29  1  0
M  END
$$$$
