SMW.pdb
     RDKit          3D

 29 30  0  0  1  0  0  0  0  0999 V2000
   26.5084  -25.0681  -17.6814 O   0  0  0  0  0  0  0  0  0  0  0  0
   27.0154  -24.4232  -16.5664 C   0  0  0  0  0  0  0  0  0  0  0  0
   27.8404  -23.2510  -17.0151 C   0  0  2  0  0  0  0  0  0  0  0  0
   29.1774  -23.7205  -17.4063 N   0  0  0  0  0  0  0  0  0  0  0  0
   27.9996  -22.3037  -15.8980 C   0  0  0  0  0  0  0  0  0  0  0  0
   29.0910  -22.3380  -15.2370 O   0  0  0  0  0  0  0  0  0  0  0  0
   27.7889  -15.8835  -15.4660 C   0  0  0  0  0  0  0  0  0  0  0  0
   26.9205  -16.3959  -13.9698 S   0  0  0  0  0  0  0  0  0  0  0  0
   27.2602  -18.1193  -13.5815 C   0  0  0  0  0  0  0  0  0  0  0  0
   26.9610  -19.0168  -14.7709 C   0  0  0  0  0  0  0  0  0  0  0  0
   27.3634  -20.4444  -14.4158 C   0  0  2  0  0  0  0  0  0  0  0  0
   27.0371  -21.3505  -15.4927 N   0  0  0  0  0  0  0  0  0  0  0  0
   26.6754  -20.8229  -13.1500 C   0  0  0  0  0  0  0  0  0  0  0  0
   25.4769  -21.2143  -13.2400 O   0  0  0  0  0  0  0  0  0  0  0  0
   27.3359  -20.7479  -11.8964 N   0  0  0  0  0  0  0  0  0  0  0  0
   26.6372  -21.2968  -10.7350 C   0  0  1  0  0  0  0  0  0  0  0  0
   27.5655  -21.4941   -9.5982 C   0  0  0  0  0  0  0  0  0  0  0  0
   27.2576  -20.6392   -8.4469 C   0  0  0  0  0  0  0  0  0  0  0  0
   26.1775  -19.7546   -8.3135 C   0  0  0  0  0  0  0  0  0  0  0  0
   26.2631  -19.1219   -7.1406 N   0  0  0  0  0  0  0  0  0  0  0  0
   27.3451  -19.5277   -6.4627 C   0  0  0  0  0  0  0  0  0  0  0  0
   27.8342  -19.1719   -5.2028 C   0  0  0  0  0  0  0  0  0  0  0  0
   28.9800  -19.8083   -4.7839 C   0  0  0  0  0  0  0  0  0  0  0  0
   29.6240  -20.7499   -5.5540 C   0  0  0  0  0  0  0  0  0  0  0  0
   29.1219  -21.0769   -6.7836 C   0  0  0  0  0  0  0  0  0  0  0  0
   27.9717  -20.4718   -7.2647 C   0  0  0  0  0  0  0  0  0  0  0  0
   25.5010  -20.4365  -10.4296 C   0  0  0  0  0  0  0  0  0  0  0  0
   25.5390  -19.2008  -10.7728 O   0  0  0  0  0  0  0  0  0  0  0  0
   24.3350  -20.8743   -9.7771 O   0  0  0  0  0  0  0  0  0  0  0  0
  1  2  1  0
  3  2  1  0
  3  5  1  0
  3  4  1  1
  5  6  2  0
  8  7  1  0
  9 10  1  0
  9  8  1  0
 11 10  1  6
 12  5  1  0
 12 11  1  0
 13 11  1  0
 13 14  2  0
 15 13  1  0
 16 15  1  0
 16 27  1  0
 16 17  1  1
 18 17  1  0
 19 18  2  0
 20 21  1  0
 20 19  1  0
 21 26  2  0
 22 23  2  0
 22 21  1  0
 23 24  1  0
 24 25  2  0
 26 18  1  0
 26 25  1  0
 27 28  2  0
 27 29  1  0
M  END
$$$$
