SMW.pdb
     RDKit          3D

 29 30  0  0  1  0  0  0  0  0999 V2000
   19.1670  -22.3834  -14.5986 O   0  0  0  0  0  0  0  0  0  0  0  0
   19.4984  -23.2746  -13.5926 C   0  0  0  0  0  0  0  0  0  0  0  0
   19.7392  -22.5084  -12.3232 C   0  0  2  0  0  0  0  0  0  0  0  0
   18.5490  -21.7049  -12.0089 N   0  0  0  0  0  0  0  0  0  0  0  0
   20.8734  -21.5872  -12.5112 C   0  0  0  0  0  0  0  0  0  0  0  0
   20.6131  -20.3637  -12.7655 O   0  0  0  0  0  0  0  0  0  0  0  0
   25.0931  -20.5180   -8.3372 C   0  0  0  0  0  0  0  0  0  0  0  0
   26.0995  -20.5581   -9.8341 S   0  0  0  0  0  0  0  0  0  0  0  0
   25.1321  -20.0935  -11.2779 C   0  0  0  0  0  0  0  0  0  0  0  0
   24.5543  -21.3191  -11.9661 C   0  0  0  0  0  0  0  0  0  0  0  0
   23.2414  -20.9267  -12.6358 C   0  0  2  0  0  0  0  0  0  0  0  0
   22.2387  -21.9467  -12.4324 N   0  0  0  0  0  0  0  0  0  0  0  0
   23.5058  -20.6952  -14.0834 C   0  0  0  0  0  0  0  0  0  0  0  0
   23.3852  -21.6872  -14.8572 O   0  0  0  0  0  0  0  0  0  0  0  0
   23.8772  -19.4165  -14.5736 N   0  0  0  0  0  0  0  0  0  0  0  0
   24.0620  -19.2783  -16.0175 C   0  0  1  0  0  0  0  0  0  0  0  0
   23.3151  -18.1121  -16.5418 C   0  0  0  0  0  0  0  0  0  0  0  0
   23.5742  -17.8520  -17.9618 C   0  0  0  0  0  0  0  0  0  0  0  0
   24.8217  -17.6664  -18.5751 C   0  0  0  0  0  0  0  0  0  0  0  0
   24.6451  -17.4091  -19.8735 N   0  0  0  0  0  0  0  0  0  0  0  0
   23.3413  -17.4096  -20.1823 C   0  0  0  0  0  0  0  0  0  0  0  0
   22.6786  -17.2131  -21.3969 C   0  0  0  0  0  0  0  0  0  0  0  0
   21.3060  -17.3069  -21.3726 C   0  0  0  0  0  0  0  0  0  0  0  0
   20.6060  -17.5797  -20.2194 C   0  0  0  0  0  0  0  0  0  0  0  0
   21.2823  -17.7663  -19.0452 C   0  0  0  0  0  0  0  0  0  0  0  0
   22.6651  -17.6844  -19.0015 C   0  0  0  0  0  0  0  0  0  0  0  0
   25.4915  -19.2418  -16.2995 C   0  0  0  0  0  0  0  0  0  0  0  0
   26.2889  -18.7287  -15.4353 O   0  0  0  0  0  0  0  0  0  0  0  0
   26.0754  -19.7467  -17.4747 O   0  0  0  0  0  0  0  0  0  0  0  0
  1  2  1  0
  3  2  1  0
  3  5  1  0
  3  4  1  6
  5  6  2  0
  8  7  1  0
  9 10  1  0
  9  8  1  0
 11 10  1  1
 12  5  1  0
 12 11  1  0
 13 11  1  0
 13 14  2  0
 15 13  1  0
 16 15  1  0
 16 27  1  0
 16 17  1  1
 18 17  1  0
 19 18  2  0
 20 21  1  0
 20 19  1  0
 21 26  2  0
 22 23  2  0
 22 21  1  0
 23 24  1  0
 24 25  2  0
 26 18  1  0
 26 25  1  0
 27 28  2  0
 27 29  1  0
M  END
$$$$
