SMW.pdb
     RDKit          3D

 29 30  0  0  1  0  0  0  0  0999 V2000
   27.2699  -17.9367  -14.0350 O   0  0  0  0  0  0  0  0  0  0  0  0
   28.3686  -18.4262  -14.7202 C   0  0  0  0  0  0  0  0  0  0  0  0
   27.9643  -18.7306  -16.1344 C   0  0  2  0  0  0  0  0  0  0  0  0
   27.2217  -17.5868  -16.6833 N   0  0  0  0  0  0  0  0  0  0  0  0
   27.0716  -19.9026  -16.1504 C   0  0  0  0  0  0  0  0  0  0  0  0
   25.8250  -19.7011  -16.3366 O   0  0  0  0  0  0  0  0  0  0  0  0
   25.3184  -27.5482  -16.6679 C   0  0  0  0  0  0  0  0  0  0  0  0
   26.6298  -26.3090  -16.6692 S   0  0  0  0  0  0  0  0  0  0  0  0
   25.9836  -24.6813  -16.2580 C   0  0  0  0  0  0  0  0  0  0  0  0
   27.0937  -23.6438  -16.2290 C   0  0  0  0  0  0  0  0  0  0  0  0
   26.4778  -22.2811  -15.9292 C   0  0  2  0  0  0  0  0  0  0  0  0
   27.4827  -21.2442  -15.9761 N   0  0  0  0  0  0  0  0  0  0  0  0
   25.8186  -22.3493  -14.5952 C   0  0  0  0  0  0  0  0  0  0  0  0
   24.8215  -23.1180  -14.4835 O   0  0  0  0  0  0  0  0  0  0  0  0
   26.2887  -21.5848  -13.4963 N   0  0  0  0  0  0  0  0  0  0  0  0
   25.6931  -21.8523  -12.1879 C   0  0  1  0  0  0  0  0  0  0  0  0
   26.7360  -21.9984  -11.1468 C   0  0  0  0  0  0  0  0  0  0  0  0
   26.5458  -21.0929  -10.0087 C   0  0  0  0  0  0  0  0  0  0  0  0
   25.3888  -20.3689   -9.6864 C   0  0  0  0  0  0  0  0  0  0  0  0
   25.6187  -19.6222   -8.6034 N   0  0  0  0  0  0  0  0  0  0  0  0
   26.8729  -19.7975   -8.1661 C   0  0  0  0  0  0  0  0  0  0  0  0
   27.5556  -19.2553   -7.0739 C   0  0  0  0  0  0  0  0  0  0  0  0
   28.8537  -19.6728   -6.8890 C   0  0  0  0  0  0  0  0  0  0  0  0
   29.4636  -20.5777   -7.7278 C   0  0  0  0  0  0  0  0  0  0  0  0
   28.7701  -21.0905   -8.7895 C   0  0  0  0  0  0  0  0  0  0  0  0
   27.4596  -20.7104   -9.0318 C   0  0  0  0  0  0  0  0  0  0  0  0
   24.7141  -20.8106  -11.9037 C   0  0  0  0  0  0  0  0  0  0  0  0
   23.9176  -20.9526  -10.9079 O   0  0  0  0  0  0  0  0  0  0  0  0
   24.5804  -19.6295  -12.6548 O   0  0  0  0  0  0  0  0  0  0  0  0
  1  2  1  0
  3  2  1  0
  3  5  1  0
  3  4  1  1
  5  6  2  0
  8  7  1  0
  9 10  1  0
  9  8  1  0
 11 10  1  1
 12  5  1  0
 12 11  1  0
 13 11  1  0
 13 14  2  0
 15 13  1  0
 16 15  1  0
 16 27  1  0
 16 17  1  1
 18 17  1  0
 19 18  2  0
 20 21  1  0
 20 19  1  0
 21 26  2  0
 22 23  2  0
 22 21  1  0
 23 24  1  0
 24 25  2  0
 26 18  1  0
 26 25  1  0
 27 28  2  0
 27 29  1  0
M  END
$$$$
