SMW.pdb
     RDKit          3D

 29 30  0  0  1  0  0  0  0  0999 V2000
   26.6376  -15.7176  -15.4718 O   0  0  0  0  0  0  0  0  0  0  0  0
   25.7913  -16.5232  -16.2142 C   0  0  0  0  0  0  0  0  0  0  0  0
   26.5972  -17.2483  -17.2539 C   0  0  2  0  0  0  0  0  0  0  0  0
   26.0098  -17.0049  -18.5793 N   0  0  0  0  0  0  0  0  0  0  0  0
   26.5478  -18.6975  -16.9934 C   0  0  0  0  0  0  0  0  0  0  0  0
   25.4300  -19.2942  -17.1483 O   0  0  0  0  0  0  0  0  0  0  0  0
   30.2947  -23.5746  -18.4656 C   0  0  0  0  0  0  0  0  0  0  0  0
   29.4246  -24.3321  -17.0785 S   0  0  0  0  0  0  0  0  0  0  0  0
   28.2086  -23.2039  -16.3823 C   0  0  0  0  0  0  0  0  0  0  0  0
   28.5296  -21.7632  -16.7440 C   0  0  0  0  0  0  0  0  0  0  0  0
   27.4099  -20.8696  -16.2205 C   0  0  2  0  0  0  0  0  0  0  0  0
   27.6440  -19.4909  -16.5834 N   0  0  0  0  0  0  0  0  0  0  0  0
   27.3247  -21.0436  -14.7435 C   0  0  0  0  0  0  0  0  0  0  0  0
   28.3704  -20.8072  -14.0740 O   0  0  0  0  0  0  0  0  0  0  0  0
   26.1221  -21.4568  -14.1141 N   0  0  0  0  0  0  0  0  0  0  0  0
   26.1357  -21.5847  -12.6576 C   0  0  1  0  0  0  0  0  0  0  0  0
   26.5795  -20.3261  -12.0156 C   0  0  0  0  0  0  0  0  0  0  0  0
   26.3869  -20.3210  -10.5617 C   0  0  0  0  0  0  0  0  0  0  0  0
   25.1740  -20.1983   -9.8683 C   0  0  0  0  0  0  0  0  0  0  0  0
   25.4116  -20.1922   -8.5542 N   0  0  0  0  0  0  0  0  0  0  0  0
   26.7243  -20.3053   -8.3108 C   0  0  0  0  0  0  0  0  0  0  0  0
   27.4407  -20.3643   -7.1124 C   0  0  0  0  0  0  0  0  0  0  0  0
   28.8050  -20.5107   -7.2163 C   0  0  0  0  0  0  0  0  0  0  0  0
   29.4470  -20.5962   -8.4307 C   0  0  0  0  0  0  0  0  0  0  0  0
   28.7189  -20.5344   -9.5870 C   0  0  0  0  0  0  0  0  0  0  0  0
   27.3414  -20.3867   -9.5517 C   0  0  0  0  0  0  0  0  0  0  0  0
   24.8222  -22.0411  -12.2210 C   0  0  0  0  0  0  0  0  0  0  0  0
   23.7864  -21.7219  -12.9076 O   0  0  0  0  0  0  0  0  0  0  0  0
   24.6027  -22.8312  -11.0787 O   0  0  0  0  0  0  0  0  0  0  0  0
  1  2  1  0
  3  2  1  0
  3  5  1  0
  3  4  1  6
  5  6  2  0
  8  7  1  0
  9 10  1  0
  9  8  1  0
 11 10  1  1
 12  5  1  0
 12 11  1  0
 13 11  1  0
 13 14  2  0
 15 13  1  0
 16 15  1  0
 16 27  1  0
 16 17  1  1
 18 17  1  0
 19 18  2  0
 20 21  1  0
 20 19  1  0
 21 26  2  0
 22 23  2  0
 22 21  1  0
 23 24  1  0
 24 25  2  0
 26 18  1  0
 26 25  1  0
 27 28  2  0
 27 29  1  0
M  END
$$$$
