SMW.pdb
     RDKit          3D

 29 30  0  0  1  0  0  0  0  0999 V2000
   28.6354  -20.5608  -16.5220 O   0  0  0  0  0  0  0  0  0  0  0  0
   28.9280  -19.2196  -16.7005 C   0  0  0  0  0  0  0  0  0  0  0  0
   27.6446  -18.4393  -16.7163 C   0  0  2  0  0  0  0  0  0  0  0  0
   27.9448  -17.0168  -16.9345 N   0  0  0  0  0  0  0  0  0  0  0  0
   26.9736  -18.5677  -15.4110 C   0  0  0  0  0  0  0  0  0  0  0  0
   27.3957  -17.8429  -14.4488 O   0  0  0  0  0  0  0  0  0  0  0  0
   20.9284  -20.2182  -10.6971 C   0  0  0  0  0  0  0  0  0  0  0  0
   21.5907  -20.2972  -12.3734 S   0  0  0  0  0  0  0  0  0  0  0  0
   23.3013  -19.7421  -12.4212 C   0  0  0  0  0  0  0  0  0  0  0  0
   23.8385  -19.7486  -13.8427 C   0  0  0  0  0  0  0  0  0  0  0  0
   25.3322  -19.4433  -13.7992 C   0  0  2  0  0  0  0  0  0  0  0  0
   25.8911  -19.4334  -15.1314 N   0  0  0  0  0  0  0  0  0  0  0  0
   25.9920  -20.4595  -12.9326 C   0  0  0  0  0  0  0  0  0  0  0  0
   26.2144  -21.5946  -13.4421 O   0  0  0  0  0  0  0  0  0  0  0  0
   26.3558  -20.1670  -11.5927 N   0  0  0  0  0  0  0  0  0  0  0  0
   27.0039  -21.2296  -10.8253 C   0  0  1  0  0  0  0  0  0  0  0  0
   28.1280  -20.6976  -10.0214 C   0  0  0  0  0  0  0  0  0  0  0  0
   27.7016  -20.1307   -8.7376 C   0  0  0  0  0  0  0  0  0  0  0  0
   26.4847  -19.4932   -8.4555 C   0  0  0  0  0  0  0  0  0  0  0  0
   26.4855  -19.0744   -7.1875 N   0  0  0  0  0  0  0  0  0  0  0  0
   27.6394  -19.3926   -6.5855 C   0  0  0  0  0  0  0  0  0  0  0  0
   28.0887  -19.1843   -5.2787 C   0  0  0  0  0  0  0  0  0  0  0  0
   29.3399  -19.6681   -4.9724 C   0  0  0  0  0  0  0  0  0  0  0  0
   30.1220  -20.3261   -5.8943 C   0  0  0  0  0  0  0  0  0  0  0  0
   29.6555  -20.5141   -7.1663 C   0  0  0  0  0  0  0  0  0  0  0  0
   28.4039  -20.0504   -7.5394 C   0  0  0  0  0  0  0  0  0  0  0  0
   25.9878  -21.9185  -10.0397 C   0  0  0  0  0  0  0  0  0  0  0  0
   24.7899  -21.4593  -10.0217 O   0  0  0  0  0  0  0  0  0  0  0  0
   26.2285  -23.0820   -9.2877 O   0  0  0  0  0  0  0  0  0  0  0  0
  1  2  1  0
  3  2  1  0
  3  5  1  0
  3  4  1  1
  5  6  2  0
  8  7  1  0
  9 10  1  0
  9  8  1  0
 11 10  1  6
 12  5  1  0
 12 11  1  0
 13 11  1  0
 13 14  2  0
 15 13  1  0
 16 15  1  0
 16 27  1  0
 16 17  1  1
 18 17  1  0
 19 18  2  0
 20 21  1  0
 20 19  1  0
 21 26  2  0
 22 23  2  0
 22 21  1  0
 23 24  1  0
 24 25  2  0
 26 18  1  0
 26 25  1  0
 27 28  2  0
 27 29  1  0
M  END
$$$$
