SMW.pdb
     RDKit          3D

 29 30  0  0  1  0  0  0  0  0999 V2000
   28.2533  -15.1747  -14.1722 O   0  0  0  0  0  0  0  0  0  0  0  0
   27.3043  -14.8224  -15.1164 C   0  0  0  0  0  0  0  0  0  0  0  0
   26.8607  -16.0585  -15.8455 C   0  0  2  0  0  0  0  0  0  0  0  0
   25.8897  -15.6864  -16.8845 N   0  0  0  0  0  0  0  0  0  0  0  0
   26.1915  -16.9727  -14.9037 C   0  0  0  0  0  0  0  0  0  0  0  0
   25.0634  -16.6157  -14.4247 O   0  0  0  0  0  0  0  0  0  0  0  0
   23.0817  -20.3713  -18.0753 C   0  0  0  0  0  0  0  0  0  0  0  0
   23.7102  -20.9687  -16.4931 S   0  0  0  0  0  0  0  0  0  0  0  0
   24.5555  -19.6588  -15.5955 C   0  0  0  0  0  0  0  0  0  0  0  0
   25.2751  -20.2088  -14.3751 C   0  0  0  0  0  0  0  0  0  0  0  0
   25.8904  -19.0434  -13.6074 C   0  0  2  0  0  0  0  0  0  0  0  0
   26.6972  -18.2241  -14.4821 N   0  0  0  0  0  0  0  0  0  0  0  0
   26.6899  -19.5970  -12.4790 C   0  0  0  0  0  0  0  0  0  0  0  0
   27.9102  -19.2727  -12.4235 O   0  0  0  0  0  0  0  0  0  0  0  0
   26.1076  -20.4517  -11.5075 N   0  0  0  0  0  0  0  0  0  0  0  0
   26.9781  -20.9513  -10.4441 C   0  0  1  0  0  0  0  0  0  0  0  0
   27.5023  -19.8400   -9.6175 C   0  0  0  0  0  0  0  0  0  0  0  0
   27.0599  -19.9017   -8.2205 C   0  0  0  0  0  0  0  0  0  0  0  0
   25.7507  -20.0890   -7.7541 C   0  0  0  0  0  0  0  0  0  0  0  0
   25.7431  -20.0425   -6.4195 N   0  0  0  0  0  0  0  0  0  0  0  0
   26.9794  -19.8340   -5.9469 C   0  0  0  0  0  0  0  0  0  0  0  0
   27.4648  -19.7318   -4.6405 C   0  0  0  0  0  0  0  0  0  0  0  0
   28.8198  -19.5382   -4.4996 C   0  0  0  0  0  0  0  0  0  0  0  0
   29.6679  -19.4477   -5.5798 C   0  0  0  0  0  0  0  0  0  0  0  0
   29.1632  -19.5506   -6.8470 C   0  0  0  0  0  0  0  0  0  0  0  0
   27.8073  -19.7452   -7.0576 C   0  0  0  0  0  0  0  0  0  0  0  0
   26.2497  -21.9608   -9.6862 C   0  0  0  0  0  0  0  0  0  0  0  0
   26.8983  -22.7598   -8.9198 O   0  0  0  0  0  0  0  0  0  0  0  0
   24.8536  -22.1224   -9.7289 O   0  0  0  0  0  0  0  0  0  0  0  0
  1  2  1  0
  3  2  1  0
  3  5  1  0
  3  4  1  6
  5  6  2  0
  8  7  1  0
  9 10  1  0
  9  8  1  0
 11 10  1  6
 12  5  1  0
 12 11  1  0
 13 11  1  0
 13 14  2  0
 15 13  1  0
 16 15  1  0
 16 27  1  0
 16 17  1  1
 18 17  1  0
 19 18  2  0
 20 21  1  0
 20 19  1  0
 21 26  2  0
 22 23  2  0
 22 21  1  0
 23 24  1  0
 24 25  2  0
 26 18  1  0
 26 25  1  0
 27 28  2  0
 27 29  1  0
M  END
$$$$
