SMW.pdb
     RDKit          3D

 29 30  0  0  1  0  0  0  0  0999 V2000
   25.8200  -17.3663  -16.0991 O   0  0  0  0  0  0  0  0  0  0  0  0
   26.7407  -17.2461  -15.0723 C   0  0  0  0  0  0  0  0  0  0  0  0
   27.5509  -18.5085  -14.9948 C   0  0  2  0  0  0  0  0  0  0  0  0
   27.8177  -18.9977  -16.3551 N   0  0  0  0  0  0  0  0  0  0  0  0
   26.7831  -19.5439  -14.2813 C   0  0  0  0  0  0  0  0  0  0  0  0
   26.2938  -20.5031  -14.9668 O   0  0  0  0  0  0  0  0  0  0  0  0
   27.4065  -20.5167   -8.0824 C   0  0  0  0  0  0  0  0  0  0  0  0
   28.4411  -21.3867   -9.2773 S   0  0  0  0  0  0  0  0  0  0  0  0
   27.7719  -21.2414  -10.9409 C   0  0  0  0  0  0  0  0  0  0  0  0
   26.2766  -20.9716  -10.9068 C   0  0  0  0  0  0  0  0  0  0  0  0
   25.8040  -20.6740  -12.3260 C   0  0  2  0  0  0  0  0  0  0  0  0
   26.5406  -19.5657  -12.8884 N   0  0  0  0  0  0  0  0  0  0  0  0
   24.3408  -20.3979  -12.2833 C   0  0  0  0  0  0  0  0  0  0  0  0
   23.9756  -19.3040  -11.7660 O   0  0  0  0  0  0  0  0  0  0  0  0
   23.3968  -21.3221  -12.8007 N   0  0  0  0  0  0  0  0  0  0  0  0
   21.9946  -20.9082  -12.8240 C   0  0  1  0  0  0  0  0  0  0  0  0
   21.8286  -19.6265  -13.5469 C   0  0  0  0  0  0  0  0  0  0  0  0
   22.1986  -19.7111  -14.9636 C   0  0  0  0  0  0  0  0  0  0  0  0
   22.0464  -20.8156  -15.8144 C   0  0  0  0  0  0  0  0  0  0  0  0
   22.5413  -20.5206  -17.0190 N   0  0  0  0  0  0  0  0  0  0  0  0
   23.0239  -19.2708  -17.0385 C   0  0  0  0  0  0  0  0  0  0  0  0
   23.6123  -18.5227  -18.0618 C   0  0  0  0  0  0  0  0  0  0  0  0
   23.9808  -17.2342  -17.7499 C   0  0  0  0  0  0  0  0  0  0  0  0
   23.7870  -16.6942  -16.4988 C   0  0  0  0  0  0  0  0  0  0  0  0
   23.2093  -17.4514  -15.5170 C   0  0  0  0  0  0  0  0  0  0  0  0
   22.8161  -18.7569  -15.7659 C   0  0  0  0  0  0  0  0  0  0  0  0
   21.1984  -22.0018  -13.3666 C   0  0  0  0  0  0  0  0  0  0  0  0
   21.7917  -22.9975  -13.9168 O   0  0  0  0  0  0  0  0  0  0  0  0
   19.7938  -22.0499  -13.3236 O   0  0  0  0  0  0  0  0  0  0  0  0
  1  2  1  0
  3  2  1  0
  3  5  1  0
  3  4  1  6
  5  6  2  0
  8  7  1  0
  9 10  1  0
  9  8  1  0
 11 10  1  1
 12  5  1  0
 12 11  1  0
 13 11  1  0
 13 14  2  0
 15 13  1  0
 16 15  1  0
 16 27  1  0
 16 17  1  6
 18 17  1  0
 19 18  2  0
 20 21  1  0
 20 19  1  0
 21 26  2  0
 22 23  2  0
 22 21  1  0
 23 24  1  0
 24 25  2  0
 26 18  1  0
 26 25  1  0
 27 28  2  0
 27 29  1  0
M  END
$$$$
