SMW.pdb
     RDKit          3D

 29 30  0  0  1  0  0  0  0  0999 V2000
   28.6616  -22.2897  -14.8119 O   0  0  0  0  0  0  0  0  0  0  0  0
   28.0464  -22.4646  -16.0396 C   0  0  0  0  0  0  0  0  0  0  0  0
   27.1314  -21.3012  -16.2957 C   0  0  2  0  0  0  0  0  0  0  0  0
   27.8867  -20.2264  -16.9555 N   0  0  0  0  0  0  0  0  0  0  0  0
   26.6252  -20.7808  -15.0137 C   0  0  0  0  0  0  0  0  0  0  0  0
   27.1511  -19.7126  -14.5535 O   0  0  0  0  0  0  0  0  0  0  0  0
   20.4644  -21.0962  -13.4600 C   0  0  0  0  0  0  0  0  0  0  0  0
   21.0420  -19.8673  -12.2720 S   0  0  0  0  0  0  0  0  0  0  0  0
   22.8391  -19.8331  -12.1971 C   0  0  0  0  0  0  0  0  0  0  0  0
   23.4484  -20.6751  -13.3058 C   0  0  0  0  0  0  0  0  0  0  0  0
   24.9676  -20.5863  -13.2044 C   0  0  2  0  0  0  0  0  0  0  0  0
   25.5961  -21.3695  -14.2431 N   0  0  0  0  0  0  0  0  0  0  0  0
   25.3733  -21.0455  -11.8466 C   0  0  0  0  0  0  0  0  0  0  0  0
   25.3065  -22.2860  -11.6138 O   0  0  0  0  0  0  0  0  0  0  0  0
   25.8158  -20.1307  -10.8564 N   0  0  0  0  0  0  0  0  0  0  0  0
   26.2558  -20.6861   -9.5773 C   0  0  1  0  0  0  0  0  0  0  0  0
   27.2338  -19.7924   -8.9158 C   0  0  0  0  0  0  0  0  0  0  0  0
   27.6898  -20.2974   -7.6165 C   0  0  0  0  0  0  0  0  0  0  0  0
   27.8350  -21.6384   -7.2324 C   0  0  0  0  0  0  0  0  0  0  0  0
   28.2303  -21.6957   -5.9581 N   0  0  0  0  0  0  0  0  0  0  0  0
   28.3647  -20.4636   -5.4492 C   0  0  0  0  0  0  0  0  0  0  0  0
   28.7679  -20.0242   -4.1853 C   0  0  0  0  0  0  0  0  0  0  0  0
   28.8236  -18.6626   -3.9947 C   0  0  0  0  0  0  0  0  0  0  0  0
   28.5019  -17.7654   -4.9876 C   0  0  0  0  0  0  0  0  0  0  0  0
   28.1095  -18.2256   -6.2145 C   0  0  0  0  0  0  0  0  0  0  0  0
   28.0318  -19.5853   -6.4713 C   0  0  0  0  0  0  0  0  0  0  0  0
   25.0779  -20.9767   -8.7695 C   0  0  0  0  0  0  0  0  0  0  0  0
   25.2072  -21.6699   -7.6977 O   0  0  0  0  0  0  0  0  0  0  0  0
   23.7800  -20.5358   -9.0828 O   0  0  0  0  0  0  0  0  0  0  0  0
  1  2  1  0
  3  2  1  0
  3  5  1  0
  3  4  1  1
  5  6  2  0
  8  7  1  0
  9 10  1  0
  9  8  1  0
 11 10  1  1
 12  5  1  0
 12 11  1  0
 13 11  1  0
 13 14  2  0
 15 13  1  0
 16 15  1  0
 16 27  1  0
 16 17  1  1
 18 17  1  0
 19 18  2  0
 20 21  1  0
 20 19  1  0
 21 26  2  0
 22 23  2  0
 22 21  1  0
 23 24  1  0
 24 25  2  0
 26 18  1  0
 26 25  1  0
 27 28  2  0
 27 29  1  0
M  END
$$$$
