SMW.pdb
     RDKit          3D

 29 30  0  0  1  0  0  0  0  0999 V2000
   35.1896  -14.3912  -21.4419 O   0  0  0  0  0  0  0  0  0  0  0  0
   34.0147  -13.9089  -20.8913 C   0  0  0  0  0  0  0  0  0  0  0  0
   33.9860  -14.2508  -19.4289 C   0  0  2  0  0  0  0  0  0  0  0  0
   33.0337  -15.3483  -19.2062 N   0  0  0  0  0  0  0  0  0  0  0  0
   33.5231  -13.0833  -18.6587 C   0  0  0  0  0  0  0  0  0  0  0  0
   32.3105  -13.0737  -18.2600 O   0  0  0  0  0  0  0  0  0  0  0  0
   34.5780   -6.4993  -14.4489 C   0  0  0  0  0  0  0  0  0  0  0  0
   35.3463   -7.6984  -15.5566 S   0  0  0  0  0  0  0  0  0  0  0  0
   34.1376   -8.8814  -16.1698 C   0  0  0  0  0  0  0  0  0  0  0  0
   34.8062   -9.9667  -16.9973 C   0  0  0  0  0  0  0  0  0  0  0  0
   33.7286  -10.9071  -17.5271 C   0  0  2  0  0  0  0  0  0  0  0  0
   34.3158  -11.9624  -18.3200 N   0  0  0  0  0  0  0  0  0  0  0  0
   32.7532  -10.1034  -18.3155 C   0  0  0  0  0  0  0  0  0  0  0  0
   33.1478   -9.6446  -19.4251 O   0  0  0  0  0  0  0  0  0  0  0  0
   31.4374   -9.8627  -17.8423 N   0  0  0  0  0  0  0  0  0  0  0  0
   30.5084   -9.1933  -18.7517 C   0  0  1  0  0  0  0  0  0  0  0  0
   29.2144   -9.9106  -18.8156 C   0  0  0  0  0  0  0  0  0  0  0  0
   28.2323   -9.2524  -19.6836 C   0  0  0  0  0  0  0  0  0  0  0  0
   28.3823   -8.9297  -21.0402 C   0  0  0  0  0  0  0  0  0  0  0  0
   27.2876   -8.2977  -21.4708 N   0  0  0  0  0  0  0  0  0  0  0  0
   26.3945   -8.1714  -20.4801 C   0  0  0  0  0  0  0  0  0  0  0  0
   25.1156   -7.6086  -20.4543 C   0  0  0  0  0  0  0  0  0  0  0  0
   24.4402   -7.6672  -19.2569 C   0  0  0  0  0  0  0  0  0  0  0  0
   24.9821   -8.2469  -18.1323 C   0  0  0  0  0  0  0  0  0  0  0  0
   26.2368   -8.7887  -18.1880 C   0  0  0  0  0  0  0  0  0  0  0  0
   26.9704   -8.7617  -19.3634 C   0  0  0  0  0  0  0  0  0  0  0  0
   30.3926   -7.7972  -18.3495 C   0  0  0  0  0  0  0  0  0  0  0  0
   30.0845   -6.9143  -19.2279 O   0  0  0  0  0  0  0  0  0  0  0  0
   30.5915   -7.3372  -17.0357 O   0  0  0  0  0  0  0  0  0  0  0  0
  1  2  1  0
  3  2  1  0
  3  5  1  0
  3  4  1  6
  5  6  2  0
  8  7  1  0
  9 10  1  0
  9  8  1  0
 11 10  1  6
 12  5  1  0
 12 11  1  0
 13 11  1  0
 13 14  2  0
 15 13  1  0
 16 15  1  0
 16 27  1  0
 16 17  1  1
 18 17  1  0
 19 18  2  0
 20 21  1  0
 20 19  1  0
 21 26  2  0
 22 23  2  0
 22 21  1  0
 23 24  1  0
 24 25  2  0
 26 18  1  0
 26 25  1  0
 27 28  2  0
 27 29  1  0
M  END
$$$$
