SMW.pdb
     RDKit          3D

 29 30  0  0  1  0  0  0  0  0999 V2000
   23.2180  -17.3801  -14.4691 O   0  0  0  0  0  0  0  0  0  0  0  0
   22.3744  -17.9991  -15.3755 C   0  0  0  0  0  0  0  0  0  0  0  0
   21.3815  -18.8376  -14.6223 C   0  0  2  0  0  0  0  0  0  0  0  0
   20.3992  -17.9585  -13.9717 N   0  0  0  0  0  0  0  0  0  0  0  0
   22.0772  -19.5995  -13.5705 C   0  0  0  0  0  0  0  0  0  0  0  0
   21.8375  -19.2942  -12.3545 O   0  0  0  0  0  0  0  0  0  0  0  0
   24.3274  -25.7054  -13.7504 C   0  0  0  0  0  0  0  0  0  0  0  0
   22.5856  -25.2522  -13.6238 S   0  0  0  0  0  0  0  0  0  0  0  0
   22.3976  -23.5401  -13.1045 C   0  0  0  0  0  0  0  0  0  0  0  0
   23.7456  -22.8434  -13.0201 C   0  0  0  0  0  0  0  0  0  0  0  0
   23.5143  -21.3791  -12.6614 C   0  0  2  0  0  0  0  0  0  0  0  0
   22.9958  -20.6505  -13.7962 N   0  0  0  0  0  0  0  0  0  0  0  0
   24.8027  -20.8062  -12.1811 C   0  0  0  0  0  0  0  0  0  0  0  0
   25.5216  -20.2100  -13.0328 O   0  0  0  0  0  0  0  0  0  0  0  0
   25.2067  -20.9240  -10.8261 N   0  0  0  0  0  0  0  0  0  0  0  0
   26.4689  -20.2923  -10.4440 C   0  0  1  0  0  0  0  0  0  0  0  0
   26.4511  -19.8823   -9.0212 C   0  0  0  0  0  0  0  0  0  0  0  0
   27.7166  -20.1471   -8.3287 C   0  0  0  0  0  0  0  0  0  0  0  0
   28.9197  -20.5855   -8.9007 C   0  0  0  0  0  0  0  0  0  0  0  0
   29.8328  -20.7546   -7.9411 N   0  0  0  0  0  0  0  0  0  0  0  0
   29.3184  -20.4539   -6.7411 C   0  0  0  0  0  0  0  0  0  0  0  0
   29.8863  -20.4583   -5.4642 C   0  0  0  0  0  0  0  0  0  0  0  0
   29.0738  -20.0623   -4.4266 C   0  0  0  0  0  0  0  0  0  0  0  0
   27.7662  -19.6784   -4.6193 C   0  0  0  0  0  0  0  0  0  0  0  0
   27.2377  -19.6853   -5.8810 C   0  0  0  0  0  0  0  0  0  0  0  0
   28.0027  -20.0742   -6.9691 C   0  0  0  0  0  0  0  0  0  0  0  0
   27.5604  -21.1953  -10.7867 C   0  0  0  0  0  0  0  0  0  0  0  0
   27.3507  -22.4610  -10.7899 O   0  0  0  0  0  0  0  0  0  0  0  0
   28.8561  -20.7699  -11.1296 O   0  0  0  0  0  0  0  0  0  0  0  0
  1  2  1  0
  3  2  1  0
  3  5  1  0
  3  4  1  1
  5  6  2  0
  8  7  1  0
  9 10  1  0
  9  8  1  0
 11 10  1  6
 12  5  1  0
 12 11  1  0
 13 11  1  0
 13 14  2  0
 15 13  1  0
 16 15  1  0
 16 27  1  0
 16 17  1  1
 18 17  1  0
 19 18  2  0
 20 21  1  0
 20 19  1  0
 21 26  2  0
 22 23  2  0
 22 21  1  0
 23 24  1  0
 24 25  2  0
 26 18  1  0
 26 25  1  0
 27 28  2  0
 27 29  1  0
M  END
$$$$
