WTM.pdb
     RDKit          3D

 30 31  0  0  1  0  0  0  0  0999 V2000
   30.3490  -38.9796   -6.1853 N   0  0  0  0  0  0  0  0  0  0  0  0
   29.2641  -38.9832   -5.2522 C   0  0  1  0  0  0  0  0  0  0  0  0
   29.1032  -40.3057   -4.5329 C   0  0  0  0  0  0  0  0  0  0  0  0
   27.8879  -40.3359   -3.7103 C   0  0  0  0  0  0  0  0  0  0  0  0
   26.5762  -40.0392   -4.0183 C   0  0  0  0  0  0  0  0  0  0  0  0
   25.7951  -40.2116   -2.9346 N   0  0  0  0  0  0  0  0  0  0  0  0
   26.5501  -40.6198   -1.8954 C   0  0  0  0  0  0  0  0  0  0  0  0
   26.2203  -40.9256   -0.5918 C   0  0  0  0  0  0  0  0  0  0  0  0
   27.2311  -41.3235    0.2600 C   0  0  0  0  0  0  0  0  0  0  0  0
   28.5452  -41.4099   -0.1966 C   0  0  0  0  0  0  0  0  0  0  0  0
   28.8566  -41.0991   -1.5076 C   0  0  0  0  0  0  0  0  0  0  0  0
   27.8596  -40.6997   -2.3729 C   0  0  0  0  0  0  0  0  0  0  0  0
   29.4664  -37.8976   -4.2725 C   0  0  0  0  0  0  0  0  0  0  0  0
   30.6012  -37.7929   -3.7531 O   0  0  0  0  0  0  0  0  0  0  0  0
   28.2661  -34.1172   -4.6810 C   0  0  0  0  0  0  0  0  0  0  0  0
   27.8773  -34.6620   -3.3271 C   0  0  1  0  0  0  0  0  0  0  0  0
   26.5112  -34.9087   -3.3638 O   0  0  0  0  0  0  0  0  0  0  0  0
   28.6947  -35.8818   -2.9432 C   0  0  2  0  0  0  0  0  0  0  0  0
   28.4745  -36.9684   -3.8778 N   0  0  0  0  0  0  0  0  0  0  0  0
   28.5145  -36.2942   -1.5397 C   0  0  0  0  0  0  0  0  0  0  0  0
   27.6999  -37.2157   -1.2157 O   0  0  0  0  0  0  0  0  0  0  0  0
   30.9394  -36.2801    5.9766 C   0  0  0  0  0  0  0  0  0  0  0  0
   31.1814  -35.5760    4.3442 S   0  0  0  0  0  0  0  0  0  0  0  0
   29.8460  -36.1682    3.2451 C   0  0  0  0  0  0  0  0  0  0  0  0
   30.0883  -35.7426    1.8275 C   0  0  0  0  0  0  0  0  0  0  0  0
   28.9481  -36.1268    0.9618 C   0  0  2  0  0  0  0  0  0  0  0  0
   29.2065  -35.7270   -0.4446 N   0  0  0  0  0  0  0  0  0  0  0  0
   27.7157  -35.4495    1.3541 C   0  0  0  0  0  0  0  0  0  0  0  0
   27.0738  -35.7874    2.3623 O   0  0  0  0  0  0  0  0  0  0  0  0
   27.2180  -34.3985    0.6081 O   0  0  0  0  0  0  0  0  0  0  0  0
  2  1  1  6
  2 13  1  0
  3  2  1  0
  3  4  1  0
  4  5  2  0
  4 12  1  0
  5  6  1  0
  6  7  1  0
  7  8  2  0
  8  9  1  0
 10  9  2  0
 11 10  1  0
 12 11  2  0
 12  7  1  0
 13 14  2  0
 16 15  1  6
 16 18  1  0
 17 16  1  0
 18 20  1  0
 19 13  1  0
 18 19  1  6
 20 21  2  0
 23 22  1  0
 24 23  1  0
 24 25  1  0
 26 25  1  1
 26 28  1  0
 27 26  1  0
 27 20  1  0
 28 29  2  0
 28 30  1  0
M  END
$$$$
