WTM.pdb
     RDKit          3D

 30 31  0  0  1  0  0  0  0  0999 V2000
   23.8073  -19.2739  -16.7920 N   0  0  0  0  0  0  0  0  0  0  0  0
   22.4032  -19.5242  -16.6748 C   0  0  1  0  0  0  0  0  0  0  0  0
   21.9061  -20.5840  -17.6349 C   0  0  0  0  0  0  0  0  0  0  0  0
   21.9588  -20.1266  -19.0286 C   0  0  0  0  0  0  0  0  0  0  0  0
   22.1684  -18.8727  -19.5647 C   0  0  0  0  0  0  0  0  0  0  0  0
   22.1316  -18.9316  -20.9099 N   0  0  0  0  0  0  0  0  0  0  0  0
   21.9010  -20.2011  -21.2992 C   0  0  0  0  0  0  0  0  0  0  0  0
   21.7775  -20.7638  -22.5521 C   0  0  0  0  0  0  0  0  0  0  0  0
   21.5376  -22.1206  -22.6365 C   0  0  0  0  0  0  0  0  0  0  0  0
   21.4252  -22.8904  -21.4799 C   0  0  0  0  0  0  0  0  0  0  0  0
   21.5521  -22.3082  -20.2320 C   0  0  0  0  0  0  0  0  0  0  0  0
   21.7919  -20.9539  -20.1284 C   0  0  0  0  0  0  0  0  0  0  0  0
   22.0977  -19.9190  -15.2855 C   0  0  0  0  0  0  0  0  0  0  0  0
   23.0002  -20.4979  -14.6383 O   0  0  0  0  0  0  0  0  0  0  0  0
   18.8161  -18.2206  -13.0571 C   0  0  0  0  0  0  0  0  0  0  0  0
   20.1304  -18.7244  -12.5097 C   0  0  1  0  0  0  0  0  0  0  0  0
   19.9572  -18.9158  -11.1452 O   0  0  0  0  0  0  0  0  0  0  0  0
   20.6131  -19.9692  -13.2313 C   0  0  2  0  0  0  0  0  0  0  0  0
   20.8626  -19.6921  -14.6326 N   0  0  0  0  0  0  0  0  0  0  0  0
   19.7432  -21.1418  -13.0302 C   0  0  0  0  0  0  0  0  0  0  0  0
   18.9433  -21.5406  -13.9350 O   0  0  0  0  0  0  0  0  0  0  0  0
   18.2349  -28.0433  -10.7806 C   0  0  0  0  0  0  0  0  0  0  0  0
   19.3195  -26.6157  -10.8495 S   0  0  0  0  0  0  0  0  0  0  0  0
   18.3587  -25.1260  -10.4026 C   0  0  0  0  0  0  0  0  0  0  0  0
   19.2023  -23.8905  -10.5088 C   0  0  0  0  0  0  0  0  0  0  0  0
   18.7898  -23.0715  -11.6733 C   0  0  2  0  0  0  0  0  0  0  0  0
   19.7097  -21.9193  -11.8494 N   0  0  0  0  0  0  0  0  0  0  0  0
   17.4583  -22.5010  -11.4919 C   0  0  0  0  0  0  0  0  0  0  0  0
   17.2921  -21.3418  -11.0783 O   0  0  0  0  0  0  0  0  0  0  0  0
   16.3270  -23.2407  -11.7780 O   0  0  0  0  0  0  0  0  0  0  0  0
  2  1  1  1
  2 13  1  0
  3  2  1  0
  3  4  1  0
  4  5  2  0
  4 12  1  0
  5  6  1  0
  6  7  1  0
  7  8  2  0
  8  9  1  0
 10  9  2  0
 11 10  1  0
 12 11  2  0
 12  7  1  0
 13 14  2  0
 16 15  1  6
 16 18  1  0
 17 16  1  0
 18 20  1  0
 19 13  1  0
 18 19  1  6
 20 21  2  0
 23 22  1  0
 24 23  1  0
 24 25  1  0
 26 25  1  1
 26 28  1  0
 27 26  1  0
 27 20  1  0
 28 29  2  0
 28 30  1  0
M  END
$$$$
