WTM.pdb
     RDKit          3D

 30 31  0  0  1  0  0  0  0  0999 V2000
   27.7110  -21.4646  -11.7878 N   0  0  0  0  0  0  0  0  0  0  0  0
   26.6500  -21.0799  -10.9079 C   0  0  1  0  0  0  0  0  0  0  0  0
   27.0681  -20.0371   -9.8931 C   0  0  0  0  0  0  0  0  0  0  0  0
   28.2122  -20.4844   -9.0897 C   0  0  0  0  0  0  0  0  0  0  0  0
   29.4165  -21.0465   -9.4600 C   0  0  0  0  0  0  0  0  0  0  0  0
   30.1661  -21.2970   -8.3694 N   0  0  0  0  0  0  0  0  0  0  0  0
   29.4950  -20.9162   -7.2643 C   0  0  0  0  0  0  0  0  0  0  0  0
   29.8332  -20.9657   -5.9283 C   0  0  0  0  0  0  0  0  0  0  0  0
   28.9209  -20.4917   -5.0070 C   0  0  0  0  0  0  0  0  0  0  0  0
   27.6947  -19.9794   -5.4278 C   0  0  0  0  0  0  0  0  0  0  0  0
   27.3734  -19.9379   -6.7722 C   0  0  0  0  0  0  0  0  0  0  0  0
   28.2726  -20.4072   -7.7069 C   0  0  0  0  0  0  0  0  0  0  0  0
   25.5165  -20.5778  -11.7093 C   0  0  0  0  0  0  0  0  0  0  0  0
   25.6796  -19.5019  -12.3292 O   0  0  0  0  0  0  0  0  0  0  0  0
   24.7639  -20.9925  -14.7535 C   0  0  0  0  0  0  0  0  0  0  0  0
   23.4716  -21.4636  -14.1298 C   0  0  1  0  0  0  0  0  0  0  0  0
   23.5197  -22.8509  -14.0906 O   0  0  0  0  0  0  0  0  0  0  0  0
   23.2284  -20.8354  -12.7698 C   0  0  2  0  0  0  0  0  0  0  0  0
   24.2616  -21.2214  -11.8284 N   0  0  0  0  0  0  0  0  0  0  0  0
   21.8694  -21.0665  -12.2482 C   0  0  0  0  0  0  0  0  0  0  0  0
   21.6460  -21.9086  -11.3216 O   0  0  0  0  0  0  0  0  0  0  0  0
   14.1850  -19.1165  -12.2445 C   0  0  0  0  0  0  0  0  0  0  0  0
   15.7959  -18.8368  -12.9833 S   0  0  0  0  0  0  0  0  0  0  0  0
   17.0172  -19.9161  -12.1553 C   0  0  0  0  0  0  0  0  0  0  0  0
   18.4104  -19.6009  -12.6127 C   0  0  0  0  0  0  0  0  0  0  0  0
   19.3690  -20.6153  -12.1138 C   0  0  2  0  0  0  0  0  0  0  0  0
   20.7118  -20.3973  -12.7088 N   0  0  0  0  0  0  0  0  0  0  0  0
   18.9743  -21.9687  -12.4932 C   0  0  0  0  0  0  0  0  0  0  0  0
   19.2685  -22.4523  -13.5987 O   0  0  0  0  0  0  0  0  0  0  0  0
   18.2523  -22.7645  -11.6246 O   0  0  0  0  0  0  0  0  0  0  0  0
  2  1  1  6
  2 13  1  0
  3  2  1  0
  3  4  1  0
  4  5  2  0
  4 12  1  0
  5  6  1  0
  6  7  1  0
  7  8  2  0
  8  9  1  0
 10  9  2  0
 11 10  1  0
 12 11  2  0
 12  7  1  0
 13 14  2  0
 16 15  1  1
 16 18  1  0
 17 16  1  0
 18 20  1  0
 19 13  1  0
 18 19  1  1
 20 21  2  0
 23 22  1  0
 24 23  1  0
 24 25  1  0
 26 25  1  6
 26 28  1  0
 27 26  1  0
 27 20  1  0
 28 29  2  0
 28 30  1  0
M  END
$$$$
