WTM.pdb
     RDKit          3D

 30 31  0  0  1  0  0  0  0  0999 V2000
   26.4395  -22.8910  -12.0995 N   0  0  0  0  0  0  0  0  0  0  0  0
   25.7306  -21.6988  -11.7475 C   0  0  1  0  0  0  0  0  0  0  0  0
   26.6346  -20.4948  -11.5882 C   0  0  0  0  0  0  0  0  0  0  0  0
   27.7162  -20.7469  -10.6286 C   0  0  0  0  0  0  0  0  0  0  0  0
   28.9979  -21.2239  -10.8106 C   0  0  0  0  0  0  0  0  0  0  0  0
   29.6401  -21.2906   -9.6286 N   0  0  0  0  0  0  0  0  0  0  0  0
   28.8200  -20.8684   -8.6458 C   0  0  0  0  0  0  0  0  0  0  0  0
   29.0103  -20.7515   -7.2851 C   0  0  0  0  0  0  0  0  0  0  0  0
   27.9639  -20.2786   -6.5188 C   0  0  0  0  0  0  0  0  0  0  0  0
   26.7529  -19.9320   -7.1157 C   0  0  0  0  0  0  0  0  0  0  0  0
   26.5809  -20.0560   -8.4822 C   0  0  0  0  0  0  0  0  0  0  0  0
   27.6155  -20.5267   -9.2635 C   0  0  0  0  0  0  0  0  0  0  0  0
   24.7044  -21.4268  -12.7733 C   0  0  0  0  0  0  0  0  0  0  0  0
   25.0505  -21.5157  -13.9737 O   0  0  0  0  0  0  0  0  0  0  0  0
   21.7269  -23.4823  -13.1833 C   0  0  0  0  0  0  0  0  0  0  0  0
   21.2188  -22.0606  -13.1451 C   0  0  1  0  0  0  0  0  0  0  0  0
   20.6661  -21.8588  -11.8872 O   0  0  0  0  0  0  0  0  0  0  0  0
   22.3016  -21.0548  -13.4905 C   0  0  2  0  0  0  0  0  0  0  0  0
   23.3612  -21.0736  -12.5008 N   0  0  0  0  0  0  0  0  0  0  0  0
   21.7861  -19.6977  -13.7452 C   0  0  0  0  0  0  0  0  0  0  0  0
   21.7752  -18.8081  -12.8363 O   0  0  0  0  0  0  0  0  0  0  0  0
   18.5340  -17.3849  -19.1509 C   0  0  0  0  0  0  0  0  0  0  0  0
   19.4767  -15.9726  -18.5714 S   0  0  0  0  0  0  0  0  0  0  0  0
   19.9358  -16.2501  -16.8237 C   0  0  0  0  0  0  0  0  0  0  0  0
   20.4353  -17.6488  -16.6148 C   0  0  0  0  0  0  0  0  0  0  0  0
   20.6736  -17.9117  -15.1756 C   0  0  2  0  0  0  0  0  0  0  0  0
   21.2679  -19.2591  -14.9858 N   0  0  0  0  0  0  0  0  0  0  0  0
   19.4309  -17.9070  -14.4095 C   0  0  0  0  0  0  0  0  0  0  0  0
   18.7579  -18.9377  -14.2447 O   0  0  0  0  0  0  0  0  0  0  0  0
   18.9579  -16.7423  -13.8362 O   0  0  0  0  0  0  0  0  0  0  0  0
  2  1  1  6
  2 13  1  0
  3  2  1  0
  3  4  1  0
  4  5  2  0
  4 12  1  0
  5  6  1  0
  6  7  1  0
  7  8  2  0
  8  9  1  0
 10  9  2  0
 11 10  1  0
 12 11  2  0
 12  7  1  0
 13 14  2  0
 16 15  1  1
 16 18  1  0
 17 16  1  0
 18 20  1  0
 19 13  1  0
 18 19  1  1
 20 21  2  0
 23 22  1  0
 24 23  1  0
 24 25  1  0
 26 25  1  6
 26 28  1  0
 27 26  1  0
 27 20  1  0
 28 29  2  0
 28 30  1  0
M  END
$$$$
