WTM.pdb
     RDKit          3D

 30 31  0  0  1  0  0  0  0  0999 V2000
   28.2494  -21.7340  -10.7747 N   0  0  0  0  0  0  0  0  0  0  0  0
   27.0441  -21.2375  -10.1841 C   0  0  1  0  0  0  0  0  0  0  0  0
   27.2879  -20.1462   -9.1634 C   0  0  0  0  0  0  0  0  0  0  0  0
   28.3249  -20.5248   -8.1961 C   0  0  0  0  0  0  0  0  0  0  0  0
   29.4424  -21.3229   -8.3296 C   0  0  0  0  0  0  0  0  0  0  0  0
   30.1098  -21.3853   -7.1613 N   0  0  0  0  0  0  0  0  0  0  0  0
   29.4679  -20.6452   -6.2356 C   0  0  0  0  0  0  0  0  0  0  0  0
   29.7510  -20.3960   -4.9092 C   0  0  0  0  0  0  0  0  0  0  0  0
   28.8908  -19.5809   -4.2012 C   0  0  0  0  0  0  0  0  0  0  0  0
   27.7701  -19.0306   -4.8209 C   0  0  0  0  0  0  0  0  0  0  0  0
   27.5027  -19.2920   -6.1523 C   0  0  0  0  0  0  0  0  0  0  0  0
   28.3512  -20.1042   -6.8754 C   0  0  0  0  0  0  0  0  0  0  0  0
   26.1532  -20.7402  -11.2510 C   0  0  0  0  0  0  0  0  0  0  0  0
   26.5492  -19.7610  -11.9240 O   0  0  0  0  0  0  0  0  0  0  0  0
   25.5931  -22.1762  -14.3278 C   0  0  0  0  0  0  0  0  0  0  0  0
   24.1886  -22.0007  -13.8009 C   0  0  1  0  0  0  0  0  0  0  0  0
   23.7619  -23.2448  -13.3551 O   0  0  0  0  0  0  0  0  0  0  0  0
   24.1061  -20.9235  -12.7350 C   0  0  2  0  0  0  0  0  0  0  0  0
   24.8871  -21.2874  -11.5687 N   0  0  0  0  0  0  0  0  0  0  0  0
   22.7256  -20.5346  -12.3956 C   0  0  0  0  0  0  0  0  0  0  0  0
   22.1930  -20.8668  -11.2894 O   0  0  0  0  0  0  0  0  0  0  0  0
   16.2150  -16.3366  -14.0026 C   0  0  0  0  0  0  0  0  0  0  0  0
   17.8439  -16.8146  -14.5831 S   0  0  0  0  0  0  0  0  0  0  0  0
   18.5038  -18.1126  -13.4776 C   0  0  0  0  0  0  0  0  0  0  0  0
   19.9282  -18.4357  -13.8185 C   0  0  0  0  0  0  0  0  0  0  0  0
   20.4842  -19.4262  -12.8662 C   0  0  2  0  0  0  0  0  0  0  0  0
   21.8788  -19.7763  -13.2369 N   0  0  0  0  0  0  0  0  0  0  0  0
   19.7347  -20.6789  -12.8860 C   0  0  0  0  0  0  0  0  0  0  0  0
   19.9648  -21.5679  -13.7222 O   0  0  0  0  0  0  0  0  0  0  0  0
   18.7335  -20.9186  -11.9646 O   0  0  0  0  0  0  0  0  0  0  0  0
  2  1  1  6
  2 13  1  0
  3  2  1  0
  3  4  1  0
  4  5  2  0
  4 12  1  0
  5  6  1  0
  6  7  1  0
  7  8  2  0
  8  9  1  0
 10  9  2  0
 11 10  1  0
 12 11  2  0
 12  7  1  0
 13 14  2  0
 16 15  1  1
 16 18  1  0
 17 16  1  0
 18 20  1  0
 19 13  1  0
 18 19  1  1
 20 21  2  0
 23 22  1  0
 24 23  1  0
 24 25  1  0
 26 25  1  6
 26 28  1  0
 27 26  1  0
 27 20  1  0
 28 29  2  0
 28 30  1  0
M  END
$$$$
