WTM.pdb
     RDKit          3D

 30 31  0  0  1  0  0  0  0  0999 V2000
   24.9729  -32.3224  -19.3817 N   0  0  0  0  0  0  0  0  0  0  0  0
   24.6241  -32.1759  -18.0016 C   0  0  1  0  0  0  0  0  0  0  0  0
   23.2514  -32.7242  -17.6739 C   0  0  0  0  0  0  0  0  0  0  0  0
   22.1814  -31.8649  -18.1945 C   0  0  0  0  0  0  0  0  0  0  0  0
   21.7748  -31.6042  -19.4869 C   0  0  0  0  0  0  0  0  0  0  0  0
   20.7396  -30.7425  -19.4824 N   0  0  0  0  0  0  0  0  0  0  0  0
   20.4341  -30.4119  -18.2119 C   0  0  0  0  0  0  0  0  0  0  0  0
   19.4675  -29.5764  -17.6932 C   0  0  0  0  0  0  0  0  0  0  0  0
   19.3962  -29.4346  -16.3219 C   0  0  0  0  0  0  0  0  0  0  0  0
   20.2825  -30.1223  -15.4946 C   0  0  0  0  0  0  0  0  0  0  0  0
   21.2453  -30.9560  -16.0333 C   0  0  0  0  0  0  0  0  0  0  0  0
   21.3313  -31.1098  -17.4013 C   0  0  0  0  0  0  0  0  0  0  0  0
   25.6456  -32.8450  -17.1720 C   0  0  0  0  0  0  0  0  0  0  0  0
   25.9307  -34.0317  -17.4531 O   0  0  0  0  0  0  0  0  0  0  0  0
   29.1075  -31.6568  -16.4884 C   0  0  0  0  0  0  0  0  0  0  0  0
   28.5756  -32.0869  -15.1419 C   0  0  1  0  0  0  0  0  0  0  0  0
   28.4016  -30.9354  -14.3855 O   0  0  0  0  0  0  0  0  0  0  0  0
   27.3121  -32.9189  -15.2632 C   0  0  2  0  0  0  0  0  0  0  0  0
   26.3250  -32.2455  -16.0847 N   0  0  0  0  0  0  0  0  0  0  0  0
   26.7678  -33.3568  -13.9654 C   0  0  0  0  0  0  0  0  0  0  0  0
   25.5915  -33.0437  -13.5968 O   0  0  0  0  0  0  0  0  0  0  0  0
   25.1323  -32.2679   -7.0648 C   0  0  0  0  0  0  0  0  0  0  0  0
   25.8101  -31.8734   -8.6785 S   0  0  0  0  0  0  0  0  0  0  0  0
   26.1396  -33.4326   -9.5743 C   0  0  0  0  0  0  0  0  0  0  0  0
   26.7460  -33.1620  -10.9191 C   0  0  0  0  0  0  0  0  0  0  0  0
   26.9562  -34.4259  -11.6643 C   0  0  2  0  0  0  0  0  0  0  0  0
   27.4740  -34.1449  -13.0272 N   0  0  0  0  0  0  0  0  0  0  0  0
   25.7085  -35.1609  -11.8500 C   0  0  0  0  0  0  0  0  0  0  0  0
   24.7745  -34.7064  -12.5309 O   0  0  0  0  0  0  0  0  0  0  0  0
   25.5243  -36.4002  -11.2678 O   0  0  0  0  0  0  0  0  0  0  0  0
  2  1  1  6
  2 13  1  0
  3  2  1  0
  3  4  1  0
  4  5  2  0
  4 12  1  0
  5  6  1  0
  6  7  1  0
  7  8  2  0
  8  9  1  0
 10  9  2  0
 11 10  1  0
 12 11  2  0
 12  7  1  0
 13 14  2  0
 16 15  1  6
 16 18  1  0
 17 16  1  0
 18 20  1  0
 19 13  1  0
 18 19  1  1
 20 21  2  0
 23 22  1  0
 24 23  1  0
 24 25  1  0
 26 25  1  6
 26 28  1  0
 27 26  1  0
 27 20  1  0
 28 29  2  0
 28 30  1  0
M  END
$$$$
