WTM.pdb
     RDKit          3D

 30 31  0  0  1  0  0  0  0  0999 V2000
   20.0582  -19.3300  -16.2804 N   0  0  0  0  0  0  0  0  0  0  0  0
   18.7439  -18.7927  -16.4587 C   0  0  1  0  0  0  0  0  0  0  0  0
   17.8604  -19.6598  -17.3303 C   0  0  0  0  0  0  0  0  0  0  0  0
   18.3721  -19.7555  -18.7027 C   0  0  0  0  0  0  0  0  0  0  0  0
   19.2757  -20.6266  -19.2756 C   0  0  0  0  0  0  0  0  0  0  0  0
   19.4414  -20.3318  -20.5793 N   0  0  0  0  0  0  0  0  0  0  0  0
   18.6680  -19.2769  -20.9045 C   0  0  0  0  0  0  0  0  0  0  0  0
   18.4893  -18.6092  -22.0977 C   0  0  0  0  0  0  0  0  0  0  0  0
   17.6125  -17.5433  -22.1232 C   0  0  0  0  0  0  0  0  0  0  0  0
   16.9321  -17.1618  -20.9680 C   0  0  0  0  0  0  0  0  0  0  0  0
   17.1243  -17.8438  -19.7804 C   0  0  0  0  0  0  0  0  0  0  0  0
   17.9966  -18.9113  -19.7363 C   0  0  0  0  0  0  0  0  0  0  0  0
   18.1167  -18.6027  -15.1359 C   0  0  0  0  0  0  0  0  0  0  0  0
   18.5244  -19.3218  -14.1951 O   0  0  0  0  0  0  0  0  0  0  0  0
   18.4830  -16.0843  -12.7634 C   0  0  0  0  0  0  0  0  0  0  0  0
   16.9860  -16.1278  -12.9584 C   0  0  1  0  0  0  0  0  0  0  0  0
   16.6456  -15.0361  -13.7464 O   0  0  0  0  0  0  0  0  0  0  0  0
   16.5210  -17.4511  -13.5378 C   0  0  2  0  0  0  0  0  0  0  0  0
   17.0905  -17.6697  -14.8533 N   0  0  0  0  0  0  0  0  0  0  0  0
   15.0572  -17.6220  -13.5169 C   0  0  0  0  0  0  0  0  0  0  0  0
   14.3538  -17.4685  -14.5654 O   0  0  0  0  0  0  0  0  0  0  0  0
   13.2780  -23.0247  -10.1511 C   0  0  0  0  0  0  0  0  0  0  0  0
   13.2623  -21.2470   -9.9088 S   0  0  0  0  0  0  0  0  0  0  0  0
   12.7169  -20.4476  -11.4597 C   0  0  0  0  0  0  0  0  0  0  0  0
   12.4114  -18.9961  -11.2376 C   0  0  0  0  0  0  0  0  0  0  0  0
   12.8407  -18.1851  -12.4017 C   0  0  2  0  0  0  0  0  0  0  0  0
   14.3085  -17.9636  -12.3668 N   0  0  0  0  0  0  0  0  0  0  0  0
   12.2319  -16.8582  -12.3935 C   0  0  0  0  0  0  0  0  0  0  0  0
   12.7392  -15.9075  -11.7758 O   0  0  0  0  0  0  0  0  0  0  0  0
   11.0583  -16.6142  -13.0805 O   0  0  0  0  0  0  0  0  0  0  0  0
  2  1  1  1
  2 13  1  0
  3  2  1  0
  3  4  1  0
  4  5  2  0
  4 12  1  0
  5  6  1  0
  6  7  1  0
  7  8  2  0
  8  9  1  0
 10  9  2  0
 11 10  1  0
 12 11  2  0
 12  7  1  0
 13 14  2  0
 16 15  1  6
 16 18  1  0
 17 16  1  0
 18 20  1  0
 19 13  1  0
 18 19  1  6
 20 21  2  0
 23 22  1  0
 24 23  1  0
 24 25  1  0
 26 25  1  1
 26 28  1  0
 27 26  1  0
 27 20  1  0
 28 29  2  0
 28 30  1  0
M  END
$$$$
