WTM.pdb
     RDKit          3D

 30 31  0  0  1  0  0  0  0  0999 V2000
   28.1251  -20.8795   -9.7704 N   0  0  0  0  0  0  0  0  0  0  0  0
   26.7423  -21.2137   -9.6155 C   0  0  1  0  0  0  0  0  0  0  0  0
   26.1139  -20.5895   -8.3876 C   0  0  0  0  0  0  0  0  0  0  0  0
   27.1108  -19.9179   -7.5453 C   0  0  0  0  0  0  0  0  0  0  0  0
   27.9192  -18.8271   -7.7906 C   0  0  0  0  0  0  0  0  0  0  0  0
   28.6840  -18.5651   -6.7132 N   0  0  0  0  0  0  0  0  0  0  0  0
   28.4117  -19.4567   -5.7398 C   0  0  0  0  0  0  0  0  0  0  0  0
   28.9239  -19.6050   -4.4682 C   0  0  0  0  0  0  0  0  0  0  0  0
   28.4386  -20.6336   -3.6858 C   0  0  0  0  0  0  0  0  0  0  0  0
   27.4575  -21.4923   -4.1788 C   0  0  0  0  0  0  0  0  0  0  0  0
   26.9559  -21.3278   -5.4569 C   0  0  0  0  0  0  0  0  0  0  0  0
   27.4290  -20.3055   -6.2528 C   0  0  0  0  0  0  0  0  0  0  0  0
   26.0065  -20.7971  -10.8256 C   0  0  0  0  0  0  0  0  0  0  0  0
   26.3140  -19.6963  -11.3377 O   0  0  0  0  0  0  0  0  0  0  0  0
   25.6722  -22.8845  -13.9692 C   0  0  0  0  0  0  0  0  0  0  0  0
   24.2934  -22.3568  -13.6511 C   0  0  1  0  0  0  0  0  0  0  0  0
   23.5484  -23.4259  -13.1709 O   0  0  0  0  0  0  0  0  0  0  0  0
   24.3361  -21.1802  -12.6936 C   0  0  2  0  0  0  0  0  0  0  0  0
   24.9814  -21.5485  -11.4483 N   0  0  0  0  0  0  0  0  0  0  0  0
   23.0244  -20.5408  -12.4863 C   0  0  0  0  0  0  0  0  0  0  0  0
   22.4192  -20.6092  -11.3697 O   0  0  0  0  0  0  0  0  0  0  0  0
   20.9484  -14.6982  -14.4530 C   0  0  0  0  0  0  0  0  0  0  0  0
   19.4749  -15.6771  -14.7522 S   0  0  0  0  0  0  0  0  0  0  0  0
   19.5973  -17.2303  -13.7957 C   0  0  0  0  0  0  0  0  0  0  0  0
   20.9503  -17.8566  -13.9586 C   0  0  0  0  0  0  0  0  0  0  0  0
   21.0324  -19.1319  -13.2078 C   0  0  2  0  0  0  0  0  0  0  0  0
   22.3266  -19.8090  -13.4749 N   0  0  0  0  0  0  0  0  0  0  0  0
   19.9930  -20.0715  -13.6178 C   0  0  0  0  0  0  0  0  0  0  0  0
   20.1657  -20.8759  -14.5482 O   0  0  0  0  0  0  0  0  0  0  0  0
   18.7695  -20.0967  -12.9765 O   0  0  0  0  0  0  0  0  0  0  0  0
  2  1  1  6
  2 13  1  0
  3  2  1  0
  3  4  1  0
  4  5  2  0
  4 12  1  0
  5  6  1  0
  6  7  1  0
  7  8  2  0
  8  9  1  0
 10  9  2  0
 11 10  1  0
 12 11  2  0
 12  7  1  0
 13 14  2  0
 16 15  1  1
 16 18  1  0
 17 16  1  0
 18 20  1  0
 19 13  1  0
 18 19  1  1
 20 21  2  0
 23 22  1  0
 24 23  1  0
 24 25  1  0
 26 25  1  6
 26 28  1  0
 27 26  1  0
 27 20  1  0
 28 29  2  0
 28 30  1  0
M  END
$$$$
