WTM.pdb
     RDKit          3D

 30 31  0  0  1  0  0  0  0  0999 V2000
   29.9038  -22.5376  -17.6878 N   0  0  0  0  0  0  0  0  0  0  0  0
   28.9267  -22.9860  -16.7433 C   0  0  1  0  0  0  0  0  0  0  0  0
   29.4156  -24.1295  -15.8798 C   0  0  0  0  0  0  0  0  0  0  0  0
   29.6478  -25.3471  -16.6659 C   0  0  0  0  0  0  0  0  0  0  0  0
   30.8137  -26.0113  -16.9869 C   0  0  0  0  0  0  0  0  0  0  0  0
   30.5381  -27.0957  -17.7367 N   0  0  0  0  0  0  0  0  0  0  0  0
   29.2073  -27.1820  -17.9320 C   0  0  0  0  0  0  0  0  0  0  0  0
   28.4434  -28.0999  -18.6217 C   0  0  0  0  0  0  0  0  0  0  0  0
   27.0746  -27.9222  -18.6453 C   0  0  0  0  0  0  0  0  0  0  0  0
   26.4922  -26.8407  -17.9863 C   0  0  0  0  0  0  0  0  0  0  0  0
   27.2748  -25.9306  -17.2997 C   0  0  0  0  0  0  0  0  0  0  0  0
   28.6442  -26.0922  -17.2654 C   0  0  0  0  0  0  0  0  0  0  0  0
   28.5204  -21.8497  -15.8929 C   0  0  0  0  0  0  0  0  0  0  0  0
   29.0492  -20.7381  -16.1236 O   0  0  0  0  0  0  0  0  0  0  0  0
   27.4010  -19.3242  -16.1507 C   0  0  0  0  0  0  0  0  0  0  0  0
   26.4270  -19.7822  -15.0913 C   0  0  1  0  0  0  0  0  0  0  0  0
   25.3141  -20.2866  -15.7513 O   0  0  0  0  0  0  0  0  0  0  0  0
   27.0516  -20.7750  -14.1283 C   0  0  2  0  0  0  0  0  0  0  0  0
   27.5794  -21.9239  -14.8383 N   0  0  0  0  0  0  0  0  0  0  0  0
   26.1641  -21.1541  -13.0144 C   0  0  0  0  0  0  0  0  0  0  0  0
   25.4407  -22.1989  -13.0652 O   0  0  0  0  0  0  0  0  0  0  0  0
   28.5701  -18.7756   -7.1168 C   0  0  0  0  0  0  0  0  0  0  0  0
   26.8827  -18.6836   -7.7196 S   0  0  0  0  0  0  0  0  0  0  0  0
   26.6371  -19.9855   -8.9792 C   0  0  0  0  0  0  0  0  0  0  0  0
   25.2548  -19.9200   -9.5574 C   0  0  0  0  0  0  0  0  0  0  0  0
   25.1251  -20.8386  -10.7134 C   0  0  2  0  0  0  0  0  0  0  0  0
   26.0303  -20.4197  -11.8133 N   0  0  0  0  0  0  0  0  0  0  0  0
   23.7764  -20.8218  -11.2719 C   0  0  0  0  0  0  0  0  0  0  0  0
   23.4546  -20.0452  -12.1862 O   0  0  0  0  0  0  0  0  0  0  0  0
   22.8031  -21.6793  -10.7961 O   0  0  0  0  0  0  0  0  0  0  0  0
  2  1  1  6
  2 13  1  0
  3  2  1  0
  3  4  1  0
  4  5  2  0
  4 12  1  0
  5  6  1  0
  6  7  1  0
  7  8  2  0
  8  9  1  0
 10  9  2  0
 11 10  1  0
 12 11  2  0
 12  7  1  0
 13 14  2  0
 16 15  1  6
 16 18  1  0
 17 16  1  0
 18 20  1  0
 19 13  1  0
 18 19  1  6
 20 21  2  0
 23 22  1  0
 24 23  1  0
 24 25  1  0
 26 25  1  1
 26 28  1  0
 27 26  1  0
 27 20  1  0
 28 29  2  0
 28 30  1  0
M  END
$$$$
