WTM.pdb
     RDKit          3D

 30 31  0  0  1  0  0  0  0  0999 V2000
   16.0378  -16.3107    8.1603 N   0  0  0  0  0  0  0  0  0  0  0  0
   17.3697  -15.7957    8.2541 C   0  0  1  0  0  0  0  0  0  0  0  0
   17.4206  -14.2830    8.2932 C   0  0  0  0  0  0  0  0  0  0  0  0
   17.7392  -13.7130    6.9788 C   0  0  0  0  0  0  0  0  0  0  0  0
   16.9850  -13.6082    5.8282 C   0  0  0  0  0  0  0  0  0  0  0  0
   17.6994  -13.0046    4.8589 N   0  0  0  0  0  0  0  0  0  0  0  0
   18.9250  -12.6969    5.3277 C   0  0  0  0  0  0  0  0  0  0  0  0
   20.0035  -12.0808    4.7287 C   0  0  0  0  0  0  0  0  0  0  0  0
   21.1489  -11.8991    5.4774 C   0  0  0  0  0  0  0  0  0  0  0  0
   21.2019  -12.3309    6.8016 C   0  0  0  0  0  0  0  0  0  0  0  0
   20.1100  -12.9468    7.3853 C   0  0  0  0  0  0  0  0  0  0  0  0
   18.9571  -13.1367    6.6524 C   0  0  0  0  0  0  0  0  0  0  0  0
   18.0193  -16.3535    9.4566 C   0  0  0  0  0  0  0  0  0  0  0  0
   17.7943  -15.7857   10.5501 O   0  0  0  0  0  0  0  0  0  0  0  0
   17.1571  -18.9630   11.4216 C   0  0  0  0  0  0  0  0  0  0  0  0
   18.5732  -19.3249   11.0412 C   0  0  1  0  0  0  0  0  0  0  0  0
   18.4941  -20.2663   10.0234 O   0  0  0  0  0  0  0  0  0  0  0  0
   19.3956  -18.1060   10.6653 C   0  0  2  0  0  0  0  0  0  0  0  0
   18.8758  -17.4802    9.4649 N   0  0  0  0  0  0  0  0  0  0  0  0
   20.8429  -18.3730   10.5857 C   0  0  0  0  0  0  0  0  0  0  0  0
   21.4155  -18.6144    9.4760 O   0  0  0  0  0  0  0  0  0  0  0  0
   25.8744  -14.5557   13.7088 C   0  0  0  0  0  0  0  0  0  0  0  0
   25.4294  -16.2749   13.9646 S   0  0  0  0  0  0  0  0  0  0  0  0
   24.4529  -16.8486   12.5295 C   0  0  0  0  0  0  0  0  0  0  0  0
   23.8976  -18.2208   12.7713 C   0  0  0  0  0  0  0  0  0  0  0  0
   23.1609  -18.7064   11.5803 C   0  0  2  0  0  0  0  0  0  0  0  0
   21.7156  -18.3873   11.6984 N   0  0  0  0  0  0  0  0  0  0  0  0
   23.2442  -20.1576   11.4444 C   0  0  0  0  0  0  0  0  0  0  0  0
   22.3134  -20.9034   11.7909 O   0  0  0  0  0  0  0  0  0  0  0  0
   24.3740  -20.7551   10.9198 O   0  0  0  0  0  0  0  0  0  0  0  0
  2  1  1  1
  2 13  1  0
  3  2  1  0
  3  4  1  0
  4  5  2  0
  4 12  1  0
  5  6  1  0
  6  7  1  0
  7  8  2  0
  8  9  1  0
 10  9  2  0
 11 10  1  0
 12 11  2  0
 12  7  1  0
 13 14  2  0
 16 15  1  6
 16 18  1  0
 17 16  1  0
 18 20  1  0
 19 13  1  0
 18 19  1  6
 20 21  2  0
 23 22  1  0
 24 23  1  0
 24 25  1  0
 26 25  1  1
 26 28  1  0
 27 26  1  0
 27 20  1  0
 28 29  2  0
 28 30  1  0
M  END
$$$$
