WTM.pdb
     RDKit          3D

 30 31  0  0  1  0  0  0  0  0999 V2000
   28.3408  -21.4584  -10.8622 N   0  0  0  0  0  0  0  0  0  0  0  0
   27.1935  -21.0475  -10.1121 C   0  0  1  0  0  0  0  0  0  0  0  0
   27.5052  -19.9771   -9.0878 C   0  0  0  0  0  0  0  0  0  0  0  0
   28.5725  -20.3933   -8.1702 C   0  0  0  0  0  0  0  0  0  0  0  0
   29.7546  -21.0669   -8.3992 C   0  0  0  0  0  0  0  0  0  0  0  0
   30.4267  -21.2301   -7.2434 N   0  0  0  0  0  0  0  0  0  0  0  0
   29.7246  -20.6806   -6.2325 C   0  0  0  0  0  0  0  0  0  0  0  0
   29.9871  -20.5907   -4.8818 C   0  0  0  0  0  0  0  0  0  0  0  0
   29.0608  -19.9564   -4.0785 C   0  0  0  0  0  0  0  0  0  0  0  0
   27.8957  -19.4252   -4.6294 C   0  0  0  0  0  0  0  0  0  0  0  0
   27.6499  -19.5251   -5.9866 C   0  0  0  0  0  0  0  0  0  0  0  0
   28.5643  -20.1555   -6.8044 C   0  0  0  0  0  0  0  0  0  0  0  0
   26.1544  -20.5666  -11.0440 C   0  0  0  0  0  0  0  0  0  0  0  0
   26.3709  -19.4883  -11.6432 O   0  0  0  0  0  0  0  0  0  0  0  0
   25.6775  -21.3276  -14.2122 C   0  0  0  0  0  0  0  0  0  0  0  0
   24.3225  -21.6656  -13.6371 C   0  0  1  0  0  0  0  0  0  0  0  0
   24.2945  -23.0400  -13.4403 O   0  0  0  0  0  0  0  0  0  0  0  0
   24.0205  -20.8753  -12.3772 C   0  0  2  0  0  0  0  0  0  0  0  0
   24.9343  -21.2328  -11.3095 N   0  0  0  0  0  0  0  0  0  0  0  0
   22.6078  -20.9438  -11.9626 C   0  0  0  0  0  0  0  0  0  0  0  0
   22.2131  -21.7656  -11.0758 O   0  0  0  0  0  0  0  0  0  0  0  0
   15.1571  -18.3093  -12.5611 C   0  0  0  0  0  0  0  0  0  0  0  0
   16.8558  -18.0860  -13.0937 S   0  0  0  0  0  0  0  0  0  0  0  0
   17.8794  -19.4132  -12.3638 C   0  0  0  0  0  0  0  0  0  0  0  0
   19.3313  -19.2066  -12.6782 C   0  0  0  0  0  0  0  0  0  0  0  0
   20.1464  -20.3294  -12.1568 C   0  0  2  0  0  0  0  0  0  0  0  0
   21.5793  -20.1292  -12.4905 N   0  0  0  0  0  0  0  0  0  0  0  0
   19.7655  -21.6031  -12.7600 C   0  0  0  0  0  0  0  0  0  0  0  0
   20.2591  -21.9960  -13.8299 O   0  0  0  0  0  0  0  0  0  0  0  0
   18.8329  -22.4223  -12.1532 O   0  0  0  0  0  0  0  0  0  0  0  0
  2  1  1  6
  2 13  1  0
  3  2  1  0
  3  4  1  0
  4  5  2  0
  4 12  1  0
  5  6  1  0
  6  7  1  0
  7  8  2  0
  8  9  1  0
 10  9  2  0
 11 10  1  0
 12 11  2  0
 12  7  1  0
 13 14  2  0
 16 15  1  1
 16 18  1  0
 17 16  1  0
 18 20  1  0
 19 13  1  0
 18 19  1  1
 20 21  2  0
 23 22  1  0
 24 23  1  0
 24 25  1  0
 26 25  1  6
 26 28  1  0
 27 26  1  0
 27 20  1  0
 28 29  2  0
 28 30  1  0
M  END
$$$$
