WTM.pdb
     RDKit          3D

 30 31  0  0  1  0  0  0  0  0999 V2000
   24.0551  -21.7090  -14.9145 N   0  0  0  0  0  0  0  0  0  0  0  0
   23.7489  -21.1445  -13.6356 C   0  0  1  0  0  0  0  0  0  0  0  0
   22.3777  -21.5351  -13.1264 C   0  0  0  0  0  0  0  0  0  0  0  0
   21.3859  -20.4792  -13.3631 C   0  0  0  0  0  0  0  0  0  0  0  0
   20.6155  -19.7447  -12.4854 C   0  0  0  0  0  0  0  0  0  0  0  0
   19.8390  -18.8778  -13.1635 N   0  0  0  0  0  0  0  0  0  0  0  0
   20.0663  -19.0085  -14.4856 C   0  0  0  0  0  0  0  0  0  0  0  0
   19.5263  -18.3559  -15.5737 C   0  0  0  0  0  0  0  0  0  0  0  0
   19.9658  -18.7136  -16.8325 C   0  0  0  0  0  0  0  0  0  0  0  0
   20.9295  -19.7088  -16.9867 C   0  0  0  0  0  0  0  0  0  0  0  0
   21.4596  -20.3522  -15.8833 C   0  0  0  0  0  0  0  0  0  0  0  0
   21.0323  -20.0078  -14.6179 C   0  0  0  0  0  0  0  0  0  0  0  0
   24.7831  -21.5566  -12.6661 C   0  0  0  0  0  0  0  0  0  0  0  0
   25.1539  -22.7527  -12.6911 O   0  0  0  0  0  0  0  0  0  0  0  0
   28.1128  -20.9012  -12.9031 C   0  0  0  0  0  0  0  0  0  0  0  0
   27.8030  -20.3951  -11.5142 C   0  0  1  0  0  0  0  0  0  0  0  0
   27.7136  -19.0116  -11.5949 O   0  0  0  0  0  0  0  0  0  0  0  0
   26.5593  -21.0414  -10.9322 C   0  0  2  0  0  0  0  0  0  0  0  0
   25.3851  -20.7015  -11.7124 N   0  0  0  0  0  0  0  0  0  0  0  0
   26.3792  -20.7827   -9.4925 C   0  0  0  0  0  0  0  0  0  0  0  0
   25.3068  -20.2731   -9.0365 O   0  0  0  0  0  0  0  0  0  0  0  0
   31.1158  -21.2971   -5.1253 C   0  0  0  0  0  0  0  0  0  0  0  0
   29.8452  -20.7724   -3.9724 S   0  0  0  0  0  0  0  0  0  0  0  0
   28.2912  -20.4988   -4.8956 C   0  0  0  0  0  0  0  0  0  0  0  0
   28.4214  -20.9616   -6.3163 C   0  0  0  0  0  0  0  0  0  0  0  0
   27.1965  -20.6416   -7.0871 C   0  0  2  0  0  0  0  0  0  0  0  0
   27.3481  -21.0655   -8.5020 N   0  0  0  0  0  0  0  0  0  0  0  0
   26.9360  -19.2055   -7.1217 C   0  0  0  0  0  0  0  0  0  0  0  0
   27.3301  -18.4897   -8.0570 O   0  0  0  0  0  0  0  0  0  0  0  0
   26.2346  -18.5892   -6.1033 O   0  0  0  0  0  0  0  0  0  0  0  0
  2  1  1  6
  2 13  1  0
  3  2  1  0
  3  4  1  0
  4  5  2  0
  4 12  1  0
  5  6  1  0
  6  7  1  0
  7  8  2  0
  8  9  1  0
 10  9  2  0
 11 10  1  0
 12 11  2  0
 12  7  1  0
 13 14  2  0
 16 15  1  6
 16 18  1  0
 17 16  1  0
 18 20  1  0
 19 13  1  0
 18 19  1  6
 20 21  2  0
 23 22  1  0
 24 23  1  0
 24 25  1  0
 26 25  1  1
 26 28  1  0
 27 26  1  0
 27 20  1  0
 28 29  2  0
 28 30  1  0
M  END
$$$$
