WTM.pdb
     RDKit          3D

 30 31  0  0  1  0  0  0  0  0999 V2000
   24.3694  -20.9056   -9.7420 N   0  0  0  0  0  0  0  0  0  0  0  0
   23.9713  -21.3172   -8.4305 C   0  0  1  0  0  0  0  0  0  0  0  0
   24.4260  -20.3648   -7.3450 C   0  0  0  0  0  0  0  0  0  0  0  0
   25.8700  -20.1101   -7.4115 C   0  0  0  0  0  0  0  0  0  0  0  0
   26.6993  -19.8630   -8.4861 C   0  0  0  0  0  0  0  0  0  0  0  0
   27.9658  -19.6862   -8.0634 N   0  0  0  0  0  0  0  0  0  0  0  0
   28.0143  -19.8083   -6.7220 C   0  0  0  0  0  0  0  0  0  0  0  0
   29.0651  -19.7139   -5.8340 C   0  0  0  0  0  0  0  0  0  0  0  0
   28.8009  -19.8900   -4.4905 C   0  0  0  0  0  0  0  0  0  0  0  0
   27.5035  -20.1555   -4.0556 C   0  0  0  0  0  0  0  0  0  0  0  0
   26.4624  -20.2464   -4.9612 C   0  0  0  0  0  0  0  0  0  0  0  0
   26.7077  -20.0733   -6.3075 C   0  0  0  0  0  0  0  0  0  0  0  0
   22.5023  -21.4587   -8.3943 C   0  0  0  0  0  0  0  0  0  0  0  0
   21.8181  -20.4623   -8.7223 O   0  0  0  0  0  0  0  0  0  0  0  0
   20.4265  -22.7289  -10.5897 C   0  0  0  0  0  0  0  0  0  0  0  0
   19.9561  -23.4802   -9.3668 C   0  0  1  0  0  0  0  0  0  0  0  0
   20.4369  -24.7784   -9.4760 O   0  0  0  0  0  0  0  0  0  0  0  0
   20.3717  -22.7955   -8.0777 C   0  0  2  0  0  0  0  0  0  0  0  0
   21.8116  -22.6351   -8.0169 N   0  0  0  0  0  0  0  0  0  0  0  0
   19.8192  -23.4309   -6.8681 C   0  0  0  0  0  0  0  0  0  0  0  0
   20.5741  -23.8980   -5.9573 O   0  0  0  0  0  0  0  0  0  0  0  0
   13.6500  -24.7165   -2.0931 C   0  0  0  0  0  0  0  0  0  0  0  0
   14.2191  -23.9641   -3.6191 S   0  0  0  0  0  0  0  0  0  0  0  0
   15.9475  -24.4790   -3.9190 C   0  0  0  0  0  0  0  0  0  0  0  0
   16.4841  -23.8557   -5.1732 C   0  0  0  0  0  0  0  0  0  0  0  0
   17.9222  -24.1718   -5.3429 C   0  0  2  0  0  0  0  0  0  0  0  0
   18.4381  -23.5813   -6.6038 N   0  0  0  0  0  0  0  0  0  0  0  0
   18.1539  -25.6095   -5.4459 C   0  0  0  0  0  0  0  0  0  0  0  0
   18.0601  -26.2133   -6.5272 O   0  0  0  0  0  0  0  0  0  0  0  0
   18.4890  -26.3536   -4.3311 O   0  0  0  0  0  0  0  0  0  0  0  0
  2  1  1  6
  2 13  1  0
  3  2  1  0
  3  4  1  0
  4  5  2  0
  4 12  1  0
  5  6  1  0
  6  7  1  0
  7  8  2  0
  8  9  1  0
 10  9  2  0
 11 10  1  0
 12 11  2  0
 12  7  1  0
 13 14  2  0
 16 15  1  6
 16 18  1  0
 17 16  1  0
 18 20  1  0
 19 13  1  0
 18 19  1  1
 20 21  2  0
 23 22  1  0
 24 23  1  0
 24 25  1  0
 26 25  1  6
 26 28  1  0
 27 26  1  0
 27 20  1  0
 28 29  2  0
 28 30  1  0
M  END
$$$$
