WTM.pdb
     RDKit          3D

 30 31  0  0  1  0  0  0  0  0999 V2000
   24.9886  -20.6044  -17.2667 N   0  0  0  0  0  0  0  0  0  0  0  0
   24.4382  -20.4040  -15.9610 C   0  0  1  0  0  0  0  0  0  0  0  0
   23.0946  -21.0759  -15.7727 C   0  0  0  0  0  0  0  0  0  0  0  0
   21.9820  -20.1519  -16.0230 C   0  0  0  0  0  0  0  0  0  0  0  0
   21.4457  -19.1458  -15.2461 C   0  0  0  0  0  0  0  0  0  0  0  0
   20.4222  -18.5559  -15.8932 N   0  0  0  0  0  0  0  0  0  0  0  0
   20.2518  -19.1413  -17.0952 C   0  0  0  0  0  0  0  0  0  0  0  0
   19.3494  -18.8985  -18.1092 C   0  0  0  0  0  0  0  0  0  0  0  0
   19.4211  -19.6783  -19.2461 C   0  0  0  0  0  0  0  0  0  0  0  0
   20.3836  -20.6807  -19.3544 C   0  0  0  0  0  0  0  0  0  0  0  0
   21.2802  -20.9094  -18.3267 C   0  0  0  0  0  0  0  0  0  0  0  0
   21.2234  -20.1400  -17.1834 C   0  0  0  0  0  0  0  0  0  0  0  0
   25.3957  -20.8995  -14.9525 C   0  0  0  0  0  0  0  0  0  0  0  0
   25.9721  -21.9860  -15.1886 O   0  0  0  0  0  0  0  0  0  0  0  0
   28.6100  -19.5376  -14.0292 C   0  0  0  0  0  0  0  0  0  0  0  0
   27.8583  -19.6640  -12.7253 C   0  0  1  0  0  0  0  0  0  0  0  0
   27.4257  -18.3907  -12.3790 O   0  0  0  0  0  0  0  0  0  0  0  0
   26.7306  -20.6762  -12.8090 C   0  0  2  0  0  0  0  0  0  0  0  0
   25.7094  -20.2386  -13.7409 N   0  0  0  0  0  0  0  0  0  0  0  0
   26.1776  -21.0525  -11.4957 C   0  0  0  0  0  0  0  0  0  0  0  0
   24.9903  -21.4921  -11.3742 O   0  0  0  0  0  0  0  0  0  0  0  0
   30.4376  -20.3256   -5.6573 C   0  0  0  0  0  0  0  0  0  0  0  0
   28.9484  -19.5320   -6.2667 S   0  0  0  0  0  0  0  0  0  0  0  0
   28.1017  -20.6749   -7.4151 C   0  0  0  0  0  0  0  0  0  0  0  0
   26.8956  -20.0263   -8.0269 C   0  0  0  0  0  0  0  0  0  0  0  0
   26.2110  -20.9591   -8.9533 C   0  0  2  0  0  0  0  0  0  0  0  0
   26.8870  -20.9669  -10.2753 N   0  0  0  0  0  0  0  0  0  0  0  0
   24.8309  -20.5566   -9.2079 C   0  0  0  0  0  0  0  0  0  0  0  0
   24.5091  -19.9264  -10.2286 O   0  0  0  0  0  0  0  0  0  0  0  0
   23.8267  -20.8672   -8.3113 O   0  0  0  0  0  0  0  0  0  0  0  0
  2  1  1  6
  2 13  1  0
  3  2  1  0
  3  4  1  0
  4  5  2  0
  4 12  1  0
  5  6  1  0
  6  7  1  0
  7  8  2  0
  8  9  1  0
 10  9  2  0
 11 10  1  0
 12 11  2  0
 12  7  1  0
 13 14  2  0
 16 15  1  6
 16 18  1  0
 17 16  1  0
 18 20  1  0
 19 13  1  0
 18 19  1  6
 20 21  2  0
 23 22  1  0
 24 23  1  0
 24 25  1  0
 26 25  1  1
 26 28  1  0
 27 26  1  0
 27 20  1  0
 28 29  2  0
 28 30  1  0
M  END
$$$$
