WTM.pdb
     RDKit          3D

 30 31  0  0  1  0  0  0  0  0999 V2000
   27.8609  -20.2152  -16.3023 N   0  0  0  0  0  0  0  0  0  0  0  0
   26.7144  -19.5480  -15.7655 C   0  0  1  0  0  0  0  0  0  0  0  0
   25.9505  -18.7516  -16.8021 C   0  0  0  0  0  0  0  0  0  0  0  0
   26.7621  -17.6648  -17.3630 C   0  0  0  0  0  0  0  0  0  0  0  0
   27.2960  -17.4883  -18.6229 C   0  0  0  0  0  0  0  0  0  0  0  0
   27.9762  -16.3272  -18.6797 N   0  0  0  0  0  0  0  0  0  0  0  0
   27.9154  -15.7103  -17.4829 C   0  0  0  0  0  0  0  0  0  0  0  0
   28.4445  -14.5150  -17.0439 C   0  0  0  0  0  0  0  0  0  0  0  0
   28.2088  -14.1387  -15.7368 C   0  0  0  0  0  0  0  0  0  0  0  0
   27.4551  -14.9532  -14.8934 C   0  0  0  0  0  0  0  0  0  0  0  0
   26.9325  -16.1487  -15.3517 C   0  0  0  0  0  0  0  0  0  0  0  0
   27.1579  -16.5407  -16.6548 C   0  0  0  0  0  0  0  0  0  0  0  0
   25.8244  -20.5457  -15.1396 C   0  0  0  0  0  0  0  0  0  0  0  0
   25.8918  -21.7235  -15.5600 O   0  0  0  0  0  0  0  0  0  0  0  0
   25.7749  -21.4224  -11.5798 C   0  0  0  0  0  0  0  0  0  0  0  0
   24.3181  -21.2493  -11.9387 C   0  0  1  0  0  0  0  0  0  0  0  0
   23.8870  -20.0740  -11.3377 O   0  0  0  0  0  0  0  0  0  0  0  0
   24.0902  -21.2718  -13.4390 C   0  0  2  0  0  0  0  0  0  0  0  0
   24.9025  -20.2699  -14.1017 N   0  0  0  0  0  0  0  0  0  0  0  0
   22.6688  -21.1940  -13.8206 C   0  0  0  0  0  0  0  0  0  0  0  0
   22.1322  -20.0950  -14.1699 O   0  0  0  0  0  0  0  0  0  0  0  0
   18.8230  -26.2503  -15.4497 C   0  0  0  0  0  0  0  0  0  0  0  0
   17.5575  -25.0493  -15.0311 S   0  0  0  0  0  0  0  0  0  0  0  0
   18.3364  -23.4017  -14.8861 C   0  0  0  0  0  0  0  0  0  0  0  0
   19.7455  -23.5156  -14.3853 C   0  0  0  0  0  0  0  0  0  0  0  0
   20.3562  -22.1744  -14.2262 C   0  0  2  0  0  0  0  0  0  0  0  0
   21.7841  -22.2971  -13.8378 N   0  0  0  0  0  0  0  0  0  0  0  0
   19.7132  -21.4073  -13.1635 C   0  0  0  0  0  0  0  0  0  0  0  0
   20.0862  -21.4839  -11.9813 O   0  0  0  0  0  0  0  0  0  0  0  0
   18.6568  -20.5615  -13.4417 O   0  0  0  0  0  0  0  0  0  0  0  0
  2  1  1  6
  2 13  1  0
  3  2  1  0
  3  4  1  0
  4  5  2  0
  4 12  1  0
  5  6  1  0
  6  7  1  0
  7  8  2  0
  8  9  1  0
 10  9  2  0
 11 10  1  0
 12 11  2  0
 12  7  1  0
 13 14  2  0
 16 15  1  6
 16 18  1  0
 17 16  1  0
 18 20  1  0
 19 13  1  0
 18 19  1  6
 20 21  2  0
 23 22  1  0
 24 23  1  0
 24 25  1  0
 26 25  1  1
 26 28  1  0
 27 26  1  0
 27 20  1  0
 28 29  2  0
 28 30  1  0
M  END
$$$$
