YRL.pdb
     RDKit          3D

 32 32  0  0  1  0  0  0  0  0999 V2000
    8.3847  -12.2763   15.8055 O   0  0  0  0  0  0  0  0  0  0  0  0
    8.1024  -12.7302   17.0908 C   0  0  0  0  0  0  0  0  0  0  0  0
    6.8284  -12.7539   17.6088 C   0  0  0  0  0  0  0  0  0  0  0  0
    6.5470  -13.2013   18.8769 C   0  0  0  0  0  0  0  0  0  0  0  0
    7.5647  -13.6554   19.6971 C   0  0  0  0  0  0  0  0  0  0  0  0
    7.3546  -14.1555   21.0780 C   0  0  0  0  0  0  0  0  0  0  0  0
    7.3921  -15.6440   21.0710 C   0  0  2  0  0  0  0  0  0  0  0  0
    6.1945  -16.1529   20.4402 N   0  0  0  0  0  0  0  0  0  0  0  0
    7.6303  -16.2387   22.3908 C   0  0  0  0  0  0  0  0  0  0  0  0
    6.7428  -16.3688   23.2735 O   0  0  0  0  0  0  0  0  0  0  0  0
    8.8591  -13.6266   19.1587 C   0  0  0  0  0  0  0  0  0  0  0  0
    9.1200  -13.1768   17.8917 C   0  0  0  0  0  0  0  0  0  0  0  0
   13.9589  -19.6678   26.6621 N   0  0  0  0  0  0  0  0  0  0  0  0
   12.8843  -20.5678   27.0017 C   0  0  0  0  0  0  0  0  0  0  0  0
   12.7721  -21.0636   28.1876 N   0  0  0  0  0  0  0  0  0  0  0  0
   11.9109  -20.9406   26.0379 N   0  0  0  0  0  0  0  0  0  0  0  0
   11.6014  -20.1432   24.9015 C   0  0  0  0  0  0  0  0  0  0  0  0
   10.5265  -19.1110   25.1140 C   0  0  0  0  0  0  0  0  0  0  0  0
   10.2543  -18.3598   23.8295 C   0  0  0  0  0  0  0  0  0  0  0  0
    9.2374  -17.2811   24.0085 C   0  0  2  0  0  0  0  0  0  0  0  0
    8.9353  -16.7020   22.7097 N   0  0  0  0  0  0  0  0  0  0  0  0
    9.6634  -16.2076   24.9161 C   0  0  0  0  0  0  0  0  0  0  0  0
   10.6762  -15.4987   24.5813 O   0  0  0  0  0  0  0  0  0  0  0  0
   11.9810  -21.7210   28.3556 C   0  0  0  0  0  0  0  0  0  0  0  0
    8.0364  -12.1755   25.8272 C   0  0  1  0  0  0  0  0  0  0  0  0
    7.4163  -13.3965   26.4029 C   0  0  0  0  0  0  0  0  0  0  0  0
    6.1004  -12.9708   27.0985 C   0  0  0  0  0  0  0  0  0  0  0  0
    8.1718  -14.1833   27.3837 C   0  0  2  0  0  0  0  0  0  0  0  0
    9.4341  -14.8846   26.9879 N   0  0  0  0  0  0  0  0  0  0  0  0
    8.9653  -15.9807   26.1149 C   0  0  0  0  0  0  0  0  0  0  0  0
   10.2190  -15.5050   28.0620 O   0  0  0  0  0  0  0  0  0  0  0  0
   11.0081  -14.8798   28.7915 O   0  0  0  0  0  0  0  0  0  0  0  0
  2  1  1  0
  3  2  2  0
  4  3  1  0
  5  4  2  0
  5 11  1  0
  6  5  1  0
  7  9  1  0
  7  8  1  1
  7  6  1  0
  9 10  2  0
 11 12  2  0
 12  2  1  0
 14 13  1  0
 15 14  2  0
 16 14  1  0
 17 16  1  0
 18 17  1  0
 19 18  1  0
 20 19  1  6
 20 22  1  0
 21  9  1  0
 21 20  1  0
 22 29  1  0
 22 23  2  0
 25 24  1  6
 26 25  1  0
 27 25  1  0
 28 27  1  6
 28 30  1  0
 29 28  1  0
 30 31  2  0
 30 32  1  0
M  END
$$$$
