YRL.pdb
     RDKit          3D

 32 32  0  0  1  0  0  0  0  0999 V2000
   11.8321  -21.7477   27.7050 O   0  0  0  0  0  0  0  0  0  0  0  0
   12.0525  -20.7356   26.7751 C   0  0  0  0  0  0  0  0  0  0  0  0
   11.1503  -20.4254   25.7842 C   0  0  0  0  0  0  0  0  0  0  0  0
   11.3654  -19.4271   24.8653 C   0  0  0  0  0  0  0  0  0  0  0  0
   12.5294  -18.6802   24.9079 C   0  0  0  0  0  0  0  0  0  0  0  0
   12.8460  -17.5853   23.9582 C   0  0  0  0  0  0  0  0  0  0  0  0
   12.1632  -17.8487   22.6614 C   0  0  2  0  0  0  0  0  0  0  0  0
   13.1185  -18.3766   21.7128 N   0  0  0  0  0  0  0  0  0  0  0  0
   11.4234  -16.6966   22.1345 C   0  0  0  0  0  0  0  0  0  0  0  0
   11.9663  -15.7104   21.5721 O   0  0  0  0  0  0  0  0  0  0  0  0
   13.4418  -19.0050   25.9219 C   0  0  0  0  0  0  0  0  0  0  0  0
   13.2096  -20.0043   26.8293 C   0  0  0  0  0  0  0  0  0  0  0  0
    6.9913  -14.1300   16.2955 N   0  0  0  0  0  0  0  0  0  0  0  0
    8.3602  -14.3517   16.6913 C   0  0  0  0  0  0  0  0  0  0  0  0
    9.2756  -14.6226   15.8233 N   0  0  0  0  0  0  0  0  0  0  0  0
    8.7475  -14.2802   18.0553 N   0  0  0  0  0  0  0  0  0  0  0  0
    7.8202  -14.0722   19.1136 C   0  0  0  0  0  0  0  0  0  0  0  0
    8.4238  -13.9884   20.4900 C   0  0  0  0  0  0  0  0  0  0  0  0
    8.3398  -15.3288   21.1862 C   0  0  0  0  0  0  0  0  0  0  0  0
    9.2738  -15.4239   22.3474 C   0  0  2  0  0  0  0  0  0  0  0  0
   10.0078  -16.6754   22.2569 N   0  0  0  0  0  0  0  0  0  0  0  0
    8.6054  -15.3624   23.6540 C   0  0  0  0  0  0  0  0  0  0  0  0
    8.2919  -16.4647   24.2257 O   0  0  0  0  0  0  0  0  0  0  0  0
   10.2374  -14.7976   16.1848 C   0  0  0  0  0  0  0  0  0  0  0  0
    5.4323  -11.1012   26.7381 C   0  0  1  0  0  0  0  0  0  0  0  0
    6.1756  -12.3870   26.7704 C   0  0  0  0  0  0  0  0  0  0  0  0
    7.1790  -12.3193   27.9474 C   0  0  0  0  0  0  0  0  0  0  0  0
    6.9439  -12.7945   25.5892 C   0  0  2  0  0  0  0  0  0  0  0  0
    7.6503  -14.1143   25.5581 N   0  0  0  0  0  0  0  0  0  0  0  0
    8.3261  -14.1174   24.2440 C   0  0  0  0  0  0  0  0  0  0  0  0
    6.8155  -15.3205   25.6078 O   0  0  0  0  0  0  0  0  0  0  0  0
    6.6217  -15.9854   26.6404 O   0  0  0  0  0  0  0  0  0  0  0  0
  2  1  1  0
  3  2  2  0
  4  3  1  0
  5  4  2  0
  5 11  1  0
  6  5  1  0
  7  9  1  0
  7  8  1  6
  7  6  1  0
  9 10  2  0
 11 12  2  0
 12  2  1  0
 14 13  1  0
 15 14  2  0
 16 14  1  0
 17 16  1  0
 18 17  1  0
 19 18  1  0
 20 19  1  6
 20 22  1  0
 21  9  1  0
 21 20  1  0
 22 29  1  0
 22 23  2  0
 25 24  1  1
 26 25  1  0
 27 25  1  0
 28 27  1  1
 28 30  1  0
 29 28  1  0
 30 31  2  0
 30 32  1  0
M  END
$$$$
