YRL.pdb
     RDKit          3D

 32 32  0  0  1  0  0  0  0  0999 V2000
    8.5462  -12.3030   16.7144 O   0  0  0  0  0  0  0  0  0  0  0  0
    8.0900  -12.8773   17.8975 C   0  0  0  0  0  0  0  0  0  0  0  0
    8.5299  -12.4765   19.1377 C   0  0  0  0  0  0  0  0  0  0  0  0
    8.0813  -13.0416   20.3068 C   0  0  0  0  0  0  0  0  0  0  0  0
    7.1461  -14.0608   20.2738 C   0  0  0  0  0  0  0  0  0  0  0  0
    6.6061  -14.7287   21.4834 C   0  0  0  0  0  0  0  0  0  0  0  0
    7.0106  -16.1617   21.4737 C   0  0  2  0  0  0  0  0  0  0  0  0
    5.9662  -16.9527   20.8614 N   0  0  0  0  0  0  0  0  0  0  0  0
    7.4093  -16.6757   22.7886 C   0  0  0  0  0  0  0  0  0  0  0  0
    6.6125  -17.2004   23.6092 O   0  0  0  0  0  0  0  0  0  0  0  0
    6.7048  -14.4611   19.0045 C   0  0  0  0  0  0  0  0  0  0  0  0
    7.1640  -13.8855   17.8496 C   0  0  0  0  0  0  0  0  0  0  0  0
   11.6411  -19.2110   28.4540 N   0  0  0  0  0  0  0  0  0  0  0  0
   12.6329  -19.8919   27.6586 C   0  0  0  0  0  0  0  0  0  0  0  0
   13.8524  -20.0118   28.0627 N   0  0  0  0  0  0  0  0  0  0  0  0
   12.2991  -20.4542   26.3984 N   0  0  0  0  0  0  0  0  0  0  0  0
   11.9084  -19.6685   25.2790 C   0  0  0  0  0  0  0  0  0  0  0  0
   10.8221  -18.6618   25.5479 C   0  0  0  0  0  0  0  0  0  0  0  0
   10.2937  -18.0951   24.2488 C   0  0  0  0  0  0  0  0  0  0  0  0
    9.2279  -17.0725   24.4684 C   0  0  2  0  0  0  0  0  0  0  0  0
    8.7734  -16.5848   23.1765 N   0  0  0  0  0  0  0  0  0  0  0  0
    9.6616  -15.9270   25.2792 C   0  0  0  0  0  0  0  0  0  0  0  0
   10.7251  -15.3057   24.9285 O   0  0  0  0  0  0  0  0  0  0  0  0
   14.5132  -20.5199   27.4370 C   0  0  0  0  0  0  0  0  0  0  0  0
    7.7376  -12.0703   25.5877 C   0  0  1  0  0  0  0  0  0  0  0  0
    7.2672  -13.1533   26.4891 C   0  0  0  0  0  0  0  0  0  0  0  0
    5.9847  -12.6512   27.1961 C   0  0  0  0  0  0  0  0  0  0  0  0
    8.1627  -13.6400   27.5442 C   0  0  2  0  0  0  0  0  0  0  0  0
    9.4093  -14.3934   27.1975 N   0  0  0  0  0  0  0  0  0  0  0  0
    8.9157  -15.5393   26.4059 C   0  0  0  0  0  0  0  0  0  0  0  0
   10.1848  -14.9513   28.3119 O   0  0  0  0  0  0  0  0  0  0  0  0
   10.7483  -14.2590   29.1773 O   0  0  0  0  0  0  0  0  0  0  0  0
  2  1  1  0
  3  2  2  0
  4  3  1  0
  5  4  2  0
  5 11  1  0
  6  5  1  0
  7  9  1  0
  7  8  1  1
  7  6  1  0
  9 10  2  0
 11 12  2  0
 12  2  1  0
 14 13  1  0
 15 14  2  0
 16 14  1  0
 17 16  1  0
 18 17  1  0
 19 18  1  0
 20 19  1  6
 20 22  1  0
 21  9  1  0
 21 20  1  0
 22 29  1  0
 22 23  2  0
 25 24  1  6
 26 25  1  0
 27 25  1  0
 28 27  1  6
 28 30  1  0
 29 28  1  0
 30 31  2  0
 30 32  1  0
M  END
$$$$
