YRL.pdb
     RDKit          3D

 32 32  0  0  1  0  0  0  0  0999 V2000
   12.9008  -22.8705   26.9876 O   0  0  0  0  0  0  0  0  0  0  0  0
   12.8107  -21.5565   26.5371 C   0  0  0  0  0  0  0  0  0  0  0  0
   11.6929  -21.0602   25.9077 C   0  0  0  0  0  0  0  0  0  0  0  0
   11.6014  -19.7639   25.4621 C   0  0  0  0  0  0  0  0  0  0  0  0
   12.6606  -18.8909   25.6369 C   0  0  0  0  0  0  0  0  0  0  0  0
   12.6509  -17.4767   25.1886 C   0  0  0  0  0  0  0  0  0  0  0  0
   12.5694  -17.4345   23.7024 C   0  0  2  0  0  0  0  0  0  0  0  0
   13.9046  -17.4126   23.1474 N   0  0  0  0  0  0  0  0  0  0  0  0
   11.7257  -16.3520   23.1840 C   0  0  0  0  0  0  0  0  0  0  0  0
   12.1319  -15.1773   22.9871 O   0  0  0  0  0  0  0  0  0  0  0  0
   13.7947  -19.4076   26.2796 C   0  0  0  0  0  0  0  0  0  0  0  0
   13.8672  -20.7034   26.7170 C   0  0  0  0  0  0  0  0  0  0  0  0
    8.6773  -14.3737   17.0472 N   0  0  0  0  0  0  0  0  0  0  0  0
    7.9498  -13.9996   18.2349 C   0  0  0  0  0  0  0  0  0  0  0  0
    7.6621  -12.7673   18.4870 N   0  0  0  0  0  0  0  0  0  0  0  0
    7.5251  -14.9790   19.1708 N   0  0  0  0  0  0  0  0  0  0  0  0
    6.7200  -14.6711   20.3022 C   0  0  0  0  0  0  0  0  0  0  0  0
    7.4524  -14.6147   21.6161 C   0  0  0  0  0  0  0  0  0  0  0  0
    8.5598  -15.6448   21.6483 C   0  0  0  0  0  0  0  0  0  0  0  0
    9.3553  -15.5825   22.9105 C   0  0  2  0  0  0  0  0  0  0  0  0
   10.3653  -16.6276   22.8796 N   0  0  0  0  0  0  0  0  0  0  0  0
    8.5499  -15.7406   24.1287 C   0  0  0  0  0  0  0  0  0  0  0  0
    8.4596  -16.9083   24.6470 O   0  0  0  0  0  0  0  0  0  0  0  0
    7.1989  -12.5636   19.3981 C   0  0  0  0  0  0  0  0  0  0  0  0
    7.9365  -12.0560   27.5236 C   0  0  2  0  0  0  0  0  0  0  0  0
    7.2208  -12.3105   26.2469 C   0  0  0  0  0  0  0  0  0  0  0  0
    6.2693  -11.1154   25.9963 C   0  0  0  0  0  0  0  0  0  0  0  0
    6.4091  -13.5254   26.1163 C   0  0  2  0  0  0  0  0  0  0  0  0
    7.0589  -14.8545   25.8857 N   0  0  0  0  0  0  0  0  0  0  0  0
    7.9036  -14.6279   24.6948 C   0  0  0  0  0  0  0  0  0  0  0  0
    6.1765  -15.9842   25.5703 O   0  0  0  0  0  0  0  0  0  0  0  0
    5.9173  -16.3572   24.4130 O   0  0  0  0  0  0  0  0  0  0  0  0
  2  1  1  0
  3  2  2  0
  4  3  1  0
  5  4  2  0
  5 11  1  0
  6  5  1  0
  7  9  1  0
  7  8  1  6
  7  6  1  0
  9 10  2  0
 11 12  2  0
 12  2  1  0
 14 13  1  0
 15 14  2  0
 16 14  1  0
 17 16  1  0
 18 17  1  0
 19 18  1  0
 20 19  1  6
 20 22  1  0
 21  9  1  0
 21 20  1  0
 22 29  1  0
 22 23  2  0
 25 24  1  6
 26 25  1  0
 27 25  1  0
 28 27  1  1
 28 30  1  0
 29 28  1  0
 30 31  2  0
 30 32  1  0
M  END
$$$$
