YRL.pdb
     RDKit          3D

 32 32  0  0  1  0  0  0  0  0999 V2000
    8.6429  -12.6265   16.2345 O   0  0  0  0  0  0  0  0  0  0  0  0
    8.1999  -13.1008   17.4659 C   0  0  0  0  0  0  0  0  0  0  0  0
    7.7320  -12.2716   18.4586 C   0  0  0  0  0  0  0  0  0  0  0  0
    7.2942  -12.7371   19.6748 C   0  0  0  0  0  0  0  0  0  0  0  0
    7.3101  -14.0934   19.9481 C   0  0  0  0  0  0  0  0  0  0  0  0
    6.8577  -14.6849   21.2313 C   0  0  0  0  0  0  0  0  0  0  0  0
    7.0167  -16.1643   21.1718 C   0  0  2  0  0  0  0  0  0  0  0  0
    5.7480  -16.7718   20.8360 N   0  0  0  0  0  0  0  0  0  0  0  0
    7.6189  -16.7461   22.3764 C   0  0  0  0  0  0  0  0  0  0  0  0
    6.9606  -17.1124   23.3845 O   0  0  0  0  0  0  0  0  0  0  0  0
    7.7889  -14.9292   18.9291 C   0  0  0  0  0  0  0  0  0  0  0  0
    8.2213  -14.4462   17.7227 C   0  0  0  0  0  0  0  0  0  0  0  0
   12.6005  -23.0522   24.0133 N   0  0  0  0  0  0  0  0  0  0  0  0
   12.7537  -22.2942   25.2307 C   0  0  0  0  0  0  0  0  0  0  0  0
   13.2196  -22.8353   26.3054 N   0  0  0  0  0  0  0  0  0  0  0  0
   12.3942  -20.9220   25.2875 N   0  0  0  0  0  0  0  0  0  0  0  0
   11.7765  -20.2379   24.2042 C   0  0  0  0  0  0  0  0  0  0  0  0
   11.6892  -18.7427   24.3540 C   0  0  0  0  0  0  0  0  0  0  0  0
   10.9456  -18.1370   23.1842 C   0  0  0  0  0  0  0  0  0  0  0  0
    9.6865  -17.4536   23.6054 C   0  0  2  0  0  0  0  0  0  0  0  0
    9.0290  -16.9147   22.4262 N   0  0  0  0  0  0  0  0  0  0  0  0
    9.8953  -16.3643   24.5685 C   0  0  0  0  0  0  0  0  0  0  0  0
   10.6395  -15.3823   24.2191 O   0  0  0  0  0  0  0  0  0  0  0  0
   13.2318  -22.2485   27.1668 C   0  0  0  0  0  0  0  0  0  0  0  0
    9.4529  -12.1651   27.1952 C   0  0  1  0  0  0  0  0  0  0  0  0
    8.5716  -13.0167   26.3555 C   0  0  0  0  0  0  0  0  0  0  0  0
    7.1560  -12.3904   26.3762 C   0  0  0  0  0  0  0  0  0  0  0  0
    8.4076  -14.4320   26.7043 C   0  0  2  0  0  0  0  0  0  0  0  0
    9.5969  -15.3373   26.7937 N   0  0  0  0  0  0  0  0  0  0  0  0
    9.2862  -16.4172   25.8343 C   0  0  0  0  0  0  0  0  0  0  0  0
    9.8511  -15.9810   28.0881 O   0  0  0  0  0  0  0  0  0  0  0  0
    9.4292  -17.1098   28.3939 O   0  0  0  0  0  0  0  0  0  0  0  0
  2  1  1  0
  3  2  2  0
  4  3  1  0
  5  4  2  0
  5 11  1  0
  6  5  1  0
  7  9  1  0
  7  8  1  1
  7  6  1  0
  9 10  2  0
 11 12  2  0
 12  2  1  0
 14 13  1  0
 15 14  2  0
 16 14  1  0
 17 16  1  0
 18 17  1  0
 19 18  1  0
 20 19  1  6
 20 22  1  0
 21  9  1  0
 21 20  1  0
 22 29  1  0
 22 23  2  0
 25 24  1  6
 26 25  1  0
 27 25  1  0
 28 27  1  6
 28 30  1  0
 29 28  1  0
 30 31  2  0
 30 32  1  0
M  END
$$$$
