YRL.pdb
     RDKit          3D

 32 32  0  0  1  0  0  0  0  0999 V2000
    9.2114  -13.6888   15.5640 O   0  0  0  0  0  0  0  0  0  0  0  0
    8.7154  -13.9549   16.8371 C   0  0  0  0  0  0  0  0  0  0  0  0
    9.1972  -14.9736   17.6259 C   0  0  0  0  0  0  0  0  0  0  0  0
    8.7094  -15.2384   18.8826 C   0  0  0  0  0  0  0  0  0  0  0  0
    7.6890  -14.4672   19.4105 C   0  0  0  0  0  0  0  0  0  0  0  0
    7.1011  -14.6801   20.7559 C   0  0  0  0  0  0  0  0  0  0  0  0
    6.8267  -16.1312   20.9466 C   0  0  2  0  0  0  0  0  0  0  0  0
    5.7595  -16.5400   20.0604 N   0  0  0  0  0  0  0  0  0  0  0  0
    6.5773  -16.5105   22.3416 C   0  0  0  0  0  0  0  0  0  0  0  0
    5.4486  -16.4513   22.8950 O   0  0  0  0  0  0  0  0  0  0  0  0
    7.2057  -13.4318   18.5977 C   0  0  0  0  0  0  0  0  0  0  0  0
    7.7049  -13.1832   17.3468 C   0  0  0  0  0  0  0  0  0  0  0  0
    8.4851  -23.2576   27.2889 N   0  0  0  0  0  0  0  0  0  0  0  0
    8.0319  -22.2729   28.2402 C   0  0  0  0  0  0  0  0  0  0  0  0
    7.7791  -22.5883   29.4656 N   0  0  0  0  0  0  0  0  0  0  0  0
    7.8468  -20.9182   27.8580 N   0  0  0  0  0  0  0  0  0  0  0  0
    7.9974  -20.4641   26.5185 C   0  0  0  0  0  0  0  0  0  0  0  0
    7.6605  -19.0150   26.2892 C   0  0  0  0  0  0  0  0  0  0  0  0
    7.8461  -18.6537   24.8321 C   0  0  0  0  0  0  0  0  0  0  0  0
    7.5125  -17.2247   24.5556 C   0  0  2  0  0  0  0  0  0  0  0  0
    7.6634  -16.9757   23.1313 N   0  0  0  0  0  0  0  0  0  0  0  0
    8.3465  -16.2665   25.2930 C   0  0  0  0  0  0  0  0  0  0  0  0
    9.5855  -16.1775   24.9812 O   0  0  0  0  0  0  0  0  0  0  0  0
    7.4600  -21.8235   30.0977 C   0  0  0  0  0  0  0  0  0  0  0  0
    7.1654  -11.8769   25.7421 C   0  0  1  0  0  0  0  0  0  0  0  0
    6.6962  -12.8331   26.7776 C   0  0  0  0  0  0  0  0  0  0  0  0
    5.7793  -12.0556   27.7529 C   0  0  0  0  0  0  0  0  0  0  0  0
    7.6878  -13.5311   27.6030 C   0  0  2  0  0  0  0  0  0  0  0  0
    8.6533  -14.4931   26.9832 N   0  0  0  0  0  0  0  0  0  0  0  0
    7.7811  -15.4778   26.3101 C   0  0  0  0  0  0  0  0  0  0  0  0
    9.5213  -15.2491   27.8940 O   0  0  0  0  0  0  0  0  0  0  0  0
   10.4530  -14.7415   28.5421 O   0  0  0  0  0  0  0  0  0  0  0  0
  2  1  1  0
  3  2  2  0
  4  3  1  0
  5  4  2  0
  5 11  1  0
  6  5  1  0
  7  9  1  0
  7  8  1  6
  7  6  1  0
  9 10  2  0
 11 12  2  0
 12  2  1  0
 14 13  1  0
 15 14  2  0
 16 14  1  0
 17 16  1  0
 18 17  1  0
 19 18  1  0
 20 19  1  6
 20 22  1  0
 21  9  1  0
 21 20  1  0
 22 29  1  0
 22 23  2  0
 25 24  1  6
 26 25  1  0
 27 25  1  0
 28 27  1  6
 28 30  1  0
 29 28  1  0
 30 31  2  0
 30 32  1  0
M  END
$$$$
