YRL.pdb
     RDKit          3D

 32 32  0  0  1  0  0  0  0  0999 V2000
    6.0153  -23.8827   30.0675 O   0  0  0  0  0  0  0  0  0  0  0  0
    6.3853  -22.7918   29.2860 C   0  0  0  0  0  0  0  0  0  0  0  0
    7.6110  -22.1776   29.3975 C   0  0  0  0  0  0  0  0  0  0  0  0
    7.9785  -21.1009   28.6275 C   0  0  0  0  0  0  0  0  0  0  0  0
    7.1030  -20.5848   27.6884 C   0  0  0  0  0  0  0  0  0  0  0  0
    7.4138  -19.4267   26.8148 C   0  0  0  0  0  0  0  0  0  0  0  0
    7.3352  -19.8526   25.3902 C   0  0  2  0  0  0  0  0  0  0  0  0
    7.8155  -21.2110   25.2665 N   0  0  0  0  0  0  0  0  0  0  0  0
    7.9972  -18.9336   24.4577 C   0  0  0  0  0  0  0  0  0  0  0  0
    9.1822  -19.0718   24.0572 O   0  0  0  0  0  0  0  0  0  0  0  0
    5.8567  -21.2187   27.5835 C   0  0  0  0  0  0  0  0  0  0  0  0
    5.5082  -22.2915   28.3603 C   0  0  0  0  0  0  0  0  0  0  0  0
    7.8533  -14.7837   18.0424 N   0  0  0  0  0  0  0  0  0  0  0  0
    7.7795  -13.4632   18.6174 C   0  0  0  0  0  0  0  0  0  0  0  0
    8.3143  -12.4446   18.0332 N   0  0  0  0  0  0  0  0  0  0  0  0
    7.1143  -13.2394   19.8515 N   0  0  0  0  0  0  0  0  0  0  0  0
    6.6132  -14.2943   20.6634 C   0  0  0  0  0  0  0  0  0  0  0  0
    7.6053  -14.8928   21.6243 C   0  0  0  0  0  0  0  0  0  0  0  0
    6.9699  -16.0224   22.4043 C   0  0  0  0  0  0  0  0  0  0  0  0
    7.9443  -16.7081   23.3044 C   0  0  2  0  0  0  0  0  0  0  0  0
    7.2725  -17.8146   23.9659 N   0  0  0  0  0  0  0  0  0  0  0  0
    8.5270  -15.8302   24.3278 C   0  0  0  0  0  0  0  0  0  0  0  0
    8.3771  -14.5651   24.1964 O   0  0  0  0  0  0  0  0  0  0  0  0
    8.2970  -11.5379   18.5470 C   0  0  0  0  0  0  0  0  0  0  0  0
    9.3923  -13.9066   29.2252 C   0  0  2  0  0  0  0  0  0  0  0  0
    9.9137  -14.0814   27.8451 C   0  0  0  0  0  0  0  0  0  0  0  0
    8.9020  -13.4243   26.8748 C   0  0  0  0  0  0  0  0  0  0  0  0
   10.1544  -15.4381   27.3421 C   0  0  2  0  0  0  0  0  0  0  0  0
   10.4326  -15.6739   25.8899 N   0  0  0  0  0  0  0  0  0  0  0  0
    9.2268  -16.3833   25.4143 C   0  0  0  0  0  0  0  0  0  0  0  0
   11.5823  -16.5242   25.5589 O   0  0  0  0  0  0  0  0  0  0  0  0
   11.4921  -17.7336   25.2850 O   0  0  0  0  0  0  0  0  0  0  0  0
  2  1  1  0
  3  2  2  0
  4  3  1  0
  5  4  2  0
  5 11  1  0
  6  5  1  0
  7  9  1  0
  7  8  1  1
  7  6  1  0
  9 10  2  0
 11 12  2  0
 12  2  1  0
 14 13  1  0
 15 14  2  0
 16 14  1  0
 17 16  1  0
 18 17  1  0
 19 18  1  0
 20 19  1  1
 20 22  1  0
 21  9  1  0
 21 20  1  0
 22 29  1  0
 22 23  2  0
 25 24  1  1
 26 25  1  0
 27 25  1  0
 28 27  1  6
 28 30  1  0
 29 28  1  0
 30 31  2  0
 30 32  1  0
M  END
$$$$
