YRL.pdb
     RDKit          3D

 32 32  0  0  1  0  0  0  0  0999 V2000
    7.5282  -11.1350   25.9800 O   0  0  0  0  0  0  0  0  0  0  0  0
    7.1605  -12.3447   25.3977 C   0  0  0  0  0  0  0  0  0  0  0  0
    7.8178  -12.8798   24.3143 C   0  0  0  0  0  0  0  0  0  0  0  0
    7.4570  -14.0734   23.7378 C   0  0  0  0  0  0  0  0  0  0  0  0
    6.3906  -14.7964   24.2425 C   0  0  0  0  0  0  0  0  0  0  0  0
    5.9306  -16.0921   23.6850 C   0  0  0  0  0  0  0  0  0  0  0  0
    6.4806  -17.2032   24.5098 C   0  0  2  0  0  0  0  0  0  0  0  0
    5.9886  -17.0863   25.8646 N   0  0  0  0  0  0  0  0  0  0  0  0
    7.9416  -17.3216   24.4490 C   0  0  0  0  0  0  0  0  0  0  0  0
    8.6638  -17.6237   25.4343 O   0  0  0  0  0  0  0  0  0  0  0  0
    5.7281  -14.2416   25.3468 C   0  0  0  0  0  0  0  0  0  0  0  0
    6.1027  -13.0497   25.9080 C   0  0  0  0  0  0  0  0  0  0  0  0
    7.9391  -14.7805   18.2967 N   0  0  0  0  0  0  0  0  0  0  0  0
    8.6787  -13.6377   18.7730 C   0  0  0  0  0  0  0  0  0  0  0  0
    8.2830  -12.4332   18.5333 N   0  0  0  0  0  0  0  0  0  0  0  0
    9.8726  -13.8008   19.5237 N   0  0  0  0  0  0  0  0  0  0  0  0
   10.3418  -15.0685   19.9663 C   0  0  0  0  0  0  0  0  0  0  0  0
    9.9102  -15.4655   21.3526 C   0  0  0  0  0  0  0  0  0  0  0  0
   10.4398  -16.8399   21.6975 C   0  0  0  0  0  0  0  0  0  0  0  0
   10.0322  -17.2775   23.0657 C   0  0  2  0  0  0  0  0  0  0  0  0
    8.5986  -17.0853   23.2113 N   0  0  0  0  0  0  0  0  0  0  0  0
   10.7170  -16.5584   24.1481 C   0  0  0  0  0  0  0  0  0  0  0  0
   10.8501  -15.2890   24.0416 O   0  0  0  0  0  0  0  0  0  0  0  0
    8.8107  -11.6591   18.9901 C   0  0  0  0  0  0  0  0  0  0  0  0
    9.1665  -14.8675   28.9583 C   0  0  1  0  0  0  0  0  0  0  0  0
   10.4472  -15.1760   28.2716 C   0  0  0  0  0  0  0  0  0  0  0  0
   11.1520  -13.8316   27.9674 C   0  0  0  0  0  0  0  0  0  0  0  0
   10.4160  -15.9260   27.0113 C   0  0  2  0  0  0  0  0  0  0  0  0
   11.6771  -16.4765   26.4212 N   0  0  0  0  0  0  0  0  0  0  0  0
   11.2059  -17.2626   25.2621 C   0  0  0  0  0  0  0  0  0  0  0  0
   12.4648  -17.3885   27.2593 O   0  0  0  0  0  0  0  0  0  0  0  0
   13.4603  -17.0380   27.9164 O   0  0  0  0  0  0  0  0  0  0  0  0
  2  1  1  0
  3  2  2  0
  4  3  1  0
  5  4  2  0
  5 11  1  0
  6  5  1  0
  7  9  1  0
  7  8  1  1
  7  6  1  0
  9 10  2  0
 11 12  2  0
 12  2  1  0
 14 13  1  0
 15 14  2  0
 16 14  1  0
 17 16  1  0
 18 17  1  0
 19 18  1  0
 20 19  1  6
 20 22  1  0
 21  9  1  0
 21 20  1  0
 22 29  1  0
 22 23  2  0
 25 24  1  1
 26 25  1  0
 27 25  1  0
 28 27  1  6
 28 30  1  0
 29 28  1  0
 30 31  2  0
 30 32  1  0
M  END
$$$$
