QYE.pdb
     RDKit          3D

 31 31  0  0  1  0  0  0  0  0999 V2000
   12.2501  -16.4798   15.6463 N   0  0  0  0  0  0  0  0  0  0  0  0
   12.1703  -17.2841   16.8025 C   0  0  0  0  0  0  0  0  0  0  0  0
   13.2204  -17.8319   17.2254 O   0  0  0  0  0  0  0  0  0  0  0  0
   10.8882  -17.5076   17.5387 C   0  0  0  0  0  0  0  0  0  0  0  0
   10.8628  -16.7207   18.8119 C   0  0  0  0  0  0  0  0  0  0  0  0
    9.9113  -17.3179   19.8275 C   0  0  2  0  0  0  0  0  0  0  0  0
    8.5661  -17.4402   19.2920 N   0  0  0  0  0  0  0  0  0  0  0  0
    9.8294  -16.4532   21.0299 C   0  0  0  0  0  0  0  0  0  0  0  0
   10.8438  -16.1793   21.7474 O   0  0  0  0  0  0  0  0  0  0  0  0
    6.5458  -11.9395   27.8771 O   0  0  0  0  0  0  0  0  0  0  0  0
    6.7394  -12.4843   26.6023 C   0  0  0  0  0  0  0  0  0  0  0  0
    6.1986  -13.7176   26.3233 C   0  0  0  0  0  0  0  0  0  0  0  0
    6.3773  -14.2729   25.0739 C   0  0  0  0  0  0  0  0  0  0  0  0
    7.0981  -13.6099   24.0801 C   0  0  0  0  0  0  0  0  0  0  0  0
    7.2691  -14.2416   22.7548 C   0  0  0  0  0  0  0  0  0  0  0  0
    8.4757  -15.1211   22.6996 C   0  0  2  0  0  0  0  0  0  0  0  0
    8.6234  -15.8594   21.4844 N   0  0  0  0  0  0  0  0  0  0  0  0
    8.5936  -16.0443   23.8273 C   0  0  0  0  0  0  0  0  0  0  0  0
    7.8952  -17.1044   23.8641 O   0  0  0  0  0  0  0  0  0  0  0  0
    7.6278  -12.3817   24.3816 C   0  0  0  0  0  0  0  0  0  0  0  0
    7.4552  -11.8197   25.6235 C   0  0  0  0  0  0  0  0  0  0  0  0
    9.4645  -15.8461   24.9380 N   0  0  0  0  0  0  0  0  0  0  0  0
    9.6919  -16.8726   25.9006 C   0  0  1  0  0  0  0  0  0  0  0  0
   10.5513  -18.0079   25.5003 C   0  0  0  0  0  0  0  0  0  0  0  0
   11.9829  -17.7936   25.2544 C   0  0  0  0  0  0  0  0  0  0  0  0
   12.7234  -19.0187   24.8994 C   0  0  0  0  0  0  0  0  0  0  0  0
   12.4317  -19.7113   23.8690 O   0  0  0  0  0  0  0  0  0  0  0  0
   10.2567  -16.2382   27.1230 C   0  0  0  0  0  0  0  0  0  0  0  0
   10.4050  -16.9464   28.3033 O   0  0  0  0  0  0  0  0  0  0  0  0
   13.7771  -19.4768   25.6734 O   0  0  0  0  0  0  0  0  0  0  0  0
   10.6155  -15.0348   27.1126 O   0  0  0  0  0  0  0  0  0  0  0  0
  2  3  2  0
  2  1  1  0
  4  2  1  0
  5  4  1  0
  6  5  1  0
  6  7  1  6
  8  6  1  0
  9  8  2  0
 10 11  1  0
 11 12  2  0
 12 13  1  0
 14 15  1  0
 14 13  2  0
 16 15  1  6
 16 17  1  0
 17  8  1  0
 18 19  2  0
 18 16  1  0
 20 14  1  0
 21 20  2  0
 21 11  1  0
 22 18  1  0
 23 22  1  0
 23 24  1  6
 25 24  1  0
 26 25  1  0
 26 27  2  0
 28 23  1  0
 29 28  1  0
 30 26  1  0
 31 28  2  0
M  END
$$$$
