QYE.pdb
     RDKit          3D

 31 31  0  0  1  0  0  0  0  0999 V2000
    8.5432  -13.8277   15.0416 N   0  0  0  0  0  0  0  0  0  0  0  0
    8.1528  -15.0154   15.6949 C   0  0  0  0  0  0  0  0  0  0  0  0
    8.3903  -16.1149   15.1325 O   0  0  0  0  0  0  0  0  0  0  0  0
    7.4697  -15.0135   17.0250 C   0  0  0  0  0  0  0  0  0  0  0  0
    8.3261  -14.3546   18.0609 C   0  0  0  0  0  0  0  0  0  0  0  0
    8.8766  -15.3523   19.0584 C   0  0  2  0  0  0  0  0  0  0  0  0
    8.0320  -16.5305   19.1570 N   0  0  0  0  0  0  0  0  0  0  0  0
    8.9465  -14.7464   20.4105 C   0  0  0  0  0  0  0  0  0  0  0  0
    9.8705  -13.9422   20.7542 O   0  0  0  0  0  0  0  0  0  0  0  0
    7.1805  -12.1986   28.6570 O   0  0  0  0  0  0  0  0  0  0  0  0
    7.0837  -12.6233   27.3267 C   0  0  0  0  0  0  0  0  0  0  0  0
    6.6009  -13.8855   27.0710 C   0  0  0  0  0  0  0  0  0  0  0  0
    6.4973  -14.3240   25.7679 C   0  0  0  0  0  0  0  0  0  0  0  0
    6.8730  -13.5136   24.6960 C   0  0  0  0  0  0  0  0  0  0  0  0
    6.7491  -14.0231   23.3142 C   0  0  0  0  0  0  0  0  0  0  0  0
    8.0581  -14.4883   22.7640 C   0  0  2  0  0  0  0  0  0  0  0  0
    7.9979  -15.0070   21.4333 N   0  0  0  0  0  0  0  0  0  0  0  0
    8.7533  -15.4542   23.6136 C   0  0  0  0  0  0  0  0  0  0  0  0
    8.7749  -15.3008   24.8741 O   0  0  0  0  0  0  0  0  0  0  0  0
    7.3514  -12.2594   24.9757 C   0  0  0  0  0  0  0  0  0  0  0  0
    7.4583  -11.8129   26.2708 C   0  0  0  0  0  0  0  0  0  0  0  0
    9.4391  -16.6042   23.1250 N   0  0  0  0  0  0  0  0  0  0  0  0
   10.1082  -17.5041   24.0050 C   0  0  1  0  0  0  0  0  0  0  0  0
   10.3001  -18.8962   23.5439 C   0  0  0  0  0  0  0  0  0  0  0  0
   11.0876  -19.8353   24.3526 C   0  0  0  0  0  0  0  0  0  0  0  0
   11.2285  -21.1756   23.7534 C   0  0  0  0  0  0  0  0  0  0  0  0
   10.2591  -21.7591   23.1647 O   0  0  0  0  0  0  0  0  0  0  0  0
   11.4319  -16.9140   24.3448 C   0  0  0  0  0  0  0  0  0  0  0  0
   12.0029  -17.0884   25.5939 O   0  0  0  0  0  0  0  0  0  0  0  0
   12.4278  -21.8671   23.8020 O   0  0  0  0  0  0  0  0  0  0  0  0
   12.0680  -16.2381   23.4988 O   0  0  0  0  0  0  0  0  0  0  0  0
  2  3  2  0
  2  1  1  0
  4  2  1  0
  5  4  1  0
  6  5  1  0
  6  7  1  1
  8  6  1  0
  9  8  2  0
 10 11  1  0
 11 12  2  0
 12 13  1  0
 14 15  1  0
 14 13  2  0
 16 15  1  1
 16 17  1  0
 17  8  1  0
 18 19  2  0
 18 16  1  0
 20 14  1  0
 21 20  2  0
 21 11  1  0
 22 18  1  0
 23 22  1  0
 23 24  1  6
 25 24  1  0
 26 25  1  0
 26 27  2  0
 28 23  1  0
 29 28  1  0
 30 26  1  0
 31 28  2  0
M  END
$$$$
