QYE.pdb
     RDKit          3D

 31 31  0  0  1  0  0  0  0  0999 V2000
    7.3947  -13.4664   15.9190 N   0  0  0  0  0  0  0  0  0  0  0  0
    8.6638  -14.0677   15.7862 C   0  0  0  0  0  0  0  0  0  0  0  0
    9.1560  -14.1810   14.6344 O   0  0  0  0  0  0  0  0  0  0  0  0
    9.4402  -14.5730   16.9599 C   0  0  0  0  0  0  0  0  0  0  0  0
    8.6378  -14.4550   18.2181 C   0  0  0  0  0  0  0  0  0  0  0  0
    8.8394  -15.6458   19.1318 C   0  0  2  0  0  0  0  0  0  0  0  0
    7.6925  -16.5376   19.1078 N   0  0  0  0  0  0  0  0  0  0  0  0
    9.0185  -15.1968   20.5341 C   0  0  0  0  0  0  0  0  0  0  0  0
   10.1476  -14.8424   21.0013 O   0  0  0  0  0  0  0  0  0  0  0  0
    7.3778  -12.7502   28.8632 O   0  0  0  0  0  0  0  0  0  0  0  0
    7.2673  -13.0194   27.4940 C   0  0  0  0  0  0  0  0  0  0  0  0
    6.7025  -14.2098   27.0997 C   0  0  0  0  0  0  0  0  0  0  0  0
    6.5839  -14.4953   25.7559 C   0  0  0  0  0  0  0  0  0  0  0  0
    7.0260  -13.6006   24.7808 C   0  0  0  0  0  0  0  0  0  0  0  0
    6.8832  -13.9465   23.3510 C   0  0  0  0  0  0  0  0  0  0  0  0
    8.0799  -14.6679   22.8219 C   0  0  2  0  0  0  0  0  0  0  0  0
    7.9565  -15.1231   21.4725 N   0  0  0  0  0  0  0  0  0  0  0  0
    8.5205  -15.7851   23.6561 C   0  0  0  0  0  0  0  0  0  0  0  0
    8.0141  -16.9395   23.5017 O   0  0  0  0  0  0  0  0  0  0  0  0
    7.5855  -12.4204   25.1981 C   0  0  0  0  0  0  0  0  0  0  0  0
    7.7081  -12.1264   26.5347 C   0  0  0  0  0  0  0  0  0  0  0  0
    9.5141  -15.6835   24.6728 N   0  0  0  0  0  0  0  0  0  0  0  0
   10.1170  -16.8412   25.2456 C   0  0  1  0  0  0  0  0  0  0  0  0
   11.3891  -17.3128   24.6565 C   0  0  0  0  0  0  0  0  0  0  0  0
   12.0899  -18.4606   25.2459 C   0  0  0  0  0  0  0  0  0  0  0  0
   13.3355  -18.8295   24.5476 C   0  0  0  0  0  0  0  0  0  0  0  0
   13.3647  -19.0649   23.2944 O   0  0  0  0  0  0  0  0  0  0  0  0
   10.3160  -16.5838   26.6982 C   0  0  0  0  0  0  0  0  0  0  0  0
   10.4884  -17.6200   27.5999 O   0  0  0  0  0  0  0  0  0  0  0  0
   14.5393  -18.9380   25.2245 O   0  0  0  0  0  0  0  0  0  0  0  0
   10.3324  -15.4099   27.1442 O   0  0  0  0  0  0  0  0  0  0  0  0
  2  3  2  0
  2  1  1  0
  4  2  1  0
  5  4  1  0
  6  5  1  0
  6  7  1  1
  8  6  1  0
  9  8  2  0
 10 11  1  0
 11 12  2  0
 12 13  1  0
 14 15  1  0
 14 13  2  0
 16 15  1  1
 16 17  1  0
 17  8  1  0
 18 19  2  0
 18 16  1  0
 20 14  1  0
 21 20  2  0
 21 11  1  0
 22 18  1  0
 23 22  1  0
 23 24  1  6
 25 24  1  0
 26 25  1  0
 26 27  2  0
 28 23  1  0
 29 28  1  0
 30 26  1  0
 31 28  2  0
M  END
$$$$
