QYE.pdb
     RDKit          3D

 31 31  0  0  1  0  0  0  0  0999 V2000
    9.6522  -14.6720   15.2077 N   0  0  0  0  0  0  0  0  0  0  0  0
    8.4034  -15.3226   15.2922 C   0  0  0  0  0  0  0  0  0  0  0  0
    7.8894  -15.7730   14.2364 O   0  0  0  0  0  0  0  0  0  0  0  0
    7.6730  -15.4944   16.5855 C   0  0  0  0  0  0  0  0  0  0  0  0
    8.5124  -15.0314   17.7352 C   0  0  0  0  0  0  0  0  0  0  0  0
    8.6338  -16.0912   18.8103 C   0  0  2  0  0  0  0  0  0  0  0  0
    7.4468  -16.9268   18.8730 N   0  0  0  0  0  0  0  0  0  0  0  0
    8.7983  -15.4596   20.1423 C   0  0  0  0  0  0  0  0  0  0  0  0
    9.8444  -14.8138   20.4700 O   0  0  0  0  0  0  0  0  0  0  0  0
    7.5764  -12.5217   28.3524 O   0  0  0  0  0  0  0  0  0  0  0  0
    7.3700  -12.9962   27.0518 C   0  0  0  0  0  0  0  0  0  0  0  0
    6.8984  -14.2772   26.8844 C   0  0  0  0  0  0  0  0  0  0  0  0
    6.6880  -14.7648   25.6119 C   0  0  0  0  0  0  0  0  0  0  0  0
    6.9438  -13.9853   24.4833 C   0  0  0  0  0  0  0  0  0  0  0  0
    6.7078  -14.5471   23.1367 C   0  0  0  0  0  0  0  0  0  0  0  0
    7.9711  -15.0145   22.4901 C   0  0  2  0  0  0  0  0  0  0  0  0
    7.8130  -15.5185   21.1618 N   0  0  0  0  0  0  0  0  0  0  0  0
    8.7182  -15.9938   23.2782 C   0  0  0  0  0  0  0  0  0  0  0  0
    8.5385  -17.2373   23.0933 O   0  0  0  0  0  0  0  0  0  0  0  0
    7.4133  -12.7115   24.6751 C   0  0  0  0  0  0  0  0  0  0  0  0
    7.6261  -12.2162   25.9391 C   0  0  0  0  0  0  0  0  0  0  0  0
    9.6731  -15.6556   24.2808 N   0  0  0  0  0  0  0  0  0  0  0  0
   10.5996  -16.6154   24.7830 C   0  0  1  0  0  0  0  0  0  0  0  0
   12.0246  -16.4429   24.4262 C   0  0  0  0  0  0  0  0  0  0  0  0
   12.5631  -17.0887   23.2225 C   0  0  0  0  0  0  0  0  0  0  0  0
   13.9698  -16.7508   22.9354 C   0  0  0  0  0  0  0  0  0  0  0  0
   14.5158  -17.0215   21.8149 O   0  0  0  0  0  0  0  0  0  0  0  0
   10.4668  -16.6493   26.2653 C   0  0  0  0  0  0  0  0  0  0  0  0
    9.6869  -15.7281   26.9433 O   0  0  0  0  0  0  0  0  0  0  0  0
   14.7683  -16.1195   23.8750 O   0  0  0  0  0  0  0  0  0  0  0  0
   11.0644  -17.5223   26.9420 O   0  0  0  0  0  0  0  0  0  0  0  0
  2  3  2  0
  2  1  1  0
  4  2  1  0
  5  4  1  0
  6  5  1  0
  6  7  1  1
  8  6  1  0
  9  8  2  0
 10 11  1  0
 11 12  2  0
 12 13  1  0
 14 15  1  0
 14 13  2  0
 16 15  1  1
 16 17  1  0
 17  8  1  0
 18 19  2  0
 18 16  1  0
 20 14  1  0
 21 20  2  0
 21 11  1  0
 22 18  1  0
 23 22  1  0
 23 24  1  1
 25 24  1  0
 26 25  1  0
 26 27  2  0
 28 23  1  0
 29 28  1  0
 30 26  1  0
 31 28  2  0
M  END
$$$$
