QYE.pdb
     RDKit          3D

 31 31  0  0  1  0  0  0  0  0999 V2000
    8.8865  -13.7360   15.3272 N   0  0  0  0  0  0  0  0  0  0  0  0
    7.9613  -14.5853   15.9695 C   0  0  0  0  0  0  0  0  0  0  0  0
    6.7362  -14.4225   15.7367 O   0  0  0  0  0  0  0  0  0  0  0  0
    8.3833  -15.6661   16.9127 C   0  0  0  0  0  0  0  0  0  0  0  0
    9.0339  -15.0851   18.1293 C   0  0  0  0  0  0  0  0  0  0  0  0
    9.2743  -16.1319   19.1970 C   0  0  2  0  0  0  0  0  0  0  0  0
    8.2326  -17.1448   19.1961 N   0  0  0  0  0  0  0  0  0  0  0  0
    9.2788  -15.5065   20.5421 C   0  0  0  0  0  0  0  0  0  0  0  0
   10.2566  -14.8162   20.9736 O   0  0  0  0  0  0  0  0  0  0  0  0
    6.8615  -12.4682   28.4561 O   0  0  0  0  0  0  0  0  0  0  0  0
    6.8522  -12.9744   27.1510 C   0  0  0  0  0  0  0  0  0  0  0  0
    7.3049  -12.1724   26.1296 C   0  0  0  0  0  0  0  0  0  0  0  0
    7.3045  -12.6510   24.8365 C   0  0  0  0  0  0  0  0  0  0  0  0
    6.8529  -13.9369   24.5374 C   0  0  0  0  0  0  0  0  0  0  0  0
    6.8661  -14.4104   23.1374 C   0  0  0  0  0  0  0  0  0  0  0  0
    8.1693  -15.0398   22.7660 C   0  0  2  0  0  0  0  0  0  0  0  0
    8.2030  -15.6209   21.4604 N   0  0  0  0  0  0  0  0  0  0  0  0
    8.6527  -16.0256   23.7316 C   0  0  0  0  0  0  0  0  0  0  0  0
    8.0517  -17.1357   23.8703 O   0  0  0  0  0  0  0  0  0  0  0  0
    6.4063  -14.7179   25.5722 C   0  0  0  0  0  0  0  0  0  0  0  0
    6.4029  -14.2502   26.8642 C   0  0  0  0  0  0  0  0  0  0  0  0
    9.7918  -15.8375   24.5674 N   0  0  0  0  0  0  0  0  0  0  0  0
   10.2965  -16.8877   25.3886 C   0  0  1  0  0  0  0  0  0  0  0  0
   11.6993  -17.3069   25.1782 C   0  0  0  0  0  0  0  0  0  0  0  0
   12.1791  -17.6113   23.8242 C   0  0  0  0  0  0  0  0  0  0  0  0
   13.6314  -17.4277   23.6441 C   0  0  0  0  0  0  0  0  0  0  0  0
   14.4772  -17.8330   24.5083 O   0  0  0  0  0  0  0  0  0  0  0  0
   10.1134  -16.4867   26.8104 C   0  0  0  0  0  0  0  0  0  0  0  0
    9.6121  -15.2424   27.1525 O   0  0  0  0  0  0  0  0  0  0  0  0
   14.1475  -16.8029   22.5206 O   0  0  0  0  0  0  0  0  0  0  0  0
   10.4120  -17.2746   27.7416 O   0  0  0  0  0  0  0  0  0  0  0  0
  2  3  2  0
  2  1  1  0
  4  2  1  0
  5  4  1  0
  6  5  1  0
  6  7  1  1
  8  6  1  0
  9  8  2  0
 10 11  1  0
 11 12  2  0
 12 13  1  0
 14 15  1  0
 14 13  2  0
 16 15  1  1
 16 17  1  0
 17  8  1  0
 18 19  2  0
 18 16  1  0
 20 14  1  0
 21 20  2  0
 21 11  1  0
 22 18  1  0
 23 22  1  0
 23 24  1  6
 25 24  1  0
 26 25  1  0
 26 27  2  0
 28 23  1  0
 29 28  1  0
 30 26  1  0
 31 28  2  0
M  END
$$$$
