QYE.pdb
     RDKit          3D

 31 31  0  0  1  0  0  0  0  0999 V2000
    7.2244  -20.6424   20.3948 N   0  0  0  0  0  0  0  0  0  0  0  0
    7.3741  -20.3825   19.0164 C   0  0  0  0  0  0  0  0  0  0  0  0
    6.7268  -21.0867   18.1997 O   0  0  0  0  0  0  0  0  0  0  0  0
    8.2707  -19.3057   18.4946 C   0  0  0  0  0  0  0  0  0  0  0  0
    8.8302  -18.4897   19.6180 C   0  0  0  0  0  0  0  0  0  0  0  0
    8.8427  -17.0109   19.2918 C   0  0  2  0  0  0  0  0  0  0  0  0
    9.9171  -16.6757   18.3728 N   0  0  0  0  0  0  0  0  0  0  0  0
    9.0519  -16.2117   20.5238 C   0  0  0  0  0  0  0  0  0  0  0  0
   10.2087  -15.9655   20.9927 O   0  0  0  0  0  0  0  0  0  0  0  0
    7.4560  -12.3422   28.3091 O   0  0  0  0  0  0  0  0  0  0  0  0
    7.3454  -12.7843   26.9855 C   0  0  0  0  0  0  0  0  0  0  0  0
    6.6120  -13.9191   26.7286 C   0  0  0  0  0  0  0  0  0  0  0  0
    6.4901  -14.3723   25.4321 C   0  0  0  0  0  0  0  0  0  0  0  0
    7.0967  -13.7037   24.3682 C   0  0  0  0  0  0  0  0  0  0  0  0
    6.9440  -14.2246   22.9935 C   0  0  0  0  0  0  0  0  0  0  0  0
    8.1346  -15.0121   22.5522 C   0  0  2  0  0  0  0  0  0  0  0  0
    7.9905  -15.6551   21.2836 N   0  0  0  0  0  0  0  0  0  0  0  0
    8.5935  -15.9984   23.5292 C   0  0  0  0  0  0  0  0  0  0  0  0
    7.9589  -17.0869   23.6883 O   0  0  0  0  0  0  0  0  0  0  0  0
    7.8226  -12.5748   24.6489 C   0  0  0  0  0  0  0  0  0  0  0  0
    7.9499  -12.1149   25.9375 C   0  0  0  0  0  0  0  0  0  0  0  0
    9.7438  -15.8341   24.3547 N   0  0  0  0  0  0  0  0  0  0  0  0
   10.2614  -16.9082   25.1359 C   0  0  1  0  0  0  0  0  0  0  0  0
   11.7271  -17.1061   25.1412 C   0  0  0  0  0  0  0  0  0  0  0  0
   12.3313  -18.0925   26.0457 C   0  0  0  0  0  0  0  0  0  0  0  0
   13.7969  -18.2038   25.9237 C   0  0  0  0  0  0  0  0  0  0  0  0
   14.4100  -17.9154   24.8432 O   0  0  0  0  0  0  0  0  0  0  0  0
    9.7866  -16.7280   26.5352 C   0  0  0  0  0  0  0  0  0  0  0  0
    9.8775  -17.7477   27.4672 O   0  0  0  0  0  0  0  0  0  0  0  0
   14.5806  -18.6291   26.9838 O   0  0  0  0  0  0  0  0  0  0  0  0
    9.2880  -15.6369   26.9068 O   0  0  0  0  0  0  0  0  0  0  0  0
  2  3  2  0
  2  1  1  0
  4  2  1  0
  5  4  1  0
  6  5  1  0
  6  7  1  6
  8  6  1  0
  9  8  2  0
 10 11  1  0
 11 12  2  0
 12 13  1  0
 14 15  1  0
 14 13  2  0
 16 15  1  1
 16 17  1  0
 17  8  1  0
 18 19  2  0
 18 16  1  0
 20 14  1  0
 21 20  2  0
 21 11  1  0
 22 18  1  0
 23 22  1  0
 23 24  1  1
 25 24  1  0
 26 25  1  0
 26 27  2  0
 28 23  1  0
 29 28  1  0
 30 26  1  0
 31 28  2  0
M  END
$$$$
