QYE.pdb
     RDKit          3D

 31 31  0  0  1  0  0  0  0  0999 V2000
    7.6315  -12.7146   16.5045 N   0  0  0  0  0  0  0  0  0  0  0  0
    7.6939  -13.9307   15.7922 C   0  0  0  0  0  0  0  0  0  0  0  0
    7.0742  -14.0190   14.7013 O   0  0  0  0  0  0  0  0  0  0  0  0
    8.4660  -15.1121   16.2857 C   0  0  0  0  0  0  0  0  0  0  0  0
    9.0938  -14.8196   17.6128 C   0  0  0  0  0  0  0  0  0  0  0  0
    8.8751  -15.9446   18.6028 C   0  0  2  0  0  0  0  0  0  0  0  0
    7.5276  -16.4806   18.5130 N   0  0  0  0  0  0  0  0  0  0  0  0
    9.0628  -15.4556   19.9905 C   0  0  0  0  0  0  0  0  0  0  0  0
   10.1960  -15.0950   20.4427 O   0  0  0  0  0  0  0  0  0  0  0  0
    7.6177  -12.6866   28.2415 O   0  0  0  0  0  0  0  0  0  0  0  0
    7.4266  -13.1251   26.9259 C   0  0  0  0  0  0  0  0  0  0  0  0
    7.7018  -12.2571   25.8951 C   0  0  0  0  0  0  0  0  0  0  0  0
    7.5206  -12.6683   24.5916 C   0  0  0  0  0  0  0  0  0  0  0  0
    7.0615  -13.9513   24.2912 C   0  0  0  0  0  0  0  0  0  0  0  0
    6.8776  -14.3515   22.8804 C   0  0  0  0  0  0  0  0  0  0  0  0
    8.1399  -14.8683   22.2705 C   0  0  2  0  0  0  0  0  0  0  0  0
    8.0051  -15.3472   20.9304 N   0  0  0  0  0  0  0  0  0  0  0  0
    8.8136  -15.8911   23.0693 C   0  0  0  0  0  0  0  0  0  0  0  0
    8.4812  -17.1120   22.9604 O   0  0  0  0  0  0  0  0  0  0  0  0
    6.7939  -14.7987   25.3354 C   0  0  0  0  0  0  0  0  0  0  0  0
    6.9715  -14.3986   26.6378 C   0  0  0  0  0  0  0  0  0  0  0  0
    9.8581  -15.6217   24.0009 N   0  0  0  0  0  0  0  0  0  0  0  0
   10.6891  -16.6612   24.5116 C   0  0  1  0  0  0  0  0  0  0  0  0
   12.1318  -16.6040   24.1904 C   0  0  0  0  0  0  0  0  0  0  0  0
   13.0520  -17.5916   24.7680 C   0  0  0  0  0  0  0  0  0  0  0  0
   14.4592  -17.4126   24.3643 C   0  0  0  0  0  0  0  0  0  0  0  0
   15.2323  -16.5862   24.9526 O   0  0  0  0  0  0  0  0  0  0  0  0
   10.5179  -16.7010   25.9897 C   0  0  0  0  0  0  0  0  0  0  0  0
   10.9904  -17.7609   26.7447 O   0  0  0  0  0  0  0  0  0  0  0  0
   15.0103  -18.1385   23.3210 O   0  0  0  0  0  0  0  0  0  0  0  0
    9.9356  -15.7657   26.5924 O   0  0  0  0  0  0  0  0  0  0  0  0
  2  3  2  0
  2  1  1  0
  4  2  1  0
  5  4  1  0
  6  5  1  0
  6  7  1  1
  8  6  1  0
  9  8  2  0
 10 11  1  0
 11 12  2  0
 12 13  1  0
 14 15  1  0
 14 13  2  0
 16 15  1  1
 16 17  1  0
 17  8  1  0
 18 19  2  0
 18 16  1  0
 20 14  1  0
 21 20  2  0
 21 11  1  0
 22 18  1  0
 23 22  1  0
 23 24  1  1
 25 24  1  0
 26 25  1  0
 26 27  2  0
 28 23  1  0
 29 28  1  0
 30 26  1  0
 31 28  2  0
M  END
$$$$
