QYE.pdb
     RDKit          3D

 31 31  0  0  1  0  0  0  0  0999 V2000
    7.8679  -13.3291   15.2959 N   0  0  0  0  0  0  0  0  0  0  0  0
    7.3182  -14.0587   16.3708 C   0  0  0  0  0  0  0  0  0  0  0  0
    6.8394  -15.1984   16.1392 O   0  0  0  0  0  0  0  0  0  0  0  0
    7.2842  -13.5277   17.7681 C   0  0  0  0  0  0  0  0  0  0  0  0
    8.5813  -13.7902   18.4677 C   0  0  0  0  0  0  0  0  0  0  0  0
    8.5330  -15.0596   19.2922 C   0  0  2  0  0  0  0  0  0  0  0  0
    7.2038  -15.6465   19.2917 N   0  0  0  0  0  0  0  0  0  0  0  0
    8.8870  -14.7728   20.7038 C   0  0  0  0  0  0  0  0  0  0  0  0
   10.0523  -14.4039   21.0567 O   0  0  0  0  0  0  0  0  0  0  0  0
    8.6994  -13.3377   29.3800 O   0  0  0  0  0  0  0  0  0  0  0  0
    8.3106  -13.5941   28.0599 C   0  0  0  0  0  0  0  0  0  0  0  0
    8.3372  -12.5611   27.1523 C   0  0  0  0  0  0  0  0  0  0  0  0
    7.9582  -12.7916   25.8468 C   0  0  0  0  0  0  0  0  0  0  0  0
    7.5456  -14.0550   25.4218 C   0  0  0  0  0  0  0  0  0  0  0  0
    7.1443  -14.2590   24.0140 C   0  0  0  0  0  0  0  0  0  0  0  0
    8.2868  -14.7025   23.1594 C   0  0  2  0  0  0  0  0  0  0  0  0
    7.9663  -14.8834   21.7781 N   0  0  0  0  0  0  0  0  0  0  0  0
    8.9648  -15.9033   23.6454 C   0  0  0  0  0  0  0  0  0  0  0  0
    8.5151  -17.0553   23.3561 O   0  0  0  0  0  0  0  0  0  0  0  0
    7.5273  -15.0690   26.3445 C   0  0  0  0  0  0  0  0  0  0  0  0
    7.9033  -14.8496   27.6478 C   0  0  0  0  0  0  0  0  0  0  0  0
   10.1398  -15.8897   24.4521 N   0  0  0  0  0  0  0  0  0  0  0  0
   10.8640  -17.0841   24.7361 C   0  0  1  0  0  0  0  0  0  0  0  0
   12.2048  -17.2320   24.1294 C   0  0  0  0  0  0  0  0  0  0  0  0
   13.0147  -18.4218   24.4199 C   0  0  0  0  0  0  0  0  0  0  0  0
   14.2685  -18.5007   23.6473 C   0  0  0  0  0  0  0  0  0  0  0  0
   15.3507  -18.9435   24.1567 O   0  0  0  0  0  0  0  0  0  0  0  0
   10.9792  -17.2102   26.2148 C   0  0  0  0  0  0  0  0  0  0  0  0
   11.4773  -18.3583   26.8067 O   0  0  0  0  0  0  0  0  0  0  0  0
   14.3294  -18.0954   22.3241 O   0  0  0  0  0  0  0  0  0  0  0  0
   10.6242  -16.2695   26.9674 O   0  0  0  0  0  0  0  0  0  0  0  0
  2  3  2  0
  2  1  1  0
  4  2  1  0
  5  4  1  0
  6  5  1  0
  6  7  1  1
  8  6  1  0
  9  8  2  0
 10 11  1  0
 11 12  2  0
 12 13  1  0
 14 15  1  0
 14 13  2  0
 16 15  1  1
 16 17  1  0
 17  8  1  0
 18 19  2  0
 18 16  1  0
 20 14  1  0
 21 20  2  0
 21 11  1  0
 22 18  1  0
 23 22  1  0
 23 24  1  6
 25 24  1  0
 26 25  1  0
 26 27  2  0
 28 23  1  0
 29 28  1  0
 30 26  1  0
 31 28  2  0
M  END
$$$$
