QYE.pdb
     RDKit          3D

 31 31  0  0  1  0  0  0  0  0999 V2000
    6.1430  -19.0877   20.5264 N   0  0  0  0  0  0  0  0  0  0  0  0
    6.1222  -18.5618   19.2176 C   0  0  0  0  0  0  0  0  0  0  0  0
    5.2409  -18.9732   18.4201 O   0  0  0  0  0  0  0  0  0  0  0  0
    7.1056  -17.5385   18.7472 C   0  0  0  0  0  0  0  0  0  0  0  0
    8.0115  -17.1201   19.8631 C   0  0  0  0  0  0  0  0  0  0  0  0
    7.7457  -15.6959   20.3042 C   0  0  2  0  0  0  0  0  0  0  0  0
    8.1420  -14.7385   19.2856 N   0  0  0  0  0  0  0  0  0  0  0  0
    8.5206  -15.3812   21.5293 C   0  0  0  0  0  0  0  0  0  0  0  0
    9.7863  -15.2523   21.5254 O   0  0  0  0  0  0  0  0  0  0  0  0
   10.6965  -14.6216   30.0483 O   0  0  0  0  0  0  0  0  0  0  0  0
    9.9891  -14.5713   28.8414 C   0  0  0  0  0  0  0  0  0  0  0  0
    9.4248  -15.7291   28.3591 C   0  0  0  0  0  0  0  0  0  0  0  0
    8.7237  -15.7022   27.1721 C   0  0  0  0  0  0  0  0  0  0  0  0
    8.5724  -14.5216   26.4439 C   0  0  0  0  0  0  0  0  0  0  0  0
    7.8159  -14.5365   25.1742 C   0  0  0  0  0  0  0  0  0  0  0  0
    8.6407  -15.0315   24.0309 C   0  0  2  0  0  0  0  0  0  0  0  0
    7.9254  -15.1975   22.8044 N   0  0  0  0  0  0  0  0  0  0  0  0
    9.3777  -16.2619   24.3152 C   0  0  0  0  0  0  0  0  0  0  0  0
    8.8042  -17.3907   24.2150 O   0  0  0  0  0  0  0  0  0  0  0  0
    9.1437  -13.3802   26.9446 C   0  0  0  0  0  0  0  0  0  0  0  0
    9.8441  -13.3965   28.1266 C   0  0  0  0  0  0  0  0  0  0  0  0
   10.7458  -16.3034   24.7128 N   0  0  0  0  0  0  0  0  0  0  0  0
   11.4844  -17.5226   24.7195 C   0  0  1  0  0  0  0  0  0  0  0  0
   12.6997  -17.5909   23.8793 C   0  0  0  0  0  0  0  0  0  0  0  0
   13.6032  -18.7432   23.9879 C   0  0  0  0  0  0  0  0  0  0  0  0
   14.5436  -18.8801   22.8600 C   0  0  0  0  0  0  0  0  0  0  0  0
   15.0357  -17.8666   22.2622 O   0  0  0  0  0  0  0  0  0  0  0  0
   11.8462  -17.8320   26.1299 C   0  0  0  0  0  0  0  0  0  0  0  0
   11.5737  -16.9459   27.1580 O   0  0  0  0  0  0  0  0  0  0  0  0
   14.9390  -20.1236   22.3948 O   0  0  0  0  0  0  0  0  0  0  0  0
   12.4121  -18.9141   26.4232 O   0  0  0  0  0  0  0  0  0  0  0  0
  2  3  2  0
  2  1  1  0
  4  2  1  0
  5  4  1  0
  6  5  1  0
  6  7  1  6
  8  6  1  0
  9  8  2  0
 10 11  1  0
 11 12  2  0
 12 13  1  0
 14 15  1  0
 14 13  2  0
 16 15  1  1
 16 17  1  0
 17  8  1  0
 18 19  2  0
 18 16  1  0
 20 14  1  0
 21 20  2  0
 21 11  1  0
 22 18  1  0
 23 22  1  0
 23 24  1  6
 25 24  1  0
 26 25  1  0
 26 27  2  0
 28 23  1  0
 29 28  1  0
 30 26  1  0
 31 28  2  0
M  END
$$$$
