QYE.pdb
     RDKit          3D

 31 31  0  0  1  0  0  0  0  0999 V2000
    8.8436  -12.5284   16.3943 N   0  0  0  0  0  0  0  0  0  0  0  0
    8.3527  -13.7659   15.9280 C   0  0  0  0  0  0  0  0  0  0  0  0
    8.0478  -13.8703   14.7124 O   0  0  0  0  0  0  0  0  0  0  0  0
    8.1825  -14.9514   16.8231 C   0  0  0  0  0  0  0  0  0  0  0  0
    8.5637  -14.6133   18.2307 C   0  0  0  0  0  0  0  0  0  0  0  0
    8.4586  -15.8127   19.1493 C   0  0  2  0  0  0  0  0  0  0  0  0
    7.1250  -16.3893   19.1245 N   0  0  0  0  0  0  0  0  0  0  0  0
    8.7408  -15.4168   20.5506 C   0  0  0  0  0  0  0  0  0  0  0  0
    9.8875  -15.0196   20.9328 O   0  0  0  0  0  0  0  0  0  0  0  0
    7.6656  -12.6533   28.8471 O   0  0  0  0  0  0  0  0  0  0  0  0
    7.4565  -13.0096   27.5096 C   0  0  0  0  0  0  0  0  0  0  0  0
    7.0197  -14.2828   27.2271 C   0  0  0  0  0  0  0  0  0  0  0  0
    6.8075  -14.6549   25.9165 C   0  0  0  0  0  0  0  0  0  0  0  0
    7.0267  -13.7657   24.8637 C   0  0  0  0  0  0  0  0  0  0  0  0
    6.7901  -14.2055   23.4726 C   0  0  0  0  0  0  0  0  0  0  0  0
    7.9569  -14.9494   22.9090 C   0  0  2  0  0  0  0  0  0  0  0  0
    7.7664  -15.4453   21.5819 N   0  0  0  0  0  0  0  0  0  0  0  0
    8.4331  -16.0426   23.7551 C   0  0  0  0  0  0  0  0  0  0  0  0
    7.8719  -17.1810   23.7084 O   0  0  0  0  0  0  0  0  0  0  0  0
    7.4620  -12.5021   25.1700 C   0  0  0  0  0  0  0  0  0  0  0  0
    7.6763  -12.1215   26.4728 C   0  0  0  0  0  0  0  0  0  0  0  0
    9.5219  -15.9339   24.6684 N   0  0  0  0  0  0  0  0  0  0  0  0
   10.1729  -17.0878   25.1944 C   0  0  1  0  0  0  0  0  0  0  0  0
   11.5142  -17.4175   24.6655 C   0  0  0  0  0  0  0  0  0  0  0  0
   12.2570  -18.5612   25.2097 C   0  0  0  0  0  0  0  0  0  0  0  0
   13.5788  -18.7714   24.5901 C   0  0  0  0  0  0  0  0  0  0  0  0
   13.9353  -19.9037   24.1236 O   0  0  0  0  0  0  0  0  0  0  0  0
   10.2536  -16.9349   26.6729 C   0  0  0  0  0  0  0  0  0  0  0  0
   10.5143  -18.0149   27.4990 O   0  0  0  0  0  0  0  0  0  0  0  0
   14.5001  -17.7423   24.4849 O   0  0  0  0  0  0  0  0  0  0  0  0
   10.0858  -15.8126   27.2108 O   0  0  0  0  0  0  0  0  0  0  0  0
  2  3  2  0
  2  1  1  0
  4  2  1  0
  5  4  1  0
  6  5  1  0
  6  7  1  1
  8  6  1  0
  9  8  2  0
 10 11  1  0
 11 12  2  0
 12 13  1  0
 14 15  1  0
 14 13  2  0
 16 15  1  1
 16 17  1  0
 17  8  1  0
 18 19  2  0
 18 16  1  0
 20 14  1  0
 21 20  2  0
 21 11  1  0
 22 18  1  0
 23 22  1  0
 23 24  1  6
 25 24  1  0
 26 25  1  0
 26 27  2  0
 28 23  1  0
 29 28  1  0
 30 26  1  0
 31 28  2  0
M  END
$$$$
