QYE.pdb
     RDKit          3D

 31 31  0  0  1  0  0  0  0  0999 V2000
    7.9635  -12.1626   18.3597 N   0  0  0  0  0  0  0  0  0  0  0  0
    7.5972  -13.5027   18.1147 C   0  0  0  0  0  0  0  0  0  0  0  0
    7.3927  -13.8607   16.9265 O   0  0  0  0  0  0  0  0  0  0  0  0
    7.4438  -14.5070   19.2117 C   0  0  0  0  0  0  0  0  0  0  0  0
    8.5959  -15.4627   19.2218 C   0  0  0  0  0  0  0  0  0  0  0  0
    8.4507  -16.5131   20.3031 C   0  0  2  0  0  0  0  0  0  0  0  0
    7.0556  -16.8336   20.5524 N   0  0  0  0  0  0  0  0  0  0  0  0
    9.0247  -16.0231   21.5800 C   0  0  0  0  0  0  0  0  0  0  0  0
   10.2213  -15.6017   21.6765 O   0  0  0  0  0  0  0  0  0  0  0  0
   10.0836  -13.8778   30.0898 O   0  0  0  0  0  0  0  0  0  0  0  0
    9.5246  -14.2131   28.8510 C   0  0  0  0  0  0  0  0  0  0  0  0
    9.1975  -13.2006   27.9796 C   0  0  0  0  0  0  0  0  0  0  0  0
    8.6457  -13.5085   26.7540 C   0  0  0  0  0  0  0  0  0  0  0  0
    8.4095  -14.8302   26.3745 C   0  0  0  0  0  0  0  0  0  0  0  0
    7.8133  -15.1171   25.0529 C   0  0  0  0  0  0  0  0  0  0  0  0
    8.8314  -15.5803   24.0622 C   0  0  2  0  0  0  0  0  0  0  0  0
    8.2977  -15.9808   22.7980 N   0  0  0  0  0  0  0  0  0  0  0  0
    9.7085  -16.6396   24.5587 C   0  0  0  0  0  0  0  0  0  0  0  0
    9.2483  -17.8025   24.7794 O   0  0  0  0  0  0  0  0  0  0  0  0
    8.7438  -15.8224   27.2599 C   0  0  0  0  0  0  0  0  0  0  0  0
    9.2944  -15.5260   28.4834 C   0  0  0  0  0  0  0  0  0  0  0  0
   11.0979  -16.4697   24.8279 N   0  0  0  0  0  0  0  0  0  0  0  0
   11.9785  -17.5852   24.9381 C   0  0  1  0  0  0  0  0  0  0  0  0
   13.2477  -17.5324   24.1805 C   0  0  0  0  0  0  0  0  0  0  0  0
   14.1166  -16.3534   24.2852 C   0  0  0  0  0  0  0  0  0  0  0  0
   15.2874  -16.3860   23.3890 C   0  0  0  0  0  0  0  0  0  0  0  0
   16.3328  -17.0624   23.6655 O   0  0  0  0  0  0  0  0  0  0  0  0
   12.2782  -17.7921   26.3814 C   0  0  0  0  0  0  0  0  0  0  0  0
   11.8189  -16.9149   27.3490 O   0  0  0  0  0  0  0  0  0  0  0  0
   15.3063  -15.6795   22.1976 O   0  0  0  0  0  0  0  0  0  0  0  0
   12.9608  -18.7763   26.7591 O   0  0  0  0  0  0  0  0  0  0  0  0
  2  3  2  0
  2  1  1  0
  4  2  1  0
  5  4  1  0
  6  5  1  0
  6  7  1  1
  8  6  1  0
  9  8  2  0
 10 11  1  0
 11 12  2  0
 12 13  1  0
 14 15  1  0
 14 13  2  0
 16 15  1  1
 16 17  1  0
 17  8  1  0
 18 19  2  0
 18 16  1  0
 20 14  1  0
 21 20  2  0
 21 11  1  0
 22 18  1  0
 23 22  1  0
 23 24  1  6
 25 24  1  0
 26 25  1  0
 26 27  2  0
 28 23  1  0
 29 28  1  0
 30 26  1  0
 31 28  2  0
M  END
$$$$
