QYE.pdb
     RDKit          3D

 31 31  0  0  1  0  0  0  0  0999 V2000
   15.4491  -17.4742   17.0382 N   0  0  0  0  0  0  0  0  0  0  0  0
   14.7328  -16.9969   15.9206 C   0  0  0  0  0  0  0  0  0  0  0  0
   14.9582  -17.5163   14.7976 O   0  0  0  0  0  0  0  0  0  0  0  0
   13.7209  -15.9009   16.0232 C   0  0  0  0  0  0  0  0  0  0  0  0
   13.5203  -15.4950   17.4500 C   0  0  0  0  0  0  0  0  0  0  0  0
   12.2183  -16.0264   18.0121 C   0  0  2  0  0  0  0  0  0  0  0  0
   11.0849  -15.6443   17.1870 N   0  0  0  0  0  0  0  0  0  0  0  0
   11.9792  -15.4780   19.3694 C   0  0  0  0  0  0  0  0  0  0  0  0
   12.6111  -14.4711   19.8227 O   0  0  0  0  0  0  0  0  0  0  0  0
    7.0159  -11.9811   17.7841 O   0  0  0  0  0  0  0  0  0  0  0  0
    7.6012  -12.7532   18.7945 C   0  0  0  0  0  0  0  0  0  0  0  0
    7.2314  -14.0725   18.9139 C   0  0  0  0  0  0  0  0  0  0  0  0
    7.7954  -14.8512   19.9023 C   0  0  0  0  0  0  0  0  0  0  0  0
    8.7376  -14.3297   20.7896 C   0  0  0  0  0  0  0  0  0  0  0  0
    9.3157  -15.1976   21.8370 C   0  0  0  0  0  0  0  0  0  0  0  0
   10.7543  -15.5100   21.5815 C   0  0  2  0  0  0  0  0  0  0  0  0
   11.0332  -16.0222   20.2764 N   0  0  0  0  0  0  0  0  0  0  0  0
   11.3575  -16.3987   22.5736 C   0  0  0  0  0  0  0  0  0  0  0  0
   10.9420  -17.5919   22.7026 O   0  0  0  0  0  0  0  0  0  0  0  0
    9.0904  -13.0121   20.6509 C   0  0  0  0  0  0  0  0  0  0  0  0
    8.5344  -12.2278   19.6692 C   0  0  0  0  0  0  0  0  0  0  0  0
   12.4193  -16.0224   23.4468 N   0  0  0  0  0  0  0  0  0  0  0  0
   13.0418  -16.9663   24.3149 C   0  0  1  0  0  0  0  0  0  0  0  0
   14.4633  -16.7461   24.6587 C   0  0  0  0  0  0  0  0  0  0  0  0
   15.5180  -17.1833   23.7354 C   0  0  0  0  0  0  0  0  0  0  0  0
   16.5696  -16.1761   23.5012 C   0  0  0  0  0  0  0  0  0  0  0  0
   17.2300  -15.6520   24.4583 O   0  0  0  0  0  0  0  0  0  0  0  0
   12.2403  -17.0357   25.5674 C   0  0  0  0  0  0  0  0  0  0  0  0
   12.5169  -17.9679   26.5529 O   0  0  0  0  0  0  0  0  0  0  0  0
   16.8913  -15.7500   22.2230 O   0  0  0  0  0  0  0  0  0  0  0  0
   11.2856  -16.2432   25.7616 O   0  0  0  0  0  0  0  0  0  0  0  0
  2  3  2  0
  2  1  1  0
  4  2  1  0
  5  4  1  0
  6  5  1  0
  6  7  1  6
  8  6  1  0
  9  8  2  0
 10 11  1  0
 11 12  2  0
 12 13  1  0
 14 15  1  0
 14 13  2  0
 16 15  1  1
 16 17  1  0
 17  8  1  0
 18 19  2  0
 18 16  1  0
 20 14  1  0
 21 20  2  0
 21 11  1  0
 22 18  1  0
 23 22  1  0
 23 24  1  1
 25 24  1  0
 26 25  1  0
 26 27  2  0
 28 23  1  0
 29 28  1  0
 30 26  1  0
 31 28  2  0
M  END
$$$$
