QYE.pdb
     RDKit          3D

 31 31  0  0  1  0  0  0  0  0999 V2000
    8.1991  -13.4533   14.8454 N   0  0  0  0  0  0  0  0  0  0  0  0
    7.9120  -14.6439   15.5454 C   0  0  0  0  0  0  0  0  0  0  0  0
    7.9989  -15.7372   14.9298 O   0  0  0  0  0  0  0  0  0  0  0  0
    7.5096  -14.6521   16.9854 C   0  0  0  0  0  0  0  0  0  0  0  0
    8.7110  -14.5557   17.8731 C   0  0  0  0  0  0  0  0  0  0  0  0
    8.7800  -15.7034   18.8588 C   0  0  2  0  0  0  0  0  0  0  0  0
    7.5705  -16.5080   18.8274 N   0  0  0  0  0  0  0  0  0  0  0  0
    8.9303  -15.1886   20.2418 C   0  0  0  0  0  0  0  0  0  0  0  0
    9.9887  -14.6100   20.6463 O   0  0  0  0  0  0  0  0  0  0  0  0
    7.4464  -12.3695   28.4374 O   0  0  0  0  0  0  0  0  0  0  0  0
    7.2770  -12.8394   27.1298 C   0  0  0  0  0  0  0  0  0  0  0  0
    7.5619  -11.9938   26.0832 C   0  0  0  0  0  0  0  0  0  0  0  0
    7.4020  -12.4362   24.7871 C   0  0  0  0  0  0  0  0  0  0  0  0
    6.9551  -13.7287   24.5101 C   0  0  0  0  0  0  0  0  0  0  0  0
    6.7941  -14.1625   23.1064 C   0  0  0  0  0  0  0  0  0  0  0  0
    8.0245  -14.8223   22.5742 C   0  0  2  0  0  0  0  0  0  0  0  0
    7.9167  -15.2944   21.2292 N   0  0  0  0  0  0  0  0  0  0  0  0
    8.5308  -15.9071   23.4137 C   0  0  0  0  0  0  0  0  0  0  0  0
    8.0436  -17.0757   23.3145 O   0  0  0  0  0  0  0  0  0  0  0  0
    6.6775  -14.5534   25.5696 C   0  0  0  0  0  0  0  0  0  0  0  0
    6.8338  -14.1221   26.8649 C   0  0  0  0  0  0  0  0  0  0  0  0
    9.5709  -15.7572   24.3766 N   0  0  0  0  0  0  0  0  0  0  0  0
   10.3016  -16.8787   24.8667 C   0  0  1  0  0  0  0  0  0  0  0  0
   11.7334  -16.9724   24.5078 C   0  0  0  0  0  0  0  0  0  0  0  0
   12.5654  -18.0381   25.0806 C   0  0  0  0  0  0  0  0  0  0  0  0
   13.9618  -18.0334   24.6059 C   0  0  0  0  0  0  0  0  0  0  0  0
   14.3787  -17.1973   23.7377 O   0  0  0  0  0  0  0  0  0  0  0  0
   10.1658  -16.9026   26.3489 C   0  0  0  0  0  0  0  0  0  0  0  0
   10.2441  -18.0855   27.0638 O   0  0  0  0  0  0  0  0  0  0  0  0
   14.8913  -18.9424   25.0841 O   0  0  0  0  0  0  0  0  0  0  0  0
    9.9754  -15.8407   26.9917 O   0  0  0  0  0  0  0  0  0  0  0  0
  2  3  2  0
  2  1  1  0
  4  2  1  0
  5  4  1  0
  6  5  1  0
  6  7  1  1
  8  6  1  0
  9  8  2  0
 10 11  1  0
 11 12  2  0
 12 13  1  0
 14 15  1  0
 14 13  2  0
 16 15  1  1
 16 17  1  0
 17  8  1  0
 18 19  2  0
 18 16  1  0
 20 14  1  0
 21 20  2  0
 21 11  1  0
 22 18  1  0
 23 22  1  0
 23 24  1  1
 25 24  1  0
 26 25  1  0
 26 27  2  0
 28 23  1  0
 29 28  1  0
 30 26  1  0
 31 28  2  0
M  END
$$$$
