QYE.pdb
     RDKit          3D

 31 31  0  0  1  0  0  0  0  0999 V2000
   13.4020  -18.8448   18.8657 N   0  0  0  0  0  0  0  0  0  0  0  0
   12.4853  -18.6423   17.8128 C   0  0  0  0  0  0  0  0  0  0  0  0
   12.5850  -19.3599   16.7847 O   0  0  0  0  0  0  0  0  0  0  0  0
   11.4055  -17.6099   17.8750 C   0  0  0  0  0  0  0  0  0  0  0  0
   11.4006  -16.9261   19.2067 C   0  0  0  0  0  0  0  0  0  0  0  0
   10.3721  -17.5220   20.1452 C   0  0  2  0  0  0  0  0  0  0  0  0
    9.0615  -17.5983   19.5225 N   0  0  0  0  0  0  0  0  0  0  0  0
   10.2339  -16.6828   21.3605 C   0  0  0  0  0  0  0  0  0  0  0  0
   11.2260  -16.3671   22.0917 O   0  0  0  0  0  0  0  0  0  0  0  0
    7.0618  -11.6084   27.8283 O   0  0  0  0  0  0  0  0  0  0  0  0
    7.1640  -12.3664   26.6559 C   0  0  0  0  0  0  0  0  0  0  0  0
    7.9692  -11.9052   25.6407 C   0  0  0  0  0  0  0  0  0  0  0  0
    8.0843  -12.6360   24.4772 C   0  0  0  0  0  0  0  0  0  0  0  0
    7.3993  -13.8391   24.3036 C   0  0  0  0  0  0  0  0  0  0  0  0
    7.5476  -14.5903   23.0394 C   0  0  0  0  0  0  0  0  0  0  0  0
    8.8100  -15.3887   23.0013 C   0  0  2  0  0  0  0  0  0  0  0  0
    8.9940  -16.1616   21.8130 N   0  0  0  0  0  0  0  0  0  0  0  0
    9.0017  -16.2579   24.1614 C   0  0  0  0  0  0  0  0  0  0  0  0
    8.2422  -17.2590   24.3452 O   0  0  0  0  0  0  0  0  0  0  0  0
    6.6027  -14.2787   25.3294 C   0  0  0  0  0  0  0  0  0  0  0  0
    6.4815  -13.5578   26.4929 C   0  0  0  0  0  0  0  0  0  0  0  0
   10.0138  -16.0681   25.1469 N   0  0  0  0  0  0  0  0  0  0  0  0
   10.2036  -16.9981   26.2104 C   0  0  1  0  0  0  0  0  0  0  0  0
   11.4494  -17.7955   26.2079 C   0  0  0  0  0  0  0  0  0  0  0  0
   11.9460  -18.3771   24.9545 C   0  0  0  0  0  0  0  0  0  0  0  0
   13.2226  -19.1030   25.0911 C   0  0  0  0  0  0  0  0  0  0  0  0
   13.4240  -20.2298   24.5287 O   0  0  0  0  0  0  0  0  0  0  0  0
   10.1019  -16.2530   27.4950 C   0  0  0  0  0  0  0  0  0  0  0  0
    9.9951  -14.8730   27.5247 O   0  0  0  0  0  0  0  0  0  0  0  0
   14.2689  -18.5913   25.8411 O   0  0  0  0  0  0  0  0  0  0  0  0
   10.1104  -16.8639   28.5922 O   0  0  0  0  0  0  0  0  0  0  0  0
  2  3  2  0
  2  1  1  0
  4  2  1  0
  5  4  1  0
  6  5  1  0
  6  7  1  6
  8  6  1  0
  9  8  2  0
 10 11  1  0
 11 12  2  0
 12 13  1  0
 14 15  1  0
 14 13  2  0
 16 15  1  6
 16 17  1  0
 17  8  1  0
 18 19  2  0
 18 16  1  0
 20 14  1  0
 21 20  2  0
 21 11  1  0
 22 18  1  0
 23 22  1  0
 23 24  1  6
 25 24  1  0
 26 25  1  0
 26 27  2  0
 28 23  1  0
 29 28  1  0
 30 26  1  0
 31 28  2  0
M  END
$$$$
