QYE.pdb
     RDKit          3D

 31 31  0  0  1  0  0  0  0  0999 V2000
    9.8054  -14.5886   16.0300 N   0  0  0  0  0  0  0  0  0  0  0  0
    8.4020  -14.4464   16.0123 C   0  0  0  0  0  0  0  0  0  0  0  0
    7.7817  -14.7512   14.9616 O   0  0  0  0  0  0  0  0  0  0  0  0
    7.6300  -13.9484   17.1920 C   0  0  0  0  0  0  0  0  0  0  0  0
    8.5249  -13.7817   18.3804 C   0  0  0  0  0  0  0  0  0  0  0  0
    8.7881  -15.0987   19.0801 C   0  0  2  0  0  0  0  0  0  0  0  0
    7.6479  -15.9938   18.9801 N   0  0  0  0  0  0  0  0  0  0  0  0
    9.0465  -14.8746   20.5234 C   0  0  0  0  0  0  0  0  0  0  0  0
   10.0085  -14.1560   20.9439 O   0  0  0  0  0  0  0  0  0  0  0  0
    7.0025  -12.1198   28.4956 O   0  0  0  0  0  0  0  0  0  0  0  0
    7.0266  -12.5717   27.1710 C   0  0  0  0  0  0  0  0  0  0  0  0
    6.2494  -13.6537   26.8293 C   0  0  0  0  0  0  0  0  0  0  0  0
    6.2581  -14.1155   25.5301 C   0  0  0  0  0  0  0  0  0  0  0  0
    7.0412  -13.5080   24.5479 C   0  0  0  0  0  0  0  0  0  0  0  0
    7.0242  -14.0361   23.1676 C   0  0  0  0  0  0  0  0  0  0  0  0
    8.1770  -14.9473   22.8969 C   0  0  2  0  0  0  0  0  0  0  0  0
    8.2514  -15.4366   21.5559 N   0  0  0  0  0  0  0  0  0  0  0  0
    8.2709  -16.0804   23.8163 C   0  0  0  0  0  0  0  0  0  0  0  0
    7.7064  -16.0326   24.9529 O   0  0  0  0  0  0  0  0  0  0  0  0
    7.8075  -12.4310   24.9123 C   0  0  0  0  0  0  0  0  0  0  0  0
    7.8057  -11.9631   26.2043 C   0  0  0  0  0  0  0  0  0  0  0  0
    8.9735  -17.2875   23.5320 N   0  0  0  0  0  0  0  0  0  0  0  0
   10.2883  -17.5209   24.0308 C   0  0  1  0  0  0  0  0  0  0  0  0
   11.3927  -16.7306   23.4449 C   0  0  0  0  0  0  0  0  0  0  0  0
   12.5382  -17.4133   22.8304 C   0  0  0  0  0  0  0  0  0  0  0  0
   13.7040  -16.5413   22.5947 C   0  0  0  0  0  0  0  0  0  0  0  0
   13.7940  -15.3777   23.1092 O   0  0  0  0  0  0  0  0  0  0  0  0
   10.2639  -17.3107   25.5042 C   0  0  0  0  0  0  0  0  0  0  0  0
   11.2238  -17.8692   26.3309 O   0  0  0  0  0  0  0  0  0  0  0  0
   14.7623  -16.9480   21.7988 O   0  0  0  0  0  0  0  0  0  0  0  0
    9.3641  -16.6155   26.0372 O   0  0  0  0  0  0  0  0  0  0  0  0
  2  3  2  0
  2  1  1  0
  4  2  1  0
  5  4  1  0
  6  5  1  0
  6  7  1  1
  8  6  1  0
  9  8  2  0
 10 11  1  0
 11 12  2  0
 12 13  1  0
 14 15  1  0
 14 13  2  0
 16 15  1  6
 16 17  1  0
 17  8  1  0
 18 19  2  0
 18 16  1  0
 20 14  1  0
 21 20  2  0
 21 11  1  0
 22 18  1  0
 23 22  1  0
 23 24  1  6
 25 24  1  0
 26 25  1  0
 26 27  2  0
 28 23  1  0
 29 28  1  0
 30 26  1  0
 31 28  2  0
M  END
$$$$
