SDL.pdb
     RDKit          3D

 23 22  0  0  1  0  0  0  0  0999 V2000
   28.9596  -22.2011  -14.4672 O   0  0  0  0  0  0  0  0  0  0  0  0
   28.1415  -22.5968  -15.5176 C   0  0  0  0  0  0  0  0  0  0  0  0
   27.2341  -21.4833  -15.9707 C   0  0  2  0  0  0  0  0  0  0  0  0
   27.9840  -20.4856  -16.7068 N   0  0  0  0  0  0  0  0  0  0  0  0
   26.5191  -20.7973  -14.8865 C   0  0  0  0  0  0  0  0  0  0  0  0
   26.8070  -19.5918  -14.6048 O   0  0  0  0  0  0  0  0  0  0  0  0
   25.5043  -21.3755  -14.0994 N   0  0  0  0  0  0  0  0  0  0  0  0
   24.6957  -20.6093  -13.1213 C   0  0  1  0  0  0  0  0  0  0  0  0
   23.2932  -21.0783  -13.1731 C   0  0  0  0  0  0  0  0  0  0  0  0
   22.2651  -20.1707  -13.6416 C   0  0  0  0  0  0  0  0  0  0  0  0
   21.0747  -20.4630  -13.7913 O   0  0  0  0  0  0  0  0  0  0  0  0
   25.3590  -20.9755  -11.8162 C   0  0  0  0  0  0  0  0  0  0  0  0
   25.7858  -22.1786  -11.6576 O   0  0  0  0  0  0  0  0  0  0  0  0
   22.5811  -18.8317  -13.9711 O   0  0  0  0  0  0  0  0  0  0  0  0
   27.6459  -18.7388   -6.5616 C   0  0  0  0  0  0  0  0  0  0  0  0
   27.4352  -19.9580   -7.4600 C   0  0  2  0  0  0  0  0  0  0  0  0
   28.6959  -20.7430   -7.5438 C   0  0  0  0  0  0  0  0  0  0  0  0
   26.8740  -19.5164   -8.7774 C   0  0  0  0  0  0  0  0  0  0  0  0
   26.1386  -20.6323   -9.4892 C   0  0  2  0  0  0  0  0  0  0  0  0
   25.5721  -20.1273  -10.7322 N   0  0  0  0  0  0  0  0  0  0  0  0
   25.0191  -21.1508   -8.6700 C   0  0  0  0  0  0  0  0  0  0  0  0
   23.6832  -20.8740   -8.8935 O   0  0  0  0  0  0  0  0  0  0  0  0
   25.2761  -21.8968   -7.6952 O   0  0  0  0  0  0  0  0  0  0  0  0
  2  1  1  0
  3  4  1  1
  3  2  1  0
  5  6  2  0
  5  3  1  0
  7  5  1  0
  8  7  1  0
  8 12  1  0
  8  9  1  1
 10  9  1  0
 10 14  1  0
 11 10  2  0
 12 20  1  0
 13 12  2  0
 16 15  1  1
 16 17  1  0
 18 16  1  0
 19 18  1  1
 20 19  1  0
 21 22  1  0
 21 19  1  0
 23 21  2  0
M  END
$$$$
