SDL.pdb
     RDKit          3D

 23 22  0  0  1  0  0  0  0  0999 V2000
   17.2259  -13.1194  -16.2384 O   0  0  0  0  0  0  0  0  0  0  0  0
   17.7130  -11.9002  -16.6916 C   0  0  0  0  0  0  0  0  0  0  0  0
   16.6689  -10.8172  -16.6164 C   0  0  2  0  0  0  0  0  0  0  0  0
   15.8003  -10.8688  -17.7750 N   0  0  0  0  0  0  0  0  0  0  0  0
   17.2075   -9.4541  -16.5199 C   0  0  0  0  0  0  0  0  0  0  0  0
   18.0842   -9.0618  -17.3523 O   0  0  0  0  0  0  0  0  0  0  0  0
   16.8267   -8.5048  -15.5517 N   0  0  0  0  0  0  0  0  0  0  0  0
   17.3462   -7.1167  -15.5232 C   0  0  1  0  0  0  0  0  0  0  0  0
   16.3433   -6.2328  -14.8888 C   0  0  0  0  0  0  0  0  0  0  0  0
   15.1969   -5.8008  -15.6629 C   0  0  0  0  0  0  0  0  0  0  0  0
   15.1994   -5.5953  -16.8806 O   0  0  0  0  0  0  0  0  0  0  0  0
   18.5804   -7.2651  -14.6676 C   0  0  0  0  0  0  0  0  0  0  0  0
   18.5053   -7.9690  -13.5934 O   0  0  0  0  0  0  0  0  0  0  0  0
   13.9472   -5.5785  -15.0381 O   0  0  0  0  0  0  0  0  0  0  0  0
   23.8114   -9.5314  -14.5969 C   0  0  0  0  0  0  0  0  0  0  0  0
   22.9293   -8.5557  -13.8172 C   0  0  2  0  0  0  0  0  0  0  0  0
   22.6264   -9.1175  -12.4736 C   0  0  0  0  0  0  0  0  0  0  0  0
   21.7295   -8.1995  -14.6411 C   0  0  0  0  0  0  0  0  0  0  0  0
   20.9726   -7.0191  -14.0696 C   0  0  2  0  0  0  0  0  0  0  0  0
   19.8328   -6.7118  -14.9226 N   0  0  0  0  0  0  0  0  0  0  0  0
   21.8229   -5.8080  -14.0120 C   0  0  0  0  0  0  0  0  0  0  0  0
   21.6768   -4.7015  -14.8278 O   0  0  0  0  0  0  0  0  0  0  0  0
   22.7517   -5.7590  -13.1706 O   0  0  0  0  0  0  0  0  0  0  0  0
  2  1  1  0
  3  4  1  6
  3  2  1  0
  5  6  2  0
  5  3  1  0
  7  5  1  0
  8  7  1  0
  8 12  1  0
  8  9  1  1
 10  9  1  0
 10 14  1  0
 11 10  2  0
 12 20  1  0
 13 12  2  0
 16 15  1  6
 16 17  1  0
 18 16  1  0
 19 18  1  6
 20 19  1  0
 21 22  1  0
 21 19  1  0
 23 21  2  0
M  END
$$$$
