SDL.pdb
     RDKit          3D

 23 22  0  0  1  0  0  0  0  0999 V2000
   15.2616  -13.7289  -14.6024 O   0  0  0  0  0  0  0  0  0  0  0  0
   15.8498  -12.4770  -14.7292 C   0  0  0  0  0  0  0  0  0  0  0  0
   15.7215  -11.9373  -16.1294 C   0  0  2  0  0  0  0  0  0  0  0  0
   15.9972  -12.9765  -17.1009 N   0  0  0  0  0  0  0  0  0  0  0  0
   16.5999  -10.7988  -16.4290 C   0  0  0  0  0  0  0  0  0  0  0  0
   17.7283  -11.0002  -16.9783 O   0  0  0  0  0  0  0  0  0  0  0  0
   16.2947   -9.4520  -16.1525 N   0  0  0  0  0  0  0  0  0  0  0  0
   17.1556   -8.3194  -16.5691 C   0  0  1  0  0  0  0  0  0  0  0  0
   16.3513   -7.0776  -16.5931 C   0  0  0  0  0  0  0  0  0  0  0  0
   17.0082   -5.8200  -16.8883 C   0  0  0  0  0  0  0  0  0  0  0  0
   16.6180   -4.7101  -16.5129 O   0  0  0  0  0  0  0  0  0  0  0  0
   18.1887   -8.2944  -15.4694 C   0  0  0  0  0  0  0  0  0  0  0  0
   17.8222   -8.5894  -14.2721 O   0  0  0  0  0  0  0  0  0  0  0  0
   18.1924   -5.7893  -17.6616 O   0  0  0  0  0  0  0  0  0  0  0  0
   23.4436  -10.3833  -13.9287 C   0  0  0  0  0  0  0  0  0  0  0  0
   22.3699   -9.3652  -13.5435 C   0  0  2  0  0  0  0  0  0  0  0  0
   21.8115   -9.7064  -12.2077 C   0  0  0  0  0  0  0  0  0  0  0  0
   21.3602   -9.2629  -14.6459 C   0  0  0  0  0  0  0  0  0  0  0  0
   20.4481   -8.0660  -14.4776 C   0  0  2  0  0  0  0  0  0  0  0  0
   19.5387   -7.9829  -15.6121 N   0  0  0  0  0  0  0  0  0  0  0  0
   21.2177   -6.8016  -14.4325 C   0  0  0  0  0  0  0  0  0  0  0  0
   21.7872   -6.2645  -13.2930 O   0  0  0  0  0  0  0  0  0  0  0  0
   21.3771   -6.1509  -15.4927 O   0  0  0  0  0  0  0  0  0  0  0  0
  2  1  1  0
  3  4  1  6
  3  2  1  0
  5  6  2  0
  5  3  1  0
  7  5  1  0
  8  7  1  0
  8 12  1  0
  8  9  1  1
 10  9  1  0
 10 14  1  0
 11 10  2  0
 12 20  1  0
 13 12  2  0
 16 15  1  6
 16 17  1  0
 18 16  1  0
 19 18  1  6
 20 19  1  0
 21 22  1  0
 21 19  1  0
 23 21  2  0
M  END
$$$$
