SDL.pdb
     RDKit          3D

 23 22  0  0  1  0  0  0  0  0999 V2000
   19.6454  -20.8290    0.4766 O   0  0  0  0  0  0  0  0  0  0  0  0
   19.0132  -20.8645    1.7128 C   0  0  0  0  0  0  0  0  0  0  0  0
   17.5134  -20.8480    1.5754 C   0  0  2  0  0  0  0  0  0  0  0  0
   17.1281  -20.3138    0.2847 N   0  0  0  0  0  0  0  0  0  0  0  0
   16.8129  -20.0736    2.6084 C   0  0  0  0  0  0  0  0  0  0  0  0
   16.0568  -19.1097    2.2700 O   0  0  0  0  0  0  0  0  0  0  0  0
   16.9062  -20.3103    3.9936 N   0  0  0  0  0  0  0  0  0  0  0  0
   16.1234  -19.5582    5.0032 C   0  0  1  0  0  0  0  0  0  0  0  0
   16.1229  -20.3083    6.2787 C   0  0  0  0  0  0  0  0  0  0  0  0
   15.3490  -21.5297    6.3759 C   0  0  0  0  0  0  0  0  0  0  0  0
   14.2467  -21.7151    5.8510 O   0  0  0  0  0  0  0  0  0  0  0  0
   16.9088  -18.2741    5.1109 C   0  0  0  0  0  0  0  0  0  0  0  0
   18.1464  -18.2768    4.7597 O   0  0  0  0  0  0  0  0  0  0  0  0
   15.8350  -22.6345    7.1139 O   0  0  0  0  0  0  0  0  0  0  0  0
   17.2754  -12.8440    3.2081 C   0  0  0  0  0  0  0  0  0  0  0  0
   17.7953  -13.7613    4.3155 C   0  0  2  0  0  0  0  0  0  0  0  0
   19.2610  -13.9587    4.1562 C   0  0  0  0  0  0  0  0  0  0  0  0
   16.9846  -15.0213    4.3419 C   0  0  0  0  0  0  0  0  0  0  0  0
   17.2793  -15.8661    5.5634 C   0  0  2  0  0  0  0  0  0  0  0  0
   16.4260  -17.0463    5.5571 N   0  0  0  0  0  0  0  0  0  0  0  0
   17.0007  -15.1239    6.8143 C   0  0  0  0  0  0  0  0  0  0  0  0
   17.8493  -14.1945    7.3863 O   0  0  0  0  0  0  0  0  0  0  0  0
   15.9229  -15.3379    7.4187 O   0  0  0  0  0  0  0  0  0  0  0  0
  2  1  1  0
  3  4  1  6
  3  2  1  0
  5  6  2  0
  5  3  1  0
  7  5  1  0
  8  7  1  0
  8 12  1  0
  8  9  1  1
 10  9  1  0
 10 14  1  0
 11 10  2  0
 12 20  1  0
 13 12  2  0
 16 15  1  6
 16 17  1  0
 18 16  1  0
 19 18  1  6
 20 19  1  0
 21 22  1  0
 21 19  1  0
 23 21  2  0
M  END
$$$$
