SDL.pdb
     RDKit          3D

 23 22  0  0  1  0  0  0  0  0999 V2000
   19.0338  -15.8544  -14.3995 O   0  0  0  0  0  0  0  0  0  0  0  0
   19.8826  -15.0101  -15.1035 C   0  0  0  0  0  0  0  0  0  0  0  0
   19.3925  -14.7664  -16.5067 C   0  0  2  0  0  0  0  0  0  0  0  0
   19.6640  -15.9162  -17.3457 N   0  0  0  0  0  0  0  0  0  0  0  0
   19.9732  -13.5866  -17.1612 C   0  0  0  0  0  0  0  0  0  0  0  0
   20.8238  -13.7371  -18.0935 O   0  0  0  0  0  0  0  0  0  0  0  0
   19.6617  -12.2517  -16.8376 N   0  0  0  0  0  0  0  0  0  0  0  0
   20.2902  -11.0846  -17.5014 C   0  0  1  0  0  0  0  0  0  0  0  0
   19.2323  -10.1752  -17.9948 C   0  0  0  0  0  0  0  0  0  0  0  0
   19.6155   -8.9318  -18.6331 C   0  0  0  0  0  0  0  0  0  0  0  0
   20.7650   -8.6315  -18.9697 O   0  0  0  0  0  0  0  0  0  0  0  0
   21.0729  -10.4678  -16.3681 C   0  0  0  0  0  0  0  0  0  0  0  0
   20.5488  -10.4521  -15.1934 O   0  0  0  0  0  0  0  0  0  0  0  0
   18.6474   -7.9412  -18.9215 O   0  0  0  0  0  0  0  0  0  0  0  0
   24.9219  -11.1959  -14.1713 C   0  0  0  0  0  0  0  0  0  0  0  0
   25.1195  -10.5142  -15.5256 C   0  0  2  0  0  0  0  0  0  0  0  0
   26.5659  -10.4977  -15.8723 C   0  0  0  0  0  0  0  0  0  0  0  0
   24.4553   -9.1711  -15.5102 C   0  0  0  0  0  0  0  0  0  0  0  0
   22.9603   -9.2743  -15.2939 C   0  0  2  0  0  0  0  0  0  0  0  0
   22.3420   -9.9006  -16.4543 N   0  0  0  0  0  0  0  0  0  0  0  0
   22.3440   -7.9377  -15.1303 C   0  0  0  0  0  0  0  0  0  0  0  0
   22.0409   -7.3516  -13.9154 O   0  0  0  0  0  0  0  0  0  0  0  0
   22.0656   -7.2691  -16.1542 O   0  0  0  0  0  0  0  0  0  0  0  0
  2  1  1  0
  3  4  1  6
  3  2  1  0
  5  6  2  0
  5  3  1  0
  7  5  1  0
  8  7  1  0
  8 12  1  0
  8  9  1  1
 10  9  1  0
 10 14  1  0
 11 10  2  0
 12 20  1  0
 13 12  2  0
 16 15  1  1
 16 17  1  0
 18 16  1  0
 19 18  1  6
 20 19  1  0
 21 22  1  0
 21 19  1  0
 23 21  2  0
M  END
$$$$
