SDL.pdb
     RDKit          3D

 23 22  0  0  1  0  0  0  0  0999 V2000
   14.8114  -11.6065  -14.3890 O   0  0  0  0  0  0  0  0  0  0  0  0
   15.8254  -10.6720  -14.5555 C   0  0  0  0  0  0  0  0  0  0  0  0
   15.7134   -9.9532  -15.8744 C   0  0  2  0  0  0  0  0  0  0  0  0
   15.9843  -10.8605  -16.9712 N   0  0  0  0  0  0  0  0  0  0  0  0
   16.6068   -8.7963  -16.0183 C   0  0  0  0  0  0  0  0  0  0  0  0
   17.6228   -8.8745  -16.7780 O   0  0  0  0  0  0  0  0  0  0  0  0
   16.4344   -7.5600  -15.3660 N   0  0  0  0  0  0  0  0  0  0  0  0
   17.2799   -6.3723  -15.6345 C   0  0  1  0  0  0  0  0  0  0  0  0
   16.5395   -5.1493  -15.2525 C   0  0  0  0  0  0  0  0  0  0  0  0
   17.1982   -3.8637  -15.3682 C   0  0  0  0  0  0  0  0  0  0  0  0
   18.3433   -3.6888  -15.7959 O   0  0  0  0  0  0  0  0  0  0  0  0
   18.4583   -6.6185  -14.7246 C   0  0  0  0  0  0  0  0  0  0  0  0
   18.2767   -7.3060  -13.6525 O   0  0  0  0  0  0  0  0  0  0  0  0
   16.5351   -2.6762  -14.9787 O   0  0  0  0  0  0  0  0  0  0  0  0
   23.3836   -9.4260  -14.5249 C   0  0  0  0  0  0  0  0  0  0  0  0
   22.6275   -8.3335  -13.7681 C   0  0  2  0  0  0  0  0  0  0  0  0
   22.2962   -8.8097  -12.3985 C   0  0  0  0  0  0  0  0  0  0  0  0
   21.4546   -7.8814  -14.5837 C   0  0  0  0  0  0  0  0  0  0  0  0
   20.8418   -6.6051  -14.0467 C   0  0  2  0  0  0  0  0  0  0  0  0
   19.7632   -6.1750  -14.9257 N   0  0  0  0  0  0  0  0  0  0  0  0
   21.8355   -5.5084  -13.9944 C   0  0  0  0  0  0  0  0  0  0  0  0
   22.6617   -5.2425  -12.9184 O   0  0  0  0  0  0  0  0  0  0  0  0
   21.9540   -4.7501  -14.9863 O   0  0  0  0  0  0  0  0  0  0  0  0
  2  1  1  0
  3  4  1  6
  3  2  1  0
  5  6  2  0
  5  3  1  0
  7  5  1  0
  8  7  1  0
  8 12  1  0
  8  9  1  1
 10  9  1  0
 10 14  1  0
 11 10  2  0
 12 20  1  0
 13 12  2  0
 16 15  1  6
 16 17  1  0
 18 16  1  0
 19 18  1  6
 20 19  1  0
 21 22  1  0
 21 19  1  0
 23 21  2  0
M  END
$$$$
