SDL.pdb
     RDKit          3D

 23 22  0  0  1  0  0  0  0  0999 V2000
   29.7177  -23.8990  -16.4034 O   0  0  0  0  0  0  0  0  0  0  0  0
   29.2227  -22.7181  -15.8651 C   0  0  0  0  0  0  0  0  0  0  0  0
   28.1885  -22.0856  -16.7589 C   0  0  2  0  0  0  0  0  0  0  0  0
   28.8269  -21.3462  -17.8291 N   0  0  0  0  0  0  0  0  0  0  0  0
   27.2632  -21.1737  -16.0736 C   0  0  0  0  0  0  0  0  0  0  0  0
   27.5907  -19.9584  -15.8966 O   0  0  0  0  0  0  0  0  0  0  0  0
   25.9970  -21.5366  -15.5751 N   0  0  0  0  0  0  0  0  0  0  0  0
   25.0830  -20.5836  -14.9011 C   0  0  1  0  0  0  0  0  0  0  0  0
   23.7241  -20.7253  -15.4694 C   0  0  0  0  0  0  0  0  0  0  0  0
   22.6259  -20.0083  -14.8529 C   0  0  0  0  0  0  0  0  0  0  0  0
   22.7473  -19.0809  -14.0467 O   0  0  0  0  0  0  0  0  0  0  0  0
   25.1417  -21.0574  -13.4695 C   0  0  0  0  0  0  0  0  0  0  0  0
   25.0238  -22.3160  -13.2311 O   0  0  0  0  0  0  0  0  0  0  0  0
   21.2853  -20.3458  -15.1536 O   0  0  0  0  0  0  0  0  0  0  0  0
   26.4419  -19.3382   -7.7087 C   0  0  0  0  0  0  0  0  0  0  0  0
   26.0548  -20.4767   -8.6531 C   0  0  2  0  0  0  0  0  0  0  0  0
   26.8730  -21.6810   -8.3486 C   0  0  0  0  0  0  0  0  0  0  0  0
   26.1336  -19.9980  -10.0709 C   0  0  0  0  0  0  0  0  0  0  0  0
   25.2868  -20.8356  -11.0057 C   0  0  2  0  0  0  0  0  0  0  0  0
   25.3206  -20.2588  -12.3426 N   0  0  0  0  0  0  0  0  0  0  0  0
   23.8712  -20.8666  -10.5717 C   0  0  0  0  0  0  0  0  0  0  0  0
   23.3123  -21.8454   -9.7713 O   0  0  0  0  0  0  0  0  0  0  0  0
   23.1023  -19.9493  -10.9461 O   0  0  0  0  0  0  0  0  0  0  0  0
  2  1  1  0
  3  4  1  6
  3  2  1  0
  5  6  2  0
  5  3  1  0
  7  5  1  0
  8  7  1  0
  8 12  1  0
  8  9  1  6
 10  9  1  0
 10 14  1  0
 11 10  2  0
 12 20  1  0
 13 12  2  0
 16 15  1  1
 16 17  1  0
 18 16  1  0
 19 18  1  1
 20 19  1  0
 21 22  1  0
 21 19  1  0
 23 21  2  0
M  END
$$$$
