SDL.pdb
     RDKit          3D

 23 22  0  0  1  0  0  0  0  0999 V2000
   12.6123  -10.4273  -13.3596 O   0  0  0  0  0  0  0  0  0  0  0  0
   13.9149  -10.3275  -13.8312 C   0  0  0  0  0  0  0  0  0  0  0  0
   14.0209  -10.7419  -15.2753 C   0  0  2  0  0  0  0  0  0  0  0  0
   13.7572  -12.1597  -15.4169 N   0  0  0  0  0  0  0  0  0  0  0  0
   15.3218  -10.4634  -15.8978 C   0  0  0  0  0  0  0  0  0  0  0  0
   16.1142  -11.4222  -16.1591 O   0  0  0  0  0  0  0  0  0  0  0  0
   15.7900   -9.1813  -16.2449 N   0  0  0  0  0  0  0  0  0  0  0  0
   17.0388   -8.9494  -17.0095 C   0  0  1  0  0  0  0  0  0  0  0  0
   16.8419   -7.8095  -17.9322 C   0  0  0  0  0  0  0  0  0  0  0  0
   17.9610   -7.3488  -18.7294 C   0  0  0  0  0  0  0  0  0  0  0  0
   19.0942   -7.8390  -18.7121 O   0  0  0  0  0  0  0  0  0  0  0  0
   18.0177   -8.6155  -15.9106 C   0  0  0  0  0  0  0  0  0  0  0  0
   17.5778   -8.0438  -14.8454 O   0  0  0  0  0  0  0  0  0  0  0  0
   17.8130   -6.2572  -19.6170 O   0  0  0  0  0  0  0  0  0  0  0  0
   23.5774  -10.0351  -13.7019 C   0  0  0  0  0  0  0  0  0  0  0  0
   22.2841   -9.2364  -13.5364 C   0  0  2  0  0  0  0  0  0  0  0  0
   21.7170   -9.4754  -12.1822 C   0  0  0  0  0  0  0  0  0  0  0  0
   21.3590   -9.5424  -14.6747 C   0  0  0  0  0  0  0  0  0  0  0  0
   20.2121   -8.5576  -14.7608 C   0  0  2  0  0  0  0  0  0  0  0  0
   19.3868   -8.8707  -15.9193 N   0  0  0  0  0  0  0  0  0  0  0  0
   20.7020   -7.1701  -14.9273 C   0  0  0  0  0  0  0  0  0  0  0  0
   20.9575   -6.2934  -13.8893 O   0  0  0  0  0  0  0  0  0  0  0  0
   20.9063   -6.7342  -16.0854 O   0  0  0  0  0  0  0  0  0  0  0  0
  2  1  1  0
  3  4  1  1
  3  2  1  0
  5  6  2  0
  5  3  1  0
  7  5  1  0
  8  7  1  0
  8 12  1  0
  8  9  1  6
 10  9  1  0
 10 14  1  0
 11 10  2  0
 12 20  1  0
 13 12  2  0
 16 15  1  6
 16 17  1  0
 18 16  1  0
 19 18  1  6
 20 19  1  0
 21 22  1  0
 21 19  1  0
 23 21  2  0
M  END
$$$$
