SDL.pdb
     RDKit          3D

 23 22  0  0  1  0  0  0  0  0999 V2000
   21.0689  -11.8143  -19.1498 O   0  0  0  0  0  0  0  0  0  0  0  0
   20.5381  -10.5719  -18.8276 C   0  0  0  0  0  0  0  0  0  0  0  0
   19.1482  -10.6871  -18.2590 C   0  0  2  0  0  0  0  0  0  0  0  0
   18.1644  -10.6998  -19.3229 N   0  0  0  0  0  0  0  0  0  0  0  0
   18.7804   -9.6183  -17.3210 C   0  0  0  0  0  0  0  0  0  0  0  0
   18.2324   -8.5575  -17.7568 O   0  0  0  0  0  0  0  0  0  0  0  0
   18.9878   -9.6627  -15.9287 N   0  0  0  0  0  0  0  0  0  0  0  0
   18.6528   -8.5413  -15.0189 C   0  0  1  0  0  0  0  0  0  0  0  0
   18.4214   -9.0701  -13.6564 C   0  0  0  0  0  0  0  0  0  0  0  0
   18.1181   -8.1432  -12.5845 C   0  0  0  0  0  0  0  0  0  0  0  0
   17.9834   -6.9230  -12.7181 O   0  0  0  0  0  0  0  0  0  0  0  0
   19.9052   -7.7021  -15.0869 C   0  0  0  0  0  0  0  0  0  0  0  0
   21.0444   -8.2974  -15.1396 O   0  0  0  0  0  0  0  0  0  0  0  0
   17.9506   -8.6050  -11.2578 O   0  0  0  0  0  0  0  0  0  0  0  0
   22.3220   -2.7814  -17.5497 C   0  0  0  0  0  0  0  0  0  0  0  0
   22.4818   -3.8635  -16.4813 C   0  0  2  0  0  0  0  0  0  0  0  0
   23.6547   -4.7189  -16.8055 C   0  0  0  0  0  0  0  0  0  0  0  0
   21.1864   -4.5986  -16.3174 C   0  0  0  0  0  0  0  0  0  0  0  0
   21.2455   -5.6210  -15.2022 C   0  0  2  0  0  0  0  0  0  0  0  0
   19.9665   -6.3108  -15.1051 N   0  0  0  0  0  0  0  0  0  0  0  0
   21.5036   -4.9789  -13.8929 C   0  0  0  0  0  0  0  0  0  0  0  0
   20.6078   -4.9441  -12.8406 O   0  0  0  0  0  0  0  0  0  0  0  0
   22.6083   -4.4171  -13.7006 O   0  0  0  0  0  0  0  0  0  0  0  0
  2  1  1  0
  3  4  1  6
  3  2  1  0
  5  6  2  0
  5  3  1  0
  7  5  1  0
  8  7  1  0
  8 12  1  0
  8  9  1  1
 10  9  1  0
 10 14  1  0
 11 10  2  0
 12 20  1  0
 13 12  2  0
 16 15  1  6
 16 17  1  0
 18 16  1  0
 19 18  1  6
 20 19  1  0
 21 22  1  0
 21 19  1  0
 23 21  2  0
M  END
$$$$
