SDL.pdb
     RDKit          3D

 23 22  0  0  1  0  0  0  0  0999 V2000
   20.0640  -11.0001  -16.7104 O   0  0  0  0  0  0  0  0  0  0  0  0
   19.4006  -11.7105  -15.7182 C   0  0  0  0  0  0  0  0  0  0  0  0
   18.0119  -11.1778  -15.4815 C   0  0  2  0  0  0  0  0  0  0  0  0
   17.2458  -11.1941  -16.7114 N   0  0  0  0  0  0  0  0  0  0  0  0
   17.9641   -9.8126  -14.9416 C   0  0  0  0  0  0  0  0  0  0  0  0
   17.6702   -8.8415  -15.7071 O   0  0  0  0  0  0  0  0  0  0  0  0
   18.2245   -9.4676  -13.6012 N   0  0  0  0  0  0  0  0  0  0  0  0
   18.1419   -8.0799  -13.0863 C   0  0  1  0  0  0  0  0  0  0  0  0
   17.7977   -8.1125  -11.6475 C   0  0  0  0  0  0  0  0  0  0  0  0
   16.4274   -8.3786  -11.2583 C   0  0  0  0  0  0  0  0  0  0  0  0
   15.4572   -8.3655  -12.0221 O   0  0  0  0  0  0  0  0  0  0  0  0
   19.5480   -7.5809  -13.3128 C   0  0  0  0  0  0  0  0  0  0  0  0
   20.5285   -8.2596  -12.8304 O   0  0  0  0  0  0  0  0  0  0  0  0
   16.1057   -8.6836   -9.9148 O   0  0  0  0  0  0  0  0  0  0  0  0
   22.6978   -8.0546  -15.7778 C   0  0  0  0  0  0  0  0  0  0  0  0
   21.6540   -7.0820  -16.3278 C   0  0  2  0  0  0  0  0  0  0  0  0
   21.8423   -6.9210  -17.7945 C   0  0  0  0  0  0  0  0  0  0  0  0
   21.6940   -5.8083  -15.5394 C   0  0  0  0  0  0  0  0  0  0  0  0
   21.3080   -6.0195  -14.0906 C   0  0  2  0  0  0  0  0  0  0  0  0
   19.9140   -6.4340  -14.0131 N   0  0  0  0  0  0  0  0  0  0  0  0
   21.4434   -4.7700  -13.3072 C   0  0  0  0  0  0  0  0  0  0  0  0
   20.3854   -4.0195  -12.8294 O   0  0  0  0  0  0  0  0  0  0  0  0
   22.5922   -4.3397  -13.0464 O   0  0  0  0  0  0  0  0  0  0  0  0
  2  1  1  0
  3  4  1  6
  3  2  1  0
  5  6  2  0
  5  3  1  0
  7  5  1  0
  8  7  1  0
  8 12  1  0
  8  9  1  1
 10  9  1  0
 10 14  1  0
 11 10  2  0
 12 20  1  0
 13 12  2  0
 16 15  1  1
 16 17  1  0
 18 16  1  0
 19 18  1  6
 20 19  1  0
 21 22  1  0
 21 19  1  0
 23 21  2  0
M  END
$$$$
