SDL.pdb
     RDKit          3D

 23 22  0  0  1  0  0  0  0  0999 V2000
   22.0144   -9.2430  -19.7715 O   0  0  0  0  0  0  0  0  0  0  0  0
   23.2315   -8.6208  -20.0180 C   0  0  0  0  0  0  0  0  0  0  0  0
   24.1931   -8.7980  -18.8723 C   0  0  2  0  0  0  0  0  0  0  0  0
   24.6637  -10.1671  -18.8121 N   0  0  0  0  0  0  0  0  0  0  0  0
   23.6441   -8.4541  -17.5541 C   0  0  0  0  0  0  0  0  0  0  0  0
   23.4536   -9.3684  -16.6920 O   0  0  0  0  0  0  0  0  0  0  0  0
   23.2955   -7.1533  -17.1417 N   0  0  0  0  0  0  0  0  0  0  0  0
   22.7484   -6.8434  -15.7992 C   0  0  1  0  0  0  0  0  0  0  0  0
   22.8838   -5.3929  -15.5396 C   0  0  0  0  0  0  0  0  0  0  0  0
   22.4188   -4.8585  -14.2754 C   0  0  0  0  0  0  0  0  0  0  0  0
   22.1429   -5.5326  -13.2782 O   0  0  0  0  0  0  0  0  0  0  0  0
   21.3034   -7.2508  -15.9516 C   0  0  0  0  0  0  0  0  0  0  0  0
   20.7366   -7.0969  -17.0962 O   0  0  0  0  0  0  0  0  0  0  0  0
   22.2452   -3.4652  -14.1017 O   0  0  0  0  0  0  0  0  0  0  0  0
   16.8390  -10.1107  -14.7156 C   0  0  0  0  0  0  0  0  0  0  0  0
   17.6638  -10.0630  -16.0021 C   0  0  2  0  0  0  0  0  0  0  0  0
   17.5644  -11.3674  -16.7102 C   0  0  0  0  0  0  0  0  0  0  0  0
   19.0591   -9.6182  -15.6846 C   0  0  0  0  0  0  0  0  0  0  0  0
   19.1124   -8.1696  -15.2472 C   0  0  2  0  0  0  0  0  0  0  0  0
   20.4911   -7.7973  -14.9611 N   0  0  0  0  0  0  0  0  0  0  0  0
   18.3276   -7.9486  -14.0109 C   0  0  0  0  0  0  0  0  0  0  0  0
   17.0147   -7.5173  -13.9760 O   0  0  0  0  0  0  0  0  0  0  0  0
   18.8725   -8.1599  -12.9012 O   0  0  0  0  0  0  0  0  0  0  0  0
  2  1  1  0
  3  4  1  1
  3  2  1  0
  5  6  2  0
  5  3  1  0
  7  5  1  0
  8  7  1  0
  8 12  1  0
  8  9  1  6
 10  9  1  0
 10 14  1  0
 11 10  2  0
 12 20  1  0
 13 12  2  0
 16 15  1  1
 16 17  1  0
 18 16  1  0
 19 18  1  1
 20 19  1  0
 21 22  1  0
 21 19  1  0
 23 21  2  0
M  END
$$$$
