SDL.pdb
     RDKit          3D

 23 22  0  0  1  0  0  0  0  0999 V2000
   20.9568  -23.4858  -17.3757 O   0  0  0  0  0  0  0  0  0  0  0  0
   22.1844  -23.5506  -16.7294 C   0  0  0  0  0  0  0  0  0  0  0  0
   22.4747  -22.2940  -15.9513 C   0  0  2  0  0  0  0  0  0  0  0  0
   22.4012  -21.1336  -16.8161 N   0  0  0  0  0  0  0  0  0  0  0  0
   23.7840  -22.2752  -15.2860 C   0  0  0  0  0  0  0  0  0  0  0  0
   24.1623  -23.2824  -14.6093 O   0  0  0  0  0  0  0  0  0  0  0  0
   24.6942  -21.2014  -15.3306 N   0  0  0  0  0  0  0  0  0  0  0  0
   25.9868  -21.1983  -14.6047 C   0  0  1  0  0  0  0  0  0  0  0  0
   26.9649  -20.3775  -15.3526 C   0  0  0  0  0  0  0  0  0  0  0  0
   27.7373  -20.9953  -16.4118 C   0  0  0  0  0  0  0  0  0  0  0  0
   27.9356  -22.2083  -16.5308 O   0  0  0  0  0  0  0  0  0  0  0  0
   25.6049  -20.5555  -13.2940 C   0  0  0  0  0  0  0  0  0  0  0  0
   24.5835  -19.7739  -13.2649 O   0  0  0  0  0  0  0  0  0  0  0  0
   28.3384  -20.2060  -17.4203 O   0  0  0  0  0  0  0  0  0  0  0  0
   22.6316  -21.4609   -8.8904 C   0  0  0  0  0  0  0  0  0  0  0  0
   23.6787  -20.4382   -9.3330 C   0  0  2  0  0  0  0  0  0  0  0  0
   23.0579  -19.0891   -9.4165 C   0  0  0  0  0  0  0  0  0  0  0  0
   24.3386  -20.9121  -10.5921 C   0  0  0  0  0  0  0  0  0  0  0  0
   25.6629  -20.2210  -10.8393 C   0  0  2  0  0  0  0  0  0  0  0  0
   26.2524  -20.7240  -12.0725 N   0  0  0  0  0  0  0  0  0  0  0  0
   26.6253  -20.4892   -9.7461 C   0  0  0  0  0  0  0  0  0  0  0  0
   26.6496  -19.8230   -8.5350 O   0  0  0  0  0  0  0  0  0  0  0  0
   27.4928  -21.3804   -9.9073 O   0  0  0  0  0  0  0  0  0  0  0  0
  2  1  1  0
  3  4  1  6
  3  2  1  0
  5  6  2  0
  5  3  1  0
  7  5  1  0
  8  7  1  0
  8 12  1  0
  8  9  1  6
 10  9  1  0
 10 14  1  0
 11 10  2  0
 12 20  1  0
 13 12  2  0
 16 15  1  6
 16 17  1  0
 18 16  1  0
 19 18  1  1
 20 19  1  0
 21 22  1  0
 21 19  1  0
 23 21  2  0
M  END
$$$$
