TTM.pdb
     RDKit          3D

 23 22  0  0  1  0  0  0  0  0999 V2000
   16.5202  -11.1752  -18.0504 C   0  0  0  0  0  0  0  0  0  0  0  0
   17.3490  -10.4733  -17.0100 C   0  0  1  0  0  0  0  0  0  0  0  0
   16.5321  -10.2758  -15.8872 O   0  0  0  0  0  0  0  0  0  0  0  0
   18.5371  -11.3464  -16.6310 C   0  0  2  0  0  0  0  0  0  0  0  0
   18.0340  -12.5762  -16.0984 N   0  0  0  0  0  0  0  0  0  0  0  0
   19.4466  -10.6380  -15.6984 C   0  0  0  0  0  0  0  0  0  0  0  0
   19.1702  -10.7082  -14.4722 O   0  0  0  0  0  0  0  0  0  0  0  0
   22.9245  -11.0230  -14.8149 C   0  0  0  0  0  0  0  0  0  0  0  0
   22.8052   -9.6018  -15.2989 C   0  0  1  0  0  0  0  0  0  0  0  0
   23.0789   -9.5516  -16.6791 O   0  0  0  0  0  0  0  0  0  0  0  0
   21.3499   -9.1855  -15.1500 C   0  0  2  0  0  0  0  0  0  0  0  0
   20.5864   -9.9042  -16.1301 N   0  0  0  0  0  0  0  0  0  0  0  0
   21.2901   -7.7150  -15.3482 C   0  0  0  0  0  0  0  0  0  0  0  0
   20.8464   -7.3033  -16.4492 O   0  0  0  0  0  0  0  0  0  0  0  0
   18.1373   -1.0725  -15.2887 C   0  0  0  0  0  0  0  0  0  0  0  0
   18.3776   -2.8118  -15.0432 S   0  0  0  0  0  0  0  0  0  0  0  0
   20.0666   -3.3888  -14.9271 C   0  0  0  0  0  0  0  0  0  0  0  0
   20.2494   -4.8523  -14.8076 C   0  0  0  0  0  0  0  0  0  0  0  0
   21.6391   -5.3637  -14.6641 C   0  0  2  0  0  0  0  0  0  0  0  0
   21.6969   -6.7768  -14.3853 N   0  0  0  0  0  0  0  0  0  0  0  0
   22.4057   -4.6503  -13.6015 C   0  0  0  0  0  0  0  0  0  0  0  0
   22.6915   -5.1573  -12.5002 O   0  0  0  0  0  0  0  0  0  0  0  0
   22.8572   -3.3300  -13.7973 O   0  0  0  0  0  0  0  0  0  0  0  0
  2  1  1  6
  2  3  1  0
  4  2  1  0
  4  5  1  1
  6  4  1  0
  7  6  2  0
  9  8  1  6
  9 11  1  0
 10  9  1  0
 11 12  1  6
 11 13  1  0
 12  6  1  0
 13 20  1  0
 14 13  2  0
 15 16  1  0
 17 16  1  0
 18 17  1  0
 19 18  1  1
 19 21  1  0
 20 19  1  0
 21 22  2  0
 21 23  1  0
M  END
$$$$
