TTM.pdb
     RDKit          3D

 23 22  0  0  1  0  0  0  0  0999 V2000
   23.7580  -11.8493  -20.6937 C   0  0  0  0  0  0  0  0  0  0  0  0
   23.9650  -13.2559  -20.2030 C   0  0  1  0  0  0  0  0  0  0  0  0
   24.3369  -14.0345  -21.3088 O   0  0  0  0  0  0  0  0  0  0  0  0
   25.0793  -13.2749  -19.1660 C   0  0  2  0  0  0  0  0  0  0  0  0
   25.4010  -14.6408  -18.8831 N   0  0  0  0  0  0  0  0  0  0  0  0
   24.6993  -12.5049  -17.9570 C   0  0  0  0  0  0  0  0  0  0  0  0
   23.9501  -13.0837  -17.1271 O   0  0  0  0  0  0  0  0  0  0  0  0
   26.6633  -10.9722  -15.2902 C   0  0  0  0  0  0  0  0  0  0  0  0
   25.8135   -9.8556  -15.8376 C   0  0  1  0  0  0  0  0  0  0  0  0
   26.5354   -9.1569  -16.8240 O   0  0  0  0  0  0  0  0  0  0  0  0
   24.6323  -10.4870  -16.5582 C   0  0  2  0  0  0  0  0  0  0  0  0
   25.1397  -11.1746  -17.7114 N   0  0  0  0  0  0  0  0  0  0  0  0
   23.6969   -9.3902  -16.9153 C   0  0  0  0  0  0  0  0  0  0  0  0
   23.9052   -8.7905  -17.9996 O   0  0  0  0  0  0  0  0  0  0  0  0
   16.5621   -6.5096  -17.9322 C   0  0  0  0  0  0  0  0  0  0  0  0
   17.6898   -7.7160  -17.2872 S   0  0  0  0  0  0  0  0  0  0  0  0
   19.4019   -7.2233  -17.1295 C   0  0  0  0  0  0  0  0  0  0  0  0
   20.3497   -8.2808  -16.7137 C   0  0  0  0  0  0  0  0  0  0  0  0
   21.7712   -7.8915  -16.5111 C   0  0  2  0  0  0  0  0  0  0  0  0
   22.6104   -8.9954  -16.1176 N   0  0  0  0  0  0  0  0  0  0  0  0
   21.9298   -6.8058  -15.5002 C   0  0  0  0  0  0  0  0  0  0  0  0
   22.3378   -6.9998  -14.3394 O   0  0  0  0  0  0  0  0  0  0  0  0
   21.6169   -5.4692  -15.8182 O   0  0  0  0  0  0  0  0  0  0  0  0
  2  1  1  6
  2  3  1  0
  4  2  1  0
  4  5  1  1
  6  4  1  0
  7  6  2  0
  9  8  1  6
  9 11  1  0
 10  9  1  0
 11 12  1  6
 11 13  1  0
 12  6  1  0
 13 20  1  0
 14 13  2  0
 15 16  1  0
 17 16  1  0
 18 17  1  0
 19 18  1  1
 19 21  1  0
 20 19  1  0
 21 22  2  0
 21 23  1  0
M  END
$$$$
