TTM.pdb
     RDKit          3D

 23 22  0  0  1  0  0  0  0  0999 V2000
   25.3937  -25.7229  -16.5344 C   0  0  0  0  0  0  0  0  0  0  0  0
   26.8870  -25.6266  -16.6843 C   0  0  1  0  0  0  0  0  0  0  0  0
   27.3153  -26.7796  -17.3584 O   0  0  0  0  0  0  0  0  0  0  0  0
   27.2382  -24.3938  -17.5054 C   0  0  2  0  0  0  0  0  0  0  0  0
   28.6545  -24.3862  -17.7140 N   0  0  0  0  0  0  0  0  0  0  0  0
   26.7398  -23.1575  -16.8558 C   0  0  0  0  0  0  0  0  0  0  0  0
   27.4747  -22.6445  -15.9716 O   0  0  0  0  0  0  0  0  0  0  0  0
   23.5001  -19.5138  -16.5185 C   0  0  0  0  0  0  0  0  0  0  0  0
   23.9977  -20.6950  -17.3095 C   0  0  1  0  0  0  0  0  0  0  0  0
   24.5810  -20.2443  -18.5091 O   0  0  0  0  0  0  0  0  0  0  0  0
   25.1255  -21.3377  -16.5167 C   0  0  2  0  0  0  0  0  0  0  0  0
   25.4969  -22.5505  -17.1884 N   0  0  0  0  0  0  0  0  0  0  0  0
   24.6153  -21.5810  -15.1434 C   0  0  0  0  0  0  0  0  0  0  0  0
   23.8384  -22.5557  -14.9856 O   0  0  0  0  0  0  0  0  0  0  0  0
   25.5373  -20.5530   -7.2737 C   0  0  0  0  0  0  0  0  0  0  0  0
   25.9691  -20.1845   -8.9533 S   0  0  0  0  0  0  0  0  0  0  0  0
   24.9391  -20.8964  -10.2305 C   0  0  0  0  0  0  0  0  0  0  0  0
   25.3638  -20.6470  -11.6258 C   0  0  0  0  0  0  0  0  0  0  0  0
   24.4750  -21.1353  -12.7144 C   0  0  2  0  0  0  0  0  0  0  0  0
   24.9503  -20.7915  -14.0311 N   0  0  0  0  0  0  0  0  0  0  0  0
   23.0764  -20.6334  -12.5813 C   0  0  0  0  0  0  0  0  0  0  0  0
   22.6920  -19.5376  -13.0319 O   0  0  0  0  0  0  0  0  0  0  0  0
   22.0933  -21.3964  -11.9202 O   0  0  0  0  0  0  0  0  0  0  0  0
  2  1  1  6
  2  3  1  0
  4  2  1  0
  4  5  1  1
  6  4  1  0
  7  6  2  0
  9  8  1  1
  9 11  1  0
 10  9  1  0
 11 12  1  6
 11 13  1  0
 12  6  1  0
 13 20  1  0
 14 13  2  0
 15 16  1  0
 17 16  1  0
 18 17  1  0
 19 18  1  1
 19 21  1  0
 20 19  1  0
 21 22  2  0
 21 23  1  0
M  END
$$$$
