TTM.pdb
     RDKit          3D

 23 22  0  0  1  0  0  0  0  0999 V2000
   41.5552  -10.5722  -11.2179 C   0  0  0  0  0  0  0  0  0  0  0  0
   41.8118  -10.7370   -9.7452 C   0  0  1  0  0  0  0  0  0  0  0  0
   43.0286  -11.4206   -9.6062 O   0  0  0  0  0  0  0  0  0  0  0  0
   41.9169   -9.3670   -9.0899 C   0  0  2  0  0  0  0  0  0  0  0  0
   42.2215   -9.5583   -7.7043 N   0  0  0  0  0  0  0  0  0  0  0  0
   40.6846   -8.5720   -9.3097 C   0  0  0  0  0  0  0  0  0  0  0  0
   40.0614   -8.1946   -8.2830 O   0  0  0  0  0  0  0  0  0  0  0  0
   40.1318   -6.0615   -8.8773 C   0  0  0  0  0  0  0  0  0  0  0  0
   39.5991   -5.9423  -10.2810 C   0  0  1  0  0  0  0  0  0  0  0  0
   40.6556   -5.6343  -11.1593 O   0  0  0  0  0  0  0  0  0  0  0  0
   39.0981   -7.3155  -10.7014 C   0  0  2  0  0  0  0  0  0  0  0  0
   40.1983   -8.2320  -10.6026 N   0  0  0  0  0  0  0  0  0  0  0  0
   38.5840   -7.1908  -12.0890 C   0  0  0  0  0  0  0  0  0  0  0  0
   39.4231   -7.2761  -13.0203 O   0  0  0  0  0  0  0  0  0  0  0  0
   35.5686  -12.4165  -14.2256 C   0  0  0  0  0  0  0  0  0  0  0  0
   35.0851  -10.7270  -14.4595 S   0  0  0  0  0  0  0  0  0  0  0  0
   36.2709   -9.4719  -13.9932 C   0  0  0  0  0  0  0  0  0  0  0  0
   35.8018   -8.0706  -14.0688 C   0  0  0  0  0  0  0  0  0  0  0  0
   36.7901   -6.9964  -13.7809 C   0  0  2  0  0  0  0  0  0  0  0  0
   37.2318   -6.9859  -12.4088 N   0  0  0  0  0  0  0  0  0  0  0  0
   36.2720   -5.6370  -14.1111 C   0  0  0  0  0  0  0  0  0  0  0  0
   35.9659   -4.7890  -13.2516 O   0  0  0  0  0  0  0  0  0  0  0  0
   36.0986   -5.2339  -15.4501 O   0  0  0  0  0  0  0  0  0  0  0  0
  2  1  1  6
  2  3  1  0
  4  2  1  0
  4  5  1  1
  6  4  1  0
  7  6  2  0
  9  8  1  1
  9 11  1  0
 10  9  1  0
 11 12  1  6
 11 13  1  0
 12  6  1  0
 13 20  1  0
 14 13  2  0
 15 16  1  0
 17 16  1  0
 18 17  1  0
 19 18  1  1
 19 21  1  0
 20 19  1  0
 21 22  2  0
 21 23  1  0
M  END
$$$$
