TTM.pdb
     RDKit          3D

 23 22  0  0  1  0  0  0  0  0999 V2000
   16.9602  -14.9081  -16.3373 C   0  0  0  0  0  0  0  0  0  0  0  0
   18.0188  -13.9251  -16.7558 C   0  0  1  0  0  0  0  0  0  0  0  0
   18.9762  -14.6317  -17.4983 O   0  0  0  0  0  0  0  0  0  0  0  0
   17.3940  -12.8428  -17.6251 C   0  0  2  0  0  0  0  0  0  0  0  0
   16.8666  -13.4656  -18.8012 N   0  0  0  0  0  0  0  0  0  0  0  0
   18.3693  -11.7668  -17.9248 C   0  0  0  0  0  0  0  0  0  0  0  0
   19.2214  -12.0057  -18.8201 O   0  0  0  0  0  0  0  0  0  0  0  0
   17.5791   -8.2033  -18.7942 C   0  0  0  0  0  0  0  0  0  0  0  0
   18.5945   -8.1723  -17.6822 C   0  0  1  0  0  0  0  0  0  0  0  0
   17.9311   -8.0891  -16.4431 O   0  0  0  0  0  0  0  0  0  0  0  0
   19.3133   -9.5128  -17.6778 C   0  0  2  0  0  0  0  0  0  0  0  0
   18.3737  -10.5119  -17.2546 N   0  0  0  0  0  0  0  0  0  0  0  0
   20.4686   -9.3898  -16.7529 C   0  0  0  0  0  0  0  0  0  0  0  0
   20.3158   -9.8264  -15.5848 O   0  0  0  0  0  0  0  0  0  0  0  0
   27.8359  -10.6720  -14.8743 C   0  0  0  0  0  0  0  0  0  0  0  0
   26.4465  -10.6594  -15.9755 S   0  0  0  0  0  0  0  0  0  0  0  0
   25.0789   -9.5906  -15.5437 C   0  0  0  0  0  0  0  0  0  0  0  0
   23.8887   -9.6676  -16.4195 C   0  0  0  0  0  0  0  0  0  0  0  0
   22.7726   -8.7215  -16.1502 C   0  0  2  0  0  0  0  0  0  0  0  0
   21.7019   -8.8204  -17.1102 N   0  0  0  0  0  0  0  0  0  0  0  0
   23.2240   -7.3002  -16.1048 C   0  0  0  0  0  0  0  0  0  0  0  0
   23.1337   -6.5177  -17.0697 O   0  0  0  0  0  0  0  0  0  0  0  0
   23.7911   -6.7578  -14.9345 O   0  0  0  0  0  0  0  0  0  0  0  0
  2  1  1  6
  2  3  1  0
  4  2  1  0
  4  5  1  6
  6  4  1  0
  7  6  2  0
  9  8  1  6
  9 11  1  0
 10  9  1  0
 11 12  1  1
 11 13  1  0
 12  6  1  0
 13 20  1  0
 14 13  2  0
 15 16  1  0
 17 16  1  0
 18 17  1  0
 19 18  1  6
 19 21  1  0
 20 19  1  0
 21 22  2  0
 21 23  1  0
M  END
$$$$
