TTM.pdb
     RDKit          3D

 23 22  0  0  1  0  0  0  0  0999 V2000
   20.7668  -18.6348  -11.7679 C   0  0  0  0  0  0  0  0  0  0  0  0
   20.3675  -19.6792  -12.7737 C   0  0  1  0  0  0  0  0  0  0  0  0
   19.5551  -19.0513  -13.7292 O   0  0  0  0  0  0  0  0  0  0  0  0
   21.6120  -20.2387  -13.4487 C   0  0  2  0  0  0  0  0  0  0  0  0
   21.1925  -21.1000  -14.5124 N   0  0  0  0  0  0  0  0  0  0  0  0
   22.4956  -20.9142  -12.4680 C   0  0  0  0  0  0  0  0  0  0  0  0
   21.9996  -21.8761  -11.8247 O   0  0  0  0  0  0  0  0  0  0  0  0
   25.1658  -22.9089  -13.0058 C   0  0  0  0  0  0  0  0  0  0  0  0
   25.7644  -21.9287  -12.0315 C   0  0  1  0  0  0  0  0  0  0  0  0
   26.4079  -20.8963  -12.7401 O   0  0  0  0  0  0  0  0  0  0  0  0
   24.6183  -21.2654  -11.2832 C   0  0  2  0  0  0  0  0  0  0  0  0
   23.8439  -20.5235  -12.2372 N   0  0  0  0  0  0  0  0  0  0  0  0
   25.2185  -20.3970  -10.2387 C   0  0  0  0  0  0  0  0  0  0  0  0
   25.1355  -19.1551  -10.4096 O   0  0  0  0  0  0  0  0  0  0  0  0
   29.5297  -20.3935   -3.6912 C   0  0  0  0  0  0  0  0  0  0  0  0
   27.8687  -20.5526   -4.2901 S   0  0  0  0  0  0  0  0  0  0  0  0
   27.4863  -19.7523   -5.8433 C   0  0  0  0  0  0  0  0  0  0  0  0
   26.7431  -20.5658   -6.8309 C   0  0  0  0  0  0  0  0  0  0  0  0
   26.5316  -19.9837   -8.1837 C   0  0  2  0  0  0  0  0  0  0  0  0
   25.8630  -20.8838   -9.0896 N   0  0  0  0  0  0  0  0  0  0  0  0
   27.8052  -19.5437   -8.8240 C   0  0  0  0  0  0  0  0  0  0  0  0
   28.4482  -20.2424   -9.6301 O   0  0  0  0  0  0  0  0  0  0  0  0
   28.3591  -18.2795   -8.5401 O   0  0  0  0  0  0  0  0  0  0  0  0
  2  1  1  1
  2  3  1  0
  4  2  1  0
  4  5  1  6
  6  4  1  0
  7  6  2  0
  9  8  1  6
  9 11  1  0
 10  9  1  0
 11 12  1  6
 11 13  1  0
 12  6  1  0
 13 20  1  0
 14 13  2  0
 15 16  1  0
 17 16  1  0
 18 17  1  0
 19 18  1  1
 19 21  1  0
 20 19  1  0
 21 22  2  0
 21 23  1  0
M  END
$$$$
