TTM.pdb
     RDKit          3D

 23 22  0  0  1  0  0  0  0  0999 V2000
   16.3830  -13.7298  -15.2936 C   0  0  0  0  0  0  0  0  0  0  0  0
   17.2646  -12.6539  -15.8653 C   0  0  1  0  0  0  0  0  0  0  0  0
   17.8765  -13.1797  -17.0126 O   0  0  0  0  0  0  0  0  0  0  0  0
   16.4162  -11.4483  -16.2450 C   0  0  2  0  0  0  0  0  0  0  0  0
   15.6048  -11.8106  -17.3673 N   0  0  0  0  0  0  0  0  0  0  0  0
   17.2616  -10.2569  -16.4995 C   0  0  0  0  0  0  0  0  0  0  0  0
   17.7085  -10.1166  -17.6681 O   0  0  0  0  0  0  0  0  0  0  0  0
   16.4634   -6.8642  -16.5642 C   0  0  0  0  0  0  0  0  0  0  0  0
   17.6030   -6.9097  -15.5806 C   0  0  1  0  0  0  0  0  0  0  0  0
   17.0919   -7.0534  -14.2766 O   0  0  0  0  0  0  0  0  0  0  0  0
   18.3981   -8.1769  -15.8557 C   0  0  2  0  0  0  0  0  0  0  0  0
   17.5748   -9.2967  -15.4977 N   0  0  0  0  0  0  0  0  0  0  0  0
   19.6405   -8.1017  -15.0456 C   0  0  0  0  0  0  0  0  0  0  0  0
   19.9140   -9.0930  -14.3237 O   0  0  0  0  0  0  0  0  0  0  0  0
   26.6874   -9.7672  -14.5894 C   0  0  0  0  0  0  0  0  0  0  0  0
   25.0282   -9.5956  -15.1902 S   0  0  0  0  0  0  0  0  0  0  0  0
   24.0485   -8.2685  -14.4987 C   0  0  0  0  0  0  0  0  0  0  0  0
   22.6400   -8.1956  -14.9465 C   0  0  0  0  0  0  0  0  0  0  0  0
   21.8053   -7.0836  -14.4171 C   0  0  2  0  0  0  0  0  0  0  0  0
   20.5104   -6.9989  -15.0445 N   0  0  0  0  0  0  0  0  0  0  0  0
   22.4709   -5.7548  -14.5474 C   0  0  0  0  0  0  0  0  0  0  0  0
   22.1603   -4.9105  -15.4089 O   0  0  0  0  0  0  0  0  0  0  0  0
   23.5135   -5.3789  -13.6772 O   0  0  0  0  0  0  0  0  0  0  0  0
  2  1  1  6
  2  3  1  0
  4  2  1  0
  4  5  1  6
  6  4  1  0
  7  6  2  0
  9  8  1  6
  9 11  1  0
 10  9  1  0
 11 12  1  1
 11 13  1  0
 12  6  1  0
 13 20  1  0
 14 13  2  0
 15 16  1  0
 17 16  1  0
 18 17  1  0
 19 18  1  6
 19 21  1  0
 20 19  1  0
 21 22  2  0
 21 23  1  0
M  END
$$$$
