TTM.pdb
     RDKit          3D

 23 22  0  0  1  0  0  0  0  0999 V2000
   17.6771  -12.0191  -14.5255 C   0  0  0  0  0  0  0  0  0  0  0  0
   18.3997  -10.8316  -15.0997 C   0  0  1  0  0  0  0  0  0  0  0  0
   19.7703  -11.0267  -14.8747 O   0  0  0  0  0  0  0  0  0  0  0  0
   18.1338  -10.7482  -16.5963 C   0  0  2  0  0  0  0  0  0  0  0  0
   18.5592  -11.9777  -17.1934 N   0  0  0  0  0  0  0  0  0  0  0  0
   18.7867   -9.5569  -17.1909 C   0  0  0  0  0  0  0  0  0  0  0  0
   19.2615   -9.6883  -18.3494 O   0  0  0  0  0  0  0  0  0  0  0  0
   17.3877   -6.5048  -18.3446 C   0  0  0  0  0  0  0  0  0  0  0  0
   18.3841   -6.1059  -17.2880 C   0  0  1  0  0  0  0  0  0  0  0  0
   17.7577   -6.1092  -16.0271 O   0  0  0  0  0  0  0  0  0  0  0  0
   19.4475   -7.1916  -17.2248 C   0  0  2  0  0  0  0  0  0  0  0  0
   18.8910   -8.3088  -16.5162 N   0  0  0  0  0  0  0  0  0  0  0  0
   20.6284   -6.6116  -16.5360 C   0  0  0  0  0  0  0  0  0  0  0  0
   20.7440   -6.8417  -15.3062 O   0  0  0  0  0  0  0  0  0  0  0  0
   27.9872   -3.5216  -17.1157 C   0  0  0  0  0  0  0  0  0  0  0  0
   26.4704   -4.0773  -17.8464 S   0  0  0  0  0  0  0  0  0  0  0  0
   25.1624   -4.5651  -16.7283 C   0  0  0  0  0  0  0  0  0  0  0  0
   23.9229   -5.0735  -17.3563 C   0  0  0  0  0  0  0  0  0  0  0  0
   22.7750   -5.3849  -16.4625 C   0  0  2  0  0  0  0  0  0  0  0  0
   21.6058   -5.8327  -17.1768 N   0  0  0  0  0  0  0  0  0  0  0  0
   22.3812   -4.2255  -15.6101 C   0  0  0  0  0  0  0  0  0  0  0  0
   21.5904   -3.3367  -15.9790 O   0  0  0  0  0  0  0  0  0  0  0  0
   22.8994   -4.0749  -14.3085 O   0  0  0  0  0  0  0  0  0  0  0  0
  2  1  1  6
  2  3  1  0
  4  2  1  0
  4  5  1  6
  6  4  1  0
  7  6  2  0
  9  8  1  6
  9 11  1  0
 10  9  1  0
 11 12  1  1
 11 13  1  0
 12  6  1  0
 13 20  1  0
 14 13  2  0
 15 16  1  0
 17 16  1  0
 18 17  1  0
 19 18  1  6
 19 21  1  0
 20 19  1  0
 21 22  2  0
 21 23  1  0
M  END
$$$$
