TTM.pdb
     RDKit          3D

 23 22  0  0  1  0  0  0  0  0999 V2000
   21.2077  -11.9069  -17.7795 C   0  0  0  0  0  0  0  0  0  0  0  0
   19.8212  -12.4874  -17.8310 C   0  0  1  0  0  0  0  0  0  0  0  0
   19.9539  -13.8776  -17.9607 O   0  0  0  0  0  0  0  0  0  0  0  0
   19.0843  -12.1621  -16.5393 C   0  0  2  0  0  0  0  0  0  0  0  0
   17.8561  -12.8974  -16.5300 N   0  0  0  0  0  0  0  0  0  0  0  0
   18.8876  -10.7001  -16.3882 C   0  0  0  0  0  0  0  0  0  0  0  0
   18.3709  -10.0927  -17.3625 O   0  0  0  0  0  0  0  0  0  0  0  0
   16.7854   -8.8116  -14.2928 C   0  0  0  0  0  0  0  0  0  0  0  0
   18.1505   -8.2474  -13.9987 C   0  0  1  0  0  0  0  0  0  0  0  0
   18.7142   -8.9292  -12.9034 O   0  0  0  0  0  0  0  0  0  0  0  0
   19.0449   -8.5630  -15.1878 C   0  0  2  0  0  0  0  0  0  0  0  0
   19.2521   -9.9831  -15.2148 N   0  0  0  0  0  0  0  0  0  0  0  0
   20.3092   -7.8068  -15.0007 C   0  0  0  0  0  0  0  0  0  0  0  0
   21.2947   -8.4419  -14.5489 O   0  0  0  0  0  0  0  0  0  0  0  0
   25.0939   -1.9919  -17.4828 C   0  0  0  0  0  0  0  0  0  0  0  0
   23.5339   -2.8343  -17.4749 S   0  0  0  0  0  0  0  0  0  0  0  0
   23.2677   -4.0364  -16.1775 C   0  0  0  0  0  0  0  0  0  0  0  0
   21.9953   -4.7893  -16.2366 C   0  0  0  0  0  0  0  0  0  0  0  0
   21.7408   -5.7969  -15.1720 C   0  0  2  0  0  0  0  0  0  0  0  0
   20.4578   -6.4420  -15.2975 N   0  0  0  0  0  0  0  0  0  0  0  0
   21.8358   -5.2182  -13.8002 C   0  0  0  0  0  0  0  0  0  0  0  0
   20.8442   -4.9069  -13.1137 O   0  0  0  0  0  0  0  0  0  0  0  0
   23.0882   -4.9888  -13.1965 O   0  0  0  0  0  0  0  0  0  0  0  0
  2  1  1  1
  2  3  1  0
  4  2  1  0
  4  5  1  6
  6  4  1  0
  7  6  2  0
  9  8  1  6
  9 11  1  0
 10  9  1  0
 11 12  1  1
 11 13  1  0
 12  6  1  0
 13 20  1  0
 14 13  2  0
 15 16  1  0
 17 16  1  0
 18 17  1  0
 19 18  1  6
 19 21  1  0
 20 19  1  0
 21 22  2  0
 21 23  1  0
M  END
$$$$
