TTM.pdb
     RDKit          3D

 23 22  0  0  1  0  0  0  0  0999 V2000
   19.6129  -12.5700  -20.1784 C   0  0  0  0  0  0  0  0  0  0  0  0
   19.5581  -13.8296  -19.3586 C   0  0  1  0  0  0  0  0  0  0  0  0
   19.3472  -14.8966  -20.2442 O   0  0  0  0  0  0  0  0  0  0  0  0
   20.8816  -14.0222  -18.6315 C   0  0  2  0  0  0  0  0  0  0  0  0
   20.8706  -15.3176  -18.0223 N   0  0  0  0  0  0  0  0  0  0  0  0
   21.1252  -12.9264  -17.6627 C   0  0  0  0  0  0  0  0  0  0  0  0
   20.4793  -12.9688  -16.5829 O   0  0  0  0  0  0  0  0  0  0  0  0
   24.2838  -11.9418  -16.1377 C   0  0  0  0  0  0  0  0  0  0  0  0
   23.7150  -10.6650  -16.6985 C   0  0  1  0  0  0  0  0  0  0  0  0
   24.2348  -10.4465  -17.9886 O   0  0  0  0  0  0  0  0  0  0  0  0
   22.2193  -10.8698  -16.8840 C   0  0  2  0  0  0  0  0  0  0  0  0
   22.0366  -11.8614  -17.9055 N   0  0  0  0  0  0  0  0  0  0  0  0
   21.6377   -9.5551  -17.2563 C   0  0  0  0  0  0  0  0  0  0  0  0
   21.6156   -9.2643  -18.4783 O   0  0  0  0  0  0  0  0  0  0  0  0
   15.7894   -4.4471  -16.6137 C   0  0  0  0  0  0  0  0  0  0  0  0
   16.6533   -5.9465  -16.2281 S   0  0  0  0  0  0  0  0  0  0  0  0
   18.3828   -6.0247  -16.6777 C   0  0  0  0  0  0  0  0  0  0  0  0
   19.0683   -7.3091  -16.4134 C   0  0  0  0  0  0  0  0  0  0  0  0
   20.5086   -7.4081  -16.7726 C   0  0  2  0  0  0  0  0  0  0  0  0
   21.1200   -8.6359  -16.3290 N   0  0  0  0  0  0  0  0  0  0  0  0
   21.3125   -6.2708  -16.2377 C   0  0  0  0  0  0  0  0  0  0  0  0
   22.1226   -6.3818  -15.2981 O   0  0  0  0  0  0  0  0  0  0  0  0
   21.1911   -4.9781  -16.7850 O   0  0  0  0  0  0  0  0  0  0  0  0
  2  1  1  6
  2  3  1  0
  4  2  1  0
  4  5  1  1
  6  4  1  0
  7  6  2  0
  9  8  1  6
  9 11  1  0
 10  9  1  0
 11 12  1  6
 11 13  1  0
 12  6  1  0
 13 20  1  0
 14 13  2  0
 15 16  1  0
 17 16  1  0
 18 17  1  0
 19 18  1  1
 19 21  1  0
 20 19  1  0
 21 22  2  0
 21 23  1  0
M  END
$$$$
