TTM.pdb
     RDKit          3D

 23 22  0  0  1  0  0  0  0  0999 V2000
   28.4203  -18.0633  -14.9111 C   0  0  0  0  0  0  0  0  0  0  0  0
   27.5578  -17.1987  -15.7889 C   0  0  1  0  0  0  0  0  0  0  0  0
   28.2012  -17.0891  -17.0303 O   0  0  0  0  0  0  0  0  0  0  0  0
   26.1978  -17.8571  -15.9739 C   0  0  2  0  0  0  0  0  0  0  0  0
   25.4488  -17.0761  -16.9111 N   0  0  0  0  0  0  0  0  0  0  0  0
   25.5041  -18.0283  -14.6745 C   0  0  0  0  0  0  0  0  0  0  0  0
   25.0518  -16.9869  -14.1305 O   0  0  0  0  0  0  0  0  0  0  0  0
   22.4807  -19.6837  -13.8656 C   0  0  0  0  0  0  0  0  0  0  0  0
   23.4840  -20.3132  -12.9353 C   0  0  1  0  0  0  0  0  0  0  0  0
   24.0233  -21.4661  -13.5373 O   0  0  0  0  0  0  0  0  0  0  0  0
   24.6453  -19.3425  -12.7855 C   0  0  2  0  0  0  0  0  0  0  0  0
   25.3379  -19.2915  -14.0416 N   0  0  0  0  0  0  0  0  0  0  0  0
   25.5023  -19.8479  -11.6831 C   0  0  0  0  0  0  0  0  0  0  0  0
   26.5191  -20.5112  -12.0064 O   0  0  0  0  0  0  0  0  0  0  0  0
   28.7481  -19.4842   -4.5143 C   0  0  0  0  0  0  0  0  0  0  0  0
   27.8621  -18.7974   -5.8878 S   0  0  0  0  0  0  0  0  0  0  0  0
   27.1825  -19.9513   -7.0733 C   0  0  0  0  0  0  0  0  0  0  0  0
   26.5165  -19.3577   -8.2538 C   0  0  0  0  0  0  0  0  0  0  0  0
   26.0195  -20.2866   -9.3043 C   0  0  2  0  0  0  0  0  0  0  0  0
   25.2394  -19.6267  -10.3212 N   0  0  0  0  0  0  0  0  0  0  0  0
   25.2016  -21.4013   -8.7438 C   0  0  0  0  0  0  0  0  0  0  0  0
   23.9589  -21.4475   -8.8157 O   0  0  0  0  0  0  0  0  0  0  0  0
   25.8124  -22.4878   -8.0867 O   0  0  0  0  0  0  0  0  0  0  0  0
  2  1  1  1
  2  3  1  0
  4  2  1  0
  4  5  1  6
  6  4  1  0
  7  6  2  0
  9  8  1  6
  9 11  1  0
 10  9  1  0
 11 12  1  6
 11 13  1  0
 12  6  1  0
 13 20  1  0
 14 13  2  0
 15 16  1  0
 17 16  1  0
 18 17  1  0
 19 18  1  1
 19 21  1  0
 20 19  1  0
 21 22  2  0
 21 23  1  0
M  END
$$$$
