TTM.pdb
     RDKit          3D

 23 22  0  0  1  0  0  0  0  0999 V2000
   25.1376  -25.8646  -17.2742 C   0  0  0  0  0  0  0  0  0  0  0  0
   25.4527  -24.8373  -16.2220 C   0  0  1  0  0  0  0  0  0  0  0  0
   26.0754  -25.5056  -15.1576 O   0  0  0  0  0  0  0  0  0  0  0  0
   26.4014  -23.7944  -16.7962 C   0  0  2  0  0  0  0  0  0  0  0  0
   27.5646  -24.4712  -17.2842 N   0  0  0  0  0  0  0  0  0  0  0  0
   26.7158  -22.7470  -15.7947 C   0  0  0  0  0  0  0  0  0  0  0  0
   27.9198  -22.3902  -15.7046 O   0  0  0  0  0  0  0  0  0  0  0  0
   26.3208  -19.3532  -15.6581 C   0  0  0  0  0  0  0  0  0  0  0  0
   25.5531  -19.8229  -14.4505 C   0  0  1  0  0  0  0  0  0  0  0  0
   24.2233  -20.1019  -14.8192 O   0  0  0  0  0  0  0  0  0  0  0  0
   26.1495  -21.1524  -14.0144 C   0  0  2  0  0  0  0  0  0  0  0  0
   25.7321  -22.1500  -14.9581 N   0  0  0  0  0  0  0  0  0  0  0  0
   25.6565  -21.4267  -12.6406 C   0  0  0  0  0  0  0  0  0  0  0  0
   24.7376  -22.2751  -12.5209 O   0  0  0  0  0  0  0  0  0  0  0  0
   28.3693  -19.3549   -6.7886 C   0  0  0  0  0  0  0  0  0  0  0  0
   26.7940  -20.0489   -6.3643 S   0  0  0  0  0  0  0  0  0  0  0  0
   25.7398  -20.5554   -7.7175 C   0  0  0  0  0  0  0  0  0  0  0  0
   26.3317  -20.4752   -9.0712 C   0  0  0  0  0  0  0  0  0  0  0  0
   25.5299  -21.0058  -10.2065 C   0  0  2  0  0  0  0  0  0  0  0  0
   26.1556  -20.7976  -11.4883 N   0  0  0  0  0  0  0  0  0  0  0  0
   24.1576  -20.4231  -10.2610 C   0  0  0  0  0  0  0  0  0  0  0  0
   23.8437  -19.4677  -10.9960 O   0  0  0  0  0  0  0  0  0  0  0  0
   23.1194  -20.9398   -9.4606 O   0  0  0  0  0  0  0  0  0  0  0  0
  2  1  1  6
  2  3  1  0
  4  2  1  0
  4  5  1  1
  6  4  1  0
  7  6  2  0
  9  8  1  6
  9 11  1  0
 10  9  1  0
 11 12  1  6
 11 13  1  0
 12  6  1  0
 13 20  1  0
 14 13  2  0
 15 16  1  0
 17 16  1  0
 18 17  1  0
 19 18  1  1
 19 21  1  0
 20 19  1  0
 21 22  2  0
 21 23  1  0
M  END
$$$$
