NQS.pdb
     RDKit          3D

 24 23  0  0  1  0  0  0  0  0999 V2000
   10.5056  -12.0550  -10.6249 N   0  0  0  0  0  0  0  0  0  0  0  0
   10.9304  -11.3543   -9.4668 C   0  0  0  0  0  0  0  0  0  0  0  0
   10.1561  -11.2562   -8.5024 O   0  0  0  0  0  0  0  0  0  0  0  0
   12.2930  -10.7654   -9.4612 C   0  0  0  0  0  0  0  0  0  0  0  0
   12.9479  -11.1431  -10.7737 C   0  0  2  0  0  0  0  0  0  0  0  0
   13.1199  -12.5843  -10.7360 N   0  0  0  0  0  0  0  0  0  0  0  0
   14.2700  -10.4806  -10.9451 C   0  0  0  0  0  0  0  0  0  0  0  0
   15.2639  -10.8150  -10.2332 O   0  0  0  0  0  0  0  0  0  0  0  0
   17.9102  -10.5617  -14.5071 N   0  0  0  0  0  0  0  0  0  0  0  0
   18.3647   -9.2530  -14.2755 C   0  0  0  0  0  0  0  0  0  0  0  0
   19.5537   -8.9286  -14.4866 O   0  0  0  0  0  0  0  0  0  0  0  0
   17.4077   -8.1986  -13.7589 C   0  0  0  0  0  0  0  0  0  0  0  0
   16.0665   -8.7960  -13.5304 C   0  0  0  0  0  0  0  0  0  0  0  0
   15.6784   -8.7849  -12.0811 C   0  0  2  0  0  0  0  0  0  0  0  0
   14.3839   -9.4762  -11.9166 N   0  0  0  0  0  0  0  0  0  0  0  0
   15.5653   -7.4325  -11.5301 C   0  0  0  0  0  0  0  0  0  0  0  0
   14.5405   -6.7427  -11.7254 O   0  0  0  0  0  0  0  0  0  0  0  0
   17.2922   -6.0168   -7.9980 O   0  0  0  0  0  0  0  0  0  0  0  0
   17.5968   -5.3720   -9.1840 C   0  0  0  0  0  0  0  0  0  0  0  0
   16.4769   -5.5707  -10.2034 C   0  0  2  0  0  0  0  0  0  0  0  0
   16.6495   -6.8950  -10.7550 N   0  0  0  0  0  0  0  0  0  0  0  0
   16.6617   -4.5283  -11.2479 C   0  0  0  0  0  0  0  0  0  0  0  0
   17.0658   -4.8275  -12.3892 O   0  0  0  0  0  0  0  0  0  0  0  0
   16.3701   -3.2144  -10.9110 O   0  0  0  0  0  0  0  0  0  0  0  0
  1  2  1  0
  2  4  1  0
  3  2  2  0
  4  5  1  0
  5  7  1  0
  5  6  1  1
  7  8  2  0
  9 10  1  0
 10 11  2  0
 10 12  1  0
 12 13  1  0
 14 13  1  6
 14 16  1  0
 15 14  1  0
 15  7  1  0
 16 17  2  0
 18 19  1  0
 20 19  1  1
 20 22  1  0
 21 20  1  0
 21 16  1  0
 22 23  2  0
 22 24  1  0
M  END
$$$$
