NQS.pdb
     RDKit          3D

 24 23  0  0  1  0  0  0  0  0999 V2000
   17.6246  -12.4883  -18.1776 N   0  0  0  0  0  0  0  0  0  0  0  0
   18.3021  -13.2450  -17.1869 C   0  0  0  0  0  0  0  0  0  0  0  0
   18.2413  -14.4836  -17.2266 O   0  0  0  0  0  0  0  0  0  0  0  0
   19.0590  -12.5148  -16.1394 C   0  0  0  0  0  0  0  0  0  0  0  0
   20.1805  -11.7718  -16.8354 C   0  0  2  0  0  0  0  0  0  0  0  0
   21.0557  -12.7910  -17.3861 N   0  0  0  0  0  0  0  0  0  0  0  0
   20.9422  -10.9072  -15.8926 C   0  0  0  0  0  0  0  0  0  0  0  0
   20.4181  -10.5007  -14.8126 O   0  0  0  0  0  0  0  0  0  0  0  0
   27.1143  -10.0833  -16.1967 N   0  0  0  0  0  0  0  0  0  0  0  0
   26.4473  -11.1905  -15.6472 C   0  0  0  0  0  0  0  0  0  0  0  0
   27.0495  -12.2583  -15.4006 O   0  0  0  0  0  0  0  0  0  0  0  0
   24.9663  -11.1076  -15.3402 C   0  0  0  0  0  0  0  0  0  0  0  0
   24.4619   -9.7400  -15.6293 C   0  0  0  0  0  0  0  0  0  0  0  0
   22.9899   -9.6101  -15.3695 C   0  0  2  0  0  0  0  0  0  0  0  0
   22.2558  -10.5558  -16.2340 N   0  0  0  0  0  0  0  0  0  0  0  0
   22.4840   -8.2572  -15.6125 C   0  0  0  0  0  0  0  0  0  0  0  0
   22.2955   -7.8411  -16.7768 O   0  0  0  0  0  0  0  0  0  0  0  0
   19.7538   -4.8077  -15.0899 O   0  0  0  0  0  0  0  0  0  0  0  0
   20.2501   -6.0531  -14.7465 C   0  0  0  0  0  0  0  0  0  0  0  0
   21.7769   -6.0495  -14.7857 C   0  0  2  0  0  0  0  0  0  0  0  0
   22.2016   -7.3995  -14.4945 N   0  0  0  0  0  0  0  0  0  0  0  0
   22.2280   -5.1072  -13.7272 C   0  0  0  0  0  0  0  0  0  0  0  0
   22.6043   -5.5246  -12.6139 O   0  0  0  0  0  0  0  0  0  0  0  0
   22.2163   -3.7509  -14.0191 O   0  0  0  0  0  0  0  0  0  0  0  0
  1  2  1  0
  2  4  1  0
  3  2  2  0
  4  5  1  0
  5  7  1  0
  5  6  1  1
  7  8  2  0
  9 10  1  0
 10 11  2  0
 10 12  1  0
 12 13  1  0
 14 13  1  6
 14 16  1  0
 15 14  1  0
 15  7  1  0
 16 17  2  0
 18 19  1  0
 20 19  1  1
 20 22  1  0
 21 20  1  0
 21 16  1  0
 22 23  2  0
 22 24  1  0
M  END
$$$$
