NQS.pdb
     RDKit          3D

 24 23  0  0  1  0  0  0  0  0999 V2000
   15.2019  -14.6316  -14.7651 N   0  0  0  0  0  0  0  0  0  0  0  0
   15.7618  -13.6972  -15.6740 C   0  0  0  0  0  0  0  0  0  0  0  0
   15.6430  -13.8950  -16.8931 O   0  0  0  0  0  0  0  0  0  0  0  0
   16.4699  -12.5156  -15.1210 C   0  0  0  0  0  0  0  0  0  0  0  0
   17.6882  -12.2787  -15.9894 C   0  0  2  0  0  0  0  0  0  0  0  0
   18.5952  -13.3790  -15.7165 N   0  0  0  0  0  0  0  0  0  0  0  0
   18.3529  -10.9850  -15.6718 C   0  0  0  0  0  0  0  0  0  0  0  0
   18.5841  -10.6482  -14.4720 O   0  0  0  0  0  0  0  0  0  0  0  0
   22.5279   -9.1470  -15.1555 N   0  0  0  0  0  0  0  0  0  0  0  0
   22.5539   -7.9516  -15.8926 C   0  0  0  0  0  0  0  0  0  0  0  0
   23.3477   -7.0279  -15.6094 O   0  0  0  0  0  0  0  0  0  0  0  0
   21.6069   -7.7597  -17.0591 C   0  0  0  0  0  0  0  0  0  0  0  0
   20.7812   -8.9801  -17.2511 C   0  0  0  0  0  0  0  0  0  0  0  0
   19.5088   -8.9365  -16.4573 C   0  0  2  0  0  0  0  0  0  0  0  0
   18.7159  -10.1502  -16.7381 N   0  0  0  0  0  0  0  0  0  0  0  0
   18.6905   -7.7584  -16.7536 C   0  0  0  0  0  0  0  0  0  0  0  0
   18.2303   -7.5676  -17.9008 O   0  0  0  0  0  0  0  0  0  0  0  0
   16.9926   -5.6903  -13.7574 O   0  0  0  0  0  0  0  0  0  0  0  0
   16.5052   -5.5475  -15.0448 C   0  0  0  0  0  0  0  0  0  0  0  0
   17.6421   -5.6423  -16.0603 C   0  0  2  0  0  0  0  0  0  0  0  0
   18.4150   -6.8113  -15.7084 N   0  0  0  0  0  0  0  0  0  0  0  0
   18.4503   -4.4026  -15.9120 C   0  0  0  0  0  0  0  0  0  0  0  0
   19.6389   -4.4520  -15.5378 O   0  0  0  0  0  0  0  0  0  0  0  0
   17.8389   -3.1917  -16.2032 O   0  0  0  0  0  0  0  0  0  0  0  0
  1  2  1  0
  2  4  1  0
  3  2  2  0
  4  5  1  0
  5  7  1  0
  5  6  1  1
  7  8  2  0
  9 10  1  0
 10 11  2  0
 10 12  1  0
 12 13  1  0
 14 13  1  6
 14 16  1  0
 15 14  1  0
 15  7  1  0
 16 17  2  0
 18 19  1  0
 20 19  1  1
 20 22  1  0
 21 20  1  0
 21 16  1  0
 22 23  2  0
 22 24  1  0
M  END
$$$$
