NQS.pdb
     RDKit          3D

 24 23  0  0  1  0  0  0  0  0999 V2000
   17.5567  -13.7042  -15.5817 N   0  0  0  0  0  0  0  0  0  0  0  0
   17.2975  -13.0202  -14.3661 C   0  0  0  0  0  0  0  0  0  0  0  0
   16.9380  -13.6701  -13.3723 O   0  0  0  0  0  0  0  0  0  0  0  0
   17.4696  -11.5461  -14.3378 C   0  0  0  0  0  0  0  0  0  0  0  0
   16.3157  -10.9773  -13.5383 C   0  0  2  0  0  0  0  0  0  0  0  0
   15.1400  -11.1121  -14.3795 N   0  0  0  0  0  0  0  0  0  0  0  0
   16.5307   -9.5444  -13.1960 C   0  0  0  0  0  0  0  0  0  0  0  0
   16.3849   -8.6368  -14.0686 O   0  0  0  0  0  0  0  0  0  0  0  0
   15.2832   -7.0274   -7.7603 N   0  0  0  0  0  0  0  0  0  0  0  0
   15.9491   -5.9567   -8.3793 C   0  0  0  0  0  0  0  0  0  0  0  0
   16.0194   -4.8318   -7.8377 O   0  0  0  0  0  0  0  0  0  0  0  0
   16.6021   -6.1505   -9.7322 C   0  0  0  0  0  0  0  0  0  0  0  0
   16.4166   -7.5515  -10.1915 C   0  0  0  0  0  0  0  0  0  0  0  0
   17.0815   -7.8100  -11.5114 C   0  0  2  0  0  0  0  0  0  0  0  0
   16.8991   -9.2282  -11.8808 N   0  0  0  0  0  0  0  0  0  0  0  0
   18.5141   -7.5054  -11.4990 C   0  0  0  0  0  0  0  0  0  0  0  0
   19.2597   -7.9583  -10.6028 O   0  0  0  0  0  0  0  0  0  0  0  0
   20.2287   -7.2859  -14.7980 O   0  0  0  0  0  0  0  0  0  0  0  0
   21.0312   -7.3937  -13.6756 C   0  0  0  0  0  0  0  0  0  0  0  0
   20.5010   -6.5051  -12.5522 C   0  0  2  0  0  0  0  0  0  0  0  0
   19.0661   -6.6740  -12.5330 N   0  0  0  0  0  0  0  0  0  0  0  0
   20.8702   -5.1080  -12.9038 C   0  0  0  0  0  0  0  0  0  0  0  0
   19.9995   -4.2760  -13.2280 O   0  0  0  0  0  0  0  0  0  0  0  0
   22.2130   -4.7618  -12.8591 O   0  0  0  0  0  0  0  0  0  0  0  0
  1  2  1  0
  2  4  1  0
  3  2  2  0
  4  5  1  0
  5  7  1  0
  5  6  1  6
  7  8  2  0
  9 10  1  0
 10 11  2  0
 10 12  1  0
 12 13  1  0
 14 13  1  1
 14 16  1  0
 15 14  1  0
 15  7  1  0
 16 17  2  0
 18 19  1  0
 20 19  1  6
 20 22  1  0
 21 20  1  0
 21 16  1  0
 22 23  2  0
 22 24  1  0
M  END
$$$$
