NQS.pdb
     RDKit          3D

 24 23  0  0  1  0  0  0  0  0999 V2000
   13.6497   -5.9768   -6.3331 N   0  0  0  0  0  0  0  0  0  0  0  0
   14.0412   -5.8483   -7.6907 C   0  0  0  0  0  0  0  0  0  0  0  0
   13.3424   -5.1694   -8.4589 O   0  0  0  0  0  0  0  0  0  0  0  0
   15.2789   -6.5373   -8.1341 C   0  0  0  0  0  0  0  0  0  0  0  0
   14.8792   -7.5222   -9.2132 C   0  0  2  0  0  0  0  0  0  0  0  0
   14.2630   -8.6425   -8.5253 N   0  0  0  0  0  0  0  0  0  0  0  0
   16.0540   -7.9943   -9.9964 C   0  0  0  0  0  0  0  0  0  0  0  0
   16.9123   -8.7709   -9.4800 O   0  0  0  0  0  0  0  0  0  0  0  0
   15.7447  -10.1617  -15.5020 N   0  0  0  0  0  0  0  0  0  0  0  0
   17.1427  -10.0959  -15.3827 C   0  0  0  0  0  0  0  0  0  0  0  0
   17.8947  -10.6761  -16.1961 O   0  0  0  0  0  0  0  0  0  0  0  0
   17.7707   -9.3096  -14.2506 C   0  0  0  0  0  0  0  0  0  0  0  0
   16.7137   -8.7815  -13.3494 C   0  0  0  0  0  0  0  0  0  0  0  0
   17.2851   -8.0896  -12.1470 C   0  0  2  0  0  0  0  0  0  0  0  0
   16.1835   -7.5550  -11.3215 N   0  0  0  0  0  0  0  0  0  0  0  0
   18.1900   -6.9920  -12.4956 C   0  0  0  0  0  0  0  0  0  0  0  0
   17.7464   -5.8533  -12.7619 O   0  0  0  0  0  0  0  0  0  0  0  0
   22.0468   -7.9194  -13.1467 O   0  0  0  0  0  0  0  0  0  0  0  0
   21.8943   -6.5997  -12.7588 C   0  0  0  0  0  0  0  0  0  0  0  0
   20.4517   -6.1442  -12.9685 C   0  0  2  0  0  0  0  0  0  0  0  0
   19.6066   -7.2314  -12.5308 N   0  0  0  0  0  0  0  0  0  0  0  0
   20.2910   -5.8956  -14.4259 C   0  0  0  0  0  0  0  0  0  0  0  0
   19.6063   -6.6589  -15.1359 O   0  0  0  0  0  0  0  0  0  0  0  0
   20.9269   -4.7883  -14.9685 O   0  0  0  0  0  0  0  0  0  0  0  0
  1  2  1  0
  2  4  1  0
  3  2  2  0
  4  5  1  0
  5  7  1  0
  5  6  1  1
  7  8  2  0
  9 10  1  0
 10 11  2  0
 10 12  1  0
 12 13  1  0
 14 13  1  6
 14 16  1  0
 15 14  1  0
 15  7  1  0
 16 17  2  0
 18 19  1  0
 20 19  1  6
 20 22  1  0
 21 20  1  0
 21 16  1  0
 22 23  2  0
 22 24  1  0
M  END
$$$$
