NQS.pdb
     RDKit          3D

 24 23  0  0  1  0  0  0  0  0999 V2000
   18.6620  -14.7286  -18.5462 N   0  0  0  0  0  0  0  0  0  0  0  0
   19.2969  -13.4599  -18.5390 C   0  0  0  0  0  0  0  0  0  0  0  0
   20.1197  -13.1914  -19.4280 O   0  0  0  0  0  0  0  0  0  0  0  0
   18.9452  -12.5034  -17.4597 C   0  0  0  0  0  0  0  0  0  0  0  0
   20.2218  -11.7933  -17.0593 C   0  0  2  0  0  0  0  0  0  0  0  0
   21.0473  -12.7917  -16.4036 N   0  0  0  0  0  0  0  0  0  0  0  0
   19.9591  -10.6631  -16.1266 C   0  0  0  0  0  0  0  0  0  0  0  0
   19.2667  -10.8305  -15.0782 O   0  0  0  0  0  0  0  0  0  0  0  0
   23.6668   -5.7003  -15.5982 N   0  0  0  0  0  0  0  0  0  0  0  0
   22.7239   -5.4756  -14.5816 C   0  0  0  0  0  0  0  0  0  0  0  0
   22.8791   -4.5659  -13.7377 O   0  0  0  0  0  0  0  0  0  0  0  0
   21.4863   -6.3441  -14.4901 C   0  0  0  0  0  0  0  0  0  0  0  0
   21.5564   -7.4381  -15.4933 C   0  0  0  0  0  0  0  0  0  0  0  0
   20.3250   -8.2954  -15.4867 C   0  0  2  0  0  0  0  0  0  0  0  0
   20.4995   -9.4083  -16.4415 N   0  0  0  0  0  0  0  0  0  0  0  0
   19.1116   -7.5552  -15.8403 C   0  0  0  0  0  0  0  0  0  0  0  0
   18.8470   -7.2870  -17.0329 O   0  0  0  0  0  0  0  0  0  0  0  0
   14.6402   -6.7647  -15.1839 O   0  0  0  0  0  0  0  0  0  0  0  0
   15.8392   -7.3284  -14.7840 C   0  0  0  0  0  0  0  0  0  0  0  0
   17.0116   -6.4425  -15.2003 C   0  0  2  0  0  0  0  0  0  0  0  0
   18.2155   -7.1334  -14.7990 N   0  0  0  0  0  0  0  0  0  0  0  0
   16.8599   -5.1603  -14.4622 C   0  0  0  0  0  0  0  0  0  0  0  0
   17.3247   -5.0220  -13.3132 O   0  0  0  0  0  0  0  0  0  0  0  0
   16.1851   -4.1252  -15.0932 O   0  0  0  0  0  0  0  0  0  0  0  0
  1  2  1  0
  2  4  1  0
  3  2  2  0
  4  5  1  0
  5  7  1  0
  5  6  1  1
  7  8  2  0
  9 10  1  0
 10 11  2  0
 10 12  1  0
 12 13  1  0
 14 13  1  6
 14 16  1  0
 15 14  1  0
 15  7  1  0
 16 17  2  0
 18 19  1  0
 20 19  1  1
 20 22  1  0
 21 20  1  0
 21 16  1  0
 22 23  2  0
 22 24  1  0
M  END
$$$$
