NQS.pdb
     RDKit          3D

 24 23  0  0  1  0  0  0  0  0999 V2000
   15.7028  -12.1742  -15.8589 N   0  0  0  0  0  0  0  0  0  0  0  0
   16.5516  -12.5051  -14.7714 C   0  0  0  0  0  0  0  0  0  0  0  0
   16.1483  -13.3038  -13.9119 O   0  0  0  0  0  0  0  0  0  0  0  0
   17.8946  -11.8759  -14.7105 C   0  0  0  0  0  0  0  0  0  0  0  0
   18.0702  -11.0746  -15.9839 C   0  0  2  0  0  0  0  0  0  0  0  0
   18.3222  -12.0433  -17.0357 N   0  0  0  0  0  0  0  0  0  0  0  0
   19.2118  -10.1238  -15.8883 C   0  0  0  0  0  0  0  0  0  0  0  0
   19.7203   -9.8264  -14.7661 O   0  0  0  0  0  0  0  0  0  0  0  0
   23.6193  -10.0885  -18.9578 N   0  0  0  0  0  0  0  0  0  0  0  0
   23.8840   -8.7284  -18.7281 C   0  0  0  0  0  0  0  0  0  0  0  0
   25.0442   -8.2680  -18.8033 O   0  0  0  0  0  0  0  0  0  0  0  0
   22.7519   -7.7840  -18.3804 C   0  0  0  0  0  0  0  0  0  0  0  0
   21.4579   -8.5144  -18.3899 C   0  0  0  0  0  0  0  0  0  0  0  0
   20.8917   -8.6863  -17.0112 C   0  0  2  0  0  0  0  0  0  0  0  0
   19.7080   -9.5669  -17.0754 N   0  0  0  0  0  0  0  0  0  0  0  0
   20.5037   -7.4176  -16.3906 C   0  0  0  0  0  0  0  0  0  0  0  0
   19.4326   -6.8514  -16.7010 O   0  0  0  0  0  0  0  0  0  0  0  0
   21.7481   -6.3768  -12.7111 O   0  0  0  0  0  0  0  0  0  0  0  0
   21.8414   -5.3294  -13.6109 C   0  0  0  0  0  0  0  0  0  0  0  0
   20.9347   -5.5767  -14.8149 C   0  0  2  0  0  0  0  0  0  0  0  0
   21.3690   -6.8187  -15.4119 N   0  0  0  0  0  0  0  0  0  0  0  0
   21.1415   -4.4352  -15.7455 C   0  0  0  0  0  0  0  0  0  0  0  0
   21.6523   -4.6080  -16.8700 O   0  0  0  0  0  0  0  0  0  0  0  0
   20.7479   -3.1741  -15.3217 O   0  0  0  0  0  0  0  0  0  0  0  0
  1  2  1  0
  2  4  1  0
  3  2  2  0
  4  5  1  0
  5  7  1  0
  5  6  1  6
  7  8  2  0
  9 10  1  0
 10 11  2  0
 10 12  1  0
 12 13  1  0
 14 13  1  6
 14 16  1  0
 15 14  1  0
 15  7  1  0
 16 17  2  0
 18 19  1  0
 20 19  1  1
 20 22  1  0
 21 20  1  0
 21 16  1  0
 22 23  2  0
 22 24  1  0
M  END
$$$$
