NQS.pdb
     RDKit          3D

 24 23  0  0  1  0  0  0  0  0999 V2000
   15.5380  -12.4944  -15.4364 N   0  0  0  0  0  0  0  0  0  0  0  0
   16.5082  -12.1610  -14.4564 C   0  0  0  0  0  0  0  0  0  0  0  0
   16.5019  -12.7626  -13.3714 O   0  0  0  0  0  0  0  0  0  0  0  0
   17.4947  -11.0989  -14.7759 C   0  0  0  0  0  0  0  0  0  0  0  0
   17.1062  -10.5185  -16.1200 C   0  0  2  0  0  0  0  0  0  0  0  0
   17.4724  -11.5166  -17.1088 N   0  0  0  0  0  0  0  0  0  0  0  0
   17.8204   -9.2429  -16.4010 C   0  0  0  0  0  0  0  0  0  0  0  0
   18.8584   -9.2234  -17.1280 O   0  0  0  0  0  0  0  0  0  0  0  0
   15.1785   -3.6047  -15.8635 N   0  0  0  0  0  0  0  0  0  0  0  0
   16.5069   -3.2563  -16.1580 C   0  0  0  0  0  0  0  0  0  0  0  0
   16.8500   -2.0635  -16.3104 O   0  0  0  0  0  0  0  0  0  0  0  0
   17.5604   -4.3357  -16.2978 C   0  0  0  0  0  0  0  0  0  0  0  0
   16.9551   -5.6721  -16.0617 C   0  0  0  0  0  0  0  0  0  0  0  0
   17.9632   -6.7788  -16.1618 C   0  0  2  0  0  0  0  0  0  0  0  0
   17.3117   -8.0639  -15.8382 N   0  0  0  0  0  0  0  0  0  0  0  0
   19.1083   -6.5912  -15.2681 C   0  0  0  0  0  0  0  0  0  0  0  0
   19.0045   -6.7967  -14.0388 O   0  0  0  0  0  0  0  0  0  0  0  0
   23.8821   -6.0805  -14.9799 O   0  0  0  0  0  0  0  0  0  0  0  0
   22.7497   -6.2197  -15.7633 C   0  0  0  0  0  0  0  0  0  0  0  0
   21.4899   -6.0838  -14.9106 C   0  0  2  0  0  0  0  0  0  0  0  0
   20.3667   -6.1650  -15.8158 N   0  0  0  0  0  0  0  0  0  0  0  0
   21.5573   -4.7476  -14.2609 C   0  0  0  0  0  0  0  0  0  0  0  0
   21.1758   -3.7224  -14.8599 O   0  0  0  0  0  0  0  0  0  0  0  0
   22.0579   -4.6798  -12.9687 O   0  0  0  0  0  0  0  0  0  0  0  0
  1  2  1  0
  2  4  1  0
  3  2  2  0
  4  5  1  0
  5  7  1  0
  5  6  1  6
  7  8  2  0
  9 10  1  0
 10 11  2  0
 10 12  1  0
 12 13  1  0
 14 13  1  1
 14 16  1  0
 15 14  1  0
 15  7  1  0
 16 17  2  0
 18 19  1  0
 20 19  1  6
 20 22  1  0
 21 20  1  0
 21 16  1  0
 22 23  2  0
 22 24  1  0
M  END
$$$$
