NQS.pdb
     RDKit          3D

 24 23  0  0  1  0  0  0  0  0999 V2000
   14.0130  -10.7648  -11.6118 N   0  0  0  0  0  0  0  0  0  0  0  0
   13.6494  -10.0877  -10.4193 C   0  0  0  0  0  0  0  0  0  0  0  0
   12.5472  -10.3258   -9.9017 O   0  0  0  0  0  0  0  0  0  0  0  0
   14.6118   -9.1173   -9.8399 C   0  0  0  0  0  0  0  0  0  0  0  0
   15.9135   -9.2725  -10.5987 C   0  0  2  0  0  0  0  0  0  0  0  0
   16.4229  -10.5883  -10.2561 N   0  0  0  0  0  0  0  0  0  0  0  0
   16.9062   -8.2310  -10.2165 C   0  0  0  0  0  0  0  0  0  0  0  0
   17.4334   -8.2246   -9.0639 O   0  0  0  0  0  0  0  0  0  0  0  0
   21.3688   -6.0415  -13.6613 N   0  0  0  0  0  0  0  0  0  0  0  0
   21.2158   -7.2544  -12.9699 C   0  0  0  0  0  0  0  0  0  0  0  0
   21.9714   -8.2274  -13.1845 O   0  0  0  0  0  0  0  0  0  0  0  0
   20.1170   -7.4055  -11.9382 C   0  0  0  0  0  0  0  0  0  0  0  0
   19.2898   -6.1719  -11.8906 C   0  0  0  0  0  0  0  0  0  0  0  0
   18.2426   -6.2305  -10.8178 C   0  0  2  0  0  0  0  0  0  0  0  0
   17.2410   -7.2575  -11.1682 N   0  0  0  0  0  0  0  0  0  0  0  0
   17.5576   -4.9514  -10.6174 C   0  0  0  0  0  0  0  0  0  0  0  0
   16.7672   -4.5041  -11.4772 O   0  0  0  0  0  0  0  0  0  0  0  0
   15.2603   -1.9505   -8.1919 O   0  0  0  0  0  0  0  0  0  0  0  0
   15.8465   -3.1556   -8.5375 C   0  0  0  0  0  0  0  0  0  0  0  0
   17.1530   -2.9176   -9.2918 C   0  0  2  0  0  0  0  0  0  0  0  0
   17.8003   -4.2035   -9.4145 N   0  0  0  0  0  0  0  0  0  0  0  0
   17.9627   -1.9889   -8.4588 C   0  0  0  0  0  0  0  0  0  0  0  0
   18.9571   -2.3957   -7.8255 O   0  0  0  0  0  0  0  0  0  0  0  0
   17.5757   -0.6574   -8.4100 O   0  0  0  0  0  0  0  0  0  0  0  0
  1  2  1  0
  2  4  1  0
  3  2  2  0
  4  5  1  0
  5  7  1  0
  5  6  1  1
  7  8  2  0
  9 10  1  0
 10 11  2  0
 10 12  1  0
 12 13  1  0
 14 13  1  6
 14 16  1  0
 15 14  1  0
 15  7  1  0
 16 17  2  0
 18 19  1  0
 20 19  1  1
 20 22  1  0
 21 20  1  0
 21 16  1  0
 22 23  2  0
 22 24  1  0
M  END
$$$$
