NQS.pdb
     RDKit          3D

 24 23  0  0  1  0  0  0  0  0999 V2000
   19.9254  -26.2106  -17.0374 N   0  0  0  0  0  0  0  0  0  0  0  0
   20.2560  -24.8596  -16.7579 C   0  0  0  0  0  0  0  0  0  0  0  0
   19.4424  -23.9674  -17.0432 O   0  0  0  0  0  0  0  0  0  0  0  0
   21.5708  -24.5722  -16.1318 C   0  0  0  0  0  0  0  0  0  0  0  0
   22.1951  -23.4313  -16.9084 C   0  0  2  0  0  0  0  0  0  0  0  0
   22.9801  -24.0467  -17.9635 N   0  0  0  0  0  0  0  0  0  0  0  0
   23.0737  -22.5907  -16.0496 C   0  0  0  0  0  0  0  0  0  0  0  0
   24.2924  -22.8906  -15.8727 O   0  0  0  0  0  0  0  0  0  0  0  0
   21.1071  -17.1115  -15.2374 N   0  0  0  0  0  0  0  0  0  0  0  0
   22.1548  -17.3116  -16.1514 C   0  0  0  0  0  0  0  0  0  0  0  0
   22.3040  -16.5678  -17.1455 O   0  0  0  0  0  0  0  0  0  0  0  0
   23.1346  -18.4480  -15.9444 C   0  0  0  0  0  0  0  0  0  0  0  0
   22.8183  -19.1704  -14.6849 C   0  0  0  0  0  0  0  0  0  0  0  0
   23.3901  -20.5573  -14.6657 C   0  0  2  0  0  0  0  0  0  0  0  0
   22.5142  -21.4577  -15.4421 N   0  0  0  0  0  0  0  0  0  0  0  0
   23.5395  -21.0952  -13.3116 C   0  0  0  0  0  0  0  0  0  0  0  0
   22.6092  -21.7279  -12.7652 O   0  0  0  0  0  0  0  0  0  0  0  0
   26.3461  -21.3018   -9.3764 O   0  0  0  0  0  0  0  0  0  0  0  0
   26.1837  -20.8726  -10.6821 C   0  0  0  0  0  0  0  0  0  0  0  0
   24.8227  -21.3072  -11.2222 C   0  0  2  0  0  0  0  0  0  0  0  0
   24.7740  -20.8908  -12.6049 N   0  0  0  0  0  0  0  0  0  0  0  0
   23.7967  -20.5965  -10.4134 C   0  0  0  0  0  0  0  0  0  0  0  0
   23.3471  -19.4908  -10.7747 O   0  0  0  0  0  0  0  0  0  0  0  0
   23.3574  -21.2034   -9.2457 O   0  0  0  0  0  0  0  0  0  0  0  0
  1  2  1  0
  2  4  1  0
  3  2  2  0
  4  5  1  0
  5  7  1  0
  5  6  1  6
  7  8  2  0
  9 10  1  0
 10 11  2  0
 10 12  1  0
 12 13  1  0
 14 13  1  1
 14 16  1  0
 15 14  1  0
 15  7  1  0
 16 17  2  0
 18 19  1  0
 20 19  1  1
 20 22  1  0
 21 20  1  0
 21 16  1  0
 22 23  2  0
 22 24  1  0
M  END
$$$$
