NQS.pdb
     RDKit          3D

 24 23  0  0  1  0  0  0  0  0999 V2000
   18.8468  -13.8043  -15.1903 N   0  0  0  0  0  0  0  0  0  0  0  0
   18.1158  -12.9048  -16.0084 C   0  0  0  0  0  0  0  0  0  0  0  0
   17.3929  -13.3588  -16.9088 O   0  0  0  0  0  0  0  0  0  0  0  0
   18.2500  -11.4496  -15.7482 C   0  0  0  0  0  0  0  0  0  0  0  0
   17.1074  -11.0519  -14.8369 C   0  0  2  0  0  0  0  0  0  0  0  0
   15.8961  -11.2032  -15.6231 N   0  0  0  0  0  0  0  0  0  0  0  0
   17.2342   -9.6441  -14.3698 C   0  0  0  0  0  0  0  0  0  0  0  0
   16.9122   -8.6761  -15.1221 O   0  0  0  0  0  0  0  0  0  0  0  0
   16.2593   -7.4558   -8.7533 N   0  0  0  0  0  0  0  0  0  0  0  0
   15.3498   -7.5747   -9.8171 C   0  0  0  0  0  0  0  0  0  0  0  0
   14.1157   -7.4938   -9.6322 O   0  0  0  0  0  0  0  0  0  0  0  0
   15.8568   -7.8063  -11.2255 C   0  0  0  0  0  0  0  0  0  0  0  0
   17.3403   -7.8912  -11.2255 C   0  0  0  0  0  0  0  0  0  0  0  0
   17.9020   -8.0298  -12.6098 C   0  0  2  0  0  0  0  0  0  0  0  0
   17.7200   -9.4199  -13.0739 N   0  0  0  0  0  0  0  0  0  0  0  0
   19.3244   -7.6886  -12.6861 C   0  0  0  0  0  0  0  0  0  0  0  0
   20.1692   -8.2963  -11.9925 O   0  0  0  0  0  0  0  0  0  0  0  0
   21.1248   -7.1295  -15.9275 O   0  0  0  0  0  0  0  0  0  0  0  0
   21.4698   -6.0609  -15.1187 C   0  0  0  0  0  0  0  0  0  0  0  0
   21.1690   -6.3789  -13.6554 C   0  0  2  0  0  0  0  0  0  0  0  0
   19.7504   -6.6401  -13.5718 N   0  0  0  0  0  0  0  0  0  0  0  0
   21.5369   -5.1694  -12.8722 C   0  0  0  0  0  0  0  0  0  0  0  0
   20.6599   -4.4343  -12.3762 O   0  0  0  0  0  0  0  0  0  0  0  0
   22.8857   -4.8865  -12.7120 O   0  0  0  0  0  0  0  0  0  0  0  0
  1  2  1  0
  2  4  1  0
  3  2  2  0
  4  5  1  0
  5  7  1  0
  5  6  1  6
  7  8  2  0
  9 10  1  0
 10 11  2  0
 10 12  1  0
 12 13  1  0
 14 13  1  1
 14 16  1  0
 15 14  1  0
 15  7  1  0
 16 17  2  0
 18 19  1  0
 20 19  1  6
 20 22  1  0
 21 20  1  0
 21 16  1  0
 22 23  2  0
 22 24  1  0
M  END
$$$$
