NQS.pdb
     RDKit          3D

 24 23  0  0  1  0  0  0  0  0999 V2000
   28.0637  -23.6198  -16.5328 N   0  0  0  0  0  0  0  0  0  0  0  0
   28.5404  -22.2858  -16.6101 C   0  0  0  0  0  0  0  0  0  0  0  0
   29.7419  -22.0867  -16.8472 O   0  0  0  0  0  0  0  0  0  0  0  0
   27.5725  -21.1797  -16.4022 C   0  0  0  0  0  0  0  0  0  0  0  0
   26.2316  -21.8124  -16.0924 C   0  0  2  0  0  0  0  0  0  0  0  0
   25.8092  -22.4750  -17.3133 N   0  0  0  0  0  0  0  0  0  0  0  0
   25.2187  -20.7977  -15.6916 C   0  0  0  0  0  0  0  0  0  0  0  0
   25.5119  -19.5654  -15.6487 O   0  0  0  0  0  0  0  0  0  0  0  0
   22.8512  -17.1762  -16.6340 N   0  0  0  0  0  0  0  0  0  0  0  0
   21.5540  -17.4174  -16.1523 C   0  0  0  0  0  0  0  0  0  0  0  0
   20.7615  -16.4796  -15.9153 O   0  0  0  0  0  0  0  0  0  0  0  0
   21.0878  -18.8379  -15.9089 C   0  0  0  0  0  0  0  0  0  0  0  0
   22.1822  -19.7937  -16.2199 C   0  0  0  0  0  0  0  0  0  0  0  0
   22.9045  -20.2518  -14.9872 C   0  0  2  0  0  0  0  0  0  0  0  0
   23.9311  -21.2446  -15.3630 N   0  0  0  0  0  0  0  0  0  0  0  0
   22.0123  -20.8486  -13.9907 C   0  0  0  0  0  0  0  0  0  0  0  0
   21.5197  -21.9846  -14.1675 O   0  0  0  0  0  0  0  0  0  0  0  0
   20.5622  -18.5672  -10.9269 O   0  0  0  0  0  0  0  0  0  0  0  0
   20.8577  -19.8734  -10.5778 C   0  0  0  0  0  0  0  0  0  0  0  0
   20.8644  -20.7689  -11.8150 C   0  0  2  0  0  0  0  0  0  0  0  0
   21.7013  -20.1151  -12.7947 N   0  0  0  0  0  0  0  0  0  0  0  0
   19.4565  -20.8546  -12.2866 C   0  0  0  0  0  0  0  0  0  0  0  0
   19.0967  -20.2917  -13.3396 O   0  0  0  0  0  0  0  0  0  0  0  0
   18.5585  -21.5804  -11.5173 O   0  0  0  0  0  0  0  0  0  0  0  0
  1  2  1  0
  2  4  1  0
  3  2  2  0
  4  5  1  0
  5  7  1  0
  5  6  1  6
  7  8  2  0
  9 10  1  0
 10 11  2  0
 10 12  1  0
 12 13  1  0
 14 13  1  6
 14 16  1  0
 15 14  1  0
 15  7  1  0
 16 17  2  0
 18 19  1  0
 20 19  1  1
 20 22  1  0
 21 20  1  0
 21 16  1  0
 22 23  2  0
 22 24  1  0
M  END
$$$$
