HLC.pdb
     RDKit          3D

 25 25  0  0  1  0  0  0  0  0999 V2000
   24.6849  -25.0990  -14.8286 N   0  0  0  0  0  0  0  0  0  0  0  0
   25.0351  -23.7034  -14.7725 C   0  0  1  0  0  0  0  0  0  0  0  0
   24.8374  -23.0440  -16.1210 C   0  0  0  0  0  0  0  0  0  0  0  0
   26.1442  -22.8706  -16.8010 C   0  0  0  0  0  0  0  0  0  0  0  0
   26.7008  -23.8048  -17.6383 C   0  0  0  0  0  0  0  0  0  0  0  0
   27.8752  -23.3018  -18.0608 N   0  0  0  0  0  0  0  0  0  0  0  0
   28.0547  -22.0912  -17.5092 C   0  0  0  0  0  0  0  0  0  0  0  0
   26.9781  -21.8203  -16.7243 N   0  0  0  0  0  0  0  0  0  0  0  0
   24.2237  -22.9480  -13.7874 C   0  0  0  0  0  0  0  0  0  0  0  0
   23.1480  -23.4702  -13.4119 O   0  0  0  0  0  0  0  0  0  0  0  0
   26.3219  -20.3433   -9.4877 C   0  0  0  0  0  0  0  0  0  0  0  0
   25.2950  -21.0966  -10.3247 C   0  0  1  0  0  0  0  0  0  0  0  0
   24.2568  -21.5736   -9.2820 C   0  0  0  0  0  0  0  0  0  0  0  0
   24.6347  -20.1980  -11.3307 C   0  0  0  0  0  0  0  0  0  0  0  0
   23.7943  -20.9826  -12.2723 C   0  0  2  0  0  0  0  0  0  0  0  0
   24.5905  -21.6956  -13.2592 N   0  0  0  0  0  0  0  0  0  0  0  0
   22.8843  -20.0757  -13.0000 C   0  0  0  0  0  0  0  0  0  0  0  0
   22.8398  -18.8348  -12.8771 O   0  0  0  0  0  0  0  0  0  0  0  0
   21.9482  -20.6279  -13.9453 N   0  0  0  0  0  0  0  0  0  0  0  0
   21.3624  -19.8143  -14.9643 C   0  0  1  0  0  0  0  0  0  0  0  0
   22.3972  -19.2942  -15.9373 C   0  0  0  0  0  0  0  0  0  0  0  0
   21.6697  -18.4488  -17.3458 S   0  0  0  0  0  0  0  0  0  0  0  0
   20.3660  -20.5771  -15.7363 C   0  0  0  0  0  0  0  0  0  0  0  0
   19.2536  -19.9742  -16.2960 O   0  0  0  0  0  0  0  0  0  0  0  0
   20.5256  -21.8230  -15.8969 O   0  0  0  0  0  0  0  0  0  0  0  0
  2  1  1  6
  2  9  1  0
  3  2  1  0
  4  3  1  0
  5  4  2  0
  6  7  1  0
  6  5  1  0
  7  8  2  0
  8  4  1  0
  9 16  1  0
 10  9  2  0
 12 11  1  1
 12 13  1  0
 14 12  1  0
 15 14  1  1
 16 15  1  0
 17 19  1  0
 17 15  1  0
 18 17  2  0
 20 19  1  0
 20 23  1  0
 20 21  1  6
 22 21  1  0
 23 24  1  0
 25 23  2  0
M  END
$$$$
