HLC.pdb
     RDKit          3D

 25 25  0  0  1  0  0  0  0  0999 V2000
   26.4613  -27.1701  -18.2816 N   0  0  0  0  0  0  0  0  0  0  0  0
   27.6688  -27.6476  -17.6592 C   0  0  1  0  0  0  0  0  0  0  0  0
   27.7851  -27.1294  -16.2413 C   0  0  0  0  0  0  0  0  0  0  0  0
   28.0761  -25.6750  -16.2516 C   0  0  0  0  0  0  0  0  0  0  0  0
   27.1190  -24.7022  -16.1058 C   0  0  0  0  0  0  0  0  0  0  0  0
   27.7528  -23.5168  -16.1667 N   0  0  0  0  0  0  0  0  0  0  0  0
   29.0657  -23.7330  -16.3449 C   0  0  0  0  0  0  0  0  0  0  0  0
   29.2696  -25.0763  -16.3981 N   0  0  0  0  0  0  0  0  0  0  0  0
   27.7344  -29.1278  -17.5961 C   0  0  0  0  0  0  0  0  0  0  0  0
   26.6459  -29.7491  -17.5948 O   0  0  0  0  0  0  0  0  0  0  0  0
   29.7969  -33.9580  -18.8120 C   0  0  0  0  0  0  0  0  0  0  0  0
   30.3594  -33.3473  -17.5340 C   0  0  1  0  0  0  0  0  0  0  0  0
   31.8144  -33.8706  -17.4918 C   0  0  0  0  0  0  0  0  0  0  0  0
   30.3564  -31.8465  -17.5901 C   0  0  0  0  0  0  0  0  0  0  0  0
   28.9776  -31.3125  -17.4409 C   0  0  2  0  0  0  0  0  0  0  0  0
   28.9344  -29.8617  -17.5384 N   0  0  0  0  0  0  0  0  0  0  0  0
   28.4390  -31.6899  -16.1188 C   0  0  0  0  0  0  0  0  0  0  0  0
   28.5452  -31.0214  -15.0706 O   0  0  0  0  0  0  0  0  0  0  0  0
   27.7207  -32.9306  -15.9797 N   0  0  0  0  0  0  0  0  0  0  0  0
   27.1472  -33.3143  -14.7277 C   0  0  1  0  0  0  0  0  0  0  0  0
   26.0930  -32.3337  -14.2642 C   0  0  0  0  0  0  0  0  0  0  0  0
   25.2843  -32.8439  -12.7432 S   0  0  0  0  0  0  0  0  0  0  0  0
   26.5124  -34.6403  -14.8262 C   0  0  0  0  0  0  0  0  0  0  0  0
   26.0724  -35.3276  -13.7088 O   0  0  0  0  0  0  0  0  0  0  0  0
   26.3613  -35.1738  -15.9646 O   0  0  0  0  0  0  0  0  0  0  0  0
  2  1  1  1
  2  9  1  0
  3  2  1  0
  4  3  1  0
  5  4  2  0
  6  7  1  0
  6  5  1  0
  7  8  2  0
  8  4  1  0
  9 16  1  0
 10  9  2  0
 12 11  1  6
 12 13  1  0
 14 12  1  0
 15 14  1  1
 16 15  1  0
 17 19  1  0
 17 15  1  0
 18 17  2  0
 20 19  1  0
 20 23  1  0
 20 21  1  6
 22 21  1  0
 23 24  1  0
 25 23  2  0
M  END
$$$$
