HLC.pdb
     RDKit          3D

 25 25  0  0  1  0  0  0  0  0999 V2000
   17.9649  -12.7076  -17.2761 N   0  0  0  0  0  0  0  0  0  0  0  0
   18.9225  -11.8331  -17.9019 C   0  0  1  0  0  0  0  0  0  0  0  0
   18.3713  -11.2670  -19.1935 C   0  0  0  0  0  0  0  0  0  0  0  0
   18.1352  -12.3586  -20.1696 C   0  0  0  0  0  0  0  0  0  0  0  0
   19.0419  -12.7372  -21.1280 C   0  0  0  0  0  0  0  0  0  0  0  0
   18.4830  -13.7480  -21.8183 N   0  0  0  0  0  0  0  0  0  0  0  0
   17.2648  -13.9996  -21.3136 C   0  0  0  0  0  0  0  0  0  0  0  0
   17.0459  -13.1357  -20.2867 N   0  0  0  0  0  0  0  0  0  0  0  0
   19.2991  -10.6857  -17.0411 C   0  0  0  0  0  0  0  0  0  0  0  0
   18.4015  -10.1950  -16.3170 O   0  0  0  0  0  0  0  0  0  0  0  0
   24.0112  -10.2142  -14.2983 C   0  0  0  0  0  0  0  0  0  0  0  0
   22.5445  -10.0826  -14.6906 C   0  0  1  0  0  0  0  0  0  0  0  0
   21.8483   -9.6921  -13.3657 C   0  0  0  0  0  0  0  0  0  0  0  0
   22.3404   -9.0025  -15.7140 C   0  0  0  0  0  0  0  0  0  0  0  0
   20.9288   -8.9706  -16.1777 C   0  0  2  0  0  0  0  0  0  0  0  0
   20.5902  -10.1263  -16.9938 N   0  0  0  0  0  0  0  0  0  0  0  0
   20.7014   -7.7619  -16.9948 C   0  0  0  0  0  0  0  0  0  0  0  0
   20.9670   -7.6415  -18.2080 O   0  0  0  0  0  0  0  0  0  0  0  0
   20.1239   -6.5948  -16.3790 N   0  0  0  0  0  0  0  0  0  0  0  0
   19.8318   -5.4244  -17.1461 C   0  0  1  0  0  0  0  0  0  0  0  0
   18.7343   -5.6704  -18.1575 C   0  0  0  0  0  0  0  0  0  0  0  0
   18.2033   -4.1703  -18.9914 S   0  0  0  0  0  0  0  0  0  0  0  0
   19.3964   -4.3204  -16.2730 C   0  0  0  0  0  0  0  0  0  0  0  0
   19.7796   -3.0105  -16.5006 O   0  0  0  0  0  0  0  0  0  0  0  0
   18.6486   -4.5698  -15.2821 O   0  0  0  0  0  0  0  0  0  0  0  0
  2  1  1  1
  2  9  1  0
  3  2  1  0
  4  3  1  0
  5  4  2  0
  6  7  1  0
  6  5  1  0
  7  8  2  0
  8  4  1  0
  9 16  1  0
 10  9  2  0
 12 11  1  1
 12 13  1  0
 14 12  1  0
 15 14  1  6
 16 15  1  0
 17 19  1  0
 17 15  1  0
 18 17  2  0
 20 19  1  0
 20 23  1  0
 20 21  1  6
 22 21  1  0
 23 24  1  0
 25 23  2  0
M  END
$$$$
