HLC.pdb
     RDKit          3D

 25 25  0  0  1  0  0  0  0  0999 V2000
   21.9403  -21.2465  -14.9769 N   0  0  0  0  0  0  0  0  0  0  0  0
   22.0477  -19.8890  -14.5090 C   0  0  1  0  0  0  0  0  0  0  0  0
   21.0560  -19.6229  -13.3962 C   0  0  0  0  0  0  0  0  0  0  0  0
   19.6698  -19.7902  -13.8969 C   0  0  0  0  0  0  0  0  0  0  0  0
   19.2753  -19.4802  -15.1744 C   0  0  0  0  0  0  0  0  0  0  0  0
   17.9621  -19.7618  -15.2580 N   0  0  0  0  0  0  0  0  0  0  0  0
   17.5412  -20.2338  -14.0738 C   0  0  0  0  0  0  0  0  0  0  0  0
   18.6028  -20.2524  -13.2245 N   0  0  0  0  0  0  0  0  0  0  0  0
   23.3974  -19.5685  -13.9847 C   0  0  0  0  0  0  0  0  0  0  0  0
   23.6026  -18.3882  -13.6165 O   0  0  0  0  0  0  0  0  0  0  0  0
   25.3113  -22.1252  -10.0554 C   0  0  0  0  0  0  0  0  0  0  0  0
   25.0559  -21.0632  -11.1180 C   0  0  1  0  0  0  0  0  0  0  0  0
   25.1380  -19.7345  -10.3302 C   0  0  0  0  0  0  0  0  0  0  0  0
   26.1078  -21.0888  -12.1898 C   0  0  0  0  0  0  0  0  0  0  0  0
   25.7449  -20.1837  -13.3113 C   0  0  2  0  0  0  0  0  0  0  0  0
   24.4446  -20.5036  -13.8796 N   0  0  0  0  0  0  0  0  0  0  0  0
   26.7473  -20.3015  -14.3891 C   0  0  0  0  0  0  0  0  0  0  0  0
   27.9687  -20.0728  -14.2769 O   0  0  0  0  0  0  0  0  0  0  0  0
   26.3231  -20.7139  -15.7024 N   0  0  0  0  0  0  0  0  0  0  0  0
   27.2557  -20.8133  -16.7813 C   0  0  1  0  0  0  0  0  0  0  0  0
   27.5083  -22.2505  -17.1798 C   0  0  0  0  0  0  0  0  0  0  0  0
   28.0541  -23.2712  -15.8058 S   0  0  0  0  0  0  0  0  0  0  0  0
   26.7594  -20.0998  -17.9709 C   0  0  0  0  0  0  0  0  0  0  0  0
   27.4461  -20.1102  -19.1721 O   0  0  0  0  0  0  0  0  0  0  0  0
   25.6719  -19.4550  -17.8999 O   0  0  0  0  0  0  0  0  0  0  0  0
  2  1  1  1
  2  9  1  0
  3  2  1  0
  4  3  1  0
  5  4  2  0
  6  7  1  0
  6  5  1  0
  7  8  2  0
  8  4  1  0
  9 16  1  0
 10  9  2  0
 12 11  1  1
 12 13  1  0
 14 12  1  0
 15 14  1  1
 16 15  1  0
 17 19  1  0
 17 15  1  0
 18 17  2  0
 20 19  1  0
 20 23  1  0
 20 21  1  6
 22 21  1  0
 23 24  1  0
 25 23  2  0
M  END
$$$$
