HLC.pdb
     RDKit          3D

 25 25  0  0  1  0  0  0  0  0999 V2000
   20.8600  -14.8554  -18.0789 N   0  0  0  0  0  0  0  0  0  0  0  0
   21.5369  -13.7160  -18.6418 C   0  0  1  0  0  0  0  0  0  0  0  0
   20.5733  -12.8504  -19.4259 C   0  0  0  0  0  0  0  0  0  0  0  0
   19.9783  -13.6286  -20.5397 C   0  0  0  0  0  0  0  0  0  0  0  0
   18.6278  -13.7534  -20.7499 C   0  0  0  0  0  0  0  0  0  0  0  0
   18.4709  -14.5239  -21.8418 N   0  0  0  0  0  0  0  0  0  0  0  0
   19.6810  -14.8740  -22.3059 C   0  0  0  0  0  0  0  0  0  0  0  0
   20.6214  -14.3177  -21.4966 N   0  0  0  0  0  0  0  0  0  0  0  0
   22.1657  -12.8556  -17.6104 C   0  0  0  0  0  0  0  0  0  0  0  0
   21.8217  -13.0451  -16.4202 O   0  0  0  0  0  0  0  0  0  0  0  0
   25.5330  -10.5604  -14.4991 C   0  0  0  0  0  0  0  0  0  0  0  0
   25.7949  -10.0884  -15.9242 C   0  0  1  0  0  0  0  0  0  0  0  0
   27.3379  -10.0996  -16.0322 C   0  0  0  0  0  0  0  0  0  0  0  0
   25.2040  -11.0282  -16.9357 C   0  0  0  0  0  0  0  0  0  0  0  0
   23.7196  -11.0193  -16.8649 C   0  0  2  0  0  0  0  0  0  0  0  0
   23.1133  -11.8531  -17.8912 N   0  0  0  0  0  0  0  0  0  0  0  0
   23.2214   -9.6420  -17.0533 C   0  0  0  0  0  0  0  0  0  0  0  0
   23.6750   -8.8071  -17.8620 O   0  0  0  0  0  0  0  0  0  0  0  0
   22.1159   -9.1783  -16.2548 N   0  0  0  0  0  0  0  0  0  0  0  0
   21.5381   -7.8891  -16.4732 C   0  0  1  0  0  0  0  0  0  0  0  0
   20.0389   -7.9654  -16.6594 C   0  0  0  0  0  0  0  0  0  0  0  0
   19.2468   -9.0861  -15.4999 S   0  0  0  0  0  0  0  0  0  0  0  0
   21.8022   -6.9958  -15.3318 C   0  0  0  0  0  0  0  0  0  0  0  0
   21.4285   -5.6637  -15.3411 O   0  0  0  0  0  0  0  0  0  0  0  0
   22.3888   -7.4538  -14.3072 O   0  0  0  0  0  0  0  0  0  0  0  0
  2  1  1  1
  2  9  1  0
  3  2  1  0
  4  3  1  0
  5  4  2  0
  6  7  1  0
  6  5  1  0
  7  8  2  0
  8  4  1  0
  9 16  1  0
 10  9  2  0
 12 11  1  1
 12 13  1  0
 14 12  1  0
 15 14  1  6
 16 15  1  0
 17 19  1  0
 17 15  1  0
 18 17  2  0
 20 19  1  0
 20 23  1  0
 20 21  1  1
 22 21  1  0
 23 24  1  0
 25 23  2  0
M  END
$$$$
