HLC.pdb
     RDKit          3D

 25 25  0  0  1  0  0  0  0  0999 V2000
   21.0635  -12.4173  -17.5661 N   0  0  0  0  0  0  0  0  0  0  0  0
   21.8613  -11.4317  -18.2485 C   0  0  1  0  0  0  0  0  0  0  0  0
   21.0509  -10.7284  -19.3167 C   0  0  0  0  0  0  0  0  0  0  0  0
   20.6298  -11.6967  -20.3584 C   0  0  0  0  0  0  0  0  0  0  0  0
   21.4828  -12.2434  -21.2843 C   0  0  0  0  0  0  0  0  0  0  0  0
   20.7489  -13.0674  -22.0544 N   0  0  0  0  0  0  0  0  0  0  0  0
   19.4757  -13.0424  -21.6297 C   0  0  0  0  0  0  0  0  0  0  0  0
   19.3989  -12.1895  -20.5735 N   0  0  0  0  0  0  0  0  0  0  0  0
   22.3890  -10.3892  -17.3352 C   0  0  0  0  0  0  0  0  0  0  0  0
   21.6432  -10.0183  -16.3988 O   0  0  0  0  0  0  0  0  0  0  0  0
   27.6266  -10.1704  -16.0158 C   0  0  0  0  0  0  0  0  0  0  0  0
   26.1045  -10.0940  -16.0094 C   0  0  1  0  0  0  0  0  0  0  0  0
   25.7357  -10.3309  -14.5260 C   0  0  0  0  0  0  0  0  0  0  0  0
   25.6165   -8.7433  -16.4489 C   0  0  0  0  0  0  0  0  0  0  0  0
   24.1376   -8.7349  -16.5946 C   0  0  2  0  0  0  0  0  0  0  0  0
   23.6626   -9.8025  -17.4611 N   0  0  0  0  0  0  0  0  0  0  0  0
   23.7035   -7.4522  -17.1833 C   0  0  0  0  0  0  0  0  0  0  0  0
   24.2168   -6.8943  -18.1744 O   0  0  0  0  0  0  0  0  0  0  0  0
   22.5938   -6.7475  -16.5946 N   0  0  0  0  0  0  0  0  0  0  0  0
   22.1199   -5.5199  -17.1531 C   0  0  1  0  0  0  0  0  0  0  0  0
   21.4361   -5.7314  -18.4856 C   0  0  0  0  0  0  0  0  0  0  0  0
   20.7954   -4.2088  -19.1920 S   0  0  0  0  0  0  0  0  0  0  0  0
   21.1513   -4.8727  -16.2510 C   0  0  0  0  0  0  0  0  0  0  0  0
   20.8183   -3.5351  -16.3702 O   0  0  0  0  0  0  0  0  0  0  0  0
   20.6026   -5.5549  -15.3361 O   0  0  0  0  0  0  0  0  0  0  0  0
  2  1  1  1
  2  9  1  0
  3  2  1  0
  4  3  1  0
  5  4  2  0
  6  7  1  0
  6  5  1  0
  7  8  2  0
  8  4  1  0
  9 16  1  0
 10  9  2  0
 12 11  1  1
 12 13  1  0
 14 12  1  0
 15 14  1  6
 16 15  1  0
 17 19  1  0
 17 15  1  0
 18 17  2  0
 20 19  1  0
 20 23  1  0
 20 21  1  6
 22 21  1  0
 23 24  1  0
 25 23  2  0
M  END
$$$$
