HLC.pdb
     RDKit          3D

 25 25  0  0  1  0  0  0  0  0999 V2000
   25.3692  -23.1969  -15.8266 N   0  0  0  0  0  0  0  0  0  0  0  0
   24.3365  -23.8845  -15.0958 C   0  0  1  0  0  0  0  0  0  0  0  0
   24.8662  -25.1698  -14.4958 C   0  0  0  0  0  0  0  0  0  0  0  0
   25.4774  -26.0126  -15.5523 C   0  0  0  0  0  0  0  0  0  0  0  0
   24.7944  -26.9738  -16.2547 C   0  0  0  0  0  0  0  0  0  0  0  0
   25.6685  -27.5238  -17.1173 N   0  0  0  0  0  0  0  0  0  0  0  0
   26.8631  -26.9305  -16.9652 C   0  0  0  0  0  0  0  0  0  0  0  0
   26.7467  -25.9891  -15.9912 N   0  0  0  0  0  0  0  0  0  0  0  0
   23.7829  -23.0729  -13.9850 C   0  0  0  0  0  0  0  0  0  0  0  0
   22.7437  -23.4984  -13.4284 O   0  0  0  0  0  0  0  0  0  0  0  0
   26.7518  -20.5858  -10.1193 C   0  0  0  0  0  0  0  0  0  0  0  0
   25.5653  -21.2767  -10.7806 C   0  0  1  0  0  0  0  0  0  0  0  0
   24.6750  -21.6918   -9.5857 C   0  0  0  0  0  0  0  0  0  0  0  0
   24.8108  -20.3401  -11.6802 C   0  0  0  0  0  0  0  0  0  0  0  0
   23.7761  -21.0699  -12.4583 C   0  0  2  0  0  0  0  0  0  0  0  0
   24.3524  -21.8690  -13.5287 N   0  0  0  0  0  0  0  0  0  0  0  0
   22.8426  -20.1042  -13.0717 C   0  0  0  0  0  0  0  0  0  0  0  0
   22.1577  -19.2614  -12.4573 O   0  0  0  0  0  0  0  0  0  0  0  0
   22.6758  -20.0984  -14.5024 N   0  0  0  0  0  0  0  0  0  0  0  0
   21.8488  -19.1251  -15.1445 C   0  0  1  0  0  0  0  0  0  0  0  0
   22.5319  -18.5045  -16.3429 C   0  0  0  0  0  0  0  0  0  0  0  0
   23.4360  -19.7027  -17.3301 S   0  0  0  0  0  0  0  0  0  0  0  0
   20.5903  -19.7323  -15.6116 C   0  0  0  0  0  0  0  0  0  0  0  0
   19.5458  -18.9694  -16.1029 O   0  0  0  0  0  0  0  0  0  0  0  0
   20.4527  -20.9902  -15.5653 O   0  0  0  0  0  0  0  0  0  0  0  0
  2  1  1  1
  2  9  1  0
  3  2  1  0
  4  3  1  0
  5  4  2  0
  6  7  1  0
  6  5  1  0
  7  8  2  0
  8  4  1  0
  9 16  1  0
 10  9  2  0
 12 11  1  1
 12 13  1  0
 14 12  1  0
 15 14  1  6
 16 15  1  0
 17 19  1  0
 17 15  1  0
 18 17  2  0
 20 19  1  0
 20 23  1  0
 20 21  1  6
 22 21  1  0
 23 24  1  0
 25 23  2  0
M  END
$$$$
