HLC.pdb
     RDKit          3D

 25 25  0  0  1  0  0  0  0  0999 V2000
   27.0221  -20.5623  -17.0592 N   0  0  0  0  0  0  0  0  0  0  0  0
   26.1155  -19.7497  -16.2903 C   0  0  1  0  0  0  0  0  0  0  0  0
   25.2136  -18.9416  -17.1992 C   0  0  0  0  0  0  0  0  0  0  0  0
   26.0079  -17.9310  -17.9393 C   0  0  0  0  0  0  0  0  0  0  0  0
   27.3651  -17.7768  -17.8053 C   0  0  0  0  0  0  0  0  0  0  0  0
   27.7281  -16.7734  -18.6251 N   0  0  0  0  0  0  0  0  0  0  0  0
   26.6377  -16.3093  -19.2556 C   0  0  0  0  0  0  0  0  0  0  0  0
   25.5651  -17.0285  -18.8302 N   0  0  0  0  0  0  0  0  0  0  0  0
   25.2420  -20.5514  -15.3994 C   0  0  0  0  0  0  0  0  0  0  0  0
   25.0184  -21.7382  -15.7345 O   0  0  0  0  0  0  0  0  0  0  0  0
   25.7111  -20.3985  -10.0411 C   0  0  0  0  0  0  0  0  0  0  0  0
   25.4661  -20.7917  -11.4929 C   0  0  1  0  0  0  0  0  0  0  0  0
   25.7582  -22.3106  -11.5116 C   0  0  0  0  0  0  0  0  0  0  0  0
   24.0432  -20.5389  -11.9019 C   0  0  0  0  0  0  0  0  0  0  0  0
   23.8356  -20.8729  -13.3351 C   0  0  2  0  0  0  0  0  0  0  0  0
   24.6595  -20.0594  -14.2159 N   0  0  0  0  0  0  0  0  0  0  0  0
   22.4238  -20.6408  -13.6999 C   0  0  0  0  0  0  0  0  0  0  0  0
   21.8806  -19.5262  -13.8392 O   0  0  0  0  0  0  0  0  0  0  0  0
   21.5600  -21.7715  -13.9243 N   0  0  0  0  0  0  0  0  0  0  0  0
   20.1956  -21.5919  -14.3110 C   0  0  1  0  0  0  0  0  0  0  0  0
   19.5930  -22.8635  -14.8660 C   0  0  0  0  0  0  0  0  0  0  0  0
   20.0612  -24.3247  -13.9314 S   0  0  0  0  0  0  0  0  0  0  0  0
   19.3754  -21.1729  -13.1611 C   0  0  0  0  0  0  0  0  0  0  0  0
   18.0598  -20.7699  -13.3066 O   0  0  0  0  0  0  0  0  0  0  0  0
   19.8828  -21.1790  -12.0009 O   0  0  0  0  0  0  0  0  0  0  0  0
  2  1  1  6
  2  9  1  0
  3  2  1  0
  4  3  1  0
  5  4  2  0
  6  7  1  0
  6  5  1  0
  7  8  2  0
  8  4  1  0
  9 16  1  0
 10  9  2  0
 12 11  1  1
 12 13  1  0
 14 12  1  0
 15 14  1  1
 16 15  1  0
 17 19  1  0
 17 15  1  0
 18 17  2  0
 20 19  1  0
 20 23  1  0
 20 21  1  1
 22 21  1  0
 23 24  1  0
 25 23  2  0
M  END
$$$$
