HLC.pdb
     RDKit          3D

 25 25  0  0  1  0  0  0  0  0999 V2000
   18.4592  -11.7479  -17.2402 N   0  0  0  0  0  0  0  0  0  0  0  0
   19.1134  -10.5028  -17.5487 C   0  0  1  0  0  0  0  0  0  0  0  0
   18.1305   -9.5069  -18.1272 C   0  0  0  0  0  0  0  0  0  0  0  0
   17.7204   -9.9267  -19.4894 C   0  0  0  0  0  0  0  0  0  0  0  0
   18.2317  -11.0226  -20.1386 C   0  0  0  0  0  0  0  0  0  0  0  0
   17.6270  -11.0841  -21.3391 N   0  0  0  0  0  0  0  0  0  0  0  0
   16.7630  -10.0621  -21.4450 C   0  0  0  0  0  0  0  0  0  0  0  0
   16.8193   -9.3399  -20.2944 N   0  0  0  0  0  0  0  0  0  0  0  0
   19.7345   -9.8715  -16.3592 C   0  0  0  0  0  0  0  0  0  0  0  0
   19.2002  -10.0959  -15.2480 O   0  0  0  0  0  0  0  0  0  0  0  0
   24.7484  -10.2240  -14.9742 C   0  0  0  0  0  0  0  0  0  0  0  0
   23.2398  -10.0098  -15.0043 C   0  0  1  0  0  0  0  0  0  0  0  0
   22.7685  -10.5566  -13.6363 C   0  0  0  0  0  0  0  0  0  0  0  0
   22.8900   -8.5540  -15.1219 C   0  0  0  0  0  0  0  0  0  0  0  0
   21.4204   -8.3694  -15.2437 C   0  0  2  0  0  0  0  0  0  0  0  0
   20.8742   -9.0465  -16.4097 N   0  0  0  0  0  0  0  0  0  0  0  0
   21.1091   -6.9318  -15.3726 C   0  0  0  0  0  0  0  0  0  0  0  0
   21.4371   -6.0396  -14.5644 O   0  0  0  0  0  0  0  0  0  0  0  0
   20.3630   -6.4732  -16.5162 N   0  0  0  0  0  0  0  0  0  0  0  0
   19.9825   -5.1015  -16.6468 C   0  0  1  0  0  0  0  0  0  0  0  0
   19.8888   -4.6760  -18.0953 C   0  0  0  0  0  0  0  0  0  0  0  0
   21.4563   -4.8034  -18.9640 S   0  0  0  0  0  0  0  0  0  0  0  0
   18.6694   -4.8599  -16.0238 C   0  0  0  0  0  0  0  0  0  0  0  0
   18.3351   -3.6378  -15.4677 O   0  0  0  0  0  0  0  0  0  0  0  0
   17.8154   -5.7943  -15.9923 O   0  0  0  0  0  0  0  0  0  0  0  0
  2  1  1  1
  2  9  1  0
  3  2  1  0
  4  3  1  0
  5  4  2  0
  6  7  1  0
  6  5  1  0
  7  8  2  0
  8  4  1  0
  9 16  1  0
 10  9  2  0
 12 11  1  1
 12 13  1  0
 14 12  1  0
 15 14  1  6
 16 15  1  0
 17 19  1  0
 17 15  1  0
 18 17  2  0
 20 19  1  0
 20 23  1  0
 20 21  1  6
 22 21  1  0
 23 24  1  0
 25 23  2  0
M  END
$$$$
