HLC.pdb
     RDKit          3D

 25 25  0  0  1  0  0  0  0  0999 V2000
   28.0870  -29.5279  -15.8920 N   0  0  0  0  0  0  0  0  0  0  0  0
   28.9370  -28.8594  -16.8428 C   0  0  1  0  0  0  0  0  0  0  0  0
   28.3160  -28.8737  -18.2236 C   0  0  0  0  0  0  0  0  0  0  0  0
   28.4301  -30.2268  -18.8206 C   0  0  0  0  0  0  0  0  0  0  0  0
   29.6231  -30.8715  -19.0321 C   0  0  0  0  0  0  0  0  0  0  0  0
   29.3316  -32.0639  -19.5833 N   0  0  0  0  0  0  0  0  0  0  0  0
   27.9999  -32.1691  -19.7157 C   0  0  0  0  0  0  0  0  0  0  0  0
   27.4362  -31.0263  -19.2414 N   0  0  0  0  0  0  0  0  0  0  0  0
   29.1917  -27.4424  -16.4869 C   0  0  0  0  0  0  0  0  0  0  0  0
   28.4099  -26.9097  -15.6648 O   0  0  0  0  0  0  0  0  0  0  0  0
   34.3158  -25.3945  -16.1515 C   0  0  0  0  0  0  0  0  0  0  0  0
   32.8559  -25.8008  -15.9897 C   0  0  1  0  0  0  0  0  0  0  0  0
   32.5822  -25.5783  -14.4836 C   0  0  0  0  0  0  0  0  0  0  0  0
   31.9456  -24.9317  -16.8094 C   0  0  0  0  0  0  0  0  0  0  0  0
   30.5231  -25.3077  -16.6007 C   0  0  2  0  0  0  0  0  0  0  0  0
   30.2475  -26.6749  -17.0142 N   0  0  0  0  0  0  0  0  0  0  0  0
   29.6522  -24.4153  -17.3915 C   0  0  0  0  0  0  0  0  0  0  0  0
   29.3854  -24.5436  -18.6036 O   0  0  0  0  0  0  0  0  0  0  0  0
   29.0346  -23.2839  -16.7485 N   0  0  0  0  0  0  0  0  0  0  0  0
   28.1398  -22.4277  -17.4624 C   0  0  1  0  0  0  0  0  0  0  0  0
   27.2873  -21.5964  -16.5295 C   0  0  0  0  0  0  0  0  0  0  0  0
   26.5912  -22.5547  -15.1786 S   0  0  0  0  0  0  0  0  0  0  0  0
   28.8837  -21.5011  -18.3336 C   0  0  0  0  0  0  0  0  0  0  0  0
   30.2653  -21.4291  -18.3177 O   0  0  0  0  0  0  0  0  0  0  0  0
   28.2462  -20.7444  -19.1238 O   0  0  0  0  0  0  0  0  0  0  0  0
  2  1  1  1
  2  9  1  0
  3  2  1  0
  4  3  1  0
  5  4  2  0
  6  7  1  0
  6  5  1  0
  7  8  2  0
  8  4  1  0
  9 16  1  0
 10  9  2  0
 12 11  1  1
 12 13  1  0
 14 12  1  0
 15 14  1  6
 16 15  1  0
 17 19  1  0
 17 15  1  0
 18 17  2  0
 20 19  1  0
 20 23  1  0
 20 21  1  1
 22 21  1  0
 23 24  1  0
 25 23  2  0
M  END
$$$$
