HLC.pdb
     RDKit          3D

 25 25  0  0  1  0  0  0  0  0999 V2000
   24.2271  -20.1078  -17.2625 N   0  0  0  0  0  0  0  0  0  0  0  0
   24.5818  -21.5033  -17.2738 C   0  0  1  0  0  0  0  0  0  0  0  0
   25.8612  -21.7275  -18.0519 C   0  0  0  0  0  0  0  0  0  0  0  0
   25.8488  -20.9222  -19.2975 C   0  0  0  0  0  0  0  0  0  0  0  0
   26.7081  -19.8806  -19.5436 C   0  0  0  0  0  0  0  0  0  0  0  0
   26.3993  -19.3975  -20.7610 N   0  0  0  0  0  0  0  0  0  0  0  0
   25.3798  -20.1094  -21.2669 C   0  0  0  0  0  0  0  0  0  0  0  0
   25.0352  -21.0595  -20.3574 N   0  0  0  0  0  0  0  0  0  0  0  0
   24.7901  -22.0528  -15.9121 C   0  0  0  0  0  0  0  0  0  0  0  0
   25.0174  -23.2818  -15.8199 O   0  0  0  0  0  0  0  0  0  0  0  0
   27.6595  -19.0885  -12.8990 C   0  0  0  0  0  0  0  0  0  0  0  0
   26.7105  -20.0168  -13.6472 C   0  0  1  0  0  0  0  0  0  0  0  0
   27.6122  -20.6674  -14.7225 C   0  0  0  0  0  0  0  0  0  0  0  0
   26.1455  -21.0754  -12.7440 C   0  0  0  0  0  0  0  0  0  0  0  0
   25.0489  -21.8183  -13.4180 C   0  0  2  0  0  0  0  0  0  0  0  0
   24.7471  -21.2807  -14.7357 N   0  0  0  0  0  0  0  0  0  0  0  0
   23.8186  -21.7330  -12.6059 C   0  0  0  0  0  0  0  0  0  0  0  0
   23.6922  -22.1314  -11.4302 O   0  0  0  0  0  0  0  0  0  0  0  0
   22.6355  -21.1459  -13.1805 N   0  0  0  0  0  0  0  0  0  0  0  0
   21.3593  -21.2952  -12.5540 C   0  0  1  0  0  0  0  0  0  0  0  0
   20.8390  -19.9830  -12.0105 C   0  0  0  0  0  0  0  0  0  0  0  0
   21.9037  -19.2786  -10.7464 S   0  0  0  0  0  0  0  0  0  0  0  0
   20.3630  -21.8101  -13.5096 C   0  0  0  0  0  0  0  0  0  0  0  0
   19.0450  -22.0274  -13.1492 O   0  0  0  0  0  0  0  0  0  0  0  0
   20.7162  -22.0641  -14.6988 O   0  0  0  0  0  0  0  0  0  0  0  0
  2  1  1  1
  2  9  1  0
  3  2  1  0
  4  3  1  0
  5  4  2  0
  6  7  1  0
  6  5  1  0
  7  8  2  0
  8  4  1  0
  9 16  1  0
 10  9  2  0
 12 11  1  1
 12 13  1  0
 14 12  1  0
 15 14  1  1
 16 15  1  0
 17 19  1  0
 17 15  1  0
 18 17  2  0
 20 19  1  0
 20 23  1  0
 20 21  1  6
 22 21  1  0
 23 24  1  0
 25 23  2  0
M  END
$$$$
