HLC.pdb
     RDKit          3D

 25 25  0  0  1  0  0  0  0  0999 V2000
   20.4927  -20.8056  -13.3972 N   0  0  0  0  0  0  0  0  0  0  0  0
   21.5325  -21.7038  -13.8277 C   0  0  1  0  0  0  0  0  0  0  0  0
   21.3605  -22.0664  -15.2877 C   0  0  0  0  0  0  0  0  0  0  0  0
   20.1211  -22.8597  -15.4741 C   0  0  0  0  0  0  0  0  0  0  0  0
   20.0000  -24.1823  -15.1277 C   0  0  0  0  0  0  0  0  0  0  0  0
   18.7461  -24.5562  -15.4419 N   0  0  0  0  0  0  0  0  0  0  0  0
   18.0970  -23.5059  -15.9687 C   0  0  0  0  0  0  0  0  0  0  0  0
   18.9511  -22.4482  -15.9899 N   0  0  0  0  0  0  0  0  0  0  0  0
   22.8895  -21.1264  -13.6722 C   0  0  0  0  0  0  0  0  0  0  0  0
   23.0923  -19.9977  -14.1779 O   0  0  0  0  0  0  0  0  0  0  0  0
   25.5655  -21.4323   -9.0679 C   0  0  0  0  0  0  0  0  0  0  0  0
   24.9836  -21.0665  -10.4281 C   0  0  1  0  0  0  0  0  0  0  0  0
   24.8847  -19.5236  -10.3773 C   0  0  0  0  0  0  0  0  0  0  0  0
   25.8917  -21.4847  -11.5489 C   0  0  0  0  0  0  0  0  0  0  0  0
   25.2756  -21.1909  -12.8690 C   0  0  2  0  0  0  0  0  0  0  0  0
   23.9461  -21.7672  -12.9977 N   0  0  0  0  0  0  0  0  0  0  0  0
   26.1151  -21.7537  -13.9454 C   0  0  0  0  0  0  0  0  0  0  0  0
   26.2252  -22.9644  -14.2265 O   0  0  0  0  0  0  0  0  0  0  0  0
   26.8929  -20.8642  -14.7691 N   0  0  0  0  0  0  0  0  0  0  0  0
   27.2906  -21.2405  -16.0897 C   0  0  1  0  0  0  0  0  0  0  0  0
   26.1131  -21.6799  -16.9313 C   0  0  0  0  0  0  0  0  0  0  0  0
   26.5772  -22.1074  -18.6135 S   0  0  0  0  0  0  0  0  0  0  0  0
   27.9403  -20.1143  -16.7826 C   0  0  0  0  0  0  0  0  0  0  0  0
   29.0868  -20.2816  -17.5390 O   0  0  0  0  0  0  0  0  0  0  0  0
   27.4403  -18.9548  -16.6880 O   0  0  0  0  0  0  0  0  0  0  0  0
  2  1  1  6
  2  9  1  0
  3  2  1  0
  4  3  1  0
  5  4  2  0
  6  7  1  0
  6  5  1  0
  7  8  2  0
  8  4  1  0
  9 16  1  0
 10  9  2  0
 12 11  1  1
 12 13  1  0
 14 12  1  0
 15 14  1  1
 16 15  1  0
 17 19  1  0
 17 15  1  0
 18 17  2  0
 20 19  1  0
 20 23  1  0
 20 21  1  6
 22 21  1  0
 23 24  1  0
 25 23  2  0
M  END
$$$$
