HLC.pdb
     RDKit          3D

 25 25  0  0  1  0  0  0  0  0999 V2000
   24.2377  -19.6564  -17.3496 N   0  0  0  0  0  0  0  0  0  0  0  0
   23.4607  -19.1788  -16.2353 C   0  0  1  0  0  0  0  0  0  0  0  0
   22.1650  -18.5555  -16.7100 C   0  0  0  0  0  0  0  0  0  0  0  0
   22.4470  -17.3415  -17.5141 C   0  0  0  0  0  0  0  0  0  0  0  0
   22.3856  -17.3003  -18.8846 C   0  0  0  0  0  0  0  0  0  0  0  0
   22.7015  -16.0453  -19.2533 N   0  0  0  0  0  0  0  0  0  0  0  0
   22.9540  -15.3183  -18.1534 C   0  0  0  0  0  0  0  0  0  0  0  0
   22.7962  -16.1232  -17.0690 N   0  0  0  0  0  0  0  0  0  0  0  0
   23.1092  -20.2556  -15.2781 C   0  0  0  0  0  0  0  0  0  0  0  0
   22.9670  -21.4106  -15.7435 O   0  0  0  0  0  0  0  0  0  0  0  0
   25.1954  -20.6900  -10.2555 C   0  0  0  0  0  0  0  0  0  0  0  0
   24.6075  -20.8818  -11.6484 C   0  0  1  0  0  0  0  0  0  0  0  0
   25.1519  -22.2622  -12.0850 C   0  0  0  0  0  0  0  0  0  0  0  0
   23.1062  -20.9102  -11.6162 C   0  0  0  0  0  0  0  0  0  0  0  0
   22.5499  -21.1171  -12.9786 C   0  0  2  0  0  0  0  0  0  0  0  0
   22.9292  -20.0541  -13.8965 N   0  0  0  0  0  0  0  0  0  0  0  0
   21.0751  -21.1490  -12.9136 C   0  0  0  0  0  0  0  0  0  0  0  0
   20.3240  -20.1526  -12.9060 O   0  0  0  0  0  0  0  0  0  0  0  0
   20.4008  -22.4203  -12.8521 N   0  0  0  0  0  0  0  0  0  0  0  0
   18.9735  -22.4991  -12.8564 C   0  0  1  0  0  0  0  0  0  0  0  0
   18.4636  -23.4686  -13.8995 C   0  0  0  0  0  0  0  0  0  0  0  0
   19.4415  -24.9728  -13.9930 S   0  0  0  0  0  0  0  0  0  0  0  0
   18.4690  -22.9456  -11.5461 C   0  0  0  0  0  0  0  0  0  0  0  0
   17.1215  -22.9237  -11.2327 O   0  0  0  0  0  0  0  0  0  0  0  0
   19.2873  -23.3635  -10.6749 O   0  0  0  0  0  0  0  0  0  0  0  0
  2  1  1  6
  2  9  1  0
  3  2  1  0
  4  3  1  0
  5  4  2  0
  6  7  1  0
  6  5  1  0
  7  8  2  0
  8  4  1  0
  9 16  1  0
 10  9  2  0
 12 11  1  1
 12 13  1  0
 14 12  1  0
 15 14  1  1
 16 15  1  0
 17 19  1  0
 17 15  1  0
 18 17  2  0
 20 19  1  0
 20 23  1  0
 20 21  1  6
 22 21  1  0
 23 24  1  0
 25 23  2  0
M  END
$$$$
