HLC.pdb
     RDKit          3D

 25 25  0  0  1  0  0  0  0  0999 V2000
   22.0330  -12.9698  -18.6730 N   0  0  0  0  0  0  0  0  0  0  0  0
   21.2864  -12.6864  -17.4748 C   0  0  1  0  0  0  0  0  0  0  0  0
   21.2322  -13.9021  -16.5738 C   0  0  0  0  0  0  0  0  0  0  0  0
   20.6269  -15.0469  -17.2971 C   0  0  0  0  0  0  0  0  0  0  0  0
   19.2803  -15.1812  -17.5265 C   0  0  0  0  0  0  0  0  0  0  0  0
   19.1111  -16.3317  -18.2035 N   0  0  0  0  0  0  0  0  0  0  0  0
   20.3097  -16.9049  -18.3954 C   0  0  0  0  0  0  0  0  0  0  0  0
   21.2553  -16.1068  -17.8318 N   0  0  0  0  0  0  0  0  0  0  0  0
   21.8707  -11.5758  -16.6845 C   0  0  0  0  0  0  0  0  0  0  0  0
   21.2735  -11.2459  -15.6332 O   0  0  0  0  0  0  0  0  0  0  0  0
   27.2742  -10.6783  -16.3831 C   0  0  0  0  0  0  0  0  0  0  0  0
   25.7839  -10.8139  -16.0952 C   0  0  1  0  0  0  0  0  0  0  0  0
   25.7262  -10.9991  -14.5606 C   0  0  0  0  0  0  0  0  0  0  0  0
   25.0293   -9.5769  -16.4904 C   0  0  0  0  0  0  0  0  0  0  0  0
   23.5684   -9.7586  -16.2870 C   0  0  2  0  0  0  0  0  0  0  0  0
   23.0416  -10.8826  -17.0456 N   0  0  0  0  0  0  0  0  0  0  0  0
   22.8509   -8.5450  -16.7259 C   0  0  0  0  0  0  0  0  0  0  0  0
   22.8749   -8.0595  -17.8751 O   0  0  0  0  0  0  0  0  0  0  0  0
   22.0396   -7.8257  -15.7777 N   0  0  0  0  0  0  0  0  0  0  0  0
   21.3138   -6.6567  -16.1653 C   0  0  1  0  0  0  0  0  0  0  0  0
   19.8442   -6.9470  -16.3750 C   0  0  0  0  0  0  0  0  0  0  0  0
   19.2685   -8.3598  -15.4261 S   0  0  0  0  0  0  0  0  0  0  0  0
   21.4203   -5.6081  -15.1358 C   0  0  0  0  0  0  0  0  0  0  0  0
   20.9224   -4.3324  -15.3340 O   0  0  0  0  0  0  0  0  0  0  0  0
   21.9832   -5.8747  -14.0333 O   0  0  0  0  0  0  0  0  0  0  0  0
  2  1  1  6
  2  9  1  0
  3  2  1  0
  4  3  1  0
  5  4  2  0
  6  7  1  0
  6  5  1  0
  7  8  2  0
  8  4  1  0
  9 16  1  0
 10  9  2  0
 12 11  1  1
 12 13  1  0
 14 12  1  0
 15 14  1  6
 16 15  1  0
 17 19  1  0
 17 15  1  0
 18 17  2  0
 20 19  1  0
 20 23  1  0
 20 21  1  1
 22 21  1  0
 23 24  1  0
 25 23  2  0
M  END
$$$$
