HLC.pdb
     RDKit          3D

 25 25  0  0  1  0  0  0  0  0999 V2000
   27.2570  -20.4887  -16.0456 N   0  0  0  0  0  0  0  0  0  0  0  0
   26.5009  -19.6066  -15.1950 C   0  0  1  0  0  0  0  0  0  0  0  0
   25.7494  -18.5800  -16.0159 C   0  0  0  0  0  0  0  0  0  0  0  0
   26.7032  -17.6457  -16.6622 C   0  0  0  0  0  0  0  0  0  0  0  0
   28.0576  -17.6602  -16.4402 C   0  0  0  0  0  0  0  0  0  0  0  0
   28.5883  -16.6786  -17.1922 N   0  0  0  0  0  0  0  0  0  0  0  0
   27.6030  -16.0648  -17.8664 C   0  0  0  0  0  0  0  0  0  0  0  0
   26.4281  -16.6652  -17.5380 N   0  0  0  0  0  0  0  0  0  0  0  0
   25.5037  -20.3255  -14.3654 C   0  0  0  0  0  0  0  0  0  0  0  0
   24.9078  -21.2917  -14.8966 O   0  0  0  0  0  0  0  0  0  0  0  0
   26.1345  -20.2320   -8.9549 C   0  0  0  0  0  0  0  0  0  0  0  0
   25.8929  -20.5827  -10.4182 C   0  0  1  0  0  0  0  0  0  0  0  0
   26.3860  -22.0448  -10.5269 C   0  0  0  0  0  0  0  0  0  0  0  0
   24.4353  -20.5062  -10.7721 C   0  0  0  0  0  0  0  0  0  0  0  0
   24.2308  -20.7200  -12.2284 C   0  0  2  0  0  0  0  0  0  0  0  0
   25.1949  -19.9870  -13.0343 N   0  0  0  0  0  0  0  0  0  0  0  0
   22.8816  -20.2599  -12.6135 C   0  0  0  0  0  0  0  0  0  0  0  0
   22.5880  -19.1141  -13.0107 O   0  0  0  0  0  0  0  0  0  0  0  0
   21.7765  -21.1808  -12.5401 N   0  0  0  0  0  0  0  0  0  0  0  0
   20.5393  -20.9023  -13.1998 C   0  0  1  0  0  0  0  0  0  0  0  0
   20.7021  -20.8345  -14.7021 C   0  0  0  0  0  0  0  0  0  0  0  0
   19.1414  -20.6176  -15.5652 S   0  0  0  0  0  0  0  0  0  0  0  0
   19.5412  -21.9450  -12.9046 C   0  0  0  0  0  0  0  0  0  0  0  0
   18.2030  -21.6474  -12.7174 O   0  0  0  0  0  0  0  0  0  0  0  0
   19.9115  -23.1528  -12.8179 O   0  0  0  0  0  0  0  0  0  0  0  0
  2  1  1  6
  2  9  1  0
  3  2  1  0
  4  3  1  0
  5  4  2  0
  6  7  1  0
  6  5  1  0
  7  8  2  0
  8  4  1  0
  9 16  1  0
 10  9  2  0
 12 11  1  1
 12 13  1  0
 14 12  1  0
 15 14  1  1
 16 15  1  0
 17 19  1  0
 17 15  1  0
 18 17  2  0
 20 19  1  0
 20 23  1  0
 20 21  1  6
 22 21  1  0
 23 24  1  0
 25 23  2  0
M  END
$$$$
