HLC.pdb
     RDKit          3D

 25 25  0  0  1  0  0  0  0  0999 V2000
   28.3283  -24.9745  -16.3158 N   0  0  0  0  0  0  0  0  0  0  0  0
   28.6486  -24.0711  -17.3903 C   0  0  1  0  0  0  0  0  0  0  0  0
   28.5265  -24.7640  -18.7310 C   0  0  0  0  0  0  0  0  0  0  0  0
   29.4677  -25.9082  -18.8018 C   0  0  0  0  0  0  0  0  0  0  0  0
   30.8262  -25.7923  -18.6442 C   0  0  0  0  0  0  0  0  0  0  0  0
   31.3423  -27.0284  -18.7726 N   0  0  0  0  0  0  0  0  0  0  0  0
   30.3441  -27.8958  -19.0034 C   0  0  0  0  0  0  0  0  0  0  0  0
   29.1757  -27.2007  -19.0221 N   0  0  0  0  0  0  0  0  0  0  0  0
   27.7617  -22.8830  -17.4239 C   0  0  0  0  0  0  0  0  0  0  0  0
   26.7992  -22.8648  -16.6213 O   0  0  0  0  0  0  0  0  0  0  0  0
   29.8730  -17.9396  -17.9907 C   0  0  0  0  0  0  0  0  0  0  0  0
   28.9636  -19.0848  -17.5617 C   0  0  1  0  0  0  0  0  0  0  0  0
   28.3078  -18.5601  -16.2627 C   0  0  0  0  0  0  0  0  0  0  0  0
   27.9068  -19.3673  -18.5908 C   0  0  0  0  0  0  0  0  0  0  0  0
   27.1307  -20.5835  -18.2345 C   0  0  2  0  0  0  0  0  0  0  0  0
   27.9393  -21.7913  -18.2949 N   0  0  0  0  0  0  0  0  0  0  0  0
   26.0058  -20.7489  -19.1766 C   0  0  0  0  0  0  0  0  0  0  0  0
   26.0911  -20.7459  -20.4214 O   0  0  0  0  0  0  0  0  0  0  0  0
   24.6747  -20.9326  -18.6578 N   0  0  0  0  0  0  0  0  0  0  0  0
   23.5604  -21.1162  -19.5343 C   0  0  1  0  0  0  0  0  0  0  0  0
   22.6245  -22.1970  -19.0405 C   0  0  0  0  0  0  0  0  0  0  0  0
   23.4143  -23.8066  -18.9253 S   0  0  0  0  0  0  0  0  0  0  0  0
   22.7809  -19.8722  -19.6593 C   0  0  0  0  0  0  0  0  0  0  0  0
   21.6995  -19.7672  -20.5160 O   0  0  0  0  0  0  0  0  0  0  0  0
   23.1044  -18.8640  -18.9649 O   0  0  0  0  0  0  0  0  0  0  0  0
  2  1  1  1
  2  9  1  0
  3  2  1  0
  4  3  1  0
  5  4  2  0
  6  7  1  0
  6  5  1  0
  7  8  2  0
  8  4  1  0
  9 16  1  0
 10  9  2  0
 12 11  1  6
 12 13  1  0
 14 12  1  0
 15 14  1  6
 16 15  1  0
 17 19  1  0
 17 15  1  0
 18 17  2  0
 20 19  1  0
 20 23  1  0
 20 21  1  1
 22 21  1  0
 23 24  1  0
 25 23  2  0
M  END
$$$$
