AGA.pdb
     RDKit          3D

 15 14  0  0  1  0  0  0  0  0999 V2000
   16.0047  -11.0562  -17.5528 C   0  0  0  0  0  0  0  0  0  0  0  0
   17.0196  -11.0421  -16.4085 C   0  0  2  0  0  0  0  0  0  0  0  0
   16.4364  -10.4965  -15.2288 N   0  0  0  0  0  0  0  0  0  0  0  0
   18.1297  -10.1668  -16.8541 C   0  0  0  0  0  0  0  0  0  0  0  0
   19.0839  -10.6134  -17.5669 O   0  0  0  0  0  0  0  0  0  0  0  0
   18.0982   -8.8010  -16.4588 N   0  0  0  0  0  0  0  0  0  0  0  0
   19.1470   -7.9080  -16.9032 C   0  0  0  0  0  0  0  0  0  0  0  0
   19.5002   -7.0065  -15.7603 C   0  0  0  0  0  0  0  0  0  0  0  0
   18.6267   -6.5782  -14.9506 O   0  0  0  0  0  0  0  0  0  0  0  0
   22.6615   -5.9183  -14.1447 C   0  0  0  0  0  0  0  0  0  0  0  0
   21.1571   -5.7371  -14.3869 C   0  0  2  0  0  0  0  0  0  0  0  0
   20.8334   -6.5804  -15.5190 N   0  0  0  0  0  0  0  0  0  0  0  0
   20.8893   -4.3151  -14.6644 C   0  0  0  0  0  0  0  0  0  0  0  0
   20.8910   -3.5030  -13.7166 O   0  0  0  0  0  0  0  0  0  0  0  0
   20.6392   -3.8677  -15.9385 O   0  0  0  0  0  0  0  0  0  0  0  0
  2  1  1  6
  2  3  1  0
  4  2  1  0
  5  4  2  0
  6  4  1  0
  7  6  1  0
  8  7  1  0
  9  8  2  0
 11 10  1  6
 11 13  1  0
 11 12  1  0
 12  8  1  0
 13 15  1  0
 14 13  2  0
M  END
$$$$
