AGA.pdb
     RDKit          3D

 15 14  0  0  1  0  0  0  0  0999 V2000
   19.2245  -12.2523  -17.6664 C   0  0  0  0  0  0  0  0  0  0  0  0
   19.0909  -10.7289  -17.6353 C   0  0  2  0  0  0  0  0  0  0  0  0
   19.3782  -10.1751  -18.9161 N   0  0  0  0  0  0  0  0  0  0  0  0
   20.0966  -10.2476  -16.6586 C   0  0  0  0  0  0  0  0  0  0  0  0
   20.0470  -10.5834  -15.4328 O   0  0  0  0  0  0  0  0  0  0  0  0
   21.1282   -9.3920  -17.1346 N   0  0  0  0  0  0  0  0  0  0  0  0
   22.1014   -8.8651  -16.2018 C   0  0  0  0  0  0  0  0  0  0  0  0
   21.6107   -7.5318  -15.7273 C   0  0  0  0  0  0  0  0  0  0  0  0
   20.8806   -6.7915  -16.4490 O   0  0  0  0  0  0  0  0  0  0  0  0
   21.5663   -5.7446  -12.4668 C   0  0  0  0  0  0  0  0  0  0  0  0
   21.4296   -5.7401  -13.9953 C   0  0  2  0  0  0  0  0  0  0  0  0
   21.9355   -7.0215  -14.4423 N   0  0  0  0  0  0  0  0  0  0  0  0
   22.2145   -4.6178  -14.5383 C   0  0  0  0  0  0  0  0  0  0  0  0
   23.3593   -4.8397  -14.9836 O   0  0  0  0  0  0  0  0  0  0  0  0
   21.7145   -3.3390  -14.5643 O   0  0  0  0  0  0  0  0  0  0  0  0
  2  1  1  6
  2  3  1  0
  4  2  1  0
  5  4  2  0
  6  4  1  0
  7  6  1  0
  8  7  1  0
  9  8  2  0
 11 10  1  1
 11 13  1  0
 11 12  1  0
 12  8  1  0
 13 15  1  0
 14 13  2  0
M  END
$$$$
