AGA.pdb
     RDKit          3D

 15 14  0  0  1  0  0  0  0  0999 V2000
   18.7013  -12.0746  -16.5098 C   0  0  0  0  0  0  0  0  0  0  0  0
   19.1917  -10.7422  -17.0788 C   0  0  2  0  0  0  0  0  0  0  0  0
   20.3377  -10.9408  -17.9015 N   0  0  0  0  0  0  0  0  0  0  0  0
   19.5672   -9.9097  -15.9113 C   0  0  0  0  0  0  0  0  0  0  0  0
   18.7125   -9.5747  -15.0308 O   0  0  0  0  0  0  0  0  0  0  0  0
   20.9223   -9.4918  -15.8020 N   0  0  0  0  0  0  0  0  0  0  0  0
   21.3358   -8.7143  -14.6533 C   0  0  0  0  0  0  0  0  0  0  0  0
   21.2678   -7.2657  -15.0282 C   0  0  0  0  0  0  0  0  0  0  0  0
   21.4247   -6.8749  -16.2217 O   0  0  0  0  0  0  0  0  0  0  0  0
   20.0338   -4.1772  -13.4350 C   0  0  0  0  0  0  0  0  0  0  0  0
   20.9610   -4.8535  -14.4537 C   0  0  2  0  0  0  0  0  0  0  0  0
   21.0238   -6.2481  -14.0679 N   0  0  0  0  0  0  0  0  0  0  0  0
   22.2829   -4.2054  -14.3952 C   0  0  0  0  0  0  0  0  0  0  0  0
   23.1518   -4.6714  -13.6297 O   0  0  0  0  0  0  0  0  0  0  0  0
   22.5767   -3.1047  -15.1620 O   0  0  0  0  0  0  0  0  0  0  0  0
  2  1  1  1
  2  3  1  0
  4  2  1  0
  5  4  2  0
  6  4  1  0
  7  6  1  0
  8  7  1  0
  9  8  2  0
 11 10  1  1
 11 13  1  0
 11 12  1  0
 12  8  1  0
 13 15  1  0
 14 13  2  0
M  END
$$$$
