AGA.pdb
     RDKit          3D

 15 14  0  0  1  0  0  0  0  0999 V2000
   19.4223  -11.4554  -18.9610 C   0  0  0  0  0  0  0  0  0  0  0  0
   20.5185  -10.4381  -18.6401 C   0  0  2  0  0  0  0  0  0  0  0  0
   21.5431  -11.0379  -17.8527 N   0  0  0  0  0  0  0  0  0  0  0  0
   19.8655   -9.3636  -17.8551 C   0  0  0  0  0  0  0  0  0  0  0  0
   18.9674   -8.6203  -18.3637 O   0  0  0  0  0  0  0  0  0  0  0  0
   20.2749   -9.1852  -16.5047 N   0  0  0  0  0  0  0  0  0  0  0  0
   19.6710   -8.1358  -15.7117 C   0  0  0  0  0  0  0  0  0  0  0  0
   20.7544   -7.1860  -15.3018 C   0  0  0  0  0  0  0  0  0  0  0  0
   21.9292   -7.5808  -15.0454 O   0  0  0  0  0  0  0  0  0  0  0  0
   21.0412   -3.4694  -15.0328 C   0  0  0  0  0  0  0  0  0  0  0  0
   21.6020   -4.8834  -14.8305 C   0  0  2  0  0  0  0  0  0  0  0  0
   20.5268   -5.7897  -15.1772 N   0  0  0  0  0  0  0  0  0  0  0  0
   22.0167   -5.0324  -13.4246 C   0  0  0  0  0  0  0  0  0  0  0  0
   21.2514   -5.6111  -12.6261 O   0  0  0  0  0  0  0  0  0  0  0  0
   23.2222   -4.5500  -12.9773 O   0  0  0  0  0  0  0  0  0  0  0  0
  2  1  1  1
  2  3  1  0
  4  2  1  0
  5  4  2  0
  6  4  1  0
  7  6  1  0
  8  7  1  0
  9  8  2  0
 11 10  1  1
 11 13  1  0
 11 12  1  0
 12  8  1  0
 13 15  1  0
 14 13  2  0
M  END
$$$$
