AGA.pdb
     RDKit          3D

 15 14  0  0  1  0  0  0  0  0999 V2000
   15.0600  -10.6614  -16.1158 C   0  0  0  0  0  0  0  0  0  0  0  0
   16.0392  -10.3160  -14.9927 C   0  0  2  0  0  0  0  0  0  0  0  0
   15.4706   -9.3516  -14.1118 N   0  0  0  0  0  0  0  0  0  0  0  0
   17.2316   -9.7320  -15.6517 C   0  0  0  0  0  0  0  0  0  0  0  0
   17.9879  -10.4308  -16.3985 O   0  0  0  0  0  0  0  0  0  0  0  0
   17.5092   -8.3559  -15.4237 N   0  0  0  0  0  0  0  0  0  0  0  0
   18.6585   -7.7478  -16.0595 C   0  0  0  0  0  0  0  0  0  0  0  0
   19.5179   -7.1528  -14.9867 C   0  0  0  0  0  0  0  0  0  0  0  0
   19.0583   -6.8650  -13.8432 O   0  0  0  0  0  0  0  0  0  0  0  0
   23.1612   -6.7105  -14.4745 C   0  0  0  0  0  0  0  0  0  0  0  0
   21.7155   -6.3303  -14.1280 C   0  0  2  0  0  0  0  0  0  0  0  0
   20.8964   -6.8773  -15.1899 N   0  0  0  0  0  0  0  0  0  0  0  0
   21.6156   -4.8622  -14.0554 C   0  0  0  0  0  0  0  0  0  0  0  0
   21.1633   -4.2373  -15.0367 O   0  0  0  0  0  0  0  0  0  0  0  0
   22.0081   -4.1710  -12.9356 O   0  0  0  0  0  0  0  0  0  0  0  0
  2  1  1  6
  2  3  1  0
  4  2  1  0
  5  4  2  0
  6  4  1  0
  7  6  1  0
  8  7  1  0
  9  8  2  0
 11 10  1  6
 11 13  1  0
 11 12  1  0
 12  8  1  0
 13 15  1  0
 14 13  2  0
M  END
$$$$
