AGA.pdb
     RDKit          3D

 15 14  0  0  1  0  0  0  0  0999 V2000
   24.0990  -32.6770   -9.3765 C   0  0  0  0  0  0  0  0  0  0  0  0
   25.2868  -32.4417   -8.4420 C   0  0  2  0  0  0  0  0  0  0  0  0
   26.4460  -33.1129   -8.9271 N   0  0  0  0  0  0  0  0  0  0  0  0
   24.9006  -33.0190   -7.1326 C   0  0  0  0  0  0  0  0  0  0  0  0
   23.8881  -32.5937   -6.4908 O   0  0  0  0  0  0  0  0  0  0  0  0
   25.7010  -34.0715   -6.6087 N   0  0  0  0  0  0  0  0  0  0  0  0
   25.3595  -34.6547   -5.3288 C   0  0  0  0  0  0  0  0  0  0  0  0
   26.5483  -34.5185   -4.4279 C   0  0  0  0  0  0  0  0  0  0  0  0
   27.6629  -34.0925   -4.8499 O   0  0  0  0  0  0  0  0  0  0  0  0
   27.1209  -34.8033   -0.7537 C   0  0  0  0  0  0  0  0  0  0  0  0
   27.6474  -34.6882   -2.1905 C   0  0  2  0  0  0  0  0  0  0  0  0
   26.4943  -34.8587   -3.0501 N   0  0  0  0  0  0  0  0  0  0  0  0
   28.6587  -35.7369   -2.4105 C   0  0  0  0  0  0  0  0  0  0  0  0
   28.3528  -36.7397   -3.0878 O   0  0  0  0  0  0  0  0  0  0  0  0
   29.9245  -35.6336   -1.8879 O   0  0  0  0  0  0  0  0  0  0  0  0
  2  1  1  6
  2  3  1  0
  4  2  1  0
  5  4  2  0
  6  4  1  0
  7  6  1  0
  8  7  1  0
  9  8  2  0
 11 10  1  1
 11 13  1  0
 11 12  1  0
 12  8  1  0
 13 15  1  0
 14 13  2  0
M  END
$$$$
