AGA.pdb
     RDKit          3D

 15 14  0  0  1  0  0  0  0  0999 V2000
   17.6210  -10.1308  -19.9361 C   0  0  0  0  0  0  0  0  0  0  0  0
   17.3622   -9.2923  -18.6833 C   0  0  2  0  0  0  0  0  0  0  0  0
   16.5308   -8.1770  -18.9905 N   0  0  0  0  0  0  0  0  0  0  0  0
   18.6876   -8.8040  -18.2341 C   0  0  0  0  0  0  0  0  0  0  0  0
   19.5066   -9.5656  -17.6282 O   0  0  0  0  0  0  0  0  0  0  0  0
   19.0214   -7.4476  -18.5016 N   0  0  0  0  0  0  0  0  0  0  0  0
   20.3474   -6.9651  -18.1798 C   0  0  0  0  0  0  0  0  0  0  0  0
   20.2564   -6.1804  -16.9072 C   0  0  0  0  0  0  0  0  0  0  0  0
   19.1924   -5.5900  -16.5593 O   0  0  0  0  0  0  0  0  0  0  0  0
   22.2709   -5.9141  -13.8242 C   0  0  0  0  0  0  0  0  0  0  0  0
   21.2404   -5.3045  -14.7841 C   0  0  2  0  0  0  0  0  0  0  0  0
   21.3569   -6.0532  -16.0184 N   0  0  0  0  0  0  0  0  0  0  0  0
   21.5546   -3.8775  -14.9733 C   0  0  0  0  0  0  0  0  0  0  0  0
   22.2938   -3.5413  -15.9212 O   0  0  0  0  0  0  0  0  0  0  0  0
   21.0530   -2.9150  -14.1319 O   0  0  0  0  0  0  0  0  0  0  0  0
  2  1  1  6
  2  3  1  0
  4  2  1  0
  5  4  2  0
  6  4  1  0
  7  6  1  0
  8  7  1  0
  9  8  2  0
 11 10  1  1
 11 13  1  0
 11 12  1  0
 12  8  1  0
 13 15  1  0
 14 13  2  0
M  END
$$$$
