AGA.pdb
     RDKit          3D

 15 14  0  0  1  0  0  0  0  0999 V2000
   18.0102   -9.9985  -17.8041 C   0  0  0  0  0  0  0  0  0  0  0  0
   18.5430  -10.2769  -16.3976 C   0  0  2  0  0  0  0  0  0  0  0  0
   18.0519   -9.3083  -15.4756 N   0  0  0  0  0  0  0  0  0  0  0  0
   20.0181  -10.1624  -16.4865 C   0  0  0  0  0  0  0  0  0  0  0  0
   20.7066  -10.9683  -17.1896 O   0  0  0  0  0  0  0  0  0  0  0  0
   20.6483   -9.1168  -15.7569 N   0  0  0  0  0  0  0  0  0  0  0  0
   22.0545   -8.8487  -15.9701 C   0  0  0  0  0  0  0  0  0  0  0  0
   22.3150   -7.4233  -15.5907 C   0  0  0  0  0  0  0  0  0  0  0  0
   23.4852   -6.9422  -15.5578 O   0  0  0  0  0  0  0  0  0  0  0  0
   20.1787   -4.4118  -15.2339 C   0  0  0  0  0  0  0  0  0  0  0  0
   21.5230   -5.1219  -15.0257 C   0  0  2  0  0  0  0  0  0  0  0  0
   21.2659   -6.5300  -15.2463 N   0  0  0  0  0  0  0  0  0  0  0  0
   21.9928   -4.8555  -13.6549 C   0  0  0  0  0  0  0  0  0  0  0  0
   21.9014   -5.7585  -12.7979 O   0  0  0  0  0  0  0  0  0  0  0  0
   22.5264   -3.6401  -13.3029 O   0  0  0  0  0  0  0  0  0  0  0  0
  2  1  1  6
  2  3  1  0
  4  2  1  0
  5  4  2  0
  6  4  1  0
  7  6  1  0
  8  7  1  0
  9  8  2  0
 11 10  1  1
 11 13  1  0
 11 12  1  0
 12  8  1  0
 13 15  1  0
 14 13  2  0
M  END
$$$$
