AGA.pdb
     RDKit          3D

 15 14  0  0  1  0  0  0  0  0999 V2000
   17.9296  -12.8235  -15.5266 C   0  0  0  0  0  0  0  0  0  0  0  0
   18.8918  -12.1339  -16.4952 C   0  0  2  0  0  0  0  0  0  0  0  0
   20.2399  -12.3031  -16.0668 N   0  0  0  0  0  0  0  0  0  0  0  0
   18.5463  -10.6928  -16.4620 C   0  0  0  0  0  0  0  0  0  0  0  0
   17.3889  -10.2786  -16.7888 O   0  0  0  0  0  0  0  0  0  0  0  0
   19.5542   -9.7775  -16.0507 N   0  0  0  0  0  0  0  0  0  0  0  0
   19.2422   -8.3666  -15.9681 C   0  0  0  0  0  0  0  0  0  0  0  0
   20.4509   -7.6571  -15.4396 C   0  0  0  0  0  0  0  0  0  0  0  0
   21.3417   -8.2587  -14.7716 O   0  0  0  0  0  0  0  0  0  0  0  0
   21.8529   -4.2094  -15.7847 C   0  0  0  0  0  0  0  0  0  0  0  0
   21.8570   -5.6108  -15.1595 C   0  0  2  0  0  0  0  0  0  0  0  0
   20.6674   -6.2704  -15.6570 N   0  0  0  0  0  0  0  0  0  0  0  0
   21.8395   -5.4756  -13.6924 C   0  0  0  0  0  0  0  0  0  0  0  0
   20.7493   -5.5576  -13.0903 O   0  0  0  0  0  0  0  0  0  0  0  0
   22.9928   -5.2623  -12.9779 O   0  0  0  0  0  0  0  0  0  0  0  0
  2  1  1  1
  2  3  1  0
  4  2  1  0
  5  4  2  0
  6  4  1  0
  7  6  1  0
  8  7  1  0
  9  8  2  0
 11 10  1  6
 11 13  1  0
 11 12  1  0
 12  8  1  0
 13 15  1  0
 14 13  2  0
M  END
$$$$
