AGA.pdb
     RDKit          3D

 15 14  0  0  1  0  0  0  0  0999 V2000
   17.9974  -11.7846  -17.7581 C   0  0  0  0  0  0  0  0  0  0  0  0
   19.0380  -11.4121  -16.7008 C   0  0  2  0  0  0  0  0  0  0  0  0
   19.2026  -12.4733  -15.7647 N   0  0  0  0  0  0  0  0  0  0  0  0
   18.5034  -10.2209  -15.9992 C   0  0  0  0  0  0  0  0  0  0  0  0
   17.3143  -10.1924  -15.5485 O   0  0  0  0  0  0  0  0  0  0  0  0
   19.3649   -9.1001  -15.8424 N   0  0  0  0  0  0  0  0  0  0  0  0
   18.9471   -7.9937  -15.0080 C   0  0  0  0  0  0  0  0  0  0  0  0
   20.0544   -6.9852  -14.9910 C   0  0  0  0  0  0  0  0  0  0  0  0
   21.1821   -7.2199  -15.5156 O   0  0  0  0  0  0  0  0  0  0  0  0
   20.3033   -3.4037  -13.9441 C   0  0  0  0  0  0  0  0  0  0  0  0
   20.9026   -4.6747  -14.5608 C   0  0  2  0  0  0  0  0  0  0  0  0
   19.9038   -5.7089  -14.3863 N   0  0  0  0  0  0  0  0  0  0  0  0
   22.1574   -4.9962  -13.8588 C   0  0  0  0  0  0  0  0  0  0  0  0
   22.1192   -5.7539  -12.8676 O   0  0  0  0  0  0  0  0  0  0  0  0
   23.3621   -4.4815  -14.2710 O   0  0  0  0  0  0  0  0  0  0  0  0
  2  1  1  6
  2  3  1  0
  4  2  1  0
  5  4  2  0
  6  4  1  0
  7  6  1  0
  8  7  1  0
  9  8  2  0
 11 10  1  1
 11 13  1  0
 11 12  1  0
 12  8  1  0
 13 15  1  0
 14 13  2  0
M  END
$$$$
