AGA.pdb
     RDKit          3D

 15 14  0  0  1  0  0  0  0  0999 V2000
   18.3836  -12.9051  -16.3003 C   0  0  0  0  0  0  0  0  0  0  0  0
   19.7112  -12.4137  -16.8796 C   0  0  2  0  0  0  0  0  0  0  0  0
   20.7634  -12.5843  -15.9344 N   0  0  0  0  0  0  0  0  0  0  0  0
   19.5306  -10.9683  -17.1535 C   0  0  0  0  0  0  0  0  0  0  0  0
   18.7080  -10.5553  -18.0314 O   0  0  0  0  0  0  0  0  0  0  0  0
   20.3099  -10.0472  -16.4005 N   0  0  0  0  0  0  0  0  0  0  0  0
   20.0648   -8.6276  -16.5406 C   0  0  0  0  0  0  0  0  0  0  0  0
   21.0707   -7.9009  -15.7018 C   0  0  0  0  0  0  0  0  0  0  0  0
   21.5661   -8.4135  -14.6561 O   0  0  0  0  0  0  0  0  0  0  0  0
   22.9523   -4.6896  -16.0210 C   0  0  0  0  0  0  0  0  0  0  0  0
   22.5157   -5.9212  -15.2163 C   0  0  2  0  0  0  0  0  0  0  0  0
   21.5264   -6.5964  -16.0305 N   0  0  0  0  0  0  0  0  0  0  0  0
   21.9570   -5.4728  -13.9288 C   0  0  0  0  0  0  0  0  0  0  0  0
   20.7298   -5.2616  -13.8426 O   0  0  0  0  0  0  0  0  0  0  0  0
   22.7552   -5.2836  -12.8274 O   0  0  0  0  0  0  0  0  0  0  0  0
  2  1  1  1
  2  3  1  0
  4  2  1  0
  5  4  2  0
  6  4  1  0
  7  6  1  0
  8  7  1  0
  9  8  2  0
 11 10  1  6
 11 13  1  0
 11 12  1  0
 12  8  1  0
 13 15  1  0
 14 13  2  0
M  END
$$$$
