AGA.pdb
     RDKit          3D

 15 14  0  0  1  0  0  0  0  0999 V2000
   17.7884  -12.2714  -17.1837 C   0  0  0  0  0  0  0  0  0  0  0  0
   19.1536  -12.1446  -16.5057 C   0  0  2  0  0  0  0  0  0  0  0  0
   19.0130  -12.1709  -15.0883 N   0  0  0  0  0  0  0  0  0  0  0  0
   19.6969  -10.8285  -16.9179 C   0  0  0  0  0  0  0  0  0  0  0  0
   19.9907  -10.5804  -18.1304 O   0  0  0  0  0  0  0  0  0  0  0  0
   19.8823   -9.8416  -15.9108 N   0  0  0  0  0  0  0  0  0  0  0  0
   20.3338   -8.5187  -16.2864 C   0  0  0  0  0  0  0  0  0  0  0  0
   20.3306   -7.6638  -15.0565 C   0  0  0  0  0  0  0  0  0  0  0  0
   19.5259   -7.8679  -14.1012 O   0  0  0  0  0  0  0  0  0  0  0  0
   22.4551   -4.8893  -13.7419 C   0  0  0  0  0  0  0  0  0  0  0  0
   21.1702   -5.7279  -13.7185 C   0  0  2  0  0  0  0  0  0  0  0  0
   21.2290   -6.5762  -14.8908 N   0  0  0  0  0  0  0  0  0  0  0  0
   20.0105   -4.8197  -13.7529 C   0  0  0  0  0  0  0  0  0  0  0  0
   19.5382   -4.4833  -14.8582 O   0  0  0  0  0  0  0  0  0  0  0  0
   19.4418   -4.3384  -12.5992 O   0  0  0  0  0  0  0  0  0  0  0  0
  2  1  1  6
  2  3  1  0
  4  2  1  0
  5  4  2  0
  6  4  1  0
  7  6  1  0
  8  7  1  0
  9  8  2  0
 11 10  1  6
 11 13  1  0
 11 12  1  0
 12  8  1  0
 13 15  1  0
 14 13  2  0
M  END
$$$$
