AGA.pdb
     RDKit          3D

 15 14  0  0  1  0  0  0  0  0999 V2000
   14.8706  -12.8366  -16.9195 C   0  0  0  0  0  0  0  0  0  0  0  0
   15.3255  -11.6809  -16.0268 C   0  0  2  0  0  0  0  0  0  0  0  0
   14.8408  -10.4392  -16.5297 N   0  0  0  0  0  0  0  0  0  0  0  0
   16.8070  -11.6823  -16.0752 C   0  0  0  0  0  0  0  0  0  0  0  0
   17.4853  -12.6717  -15.6525 O   0  0  0  0  0  0  0  0  0  0  0  0
   17.4550  -10.5358  -16.6123 N   0  0  0  0  0  0  0  0  0  0  0  0
   18.8933  -10.5430  -16.7745 C   0  0  0  0  0  0  0  0  0  0  0  0
   19.4955   -9.8698  -15.5796 C   0  0  0  0  0  0  0  0  0  0  0  0
   18.7887   -9.2440  -14.7366 O   0  0  0  0  0  0  0  0  0  0  0  0
   22.8466   -9.8087  -13.9661 C   0  0  0  0  0  0  0  0  0  0  0  0
   21.4583   -9.1941  -14.1891 C   0  0  2  0  0  0  0  0  0  0  0  0
   20.8922   -9.8944  -15.3234 N   0  0  0  0  0  0  0  0  0  0  0  0
   21.6145   -7.7530  -14.4529 C   0  0  0  0  0  0  0  0  0  0  0  0
   21.8360   -6.9832  -13.4956 O   0  0  0  0  0  0  0  0  0  0  0  0
   21.5217   -7.2423  -15.7244 O   0  0  0  0  0  0  0  0  0  0  0  0
  2  1  1  6
  2  3  1  0
  4  2  1  0
  5  4  2  0
  6  4  1  0
  7  6  1  0
  8  7  1  0
  9  8  2  0
 11 10  1  6
 11 13  1  0
 11 12  1  0
 12  8  1  0
 13 15  1  0
 14 13  2  0
M  END
$$$$
