AGA.pdb
     RDKit          3D

 15 14  0  0  1  0  0  0  0  0999 V2000
   19.8703  -12.0352  -17.6225 C   0  0  0  0  0  0  0  0  0  0  0  0
   20.7591  -10.7918  -17.6816 C   0  0  2  0  0  0  0  0  0  0  0  0
   22.1353  -11.1578  -17.6408 N   0  0  0  0  0  0  0  0  0  0  0  0
   20.4304   -9.9935  -16.4767 C   0  0  0  0  0  0  0  0  0  0  0  0
   19.2638   -9.5227  -16.2886 O   0  0  0  0  0  0  0  0  0  0  0  0
   21.4651   -9.7665  -15.5278 N   0  0  0  0  0  0  0  0  0  0  0  0
   21.1946   -8.9521  -14.3622 C   0  0  0  0  0  0  0  0  0  0  0  0
   21.5050   -7.5291  -14.7117 C   0  0  0  0  0  0  0  0  0  0  0  0
   22.4184   -7.2254  -15.5334 O   0  0  0  0  0  0  0  0  0  0  0  0
   19.8520   -4.2527  -14.1352 C   0  0  0  0  0  0  0  0  0  0  0  0
   21.0916   -5.0727  -14.5171 C   0  0  2  0  0  0  0  0  0  0  0  0
   20.7937   -6.4396  -14.1424 N   0  0  0  0  0  0  0  0  0  0  0  0
   22.2552   -4.5417  -13.7857 C   0  0  0  0  0  0  0  0  0  0  0  0
   22.5458   -5.0304  -12.6745 O   0  0  0  0  0  0  0  0  0  0  0  0
   23.0225   -3.5252  -14.2994 O   0  0  0  0  0  0  0  0  0  0  0  0
  2  1  1  1
  2  3  1  0
  4  2  1  0
  5  4  2  0
  6  4  1  0
  7  6  1  0
  8  7  1  0
  9  8  2  0
 11 10  1  1
 11 13  1  0
 11 12  1  0
 12  8  1  0
 13 15  1  0
 14 13  2  0
M  END
$$$$
