AGA.pdb
     RDKit          3D

 15 14  0  0  1  0  0  0  0  0999 V2000
   17.3972  -14.6315  -16.6215 C   0  0  0  0  0  0  0  0  0  0  0  0
   18.8447  -14.2201  -16.8953 C   0  0  2  0  0  0  0  0  0  0  0  0
   19.6102  -14.2529  -15.6943 N   0  0  0  0  0  0  0  0  0  0  0  0
   18.7881  -12.8276  -17.4001 C   0  0  0  0  0  0  0  0  0  0  0  0
   18.2589  -12.5480  -18.5225 O   0  0  0  0  0  0  0  0  0  0  0  0
   19.3470  -11.8032  -16.5871 N   0  0  0  0  0  0  0  0  0  0  0  0
   19.1503  -10.4172  -16.9548 C   0  0  0  0  0  0  0  0  0  0  0  0
   20.0874   -9.5849  -16.1345 C   0  0  0  0  0  0  0  0  0  0  0  0
   20.5813  -10.0066  -15.0482 O   0  0  0  0  0  0  0  0  0  0  0  0
   21.7303   -6.2531  -16.5620 C   0  0  0  0  0  0  0  0  0  0  0  0
   21.3959   -7.4959  -15.7263 C   0  0  2  0  0  0  0  0  0  0  0  0
   20.4757   -8.2765  -16.5273 N   0  0  0  0  0  0  0  0  0  0  0  0
   20.7897   -7.0634  -14.4549 C   0  0  0  0  0  0  0  0  0  0  0  0
   19.5466   -6.9863  -14.3727 O   0  0  0  0  0  0  0  0  0  0  0  0
   21.5610   -6.7452  -13.3642 O   0  0  0  0  0  0  0  0  0  0  0  0
  2  1  1  1
  2  3  1  0
  4  2  1  0
  5  4  2  0
  6  4  1  0
  7  6  1  0
  8  7  1  0
  9  8  2  0
 11 10  1  6
 11 13  1  0
 11 12  1  0
 12  8  1  0
 13 15  1  0
 14 13  2  0
M  END
$$$$
