FCD.pdb
     RDKit          3D

 26 26  0  0  1  0  0  0  0  0999 V2000
   24.9650  -21.5562   -8.6814 N   0  0  0  0  0  0  0  0  0  0  0  0
   25.1728  -20.5524   -9.7051 C   0  0  1  0  0  0  0  0  0  0  0  0
   26.6619  -20.4932   -9.9661 C   0  0  0  0  0  0  0  0  0  0  0  0
   27.3975  -20.1311   -8.7307 C   0  0  0  0  0  0  0  0  0  0  0  0
   26.9415  -19.0954   -7.9142 C   0  0  0  0  0  0  0  0  0  0  0  0
   27.6199  -18.7483   -6.7583 C   0  0  0  0  0  0  0  0  0  0  0  0
   28.7579  -19.4038   -6.3734 C   0  0  0  0  0  0  0  0  0  0  0  0
   29.2263  -20.4276   -7.1618 C   0  0  0  0  0  0  0  0  0  0  0  0
   28.5463  -20.7765   -8.3219 C   0  0  0  0  0  0  0  0  0  0  0  0
   24.4505  -20.8512  -10.9460 C   0  0  0  0  0  0  0  0  0  0  0  0
   24.5823  -21.9992  -11.4470 O   0  0  0  0  0  0  0  0  0  0  0  0
   23.6179  -19.9388  -11.6161 N   0  0  0  0  0  0  0  0  0  0  0  0
   22.5895  -20.3430  -12.5465 C   0  0  1  0  0  0  0  0  0  0  0  0
   21.4322  -19.3622  -12.5687 C   0  0  0  0  0  0  0  0  0  0  0  0
   20.6751  -19.2405  -10.9488 S   0  0  0  0  0  0  0  0  0  0  0  0
   23.1288  -20.4249  -13.9263 C   0  0  0  0  0  0  0  0  0  0  0  0
   23.5982  -19.3863  -14.5071 O   0  0  0  0  0  0  0  0  0  0  0  0
   23.1270  -21.6556  -14.6108 N   0  0  0  0  0  0  0  0  0  0  0  0
   23.6653  -21.7872  -15.9911 C   0  0  1  0  0  0  0  0  0  0  0  0
   24.1752  -23.1887  -16.1743 C   0  0  0  0  0  0  0  0  0  0  0  0
   25.5187  -23.3479  -15.6124 C   0  0  0  0  0  0  0  0  0  0  0  0
   26.2252  -22.4178  -15.1794 O   0  0  0  0  0  0  0  0  0  0  0  0
   22.5128  -21.4523  -16.8726 C   0  0  0  0  0  0  0  0  0  0  0  0
   21.2535  -21.9748  -16.6783 O   0  0  0  0  0  0  0  0  0  0  0  0
   26.1065  -24.6358  -15.5314 O   0  0  0  0  0  0  0  0  0  0  0  0
   22.6387  -20.6601  -17.8570 O   0  0  0  0  0  0  0  0  0  0  0  0
  2 10  1  0
  2  1  1  1
  3  2  1  0
  4  3  1  0
  5  4  2  0
  6  5  1  0
  7  8  1  0
  7  6  2  0
  8  9  2  0
  9  4  1  0
 10 11  2  0
 12 13  1  0
 12 10  1  0
 13 14  1  6
 14 15  1  0
 16 17  2  0
 16 13  1  0
 18 16  1  0
 19 18  1  0
 19 20  1  6
 20 21  1  0
 21 25  1  0
 21 22  2  0
 23 24  1  0
 23 19  1  0
 26 23  2  0
M  END
$$$$
