FCD.pdb
     RDKit          3D

 26 26  0  0  1  0  0  0  0  0999 V2000
   23.1315  -10.1364  -17.1867 N   0  0  0  0  0  0  0  0  0  0  0  0
   22.9194   -9.4102  -15.9512 C   0  0  1  0  0  0  0  0  0  0  0  0
   24.0074   -8.3623  -15.8656 C   0  0  0  0  0  0  0  0  0  0  0  0
   25.3483   -8.9943  -15.8909 C   0  0  0  0  0  0  0  0  0  0  0  0
   26.2517   -8.6955  -16.9117 C   0  0  0  0  0  0  0  0  0  0  0  0
   27.5065   -9.2794  -16.9459 C   0  0  0  0  0  0  0  0  0  0  0  0
   27.9079  -10.1675  -15.9851 C   0  0  0  0  0  0  0  0  0  0  0  0
   27.0352  -10.4774  -14.9695 C   0  0  0  0  0  0  0  0  0  0  0  0
   25.7758   -9.8920  -14.9345 C   0  0  0  0  0  0  0  0  0  0  0  0
   21.5978   -8.7776  -15.8859 C   0  0  0  0  0  0  0  0  0  0  0  0
   21.0176   -8.5034  -16.9697 O   0  0  0  0  0  0  0  0  0  0  0  0
   20.9329   -8.4558  -14.6905 N   0  0  0  0  0  0  0  0  0  0  0  0
   19.6114   -7.8736  -14.6530 C   0  0  1  0  0  0  0  0  0  0  0  0
   18.9702   -8.0182  -13.2856 C   0  0  0  0  0  0  0  0  0  0  0  0
   18.5260   -9.7262  -12.9728 S   0  0  0  0  0  0  0  0  0  0  0  0
   19.6640   -6.4247  -14.9679 C   0  0  0  0  0  0  0  0  0  0  0  0
   20.5264   -5.6649  -14.4063 O   0  0  0  0  0  0  0  0  0  0  0  0
   18.7580   -5.8721  -15.8935 N   0  0  0  0  0  0  0  0  0  0  0  0
   18.7960   -4.4327  -16.2662 C   0  0  1  0  0  0  0  0  0  0  0  0
   18.1645   -4.2721  -17.6202 C   0  0  0  0  0  0  0  0  0  0  0  0
   18.1122   -2.8648  -18.0237 C   0  0  0  0  0  0  0  0  0  0  0  0
   17.0916   -2.1514  -17.9910 O   0  0  0  0  0  0  0  0  0  0  0  0
   18.0497   -3.7469  -15.1753 C   0  0  0  0  0  0  0  0  0  0  0  0
   17.2020   -4.4167  -14.3211 O   0  0  0  0  0  0  0  0  0  0  0  0
   19.2824   -2.2169  -18.4942 O   0  0  0  0  0  0  0  0  0  0  0  0
   18.1606   -2.4972  -14.9794 O   0  0  0  0  0  0  0  0  0  0  0  0
  2 10  1  0
  2  1  1  6
  3  2  1  0
  4  3  1  0
  5  4  2  0
  6  5  1  0
  7  8  1  0
  7  6  2  0
  8  9  2  0
  9  4  1  0
 10 11  2  0
 12 13  1  0
 12 10  1  0
 13 14  1  1
 14 15  1  0
 16 17  2  0
 16 13  1  0
 18 16  1  0
 19 18  1  0
 19 20  1  6
 20 21  1  0
 21 25  1  0
 21 22  2  0
 23 24  1  0
 23 19  1  0
 26 23  2  0
M  END
$$$$
