FCD.pdb
     RDKit          3D

 26 26  0  0  1  0  0  0  0  0999 V2000
   24.3174  -11.8733  -16.5688 N   0  0  0  0  0  0  0  0  0  0  0  0
   24.4147  -10.5217  -16.0563 C   0  0  1  0  0  0  0  0  0  0  0  0
   25.0686   -9.6885  -17.1368 C   0  0  0  0  0  0  0  0  0  0  0  0
   26.4732  -10.1129  -17.3493 C   0  0  0  0  0  0  0  0  0  0  0  0
   26.7933  -11.0152  -18.3647 C   0  0  0  0  0  0  0  0  0  0  0  0
   28.1012  -11.4188  -18.5726 C   0  0  0  0  0  0  0  0  0  0  0  0
   29.1257  -10.9512  -17.7949 C   0  0  0  0  0  0  0  0  0  0  0  0
   28.8347  -10.0615  -16.7885 C   0  0  0  0  0  0  0  0  0  0  0  0
   27.5226   -9.6560  -16.5790 C   0  0  0  0  0  0  0  0  0  0  0  0
   23.1096   -9.9566  -15.6982 C   0  0  0  0  0  0  0  0  0  0  0  0
   22.1129  -10.2757  -16.3990 O   0  0  0  0  0  0  0  0  0  0  0  0
   22.8958   -9.0796  -14.6213 N   0  0  0  0  0  0  0  0  0  0  0  0
   21.5938   -8.5619  -14.2698 C   0  0  1  0  0  0  0  0  0  0  0  0
   21.4451   -8.3804  -12.7709 C   0  0  0  0  0  0  0  0  0  0  0  0
   21.0901   -9.9472  -11.9762 S   0  0  0  0  0  0  0  0  0  0  0  0
   21.3634   -7.2397  -14.9023 C   0  0  0  0  0  0  0  0  0  0  0  0
   22.3108   -6.3849  -14.9934 O   0  0  0  0  0  0  0  0  0  0  0  0
   20.0908   -6.9144  -15.4099 N   0  0  0  0  0  0  0  0  0  0  0  0
   19.8420   -5.6520  -16.1560 C   0  0  1  0  0  0  0  0  0  0  0  0
   19.7486   -5.9724  -17.6210 C   0  0  0  0  0  0  0  0  0  0  0  0
   19.4352   -4.7797  -18.4116 C   0  0  0  0  0  0  0  0  0  0  0  0
   18.2879   -4.3365  -18.6091 O   0  0  0  0  0  0  0  0  0  0  0  0
   18.5748   -5.1236  -15.5794 C   0  0  0  0  0  0  0  0  0  0  0  0
   18.1760   -3.8150  -15.7381 O   0  0  0  0  0  0  0  0  0  0  0  0
   20.4785   -4.0364  -19.0197 O   0  0  0  0  0  0  0  0  0  0  0  0
   17.7933   -5.8636  -14.9055 O   0  0  0  0  0  0  0  0  0  0  0  0
  2 10  1  0
  2  1  1  6
  3  2  1  0
  4  3  1  0
  5  4  2  0
  6  5  1  0
  7  8  1  0
  7  6  2  0
  8  9  2  0
  9  4  1  0
 10 11  2  0
 12 13  1  0
 12 10  1  0
 13 14  1  1
 14 15  1  0
 16 17  2  0
 16 13  1  0
 18 16  1  0
 19 18  1  0
 19 20  1  6
 20 21  1  0
 21 25  1  0
 21 22  2  0
 23 24  1  0
 23 19  1  0
 26 23  2  0
M  END
$$$$
