FCD.pdb
     RDKit          3D

 26 26  0  0  1  0  0  0  0  0999 V2000
   23.9089   -9.6147  -19.6888 N   0  0  0  0  0  0  0  0  0  0  0  0
   22.6733   -8.8797  -19.5098 C   0  0  1  0  0  0  0  0  0  0  0  0
   21.7479   -9.2970  -20.6318 C   0  0  0  0  0  0  0  0  0  0  0  0
   22.1682   -8.6837  -21.9146 C   0  0  0  0  0  0  0  0  0  0  0  0
   21.8991   -7.3399  -22.1775 C   0  0  0  0  0  0  0  0  0  0  0  0
   22.2866   -6.7563  -23.3717 C   0  0  0  0  0  0  0  0  0  0  0  0
   22.9452   -7.4705  -24.3356 C   0  0  0  0  0  0  0  0  0  0  0  0
   23.2213   -8.7960  -24.0991 C   0  0  0  0  0  0  0  0  0  0  0  0
   22.8327   -9.3825  -22.9012 C   0  0  0  0  0  0  0  0  0  0  0  0
   22.0447   -9.1368  -18.2100 C   0  0  0  0  0  0  0  0  0  0  0  0
   22.0047  -10.3256  -17.7955 O   0  0  0  0  0  0  0  0  0  0  0  0
   21.4820   -8.1419  -17.3926 N   0  0  0  0  0  0  0  0  0  0  0  0
   20.9471   -8.4082  -16.0775 C   0  0  1  0  0  0  0  0  0  0  0  0
   21.5187   -7.4659  -15.0349 C   0  0  0  0  0  0  0  0  0  0  0  0
   20.8458   -7.8320  -13.4146 S   0  0  0  0  0  0  0  0  0  0  0  0
   19.4727   -8.2435  -16.0643 C   0  0  0  0  0  0  0  0  0  0  0  0
   18.9311   -7.1708  -16.5029 O   0  0  0  0  0  0  0  0  0  0  0  0
   18.6536   -9.2744  -15.5648 N   0  0  0  0  0  0  0  0  0  0  0  0
   17.1807   -9.1136  -15.4339 C   0  0  1  0  0  0  0  0  0  0  0  0
   16.5690  -10.4685  -15.2159 C   0  0  0  0  0  0  0  0  0  0  0  0
   15.1113  -10.3855  -15.0967 C   0  0  0  0  0  0  0  0  0  0  0  0
   14.3844   -9.6197  -15.7576 O   0  0  0  0  0  0  0  0  0  0  0  0
   17.0093   -8.1892  -14.2791 C   0  0  0  0  0  0  0  0  0  0  0  0
   18.0669   -7.7610  -13.5079 O   0  0  0  0  0  0  0  0  0  0  0  0
   14.4256  -11.2171  -14.1753 O   0  0  0  0  0  0  0  0  0  0  0  0
   15.8661   -7.7478  -13.9467 O   0  0  0  0  0  0  0  0  0  0  0  0
  2 10  1  0
  2  1  1  1
  3  2  1  0
  4  3  1  0
  5  4  2  0
  6  5  1  0
  7  8  1  0
  7  6  2  0
  8  9  2  0
  9  4  1  0
 10 11  2  0
 12 13  1  0
 12 10  1  0
 13 14  1  1
 14 15  1  0
 16 17  2  0
 16 13  1  0
 18 16  1  0
 19 18  1  0
 19 20  1  1
 20 21  1  0
 21 25  1  0
 21 22  2  0
 23 24  1  0
 23 19  1  0
 26 23  2  0
M  END
$$$$
