FCD.pdb
     RDKit          3D

 26 26  0  0  1  0  0  0  0  0999 V2000
   25.0807  -10.8074  -15.9895 N   0  0  0  0  0  0  0  0  0  0  0  0
   24.5877   -9.4772  -16.2835 C   0  0  1  0  0  0  0  0  0  0  0  0
   24.7725   -9.2590  -17.7692 C   0  0  0  0  0  0  0  0  0  0  0  0
   26.2004   -9.0235  -18.0917 C   0  0  0  0  0  0  0  0  0  0  0  0
   26.9507  -10.0068  -18.7380 C   0  0  0  0  0  0  0  0  0  0  0  0
   28.2847   -9.7983  -19.0442 C   0  0  0  0  0  0  0  0  0  0  0  0
   28.9162   -8.6264  -18.7270 C   0  0  0  0  0  0  0  0  0  0  0  0
   28.1975   -7.6431  -18.0900 C   0  0  0  0  0  0  0  0  0  0  0  0
   26.8589   -7.8514  -17.7822 C   0  0  0  0  0  0  0  0  0  0  0  0
   23.1791   -9.3011  -15.9150 C   0  0  0  0  0  0  0  0  0  0  0  0
   22.3815  -10.2466  -16.1524 O   0  0  0  0  0  0  0  0  0  0  0  0
   22.6576   -8.1437  -15.3125 N   0  0  0  0  0  0  0  0  0  0  0  0
   21.2697   -8.0047  -14.9369 C   0  0  1  0  0  0  0  0  0  0  0  0
   21.0663   -8.2037  -13.4467 C   0  0  0  0  0  0  0  0  0  0  0  0
   19.3354   -8.0295  -13.0157 S   0  0  0  0  0  0  0  0  0  0  0  0
   20.7638   -6.6522  -15.2775 C   0  0  0  0  0  0  0  0  0  0  0  0
   21.3320   -5.6054  -14.8110 O   0  0  0  0  0  0  0  0  0  0  0  0
   19.6462   -6.5109  -16.1226 N   0  0  0  0  0  0  0  0  0  0  0  0
   19.0724   -5.1782  -16.4496 C   0  0  1  0  0  0  0  0  0  0  0  0
   18.4961   -5.2324  -17.8361 C   0  0  0  0  0  0  0  0  0  0  0  0
   18.4527   -3.9035  -18.4509 C   0  0  0  0  0  0  0  0  0  0  0  0
   18.8279   -2.8508  -17.9005 O   0  0  0  0  0  0  0  0  0  0  0  0
   18.0536   -4.9425  -15.3894 C   0  0  0  0  0  0  0  0  0  0  0  0
   17.9209   -3.7336  -14.7431 O   0  0  0  0  0  0  0  0  0  0  0  0
   17.9558   -3.7469  -19.7697 O   0  0  0  0  0  0  0  0  0  0  0  0
   17.2501   -5.8564  -15.0266 O   0  0  0  0  0  0  0  0  0  0  0  0
  2 10  1  0
  2  1  1  6
  3  2  1  0
  4  3  1  0
  5  4  2  0
  6  5  1  0
  7  8  1  0
  7  6  2  0
  8  9  2  0
  9  4  1  0
 10 11  2  0
 12 13  1  0
 12 10  1  0
 13 14  1  1
 14 15  1  0
 16 17  2  0
 16 13  1  0
 18 16  1  0
 19 18  1  0
 19 20  1  6
 20 21  1  0
 21 25  1  0
 21 22  2  0
 23 24  1  0
 23 19  1  0
 26 23  2  0
M  END
$$$$
