FCD.pdb
     RDKit          3D

 26 26  0  0  1  0  0  0  0  0999 V2000
   18.8706  -27.0598   -2.8820 N   0  0  0  0  0  0  0  0  0  0  0  0
   18.8699  -27.4919   -1.4992 C   0  0  1  0  0  0  0  0  0  0  0  0
   20.2750  -27.2901   -0.9756 C   0  0  0  0  0  0  0  0  0  0  0  0
   21.1629  -28.3928   -1.4161 C   0  0  0  0  0  0  0  0  0  0  0  0
   21.1386  -29.6247   -0.7610 C   0  0  0  0  0  0  0  0  0  0  0  0
   21.9631  -30.6617   -1.1632 C   0  0  0  0  0  0  0  0  0  0  0  0
   22.8292  -30.5199   -2.2133 C   0  0  0  0  0  0  0  0  0  0  0  0
   22.8708  -29.3155   -2.8741 C   0  0  0  0  0  0  0  0  0  0  0  0
   22.0440  -28.2743   -2.4711 C   0  0  0  0  0  0  0  0  0  0  0  0
   17.9089  -26.7516   -0.6752 C   0  0  0  0  0  0  0  0  0  0  0  0
   17.8151  -25.5074   -0.8470 O   0  0  0  0  0  0  0  0  0  0  0  0
   17.0823  -27.3397    0.2972 N   0  0  0  0  0  0  0  0  0  0  0  0
   16.1468  -26.5866    1.1000 C   0  0  1  0  0  0  0  0  0  0  0  0
   14.8588  -27.3538    1.3332 C   0  0  0  0  0  0  0  0  0  0  0  0
   13.9360  -27.5197   -0.1943 S   0  0  0  0  0  0  0  0  0  0  0  0
   16.7249  -26.2745    2.4302 C   0  0  0  0  0  0  0  0  0  0  0  0
   17.8490  -26.7701    2.7868 O   0  0  0  0  0  0  0  0  0  0  0  0
   16.0346  -25.4246    3.3158 N   0  0  0  0  0  0  0  0  0  0  0  0
   16.5772  -25.0803    4.6573 C   0  0  1  0  0  0  0  0  0  0  0  0
   17.9341  -24.4601    4.4798 C   0  0  0  0  0  0  0  0  0  0  0  0
   18.5141  -24.0628    5.7650 C   0  0  0  0  0  0  0  0  0  0  0  0
   18.3856  -24.6947    6.8309 O   0  0  0  0  0  0  0  0  0  0  0  0
   15.5686  -24.1517    5.2385 C   0  0  0  0  0  0  0  0  0  0  0  0
   15.1089  -24.2700    6.5313 O   0  0  0  0  0  0  0  0  0  0  0  0
   19.2889  -22.8790    5.8590 O   0  0  0  0  0  0  0  0  0  0  0  0
   15.0786  -23.1960    4.5610 O   0  0  0  0  0  0  0  0  0  0  0  0
  2 10  1  0
  2  1  1  6
  3  2  1  0
  4  3  1  0
  5  4  2  0
  6  5  1  0
  7  8  1  0
  7  6  2  0
  8  9  2  0
  9  4  1  0
 10 11  2  0
 12 13  1  0
 12 10  1  0
 13 14  1  1
 14 15  1  0
 16 17  2  0
 16 13  1  0
 18 16  1  0
 19 18  1  0
 19 20  1  6
 20 21  1  0
 21 25  1  0
 21 22  2  0
 23 24  1  0
 23 19  1  0
 26 23  2  0
M  END
$$$$
