FCD.pdb
     RDKit          3D

 26 26  0  0  1  0  0  0  0  0999 V2000
   20.8128  -14.4700  -17.8310 N   0  0  0  0  0  0  0  0  0  0  0  0
   21.1524  -13.1955  -18.4303 C   0  0  1  0  0  0  0  0  0  0  0  0
   19.8542  -12.5626  -18.8811 C   0  0  0  0  0  0  0  0  0  0  0  0
   19.3474  -13.2214  -20.1089 C   0  0  0  0  0  0  0  0  0  0  0  0
   20.0016  -13.0428  -21.3285 C   0  0  0  0  0  0  0  0  0  0  0  0
   19.5377  -13.6528  -22.4816 C   0  0  0  0  0  0  0  0  0  0  0  0
   18.4258  -14.4505  -22.4704 C   0  0  0  0  0  0  0  0  0  0  0  0
   17.7647  -14.6413  -21.2805 C   0  0  0  0  0  0  0  0  0  0  0  0
   18.2293  -14.0295  -20.1231 C   0  0  0  0  0  0  0  0  0  0  0  0
   21.8579  -12.3042  -17.5036 C   0  0  0  0  0  0  0  0  0  0  0  0
   21.4552  -12.2493  -16.3115 O   0  0  0  0  0  0  0  0  0  0  0  0
   22.9574  -11.5042  -17.8581 N   0  0  0  0  0  0  0  0  0  0  0  0
   23.6298  -10.6274  -16.9275 C   0  0  1  0  0  0  0  0  0  0  0  0
   25.1283  -10.8643  -16.9121 C   0  0  0  0  0  0  0  0  0  0  0  0
   25.9120   -9.8744  -15.6400 S   0  0  0  0  0  0  0  0  0  0  0  0
   23.4086   -9.2054  -17.2884 C   0  0  0  0  0  0  0  0  0  0  0  0
   23.5387   -8.8104  -18.4981 O   0  0  0  0  0  0  0  0  0  0  0  0
   23.0518   -8.2742  -16.2941 N   0  0  0  0  0  0  0  0  0  0  0  0
   22.7260   -6.8606  -16.6227 C   0  0  1  0  0  0  0  0  0  0  0  0
   22.1511   -6.2051  -15.3990 C   0  0  0  0  0  0  0  0  0  0  0  0
   20.8543   -6.7843  -15.0400 C   0  0  0  0  0  0  0  0  0  0  0  0
   19.9744   -7.1220  -15.8545 O   0  0  0  0  0  0  0  0  0  0  0  0
   24.0225   -6.2729  -17.0603 C   0  0  0  0  0  0  0  0  0  0  0  0
   24.1080   -5.3148  -18.0458 O   0  0  0  0  0  0  0  0  0  0  0  0
   20.5247   -6.9982  -13.6776 O   0  0  0  0  0  0  0  0  0  0  0  0
   25.1233   -6.6327  -16.5396 O   0  0  0  0  0  0  0  0  0  0  0  0
  2 10  1  0
  2  1  1  1
  3  2  1  0
  4  3  1  0
  5  4  2  0
  6  5  1  0
  7  8  1  0
  7  6  2  0
  8  9  2  0
  9  4  1  0
 10 11  2  0
 12 13  1  0
 12 10  1  0
 13 14  1  6
 14 15  1  0
 16 17  2  0
 16 13  1  0
 18 16  1  0
 19 18  1  0
 19 20  1  1
 20 21  1  0
 21 25  1  0
 21 22  2  0
 23 24  1  0
 23 19  1  0
 26 23  2  0
M  END
$$$$
