FCD.pdb
     RDKit          3D

 26 26  0  0  1  0  0  0  0  0999 V2000
   24.2166  -18.6518  -15.7996 N   0  0  0  0  0  0  0  0  0  0  0  0
   22.8502  -19.1332  -15.7908 C   0  0  1  0  0  0  0  0  0  0  0  0
   22.6714  -19.9694  -17.0391 C   0  0  0  0  0  0  0  0  0  0  0  0
   22.8421  -19.1395  -18.2558 C   0  0  0  0  0  0  0  0  0  0  0  0
   21.8855  -18.1833  -18.5994 C   0  0  0  0  0  0  0  0  0  0  0  0
   22.0340  -17.4026  -19.7331 C   0  0  0  0  0  0  0  0  0  0  0  0
   23.1188  -17.5373  -20.5565 C   0  0  0  0  0  0  0  0  0  0  0  0
   24.0743  -18.4727  -20.2385 C   0  0  0  0  0  0  0  0  0  0  0  0
   23.9261  -19.2566  -19.1012 C   0  0  0  0  0  0  0  0  0  0  0  0
   22.5371  -19.9269  -14.5980 C   0  0  0  0  0  0  0  0  0  0  0  0
   23.4944  -20.3264  -13.8836 O   0  0  0  0  0  0  0  0  0  0  0  0
   21.2354  -20.2727  -14.1970 N   0  0  0  0  0  0  0  0  0  0  0  0
   20.9490  -20.9950  -12.9792 C   0  0  1  0  0  0  0  0  0  0  0  0
   20.8391  -20.0656  -11.7851 C   0  0  0  0  0  0  0  0  0  0  0  0
   19.6809  -18.7395  -12.1202 S   0  0  0  0  0  0  0  0  0  0  0  0
   19.6643  -21.7288  -13.0907 C   0  0  0  0  0  0  0  0  0  0  0  0
   18.7100  -21.2701  -13.8087 O   0  0  0  0  0  0  0  0  0  0  0  0
   19.4855  -22.9437  -12.4015 N   0  0  0  0  0  0  0  0  0  0  0  0
   18.1960  -23.6842  -12.4368 C   0  0  1  0  0  0  0  0  0  0  0  0
   18.4473  -25.1033  -12.0117 C   0  0  0  0  0  0  0  0  0  0  0  0
   17.2237  -25.9063  -12.0745 C   0  0  0  0  0  0  0  0  0  0  0  0
   16.4991  -26.0239  -13.0808 O   0  0  0  0  0  0  0  0  0  0  0  0
   17.3099  -22.9313  -11.5065 C   0  0  0  0  0  0  0  0  0  0  0  0
   17.7766  -21.9294  -10.6848 O   0  0  0  0  0  0  0  0  0  0  0  0
   16.7859  -26.6240  -10.9326 O   0  0  0  0  0  0  0  0  0  0  0  0
   16.0676  -23.1812  -11.4256 O   0  0  0  0  0  0  0  0  0  0  0  0
  2 10  1  0
  2  1  1  1
  3  2  1  0
  4  3  1  0
  5  4  2  0
  6  5  1  0
  7  8  1  0
  7  6  2  0
  8  9  2  0
  9  4  1  0
 10 11  2  0
 12 13  1  0
 12 10  1  0
 13 14  1  1
 14 15  1  0
 16 17  2  0
 16 13  1  0
 18 16  1  0
 19 18  1  0
 19 20  1  1
 20 21  1  0
 21 25  1  0
 21 22  2  0
 23 24  1  0
 23 19  1  0
 26 23  2  0
M  END
$$$$
