FCD.pdb
     RDKit          3D

 26 26  0  0  1  0  0  0  0  0999 V2000
   26.3675  -10.1196  -18.8833 N   0  0  0  0  0  0  0  0  0  0  0  0
   25.7139  -10.5691  -17.6710 C   0  0  1  0  0  0  0  0  0  0  0  0
   26.5966  -10.1508  -16.5155 C   0  0  0  0  0  0  0  0  0  0  0  0
   27.8554  -10.9342  -16.5060 C   0  0  0  0  0  0  0  0  0  0  0  0
   29.0395  -10.3753  -16.9885 C   0  0  0  0  0  0  0  0  0  0  0  0
   30.2210  -11.0970  -16.9848 C   0  0  0  0  0  0  0  0  0  0  0  0
   30.2736  -12.3795  -16.5102 C   0  0  0  0  0  0  0  0  0  0  0  0
   29.1197  -12.9512  -16.0297 C   0  0  0  0  0  0  0  0  0  0  0  0
   27.9336  -12.2279  -16.0333 C   0  0  0  0  0  0  0  0  0  0  0  0
   24.3682  -10.0082  -17.5119 C   0  0  0  0  0  0  0  0  0  0  0  0
   24.1842   -8.8063  -17.8405 O   0  0  0  0  0  0  0  0  0  0  0  0
   23.2660  -10.7248  -17.0156 N   0  0  0  0  0  0  0  0  0  0  0  0
   21.9321  -10.1747  -16.9453 C   0  0  1  0  0  0  0  0  0  0  0  0
   20.8983  -11.2407  -16.6344 C   0  0  0  0  0  0  0  0  0  0  0  0
   19.2588  -10.5230  -16.5384 S   0  0  0  0  0  0  0  0  0  0  0  0
   21.8417   -9.1446  -15.8813 C   0  0  0  0  0  0  0  0  0  0  0  0
   22.5281   -9.2525  -14.8073 O   0  0  0  0  0  0  0  0  0  0  0  0
   20.9929   -8.0333  -16.0478 N   0  0  0  0  0  0  0  0  0  0  0  0
   20.8383   -6.9978  -14.9913 C   0  0  1  0  0  0  0  0  0  0  0  0
   21.7756   -5.8629  -15.2928 C   0  0  0  0  0  0  0  0  0  0  0  0
   21.5754   -4.7428  -14.3702 C   0  0  0  0  0  0  0  0  0  0  0  0
   20.6221   -3.9423  -14.4170 O   0  0  0  0  0  0  0  0  0  0  0  0
   19.4003   -6.6159  -15.0533 C   0  0  0  0  0  0  0  0  0  0  0  0
   18.7070   -6.5254  -16.2398 O   0  0  0  0  0  0  0  0  0  0  0  0
   22.5064   -4.5068  -13.3271 O   0  0  0  0  0  0  0  0  0  0  0  0
   18.7381   -6.3519  -14.0025 O   0  0  0  0  0  0  0  0  0  0  0  0
  2 10  1  0
  2  1  1  6
  3  2  1  0
  4  3  1  0
  5  4  2  0
  6  5  1  0
  7  8  1  0
  7  6  2  0
  8  9  2  0
  9  4  1  0
 10 11  2  0
 12 13  1  0
 12 10  1  0
 13 14  1  1
 14 15  1  0
 16 17  2  0
 16 13  1  0
 18 16  1  0
 19 18  1  0
 19 20  1  6
 20 21  1  0
 21 25  1  0
 21 22  2  0
 23 24  1  0
 23 19  1  0
 26 23  2  0
M  END
$$$$
