MIA.pdb
     RDKit          3D

 22 21  0  0  1  0  0  0  0  0999 V2000
    7.2774  -21.0679   25.3782 C   0  0  0  0  0  0  0  0  0  0  0  0
    5.7014  -21.2810   24.5507 S   0  0  0  0  0  0  0  0  0  0  0  0
    5.4397  -20.0058   23.2978 C   0  0  0  0  0  0  0  0  0  0  0  0
    6.3257  -18.8292   23.6416 C   0  0  0  0  0  0  0  0  0  0  0  0
    6.1311  -17.6756   22.6816 C   0  0  2  0  0  0  0  0  0  0  0  0
    6.3871  -18.0482   21.3272 N   0  0  0  0  0  0  0  0  0  0  0  0
    7.0497  -16.5831   23.1486 C   0  0  0  0  0  0  0  0  0  0  0  0
    8.1231  -16.3342   22.5421 O   0  0  0  0  0  0  0  0  0  0  0  0
    6.8495  -11.6585   26.9215 C   0  0  0  0  0  0  0  0  0  0  0  0
    7.6644  -12.6327   26.0753 C   0  0  0  0  0  0  0  0  0  0  0  0
    6.8600  -13.7790   25.6051 C   0  0  2  0  0  0  0  0  0  0  0  0
    6.0621  -14.4526   26.6959 C   0  0  0  0  0  0  0  0  0  0  0  0
    7.6635  -14.7348   24.7645 C   0  0  2  0  0  0  0  0  0  0  0  0
    6.7325  -15.7999   24.2883 N   0  0  0  0  0  0  0  0  0  0  0  0
    8.8054  -15.3651   25.4375 C   0  0  0  0  0  0  0  0  0  0  0  0
    9.7491  -14.6378   25.9205 O   0  0  0  0  0  0  0  0  0  0  0  0
   11.3959  -16.9683   25.2018 C   0  0  0  0  0  0  0  0  0  0  0  0
   10.2428  -17.3121   26.1111 C   0  0  2  0  0  0  0  0  0  0  0  0
    8.9832  -16.7542   25.6241 N   0  0  0  0  0  0  0  0  0  0  0  0
   10.4992  -16.9246   27.5153 C   0  0  0  0  0  0  0  0  0  0  0  0
   11.6007  -17.3980   28.2162 O   0  0  0  0  0  0  0  0  0  0  0  0
    9.7374  -16.1491   28.1481 O   0  0  0  0  0  0  0  0  0  0  0  0
  1  2  1  0
  3  2  1  0
  4  3  1  0
  5  6  1  6
  5  4  1  0
  7  5  1  0
  8  7  2  0
  9 10  1  0
 10 11  1  0
 11 12  1  1
 13 11  1  0
 13 14  1  1
 14  7  1  0
 15 19  1  0
 15 13  1  0
 16 15  2  0
 18 17  1  6
 18 19  1  0
 20 18  1  0
 20 21  1  0
 22 20  2  0
M  END
$$$$
