MIA.pdb
     RDKit          3D

 22 21  0  0  1  0  0  0  0  0999 V2000
    7.9236  -12.2558   26.4054 C   0  0  0  0  0  0  0  0  0  0  0  0
    6.7264  -12.9503   27.5451 S   0  0  0  0  0  0  0  0  0  0  0  0
    6.1239  -14.5531   26.9688 C   0  0  0  0  0  0  0  0  0  0  0  0
    6.9071  -14.9246   25.7294 C   0  0  0  0  0  0  0  0  0  0  0  0
    6.3918  -16.1987   25.0959 C   0  0  2  0  0  0  0  0  0  0  0  0
    6.4793  -17.3172   25.9793 N   0  0  0  0  0  0  0  0  0  0  0  0
    7.2012  -16.4024   23.8473 C   0  0  0  0  0  0  0  0  0  0  0  0
    7.6545  -17.5360   23.5454 O   0  0  0  0  0  0  0  0  0  0  0  0
    8.0070  -11.9818   20.2402 C   0  0  0  0  0  0  0  0  0  0  0  0
    8.4634  -13.1730   21.0782 C   0  0  0  0  0  0  0  0  0  0  0  0
    7.7246  -14.4090   20.7489 C   0  0  2  0  0  0  0  0  0  0  0  0
    6.2330  -14.2120   20.6201 C   0  0  0  0  0  0  0  0  0  0  0  0
    8.1086  -15.5593   21.6405 C   0  0  2  0  0  0  0  0  0  0  0  0
    7.4778  -15.3205   22.9721 N   0  0  0  0  0  0  0  0  0  0  0  0
    9.5501  -15.7644   21.8253 C   0  0  0  0  0  0  0  0  0  0  0  0
   10.2946  -16.0456   20.8156 O   0  0  0  0  0  0  0  0  0  0  0  0
   12.4116  -15.0458   24.0208 C   0  0  0  0  0  0  0  0  0  0  0  0
   11.6513  -16.0365   23.1750 C   0  0  2  0  0  0  0  0  0  0  0  0
   10.2403  -15.6765   23.0549 N   0  0  0  0  0  0  0  0  0  0  0  0
   11.8162  -17.4266   23.6525 C   0  0  0  0  0  0  0  0  0  0  0  0
   10.7255  -18.2317   23.9539 O   0  0  0  0  0  0  0  0  0  0  0  0
   12.9477  -17.9529   23.8108 O   0  0  0  0  0  0  0  0  0  0  0  0
  1  2  1  0
  3  2  1  0
  4  3  1  0
  5  6  1  1
  5  4  1  0
  7  5  1  0
  8  7  2  0
  9 10  1  0
 10 11  1  0
 11 12  1  1
 13 11  1  0
 13 14  1  1
 14  7  1  0
 15 19  1  0
 15 13  1  0
 16 15  2  0
 18 17  1  1
 18 19  1  0
 20 18  1  0
 20 21  1  0
 22 20  2  0
M  END
$$$$
