MIA.pdb
     RDKit          3D

 22 21  0  0  1  0  0  0  0  0999 V2000
    7.6309  -11.1492   26.5631 C   0  0  0  0  0  0  0  0  0  0  0  0
    6.9586  -12.3452   27.7170 S   0  0  0  0  0  0  0  0  0  0  0  0
    6.0092  -13.6220   26.8610 C   0  0  0  0  0  0  0  0  0  0  0  0
    6.9405  -14.3261   25.8996 C   0  0  0  0  0  0  0  0  0  0  0  0
    6.2135  -15.3523   25.0577 C   0  0  2  0  0  0  0  0  0  0  0  0
    5.6717  -16.4135   25.8446 N   0  0  0  0  0  0  0  0  0  0  0  0
    7.2107  -15.8499   24.0509 C   0  0  0  0  0  0  0  0  0  0  0  0
    7.5950  -17.0474   24.0553 O   0  0  0  0  0  0  0  0  0  0  0  0
    7.3965  -12.6469   19.8897 C   0  0  0  0  0  0  0  0  0  0  0  0
    7.3992  -14.0530   20.4833 C   0  0  0  0  0  0  0  0  0  0  0  0
    8.7443  -14.4754   20.9241 C   0  0  2  0  0  0  0  0  0  0  0  0
    9.6666  -14.8550   19.7902 C   0  0  0  0  0  0  0  0  0  0  0  0
    8.6895  -15.4973   22.0279 C   0  0  2  0  0  0  0  0  0  0  0  0
    7.7480  -14.9823   23.0653 N   0  0  0  0  0  0  0  0  0  0  0  0
    9.9741  -15.8131   22.6638 C   0  0  0  0  0  0  0  0  0  0  0  0
   10.5487  -14.9455   23.4187 O   0  0  0  0  0  0  0  0  0  0  0  0
   12.1273  -18.6702   23.6524 C   0  0  0  0  0  0  0  0  0  0  0  0
   11.9716  -17.2483   23.1742 C   0  0  2  0  0  0  0  0  0  0  0  0
   10.6776  -17.0311   22.5313 N   0  0  0  0  0  0  0  0  0  0  0  0
   13.0876  -16.8233   22.3014 C   0  0  0  0  0  0  0  0  0  0  0  0
   12.8901  -16.4996   20.9654 O   0  0  0  0  0  0  0  0  0  0  0  0
   14.2705  -16.7325   22.7195 O   0  0  0  0  0  0  0  0  0  0  0  0
  1  2  1  0
  3  2  1  0
  4  3  1  0
  5  6  1  1
  5  4  1  0
  7  5  1  0
  8  7  2  0
  9 10  1  0
 10 11  1  0
 11 12  1  6
 13 11  1  0
 13 14  1  1
 14  7  1  0
 15 19  1  0
 15 13  1  0
 16 15  2  0
 18 17  1  6
 18 19  1  0
 20 18  1  0
 20 21  1  0
 22 20  2  0
M  END
$$$$
