MIA.pdb
     RDKit          3D

 22 21  0  0  1  0  0  0  0  0999 V2000
    6.2330  -20.9338   25.3757 C   0  0  0  0  0  0  0  0  0  0  0  0
    6.2113  -21.3308   23.6275 S   0  0  0  0  0  0  0  0  0  0  0  0
    5.9067  -19.8599   22.6236 C   0  0  0  0  0  0  0  0  0  0  0  0
    6.8890  -18.7933   23.0539 C   0  0  0  0  0  0  0  0  0  0  0  0
    6.6526  -17.4836   22.3334 C   0  0  2  0  0  0  0  0  0  0  0  0
    6.9001  -17.5841   20.9307 N   0  0  0  0  0  0  0  0  0  0  0  0
    7.5495  -16.4754   22.9928 C   0  0  0  0  0  0  0  0  0  0  0  0
    8.6594  -16.1662   22.4886 O   0  0  0  0  0  0  0  0  0  0  0  0
    7.0742  -11.8439   27.0464 C   0  0  0  0  0  0  0  0  0  0  0  0
    7.9628  -12.8088   26.2661 C   0  0  0  0  0  0  0  0  0  0  0  0
    7.1962  -13.9200   25.6663 C   0  0  2  0  0  0  0  0  0  0  0  0
    6.2952  -14.6367   26.6435 C   0  0  0  0  0  0  0  0  0  0  0  0
    8.0664  -14.8430   24.8561 C   0  0  2  0  0  0  0  0  0  0  0  0
    7.1697  -15.8427   24.2046 N   0  0  0  0  0  0  0  0  0  0  0  0
    9.1079  -15.5541   25.6071 C   0  0  0  0  0  0  0  0  0  0  0  0
   10.0380  -14.8936   26.2000 O   0  0  0  0  0  0  0  0  0  0  0  0
   11.6331  -17.2251   25.9634 C   0  0  0  0  0  0  0  0  0  0  0  0
   10.2770  -17.5820   26.5188 C   0  0  2  0  0  0  0  0  0  0  0  0
    9.1978  -16.9559   25.7585 N   0  0  0  0  0  0  0  0  0  0  0  0
   10.1649  -17.2839   27.9632 C   0  0  0  0  0  0  0  0  0  0  0  0
   11.0854  -17.7668   28.8843 O   0  0  0  0  0  0  0  0  0  0  0  0
    9.2345  -16.5803   28.4339 O   0  0  0  0  0  0  0  0  0  0  0  0
  1  2  1  0
  3  2  1  0
  4  3  1  0
  5  6  1  6
  5  4  1  0
  7  5  1  0
  8  7  2  0
  9 10  1  0
 10 11  1  0
 11 12  1  1
 13 11  1  0
 13 14  1  1
 14  7  1  0
 15 19  1  0
 15 13  1  0
 16 15  2  0
 18 17  1  6
 18 19  1  0
 20 18  1  0
 20 21  1  0
 22 20  2  0
M  END
$$$$
