MIA.pdb
     RDKit          3D

 22 21  0  0  1  0  0  0  0  0999 V2000
   10.1333  -13.9131   29.3020 C   0  0  0  0  0  0  0  0  0  0  0  0
   10.1850  -15.4871   30.1588 S   0  0  0  0  0  0  0  0  0  0  0  0
   10.3761  -16.8599   28.9999 C   0  0  0  0  0  0  0  0  0  0  0  0
    9.7101  -16.4657   27.7003 C   0  0  0  0  0  0  0  0  0  0  0  0
    8.4394  -17.2504   27.4557 C   0  0  2  0  0  0  0  0  0  0  0  0
    8.6820  -18.6528   27.3405 N   0  0  0  0  0  0  0  0  0  0  0  0
    7.8290  -16.6799   26.2077 C   0  0  0  0  0  0  0  0  0  0  0  0
    7.1856  -17.4076   25.4087 O   0  0  0  0  0  0  0  0  0  0  0  0
    6.7512  -11.5898   26.6414 C   0  0  0  0  0  0  0  0  0  0  0  0
    6.3175  -12.8624   25.9191 C   0  0  0  0  0  0  0  0  0  0  0  0
    7.2541  -13.2459   24.8431 C   0  0  2  0  0  0  0  0  0  0  0  0
    7.0451  -12.4880   23.5538 C   0  0  0  0  0  0  0  0  0  0  0  0
    7.3366  -14.7379   24.6617 C   0  0  2  0  0  0  0  0  0  0  0  0
    7.9610  -15.3025   25.8943 N   0  0  0  0  0  0  0  0  0  0  0  0
    8.0954  -15.1932   23.4908 C   0  0  0  0  0  0  0  0  0  0  0  0
    7.6026  -15.0556   22.3114 O   0  0  0  0  0  0  0  0  0  0  0  0
   10.5027  -15.0177   21.4812 C   0  0  0  0  0  0  0  0  0  0  0  0
   10.0660  -16.2034   22.3047 C   0  0  2  0  0  0  0  0  0  0  0  0
    9.3749  -15.7915   23.5243 N   0  0  0  0  0  0  0  0  0  0  0  0
   11.1847  -17.1244   22.6015 C   0  0  0  0  0  0  0  0  0  0  0  0
   11.9742  -17.6658   21.5954 O   0  0  0  0  0  0  0  0  0  0  0  0
   11.4804  -17.4659   23.7755 O   0  0  0  0  0  0  0  0  0  0  0  0
  1  2  1  0
  3  2  1  0
  4  3  1  0
  5  6  1  6
  5  4  1  0
  7  5  1  0
  8  7  2  0
  9 10  1  0
 10 11  1  0
 11 12  1  6
 13 11  1  0
 13 14  1  1
 14  7  1  0
 15 19  1  0
 15 13  1  0
 16 15  2  0
 18 17  1  1
 18 19  1  0
 20 18  1  0
 20 21  1  0
 22 20  2  0
M  END
$$$$
