MIA.pdb
     RDKit          3D

 22 21  0  0  1  0  0  0  0  0999 V2000
    7.6356  -19.9597   28.2206 C   0  0  0  0  0  0  0  0  0  0  0  0
    6.7792  -20.9980   27.0361 S   0  0  0  0  0  0  0  0  0  0  0  0
    6.2938  -20.0597   25.5704 C   0  0  0  0  0  0  0  0  0  0  0  0
    6.9965  -18.7214   25.6228 C   0  0  0  0  0  0  0  0  0  0  0  0
    6.5418  -17.8004   24.5114 C   0  0  2  0  0  0  0  0  0  0  0  0
    6.6965  -18.3909   23.2206 N   0  0  0  0  0  0  0  0  0  0  0  0
    7.3479  -16.5413   24.6552 C   0  0  0  0  0  0  0  0  0  0  0  0
    8.3444  -16.3212   23.9200 O   0  0  0  0  0  0  0  0  0  0  0  0
    5.0045  -11.9256   25.5609 C   0  0  0  0  0  0  0  0  0  0  0  0
    6.0825  -12.9144   25.1253 C   0  0  0  0  0  0  0  0  0  0  0  0
    7.0373  -13.2202   26.2101 C   0  0  2  0  0  0  0  0  0  0  0  0
    7.8042  -12.0171   26.7048 C   0  0  0  0  0  0  0  0  0  0  0  0
    7.9099  -14.4034   25.8870 C   0  0  2  0  0  0  0  0  0  0  0  0
    7.0080  -15.5636   25.6255 N   0  0  0  0  0  0  0  0  0  0  0  0
    8.8801  -14.7773   26.9230 C   0  0  0  0  0  0  0  0  0  0  0  0
    8.4789  -15.3388   28.0076 O   0  0  0  0  0  0  0  0  0  0  0  0
   10.9217  -13.9369   29.1321 C   0  0  0  0  0  0  0  0  0  0  0  0
   11.1592  -14.8748   27.9750 C   0  0  2  0  0  0  0  0  0  0  0  0
   10.2770  -14.5799   26.8482 N   0  0  0  0  0  0  0  0  0  0  0  0
   11.0688  -16.2957   28.3755 C   0  0  0  0  0  0  0  0  0  0  0  0
   11.7425  -17.2953   27.6858 O   0  0  0  0  0  0  0  0  0  0  0  0
   10.3803  -16.6745   29.3577 O   0  0  0  0  0  0  0  0  0  0  0  0
  1  2  1  0
  3  2  1  0
  4  3  1  0
  5  6  1  6
  5  4  1  0
  7  5  1  0
  8  7  2  0
  9 10  1  0
 10 11  1  0
 11 12  1  6
 13 11  1  0
 13 14  1  1
 14  7  1  0
 15 19  1  0
 15 13  1  0
 16 15  2  0
 18 17  1  1
 18 19  1  0
 20 18  1  0
 20 21  1  0
 22 20  2  0
M  END
$$$$
