MIA.pdb
     RDKit          3D

 22 21  0  0  1  0  0  0  0  0999 V2000
    6.4550  -11.9903   26.5157 C   0  0  0  0  0  0  0  0  0  0  0  0
    5.9040  -13.0891   27.8207 S   0  0  0  0  0  0  0  0  0  0  0  0
    5.6390  -14.7651   27.2001 C   0  0  0  0  0  0  0  0  0  0  0  0
    6.5260  -14.9571   25.9901 C   0  0  0  0  0  0  0  0  0  0  0  0
    6.2003  -16.2349   25.2477 C   0  0  2  0  0  0  0  0  0  0  0  0
    6.3490  -17.3927   26.0701 N   0  0  0  0  0  0  0  0  0  0  0  0
    7.1125  -16.2701   24.0551 C   0  0  0  0  0  0  0  0  0  0  0  0
    7.8766  -17.2481   23.8511 O   0  0  0  0  0  0  0  0  0  0  0  0
    8.4186  -12.6609   19.1209 C   0  0  0  0  0  0  0  0  0  0  0  0
    8.5501  -13.9851   19.8683 C   0  0  0  0  0  0  0  0  0  0  0  0
    7.8068  -13.9872   21.1449 C   0  0  2  0  0  0  0  0  0  0  0  0
    7.9434  -12.7059   21.9323 C   0  0  0  0  0  0  0  0  0  0  0  0
    8.0683  -15.2275   21.9567 C   0  0  2  0  0  0  0  0  0  0  0  0
    7.1382  -15.2001   23.1238 N   0  0  0  0  0  0  0  0  0  0  0  0
    9.4429  -15.3870   22.4456 C   0  0  0  0  0  0  0  0  0  0  0  0
   10.4124  -15.5113   21.6105 O   0  0  0  0  0  0  0  0  0  0  0  0
   11.5934  -14.5228   25.2693 C   0  0  0  0  0  0  0  0  0  0  0  0
   11.2343  -15.5253   24.2013 C   0  0  2  0  0  0  0  0  0  0  0  0
    9.8328  -15.4150   23.8032 N   0  0  0  0  0  0  0  0  0  0  0  0
   11.5787  -16.9099   24.5914 C   0  0  0  0  0  0  0  0  0  0  0  0
   12.8598  -17.2590   24.9980 O   0  0  0  0  0  0  0  0  0  0  0  0
   10.7341  -17.8420   24.5761 O   0  0  0  0  0  0  0  0  0  0  0  0
  1  2  1  0
  3  2  1  0
  4  3  1  0
  5  6  1  1
  5  4  1  0
  7  5  1  0
  8  7  2  0
  9 10  1  0
 10 11  1  0
 11 12  1  1
 13 11  1  0
 13 14  1  1
 14  7  1  0
 15 19  1  0
 15 13  1  0
 16 15  2  0
 18 17  1  1
 18 19  1  0
 20 18  1  0
 20 21  1  0
 22 20  2  0
M  END
$$$$
