MIA.pdb
     RDKit          3D

 22 21  0  0  1  0  0  0  0  0999 V2000
    3.3030  -18.0721   22.7286 C   0  0  0  0  0  0  0  0  0  0  0  0
    4.0046  -18.2605   21.0896 S   0  0  0  0  0  0  0  0  0  0  0  0
    5.4377  -19.3606   21.1110 C   0  0  0  0  0  0  0  0  0  0  0  0
    6.6436  -18.5598   20.6726 C   0  0  0  0  0  0  0  0  0  0  0  0
    6.3829  -17.0701   20.7271 C   0  0  2  0  0  0  0  0  0  0  0  0
    6.4235  -16.4649   19.4344 N   0  0  0  0  0  0  0  0  0  0  0  0
    7.4200  -16.4972   21.6501 C   0  0  0  0  0  0  0  0  0  0  0  0
    8.6197  -16.3860   21.2890 O   0  0  0  0  0  0  0  0  0  0  0  0
    6.0227  -12.6203   25.2026 C   0  0  0  0  0  0  0  0  0  0  0  0
    6.8508  -13.4591   24.2331 C   0  0  0  0  0  0  0  0  0  0  0  0
    7.4396  -14.6495   24.8799 C   0  0  2  0  0  0  0  0  0  0  0  0
    8.2797  -14.3314   26.0937 C   0  0  0  0  0  0  0  0  0  0  0  0
    8.1221  -15.5579   23.8925 C   0  0  2  0  0  0  0  0  0  0  0  0
    7.0756  -16.0649   22.9567 N   0  0  0  0  0  0  0  0  0  0  0  0
    8.8380  -16.7006   24.4722 C   0  0  0  0  0  0  0  0  0  0  0  0
    8.2037  -17.5635   25.1835 O   0  0  0  0  0  0  0  0  0  0  0  0
   12.0991  -18.5340   24.0959 C   0  0  0  0  0  0  0  0  0  0  0  0
   10.8260  -18.1941   24.8297 C   0  0  2  0  0  0  0  0  0  0  0  0
   10.2168  -16.9680   24.3194 N   0  0  0  0  0  0  0  0  0  0  0  0
   11.0208  -18.1324   26.2947 C   0  0  0  0  0  0  0  0  0  0  0  0
   11.2715  -19.2714   27.0487 O   0  0  0  0  0  0  0  0  0  0  0  0
   10.9703  -17.0504   26.9342 O   0  0  0  0  0  0  0  0  0  0  0  0
  1  2  1  0
  3  2  1  0
  4  3  1  0
  5  6  1  6
  5  4  1  0
  7  5  1  0
  8  7  2  0
  9 10  1  0
 10 11  1  0
 11 12  1  1
 13 11  1  0
 13 14  1  6
 14  7  1  0
 15 19  1  0
 15 13  1  0
 16 15  2  0
 18 17  1  6
 18 19  1  0
 20 18  1  0
 20 21  1  0
 22 20  2  0
M  END
$$$$
