MIA.pdb
     RDKit          3D

 22 21  0  0  1  0  0  0  0  0999 V2000
    7.6112  -12.4535   28.6655 C   0  0  0  0  0  0  0  0  0  0  0  0
    6.8971  -11.7128   27.1974 S   0  0  0  0  0  0  0  0  0  0  0  0
    5.9923  -12.9333   26.2196 C   0  0  0  0  0  0  0  0  0  0  0  0
    6.9118  -14.1102   25.9809 C   0  0  0  0  0  0  0  0  0  0  0  0
    6.2296  -15.2107   25.1975 C   0  0  2  0  0  0  0  0  0  0  0  0
    5.6797  -16.2191   26.0459 N   0  0  0  0  0  0  0  0  0  0  0  0
    7.2671  -15.7646   24.2635 C   0  0  0  0  0  0  0  0  0  0  0  0
    7.7702  -16.9016   24.4530 O   0  0  0  0  0  0  0  0  0  0  0  0
    7.2984  -12.9638   19.8506 C   0  0  0  0  0  0  0  0  0  0  0  0
    7.3393  -14.3449   20.4988 C   0  0  0  0  0  0  0  0  0  0  0  0
    8.6951  -14.7122   20.9561 C   0  0  2  0  0  0  0  0  0  0  0  0
    9.5996  -15.2029   19.8509 C   0  0  0  0  0  0  0  0  0  0  0  0
    8.6673  -15.6140   22.1610 C   0  0  2  0  0  0  0  0  0  0  0  0
    7.7097  -15.0200   23.1398 N   0  0  0  0  0  0  0  0  0  0  0  0
    9.9591  -15.8247   22.8250 C   0  0  0  0  0  0  0  0  0  0  0  0
   10.5466  -14.8452   23.4152 O   0  0  0  0  0  0  0  0  0  0  0  0
   12.1628  -18.5682   24.1067 C   0  0  0  0  0  0  0  0  0  0  0  0
   11.9401  -17.1727   23.5798 C   0  0  2  0  0  0  0  0  0  0  0  0
   10.6570  -17.0514   22.8915 N   0  0  0  0  0  0  0  0  0  0  0  0
   13.0568  -16.7084   22.7283 C   0  0  0  0  0  0  0  0  0  0  0  0
   14.2202  -16.1784   23.2710 O   0  0  0  0  0  0  0  0  0  0  0  0
   13.0140  -16.7678   21.4725 O   0  0  0  0  0  0  0  0  0  0  0  0
  1  2  1  0
  3  2  1  0
  4  3  1  0
  5  6  1  1
  5  4  1  0
  7  5  1  0
  8  7  2  0
  9 10  1  0
 10 11  1  0
 11 12  1  6
 13 11  1  0
 13 14  1  1
 14  7  1  0
 15 19  1  0
 15 13  1  0
 16 15  2  0
 18 17  1  6
 18 19  1  0
 20 18  1  0
 20 21  1  0
 22 20  2  0
M  END
$$$$
