MIA.pdb
     RDKit          3D

 22 21  0  0  1  0  0  0  0  0999 V2000
    5.5648  -19.7639   23.1606 C   0  0  0  0  0  0  0  0  0  0  0  0
    7.3304  -19.9807   22.9378 S   0  0  0  0  0  0  0  0  0  0  0  0
    8.1235  -18.4371   22.4351 C   0  0  0  0  0  0  0  0  0  0  0  0
    7.0347  -17.4212   22.1702 C   0  0  0  0  0  0  0  0  0  0  0  0
    7.6004  -16.0880   21.7311 C   0  0  2  0  0  0  0  0  0  0  0  0
    8.5079  -16.2182   20.6364 N   0  0  0  0  0  0  0  0  0  0  0  0
    8.2605  -15.4942   22.9424 C   0  0  0  0  0  0  0  0  0  0  0  0
    9.5091  -15.5370   23.0877 O   0  0  0  0  0  0  0  0  0  0  0  0
    6.9568  -11.4867   27.4727 C   0  0  0  0  0  0  0  0  0  0  0  0
    7.8934  -12.5166   26.8470 C   0  0  0  0  0  0  0  0  0  0  0  0
    7.2429  -13.2859   25.7667 C   0  0  2  0  0  0  0  0  0  0  0  0
    5.8656  -13.7924   26.1226 C   0  0  0  0  0  0  0  0  0  0  0  0
    8.1475  -14.3438   25.1935 C   0  0  2  0  0  0  0  0  0  0  0  0
    7.4936  -14.8674   23.9582 N   0  0  0  0  0  0  0  0  0  0  0  0
    8.4522  -15.4687   26.0857 C   0  0  0  0  0  0  0  0  0  0  0  0
    7.6767  -16.4936   26.1166 O   0  0  0  0  0  0  0  0  0  0  0  0
    8.5977  -17.5227   28.0570 C   0  0  0  0  0  0  0  0  0  0  0  0
    9.8535  -16.7559   27.7259 C   0  0  2  0  0  0  0  0  0  0  0  0
    9.5645  -15.5501   26.9529 N   0  0  0  0  0  0  0  0  0  0  0  0
   10.8665  -17.5990   27.0547 C   0  0  0  0  0  0  0  0  0  0  0  0
   11.3945  -18.7316   27.6606 O   0  0  0  0  0  0  0  0  0  0  0  0
   11.3030  -17.3375   25.9042 O   0  0  0  0  0  0  0  0  0  0  0  0
  1  2  1  0
  3  2  1  0
  4  3  1  0
  5  6  1  6
  5  4  1  0
  7  5  1  0
  8  7  2  0
  9 10  1  0
 10 11  1  0
 11 12  1  1
 13 11  1  0
 13 14  1  6
 14  7  1  0
 15 19  1  0
 15 13  1  0
 16 15  2  0
 18 17  1  6
 18 19  1  0
 20 18  1  0
 20 21  1  0
 22 20  2  0
M  END
$$$$
