MIA.pdb
     RDKit          3D

 22 21  0  0  1  0  0  0  0  0999 V2000
   10.4850  -14.1583   28.8920 C   0  0  0  0  0  0  0  0  0  0  0  0
   11.3418  -15.7251   29.0505 S   0  0  0  0  0  0  0  0  0  0  0  0
   10.3991  -17.0687   28.2951 C   0  0  0  0  0  0  0  0  0  0  0  0
    8.9313  -16.8019   28.5434 C   0  0  0  0  0  0  0  0  0  0  0  0
    8.0464  -17.7954   27.8221 C   0  0  2  0  0  0  0  0  0  0  0  0
    8.6649  -19.0754   27.6890 N   0  0  0  0  0  0  0  0  0  0  0  0
    7.7287  -17.1817   26.4886 C   0  0  0  0  0  0  0  0  0  0  0  0
    7.4108  -17.8972   25.5042 O   0  0  0  0  0  0  0  0  0  0  0  0
    6.3762  -12.0045   26.6911 C   0  0  0  0  0  0  0  0  0  0  0  0
    6.2054  -13.3392   25.9708 C   0  0  0  0  0  0  0  0  0  0  0  0
    7.3822  -13.6903   25.1498 C   0  0  2  0  0  0  0  0  0  0  0  0
    7.4888  -12.9002   23.8673 C   0  0  0  0  0  0  0  0  0  0  0  0
    7.5229  -15.1767   24.9585 C   0  0  2  0  0  0  0  0  0  0  0  0
    7.7783  -15.7763   26.3013 N   0  0  0  0  0  0  0  0  0  0  0  0
    8.5843  -15.5996   24.0373 C   0  0  0  0  0  0  0  0  0  0  0  0
    8.3633  -15.6296   22.7712 O   0  0  0  0  0  0  0  0  0  0  0  0
   11.0556  -15.3972   22.3324 C   0  0  0  0  0  0  0  0  0  0  0  0
   10.8797  -16.4186   23.4281 C   0  0  2  0  0  0  0  0  0  0  0  0
    9.8886  -15.9918   24.4131 N   0  0  0  0  0  0  0  0  0  0  0  0
   12.1617  -16.7792   24.0716 C   0  0  0  0  0  0  0  0  0  0  0  0
   13.2457  -17.2410   23.3365 O   0  0  0  0  0  0  0  0  0  0  0  0
   12.3392  -16.6877   25.3136 O   0  0  0  0  0  0  0  0  0  0  0  0
  1  2  1  0
  3  2  1  0
  4  3  1  0
  5  6  1  6
  5  4  1  0
  7  5  1  0
  8  7  2  0
  9 10  1  0
 10 11  1  0
 11 12  1  6
 13 11  1  0
 13 14  1  1
 14  7  1  0
 15 19  1  0
 15 13  1  0
 16 15  2  0
 18 17  1  6
 18 19  1  0
 20 18  1  0
 20 21  1  0
 22 20  2  0
M  END
$$$$
