MIA.pdb
     RDKit          3D

 22 21  0  0  1  0  0  0  0  0999 V2000
    7.9873  -11.6938   19.4752 C   0  0  0  0  0  0  0  0  0  0  0  0
    7.7965  -13.0987   18.3779 S   0  0  0  0  0  0  0  0  0  0  0  0
    8.0109  -14.6584   19.2643 C   0  0  0  0  0  0  0  0  0  0  0  0
    8.4279  -14.3329   20.6812 C   0  0  0  0  0  0  0  0  0  0  0  0
    8.5367  -15.5757   21.5379 C   0  0  2  0  0  0  0  0  0  0  0  0
    7.3196  -16.3219   21.5678 N   0  0  0  0  0  0  0  0  0  0  0  0
    8.9437  -15.1069   22.9055 C   0  0  0  0  0  0  0  0  0  0  0  0
   10.1300  -14.7672   23.1487 O   0  0  0  0  0  0  0  0  0  0  0  0
    6.4486  -11.6684   27.1739 C   0  0  0  0  0  0  0  0  0  0  0  0
    7.5773  -12.6274   26.8054 C   0  0  0  0  0  0  0  0  0  0  0  0
    7.2398  -13.4736   25.6425 C   0  0  2  0  0  0  0  0  0  0  0  0
    5.8984  -14.1580   25.7550 C   0  0  0  0  0  0  0  0  0  0  0  0
    8.3632  -14.4018   25.2655 C   0  0  2  0  0  0  0  0  0  0  0  0
    8.0006  -15.0338   23.9629 N   0  0  0  0  0  0  0  0  0  0  0  0
    8.6678  -15.4567   26.2394 C   0  0  0  0  0  0  0  0  0  0  0  0
    8.8591  -15.1562   27.4747 O   0  0  0  0  0  0  0  0  0  0  0  0
    7.7208  -18.6783   27.1909 C   0  0  0  0  0  0  0  0  0  0  0  0
    8.9555  -17.8332   27.0011 C   0  0  2  0  0  0  0  0  0  0  0  0
    8.7732  -16.8354   25.9494 N   0  0  0  0  0  0  0  0  0  0  0  0
   10.1658  -18.6507   26.7674 C   0  0  0  0  0  0  0  0  0  0  0  0
   10.6193  -19.5716   27.7028 O   0  0  0  0  0  0  0  0  0  0  0  0
   10.8469  -18.5570   25.7140 O   0  0  0  0  0  0  0  0  0  0  0  0
  1  2  1  0
  3  2  1  0
  4  3  1  0
  5  6  1  1
  5  4  1  0
  7  5  1  0
  8  7  2  0
  9 10  1  0
 10 11  1  0
 11 12  1  1
 13 11  1  0
 13 14  1  6
 14  7  1  0
 15 19  1  0
 15 13  1  0
 16 15  2  0
 18 17  1  6
 18 19  1  0
 20 18  1  0
 20 21  1  0
 22 20  2  0
M  END
$$$$
