MFN.pdb
     RDKit          3D

 28 28  0  0  1  0  0  0  0  0999 V2000
   15.2740  -15.3287  -20.2490 C   0  0  0  0  0  0  0  0  0  0  0  0
   16.2132  -14.9391  -18.7557 S   0  0  0  0  0  0  0  0  0  0  0  0
   17.9384  -15.4222  -19.0351 C   0  0  0  0  0  0  0  0  0  0  0  0
   18.7510  -14.9336  -17.8553 C   0  0  0  0  0  0  0  0  0  0  0  0
   20.2070  -15.3186  -17.9987 C   0  0  2  0  0  0  0  0  0  0  0  0
   20.4555  -16.6894  -17.6902 N   0  0  0  0  0  0  0  0  0  0  0  0
   20.9736  -14.4426  -17.0650 C   0  0  0  0  0  0  0  0  0  0  0  0
   21.0280  -14.6900  -15.8256 O   0  0  0  0  0  0  0  0  0  0  0  0
   21.6701  -13.3071  -17.5051 N   0  0  0  0  0  0  0  0  0  0  0  0
   22.3614  -12.3873  -16.5640 C   0  0  1  0  0  0  0  0  0  0  0  0
   23.7962  -12.4909  -16.9299 C   0  0  0  0  0  0  0  0  0  0  0  0
   24.7239  -11.5298  -16.3406 C   0  0  0  0  0  0  0  0  0  0  0  0
   25.0980  -10.3988  -17.0224 C   0  0  0  0  0  0  0  0  0  0  0  0
   25.9781   -9.4659  -16.4972 C   0  0  0  0  0  0  0  0  0  0  0  0
   26.5103   -9.6597  -15.2465 C   0  0  0  0  0  0  0  0  0  0  0  0
   26.1611  -10.7762  -14.5347 C   0  0  0  0  0  0  0  0  0  0  0  0
   25.2776  -11.7041  -15.0724 C   0  0  0  0  0  0  0  0  0  0  0  0
   21.7271  -11.0690  -16.6407 C   0  0  0  0  0  0  0  0  0  0  0  0
   21.4571  -10.6089  -17.8087 O   0  0  0  0  0  0  0  0  0  0  0  0
   18.9238   -6.3033  -14.3363 N   0  0  0  0  0  0  0  0  0  0  0  0
   19.0486   -7.3614  -15.2662 C   0  0  0  0  0  0  0  0  0  0  0  0
   18.6745   -7.1875  -16.4503 O   0  0  0  0  0  0  0  0  0  0  0  0
   19.6289   -8.6798  -14.8231 C   0  0  0  0  0  0  0  0  0  0  0  0
   20.7739   -8.9459  -15.7787 C   0  0  2  0  0  0  0  0  0  0  0  0
   21.3697  -10.2404  -15.5502 N   0  0  0  0  0  0  0  0  0  0  0  0
   21.8156   -7.9026  -15.6819 C   0  0  0  0  0  0  0  0  0  0  0  0
   22.6349   -7.7657  -14.7502 O   0  0  0  0  0  0  0  0  0  0  0  0
   21.8971   -6.9724  -16.7381 O   0  0  0  0  0  0  0  0  0  0  0  0
  2  1  1  0
  2  3  1  0
  4  3  1  0
  5  4  1  0
  5  6  1  1
  7  5  1  0
  8  7  2  0
  9  7  1  0
 10  9  1  0
 10 11  1  6
 11 12  1  0
 12 17  2  0
 13 12  1  0
 13 14  2  0
 14 15  1  0
 15 16  2  0
 17 16  1  0
 18 25  1  0
 18 10  1  0
 19 18  2  0
 20 21  1  0
 21 22  2  0
 23 21  1  0
 24 23  1  1
 24 26  1  0
 24 25  1  0
 26 28  1  0
 27 26  2  0
M  END
$$$$
