MFN.pdb
     RDKit          3D

 28 28  0  0  1  0  0  0  0  0999 V2000
   22.8721  -19.4576  -19.4271 C   0  0  0  0  0  0  0  0  0  0  0  0
   24.2699  -19.3803  -20.5690 S   0  0  0  0  0  0  0  0  0  0  0  0
   25.5679  -20.4809  -19.9433 C   0  0  0  0  0  0  0  0  0  0  0  0
   25.1078  -21.0239  -18.6074 C   0  0  0  0  0  0  0  0  0  0  0  0
   26.2797  -21.2529  -17.6785 C   0  0  2  0  0  0  0  0  0  0  0  0
   27.1685  -22.2691  -18.1406 N   0  0  0  0  0  0  0  0  0  0  0  0
   25.7066  -21.6440  -16.3575 C   0  0  0  0  0  0  0  0  0  0  0  0
   25.2843  -22.8174  -16.1446 O   0  0  0  0  0  0  0  0  0  0  0  0
   25.6052  -20.7416  -15.2882 N   0  0  0  0  0  0  0  0  0  0  0  0
   24.9802  -21.1152  -13.9923 C   0  0  1  0  0  0  0  0  0  0  0  0
   25.7009  -20.2994  -12.9833 C   0  0  0  0  0  0  0  0  0  0  0  0
   25.2942  -20.4224  -11.5865 C   0  0  0  0  0  0  0  0  0  0  0  0
   24.2148  -19.7276  -11.1005 C   0  0  0  0  0  0  0  0  0  0  0  0
   23.8010  -19.8164   -9.7808 C   0  0  0  0  0  0  0  0  0  0  0  0
   24.4827  -20.6255   -8.9058 C   0  0  0  0  0  0  0  0  0  0  0  0
   25.5651  -21.3352   -9.3530 C   0  0  0  0  0  0  0  0  0  0  0  0
   25.9700  -21.2375  -10.6786 C   0  0  0  0  0  0  0  0  0  0  0  0
   23.5291  -20.9463  -14.1020 C   0  0  0  0  0  0  0  0  0  0  0  0
   23.0989  -19.8933  -14.6977 O   0  0  0  0  0  0  0  0  0  0  0  0
   20.6033  -21.4959  -16.2578 N   0  0  0  0  0  0  0  0  0  0  0  0
   20.1160  -22.6171  -15.5470 C   0  0  0  0  0  0  0  0  0  0  0  0
   19.5525  -23.5457  -16.1735 O   0  0  0  0  0  0  0  0  0  0  0  0
   20.2812  -22.6813  -14.0503 C   0  0  0  0  0  0  0  0  0  0  0  0
   21.1401  -21.4840  -13.6984 C   0  0  2  0  0  0  0  0  0  0  0  0
   22.5379  -21.8347  -13.6204 N   0  0  0  0  0  0  0  0  0  0  0  0
   20.7172  -20.8682  -12.4237 C   0  0  0  0  0  0  0  0  0  0  0  0
   21.3661  -20.8653  -11.3574 O   0  0  0  0  0  0  0  0  0  0  0  0
   19.4648  -20.2213  -12.4040 O   0  0  0  0  0  0  0  0  0  0  0  0
  2  1  1  0
  2  3  1  0
  4  3  1  0
  5  4  1  0
  5  6  1  6
  7  5  1  0
  8  7  2  0
  9  7  1  0
 10  9  1  0
 10 11  1  1
 11 12  1  0
 12 17  2  0
 13 12  1  0
 13 14  2  0
 14 15  1  0
 15 16  2  0
 17 16  1  0
 18 25  1  0
 18 10  1  0
 19 18  2  0
 20 21  1  0
 21 22  2  0
 23 21  1  0
 24 23  1  1
 24 26  1  0
 24 25  1  0
 26 28  1  0
 27 26  2  0
M  END
$$$$
