MFN.pdb
     RDKit          3D

 28 28  0  0  1  0  0  0  0  0999 V2000
   25.2987  -31.3663  -16.7542 C   0  0  0  0  0  0  0  0  0  0  0  0
   23.7357  -31.3849  -17.6599 S   0  0  0  0  0  0  0  0  0  0  0  0
   23.5881  -29.8166  -18.5578 C   0  0  0  0  0  0  0  0  0  0  0  0
   23.7579  -28.6942  -17.5565 C   0  0  0  0  0  0  0  0  0  0  0  0
   23.7435  -27.3452  -18.2413 C   0  0  2  0  0  0  0  0  0  0  0  0
   24.8871  -27.1249  -19.0657 N   0  0  0  0  0  0  0  0  0  0  0  0
   23.6938  -26.3185  -17.1596 C   0  0  0  0  0  0  0  0  0  0  0  0
   24.7516  -25.8405  -16.6567 O   0  0  0  0  0  0  0  0  0  0  0  0
   22.4833  -25.8304  -16.6452 N   0  0  0  0  0  0  0  0  0  0  0  0
   22.4344  -24.7654  -15.6094 C   0  0  1  0  0  0  0  0  0  0  0  0
   22.5475  -23.4982  -16.3739 C   0  0  0  0  0  0  0  0  0  0  0  0
   22.2173  -22.2528  -15.6871 C   0  0  0  0  0  0  0  0  0  0  0  0
   21.0419  -21.5928  -15.9459 C   0  0  0  0  0  0  0  0  0  0  0  0
   20.6957  -20.4075  -15.3166 C   0  0  0  0  0  0  0  0  0  0  0  0
   21.5470  -19.8521  -14.3936 C   0  0  0  0  0  0  0  0  0  0  0  0
   22.7294  -20.4811  -14.1080 C   0  0  0  0  0  0  0  0  0  0  0  0
   23.0650  -21.6691  -14.7458 C   0  0  0  0  0  0  0  0  0  0  0  0
   21.2410  -24.9646  -14.7834 C   0  0  0  0  0  0  0  0  0  0  0  0
   20.1491  -25.2721  -15.3850 O   0  0  0  0  0  0  0  0  0  0  0  0
   18.5237  -25.6842   -9.2869 N   0  0  0  0  0  0  0  0  0  0  0  0
   18.7076  -25.4788  -10.6739 C   0  0  0  0  0  0  0  0  0  0  0  0
   17.7339  -25.6192  -11.4514 O   0  0  0  0  0  0  0  0  0  0  0  0
   20.0675  -25.0938  -11.1974 C   0  0  0  0  0  0  0  0  0  0  0  0
   19.8947  -24.9876  -12.6987 C   0  0  2  0  0  0  0  0  0  0  0  0
   21.1637  -24.8587  -13.3740 N   0  0  0  0  0  0  0  0  0  0  0  0
   19.0259  -23.8505  -13.0662 C   0  0  0  0  0  0  0  0  0  0  0  0
   19.3284  -22.6415  -12.9970 O   0  0  0  0  0  0  0  0  0  0  0  0
   17.7333  -24.1533  -13.5406 O   0  0  0  0  0  0  0  0  0  0  0  0
  2  1  1  0
  2  3  1  0
  4  3  1  0
  5  4  1  0
  5  6  1  1
  7  5  1  0
  8  7  2  0
  9  7  1  0
 10  9  1  0
 10 11  1  6
 11 12  1  0
 12 17  2  0
 13 12  1  0
 13 14  2  0
 14 15  1  0
 15 16  2  0
 17 16  1  0
 18 25  1  0
 18 10  1  0
 19 18  2  0
 20 21  1  0
 21 22  2  0
 23 21  1  0
 24 23  1  1
 24 26  1  0
 24 25  1  0
 26 28  1  0
 27 26  2  0
M  END
$$$$
