MFN.pdb
     RDKit          3D

 28 28  0  0  1  0  0  0  0  0999 V2000
   29.7232    9.1559   -8.3312 C   0  0  0  0  0  0  0  0  0  0  0  0
   31.4545    9.2118   -7.8181 S   0  0  0  0  0  0  0  0  0  0  0  0
   32.1358    7.5373   -7.9570 C   0  0  0  0  0  0  0  0  0  0  0  0
   30.9890    6.5596   -7.8160 C   0  0  0  0  0  0  0  0  0  0  0  0
   31.4571    5.2523   -7.2155 C   0  0  2  0  0  0  0  0  0  0  0  0
   32.4779    4.6179   -7.9846 N   0  0  0  0  0  0  0  0  0  0  0  0
   30.2589    4.3664   -7.1358 C   0  0  0  0  0  0  0  0  0  0  0  0
   29.9104    3.6413   -8.1121 O   0  0  0  0  0  0  0  0  0  0  0  0
   29.4601    4.2887   -5.9852 N   0  0  0  0  0  0  0  0  0  0  0  0
   28.1789    3.5353   -5.9594 C   0  0  1  0  0  0  0  0  0  0  0  0
   28.2877    2.6584   -4.7667 C   0  0  0  0  0  0  0  0  0  0  0  0
   27.0611    2.0722   -4.2342 C   0  0  0  0  0  0  0  0  0  0  0  0
   26.6006    2.4088   -2.9857 C   0  0  0  0  0  0  0  0  0  0  0  0
   25.4430    1.8711   -2.4457 C   0  0  0  0  0  0  0  0  0  0  0  0
   24.7110    0.9631   -3.1700 C   0  0  0  0  0  0  0  0  0  0  0  0
   25.1379    0.6019   -4.4200 C   0  0  0  0  0  0  0  0  0  0  0  0
   26.3003    1.1483   -4.9503 C   0  0  0  0  0  0  0  0  0  0  0  0
   27.0687    4.4897   -6.0106 C   0  0  0  0  0  0  0  0  0  0  0  0
   27.2695    5.6585   -5.5180 O   0  0  0  0  0  0  0  0  0  0  0  0
   23.9522    8.4089   -6.0444 N   0  0  0  0  0  0  0  0  0  0  0  0
   24.0107    7.4734   -7.1032 C   0  0  0  0  0  0  0  0  0  0  0  0
   23.0771    7.4307   -7.9392 O   0  0  0  0  0  0  0  0  0  0  0  0
   25.1918    6.5435   -7.2130 C   0  0  0  0  0  0  0  0  0  0  0  0
   24.7662    5.2814   -6.4912 C   0  0  2  0  0  0  0  0  0  0  0  0
   25.7837    4.2600   -6.5577 N   0  0  0  0  0  0  0  0  0  0  0  0
   23.4992    4.7475   -7.0320 C   0  0  0  0  0  0  0  0  0  0  0  0
   23.3870    3.9028   -7.9441 O   0  0  0  0  0  0  0  0  0  0  0  0
   22.3017    5.2334   -6.4687 O   0  0  0  0  0  0  0  0  0  0  0  0
  2  1  1  0
  2  3  1  0
  4  3  1  0
  5  4  1  0
  5  6  1  6
  7  5  1  0
  8  7  2  0
  9  7  1  0
 10  9  1  0
 10 11  1  1
 11 12  1  0
 12 17  2  0
 13 12  1  0
 13 14  2  0
 14 15  1  0
 15 16  2  0
 17 16  1  0
 18 25  1  0
 18 10  1  0
 19 18  2  0
 20 21  1  0
 21 22  2  0
 23 21  1  0
 24 23  1  6
 24 26  1  0
 24 25  1  0
 26 28  1  0
 27 26  2  0
M  END
$$$$
