MFN.pdb
     RDKit          3D

 28 28  0  0  1  0  0  0  0  0999 V2000
   27.3903  -18.4170   -5.2654 C   0  0  0  0  0  0  0  0  0  0  0  0
   27.4053  -20.2233   -5.2321 S   0  0  0  0  0  0  0  0  0  0  0  0
   28.0359  -20.8092   -6.8278 C   0  0  0  0  0  0  0  0  0  0  0  0
   27.3157  -20.0442   -7.9174 C   0  0  0  0  0  0  0  0  0  0  0  0
   26.9539  -20.9510   -9.0730 C   0  0  2  0  0  0  0  0  0  0  0  0
   28.0564  -21.7265   -9.5412 N   0  0  0  0  0  0  0  0  0  0  0  0
   26.4549  -20.0681  -10.1677 C   0  0  0  0  0  0  0  0  0  0  0  0
   26.4368  -18.8095  -10.0416 O   0  0  0  0  0  0  0  0  0  0  0  0
   25.9830  -20.5793  -11.3859 N   0  0  0  0  0  0  0  0  0  0  0  0
   25.6531  -19.7013  -12.5391 C   0  0  1  0  0  0  0  0  0  0  0  0
   26.9397  -19.0498  -12.8901 C   0  0  0  0  0  0  0  0  0  0  0  0
   26.9922  -18.2524  -14.1120 C   0  0  0  0  0  0  0  0  0  0  0  0
   27.1496  -18.8478  -15.3386 C   0  0  0  0  0  0  0  0  0  0  0  0
   27.2070  -18.1242  -16.5192 C   0  0  0  0  0  0  0  0  0  0  0  0
   27.1047  -16.7554  -16.4852 C   0  0  0  0  0  0  0  0  0  0  0  0
   26.9465  -16.1245  -15.2802 C   0  0  0  0  0  0  0  0  0  0  0  0
   26.8904  -16.8614  -14.1035 C   0  0  0  0  0  0  0  0  0  0  0  0
   24.9870  -20.5037  -13.5680 C   0  0  0  0  0  0  0  0  0  0  0  0
   25.2207  -21.7663  -13.5778 O   0  0  0  0  0  0  0  0  0  0  0  0
   20.4574  -22.3968  -12.6360 N   0  0  0  0  0  0  0  0  0  0  0  0
   20.8239  -21.1784  -13.2533 C   0  0  0  0  0  0  0  0  0  0  0  0
   19.9698  -20.5427  -13.9157 O   0  0  0  0  0  0  0  0  0  0  0  0
   22.2318  -20.6612  -13.1062 C   0  0  0  0  0  0  0  0  0  0  0  0
   22.6984  -20.3848  -14.5208 C   0  0  2  0  0  0  0  0  0  0  0  0
   24.0968  -20.0303  -14.5616 N   0  0  0  0  0  0  0  0  0  0  0  0
   21.9024  -19.3143  -15.1558 C   0  0  0  0  0  0  0  0  0  0  0  0
   22.0588  -18.0866  -14.9931 O   0  0  0  0  0  0  0  0  0  0  0  0
   20.8686  -19.7104  -16.0286 O   0  0  0  0  0  0  0  0  0  0  0  0
  2  1  1  0
  2  3  1  0
  4  3  1  0
  5  4  1  0
  5  6  1  6
  7  5  1  0
  8  7  2  0
  9  7  1  0
 10  9  1  0
 10 11  1  6
 11 12  1  0
 12 17  2  0
 13 12  1  0
 13 14  2  0
 14 15  1  0
 15 16  2  0
 17 16  1  0
 18 25  1  0
 18 10  1  0
 19 18  2  0
 20 21  1  0
 21 22  2  0
 23 21  1  0
 24 23  1  1
 24 26  1  0
 24 25  1  0
 26 28  1  0
 27 26  2  0
M  END
$$$$
