MFN.pdb
     RDKit          3D

 28 28  0  0  1  0  0  0  0  0999 V2000
   25.8036  -17.8856  -16.7283 C   0  0  0  0  0  0  0  0  0  0  0  0
   27.5170  -17.3136  -16.7597 S   0  0  0  0  0  0  0  0  0  0  0  0
   28.4374  -18.2270  -15.4923 C   0  0  0  0  0  0  0  0  0  0  0  0
   27.4406  -19.0406  -14.6950 C   0  0  0  0  0  0  0  0  0  0  0  0
   28.1379  -19.8954  -13.6597 C   0  0  2  0  0  0  0  0  0  0  0  0
   28.9506  -20.9176  -14.2347 N   0  0  0  0  0  0  0  0  0  0  0  0
   27.0663  -20.5112  -12.8235 C   0  0  0  0  0  0  0  0  0  0  0  0
   26.7786  -21.7391  -12.9218 O   0  0  0  0  0  0  0  0  0  0  0  0
   26.3256  -19.7702  -11.8905 N   0  0  0  0  0  0  0  0  0  0  0  0
   25.2739  -20.3895  -11.0420 C   0  0  1  0  0  0  0  0  0  0  0  0
   25.2962  -19.5985   -9.7862 C   0  0  0  0  0  0  0  0  0  0  0  0
   26.2731  -19.9640   -8.7645 C   0  0  0  0  0  0  0  0  0  0  0  0
   26.8576  -19.0085   -7.9712 C   0  0  0  0  0  0  0  0  0  0  0  0
   27.7906  -19.3166   -6.9938 C   0  0  0  0  0  0  0  0  0  0  0  0
   28.1608  -20.6234   -6.7929 C   0  0  0  0  0  0  0  0  0  0  0  0
   27.5995  -21.6057   -7.5644 C   0  0  0  0  0  0  0  0  0  0  0  0
   26.6651  -21.2838   -8.5412 C   0  0  0  0  0  0  0  0  0  0  0  0
   24.0218  -20.4367  -11.8012 C   0  0  0  0  0  0  0  0  0  0  0  0
   23.7383  -19.4249  -12.5391 O   0  0  0  0  0  0  0  0  0  0  0  0
   19.7370  -23.6633  -14.7358 N   0  0  0  0  0  0  0  0  0  0  0  0
   20.4225  -22.5658  -14.1654 C   0  0  0  0  0  0  0  0  0  0  0  0
   20.0855  -21.3994  -14.4788 O   0  0  0  0  0  0  0  0  0  0  0  0
   21.5451  -22.8122  -13.1904 C   0  0  0  0  0  0  0  0  0  0  0  0
   21.9270  -21.4393  -12.6763 C   0  0  2  0  0  0  0  0  0  0  0  0
   23.0821  -21.4952  -11.8129 N   0  0  0  0  0  0  0  0  0  0  0  0
   20.8073  -20.7981  -11.9566 C   0  0  0  0  0  0  0  0  0  0  0  0
   19.8759  -20.1486  -12.4747 O   0  0  0  0  0  0  0  0  0  0  0  0
   20.7831  -20.9294  -10.5531 O   0  0  0  0  0  0  0  0  0  0  0  0
  2  1  1  0
  2  3  1  0
  4  3  1  0
  5  4  1  0
  5  6  1  6
  7  5  1  0
  8  7  2  0
  9  7  1  0
 10  9  1  0
 10 11  1  1
 11 12  1  0
 12 17  2  0
 13 12  1  0
 13 14  2  0
 14 15  1  0
 15 16  2  0
 17 16  1  0
 18 25  1  0
 18 10  1  0
 19 18  2  0
 20 21  1  0
 21 22  2  0
 23 21  1  0
 24 23  1  1
 24 26  1  0
 24 25  1  0
 26 28  1  0
 27 26  2  0
M  END
$$$$
