MFN.pdb
     RDKit          3D

 28 28  0  0  1  0  0  0  0  0999 V2000
   26.2746  -17.6681  -17.2496 C   0  0  0  0  0  0  0  0  0  0  0  0
   26.6911  -18.0379  -18.9683 S   0  0  0  0  0  0  0  0  0  0  0  0
   26.8743  -19.8347  -19.1277 C   0  0  0  0  0  0  0  0  0  0  0  0
   26.5005  -20.4562  -17.7991 C   0  0  0  0  0  0  0  0  0  0  0  0
   27.7288  -20.7262  -16.9582 C   0  0  2  0  0  0  0  0  0  0  0  0
   28.6148  -21.6743  -17.5517 N   0  0  0  0  0  0  0  0  0  0  0  0
   27.2416  -21.2414  -15.6452 C   0  0  0  0  0  0  0  0  0  0  0  0
   26.8088  -22.4237  -15.5217 O   0  0  0  0  0  0  0  0  0  0  0  0
   27.2368  -20.4516  -14.4858 N   0  0  0  0  0  0  0  0  0  0  0  0
   26.6974  -20.9464  -13.1921 C   0  0  1  0  0  0  0  0  0  0  0  0
   27.4715  -20.2108  -12.1611 C   0  0  0  0  0  0  0  0  0  0  0  0
   27.0386  -20.3221  -10.7712 C   0  0  0  0  0  0  0  0  0  0  0  0
   27.6391  -21.2087   -9.9125 C   0  0  0  0  0  0  0  0  0  0  0  0
   27.2536  -21.3448   -8.5883 C   0  0  0  0  0  0  0  0  0  0  0  0
   26.2322  -20.5725   -8.0930 C   0  0  0  0  0  0  0  0  0  0  0  0
   25.6082  -19.6759   -8.9189 C   0  0  0  0  0  0  0  0  0  0  0  0
   26.0041  -19.5489  -10.2448 C   0  0  0  0  0  0  0  0  0  0  0  0
   25.2407  -20.7908  -13.1974 C   0  0  0  0  0  0  0  0  0  0  0  0
   24.7664  -19.6705  -13.6082 O   0  0  0  0  0  0  0  0  0  0  0  0
   20.4010  -20.7718  -13.2715 N   0  0  0  0  0  0  0  0  0  0  0  0
   20.6247  -22.1637  -13.1604 C   0  0  0  0  0  0  0  0  0  0  0  0
   19.6533  -22.9520  -13.2457 O   0  0  0  0  0  0  0  0  0  0  0  0
   22.0240  -22.6797  -12.9428 C   0  0  0  0  0  0  0  0  0  0  0  0
   22.8803  -21.4395  -12.7889 C   0  0  2  0  0  0  0  0  0  0  0  0
   24.2878  -21.7585  -12.7985 N   0  0  0  0  0  0  0  0  0  0  0  0
   22.5527  -20.7036  -11.5504 C   0  0  0  0  0  0  0  0  0  0  0  0
   23.1746  -20.7684  -10.4701 O   0  0  0  0  0  0  0  0  0  0  0  0
   21.4343  -19.8460  -11.5863 O   0  0  0  0  0  0  0  0  0  0  0  0
  2  1  1  0
  2  3  1  0
  4  3  1  0
  5  4  1  0
  5  6  1  6
  7  5  1  0
  8  7  2  0
  9  7  1  0
 10  9  1  0
 10 11  1  1
 11 12  1  0
 12 17  2  0
 13 12  1  0
 13 14  2  0
 14 15  1  0
 15 16  2  0
 17 16  1  0
 18 25  1  0
 18 10  1  0
 19 18  2  0
 20 21  1  0
 21 22  2  0
 23 21  1  0
 24 23  1  1
 24 26  1  0
 24 25  1  0
 26 28  1  0
 27 26  2  0
M  END
$$$$
