MFN.pdb
     RDKit          3D

 28 28  0  0  1  0  0  0  0  0999 V2000
   12.8326  -13.5098  -15.6860 C   0  0  0  0  0  0  0  0  0  0  0  0
   12.5747  -12.0044  -14.7210 S   0  0  0  0  0  0  0  0  0  0  0  0
   13.8881  -11.9041  -13.4749 C   0  0  0  0  0  0  0  0  0  0  0  0
   13.7365  -10.5838  -12.7504 C   0  0  0  0  0  0  0  0  0  0  0  0
   14.9208   -9.6792  -13.0111 C   0  0  2  0  0  0  0  0  0  0  0  0
   16.1717  -10.2949  -12.7074 N   0  0  0  0  0  0  0  0  0  0  0  0
   14.7306   -8.4709  -12.1564 C   0  0  0  0  0  0  0  0  0  0  0  0
   13.6643   -7.7920  -12.2044 O   0  0  0  0  0  0  0  0  0  0  0  0
   15.7137   -8.0248  -11.2605 N   0  0  0  0  0  0  0  0  0  0  0  0
   15.5800   -6.7504  -10.5072 C   0  0  1  0  0  0  0  0  0  0  0  0
   15.6587   -7.1522   -9.0805 C   0  0  0  0  0  0  0  0  0  0  0  0
   14.4379   -7.6248   -8.4341 C   0  0  0  0  0  0  0  0  0  0  0  0
   13.6173   -6.7597   -7.7543 C   0  0  0  0  0  0  0  0  0  0  0  0
   12.4528   -7.1717   -7.1259 C   0  0  0  0  0  0  0  0  0  0  0  0
   12.0848   -8.4936   -7.1716 C   0  0  0  0  0  0  0  0  0  0  0  0
   12.8775   -9.3877   -7.8406 C   0  0  0  0  0  0  0  0  0  0  0  0
   14.0427   -8.9620   -8.4666 C   0  0  0  0  0  0  0  0  0  0  0  0
   16.5750   -5.7991  -11.0083 C   0  0  0  0  0  0  0  0  0  0  0  0
   17.7085   -6.2708  -11.3840 O   0  0  0  0  0  0  0  0  0  0  0  0
   17.0798   -2.5579  -15.3679 N   0  0  0  0  0  0  0  0  0  0  0  0
   17.7294   -3.4277  -14.4617 C   0  0  0  0  0  0  0  0  0  0  0  0
   18.9821   -3.4799  -14.4493 O   0  0  0  0  0  0  0  0  0  0  0  0
   16.9095   -4.2770  -13.5246 C   0  0  0  0  0  0  0  0  0  0  0  0
   17.1216   -3.6667  -12.1544 C   0  0  2  0  0  0  0  0  0  0  0  0
   16.4156   -4.3978  -11.1296 N   0  0  0  0  0  0  0  0  0  0  0  0
   16.7052   -2.2495  -12.1207 C   0  0  0  0  0  0  0  0  0  0  0  0
   17.4458   -1.2610  -12.3007 O   0  0  0  0  0  0  0  0  0  0  0  0
   15.3453   -1.9827  -11.8623 O   0  0  0  0  0  0  0  0  0  0  0  0
  2  1  1  0
  2  3  1  0
  4  3  1  0
  5  4  1  0
  5  6  1  1
  7  5  1  0
  8  7  2  0
  9  7  1  0
 10  9  1  0
 10 11  1  1
 11 12  1  0
 12 17  2  0
 13 12  1  0
 13 14  2  0
 14 15  1  0
 15 16  2  0
 17 16  1  0
 18 25  1  0
 18 10  1  0
 19 18  2  0
 20 21  1  0
 21 22  2  0
 23 21  1  0
 24 23  1  6
 24 26  1  0
 24 25  1  0
 26 28  1  0
 27 26  2  0
M  END
$$$$
