MFN.pdb
     RDKit          3D

 28 28  0  0  1  0  0  0  0  0999 V2000
   29.9205  -20.4484  -18.2885 C   0  0  0  0  0  0  0  0  0  0  0  0
   28.3125  -19.6250  -18.2823 S   0  0  0  0  0  0  0  0  0  0  0  0
   28.1493  -18.7230  -16.7179 C   0  0  0  0  0  0  0  0  0  0  0  0
   27.2164  -19.5129  -15.8253 C   0  0  0  0  0  0  0  0  0  0  0  0
   27.9865  -20.2756  -14.7699 C   0  0  2  0  0  0  0  0  0  0  0  0
   28.8033  -21.3115  -15.3137 N   0  0  0  0  0  0  0  0  0  0  0  0
   26.9741  -20.8626  -13.8441 C   0  0  0  0  0  0  0  0  0  0  0  0
   26.5874  -22.0609  -13.9658 O   0  0  0  0  0  0  0  0  0  0  0  0
   26.4003  -20.1258  -12.7972 N   0  0  0  0  0  0  0  0  0  0  0  0
   25.4437  -20.7309  -11.8337 C   0  0  1  0  0  0  0  0  0  0  0  0
   25.5606  -19.8899  -10.6162 C   0  0  0  0  0  0  0  0  0  0  0  0
   26.6370  -20.1913   -9.6770 C   0  0  0  0  0  0  0  0  0  0  0  0
   26.5771  -19.7668   -8.3731 C   0  0  0  0  0  0  0  0  0  0  0  0
   27.5803  -20.0308   -7.4540 C   0  0  0  0  0  0  0  0  0  0  0  0
   28.6882  -20.7437   -7.8404 C   0  0  0  0  0  0  0  0  0  0  0  0
   28.7846  -21.1848   -9.1332 C   0  0  0  0  0  0  0  0  0  0  0  0
   27.7719  -20.9136  -10.0452 C   0  0  0  0  0  0  0  0  0  0  0  0
   24.1299  -20.8330  -12.4738 C   0  0  0  0  0  0  0  0  0  0  0  0
   23.7321  -19.8315  -13.1722 O   0  0  0  0  0  0  0  0  0  0  0  0
   19.9407  -23.0525  -15.3000 N   0  0  0  0  0  0  0  0  0  0  0  0
   20.0222  -23.0319  -13.8884 C   0  0  0  0  0  0  0  0  0  0  0  0
   18.9853  -22.8228  -13.2150 O   0  0  0  0  0  0  0  0  0  0  0  0
   21.3504  -23.2620  -13.2141 C   0  0  0  0  0  0  0  0  0  0  0  0
   21.9623  -21.8835  -13.0714 C   0  0  2  0  0  0  0  0  0  0  0  0
   23.2434  -21.9345  -12.4087 N   0  0  0  0  0  0  0  0  0  0  0  0
   21.0670  -20.9653  -12.3379 C   0  0  0  0  0  0  0  0  0  0  0  0
   21.1262  -20.6970  -11.1202 O   0  0  0  0  0  0  0  0  0  0  0  0
   20.0490  -20.3292  -13.0772 O   0  0  0  0  0  0  0  0  0  0  0  0
  2  1  1  0
  2  3  1  0
  4  3  1  0
  5  4  1  0
  5  6  1  6
  7  5  1  0
  8  7  2  0
  9  7  1  0
 10  9  1  0
 10 11  1  1
 11 12  1  0
 12 17  2  0
 13 12  1  0
 13 14  2  0
 14 15  1  0
 15 16  2  0
 17 16  1  0
 18 25  1  0
 18 10  1  0
 19 18  2  0
 20 21  1  0
 21 22  2  0
 23 21  1  0
 24 23  1  1
 24 26  1  0
 24 25  1  0
 26 28  1  0
 27 26  2  0
M  END
$$$$
