MFN.pdb
     RDKit          3D

 28 28  0  0  1  0  0  0  0  0999 V2000
   22.3366  -36.2808  -14.9067 C   0  0  0  0  0  0  0  0  0  0  0  0
   23.5156  -35.0303  -15.4639 S   0  0  0  0  0  0  0  0  0  0  0  0
   24.8838  -34.9793  -14.2753 C   0  0  0  0  0  0  0  0  0  0  0  0
   24.2887  -34.8088  -12.8940 C   0  0  0  0  0  0  0  0  0  0  0  0
   25.3668  -34.5603  -11.8622 C   0  0  2  0  0  0  0  0  0  0  0  0
   26.1393  -35.7240  -11.5700 N   0  0  0  0  0  0  0  0  0  0  0  0
   24.6745  -34.0891  -10.6272 C   0  0  0  0  0  0  0  0  0  0  0  0
   24.1294  -34.9031   -9.8269 O   0  0  0  0  0  0  0  0  0  0  0  0
   24.5905  -32.7305  -10.2877 N   0  0  0  0  0  0  0  0  0  0  0  0
   23.9625  -32.2671   -9.0226 C   0  0  1  0  0  0  0  0  0  0  0  0
   25.0195  -31.4675   -8.3543 C   0  0  0  0  0  0  0  0  0  0  0  0
   25.9017  -32.1504   -7.4124 C   0  0  0  0  0  0  0  0  0  0  0  0
   25.5464  -32.3050   -6.0957 C   0  0  0  0  0  0  0  0  0  0  0  0
   26.3584  -32.9442   -5.1723 C   0  0  0  0  0  0  0  0  0  0  0  0
   27.5716  -33.4511   -5.5672 C   0  0  0  0  0  0  0  0  0  0  0  0
   27.9616  -33.3168   -6.8730 C   0  0  0  0  0  0  0  0  0  0  0  0
   27.1384  -32.6738   -7.7893 C   0  0  0  0  0  0  0  0  0  0  0  0
   22.6964  -31.6021   -9.3399 C   0  0  0  0  0  0  0  0  0  0  0  0
   22.7402  -30.5918  -10.1313 O   0  0  0  0  0  0  0  0  0  0  0  0
   17.0736  -31.4690  -10.4463 N   0  0  0  0  0  0  0  0  0  0  0  0
   18.3825  -31.0862  -10.8206 C   0  0  0  0  0  0  0  0  0  0  0  0
   18.5541  -30.0164  -11.4517 O   0  0  0  0  0  0  0  0  0  0  0  0
   19.5505  -31.9661  -10.4558 C   0  0  0  0  0  0  0  0  0  0  0  0
   20.2398  -31.2499   -9.3127 C   0  0  2  0  0  0  0  0  0  0  0  0
   21.4123  -31.9630   -8.8659 N   0  0  0  0  0  0  0  0  0  0  0  0
   19.3257  -31.0447   -8.1703 C   0  0  0  0  0  0  0  0  0  0  0  0
   18.3890  -30.2214   -8.1166 O   0  0  0  0  0  0  0  0  0  0  0  0
   19.5248  -31.8518   -7.0317 O   0  0  0  0  0  0  0  0  0  0  0  0
  2  1  1  0
  2  3  1  0
  4  3  1  0
  5  4  1  0
  5  6  1  1
  7  5  1  0
  8  7  2  0
  9  7  1  0
 10  9  1  0
 10 11  1  6
 11 12  1  0
 12 17  2  0
 13 12  1  0
 13 14  2  0
 14 15  1  0
 15 16  2  0
 17 16  1  0
 18 25  1  0
 18 10  1  0
 19 18  2  0
 20 21  1  0
 21 22  2  0
 23 21  1  0
 24 23  1  6
 24 26  1  0
 24 25  1  0
 26 28  1  0
 27 26  2  0
M  END
$$$$
