MFN.pdb
     RDKit          3D

 28 28  0  0  1  0  0  0  0  0999 V2000
   23.7841  -34.3389  -19.7615 C   0  0  0  0  0  0  0  0  0  0  0  0
   23.1826  -32.9298  -20.7187 S   0  0  0  0  0  0  0  0  0  0  0  0
   22.9620  -31.5329  -19.5840 C   0  0  0  0  0  0  0  0  0  0  0  0
   23.5170  -31.9414  -18.2363 C   0  0  0  0  0  0  0  0  0  0  0  0
   22.4462  -31.8957  -17.1685 C   0  0  2  0  0  0  0  0  0  0  0  0
   22.0018  -30.5710  -16.8794 N   0  0  0  0  0  0  0  0  0  0  0  0
   23.0386  -32.5095  -15.9442 C   0  0  0  0  0  0  0  0  0  0  0  0
   23.6152  -33.6347  -15.9851 O   0  0  0  0  0  0  0  0  0  0  0  0
   22.9899  -31.8793  -14.6918 N   0  0  0  0  0  0  0  0  0  0  0  0
   23.5229  -32.5200  -13.4609 C   0  0  1  0  0  0  0  0  0  0  0  0
   24.1528  -31.4079  -12.7062 C   0  0  0  0  0  0  0  0  0  0  0  0
   24.7530  -31.7136  -11.4107 C   0  0  0  0  0  0  0  0  0  0  0  0
   25.8897  -32.4776  -11.3208 C   0  0  0  0  0  0  0  0  0  0  0  0
   26.4860  -32.7911  -10.1096 C   0  0  0  0  0  0  0  0  0  0  0  0
   25.9353  -32.3302   -8.9394 C   0  0  0  0  0  0  0  0  0  0  0  0
   24.8009  -31.5646   -8.9879 C   0  0  0  0  0  0  0  0  0  0  0  0
   24.2127  -31.2572  -10.2086 C   0  0  0  0  0  0  0  0  0  0  0  0
   22.4421  -33.2652  -12.8107 C   0  0  0  0  0  0  0  0  0  0  0  0
   22.6954  -33.8037  -11.6729 O   0  0  0  0  0  0  0  0  0  0  0  0
   17.1294  -32.8006  -13.0909 N   0  0  0  0  0  0  0  0  0  0  0  0
   17.8422  -33.6440  -12.2075 C   0  0  0  0  0  0  0  0  0  0  0  0
   17.3063  -34.7018  -11.7998 O   0  0  0  0  0  0  0  0  0  0  0  0
   19.2329  -33.2618  -11.7700 C   0  0  0  0  0  0  0  0  0  0  0  0
   20.1543  -34.1874  -12.5377 C   0  0  2  0  0  0  0  0  0  0  0  0
   21.1295  -33.4520  -13.3065 N   0  0  0  0  0  0  0  0  0  0  0  0
   19.3979  -35.0849  -13.4350 C   0  0  0  0  0  0  0  0  0  0  0  0
   19.2382  -34.9325  -14.6636 O   0  0  0  0  0  0  0  0  0  0  0  0
   18.7988  -36.2217  -12.8552 O   0  0  0  0  0  0  0  0  0  0  0  0
  2  1  1  0
  2  3  1  0
  4  3  1  0
  5  4  1  0
  5  6  1  1
  7  5  1  0
  8  7  2  0
  9  7  1  0
 10  9  1  0
 10 11  1  1
 11 12  1  0
 12 17  2  0
 13 12  1  0
 13 14  2  0
 14 15  1  0
 15 16  2  0
 17 16  1  0
 18 25  1  0
 18 10  1  0
 19 18  2  0
 20 21  1  0
 21 22  2  0
 23 21  1  0
 24 23  1  6
 24 26  1  0
 24 25  1  0
 26 28  1  0
 27 26  2  0
M  END
$$$$
