MFN.pdb
     RDKit          3D

 28 28  0  0  1  0  0  0  0  0999 V2000
   25.1940  -23.0691  -15.6187 C   0  0  0  0  0  0  0  0  0  0  0  0
   25.4162  -21.2821  -15.7644 S   0  0  0  0  0  0  0  0  0  0  0  0
   26.9169  -20.8266  -14.8544 C   0  0  0  0  0  0  0  0  0  0  0  0
   26.7918  -21.3812  -13.4516 C   0  0  0  0  0  0  0  0  0  0  0  0
   26.0786  -20.4061  -12.5409 C   0  0  2  0  0  0  0  0  0  0  0  0
   26.5231  -19.0602  -12.7058 N   0  0  0  0  0  0  0  0  0  0  0  0
   26.3409  -20.8582  -11.1432 C   0  0  0  0  0  0  0  0  0  0  0  0
   26.3382  -22.0856  -10.8371 O   0  0  0  0  0  0  0  0  0  0  0  0
   26.6027  -19.9564  -10.1010 N   0  0  0  0  0  0  0  0  0  0  0  0
   26.8041  -20.4037   -8.6978 C   0  0  1  0  0  0  0  0  0  0  0  0
   27.7580  -19.4198   -8.1276 C   0  0  0  0  0  0  0  0  0  0  0  0
   28.1390  -19.5690   -6.7260 C   0  0  0  0  0  0  0  0  0  0  0  0
   27.6023  -18.7581   -5.7573 C   0  0  0  0  0  0  0  0  0  0  0  0
   27.9418  -18.8677   -4.4181 C   0  0  0  0  0  0  0  0  0  0  0  0
   28.8494  -19.8181   -4.0207 C   0  0  0  0  0  0  0  0  0  0  0  0
   29.4068  -20.6465   -4.9579 C   0  0  0  0  0  0  0  0  0  0  0  0
   29.0581  -20.5265   -6.2976 C   0  0  0  0  0  0  0  0  0  0  0  0
   25.4955  -20.5434   -8.0543 C   0  0  0  0  0  0  0  0  0  0  0  0
   24.6017  -19.6647   -8.3334 O   0  0  0  0  0  0  0  0  0  0  0  0
   21.3208  -23.4511   -5.0091 N   0  0  0  0  0  0  0  0  0  0  0  0
   21.7185  -22.6770   -6.1237 C   0  0  0  0  0  0  0  0  0  0  0  0
   20.9258  -21.8298   -6.5992 O   0  0  0  0  0  0  0  0  0  0  0  0
   23.0866  -22.8794   -6.7229 C   0  0  0  0  0  0  0  0  0  0  0  0
   23.7883  -21.5469   -6.5584 C   0  0  2  0  0  0  0  0  0  0  0  0
   25.1044  -21.5603   -7.1508 N   0  0  0  0  0  0  0  0  0  0  0  0
   23.8946  -21.1610   -5.1363 C   0  0  0  0  0  0  0  0  0  0  0  0
   24.8856  -21.3379   -4.3983 O   0  0  0  0  0  0  0  0  0  0  0  0
   22.7752  -20.5332   -4.5528 O   0  0  0  0  0  0  0  0  0  0  0  0
  2  1  1  0
  2  3  1  0
  4  3  1  0
  5  4  1  0
  5  6  1  1
  7  5  1  0
  8  7  2  0
  9  7  1  0
 10  9  1  0
 10 11  1  1
 11 12  1  0
 12 17  2  0
 13 12  1  0
 13 14  2  0
 14 15  1  0
 15 16  2  0
 17 16  1  0
 18 25  1  0
 18 10  1  0
 19 18  2  0
 20 21  1  0
 21 22  2  0
 23 21  1  0
 24 23  1  1
 24 26  1  0
 24 25  1  0
 26 28  1  0
 27 26  2  0
M  END
$$$$
