MFN.pdb
     RDKit          3D

 28 28  0  0  1  0  0  0  0  0999 V2000
   24.7554  -20.8643  -20.8521 C   0  0  0  0  0  0  0  0  0  0  0  0
   25.8577  -19.4652  -20.5504 S   0  0  0  0  0  0  0  0  0  0  0  0
   27.2722  -20.0624  -19.5859 C   0  0  0  0  0  0  0  0  0  0  0  0
   26.7341  -20.6884  -18.3172 C   0  0  0  0  0  0  0  0  0  0  0  0
   27.8560  -21.0508  -17.3691 C   0  0  2  0  0  0  0  0  0  0  0  0
   28.7423  -22.0338  -17.9022 N   0  0  0  0  0  0  0  0  0  0  0  0
   27.2131  -21.5695  -16.1264 C   0  0  0  0  0  0  0  0  0  0  0  0
   26.9606  -22.8004  -15.9805 O   0  0  0  0  0  0  0  0  0  0  0  0
   26.8567  -20.7296  -15.0608 N   0  0  0  0  0  0  0  0  0  0  0  0
   26.1812  -21.2417  -13.8397 C   0  0  1  0  0  0  0  0  0  0  0  0
   26.7656  -20.4467  -12.7308 C   0  0  0  0  0  0  0  0  0  0  0  0
   26.1503  -20.5571  -11.4113 C   0  0  0  0  0  0  0  0  0  0  0  0
   25.2504  -19.6192  -10.9702 C   0  0  0  0  0  0  0  0  0  0  0  0
   24.6486  -19.6887   -9.7237 C   0  0  0  0  0  0  0  0  0  0  0  0
   24.9493  -20.7283   -8.8788 C   0  0  0  0  0  0  0  0  0  0  0  0
   25.8425  -21.6843   -9.2830 C   0  0  0  0  0  0  0  0  0  0  0  0
   26.4392  -21.6033  -10.5354 C   0  0  0  0  0  0  0  0  0  0  0  0
   24.7314  -21.1778  -14.0402 C   0  0  0  0  0  0  0  0  0  0  0  0
   24.2566  -20.1228  -14.5972 O   0  0  0  0  0  0  0  0  0  0  0  0
   19.8802  -21.5055  -14.5258 N   0  0  0  0  0  0  0  0  0  0  0  0
   20.2016  -22.8676  -14.3230 C   0  0  0  0  0  0  0  0  0  0  0  0
   19.3137  -23.7393  -14.4788 O   0  0  0  0  0  0  0  0  0  0  0  0
   21.6032  -23.2525  -13.9245 C   0  0  0  0  0  0  0  0  0  0  0  0
   22.3769  -21.9501  -13.9031 C   0  0  2  0  0  0  0  0  0  0  0  0
   23.7866  -22.1706  -13.6862 N   0  0  0  0  0  0  0  0  0  0  0  0
   21.8601  -21.0285  -12.8704 C   0  0  0  0  0  0  0  0  0  0  0  0
   22.2356  -20.9714  -11.6814 O   0  0  0  0  0  0  0  0  0  0  0  0
   20.8486  -20.1265  -13.2586 O   0  0  0  0  0  0  0  0  0  0  0  0
  2  1  1  0
  2  3  1  0
  4  3  1  0
  5  4  1  0
  5  6  1  6
  7  5  1  0
  8  7  2  0
  9  7  1  0
 10  9  1  0
 10 11  1  1
 11 12  1  0
 12 17  2  0
 13 12  1  0
 13 14  2  0
 14 15  1  0
 15 16  2  0
 17 16  1  0
 18 25  1  0
 18 10  1  0
 19 18  2  0
 20 21  1  0
 21 22  2  0
 23 21  1  0
 24 23  1  1
 24 26  1  0
 24 25  1  0
 26 28  1  0
 27 26  2  0
M  END
$$$$
