MFN.pdb
     RDKit          3D

 28 28  0  0  1  0  0  0  0  0999 V2000
   27.2611  -16.9804  -14.8912 C   0  0  0  0  0  0  0  0  0  0  0  0
   28.7487  -17.9075  -15.3287 S   0  0  0  0  0  0  0  0  0  0  0  0
   28.2830  -19.6461  -15.5475 C   0  0  0  0  0  0  0  0  0  0  0  0
   27.7933  -20.1639  -14.2122 C   0  0  0  0  0  0  0  0  0  0  0  0
   28.8875  -20.9111  -13.4821 C   0  0  2  0  0  0  0  0  0  0  0  0
   29.3188  -22.0839  -14.1711 N   0  0  0  0  0  0  0  0  0  0  0  0
   28.3326  -21.2832  -12.1478 C   0  0  0  0  0  0  0  0  0  0  0  0
   27.5834  -22.2924  -12.0047 O   0  0  0  0  0  0  0  0  0  0  0  0
   28.6083  -20.5422  -10.9889 N   0  0  0  0  0  0  0  0  0  0  0  0
   27.9940  -20.8680   -9.6751 C   0  0  1  0  0  0  0  0  0  0  0  0
   28.9253  -20.2879   -8.6754 C   0  0  0  0  0  0  0  0  0  0  0  0
   28.4731  -20.1981   -7.2901 C   0  0  0  0  0  0  0  0  0  0  0  0
   27.7142  -19.1379   -6.8613 C   0  0  0  0  0  0  0  0  0  0  0  0
   27.2696  -19.0167   -5.5543 C   0  0  0  0  0  0  0  0  0  0  0  0
   27.5888  -19.9838   -4.6334 C   0  0  0  0  0  0  0  0  0  0  0  0
   28.3444  -21.0574   -5.0229 C   0  0  0  0  0  0  0  0  0  0  0  0
   28.7841  -21.1673   -6.3365 C   0  0  0  0  0  0  0  0  0  0  0  0
   26.6062  -20.3990   -9.6734 C   0  0  0  0  0  0  0  0  0  0  0  0
   26.3943  -19.1754   -9.9999 O   0  0  0  0  0  0  0  0  0  0  0  0
   22.0580  -19.9894  -12.1698 N   0  0  0  0  0  0  0  0  0  0  0  0
   22.2883  -21.0597  -11.2747 C   0  0  0  0  0  0  0  0  0  0  0  0
   21.3137  -21.6093  -10.7087 O   0  0  0  0  0  0  0  0  0  0  0  0
   23.6981  -21.5249  -11.0148 C   0  0  0  0  0  0  0  0  0  0  0  0
   24.1516  -20.7434   -9.7988 C   0  0  2  0  0  0  0  0  0  0  0  0
   25.4584  -21.1625   -9.3520 N   0  0  0  0  0  0  0  0  0  0  0  0
   23.1895  -20.8665   -8.6843 C   0  0  0  0  0  0  0  0  0  0  0  0
   22.0577  -20.3431   -8.6286 O   0  0  0  0  0  0  0  0  0  0  0  0
   23.5806  -21.6476   -7.5777 O   0  0  0  0  0  0  0  0  0  0  0  0
  2  1  1  0
  2  3  1  0
  4  3  1  0
  5  4  1  0
  5  6  1  6
  7  5  1  0
  8  7  2  0
  9  7  1  0
 10  9  1  0
 10 11  1  1
 11 12  1  0
 12 17  2  0
 13 12  1  0
 13 14  2  0
 14 15  1  0
 15 16  2  0
 17 16  1  0
 18 25  1  0
 18 10  1  0
 19 18  2  0
 20 21  1  0
 21 22  2  0
 23 21  1  0
 24 23  1  6
 24 26  1  0
 24 25  1  0
 26 28  1  0
 27 26  2  0
M  END
$$$$
