MFN.pdb
     RDKit          3D

 28 28  0  0  1  0  0  0  0  0999 V2000
   27.7478  -17.1546  -15.6102 C   0  0  0  0  0  0  0  0  0  0  0  0
   28.3784  -17.4981  -17.2680 S   0  0  0  0  0  0  0  0  0  0  0  0
   27.3254  -18.7699  -18.0172 C   0  0  0  0  0  0  0  0  0  0  0  0
   26.5684  -19.4578  -16.9015 C   0  0  0  0  0  0  0  0  0  0  0  0
   27.3869  -20.5765  -16.2956 C   0  0  2  0  0  0  0  0  0  0  0  0
   27.6040  -21.6613  -17.1968 N   0  0  0  0  0  0  0  0  0  0  0  0
   26.6347  -21.0553  -15.0990 C   0  0  0  0  0  0  0  0  0  0  0  0
   25.7395  -21.9438  -15.1965 O   0  0  0  0  0  0  0  0  0  0  0  0
   26.8759  -20.5521  -13.8119 N   0  0  0  0  0  0  0  0  0  0  0  0
   26.0680  -20.9661  -12.6349 C   0  0  1  0  0  0  0  0  0  0  0  0
   26.8829  -20.5586  -11.4631 C   0  0  0  0  0  0  0  0  0  0  0  0
   26.2351  -20.5319  -10.1549 C   0  0  0  0  0  0  0  0  0  0  0  0
   26.4061  -19.4695   -9.3028 C   0  0  0  0  0  0  0  0  0  0  0  0
   25.8103  -19.4101   -8.0529 C   0  0  0  0  0  0  0  0  0  0  0  0
   25.0129  -20.4439   -7.6282 C   0  0  0  0  0  0  0  0  0  0  0  0
   24.8177  -21.5217   -8.4502 C   0  0  0  0  0  0  0  0  0  0  0  0
   25.4206  -21.5692   -9.7012 C   0  0  0  0  0  0  0  0  0  0  0  0
   24.7220  -20.4025  -12.7642 C   0  0  0  0  0  0  0  0  0  0  0  0
   24.6260  -19.1808  -13.1476 O   0  0  0  0  0  0  0  0  0  0  0  0
   19.5943  -20.1855  -15.1591 N   0  0  0  0  0  0  0  0  0  0  0  0
   20.6402  -19.6286  -14.3872 C   0  0  0  0  0  0  0  0  0  0  0  0
   20.4594  -18.5327  -13.8053 O   0  0  0  0  0  0  0  0  0  0  0  0
   21.9540  -20.3584  -14.2736 C   0  0  0  0  0  0  0  0  0  0  0  0
   22.2404  -20.4222  -12.7873 C   0  0  2  0  0  0  0  0  0  0  0  0
   23.5000  -21.0717  -12.5141 N   0  0  0  0  0  0  0  0  0  0  0  0
   21.1614  -21.1175  -12.0557 C   0  0  0  0  0  0  0  0  0  0  0  0
   21.2776  -22.1771  -11.4062 O   0  0  0  0  0  0  0  0  0  0  0  0
   19.8786  -20.5339  -12.0902 O   0  0  0  0  0  0  0  0  0  0  0  0
  2  1  1  0
  2  3  1  0
  4  3  1  0
  5  4  1  0
  5  6  1  6
  7  5  1  0
  8  7  2  0
  9  7  1  0
 10  9  1  0
 10 11  1  1
 11 12  1  0
 12 17  2  0
 13 12  1  0
 13 14  2  0
 14 15  1  0
 15 16  2  0
 17 16  1  0
 18 25  1  0
 18 10  1  0
 19 18  2  0
 20 21  1  0
 21 22  2  0
 23 21  1  0
 24 23  1  6
 24 26  1  0
 24 25  1  0
 26 28  1  0
 27 26  2  0
M  END
$$$$
