MFN.pdb
     RDKit          3D

 28 28  0  0  1  0  0  0  0  0999 V2000
   31.3369  -17.9069  -17.0151 C   0  0  0  0  0  0  0  0  0  0  0  0
   31.3703  -19.4926  -17.8803 S   0  0  0  0  0  0  0  0  0  0  0  0
   29.6570  -20.0103  -18.1704 C   0  0  0  0  0  0  0  0  0  0  0  0
   29.1153  -20.5621  -16.8692 C   0  0  0  0  0  0  0  0  0  0  0  0
   27.6566  -20.9405  -17.0021 C   0  0  2  0  0  0  0  0  0  0  0  0
   26.8572  -19.8973  -17.5578 N   0  0  0  0  0  0  0  0  0  0  0  0
   27.1749  -21.2706  -15.6289 C   0  0  0  0  0  0  0  0  0  0  0  0
   27.6344  -22.2616  -14.9908 O   0  0  0  0  0  0  0  0  0  0  0  0
   26.1956  -20.5080  -14.9752 N   0  0  0  0  0  0  0  0  0  0  0  0
   25.6600  -20.8825  -13.6401 C   0  0  1  0  0  0  0  0  0  0  0  0
   26.2051  -19.8539  -12.7192 C   0  0  0  0  0  0  0  0  0  0  0  0
   26.8127  -20.3058  -11.4709 C   0  0  0  0  0  0  0  0  0  0  0  0
   26.1168  -20.2598  -10.2887 C   0  0  0  0  0  0  0  0  0  0  0  0
   26.6610  -20.6767   -9.0841 C   0  0  0  0  0  0  0  0  0  0  0  0
   27.9460  -21.1586   -9.0473 C   0  0  0  0  0  0  0  0  0  0  0  0
   28.6726  -21.2203  -10.2064 C   0  0  0  0  0  0  0  0  0  0  0  0
   28.1157  -20.7992  -11.4078 C   0  0  0  0  0  0  0  0  0  0  0  0
   24.2042  -21.0157  -13.7358 C   0  0  0  0  0  0  0  0  0  0  0  0
   23.6035  -20.3189  -14.6314 O   0  0  0  0  0  0  0  0  0  0  0  0
   19.5264  -23.6916  -14.3845 N   0  0  0  0  0  0  0  0  0  0  0  0
   19.9613  -23.2809  -13.1031 C   0  0  0  0  0  0  0  0  0  0  0  0
   19.1167  -22.8920  -12.2618 O   0  0  0  0  0  0  0  0  0  0  0  0
   21.4299  -23.3173  -12.7663 C   0  0  0  0  0  0  0  0  0  0  0  0
   21.9741  -21.9848  -13.2388 C   0  0  2  0  0  0  0  0  0  0  0  0
   23.3793  -21.8462  -12.9399 N   0  0  0  0  0  0  0  0  0  0  0  0
   21.2325  -20.8537  -12.6444 C   0  0  0  0  0  0  0  0  0  0  0  0
   20.0895  -20.4717  -12.9695 O   0  0  0  0  0  0  0  0  0  0  0  0
   21.8702  -20.1351  -11.6126 O   0  0  0  0  0  0  0  0  0  0  0  0
  2  1  1  0
  2  3  1  0
  4  3  1  0
  5  4  1  0
  5  6  1  1
  7  5  1  0
  8  7  2  0
  9  7  1  0
 10  9  1  0
 10 11  1  1
 11 12  1  0
 12 17  2  0
 13 12  1  0
 13 14  2  0
 14 15  1  0
 15 16  2  0
 17 16  1  0
 18 25  1  0
 18 10  1  0
 19 18  2  0
 20 21  1  0
 21 22  2  0
 23 21  1  0
 24 23  1  1
 24 26  1  0
 24 25  1  0
 26 28  1  0
 27 26  2  0
M  END
$$$$
