FLH.pdb
     RDKit          3D

 30 31  0  0  1  0  0  0  0  0999 V2000
   18.3630  -23.9618  -13.6374 N   0  0  0  0  0  0  0  0  0  0  0  0
   18.0864  -23.0236  -12.5716 C   0  0  1  0  0  0  0  0  0  0  0  0
   16.5927  -22.8978  -12.3557 C   0  0  0  0  0  0  0  0  0  0  0  0
   15.8876  -22.3029  -13.4966 C   0  0  0  0  0  0  0  0  0  0  0  0
   16.1274  -20.9888  -13.8396 C   0  0  0  0  0  0  0  0  0  0  0  0
   15.4735  -20.4377  -14.8971 C   0  0  0  0  0  0  0  0  0  0  0  0
   14.5618  -21.1782  -15.6443 C   0  0  0  0  0  0  0  0  0  0  0  0
   14.3163  -22.4913  -15.3088 C   0  0  0  0  0  0  0  0  0  0  0  0
   14.9884  -23.0270  -14.2366 C   0  0  0  0  0  0  0  0  0  0  0  0
   18.6731  -23.4578  -11.2816 C   0  0  0  0  0  0  0  0  0  0  0  0
   18.8485  -24.6850  -11.0721 O   0  0  0  0  0  0  0  0  0  0  0  0
   22.5169  -22.4750   -9.0036 C   0  0  0  0  0  0  0  0  0  0  0  0
   21.5079  -21.3297   -9.1842 C   0  0  2  0  0  0  0  0  0  0  0  0
   22.1597  -20.0958   -8.6447 C   0  0  0  0  0  0  0  0  0  0  0  0
   20.2800  -21.7371   -8.4405 C   0  0  0  0  0  0  0  0  0  0  0  0
   19.5589  -22.9269   -8.9788 C   0  0  2  0  0  0  0  0  0  0  0  0
   19.0384  -22.5346  -10.2864 N   0  0  0  0  0  0  0  0  0  0  0  0
   18.4467  -23.3435   -8.0879 C   0  0  0  0  0  0  0  0  0  0  0  0
   17.3708  -22.6600   -8.0101 O   0  0  0  0  0  0  0  0  0  0  0  0
   18.6127  -24.5286   -7.3209 N   0  0  0  0  0  0  0  0  0  0  0  0
   17.4923  -24.9646   -6.4889 C   0  0  1  0  0  0  0  0  0  0  0  0
   17.2043  -26.4243   -6.7506 C   0  0  0  0  0  0  0  0  0  0  0  0
   16.5090  -26.5535   -8.0524 C   0  0  0  0  0  0  0  0  0  0  0  0
   15.5038  -25.6584   -8.4383 C   0  0  0  0  0  0  0  0  0  0  0  0
   15.0766  -26.0315   -9.6432 N   0  0  0  0  0  0  0  0  0  0  0  0
   15.7754  -27.1064  -10.0001 C   0  0  0  0  0  0  0  0  0  0  0  0
   16.6424  -27.4307   -9.0488 N   0  0  0  0  0  0  0  0  0  0  0  0
   17.9334  -24.7895   -5.0839 C   0  0  0  0  0  0  0  0  0  0  0  0
   19.1012  -24.4153   -4.7634 O   0  0  0  0  0  0  0  0  0  0  0  0
   17.0879  -25.0255   -3.9879 O   0  0  0  0  0  0  0  0  0  0  0  0
  2 10  1  0
  2  3  1  0
  2  1  1  6
  3  4  1  0
  4  5  2  0
  4  9  1  0
  5  6  1  0
  6  7  2  0
  8  7  1  0
  9  8  2  0
 10 17  1  0
 11 10  2  0
 13 12  1  1
 14 13  1  0
 15 13  1  0
 16 15  1  1
 17 16  1  0
 18 20  1  0
 18 16  1  0
 19 18  2  0
 21 20  1  0
 21 28  1  0
 22 23  1  0
 21 22  1  1
 23 24  2  0
 24 25  1  0
 26 25  1  0
 27 23  1  0
 27 26  2  0
 28 30  1  0
 29 28  2  0
M  END
$$$$
