FLH.pdb
     RDKit          3D

 30 31  0  0  1  0  0  0  0  0999 V2000
   27.6211  -21.5000  -15.6543 N   0  0  0  0  0  0  0  0  0  0  0  0
   27.5063  -20.5308  -14.5865 C   0  0  1  0  0  0  0  0  0  0  0  0
   26.8655  -19.2575  -15.0982 C   0  0  0  0  0  0  0  0  0  0  0  0
   27.6567  -18.5828  -16.1333 C   0  0  0  0  0  0  0  0  0  0  0  0
   27.2394  -18.6211  -17.4472 C   0  0  0  0  0  0  0  0  0  0  0  0
   27.9732  -17.9957  -18.4063 C   0  0  0  0  0  0  0  0  0  0  0  0
   29.1438  -17.3138  -18.0861 C   0  0  0  0  0  0  0  0  0  0  0  0
   29.5680  -17.2706  -16.7764 C   0  0  0  0  0  0  0  0  0  0  0  0
   28.8107  -17.9095  -15.8243 C   0  0  0  0  0  0  0  0  0  0  0  0
   26.6576  -21.0240  -13.4760 C   0  0  0  0  0  0  0  0  0  0  0  0
   25.7486  -21.8562  -13.7245 O   0  0  0  0  0  0  0  0  0  0  0  0
   26.6622  -19.9397   -7.4581 C   0  0  0  0  0  0  0  0  0  0  0  0
   25.7682  -20.5012   -8.5751 C   0  0  2  0  0  0  0  0  0  0  0  0
   25.2940  -21.8421   -8.1108 C   0  0  0  0  0  0  0  0  0  0  0  0
   26.6183  -20.5536   -9.8004 C   0  0  0  0  0  0  0  0  0  0  0  0
   25.9096  -20.8894  -11.0694 C   0  0  2  0  0  0  0  0  0  0  0  0
   26.8418  -20.5865  -12.1528 N   0  0  0  0  0  0  0  0  0  0  0  0
   24.6639  -20.0974  -11.2280 C   0  0  0  0  0  0  0  0  0  0  0  0
   24.7007  -18.8282  -11.3644 O   0  0  0  0  0  0  0  0  0  0  0  0
   23.4244  -20.7929  -11.2238 N   0  0  0  0  0  0  0  0  0  0  0  0
   22.3364  -20.2519  -12.0370 C   0  0  1  0  0  0  0  0  0  0  0  0
   22.7188  -20.3077  -13.4974 C   0  0  0  0  0  0  0  0  0  0  0  0
   21.5636  -19.8716  -14.3161 C   0  0  0  0  0  0  0  0  0  0  0  0
   20.3646  -19.4522  -13.7269 C   0  0  0  0  0  0  0  0  0  0  0  0
   19.5274  -19.1278  -14.7103 N   0  0  0  0  0  0  0  0  0  0  0  0
   20.1641  -19.3316  -15.8611 C   0  0  0  0  0  0  0  0  0  0  0  0
   21.3929  -19.7802  -15.6361 N   0  0  0  0  0  0  0  0  0  0  0  0
   21.1680  -21.1327  -11.7955 C   0  0  0  0  0  0  0  0  0  0  0  0
   21.2163  -22.3951  -11.8968 O   0  0  0  0  0  0  0  0  0  0  0  0
   19.9056  -20.6363  -11.4327 O   0  0  0  0  0  0  0  0  0  0  0  0
  2 10  1  0
  2  3  1  0
  2  1  1  6
  3  4  1  0
  4  5  2  0
  4  9  1  0
  5  6  1  0
  6  7  2  0
  8  7  1  0
  9  8  2  0
 10 17  1  0
 11 10  2  0
 13 12  1  1
 14 13  1  0
 15 13  1  0
 16 15  1  1
 17 16  1  0
 18 20  1  0
 18 16  1  0
 19 18  2  0
 21 20  1  0
 21 28  1  0
 22 23  1  0
 21 22  1  6
 23 24  2  0
 24 25  1  0
 26 25  1  0
 27 23  1  0
 27 26  2  0
 28 30  1  0
 29 28  2  0
M  END
$$$$
