FLH.pdb
     RDKit          3D

 30 31  0  0  1  0  0  0  0  0999 V2000
   26.6039  -18.3877   -7.9929 N   0  0  0  0  0  0  0  0  0  0  0  0
   27.0472  -19.5877   -8.6683 C   0  0  1  0  0  0  0  0  0  0  0  0
   27.0529  -20.7598   -7.7092 C   0  0  0  0  0  0  0  0  0  0  0  0
   27.9678  -20.5804   -6.5762 C   0  0  0  0  0  0  0  0  0  0  0  0
   27.4642  -20.5132   -5.2941 C   0  0  0  0  0  0  0  0  0  0  0  0
   28.3127  -20.3468   -4.2442 C   0  0  0  0  0  0  0  0  0  0  0  0
   29.6870  -20.2424   -4.4396 C   0  0  0  0  0  0  0  0  0  0  0  0
   30.1984  -20.3086   -5.7167 C   0  0  0  0  0  0  0  0  0  0  0  0
   29.3225  -20.4770   -6.7620 C   0  0  0  0  0  0  0  0  0  0  0  0
   26.1543  -19.9556   -9.7927 C   0  0  0  0  0  0  0  0  0  0  0  0
   24.9612  -19.5598   -9.7806 O   0  0  0  0  0  0  0  0  0  0  0  0
   27.8211  -19.0813  -14.0727 C   0  0  0  0  0  0  0  0  0  0  0  0
   28.3222  -20.3595  -13.3817 C   0  0  2  0  0  0  0  0  0  0  0  0
   29.3132  -20.9878  -14.3099 C   0  0  0  0  0  0  0  0  0  0  0  0
   27.1132  -21.1983  -13.1332 C   0  0  0  0  0  0  0  0  0  0  0  0
   26.0845  -20.6046  -12.2307 C   0  0  2  0  0  0  0  0  0  0  0  0
   26.6058  -20.7350  -10.8720 N   0  0  0  0  0  0  0  0  0  0  0  0
   24.7809  -21.3049  -12.3494 C   0  0  0  0  0  0  0  0  0  0  0  0
   24.6339  -22.5029  -11.9322 O   0  0  0  0  0  0  0  0  0  0  0  0
   23.6965  -20.6030  -12.9423 N   0  0  0  0  0  0  0  0  0  0  0  0
   22.3609  -21.1859  -12.8238 C   0  0  1  0  0  0  0  0  0  0  0  0
   21.6544  -20.5953  -11.6262 C   0  0  0  0  0  0  0  0  0  0  0  0
   20.2638  -21.1047  -11.5861 C   0  0  0  0  0  0  0  0  0  0  0  0
   19.9373  -22.3817  -12.0587 C   0  0  0  0  0  0  0  0  0  0  0  0
   18.6268  -22.5477  -11.8907 N   0  0  0  0  0  0  0  0  0  0  0  0
   18.1498  -21.4337  -11.3407 C   0  0  0  0  0  0  0  0  0  0  0  0
   19.1277  -20.5561  -11.1522 N   0  0  0  0  0  0  0  0  0  0  0  0
   21.6383  -20.8085  -14.0626 C   0  0  0  0  0  0  0  0  0  0  0  0
   21.8812  -19.7486  -14.7137 O   0  0  0  0  0  0  0  0  0  0  0  0
   20.6200  -21.5998  -14.6182 O   0  0  0  0  0  0  0  0  0  0  0  0
  2 10  1  0
  2  3  1  0
  2  1  1  1
  3  4  1  0
  4  5  2  0
  4  9  1  0
  5  6  1  0
  6  7  2  0
  8  7  1  0
  9  8  2  0
 10 17  1  0
 11 10  2  0
 13 12  1  6
 14 13  1  0
 15 13  1  0
 16 15  1  6
 17 16  1  0
 18 20  1  0
 18 16  1  0
 19 18  2  0
 21 20  1  0
 21 28  1  0
 22 23  1  0
 21 22  1  1
 23 24  2  0
 24 25  1  0
 26 25  1  0
 27 23  1  0
 27 26  2  0
 28 30  1  0
 29 28  2  0
M  END
$$$$
