FLH.pdb
     RDKit          3D

 30 31  0  0  1  0  0  0  0  0999 V2000
   20.2314  -13.4967    9.0635 N   0  0  0  0  0  0  0  0  0  0  0  0
   19.3520  -14.4986    8.5018 C   0  0  1  0  0  0  0  0  0  0  0  0
   19.7887  -14.8533    7.0957 C   0  0  0  0  0  0  0  0  0  0  0  0
   19.7040  -13.7277    6.1584 C   0  0  0  0  0  0  0  0  0  0  0  0
   18.5871  -13.5826    5.3624 C   0  0  0  0  0  0  0  0  0  0  0  0
   18.5092  -12.5392    4.4936 C   0  0  0  0  0  0  0  0  0  0  0  0
   19.5403  -11.6096    4.3915 C   0  0  0  0  0  0  0  0  0  0  0  0
   20.6594  -11.7469    5.1826 C   0  0  0  0  0  0  0  0  0  0  0  0
   20.7163  -12.8087    6.0530 C   0  0  0  0  0  0  0  0  0  0  0  0
   19.3664  -15.7554    9.2873 C   0  0  0  0  0  0  0  0  0  0  0  0
   20.4596  -16.1814    9.7389 O   0  0  0  0  0  0  0  0  0  0  0  0
   16.0215  -18.2752   13.3882 C   0  0  0  0  0  0  0  0  0  0  0  0
   17.0516  -18.7087   12.3330 C   0  0  2  0  0  0  0  0  0  0  0  0
   18.3111  -19.0332   13.0723 C   0  0  0  0  0  0  0  0  0  0  0  0
   17.1858  -17.5616   11.3881 C   0  0  0  0  0  0  0  0  0  0  0  0
   18.1698  -17.7426   10.2817 C   0  0  2  0  0  0  0  0  0  0  0  0
   18.1909  -16.4835    9.5409 N   0  0  0  0  0  0  0  0  0  0  0  0
   17.7854  -18.8601    9.3831 C   0  0  0  0  0  0  0  0  0  0  0  0
   16.9067  -18.7016    8.4701 O   0  0  0  0  0  0  0  0  0  0  0  0
   18.4244  -20.1162    9.5674 N   0  0  0  0  0  0  0  0  0  0  0  0
   18.0487  -21.2100    8.6728 C   0  0  1  0  0  0  0  0  0  0  0  0
   18.8889  -21.1507    7.4188 C   0  0  0  0  0  0  0  0  0  0  0  0
   18.5259  -22.2871    6.5401 C   0  0  0  0  0  0  0  0  0  0  0  0
   17.5153  -23.1906    6.8906 C   0  0  0  0  0  0  0  0  0  0  0  0
   17.4244  -24.0890    5.9119 N   0  0  0  0  0  0  0  0  0  0  0  0
   18.3305  -23.7698    4.9908 C   0  0  0  0  0  0  0  0  0  0  0  0
   19.0010  -22.6849    5.3586 N   0  0  0  0  0  0  0  0  0  0  0  0
   18.3449  -22.4620    9.4104 C   0  0  0  0  0  0  0  0  0  0  0  0
   19.1636  -22.5230   10.3760 O   0  0  0  0  0  0  0  0  0  0  0  0
   17.7384  -23.6891    9.0969 O   0  0  0  0  0  0  0  0  0  0  0  0
  2 10  1  0
  2  3  1  0
  2  1  1  1
  3  4  1  0
  4  5  2  0
  4  9  1  0
  5  6  1  0
  6  7  2  0
  8  7  1  0
  9  8  2  0
 10 17  1  0
 11 10  2  0
 13 12  1  1
 14 13  1  0
 15 13  1  0
 16 15  1  1
 17 16  1  0
 18 20  1  0
 18 16  1  0
 19 18  2  0
 21 20  1  0
 21 28  1  0
 22 23  1  0
 21 22  1  6
 23 24  2  0
 24 25  1  0
 26 25  1  0
 27 23  1  0
 27 26  2  0
 28 30  1  0
 29 28  2  0
M  END
$$$$
