FLH.pdb
     RDKit          3D

 30 31  0  0  1  0  0  0  0  0999 V2000
   20.1567  -12.7900  -17.1629 N   0  0  0  0  0  0  0  0  0  0  0  0
   20.8473  -11.6840  -17.7893 C   0  0  1  0  0  0  0  0  0  0  0  0
   19.8583  -10.7729  -18.4861 C   0  0  0  0  0  0  0  0  0  0  0  0
   19.1278  -11.4309  -19.5752 C   0  0  0  0  0  0  0  0  0  0  0  0
   19.8129  -11.8832  -20.6833 C   0  0  0  0  0  0  0  0  0  0  0  0
   19.1354  -12.4930  -21.6926 C   0  0  0  0  0  0  0  0  0  0  0  0
   17.7562  -12.6706  -21.6287 C   0  0  0  0  0  0  0  0  0  0  0  0
   17.0640  -12.2219  -20.5257 C   0  0  0  0  0  0  0  0  0  0  0  0
   17.7693  -11.6089  -19.5182 C   0  0  0  0  0  0  0  0  0  0  0  0
   21.5773  -10.8530  -16.8027 C   0  0  0  0  0  0  0  0  0  0  0  0
   21.0804  -10.6822  -15.6606 O   0  0  0  0  0  0  0  0  0  0  0  0
   27.2888   -9.7220  -16.2923 C   0  0  0  0  0  0  0  0  0  0  0  0
   25.9175   -9.7188  -15.5982 C   0  0  2  0  0  0  0  0  0  0  0  0
   25.7034  -11.1008  -15.0666 C   0  0  0  0  0  0  0  0  0  0  0  0
   24.9270   -9.3126  -16.6377 C   0  0  0  0  0  0  0  0  0  0  0  0
   23.4971   -9.3245  -16.2129 C   0  0  2  0  0  0  0  0  0  0  0  0
   22.8100  -10.2510  -17.1097 N   0  0  0  0  0  0  0  0  0  0  0  0
   22.8865   -7.9743  -16.3043 C   0  0  0  0  0  0  0  0  0  0  0  0
   22.6986   -7.4091  -17.4339 O   0  0  0  0  0  0  0  0  0  0  0  0
   22.5154   -7.3253  -15.0955 N   0  0  0  0  0  0  0  0  0  0  0  0
   21.9866   -5.9652  -15.1866 C   0  0  1  0  0  0  0  0  0  0  0  0
   20.6037   -5.9172  -14.5804 C   0  0  0  0  0  0  0  0  0  0  0  0
   19.6136   -6.3278  -15.6032 C   0  0  0  0  0  0  0  0  0  0  0  0
   20.0042   -6.6835  -16.8999 C   0  0  0  0  0  0  0  0  0  0  0  0
   18.9021   -6.9996  -17.5773 N   0  0  0  0  0  0  0  0  0  0  0  0
   17.8689   -6.8514  -16.7517 C   0  0  0  0  0  0  0  0  0  0  0  0
   18.2855   -6.4465  -15.5582 N   0  0  0  0  0  0  0  0  0  0  0  0
   22.9065   -5.1145  -14.3932 C   0  0  0  0  0  0  0  0  0  0  0  0
   22.7527   -3.8640  -14.2562 O   0  0  0  0  0  0  0  0  0  0  0  0
   24.0296   -5.6288  -13.7254 O   0  0  0  0  0  0  0  0  0  0  0  0
  2 10  1  0
  2  3  1  0
  2  1  1  1
  3  4  1  0
  4  5  2  0
  4  9  1  0
  5  6  1  0
  6  7  2  0
  8  7  1  0
  9  8  2  0
 10 17  1  0
 11 10  2  0
 13 12  1  6
 14 13  1  0
 15 13  1  0
 16 15  1  6
 17 16  1  0
 18 20  1  0
 18 16  1  0
 19 18  2  0
 21 20  1  0
 21 28  1  0
 22 23  1  0
 21 22  1  1
 23 24  2  0
 24 25  1  0
 26 25  1  0
 27 23  1  0
 27 26  2  0
 28 30  1  0
 29 28  2  0
M  END
$$$$
