FLH.pdb
     RDKit          3D

 30 31  0  0  1  0  0  0  0  0999 V2000
   27.3871  -19.5783  -15.7331 N   0  0  0  0  0  0  0  0  0  0  0  0
   26.6193  -19.0189  -14.6421 C   0  0  1  0  0  0  0  0  0  0  0  0
   25.6635  -17.9635  -15.1580 C   0  0  0  0  0  0  0  0  0  0  0  0
   26.3379  -16.7528  -15.6398 C   0  0  0  0  0  0  0  0  0  0  0  0
   26.8226  -15.8330  -14.7338 C   0  0  0  0  0  0  0  0  0  0  0  0
   27.4476  -14.7109  -15.1808 C   0  0  0  0  0  0  0  0  0  0  0  0
   27.6085  -14.4712  -16.5426 C   0  0  0  0  0  0  0  0  0  0  0  0
   27.1275  -15.3846  -17.4544 C   0  0  0  0  0  0  0  0  0  0  0  0
   26.4996  -16.5110  -16.9799 C   0  0  0  0  0  0  0  0  0  0  0  0
   25.7986  -20.0447  -13.9557 C   0  0  0  0  0  0  0  0  0  0  0  0
   25.4060  -21.0477  -14.6041 O   0  0  0  0  0  0  0  0  0  0  0  0
   27.1550  -22.0224  -10.8916 C   0  0  0  0  0  0  0  0  0  0  0  0
   26.5142  -20.7675  -10.2776 C   0  0  2  0  0  0  0  0  0  0  0  0
   26.9189  -20.7410   -8.8375 C   0  0  0  0  0  0  0  0  0  0  0  0
   25.0434  -20.9071  -10.4879 C   0  0  0  0  0  0  0  0  0  0  0  0
   24.5843  -20.8798  -11.9069 C   0  0  2  0  0  0  0  0  0  0  0  0
   25.4478  -19.9263  -12.5996 N   0  0  0  0  0  0  0  0  0  0  0  0
   23.1646  -20.4595  -12.0160 C   0  0  0  0  0  0  0  0  0  0  0  0
   22.7485  -19.3868  -11.4618 O   0  0  0  0  0  0  0  0  0  0  0  0
   22.2775  -21.2867  -12.7569 N   0  0  0  0  0  0  0  0  0  0  0  0
   21.0882  -20.6639  -13.3360 C   0  0  1  0  0  0  0  0  0  0  0  0
   21.5005  -19.6849  -14.4102 C   0  0  0  0  0  0  0  0  0  0  0  0
   20.2870  -19.1737  -15.0893 C   0  0  0  0  0  0  0  0  0  0  0  0
   19.0028  -19.5425  -14.6706 C   0  0  0  0  0  0  0  0  0  0  0  0
   18.1303  -18.9286  -15.4676 N   0  0  0  0  0  0  0  0  0  0  0  0
   18.8269  -18.2093  -16.3443 C   0  0  0  0  0  0  0  0  0  0  0  0
   20.1287  -18.3492  -16.1261 N   0  0  0  0  0  0  0  0  0  0  0  0
   20.3035  -21.7661  -13.9432 C   0  0  0  0  0  0  0  0  0  0  0  0
   19.0374  -21.8160  -13.9145 O   0  0  0  0  0  0  0  0  0  0  0  0
   20.9034  -22.8506  -14.6033 O   0  0  0  0  0  0  0  0  0  0  0  0
  2 10  1  0
  2  3  1  0
  2  1  1  6
  3  4  1  0
  4  5  2  0
  4  9  1  0
  5  6  1  0
  6  7  2  0
  8  7  1  0
  9  8  2  0
 10 17  1  0
 11 10  2  0
 13 12  1  6
 14 13  1  0
 15 13  1  0
 16 15  1  1
 17 16  1  0
 18 20  1  0
 18 16  1  0
 19 18  2  0
 21 20  1  0
 21 28  1  0
 22 23  1  0
 21 22  1  6
 23 24  2  0
 24 25  1  0
 26 25  1  0
 27 23  1  0
 27 26  2  0
 28 30  1  0
 29 28  2  0
M  END
$$$$
