FLH.pdb
     RDKit          3D

 30 31  0  0  1  0  0  0  0  0999 V2000
   23.0039   -7.9080  -19.1051 N   0  0  0  0  0  0  0  0  0  0  0  0
   23.0324   -9.2946  -18.6936 C   0  0  1  0  0  0  0  0  0  0  0  0
   22.3724  -10.1678  -19.7403 C   0  0  0  0  0  0  0  0  0  0  0  0
   20.9509   -9.8640  -19.9398 C   0  0  0  0  0  0  0  0  0  0  0  0
   20.0249  -10.2786  -19.0057 C   0  0  0  0  0  0  0  0  0  0  0  0
   18.7074   -9.9968  -19.1911 C   0  0  0  0  0  0  0  0  0  0  0  0
   18.2728   -9.2942  -20.3115 C   0  0  0  0  0  0  0  0  0  0  0  0
   19.1908   -8.8763  -21.2494 C   0  0  0  0  0  0  0  0  0  0  0  0
   20.5165   -9.1722  -21.0413 C   0  0  0  0  0  0  0  0  0  0  0  0
   24.4167   -9.7966  -18.5244 C   0  0  0  0  0  0  0  0  0  0  0  0
   25.3561   -9.2122  -19.1214 O   0  0  0  0  0  0  0  0  0  0  0  0
   27.1453   -9.2125  -15.8954 C   0  0  0  0  0  0  0  0  0  0  0  0
   26.0965  -10.1746  -15.3151 C   0  0  2  0  0  0  0  0  0  0  0  0
   26.3619  -10.2615  -13.8453 C   0  0  0  0  0  0  0  0  0  0  0  0
   26.2751  -11.4682  -16.0374 C   0  0  0  0  0  0  0  0  0  0  0  0
   26.0592  -11.4240  -17.5127 C   0  0  2  0  0  0  0  0  0  0  0  0
   24.7071  -10.9083  -17.7145 N   0  0  0  0  0  0  0  0  0  0  0  0
   26.1923  -12.7690  -18.1270 C   0  0  0  0  0  0  0  0  0  0  0  0
   27.2849  -13.4256  -18.0497 O   0  0  0  0  0  0  0  0  0  0  0  0
   25.0661  -13.3082  -18.8062 N   0  0  0  0  0  0  0  0  0  0  0  0
   25.1945  -14.6449  -19.3845 C   0  0  1  0  0  0  0  0  0  0  0  0
   25.8946  -15.5564  -18.4041 C   0  0  0  0  0  0  0  0  0  0  0  0
   26.0562  -16.8944  -19.0194 C   0  0  0  0  0  0  0  0  0  0  0  0
   25.6184  -17.1593  -20.3227 C   0  0  0  0  0  0  0  0  0  0  0  0
   25.8992  -18.4337  -20.5881 N   0  0  0  0  0  0  0  0  0  0  0  0
   26.4841  -18.9474  -19.5086 C   0  0  0  0  0  0  0  0  0  0  0  0
   26.5843  -18.0286  -18.5559 N   0  0  0  0  0  0  0  0  0  0  0  0
   23.8106  -15.1277  -19.6104 C   0  0  0  0  0  0  0  0  0  0  0  0
   22.7811  -14.4682  -19.2765 O   0  0  0  0  0  0  0  0  0  0  0  0
   23.5269  -16.3622  -20.2164 O   0  0  0  0  0  0  0  0  0  0  0  0
  2 10  1  0
  2  3  1  0
  2  1  1  6
  3  4  1  0
  4  5  2  0
  4  9  1  0
  5  6  1  0
  6  7  2  0
  8  7  1  0
  9  8  2  0
 10 17  1  0
 11 10  2  0
 13 12  1  6
 14 13  1  0
 15 13  1  0
 16 15  1  1
 17 16  1  0
 18 20  1  0
 18 16  1  0
 19 18  2  0
 21 20  1  0
 21 28  1  0
 22 23  1  0
 21 22  1  1
 23 24  2  0
 24 25  1  0
 26 25  1  0
 27 23  1  0
 27 26  2  0
 28 30  1  0
 29 28  2  0
M  END
$$$$
