FLH.pdb
     RDKit          3D

 30 31  0  0  1  0  0  0  0  0999 V2000
   27.7907  -21.0407  -16.0720 N   0  0  0  0  0  0  0  0  0  0  0  0
   27.6186  -22.1009  -17.0410 C   0  0  1  0  0  0  0  0  0  0  0  0
   28.9301  -22.3930  -17.7399 C   0  0  0  0  0  0  0  0  0  0  0  0
   29.3840  -21.2997  -18.6067 C   0  0  0  0  0  0  0  0  0  0  0  0
   30.6882  -20.8587  -18.5259 C   0  0  0  0  0  0  0  0  0  0  0  0
   31.1084  -19.8451  -19.3295 C   0  0  0  0  0  0  0  0  0  0  0  0
   30.2430  -19.2407  -20.2370 C   0  0  0  0  0  0  0  0  0  0  0  0
   28.9388  -19.6748  -20.3243 C   0  0  0  0  0  0  0  0  0  0  0  0
   28.5365  -20.7001  -19.5027 C   0  0  0  0  0  0  0  0  0  0  0  0
   27.1762  -23.3664  -16.4088 C   0  0  0  0  0  0  0  0  0  0  0  0
   27.5534  -23.6297  -15.2388 O   0  0  0  0  0  0  0  0  0  0  0  0
   23.6741  -24.9711  -14.4884 C   0  0  0  0  0  0  0  0  0  0  0  0
   23.5351  -24.5513  -15.9604 C   0  0  2  0  0  0  0  0  0  0  0  0
   22.0753  -24.6010  -16.2840 C   0  0  0  0  0  0  0  0  0  0  0  0
   24.3599  -25.5149  -16.7466 C   0  0  0  0  0  0  0  0  0  0  0  0
   25.8247  -25.4971  -16.4653 C   0  0  2  0  0  0  0  0  0  0  0  0
   26.3465  -24.2798  -17.0822 N   0  0  0  0  0  0  0  0  0  0  0  0
   26.5058  -26.6901  -17.0283 C   0  0  0  0  0  0  0  0  0  0  0  0
   27.2358  -26.6030  -18.0725 O   0  0  0  0  0  0  0  0  0  0  0  0
   26.3227  -27.9369  -16.3708 N   0  0  0  0  0  0  0  0  0  0  0  0
   27.1030  -29.0788  -16.8451 C   0  0  1  0  0  0  0  0  0  0  0  0
   28.0870  -29.4986  -15.7785 C   0  0  0  0  0  0  0  0  0  0  0  0
   28.7686  -30.7405  -16.2121 C   0  0  0  0  0  0  0  0  0  0  0  0
   29.7957  -30.7187  -17.1635 C   0  0  0  0  0  0  0  0  0  0  0  0
   30.2025  -31.9741  -17.3422 N   0  0  0  0  0  0  0  0  0  0  0  0
   29.4706  -32.7489  -16.5452 C   0  0  0  0  0  0  0  0  0  0  0  0
   28.6023  -32.0162  -15.8587 N   0  0  0  0  0  0  0  0  0  0  0  0
   26.1282  -30.1716  -17.0793 C   0  0  0  0  0  0  0  0  0  0  0  0
   24.9518  -30.1667  -16.6079 O   0  0  0  0  0  0  0  0  0  0  0  0
   26.4315  -31.3074  -17.8473 O   0  0  0  0  0  0  0  0  0  0  0  0
  2 10  1  0
  2  3  1  0
  2  1  1  1
  3  4  1  0
  4  5  2  0
  4  9  1  0
  5  6  1  0
  6  7  2  0
  8  7  1  0
  9  8  2  0
 10 17  1  0
 11 10  2  0
 13 12  1  1
 14 13  1  0
 15 13  1  0
 16 15  1  6
 17 16  1  0
 18 20  1  0
 18 16  1  0
 19 18  2  0
 21 20  1  0
 21 28  1  0
 22 23  1  0
 21 22  1  1
 23 24  2  0
 24 25  1  0
 26 25  1  0
 27 23  1  0
 27 26  2  0
 28 30  1  0
 29 28  2  0
M  END
$$$$
