FLH.pdb
     RDKit          3D

 30 31  0  0  1  0  0  0  0  0999 V2000
   22.0694  -29.7148    6.5903 N   0  0  0  0  0  0  0  0  0  0  0  0
   21.6870  -30.5965    5.5090 C   0  0  1  0  0  0  0  0  0  0  0  0
   21.5655  -29.8197    4.2146 C   0  0  0  0  0  0  0  0  0  0  0  0
   20.5999  -28.7173    4.2856 C   0  0  0  0  0  0  0  0  0  0  0  0
   21.0509  -27.4159    4.3554 C   0  0  0  0  0  0  0  0  0  0  0  0
   20.1554  -26.3945    4.4214 C   0  0  0  0  0  0  0  0  0  0  0  0
   18.7849  -26.6381    4.4199 C   0  0  0  0  0  0  0  0  0  0  0  0
   18.3257  -27.9348    4.3505 C   0  0  0  0  0  0  0  0  0  0  0  0
   19.2485  -28.9507    4.2846 C   0  0  0  0  0  0  0  0  0  0  0  0
   22.6904  -31.6628    5.2789 C   0  0  0  0  0  0  0  0  0  0  0  0
   22.4846  -32.5108    4.3738 O   0  0  0  0  0  0  0  0  0  0  0  0
   26.7442  -32.4134    3.4504 C   0  0  0  0  0  0  0  0  0  0  0  0
   26.5095  -31.3137    4.4982 C   0  0  2  0  0  0  0  0  0  0  0  0
   27.7611  -30.4956    4.5481 C   0  0  0  0  0  0  0  0  0  0  0  0
   26.1983  -32.0179    5.7765 C   0  0  0  0  0  0  0  0  0  0  0  0
   24.9019  -32.7549    5.8137 C   0  0  2  0  0  0  0  0  0  0  0  0
   23.8656  -31.7514    6.0452 N   0  0  0  0  0  0  0  0  0  0  0  0
   24.8806  -33.7730    6.8940 C   0  0  0  0  0  0  0  0  0  0  0  0
   25.6418  -34.7975    6.8517 O   0  0  0  0  0  0  0  0  0  0  0  0
   23.9865  -33.5756    7.9811 N   0  0  0  0  0  0  0  0  0  0  0  0
   23.9946  -34.5640    9.0585 C   0  0  1  0  0  0  0  0  0  0  0  0
   24.3333  -33.8864   10.3655 C   0  0  0  0  0  0  0  0  0  0  0  0
   25.7523  -33.4614   10.3357 C   0  0  0  0  0  0  0  0  0  0  0  0
   26.7773  -34.3530    9.9966 C   0  0  0  0  0  0  0  0  0  0  0  0
   27.9269  -33.6839   10.0591 N   0  0  0  0  0  0  0  0  0  0  0  0
   27.6432  -32.4344   10.4190 C   0  0  0  0  0  0  0  0  0  0  0  0
   26.3348  -32.2882   10.5887 N   0  0  0  0  0  0  0  0  0  0  0  0
   22.6171  -35.1092    9.1241 C   0  0  0  0  0  0  0  0  0  0  0  0
   21.7165  -34.8265    8.2783 O   0  0  0  0  0  0  0  0  0  0  0  0
   22.1961  -35.9884   10.1348 O   0  0  0  0  0  0  0  0  0  0  0  0
  2 10  1  0
  2  3  1  0
  2  1  1  1
  3  4  1  0
  4  5  2  0
  4  9  1  0
  5  6  1  0
  6  7  2  0
  8  7  1  0
  9  8  2  0
 10 17  1  0
 11 10  2  0
 13 12  1  6
 14 13  1  0
 15 13  1  0
 16 15  1  1
 17 16  1  0
 18 20  1  0
 18 16  1  0
 19 18  2  0
 21 20  1  0
 21 28  1  0
 22 23  1  0
 21 22  1  1
 23 24  2  0
 24 25  1  0
 26 25  1  0
 27 23  1  0
 27 26  2  0
 28 30  1  0
 29 28  2  0
M  END
$$$$
