FLH.pdb
     RDKit          3D

 30 31  0  0  1  0  0  0  0  0999 V2000
   27.0785  -18.4099   -8.2245 N   0  0  0  0  0  0  0  0  0  0  0  0
   27.1314  -19.7884   -8.6602 C   0  0  1  0  0  0  0  0  0  0  0  0
   26.7526  -20.7145   -7.5232 C   0  0  0  0  0  0  0  0  0  0  0  0
   27.6048  -20.5610   -6.3388 C   0  0  0  0  0  0  0  0  0  0  0  0
   27.0311  -20.3009   -5.1120 C   0  0  0  0  0  0  0  0  0  0  0  0
   27.8215  -20.1586   -4.0144 C   0  0  0  0  0  0  0  0  0  0  0  0
   29.2059  -20.2709   -4.1055 C   0  0  0  0  0  0  0  0  0  0  0  0
   29.7874  -20.5305   -5.3268 C   0  0  0  0  0  0  0  0  0  0  0  0
   28.9693  -20.6705   -6.4220 C   0  0  0  0  0  0  0  0  0  0  0  0
   26.1856  -20.0584   -9.7690 C   0  0  0  0  0  0  0  0  0  0  0  0
   25.0068  -19.6295   -9.6851 O   0  0  0  0  0  0  0  0  0  0  0  0
   27.6352  -18.8944  -13.9548 C   0  0  0  0  0  0  0  0  0  0  0  0
   28.1501  -20.2435  -13.4283 C   0  0  2  0  0  0  0  0  0  0  0  0
   29.0968  -20.7723  -14.4590 C   0  0  0  0  0  0  0  0  0  0  0  0
   26.9434  -21.0972  -13.2237 C   0  0  0  0  0  0  0  0  0  0  0  0
   25.9556  -20.5975  -12.2238 C   0  0  2  0  0  0  0  0  0  0  0  0
   26.5713  -20.7809  -10.9115 N   0  0  0  0  0  0  0  0  0  0  0  0
   24.6744  -21.3440  -12.2982 C   0  0  0  0  0  0  0  0  0  0  0  0
   24.5873  -22.5498  -11.8870 O   0  0  0  0  0  0  0  0  0  0  0  0
   23.5429  -20.6772  -12.8417 N   0  0  0  0  0  0  0  0  0  0  0  0
   22.2350  -21.3095  -12.6770 C   0  0  1  0  0  0  0  0  0  0  0  0
   21.3494  -20.4288  -11.8272 C   0  0  0  0  0  0  0  0  0  0  0  0
   20.0011  -21.0372  -11.7432 C   0  0  0  0  0  0  0  0  0  0  0  0
   19.7097  -22.2608  -12.3584 C   0  0  0  0  0  0  0  0  0  0  0  0
   18.4322  -22.5407  -12.1076 N   0  0  0  0  0  0  0  0  0  0  0  0
   17.9418  -21.5458  -11.3721 C   0  0  0  0  0  0  0  0  0  0  0  0
   18.8787  -20.6331  -11.1459 N   0  0  0  0  0  0  0  0  0  0  0  0
   21.6611  -21.4236  -14.0397 C   0  0  0  0  0  0  0  0  0  0  0  0
   21.8943  -20.5887  -14.9644 O   0  0  0  0  0  0  0  0  0  0  0  0
   20.8075  -22.4723  -14.4184 O   0  0  0  0  0  0  0  0  0  0  0  0
  2 10  1  0
  2  3  1  0
  2  1  1  1
  3  4  1  0
  4  5  2  0
  4  9  1  0
  5  6  1  0
  6  7  2  0
  8  7  1  0
  9  8  2  0
 10 17  1  0
 11 10  2  0
 13 12  1  6
 14 13  1  0
 15 13  1  0
 16 15  1  6
 17 16  1  0
 18 20  1  0
 18 16  1  0
 19 18  2  0
 21 20  1  0
 21 28  1  0
 22 23  1  0
 21 22  1  1
 23 24  2  0
 24 25  1  0
 26 25  1  0
 27 23  1  0
 27 26  2  0
 28 30  1  0
 29 28  2  0
M  END
$$$$
