FLH.pdb
     RDKit          3D

 30 31  0  0  1  0  0  0  0  0999 V2000
   21.2415  -13.0651  -19.4088 N   0  0  0  0  0  0  0  0  0  0  0  0
   22.0241  -11.8624  -19.5923 C   0  0  1  0  0  0  0  0  0  0  0  0
   21.4576  -11.0337  -20.7263 C   0  0  0  0  0  0  0  0  0  0  0  0
   21.6067  -11.6673  -22.0413 C   0  0  0  0  0  0  0  0  0  0  0  0
   20.5301  -12.3072  -22.6186 C   0  0  0  0  0  0  0  0  0  0  0  0
   20.6688  -12.8945  -23.8374 C   0  0  0  0  0  0  0  0  0  0  0  0
   21.8831  -12.8622  -24.5174 C   0  0  0  0  0  0  0  0  0  0  0  0
   22.9635  -12.2253  -23.9481 C   0  0  0  0  0  0  0  0  0  0  0  0
   22.8001  -11.6390  -22.7161 C   0  0  0  0  0  0  0  0  0  0  0  0
   22.0153  -11.0030  -18.3847 C   0  0  0  0  0  0  0  0  0  0  0  0
   20.9963  -10.9935  -17.6486 O   0  0  0  0  0  0  0  0  0  0  0  0
   24.5899  -11.0533  -14.7046 C   0  0  0  0  0  0  0  0  0  0  0  0
   25.2450  -10.6511  -16.0356 C   0  0  2  0  0  0  0  0  0  0  0  0
   26.7164  -10.5632  -15.7793 C   0  0  0  0  0  0  0  0  0  0  0  0
   24.6230   -9.3529  -16.4289 C   0  0  0  0  0  0  0  0  0  0  0  0
   23.1824   -9.4118  -16.8112 C   0  0  2  0  0  0  0  0  0  0  0  0
   23.1156  -10.1986  -18.0405 N   0  0  0  0  0  0  0  0  0  0  0  0
   22.6193   -8.0570  -17.0380 C   0  0  0  0  0  0  0  0  0  0  0  0
   22.9673   -7.3573  -18.0480 O   0  0  0  0  0  0  0  0  0  0  0  0
   21.6786   -7.5578  -16.0967 N   0  0  0  0  0  0  0  0  0  0  0  0
   21.0867   -6.2460  -16.3545 C   0  0  1  0  0  0  0  0  0  0  0  0
   19.6600   -6.4163  -16.8211 C   0  0  0  0  0  0  0  0  0  0  0  0
   19.0753   -5.0807  -17.0844 C   0  0  0  0  0  0  0  0  0  0  0  0
   19.8824   -3.9570  -17.2996 C   0  0  0  0  0  0  0  0  0  0  0  0
   19.0753   -2.9180  -17.5055 N   0  0  0  0  0  0  0  0  0  0  0  0
   17.8233   -3.3620  -17.4246 C   0  0  0  0  0  0  0  0  0  0  0  0
   17.8106   -4.6648  -17.1709 N   0  0  0  0  0  0  0  0  0  0  0  0
   21.1025   -5.5278  -15.0572 C   0  0  0  0  0  0  0  0  0  0  0  0
   21.0934   -6.1180  -13.9356 O   0  0  0  0  0  0  0  0  0  0  0  0
   21.1293   -4.1268  -14.9656 O   0  0  0  0  0  0  0  0  0  0  0  0
  2 10  1  0
  2  3  1  0
  2  1  1  1
  3  4  1  0
  4  5  2  0
  4  9  1  0
  5  6  1  0
  6  7  2  0
  8  7  1  0
  9  8  2  0
 10 17  1  0
 11 10  2  0
 13 12  1  1
 14 13  1  0
 15 13  1  0
 16 15  1  6
 17 16  1  0
 18 20  1  0
 18 16  1  0
 19 18  2  0
 21 20  1  0
 21 28  1  0
 22 23  1  0
 21 22  1  1
 23 24  2  0
 24 25  1  0
 26 25  1  0
 27 23  1  0
 27 26  2  0
 28 30  1  0
 29 28  2  0
M  END
$$$$
