FLH.pdb
     RDKit          3D

 30 31  0  0  1  0  0  0  0  0999 V2000
   20.2023  -13.2280  -19.6005 N   0  0  0  0  0  0  0  0  0  0  0  0
   21.0428  -12.0687  -19.8063 C   0  0  1  0  0  0  0  0  0  0  0  0
   20.3335  -11.0523  -20.6766 C   0  0  0  0  0  0  0  0  0  0  0  0
   20.1480  -11.5001  -22.0615 C   0  0  0  0  0  0  0  0  0  0  0  0
   21.1693  -11.3416  -22.9745 C   0  0  0  0  0  0  0  0  0  0  0  0
   20.9968  -11.7567  -24.2581 C   0  0  0  0  0  0  0  0  0  0  0  0
   19.8029  -12.3417  -24.6707 C   0  0  0  0  0  0  0  0  0  0  0  0
   18.7776  -12.5038  -23.7654 C   0  0  0  0  0  0  0  0  0  0  0  0
   18.9743  -12.0770  -22.4741 C   0  0  0  0  0  0  0  0  0  0  0  0
   21.3742  -11.3881  -18.5320 C   0  0  0  0  0  0  0  0  0  0  0  0
   20.5346  -11.3999  -17.5964 O   0  0  0  0  0  0  0  0  0  0  0  0
   26.4277  -10.1114  -15.5714 C   0  0  0  0  0  0  0  0  0  0  0  0
   24.9578   -9.6662  -15.6285 C   0  0  2  0  0  0  0  0  0  0  0  0
   24.3432  -10.0493  -14.3194 C   0  0  0  0  0  0  0  0  0  0  0  0
   24.3579  -10.3641  -16.8032 C   0  0  0  0  0  0  0  0  0  0  0  0
   22.9446  -10.0067  -17.1195 C   0  0  2  0  0  0  0  0  0  0  0  0
   22.6018  -10.7302  -18.3417 N   0  0  0  0  0  0  0  0  0  0  0  0
   22.7812   -8.5456  -17.3253 C   0  0  0  0  0  0  0  0  0  0  0  0
   23.3367   -7.9506  -18.3093 O   0  0  0  0  0  0  0  0  0  0  0  0
   21.9865   -7.8240  -16.3936 N   0  0  0  0  0  0  0  0  0  0  0  0
   21.7754   -6.3980  -16.6382 C   0  0  1  0  0  0  0  0  0  0  0  0
   20.3127   -6.1424  -16.9163 C   0  0  0  0  0  0  0  0  0  0  0  0
   20.1255   -4.7079  -17.2362 C   0  0  0  0  0  0  0  0  0  0  0  0
   19.8146   -3.7703  -16.2439 C   0  0  0  0  0  0  0  0  0  0  0  0
   19.7100   -2.5816  -16.8349 N   0  0  0  0  0  0  0  0  0  0  0  0
   19.9428   -2.7587  -18.1332 C   0  0  0  0  0  0  0  0  0  0  0  0
   20.1946   -4.0370  -18.3874 N   0  0  0  0  0  0  0  0  0  0  0  0
   22.1717   -5.7054  -15.3881 C   0  0  0  0  0  0  0  0  0  0  0  0
   22.0830   -6.2367  -14.2409 O   0  0  0  0  0  0  0  0  0  0  0  0
   22.6805   -4.3967  -15.3742 O   0  0  0  0  0  0  0  0  0  0  0  0
  2 10  1  0
  2  3  1  0
  2  1  1  1
  3  4  1  0
  4  5  2  0
  4  9  1  0
  5  6  1  0
  6  7  2  0
  8  7  1  0
  9  8  2  0
 10 17  1  0
 11 10  2  0
 13 12  1  1
 14 13  1  0
 15 13  1  0
 16 15  1  6
 17 16  1  0
 18 20  1  0
 18 16  1  0
 19 18  2  0
 21 20  1  0
 21 28  1  0
 22 23  1  0
 21 22  1  1
 23 24  2  0
 24 25  1  0
 26 25  1  0
 27 23  1  0
 27 26  2  0
 28 30  1  0
 29 28  2  0
M  END
$$$$
