FLH.pdb
     RDKit          3D

 30 31  0  0  1  0  0  0  0  0999 V2000
   21.4619  -16.1204  -18.4782 N   0  0  0  0  0  0  0  0  0  0  0  0
   21.8899  -14.7645  -18.7445 C   0  0  1  0  0  0  0  0  0  0  0  0
   20.7702  -13.9767  -19.3921 C   0  0  0  0  0  0  0  0  0  0  0  0
   20.3924  -14.4831  -20.7163 C   0  0  0  0  0  0  0  0  0  0  0  0
   21.2267  -14.2707  -21.7937 C   0  0  0  0  0  0  0  0  0  0  0  0
   20.8760  -14.7402  -23.0210 C   0  0  0  0  0  0  0  0  0  0  0  0
   19.6848  -15.4348  -23.2121 C   0  0  0  0  0  0  0  0  0  0  0  0
   18.8457  -15.6514  -22.1416 C   0  0  0  0  0  0  0  0  0  0  0  0
   19.2204  -15.1680  -20.9111 C   0  0  0  0  0  0  0  0  0  0  0  0
   22.2614  -14.0442  -17.5035 C   0  0  0  0  0  0  0  0  0  0  0  0
   21.7365  -14.3910  -16.4150 O   0  0  0  0  0  0  0  0  0  0  0  0
   25.0166  -14.1596  -14.5258 C   0  0  0  0  0  0  0  0  0  0  0  0
   25.5222  -13.7612  -15.9215 C   0  0  2  0  0  0  0  0  0  0  0  0
   27.0138  -13.8724  -15.8845 C   0  0  0  0  0  0  0  0  0  0  0  0
   25.0270  -12.3743  -16.1622 C   0  0  0  0  0  0  0  0  0  0  0  0
   23.5503  -12.2288  -16.3149 C   0  0  2  0  0  0  0  0  0  0  0  0
   23.1847  -12.9842  -17.5109 N   0  0  0  0  0  0  0  0  0  0  0  0
   23.1519  -10.8065  -16.4648 C   0  0  0  0  0  0  0  0  0  0  0  0
   23.7723  -10.0271  -17.2639 O   0  0  0  0  0  0  0  0  0  0  0  0
   22.0567  -10.3339  -15.6918 N   0  0  0  0  0  0  0  0  0  0  0  0
   21.6676   -8.9330  -15.8461 C   0  0  1  0  0  0  0  0  0  0  0  0
   20.1848   -8.8461  -16.1214 C   0  0  0  0  0  0  0  0  0  0  0  0
   19.8115   -7.4250  -16.3121 C   0  0  0  0  0  0  0  0  0  0  0  0
   20.7714   -6.4059  -16.2890 C   0  0  0  0  0  0  0  0  0  0  0  0
   20.1355   -5.2526  -16.4865 N   0  0  0  0  0  0  0  0  0  0  0  0
   18.8412   -5.5286  -16.6271 C   0  0  0  0  0  0  0  0  0  0  0  0
   18.6335   -6.8356  -16.5238 N   0  0  0  0  0  0  0  0  0  0  0  0
   21.9713   -8.2789  -14.5503 C   0  0  0  0  0  0  0  0  0  0  0  0
   21.8470   -7.0329  -14.3545 O   0  0  0  0  0  0  0  0  0  0  0  0
   22.4241   -8.9913  -13.4282 O   0  0  0  0  0  0  0  0  0  0  0  0
  2 10  1  0
  2  3  1  0
  2  1  1  1
  3  4  1  0
  4  5  2  0
  4  9  1  0
  5  6  1  0
  6  7  2  0
  8  7  1  0
  9  8  2  0
 10 17  1  0
 11 10  2  0
 13 12  1  1
 14 13  1  0
 15 13  1  0
 16 15  1  6
 17 16  1  0
 18 20  1  0
 18 16  1  0
 19 18  2  0
 21 20  1  0
 21 28  1  0
 22 23  1  0
 21 22  1  1
 23 24  2  0
 24 25  1  0
 26 25  1  0
 27 23  1  0
 27 26  2  0
 28 30  1  0
 29 28  2  0
M  END
$$$$
