FLH.pdb
     RDKit          3D

 30 31  0  0  1  0  0  0  0  0999 V2000
   27.7064   -9.2767  -18.9931 N   0  0  0  0  0  0  0  0  0  0  0  0
   26.6492   -9.5262  -18.0378 C   0  0  1  0  0  0  0  0  0  0  0  0
   27.2094   -9.5652  -16.6312 C   0  0  0  0  0  0  0  0  0  0  0  0
   28.0710  -10.7259  -16.3797 C   0  0  0  0  0  0  0  0  0  0  0  0
   27.5344  -11.8692  -15.8258 C   0  0  0  0  0  0  0  0  0  0  0  0
   28.3335  -12.9448  -15.5928 C   0  0  0  0  0  0  0  0  0  0  0  0
   29.6899  -12.9140  -15.9041 C   0  0  0  0  0  0  0  0  0  0  0  0
   30.2341  -11.7762  -16.4576 C   0  0  0  0  0  0  0  0  0  0  0  0
   29.4079  -10.7019  -16.6842 C   0  0  0  0  0  0  0  0  0  0  0  0
   25.6161   -8.4636  -18.0606 C   0  0  0  0  0  0  0  0  0  0  0  0
   25.8587   -7.3881  -18.6648 O   0  0  0  0  0  0  0  0  0  0  0  0
   21.6396   -6.9053  -20.9322 C   0  0  0  0  0  0  0  0  0  0  0  0
   21.8314   -6.7235  -19.4181 C   0  0  2  0  0  0  0  0  0  0  0  0
   22.1603   -5.2806  -19.1984 C   0  0  0  0  0  0  0  0  0  0  0  0
   22.9256   -7.6581  -19.0230 C   0  0  0  0  0  0  0  0  0  0  0  0
   23.2665   -7.6829  -17.5710 C   0  0  2  0  0  0  0  0  0  0  0  0
   24.3728   -8.6261  -17.4251 N   0  0  0  0  0  0  0  0  0  0  0  0
   22.1118   -8.1146  -16.7438 C   0  0  0  0  0  0  0  0  0  0  0  0
   21.6391   -9.2974  -16.8349 O   0  0  0  0  0  0  0  0  0  0  0  0
   21.5444   -7.1719  -15.8441 N   0  0  0  0  0  0  0  0  0  0  0  0
   20.4026   -7.6008  -15.0378 C   0  0  1  0  0  0  0  0  0  0  0  0
   20.8927   -8.1698  -13.7270 C   0  0  0  0  0  0  0  0  0  0  0  0
   19.7245   -8.5198  -12.8856 C   0  0  0  0  0  0  0  0  0  0  0  0
   18.9455   -9.6532  -13.1484 C   0  0  0  0  0  0  0  0  0  0  0  0
   17.9812   -9.6976  -12.2310 N   0  0  0  0  0  0  0  0  0  0  0  0
   18.1425   -8.6469  -11.4302 C   0  0  0  0  0  0  0  0  0  0  0  0
   19.1907   -7.9292  -11.8151 N   0  0  0  0  0  0  0  0  0  0  0  0
   19.6015   -6.3796  -14.7806 C   0  0  0  0  0  0  0  0  0  0  0  0
   18.4000   -6.4082  -14.3783 O   0  0  0  0  0  0  0  0  0  0  0  0
   20.1125   -5.0844  -14.9628 O   0  0  0  0  0  0  0  0  0  0  0  0
  2 10  1  0
  2  3  1  0
  2  1  1  6
  3  4  1  0
  4  5  2  0
  4  9  1  0
  5  6  1  0
  6  7  2  0
  8  7  1  0
  9  8  2  0
 10 17  1  0
 11 10  2  0
 13 12  1  6
 14 13  1  0
 15 13  1  0
 16 15  1  6
 17 16  1  0
 18 20  1  0
 18 16  1  0
 19 18  2  0
 21 20  1  0
 21 28  1  0
 22 23  1  0
 21 22  1  1
 23 24  2  0
 24 25  1  0
 26 25  1  0
 27 23  1  0
 27 26  2  0
 28 30  1  0
 29 28  2  0
M  END
$$$$
