GDK.pdb
     RDKit          3D

 22 21  0  0  1  0  0  0  0  0999 V2000
    7.2262  -12.7107   19.1204 N   0  0  0  0  0  0  0  0  0  0  0  0
    8.6071  -12.5060   18.8067 C   0  0  0  0  0  0  0  0  0  0  0  0
    9.3722  -13.7218   19.1269 C   0  0  0  0  0  0  0  0  0  0  0  0
    8.7928  -14.7022   19.6668 O   0  0  0  0  0  0  0  0  0  0  0  0
   10.7665  -13.8421   18.8481 N   0  0  0  0  0  0  0  0  0  0  0  0
   11.4559  -15.0640   19.1847 C   0  0  1  0  0  0  0  0  0  0  0  0
   12.6193  -15.2946   18.2155 C   0  0  0  0  0  0  0  0  0  0  0  0
   12.1007  -15.7543   16.9161 C   0  0  0  0  0  0  0  0  0  0  0  0
   11.5583  -16.8828   16.7782 O   0  0  0  0  0  0  0  0  0  0  0  0
   12.0064  -14.9557   20.5537 C   0  0  0  0  0  0  0  0  0  0  0  0
   12.8566  -14.0943   20.8135 O   0  0  0  0  0  0  0  0  0  0  0  0
   12.2014  -14.9386   15.7980 O   0  0  0  0  0  0  0  0  0  0  0  0
   11.5759  -15.8225   21.5727 N   0  0  0  0  0  0  0  0  0  0  0  0
   12.1128  -15.8859   22.8967 C   0  0  1  0  0  0  0  0  0  0  0  0
   11.4075  -16.8692   23.7797 C   0  0  0  0  0  0  0  0  0  0  0  0
   12.0059  -17.0651   25.1185 C   0  0  0  0  0  0  0  0  0  0  0  0
   11.3681  -18.1469   25.9425 C   0  0  0  0  0  0  0  0  0  0  0  0
   12.0175  -18.1119   27.3251 C   0  0  0  0  0  0  0  0  0  0  0  0
   11.4291  -19.1464   28.1612 N   0  0  0  0  0  0  0  0  0  0  0  0
   13.5577  -16.1902   22.7805 C   0  0  0  0  0  0  0  0  0  0  0  0
   14.0474  -17.1834   21.9398 O   0  0  0  0  0  0  0  0  0  0  0  0
   14.3942  -15.5322   23.4649 O   0  0  0  0  0  0  0  0  0  0  0  0
  2  1  1  0
  3  2  1  0
  4  3  2  0
  5  3  1  0
  6  5  1  0
  6 10  1  0
  6  7  1  6
  8  7  1  0
  8  9  2  0
 10 11  2  0
 12  8  1  0
 13 10  1  0
 13 14  1  0
 14 15  1  1
 15 16  1  0
 16 17  1  0
 17 18  1  0
 18 19  1  0
 20 21  1  0
 20 14  1  0
 22 20  2  0
M  END
$$$$
