GDK.pdb
     RDKit          3D

 22 21  0  0  1  0  0  0  0  0999 V2000
   13.2439  -16.6116   20.1743 N   0  0  0  0  0  0  0  0  0  0  0  0
   13.1724  -17.6705   21.1338 C   0  0  0  0  0  0  0  0  0  0  0  0
   12.0048  -17.4686   22.0067 C   0  0  0  0  0  0  0  0  0  0  0  0
   11.3520  -16.3925   21.9404 O   0  0  0  0  0  0  0  0  0  0  0  0
   11.5710  -18.4551   22.9421 N   0  0  0  0  0  0  0  0  0  0  0  0
   10.4841  -18.1527   23.8414 C   0  0  1  0  0  0  0  0  0  0  0  0
    9.8336  -19.4491   24.3335 C   0  0  0  0  0  0  0  0  0  0  0  0
    9.0329  -20.0460   23.2512 C   0  0  0  0  0  0  0  0  0  0  0  0
    8.5166  -19.3444   22.3414 O   0  0  0  0  0  0  0  0  0  0  0  0
   11.0079  -17.4211   25.0158 C   0  0  0  0  0  0  0  0  0  0  0  0
   12.1438  -17.6661   25.4427 O   0  0  0  0  0  0  0  0  0  0  0  0
    8.8277  -21.4179   23.2119 O   0  0  0  0  0  0  0  0  0  0  0  0
   10.2301  -16.4439   25.6601 N   0  0  0  0  0  0  0  0  0  0  0  0
   10.6558  -15.6249   26.7525 C   0  0  1  0  0  0  0  0  0  0  0  0
    9.9691  -14.2946   26.8034 C   0  0  0  0  0  0  0  0  0  0  0  0
    8.5007  -14.3431   26.9782 C   0  0  0  0  0  0  0  0  0  0  0  0
    7.8163  -13.0067   26.9395 C   0  0  0  0  0  0  0  0  0  0  0  0
    6.3128  -13.2595   27.0398 C   0  0  0  0  0  0  0  0  0  0  0  0
    5.6005  -11.9999   26.8934 N   0  0  0  0  0  0  0  0  0  0  0  0
   10.4491  -16.3975   27.9992 C   0  0  0  0  0  0  0  0  0  0  0  0
    9.6963  -17.5657   28.0389 O   0  0  0  0  0  0  0  0  0  0  0  0
   10.9692  -15.9948   29.0801 O   0  0  0  0  0  0  0  0  0  0  0  0
  2  1  1  0
  3  2  1  0
  4  3  2  0
  5  3  1  0
  6  5  1  0
  6 10  1  0
  6  7  1  1
  8  7  1  0
  8  9  2  0
 10 11  2  0
 12  8  1  0
 13 10  1  0
 13 14  1  0
 14 15  1  1
 15 16  1  0
 16 17  1  0
 17 18  1  0
 18 19  1  0
 20 21  1  0
 20 14  1  0
 22 20  2  0
M  END
$$$$
