GDK.pdb
     RDKit          3D

 22 21  0  0  1  0  0  0  0  0999 V2000
    4.7016  -21.9214   23.5974 N   0  0  0  0  0  0  0  0  0  0  0  0
    5.3565  -20.6524   23.5084 C   0  0  0  0  0  0  0  0  0  0  0  0
    6.8117  -20.8377   23.6268 C   0  0  0  0  0  0  0  0  0  0  0  0
    7.2725  -21.9450   24.0140 O   0  0  0  0  0  0  0  0  0  0  0  0
    7.7412  -19.8003   23.3168 N   0  0  0  0  0  0  0  0  0  0  0  0
    9.1424  -19.9926   23.6024 C   0  0  1  0  0  0  0  0  0  0  0  0
    9.9855  -19.0177   22.7748 C   0  0  0  0  0  0  0  0  0  0  0  0
    9.8470  -19.3319   21.3427 C   0  0  0  0  0  0  0  0  0  0  0  0
   10.2999  -20.3987   20.8492 O   0  0  0  0  0  0  0  0  0  0  0  0
    9.3928  -19.7225   25.0353 C   0  0  0  0  0  0  0  0  0  0  0  0
    8.9068  -18.7177   25.5707 O   0  0  0  0  0  0  0  0  0  0  0  0
    9.2034  -18.4428   20.4936 O   0  0  0  0  0  0  0  0  0  0  0  0
   10.1802  -20.5958   25.8049 N   0  0  0  0  0  0  0  0  0  0  0  0
   10.4511  -20.4626   27.2028 C   0  0  1  0  0  0  0  0  0  0  0  0
   10.8356  -21.7521   27.8612 C   0  0  0  0  0  0  0  0  0  0  0  0
   11.1716  -21.6567   29.2988 C   0  0  0  0  0  0  0  0  0  0  0  0
   11.5361  -22.9606   29.9494 C   0  0  0  0  0  0  0  0  0  0  0  0
   11.8930  -22.6618   31.4046 C   0  0  0  0  0  0  0  0  0  0  0  0
   12.2197  -23.9043   32.0865 N   0  0  0  0  0  0  0  0  0  0  0  0
   11.5027  -19.4313   27.3594 C   0  0  0  0  0  0  0  0  0  0  0  0
   12.4644  -19.1899   26.3848 O   0  0  0  0  0  0  0  0  0  0  0  0
   11.5443  -18.7331   28.4138 O   0  0  0  0  0  0  0  0  0  0  0  0
  2  1  1  0
  3  2  1  0
  4  3  2  0
  5  3  1  0
  6  5  1  0
  6 10  1  0
  6  7  1  6
  8  7  1  0
  8  9  2  0
 10 11  2  0
 12  8  1  0
 13 10  1  0
 13 14  1  0
 14 15  1  6
 15 16  1  0
 16 17  1  0
 17 18  1  0
 18 19  1  0
 20 21  1  0
 20 14  1  0
 22 20  2  0
M  END
$$$$
