GDK.pdb
     RDKit          3D

 22 21  0  0  1  0  0  0  0  0999 V2000
    8.1828  -13.3364   18.1741 N   0  0  0  0  0  0  0  0  0  0  0  0
    9.5431  -12.8961   18.2261 C   0  0  0  0  0  0  0  0  0  0  0  0
   10.3886  -13.9674   18.7771 C   0  0  0  0  0  0  0  0  0  0  0  0
    9.8543  -15.0070   19.2485 O   0  0  0  0  0  0  0  0  0  0  0  0
   11.8127  -13.8798   18.8017 N   0  0  0  0  0  0  0  0  0  0  0  0
   12.5879  -15.0201   19.2265 C   0  0  1  0  0  0  0  0  0  0  0  0
   13.9110  -15.0717   18.4567 C   0  0  0  0  0  0  0  0  0  0  0  0
   13.6684  -15.5377   17.0809 C   0  0  0  0  0  0  0  0  0  0  0  0
   13.9143  -14.8131   16.0804 O   0  0  0  0  0  0  0  0  0  0  0  0
   12.8941  -14.8956   20.6686 C   0  0  0  0  0  0  0  0  0  0  0  0
   13.5844  -13.9524   21.0765 O   0  0  0  0  0  0  0  0  0  0  0  0
   13.1548  -16.8071   16.8559 O   0  0  0  0  0  0  0  0  0  0  0  0
   12.4097  -15.8390   21.5908 N   0  0  0  0  0  0  0  0  0  0  0  0
   12.7132  -15.8724   22.9880 C   0  0  1  0  0  0  0  0  0  0  0  0
   11.9287  -16.9004   23.7441 C   0  0  0  0  0  0  0  0  0  0  0  0
   12.2959  -17.0596   25.1684 C   0  0  0  0  0  0  0  0  0  0  0  0
   11.6453  -18.2227   25.8614 C   0  0  0  0  0  0  0  0  0  0  0  0
   12.1094  -18.2059   27.3170 C   0  0  0  0  0  0  0  0  0  0  0  0
   11.4498  -19.2774   28.0465 N   0  0  0  0  0  0  0  0  0  0  0  0
   14.1726  -16.0853   23.1248 C   0  0  0  0  0  0  0  0  0  0  0  0
   14.8583  -17.0531   22.3995 O   0  0  0  0  0  0  0  0  0  0  0  0
   14.8383  -15.3692   23.9279 O   0  0  0  0  0  0  0  0  0  0  0  0
  2  1  1  0
  3  2  1  0
  4  3  2  0
  5  3  1  0
  6  5  1  0
  6 10  1  0
  6  7  1  6
  8  7  1  0
  8  9  2  0
 10 11  2  0
 12  8  1  0
 13 10  1  0
 13 14  1  0
 14 15  1  1
 15 16  1  0
 16 17  1  0
 17 18  1  0
 18 19  1  0
 20 21  1  0
 20 14  1  0
 22 20  2  0
M  END
$$$$
