GDK.pdb
     RDKit          3D

 22 21  0  0  1  0  0  0  0  0999 V2000
    6.4520  -17.2400   18.9675 N   0  0  0  0  0  0  0  0  0  0  0  0
    7.7153  -16.5711   19.0300 C   0  0  0  0  0  0  0  0  0  0  0  0
    8.4502  -17.0134   20.2259 C   0  0  0  0  0  0  0  0  0  0  0  0
    7.8376  -17.6079   21.1531 O   0  0  0  0  0  0  0  0  0  0  0  0
    9.8514  -16.7951   20.3853 N   0  0  0  0  0  0  0  0  0  0  0  0
   10.4936  -17.1718   21.6211 C   0  0  1  0  0  0  0  0  0  0  0  0
   11.9823  -17.4382   21.3794 C   0  0  0  0  0  0  0  0  0  0  0  0
   12.1409  -18.5720   20.4529 C   0  0  0  0  0  0  0  0  0  0  0  0
   11.5148  -19.6533   20.6121 O   0  0  0  0  0  0  0  0  0  0  0  0
   10.3720  -16.0644   22.5947 C   0  0  0  0  0  0  0  0  0  0  0  0
   10.9233  -14.9789   22.3707 O   0  0  0  0  0  0  0  0  0  0  0  0
   12.9986  -18.4693   19.3669 O   0  0  0  0  0  0  0  0  0  0  0  0
    9.6344  -16.2264   23.7800 N   0  0  0  0  0  0  0  0  0  0  0  0
    9.4470  -15.2305   24.7890 C   0  0  1  0  0  0  0  0  0  0  0  0
    8.1230  -14.5351   24.7018 C   0  0  0  0  0  0  0  0  0  0  0  0
    7.8834  -13.4930   25.7243 C   0  0  0  0  0  0  0  0  0  0  0  0
    6.5470  -12.8137   25.6316 C   0  0  0  0  0  0  0  0  0  0  0  0
    6.4975  -11.7498   26.7271 C   0  0  0  0  0  0  0  0  0  0  0  0
    5.1924  -11.1079   26.7182 N   0  0  0  0  0  0  0  0  0  0  0  0
    9.6384  -15.8835   26.1046 C   0  0  0  0  0  0  0  0  0  0  0  0
   10.0020  -15.1760   27.2448 O   0  0  0  0  0  0  0  0  0  0  0  0
    9.4695  -17.1326   26.2152 O   0  0  0  0  0  0  0  0  0  0  0  0
  2  1  1  0
  3  2  1  0
  4  3  2  0
  5  3  1  0
  6  5  1  0
  6 10  1  0
  6  7  1  6
  8  7  1  0
  8  9  2  0
 10 11  2  0
 12  8  1  0
 13 10  1  0
 13 14  1  0
 14 15  1  1
 15 16  1  0
 16 17  1  0
 17 18  1  0
 18 19  1  0
 20 21  1  0
 20 14  1  0
 22 20  2  0
M  END
$$$$
