GDK.pdb
     RDKit          3D

 22 21  0  0  1  0  0  0  0  0999 V2000
    7.7387  -13.0726   18.0394 N   0  0  0  0  0  0  0  0  0  0  0  0
    8.9955  -13.5141   18.5615 C   0  0  0  0  0  0  0  0  0  0  0  0
    8.7675  -14.4340   19.6874 C   0  0  0  0  0  0  0  0  0  0  0  0
    7.6662  -14.4131   20.3000 O   0  0  0  0  0  0  0  0  0  0  0  0
    9.7559  -15.3660   20.1243 N   0  0  0  0  0  0  0  0  0  0  0  0
    9.4618  -16.2500   21.2259 C   0  0  1  0  0  0  0  0  0  0  0  0
   10.4298  -17.4369   21.2196 C   0  0  0  0  0  0  0  0  0  0  0  0
   10.0309  -18.3987   20.1782 C   0  0  0  0  0  0  0  0  0  0  0  0
    8.8458  -18.4696   19.7573 O   0  0  0  0  0  0  0  0  0  0  0  0
    9.6320  -15.5188   22.5008 C   0  0  0  0  0  0  0  0  0  0  0  0
   10.7029  -14.9507   22.7514 O   0  0  0  0  0  0  0  0  0  0  0  0
   10.9697  -19.2615   19.6304 O   0  0  0  0  0  0  0  0  0  0  0  0
    8.5882  -15.4581   23.4400 N   0  0  0  0  0  0  0  0  0  0  0  0
    8.5804  -14.6633   24.6289 C   0  0  1  0  0  0  0  0  0  0  0  0
    7.3005  -13.9129   24.8360 C   0  0  0  0  0  0  0  0  0  0  0  0
    7.2368  -13.0911   26.0646 C   0  0  0  0  0  0  0  0  0  0  0  0
    5.9258  -12.3935   26.2897 C   0  0  0  0  0  0  0  0  0  0  0  0
    6.0220  -11.6586   27.6257 C   0  0  0  0  0  0  0  0  0  0  0  0
    4.7622  -10.9847   27.8979 N   0  0  0  0  0  0  0  0  0  0  0  0
    8.8823  -15.5591   25.7691 C   0  0  0  0  0  0  0  0  0  0  0  0
    9.4551  -15.0997   26.9497 O   0  0  0  0  0  0  0  0  0  0  0  0
    8.6164  -16.7932   25.6846 O   0  0  0  0  0  0  0  0  0  0  0  0
  2  1  1  0
  3  2  1  0
  4  3  2  0
  5  3  1  0
  6  5  1  0
  6 10  1  0
  6  7  1  1
  8  7  1  0
  8  9  2  0
 10 11  2  0
 12  8  1  0
 13 10  1  0
 13 14  1  0
 14 15  1  1
 15 16  1  0
 16 17  1  0
 17 18  1  0
 18 19  1  0
 20 21  1  0
 20 14  1  0
 22 20  2  0
M  END
$$$$
