GDK.pdb
     RDKit          3D

 22 21  0  0  1  0  0  0  0  0999 V2000
    6.6194  -19.2104   22.4321 N   0  0  0  0  0  0  0  0  0  0  0  0
    7.4653  -18.0573   22.4761 C   0  0  0  0  0  0  0  0  0  0  0  0
    8.7698  -18.4229   23.0510 C   0  0  0  0  0  0  0  0  0  0  0  0
    8.9218  -19.5513   23.5916 O   0  0  0  0  0  0  0  0  0  0  0  0
    9.8909  -17.5405   23.0231 N   0  0  0  0  0  0  0  0  0  0  0  0
   11.1733  -18.0051   23.4934 C   0  0  1  0  0  0  0  0  0  0  0  0
   12.2803  -17.0574   23.0221 C   0  0  0  0  0  0  0  0  0  0  0  0
   12.4439  -17.1701   21.5629 C   0  0  0  0  0  0  0  0  0  0  0  0
   12.3076  -18.2683   20.9613 O   0  0  0  0  0  0  0  0  0  0  0  0
   11.1762  -18.0234   24.9728 C   0  0  0  0  0  0  0  0  0  0  0  0
   10.7890  -17.0324   25.6057 O   0  0  0  0  0  0  0  0  0  0  0  0
   12.7571  -16.0483   20.8085 O   0  0  0  0  0  0  0  0  0  0  0  0
   11.6152  -19.1575   25.6773 N   0  0  0  0  0  0  0  0  0  0  0  0
   11.5950  -19.3168   27.0983 C   0  0  1  0  0  0  0  0  0  0  0  0
   11.3467  -20.7276   27.5366 C   0  0  0  0  0  0  0  0  0  0  0  0
   11.3947  -20.9575   28.9973 C   0  0  0  0  0  0  0  0  0  0  0  0
   11.1466  -22.3771   29.4210 C   0  0  0  0  0  0  0  0  0  0  0  0
   11.2649  -22.4275   30.9435 C   0  0  0  0  0  0  0  0  0  0  0  0
   11.0767  -23.7964   31.3973 N   0  0  0  0  0  0  0  0  0  0  0  0
   12.8770  -18.7956   27.6262 C   0  0  0  0  0  0  0  0  0  0  0  0
   12.9783  -18.1761   28.8667 O   0  0  0  0  0  0  0  0  0  0  0  0
   13.9317  -18.9088   26.9363 O   0  0  0  0  0  0  0  0  0  0  0  0
  2  1  1  0
  3  2  1  0
  4  3  2  0
  5  3  1  0
  6  5  1  0
  6 10  1  0
  6  7  1  1
  8  7  1  0
  8  9  2  0
 10 11  2  0
 12  8  1  0
 13 10  1  0
 13 14  1  0
 14 15  1  6
 15 16  1  0
 16 17  1  0
 17 18  1  0
 18 19  1  0
 20 21  1  0
 20 14  1  0
 22 20  2  0
M  END
$$$$
