GDK.pdb
     RDKit          3D

 22 21  0  0  1  0  0  0  0  0999 V2000
   10.3142  -18.0522   18.0384 N   0  0  0  0  0  0  0  0  0  0  0  0
   11.5586  -17.3539   17.9337 C   0  0  0  0  0  0  0  0  0  0  0  0
   12.4357  -17.7363   19.0519 C   0  0  0  0  0  0  0  0  0  0  0  0
   11.9870  -18.4613   19.9801 O   0  0  0  0  0  0  0  0  0  0  0  0
   13.7966  -17.3149   19.1336 N   0  0  0  0  0  0  0  0  0  0  0  0
   14.6036  -17.7310   20.2549 C   0  0  1  0  0  0  0  0  0  0  0  0
   16.0709  -17.8474   19.8314 C   0  0  0  0  0  0  0  0  0  0  0  0
   16.2830  -19.1170   19.1160 C   0  0  0  0  0  0  0  0  0  0  0  0
   15.5225  -19.4901   18.1838 O   0  0  0  0  0  0  0  0  0  0  0  0
   14.5093  -16.7187   21.3298 C   0  0  0  0  0  0  0  0  0  0  0  0
   15.1985  -15.6917   21.2761 O   0  0  0  0  0  0  0  0  0  0  0  0
   17.3441  -19.9421   19.4612 O   0  0  0  0  0  0  0  0  0  0  0  0
   13.6425  -16.9058   22.4200 N   0  0  0  0  0  0  0  0  0  0  0  0
   13.6013  -16.1007   23.6013 C   0  0  1  0  0  0  0  0  0  0  0  0
   12.5788  -16.5552   24.5973 C   0  0  0  0  0  0  0  0  0  0  0  0
   12.5148  -15.7671   25.8477 C   0  0  0  0  0  0  0  0  0  0  0  0
   11.5190  -16.2641   26.8564 C   0  0  0  0  0  0  0  0  0  0  0  0
   11.5516  -15.3029   28.0436 C   0  0  0  0  0  0  0  0  0  0  0  0
   10.6107  -15.7546   29.0566 N   0  0  0  0  0  0  0  0  0  0  0  0
   14.9641  -16.0858   24.1814 C   0  0  0  0  0  0  0  0  0  0  0  0
   15.5924  -14.9130   24.5846 O   0  0  0  0  0  0  0  0  0  0  0  0
   15.5971  -17.1722   24.3234 O   0  0  0  0  0  0  0  0  0  0  0  0
  2  1  1  0
  3  2  1  0
  4  3  2  0
  5  3  1  0
  6  5  1  0
  6 10  1  0
  6  7  1  6
  8  7  1  0
  8  9  2  0
 10 11  2  0
 12  8  1  0
 13 10  1  0
 13 14  1  0
 14 15  1  1
 15 16  1  0
 16 17  1  0
 17 18  1  0
 18 19  1  0
 20 21  1  0
 20 14  1  0
 22 20  2  0
M  END
$$$$
