GDK.pdb
     RDKit          3D

 22 21  0  0  1  0  0  0  0  0999 V2000
    7.1376  -12.7257   19.5512 N   0  0  0  0  0  0  0  0  0  0  0  0
    8.4538  -13.0659   19.1052 C   0  0  0  0  0  0  0  0  0  0  0  0
    8.8576  -14.3533   19.6931 C   0  0  0  0  0  0  0  0  0  0  0  0
    8.1283  -14.9007   20.5631 O   0  0  0  0  0  0  0  0  0  0  0  0
   10.0604  -15.0217   19.3149 N   0  0  0  0  0  0  0  0  0  0  0  0
   10.4090  -16.2704   19.9480 C   0  0  1  0  0  0  0  0  0  0  0  0
   11.2882  -17.1058   19.0126 C   0  0  0  0  0  0  0  0  0  0  0  0
   10.4964  -17.5556   17.8552 C   0  0  0  0  0  0  0  0  0  0  0  0
    9.4364  -18.2219   17.9933 O   0  0  0  0  0  0  0  0  0  0  0  0
   11.1747  -15.9970   21.1841 C   0  0  0  0  0  0  0  0  0  0  0  0
   12.1023  -15.1774   21.1700 O   0  0  0  0  0  0  0  0  0  0  0  0
   10.9101  -17.2486   16.5667 O   0  0  0  0  0  0  0  0  0  0  0  0
   10.8631  -16.6585   22.3842 N   0  0  0  0  0  0  0  0  0  0  0  0
   11.5325  -16.4775   23.6350 C   0  0  1  0  0  0  0  0  0  0  0  0
   10.8333  -17.1338   24.7859 C   0  0  0  0  0  0  0  0  0  0  0  0
   11.5246  -17.0349   26.0901 C   0  0  0  0  0  0  0  0  0  0  0  0
   10.8156  -17.7048   27.2324 C   0  0  0  0  0  0  0  0  0  0  0  0
   11.5603  -17.3337   28.5139 C   0  0  0  0  0  0  0  0  0  0  0  0
   10.8099  -17.8124   29.6642 N   0  0  0  0  0  0  0  0  0  0  0  0
   12.9183  -16.9762   23.4782 C   0  0  0  0  0  0  0  0  0  0  0  0
   14.0213  -16.2863   23.9687 O   0  0  0  0  0  0  0  0  0  0  0  0
   13.1271  -18.0700   22.8773 O   0  0  0  0  0  0  0  0  0  0  0  0
  2  1  1  0
  3  2  1  0
  4  3  2  0
  5  3  1  0
  6  5  1  0
  6 10  1  0
  6  7  1  6
  8  7  1  0
  8  9  2  0
 10 11  2  0
 12  8  1  0
 13 10  1  0
 13 14  1  0
 14 15  1  1
 15 16  1  0
 16 17  1  0
 17 18  1  0
 18 19  1  0
 20 21  1  0
 20 14  1  0
 22 20  2  0
M  END
$$$$
