GDK.pdb
     RDKit          3D

 22 21  0  0  1  0  0  0  0  0999 V2000
    7.5311  -13.1148   17.4875 N   0  0  0  0  0  0  0  0  0  0  0  0
    8.7970  -13.3775   18.1003 C   0  0  0  0  0  0  0  0  0  0  0  0
    8.6188  -14.3147   19.2209 C   0  0  0  0  0  0  0  0  0  0  0  0
    7.5104  -14.3733   19.8181 O   0  0  0  0  0  0  0  0  0  0  0  0
    9.6643  -15.1760   19.6698 N   0  0  0  0  0  0  0  0  0  0  0  0
    9.4009  -16.1236   20.7254 C   0  0  1  0  0  0  0  0  0  0  0  0
   10.3469  -17.3220   20.6034 C   0  0  0  0  0  0  0  0  0  0  0  0
    9.7774  -18.4797   21.3134 C   0  0  0  0  0  0  0  0  0  0  0  0
   10.1115  -18.7660   22.4937 O   0  0  0  0  0  0  0  0  0  0  0  0
    9.6366  -15.4773   22.0352 C   0  0  0  0  0  0  0  0  0  0  0  0
   10.6653  -14.8148   22.2232 O   0  0  0  0  0  0  0  0  0  0  0  0
    8.8449  -19.2926   20.6847 O   0  0  0  0  0  0  0  0  0  0  0  0
    8.7034  -15.6044   23.0783 N   0  0  0  0  0  0  0  0  0  0  0  0
    8.7229  -14.8761   24.3089 C   0  0  1  0  0  0  0  0  0  0  0  0
    7.4503  -14.1349   24.5833 C   0  0  0  0  0  0  0  0  0  0  0  0
    7.4749  -13.2449   25.7649 C   0  0  0  0  0  0  0  0  0  0  0  0
    6.1890  -12.5163   26.0328 C   0  0  0  0  0  0  0  0  0  0  0  0
    6.3509  -11.7749   27.3589 C   0  0  0  0  0  0  0  0  0  0  0  0
    5.1368  -11.0269   27.6452 N   0  0  0  0  0  0  0  0  0  0  0  0
    9.0446  -15.8341   25.3918 C   0  0  0  0  0  0  0  0  0  0  0  0
    9.0420  -17.2107   25.1975 O   0  0  0  0  0  0  0  0  0  0  0  0
    9.3352  -15.4024   26.5451 O   0  0  0  0  0  0  0  0  0  0  0  0
  2  1  1  0
  3  2  1  0
  4  3  2  0
  5  3  1  0
  6  5  1  0
  6 10  1  0
  6  7  1  6
  8  7  1  0
  8  9  2  0
 10 11  2  0
 12  8  1  0
 13 10  1  0
 13 14  1  0
 14 15  1  1
 15 16  1  0
 16 17  1  0
 17 18  1  0
 18 19  1  0
 20 21  1  0
 20 14  1  0
 22 20  2  0
M  END
$$$$
