GDK.pdb
     RDKit          3D

 22 21  0  0  1  0  0  0  0  0999 V2000
    9.9318  -21.3071   19.1711 N   0  0  0  0  0  0  0  0  0  0  0  0
    9.0764  -20.3188   19.7530 C   0  0  0  0  0  0  0  0  0  0  0  0
    9.6952  -19.7893   20.9788 C   0  0  0  0  0  0  0  0  0  0  0  0
   10.7012  -20.3665   21.4721 O   0  0  0  0  0  0  0  0  0  0  0  0
    9.1978  -18.6301   21.6460 N   0  0  0  0  0  0  0  0  0  0  0  0
    9.8805  -18.1359   22.8170 C   0  0  1  0  0  0  0  0  0  0  0  0
    9.7404  -16.6131   22.9030 C   0  0  0  0  0  0  0  0  0  0  0  0
   10.5624  -16.0997   24.0119 C   0  0  0  0  0  0  0  0  0  0  0  0
   11.1750  -16.8703   24.7977 O   0  0  0  0  0  0  0  0  0  0  0  0
    9.2696  -18.7276   24.0276 C   0  0  0  0  0  0  0  0  0  0  0  0
    8.0531  -18.6139   24.2267 O   0  0  0  0  0  0  0  0  0  0  0  0
   10.6801  -14.7322   24.2165 O   0  0  0  0  0  0  0  0  0  0  0  0
   10.0549  -19.4228   24.9631 N   0  0  0  0  0  0  0  0  0  0  0  0
    9.5695  -20.0750   26.1396 C   0  0  1  0  0  0  0  0  0  0  0  0
    9.9385  -21.5250   26.2128 C   0  0  0  0  0  0  0  0  0  0  0  0
    9.4734  -22.2394   27.4220 C   0  0  0  0  0  0  0  0  0  0  0  0
    9.9560  -23.6567   27.5422 C   0  0  0  0  0  0  0  0  0  0  0  0
    9.4528  -24.1996   28.8788 C   0  0  0  0  0  0  0  0  0  0  0  0
    9.8821  -25.5809   29.0313 N   0  0  0  0  0  0  0  0  0  0  0  0
   10.0730  -19.3207   27.3106 C   0  0  0  0  0  0  0  0  0  0  0  0
   11.3267  -18.7199   27.3303 O   0  0  0  0  0  0  0  0  0  0  0  0
    9.3493  -19.2077   28.3423 O   0  0  0  0  0  0  0  0  0  0  0  0
  2  1  1  0
  3  2  1  0
  4  3  2  0
  5  3  1  0
  6  5  1  0
  6 10  1  0
  6  7  1  1
  8  7  1  0
  8  9  2  0
 10 11  2  0
 12  8  1  0
 13 10  1  0
 13 14  1  0
 14 15  1  1
 15 16  1  0
 16 17  1  0
 17 18  1  0
 18 19  1  0
 20 21  1  0
 20 14  1  0
 22 20  2  0
M  END
$$$$
