GDK.pdb
     RDKit          3D

 22 21  0  0  1  0  0  0  0  0999 V2000
    4.7087  -18.8159   22.2257 N   0  0  0  0  0  0  0  0  0  0  0  0
    4.6563  -17.3863   22.1997 C   0  0  0  0  0  0  0  0  0  0  0  0
    5.8792  -16.8581   21.5739 C   0  0  0  0  0  0  0  0  0  0  0  0
    6.8068  -17.6468   21.2482 O   0  0  0  0  0  0  0  0  0  0  0  0
    6.0648  -15.4672   21.3148 N   0  0  0  0  0  0  0  0  0  0  0  0
    7.2578  -15.0236   20.6353 C   0  0  1  0  0  0  0  0  0  0  0  0
    6.9314  -13.8396   19.7202 C   0  0  0  0  0  0  0  0  0  0  0  0
    8.0029  -13.6704   18.7242 C   0  0  0  0  0  0  0  0  0  0  0  0
    9.0187  -14.4151   18.7073 O   0  0  0  0  0  0  0  0  0  0  0  0
    8.2542  -14.5779   21.6340 C   0  0  0  0  0  0  0  0  0  0  0  0
    8.3204  -13.3836   21.9532 O   0  0  0  0  0  0  0  0  0  0  0  0
    7.9129  -12.6691   17.7676 O   0  0  0  0  0  0  0  0  0  0  0  0
    9.1345  -15.4963   22.2312 N   0  0  0  0  0  0  0  0  0  0  0  0
    9.5649  -15.4742   23.5949 C   0  0  1  0  0  0  0  0  0  0  0  0
    8.4340  -15.4334   24.5764 C   0  0  0  0  0  0  0  0  0  0  0  0
    8.3792  -14.2290   25.4339 C   0  0  0  0  0  0  0  0  0  0  0  0
    8.8682  -14.4325   26.8395 C   0  0  0  0  0  0  0  0  0  0  0  0
    8.7654  -13.0885   27.5588 C   0  0  0  0  0  0  0  0  0  0  0  0
    9.0785  -13.2697   28.9676 N   0  0  0  0  0  0  0  0  0  0  0  0
   10.4358  -16.6529   23.8093 C   0  0  0  0  0  0  0  0  0  0  0  0
   11.5691  -16.6089   24.6135 O   0  0  0  0  0  0  0  0  0  0  0  0
   10.1544  -17.7511   23.2474 O   0  0  0  0  0  0  0  0  0  0  0  0
  2  1  1  0
  3  2  1  0
  4  3  2  0
  5  3  1  0
  6  5  1  0
  6 10  1  0
  6  7  1  6
  8  7  1  0
  8  9  2  0
 10 11  2  0
 12  8  1  0
 13 10  1  0
 13 14  1  0
 14 15  1  1
 15 16  1  0
 16 17  1  0
 17 18  1  0
 18 19  1  0
 20 21  1  0
 20 14  1  0
 22 20  2  0
M  END
$$$$
