GDK.pdb
     RDKit          3D

 22 21  0  0  1  0  0  0  0  0999 V2000
   13.4339  -14.7384   18.2961 N   0  0  0  0  0  0  0  0  0  0  0  0
   13.8202  -15.4334   19.4855 C   0  0  0  0  0  0  0  0  0  0  0  0
   12.6283  -16.0022   20.1349 C   0  0  0  0  0  0  0  0  0  0  0  0
   11.5520  -16.1064   19.4874 O   0  0  0  0  0  0  0  0  0  0  0  0
   12.6371  -16.4493   21.4900 N   0  0  0  0  0  0  0  0  0  0  0  0
   11.4512  -17.0535   22.0470 C   0  0  1  0  0  0  0  0  0  0  0  0
   11.8376  -18.0860   23.1102 C   0  0  0  0  0  0  0  0  0  0  0  0
   12.6082  -19.1760   22.4883 C   0  0  0  0  0  0  0  0  0  0  0  0
   12.1030  -19.9364   21.6205 O   0  0  0  0  0  0  0  0  0  0  0  0
   10.6252  -16.0092   22.6923 C   0  0  0  0  0  0  0  0  0  0  0  0
   11.0922  -15.3346   23.6193 O   0  0  0  0  0  0  0  0  0  0  0  0
   13.9299  -19.3907   22.8529 O   0  0  0  0  0  0  0  0  0  0  0  0
    9.3078  -15.7687   22.2660 N   0  0  0  0  0  0  0  0  0  0  0  0
    8.4013  -14.8275   22.8470 C   0  0  1  0  0  0  0  0  0  0  0  0
    7.4796  -14.1941   21.8504 C   0  0  0  0  0  0  0  0  0  0  0  0
    8.1396  -13.4197   20.7763 C   0  0  0  0  0  0  0  0  0  0  0  0
    7.5361  -13.5927   19.4118 C   0  0  0  0  0  0  0  0  0  0  0  0
    8.2506  -12.6254   18.4694 C   0  0  0  0  0  0  0  0  0  0  0  0
    7.6424  -12.6986   17.1502 N   0  0  0  0  0  0  0  0  0  0  0  0
    7.6547  -15.5265   23.9184 C   0  0  0  0  0  0  0  0  0  0  0  0
    6.8969  -14.8485   24.8665 O   0  0  0  0  0  0  0  0  0  0  0  0
    7.6961  -16.7891   23.9904 O   0  0  0  0  0  0  0  0  0  0  0  0
  2  1  1  0
  3  2  1  0
  4  3  2  0
  5  3  1  0
  6  5  1  0
  6 10  1  0
  6  7  1  1
  8  7  1  0
  8  9  2  0
 10 11  2  0
 12  8  1  0
 13 10  1  0
 13 14  1  0
 14 15  1  6
 15 16  1  0
 16 17  1  0
 17 18  1  0
 18 19  1  0
 20 21  1  0
 20 14  1  0
 22 20  2  0
M  END
$$$$
