GDK.pdb
     RDKit          3D

 22 21  0  0  1  0  0  0  0  0999 V2000
    8.6907  -13.6517   17.2323 N   0  0  0  0  0  0  0  0  0  0  0  0
    9.6430  -13.0675   18.1261 C   0  0  0  0  0  0  0  0  0  0  0  0
   10.5854  -14.0993   18.5878 C   0  0  0  0  0  0  0  0  0  0  0  0
   10.1755  -15.2722   18.7994 O   0  0  0  0  0  0  0  0  0  0  0  0
   11.9681  -13.8258   18.8107 N   0  0  0  0  0  0  0  0  0  0  0  0
   12.8480  -14.8952   19.2156 C   0  0  1  0  0  0  0  0  0  0  0  0
   14.2388  -14.6894   18.6079 C   0  0  0  0  0  0  0  0  0  0  0  0
   14.2429  -15.1476   17.2084 C   0  0  0  0  0  0  0  0  0  0  0  0
   13.5598  -16.1361   16.8303 O   0  0  0  0  0  0  0  0  0  0  0  0
   12.9798  -14.8908   20.6893 C   0  0  0  0  0  0  0  0  0  0  0  0
   13.4964  -13.9228   21.2624 O   0  0  0  0  0  0  0  0  0  0  0  0
   15.0136  -14.4876   16.2617 O   0  0  0  0  0  0  0  0  0  0  0  0
   12.5239  -15.9772   21.4554 N   0  0  0  0  0  0  0  0  0  0  0  0
   12.7023  -16.1375   22.8653 C   0  0  1  0  0  0  0  0  0  0  0  0
   12.0716  -17.3830   23.4083 C   0  0  0  0  0  0  0  0  0  0  0  0
   12.2962  -17.6335   24.8490 C   0  0  0  0  0  0  0  0  0  0  0  0
   11.5845  -18.8367   25.3986 C   0  0  0  0  0  0  0  0  0  0  0  0
   11.9095  -18.9192   26.8892 C   0  0  0  0  0  0  0  0  0  0  0  0
   11.1401  -19.9961   27.4923 N   0  0  0  0  0  0  0  0  0  0  0  0
   14.1569  -16.0937   23.1409 C   0  0  0  0  0  0  0  0  0  0  0  0
   15.0916  -16.7231   22.3266 O   0  0  0  0  0  0  0  0  0  0  0  0
   14.5850  -15.4646   24.1519 O   0  0  0  0  0  0  0  0  0  0  0  0
  2  1  1  0
  3  2  1  0
  4  3  2  0
  5  3  1  0
  6  5  1  0
  6 10  1  0
  6  7  1  6
  8  7  1  0
  8  9  2  0
 10 11  2  0
 12  8  1  0
 13 10  1  0
 13 14  1  0
 14 15  1  6
 15 16  1  0
 16 17  1  0
 17 18  1  0
 18 19  1  0
 20 21  1  0
 20 14  1  0
 22 20  2  0
M  END
$$$$
