CTV.pdb
     RDKit          3D

 21 20  0  0  1  0  0  0  0  0999 V2000
   22.9479  -13.2264  -18.4260 N   0  0  0  0  0  0  0  0  0  0  0  0
   23.4859  -12.2434  -17.5392 C   0  0  1  0  0  0  0  0  0  0  0  0
   24.9922  -12.2297  -17.5813 C   0  0  0  0  0  0  0  0  0  0  0  0
   25.7336  -13.0156  -16.1378 S   0  0  0  0  0  0  0  0  0  0  0  0
   22.9065  -10.8889  -17.7601 C   0  0  0  0  0  0  0  0  0  0  0  0
   23.0514  -10.3070  -18.8669 O   0  0  0  0  0  0  0  0  0  0  0  0
   19.7092   -9.7772  -18.2915 C   0  0  0  0  0  0  0  0  0  0  0  0
   20.0957   -9.0162  -17.0435 C   0  0  1  0  0  0  0  0  0  0  0  0
   19.5702   -9.5865  -15.9047 O   0  0  0  0  0  0  0  0  0  0  0  0
   21.6016   -8.8957  -16.9615 C   0  0  2  0  0  0  0  0  0  0  0  0
   22.1770  -10.2112  -16.7410 N   0  0  0  0  0  0  0  0  0  0  0  0
   21.9770   -7.9474  -15.8843 C   0  0  0  0  0  0  0  0  0  0  0  0
   22.3997   -8.3015  -14.7565 O   0  0  0  0  0  0  0  0  0  0  0  0
   21.5435   -3.8718  -16.9323 C   0  0  0  0  0  0  0  0  0  0  0  0
   22.6559   -4.2707  -15.9892 C   0  0  1  0  0  0  0  0  0  0  0  0
   23.0421   -3.1752  -15.0427 C   0  0  0  0  0  0  0  0  0  0  0  0
   22.2298   -5.5258  -15.2401 C   0  0  2  0  0  0  0  0  0  0  0  0
   21.8458   -6.5616  -16.1574 N   0  0  0  0  0  0  0  0  0  0  0  0
   21.0625   -5.1414  -14.3929 C   0  0  0  0  0  0  0  0  0  0  0  0
   19.8998   -5.3639  -14.7972 O   0  0  0  0  0  0  0  0  0  0  0  0
   21.2254   -4.5396  -13.1596 O   0  0  0  0  0  0  0  0  0  0  0  0
  2  3  1  0
  2  5  1  0
  2  1  1  6
  4  3  1  0
  5 11  1  0
  6  5  2  0
  8  7  1  6
  9  8  1  0
 10 11  1  1
 10 12  1  0
 10  8  1  0
 12 18  1  0
 13 12  2  0
 15 16  1  1
 15 14  1  0
 17 15  1  0
 17 18  1  6
 19 17  1  0
 20 19  2  0
 21 19  1  0
M  END
$$$$
