CTV.pdb
     RDKit          3D

 21 20  0  0  1  0  0  0  0  0999 V2000
   16.9506  -16.2300  -17.8872 N   0  0  0  0  0  0  0  0  0  0  0  0
   16.9767  -15.2065  -16.8903 C   0  0  1  0  0  0  0  0  0  0  0  0
   17.0173  -15.7913  -15.5021 C   0  0  0  0  0  0  0  0  0  0  0  0
   15.5294  -16.7268  -15.0997 S   0  0  0  0  0  0  0  0  0  0  0  0
   18.0644  -14.2131  -17.1123 C   0  0  0  0  0  0  0  0  0  0  0  0
   19.1999  -14.5890  -17.5048 O   0  0  0  0  0  0  0  0  0  0  0  0
   17.9752  -11.4183  -19.4619 C   0  0  0  0  0  0  0  0  0  0  0  0
   18.3194  -10.7925  -18.1293 C   0  0  1  0  0  0  0  0  0  0  0  0
   17.2396  -10.1503  -17.5636 O   0  0  0  0  0  0  0  0  0  0  0  0
   18.8912  -11.8421  -17.2017 C   0  0  2  0  0  0  0  0  0  0  0  0
   17.8627  -12.8201  -16.8917 N   0  0  0  0  0  0  0  0  0  0  0  0
   19.4224  -11.1998  -15.9746 C   0  0  0  0  0  0  0  0  0  0  0  0
   18.7949  -11.1390  -14.8890 O   0  0  0  0  0  0  0  0  0  0  0  0
   23.5784   -9.5692  -13.8788 C   0  0  0  0  0  0  0  0  0  0  0  0
   22.8890  -10.3441  -14.9790 C   0  0  1  0  0  0  0  0  0  0  0  0
   23.1531  -11.8174  -14.9116 C   0  0  0  0  0  0  0  0  0  0  0  0
   21.3972  -10.0451  -14.9211 C   0  0  2  0  0  0  0  0  0  0  0  0
   20.7169  -10.6241  -16.0453 N   0  0  0  0  0  0  0  0  0  0  0  0
   21.2582   -8.5593  -14.9555 C   0  0  0  0  0  0  0  0  0  0  0  0
   21.1980   -7.9650  -16.0547 O   0  0  0  0  0  0  0  0  0  0  0  0
   21.1930   -7.8076  -13.7978 O   0  0  0  0  0  0  0  0  0  0  0  0
  2  3  1  0
  2  5  1  0
  2  1  1  6
  4  3  1  0
  5 11  1  0
  6  5  2  0
  8  7  1  6
  9  8  1  0
 10 11  1  1
 10 12  1  0
 10  8  1  0
 12 18  1  0
 13 12  2  0
 15 16  1  1
 15 14  1  0
 17 15  1  0
 17 18  1  6
 19 17  1  0
 20 19  2  0
 21 19  1  0
M  END
$$$$
