CTV.pdb
     RDKit          3D

 21 20  0  0  1  0  0  0  0  0999 V2000
   17.6957  -12.0216  -16.6858 N   0  0  0  0  0  0  0  0  0  0  0  0
   18.8300  -11.6380  -15.9058 C   0  0  1  0  0  0  0  0  0  0  0  0
   19.5263  -12.8390  -15.3195 C   0  0  0  0  0  0  0  0  0  0  0  0
   18.6492  -13.5257  -13.9017 S   0  0  0  0  0  0  0  0  0  0  0  0
   19.7692  -10.7535  -16.6505 C   0  0  0  0  0  0  0  0  0  0  0  0
   20.3553  -11.1723  -17.6828 O   0  0  0  0  0  0  0  0  0  0  0  0
   21.4907   -6.3119  -17.7466 C   0  0  0  0  0  0  0  0  0  0  0  0
   20.4557   -7.2001  -17.0939 C   0  0  1  0  0  0  0  0  0  0  0  0
   19.2754   -7.2295  -17.8042 O   0  0  0  0  0  0  0  0  0  0  0  0
   21.0217   -8.5894  -16.8976 C   0  0  2  0  0  0  0  0  0  0  0  0
   20.0354   -9.4192  -16.2277 N   0  0  0  0  0  0  0  0  0  0  0  0
   22.2883   -8.5173  -16.1289 C   0  0  0  0  0  0  0  0  0  0  0  0
   22.3623   -8.1301  -14.9370 O   0  0  0  0  0  0  0  0  0  0  0  0
   26.8612  -10.1403  -15.7591 C   0  0  0  0  0  0  0  0  0  0  0  0
   25.4602  -10.2477  -16.3176 C   0  0  1  0  0  0  0  0  0  0  0  0
   24.6541  -11.3330  -15.6717 C   0  0  0  0  0  0  0  0  0  0  0  0
   24.7781   -8.8936  -16.1796 C   0  0  2  0  0  0  0  0  0  0  0  0
   23.4791   -8.9121  -16.7911 N   0  0  0  0  0  0  0  0  0  0  0  0
   25.6514   -7.9031  -16.8756 C   0  0  0  0  0  0  0  0  0  0  0  0
   25.4904   -7.6807  -18.0961 O   0  0  0  0  0  0  0  0  0  0  0  0
   26.6456   -7.2138  -16.2077 O   0  0  0  0  0  0  0  0  0  0  0  0
  2  3  1  0
  2  5  1  0
  2  1  1  6
  4  3  1  0
  5 11  1  0
  6  5  2  0
  8  7  1  6
  9  8  1  0
 10 11  1  1
 10 12  1  0
 10  8  1  0
 12 18  1  0
 13 12  2  0
 15 16  1  1
 15 14  1  0
 17 15  1  0
 17 18  1  6
 19 17  1  0
 20 19  2  0
 21 19  1  0
M  END
$$$$
