CTV.pdb
     RDKit          3D

 21 20  0  0  1  0  0  0  0  0999 V2000
   19.3710  -14.0107  -18.1278 N   0  0  0  0  0  0  0  0  0  0  0  0
   19.4691  -13.2035  -16.9526 C   0  0  1  0  0  0  0  0  0  0  0  0
   20.4547  -13.7804  -15.9694 C   0  0  0  0  0  0  0  0  0  0  0  0
   19.7360  -15.0819  -14.9494 S   0  0  0  0  0  0  0  0  0  0  0  0
   19.7531  -11.7733  -17.2576 C   0  0  0  0  0  0  0  0  0  0  0  0
   20.6660  -11.4639  -18.0673 O   0  0  0  0  0  0  0  0  0  0  0  0
   17.9126   -9.3539  -19.0109 C   0  0  0  0  0  0  0  0  0  0  0  0
   18.0910   -8.7162  -17.6516 C   0  0  1  0  0  0  0  0  0  0  0  0
   16.9528   -8.8108  -16.8810 O   0  0  0  0  0  0  0  0  0  0  0  0
   19.2880   -9.3230  -16.9531 C   0  0  2  0  0  0  0  0  0  0  0  0
   19.0124  -10.7173  -16.6527 N   0  0  0  0  0  0  0  0  0  0  0  0
   19.6044   -8.5517  -15.7262 C   0  0  0  0  0  0  0  0  0  0  0  0
   19.3432   -8.9478  -14.5639 O   0  0  0  0  0  0  0  0  0  0  0  0
   22.3350   -5.4671  -16.3021 C   0  0  0  0  0  0  0  0  0  0  0  0
   22.1237   -6.0798  -14.9361 C   0  0  1  0  0  0  0  0  0  0  0  0
   22.5633   -5.1840  -13.8183 C   0  0  0  0  0  0  0  0  0  0  0  0
   20.6561   -6.4603  -14.7970 C   0  0  2  0  0  0  0  0  0  0  0  0
   20.2396   -7.2939  -15.8895 N   0  0  0  0  0  0  0  0  0  0  0  0
   19.8815   -5.1844  -14.8096 C   0  0  0  0  0  0  0  0  0  0  0  0
   19.3880   -4.7664  -15.8805 O   0  0  0  0  0  0  0  0  0  0  0  0
   19.6885   -4.4391  -13.6622 O   0  0  0  0  0  0  0  0  0  0  0  0
  2  3  1  0
  2  5  1  0
  2  1  1  6
  4  3  1  0
  5 11  1  0
  6  5  2  0
  8  7  1  6
  9  8  1  0
 10 11  1  1
 10 12  1  0
 10  8  1  0
 12 18  1  0
 13 12  2  0
 15 16  1  1
 15 14  1  0
 17 15  1  0
 17 18  1  6
 19 17  1  0
 20 19  2  0
 21 19  1  0
M  END
$$$$
