CTV.pdb
     RDKit          3D

 21 20  0  0  1  0  0  0  0  0999 V2000
   14.8223  -11.0505  -15.9514 N   0  0  0  0  0  0  0  0  0  0  0  0
   16.0526  -10.9799  -15.2279 C   0  0  1  0  0  0  0  0  0  0  0  0
   16.8951  -12.2088  -15.4536 C   0  0  0  0  0  0  0  0  0  0  0  0
   16.4955  -13.5435  -14.3090 S   0  0  0  0  0  0  0  0  0  0  0  0
   16.8085   -9.7247  -15.4971 C   0  0  0  0  0  0  0  0  0  0  0  0
   17.1054   -9.4006  -16.6767 O   0  0  0  0  0  0  0  0  0  0  0  0
   15.9332   -6.4515  -15.6175 C   0  0  0  0  0  0  0  0  0  0  0  0
   16.9722   -6.4513  -14.5191 C   0  0  1  0  0  0  0  0  0  0  0  0
   16.4013   -6.4641  -13.2652 O   0  0  0  0  0  0  0  0  0  0  0  0
   17.9214   -7.6139  -14.7102 C   0  0  2  0  0  0  0  0  0  0  0  0
   17.2177   -8.8566  -14.4441 N   0  0  0  0  0  0  0  0  0  0  0  0
   19.1028   -7.4549  -13.8274 C   0  0  0  0  0  0  0  0  0  0  0  0
   19.1463   -7.8543  -12.6380 O   0  0  0  0  0  0  0  0  0  0  0  0
   22.4656   -8.7716  -14.0151 C   0  0  0  0  0  0  0  0  0  0  0  0
   22.6304   -7.2883  -14.2580 C   0  0  1  0  0  0  0  0  0  0  0  0
   22.7753   -6.9453  -15.7093 C   0  0  0  0  0  0  0  0  0  0  0  0
   21.4490   -6.5603  -13.6316 C   0  0  2  0  0  0  0  0  0  0  0  0
   20.2443   -6.8119  -14.3713 N   0  0  0  0  0  0  0  0  0  0  0  0
   21.7742   -5.1041  -13.6736 C   0  0  0  0  0  0  0  0  0  0  0  0
   22.6700   -4.6447  -12.9310 O   0  0  0  0  0  0  0  0  0  0  0  0
   21.1099   -4.2342  -14.5171 O   0  0  0  0  0  0  0  0  0  0  0  0
  2  3  1  0
  2  5  1  0
  2  1  1  6
  4  3  1  0
  5 11  1  0
  6  5  2  0
  8  7  1  6
  9  8  1  0
 10 11  1  1
 10 12  1  0
 10  8  1  0
 12 18  1  0
 13 12  2  0
 15 16  1  6
 15 14  1  0
 17 15  1  0
 17 18  1  6
 19 17  1  0
 20 19  2  0
 21 19  1  0
M  END
$$$$
