CTV.pdb
     RDKit          3D

 21 20  0  0  1  0  0  0  0  0999 V2000
   17.5672  -15.1226  -19.0555 N   0  0  0  0  0  0  0  0  0  0  0  0
   18.0376  -14.5830  -17.8187 C   0  0  1  0  0  0  0  0  0  0  0  0
   18.9469  -15.5509  -17.1064 C   0  0  0  0  0  0  0  0  0  0  0  0
   19.3954  -14.9919  -15.4519 S   0  0  0  0  0  0  0  0  0  0  0  0
   18.6616  -13.2395  -17.9760 C   0  0  0  0  0  0  0  0  0  0  0  0
   19.4464  -13.0099  -18.9332 O   0  0  0  0  0  0  0  0  0  0  0  0
   18.6586   -8.5556  -17.9749 C   0  0  0  0  0  0  0  0  0  0  0  0
   18.1258   -9.9702  -18.0090 C   0  0  1  0  0  0  0  0  0  0  0  0
   17.9646  -10.4326  -19.2968 O   0  0  0  0  0  0  0  0  0  0  0  0
   19.0269  -10.8776  -17.2005 C   0  0  2  0  0  0  0  0  0  0  0  0
   18.3971  -12.1793  -17.0617 N   0  0  0  0  0  0  0  0  0  0  0  0
   19.3117  -10.2646  -15.8802 C   0  0  0  0  0  0  0  0  0  0  0  0
   18.5205  -10.3020  -14.9061 O   0  0  0  0  0  0  0  0  0  0  0  0
   22.6825  -10.6434  -13.9475 C   0  0  0  0  0  0  0  0  0  0  0  0
   22.4572   -9.1812  -14.2594 C   0  0  1  0  0  0  0  0  0  0  0  0
   23.2788   -8.6956  -15.4145 C   0  0  0  0  0  0  0  0  0  0  0  0
   20.9708   -8.9612  -14.5049 C   0  0  2  0  0  0  0  0  0  0  0  0
   20.5547   -9.5999  -15.7217 N   0  0  0  0  0  0  0  0  0  0  0  0
   20.7701   -7.4860  -14.6130 C   0  0  0  0  0  0  0  0  0  0  0  0
   20.6966   -6.9488  -15.7404 O   0  0  0  0  0  0  0  0  0  0  0  0
   20.6611   -6.6826  -13.4940 O   0  0  0  0  0  0  0  0  0  0  0  0
  2  3  1  0
  2  5  1  0
  2  1  1  6
  4  3  1  0
  5 11  1  0
  6  5  2  0
  8  7  1  6
  9  8  1  0
 10 11  1  1
 10 12  1  0
 10  8  1  0
 12 18  1  0
 13 12  2  0
 15 16  1  6
 15 14  1  0
 17 15  1  0
 17 18  1  6
 19 17  1  0
 20 19  2  0
 21 19  1  0
M  END
$$$$
