CTV.pdb
     RDKit          3D

 21 20  0  0  1  0  0  0  0  0999 V2000
   16.7671  -15.1308  -17.8588 N   0  0  0  0  0  0  0  0  0  0  0  0
   16.7788  -14.1179  -16.8509 C   0  0  1  0  0  0  0  0  0  0  0  0
   16.7971  -14.7173  -15.4684 C   0  0  0  0  0  0  0  0  0  0  0  0
   15.2343  -15.5041  -15.0329 S   0  0  0  0  0  0  0  0  0  0  0  0
   17.8711  -13.1237  -17.0455 C   0  0  0  0  0  0  0  0  0  0  0  0
   19.0519  -13.5074  -17.2530 O   0  0  0  0  0  0  0  0  0  0  0  0
   17.7567  -10.1114  -19.4142 C   0  0  0  0  0  0  0  0  0  0  0  0
   18.1613   -9.6063  -18.0477 C   0  0  1  0  0  0  0  0  0  0  0  0
   17.1319   -8.9457  -17.4134 O   0  0  0  0  0  0  0  0  0  0  0  0
   18.6858  -10.7526  -17.2112 C   0  0  2  0  0  0  0  0  0  0  0  0
   17.6232  -11.7213  -17.0045 N   0  0  0  0  0  0  0  0  0  0  0  0
   19.2166  -10.2405  -15.9243 C   0  0  0  0  0  0  0  0  0  0  0  0
   18.5817  -10.2759  -14.8419 O   0  0  0  0  0  0  0  0  0  0  0  0
   23.3133   -8.8544  -13.5823 C   0  0  0  0  0  0  0  0  0  0  0  0
   22.6417   -9.5562  -14.7409 C   0  0  1  0  0  0  0  0  0  0  0  0
   22.8039  -11.0451  -14.6971 C   0  0  0  0  0  0  0  0  0  0  0  0
   21.1720   -9.1592  -14.7622 C   0  0  2  0  0  0  0  0  0  0  0  0
   20.5197   -9.6800  -15.9305 N   0  0  0  0  0  0  0  0  0  0  0  0
   21.1335   -7.6671  -14.7835 C   0  0  0  0  0  0  0  0  0  0  0  0
   20.9949   -7.0635  -15.8704 O   0  0  0  0  0  0  0  0  0  0  0  0
   21.2473   -6.9198  -13.6267 O   0  0  0  0  0  0  0  0  0  0  0  0
  2  3  1  0
  2  5  1  0
  2  1  1  6
  4  3  1  0
  5 11  1  0
  6  5  2  0
  8  7  1  6
  9  8  1  0
 10 11  1  1
 10 12  1  0
 10  8  1  0
 12 18  1  0
 13 12  2  0
 15 16  1  1
 15 14  1  0
 17 15  1  0
 17 18  1  6
 19 17  1  0
 20 19  2  0
 21 19  1  0
M  END
$$$$
