CTV.pdb
     RDKit          3D

 21 20  0  0  1  0  0  0  0  0999 V2000
   20.7330  -17.0539  -18.2188 N   0  0  0  0  0  0  0  0  0  0  0  0
   20.0804  -16.0473  -17.4423 C   0  0  1  0  0  0  0  0  0  0  0  0
   19.7581  -16.5440  -16.0565 C   0  0  0  0  0  0  0  0  0  0  0  0
   19.1031  -18.2238  -16.0566 S   0  0  0  0  0  0  0  0  0  0  0  0
   20.8322  -14.7615  -17.4163 C   0  0  0  0  0  0  0  0  0  0  0  0
   22.0892  -14.7599  -17.3482 O   0  0  0  0  0  0  0  0  0  0  0  0
   20.7858  -12.2329  -20.0241 C   0  0  0  0  0  0  0  0  0  0  0  0
   20.4316  -11.4781  -18.7628 C   0  0  1  0  0  0  0  0  0  0  0  0
   19.0857  -11.1918  -18.6906 O   0  0  0  0  0  0  0  0  0  0  0  0
   20.9013  -12.2534  -17.5515 C   0  0  2  0  0  0  0  0  0  0  0  0
   20.1657  -13.5032  -17.4668 N   0  0  0  0  0  0  0  0  0  0  0  0
   20.7300  -11.4342  -16.3268 C   0  0  0  0  0  0  0  0  0  0  0  0
   19.7452  -11.5288  -15.5539 O   0  0  0  0  0  0  0  0  0  0  0  0
   23.2477  -11.1973  -13.5449 C   0  0  0  0  0  0  0  0  0  0  0  0
   23.1186   -9.8090  -14.1296 C   0  0  1  0  0  0  0  0  0  0  0  0
   24.2408   -9.4581  -15.0583 C   0  0  0  0  0  0  0  0  0  0  0  0
   21.7686   -9.6994  -14.8252 C   0  0  2  0  0  0  0  0  0  0  0  0
   21.7457  -10.4921  -16.0222 N   0  0  0  0  0  0  0  0  0  0  0  0
   21.5810   -8.2589  -15.1680 C   0  0  0  0  0  0  0  0  0  0  0  0
   21.7427   -7.8734  -16.3472 O   0  0  0  0  0  0  0  0  0  0  0  0
   21.2298   -7.3235  -14.2134 O   0  0  0  0  0  0  0  0  0  0  0  0
  2  3  1  0
  2  5  1  0
  2  1  1  1
  4  3  1  0
  5 11  1  0
  6  5  2  0
  8  7  1  6
  9  8  1  0
 10 11  1  1
 10 12  1  0
 10  8  1  0
 12 18  1  0
 13 12  2  0
 15 16  1  6
 15 14  1  0
 17 15  1  0
 17 18  1  6
 19 17  1  0
 20 19  2  0
 21 19  1  0
M  END
$$$$
