CTV.pdb
     RDKit          3D

 21 20  0  0  1  0  0  0  0  0999 V2000
   14.4094  -13.4807  -16.7319 N   0  0  0  0  0  0  0  0  0  0  0  0
   15.3426  -13.0643  -15.7330 C   0  0  1  0  0  0  0  0  0  0  0  0
   15.9715  -14.2459  -15.0408 C   0  0  0  0  0  0  0  0  0  0  0  0
   14.8525  -15.0414  -13.8720 S   0  0  0  0  0  0  0  0  0  0  0  0
   16.3625  -12.1136  -16.2575 C   0  0  0  0  0  0  0  0  0  0  0  0
   16.9998  -12.3799  -17.3099 O   0  0  0  0  0  0  0  0  0  0  0  0
   16.2224   -8.8450  -17.7121 C   0  0  0  0  0  0  0  0  0  0  0  0
   17.0615   -8.6656  -16.4672 C   0  0  1  0  0  0  0  0  0  0  0  0
   16.3389   -8.1190  -15.4291 O   0  0  0  0  0  0  0  0  0  0  0  0
   17.6870   -9.9862  -16.0750 C   0  0  2  0  0  0  0  0  0  0  0  0
   16.6506  -10.8847  -15.5966 N   0  0  0  0  0  0  0  0  0  0  0  0
   18.7358   -9.7663  -15.0494 C   0  0  0  0  0  0  0  0  0  0  0  0
   18.5258   -9.8134  -13.8126 O   0  0  0  0  0  0  0  0  0  0  0  0
   23.5768   -9.6215  -14.2605 C   0  0  0  0  0  0  0  0  0  0  0  0
   22.4072   -9.9829  -15.1479 C   0  0  1  0  0  0  0  0  0  0  0  0
   22.1784  -11.4607  -15.2421 C   0  0  0  0  0  0  0  0  0  0  0  0
   21.1683   -9.2617  -14.6349 C   0  0  2  0  0  0  0  0  0  0  0  0
   20.0494   -9.4870  -15.5062 N   0  0  0  0  0  0  0  0  0  0  0  0
   21.5027   -7.8073  -14.6059 C   0  0  0  0  0  0  0  0  0  0  0  0
   22.2522   -7.3587  -13.7104 O   0  0  0  0  0  0  0  0  0  0  0  0
   21.0052   -6.9274  -15.5482 O   0  0  0  0  0  0  0  0  0  0  0  0
  2  3  1  0
  2  5  1  0
  2  1  1  6
  4  3  1  0
  5 11  1  0
  6  5  2  0
  8  7  1  6
  9  8  1  0
 10 11  1  1
 10 12  1  0
 10  8  1  0
 12 18  1  0
 13 12  2  0
 15 16  1  1
 15 14  1  0
 17 15  1  0
 17 18  1  6
 19 17  1  0
 20 19  2  0
 21 19  1  0
M  END
$$$$
