CTV.pdb
     RDKit          3D

 21 20  0  0  1  0  0  0  0  0999 V2000
   24.8343  -20.8859   -9.0337 N   0  0  0  0  0  0  0  0  0  0  0  0
   24.3993  -20.8254  -10.3935 C   0  0  1  0  0  0  0  0  0  0  0  0
   23.0284  -20.2098  -10.5059 C   0  0  0  0  0  0  0  0  0  0  0  0
   21.7102  -21.3750  -10.1112 S   0  0  0  0  0  0  0  0  0  0  0  0
   25.3882  -20.1587  -11.2861 C   0  0  0  0  0  0  0  0  0  0  0  0
   26.1997  -19.3164  -10.8207 O   0  0  0  0  0  0  0  0  0  0  0  0
   28.4387  -20.1545  -14.9323 C   0  0  0  0  0  0  0  0  0  0  0  0
   27.4084  -20.8233  -14.0507 C   0  0  1  0  0  0  0  0  0  0  0  0
   27.9878  -21.5178  -13.0113 O   0  0  0  0  0  0  0  0  0  0  0  0
   26.4172  -19.7961  -13.5495 C   0  0  2  0  0  0  0  0  0  0  0  0
   25.4513  -20.4455  -12.6802 N   0  0  0  0  0  0  0  0  0  0  0  0
   25.7567  -19.1264  -14.6965 C   0  0  0  0  0  0  0  0  0  0  0  0
   24.8483  -19.6522  -15.3853 O   0  0  0  0  0  0  0  0  0  0  0  0
   27.0399  -15.1794  -15.2479 C   0  0  0  0  0  0  0  0  0  0  0  0
   25.6102  -15.5198  -15.6033 C   0  0  1  0  0  0  0  0  0  0  0  0
   25.0459  -14.6344  -16.6722 C   0  0  0  0  0  0  0  0  0  0  0  0
   25.5471  -16.9863  -16.0077 C   0  0  2  0  0  0  0  0  0  0  0  0
   26.1859  -17.8146  -15.0240 N   0  0  0  0  0  0  0  0  0  0  0  0
   26.2664  -17.1009  -17.3105 C   0  0  0  0  0  0  0  0  0  0  0  0
   27.5030  -17.2901  -17.3243 O   0  0  0  0  0  0  0  0  0  0  0  0
   25.6032  -17.0037  -18.5189 O   0  0  0  0  0  0  0  0  0  0  0  0
  2  3  1  0
  2  5  1  0
  2  1  1  1
  4  3  1  0
  5 11  1  0
  6  5  2  0
  8  7  1  1
  9  8  1  0
 10 11  1  1
 10 12  1  0
 10  8  1  0
 12 18  1  0
 13 12  2  0
 15 16  1  6
 15 14  1  0
 17 15  1  0
 17 18  1  1
 19 17  1  0
 20 19  2  0
 21 19  1  0
M  END
$$$$
