CTV.pdb
     RDKit          3D

 21 20  0  0  1  0  0  0  0  0999 V2000
   19.1408  -12.7056  -17.0555 N   0  0  0  0  0  0  0  0  0  0  0  0
   20.0117  -11.6345  -17.4248 C   0  0  1  0  0  0  0  0  0  0  0  0
   20.1950  -11.5645  -18.9189 C   0  0  0  0  0  0  0  0  0  0  0  0
   20.9919  -13.0363  -19.5897 S   0  0  0  0  0  0  0  0  0  0  0  0
   19.5924  -10.3260  -16.8495 C   0  0  0  0  0  0  0  0  0  0  0  0
   18.4017   -9.9332  -16.9615 O   0  0  0  0  0  0  0  0  0  0  0  0
   17.8807   -9.3267  -15.0285 C   0  0  0  0  0  0  0  0  0  0  0  0
   19.0746   -8.6384  -14.4065 C   0  0  1  0  0  0  0  0  0  0  0  0
   19.6525   -9.3990  -13.4136 O   0  0  0  0  0  0  0  0  0  0  0  0
   20.0748   -8.2741  -15.4817 C   0  0  2  0  0  0  0  0  0  0  0  0
   20.5108   -9.4821  -16.1606 N   0  0  0  0  0  0  0  0  0  0  0  0
   21.2171   -7.5401  -14.8846 C   0  0  0  0  0  0  0  0  0  0  0  0
   22.2654   -8.0937  -14.4714 O   0  0  0  0  0  0  0  0  0  0  0  0
   22.9124   -4.7962  -16.7309 C   0  0  0  0  0  0  0  0  0  0  0  0
   22.3817   -4.1699  -15.4612 C   0  0  1  0  0  0  0  0  0  0  0  0
   21.1149   -3.3985  -15.6739 C   0  0  0  0  0  0  0  0  0  0  0  0
   22.1953   -5.2660  -14.4211 C   0  0  2  0  0  0  0  0  0  0  0  0
   21.1059   -6.1298  -14.7799 N   0  0  0  0  0  0  0  0  0  0  0  0
   21.8945   -4.5815  -13.1291 C   0  0  0  0  0  0  0  0  0  0  0  0
   20.7299   -4.5977  -12.6725 O   0  0  0  0  0  0  0  0  0  0  0  0
   22.8728   -3.9214  -12.4104 O   0  0  0  0  0  0  0  0  0  0  0  0
  2  3  1  0
  2  5  1  0
  2  1  1  6
  4  3  1  0
  5 11  1  0
  6  5  2  0
  8  7  1  6
  9  8  1  0
 10 11  1  1
 10 12  1  0
 10  8  1  0
 12 18  1  0
 13 12  2  0
 15 16  1  6
 15 14  1  0
 17 15  1  0
 17 18  1  6
 19 17  1  0
 20 19  2  0
 21 19  1  0
M  END
$$$$
