DNA.pdb
     RDKit          3D

 22 21  0  0  1  0  0  0  0  0999 V2000
    8.5616  -17.5763   17.0853 N   0  0  0  0  0  0  0  0  0  0  0  0
    9.9225  -17.0846   17.0732 C   0  0  1  0  0  0  0  0  0  0  0  0
   10.1619  -16.1990   15.8712 C   0  0  0  0  0  0  0  0  0  0  0  0
   10.5568  -16.9812   14.6768 C   0  0  0  0  0  0  0  0  0  0  0  0
   11.1872  -18.0458   14.7259 O   0  0  0  0  0  0  0  0  0  0  0  0
   10.1402  -16.2829   18.2978 C   0  0  0  0  0  0  0  0  0  0  0  0
   11.3002  -15.9097   18.5851 O   0  0  0  0  0  0  0  0  0  0  0  0
   10.1986  -16.4904   13.4303 O   0  0  0  0  0  0  0  0  0  0  0  0
    6.9305  -13.2192   18.5876 N   0  0  0  0  0  0  0  0  0  0  0  0
    7.9109  -13.2695   19.6023 C   0  0  0  0  0  0  0  0  0  0  0  0
    8.7437  -12.3381   19.6832 O   0  0  0  0  0  0  0  0  0  0  0  0
    7.9637  -14.3838   20.5508 C   0  0  0  0  0  0  0  0  0  0  0  0
    9.2006  -15.2487   20.3453 C   0  0  2  0  0  0  0  0  0  0  0  0
    9.0207  -15.9648   19.1035 N   0  0  0  0  0  0  0  0  0  0  0  0
    9.4760  -16.1785   21.4444 C   0  0  0  0  0  0  0  0  0  0  0  0
    8.7265  -17.1706   21.6130 O   0  0  0  0  0  0  0  0  0  0  0  0
   12.2683  -17.0818   23.7443 C   0  0  0  0  0  0  0  0  0  0  0  0
   10.7885  -16.9290   23.4571 C   0  0  2  0  0  0  0  0  0  0  0  0
   10.5591  -16.0243   22.3491 N   0  0  0  0  0  0  0  0  0  0  0  0
   10.1147  -16.4824   24.6917 C   0  0  0  0  0  0  0  0  0  0  0  0
   10.1179  -17.2476   25.8407 O   0  0  0  0  0  0  0  0  0  0  0  0
    9.5224  -15.3816   24.7067 O   0  0  0  0  0  0  0  0  0  0  0  0
  2  1  1  1
  3  4  1  0
  3  2  1  0
  4  5  2  0
  6  7  2  0
  6  2  1  0
  8  4  1  0
  9 10  1  0
 10 12  1  0
 11 10  2  0
 13 12  1  1
 13 14  1  0
 13 15  1  0
 14  6  1  0
 15 19  1  0
 16 15  2  0
 18 17  1  1
 19 18  1  0
 20 18  1  0
 20 21  1  0
 22 20  2  0
M  END
$$$$
