DNA.pdb
     RDKit          3D

 22 21  0  0  1  0  0  0  0  0999 V2000
   11.5024  -14.3875   17.1645 N   0  0  0  0  0  0  0  0  0  0  0  0
   11.7439  -15.8116   17.2518 C   0  0  1  0  0  0  0  0  0  0  0  0
   12.2157  -16.3578   15.9230 C   0  0  0  0  0  0  0  0  0  0  0  0
   11.2063  -16.1666   14.8558 C   0  0  0  0  0  0  0  0  0  0  0  0
   11.2357  -15.2397   14.0353 O   0  0  0  0  0  0  0  0  0  0  0  0
   12.8037  -16.0447   18.2581 C   0  0  0  0  0  0  0  0  0  0  0  0
   13.2031  -17.2131   18.4647 O   0  0  0  0  0  0  0  0  0  0  0  0
   10.1670  -17.0809   14.7722 O   0  0  0  0  0  0  0  0  0  0  0  0
   15.9965  -13.2876   17.3734 N   0  0  0  0  0  0  0  0  0  0  0  0
   16.0928  -14.2558   18.3965 C   0  0  0  0  0  0  0  0  0  0  0  0
   16.7592  -15.2942   18.1836 O   0  0  0  0  0  0  0  0  0  0  0  0
   15.4320  -14.0616   19.6886 C   0  0  0  0  0  0  0  0  0  0  0  0
   14.3632  -15.1159   19.9461 C   0  0  2  0  0  0  0  0  0  0  0  0
   13.3304  -14.9298   18.9532 N   0  0  0  0  0  0  0  0  0  0  0  0
   13.7954  -15.0821   21.2970 C   0  0  0  0  0  0  0  0  0  0  0  0
   13.9296  -14.0478   21.9947 O   0  0  0  0  0  0  0  0  0  0  0  0
   11.0273  -15.8279   23.1508 C   0  0  0  0  0  0  0  0  0  0  0  0
   12.5154  -16.1070   23.2070 C   0  0  2  0  0  0  0  0  0  0  0  0
   13.0890  -16.1678   21.8780 N   0  0  0  0  0  0  0  0  0  0  0  0
   12.7304  -17.3542   23.9658 C   0  0  0  0  0  0  0  0  0  0  0  0
   13.1926  -18.5051   23.3594 O   0  0  0  0  0  0  0  0  0  0  0  0
   12.4904  -17.3783   25.1924 O   0  0  0  0  0  0  0  0  0  0  0  0
  2  1  1  6
  3  4  1  0
  3  2  1  0
  4  5  2  0
  6  7  2  0
  6  2  1  0
  8  4  1  0
  9 10  1  0
 10 12  1  0
 11 10  2  0
 13 12  1  1
 13 14  1  0
 13 15  1  0
 14  6  1  0
 15 19  1  0
 16 15  2  0
 18 17  1  6
 19 18  1  0
 20 18  1  0
 20 21  1  0
 22 20  2  0
M  END
$$$$
