DNA.pdb
     RDKit          3D

 22 21  0  0  1  0  0  0  0  0999 V2000
   11.4484  -17.9698   21.4867 N   0  0  0  0  0  0  0  0  0  0  0  0
   10.9340  -16.6221   21.3720 C   0  0  1  0  0  0  0  0  0  0  0  0
   10.0536  -16.4866   20.1500 C   0  0  0  0  0  0  0  0  0  0  0  0
   10.7459  -16.9277   18.9169 C   0  0  0  0  0  0  0  0  0  0  0  0
   10.3128  -17.8046   18.1577 O   0  0  0  0  0  0  0  0  0  0  0  0
   10.1194  -16.3294   22.5723 C   0  0  0  0  0  0  0  0  0  0  0  0
    9.4780  -15.2557   22.6279 O   0  0  0  0  0  0  0  0  0  0  0  0
   11.9509  -16.3213   18.5953 O   0  0  0  0  0  0  0  0  0  0  0  0
    6.5047  -18.0942   26.2852 N   0  0  0  0  0  0  0  0  0  0  0  0
    7.8758  -18.4228   26.3583 C   0  0  0  0  0  0  0  0  0  0  0  0
    8.3777  -18.6715   27.4782 O   0  0  0  0  0  0  0  0  0  0  0  0
    8.7076  -18.4773   25.1545 C   0  0  0  0  0  0  0  0  0  0  0  0
    9.2096  -17.0983   24.7460 C   0  0  2  0  0  0  0  0  0  0  0  0
   10.0951  -17.2816   23.6193 N   0  0  0  0  0  0  0  0  0  0  0  0
    9.8817  -16.3589   25.8184 C   0  0  0  0  0  0  0  0  0  0  0  0
   11.0795  -16.6187   26.0873 O   0  0  0  0  0  0  0  0  0  0  0  0
    9.1193  -13.3852   28.0444 C   0  0  0  0  0  0  0  0  0  0  0  0
    9.9595  -14.5538   27.5713 C   0  0  2  0  0  0  0  0  0  0  0  0
    9.2502  -15.3469   26.5880 N   0  0  0  0  0  0  0  0  0  0  0  0
   10.3602  -15.3500   28.7474 C   0  0  0  0  0  0  0  0  0  0  0  0
   10.0253  -16.6834   28.8726 O   0  0  0  0  0  0  0  0  0  0  0  0
   11.0220  -14.8102   29.6604 O   0  0  0  0  0  0  0  0  0  0  0  0
  2  1  1  1
  3  4  1  0
  3  2  1  0
  4  5  2  0
  6  7  2  0
  6  2  1  0
  8  4  1  0
  9 10  1  0
 10 12  1  0
 11 10  2  0
 13 12  1  1
 13 14  1  0
 13 15  1  0
 14  6  1  0
 15 19  1  0
 16 15  2  0
 18 17  1  1
 19 18  1  0
 20 18  1  0
 20 21  1  0
 22 20  2  0
M  END
$$$$
