DNA.pdb
     RDKit          3D

 22 21  0  0  1  0  0  0  0  0999 V2000
    8.7127  -18.1885   20.0330 N   0  0  0  0  0  0  0  0  0  0  0  0
    9.9372  -17.4343   19.8718 C   0  0  1  0  0  0  0  0  0  0  0  0
   10.2654  -17.2518   18.4070 C   0  0  0  0  0  0  0  0  0  0  0  0
   10.0869  -18.5059   17.6390 C   0  0  0  0  0  0  0  0  0  0  0  0
    9.0087  -18.8691   17.1506 O   0  0  0  0  0  0  0  0  0  0  0  0
    9.7465  -16.0988   20.4800 C   0  0  0  0  0  0  0  0  0  0  0  0
   10.6796  -15.2656   20.4287 O   0  0  0  0  0  0  0  0  0  0  0  0
   11.1944  -19.3205   17.4574 O   0  0  0  0  0  0  0  0  0  0  0  0
    7.9345  -12.0965   19.3561 N   0  0  0  0  0  0  0  0  0  0  0  0
    7.5366  -13.4286   19.6023 C   0  0  0  0  0  0  0  0  0  0  0  0
    7.5359  -14.2435   18.6516 O   0  0  0  0  0  0  0  0  0  0  0  0
    7.1311  -13.8637   20.9403 C   0  0  0  0  0  0  0  0  0  0  0  0
    8.2791  -14.5163   21.6994 C   0  0  2  0  0  0  0  0  0  0  0  0
    8.5072  -15.8111   21.1005 N   0  0  0  0  0  0  0  0  0  0  0  0
    8.0524  -14.6453   23.1418 C   0  0  0  0  0  0  0  0  0  0  0  0
    7.2141  -13.8983   23.7018 O   0  0  0  0  0  0  0  0  0  0  0  0
    7.0315  -16.1996   25.6053 C   0  0  0  0  0  0  0  0  0  0  0  0
    8.4550  -15.7347   25.3752 C   0  0  2  0  0  0  0  0  0  0  0  0
    8.7356  -15.5811   23.9622 N   0  0  0  0  0  0  0  0  0  0  0  0
    9.3716  -16.6907   26.0260 C   0  0  0  0  0  0  0  0  0  0  0  0
    9.3769  -16.8787   27.3937 O   0  0  0  0  0  0  0  0  0  0  0  0
   10.1687  -17.3533   25.3271 O   0  0  0  0  0  0  0  0  0  0  0  0
  2  1  1  6
  3  4  1  0
  3  2  1  0
  4  5  2  0
  6  7  2  0
  6  2  1  0
  8  4  1  0
  9 10  1  0
 10 12  1  0
 11 10  2  0
 13 12  1  6
 13 14  1  0
 13 15  1  0
 14  6  1  0
 15 19  1  0
 16 15  2  0
 18 17  1  6
 19 18  1  0
 20 18  1  0
 20 21  1  0
 22 20  2  0
M  END
$$$$
