DNA.pdb
     RDKit          3D

 22 21  0  0  1  0  0  0  0  0999 V2000
   15.7173  -16.3472   17.9518 N   0  0  0  0  0  0  0  0  0  0  0  0
   15.4117  -15.0486   18.5124 C   0  0  1  0  0  0  0  0  0  0  0  0
   15.4637  -13.9784   17.4453 C   0  0  0  0  0  0  0  0  0  0  0  0
   16.8389  -13.7714   16.9351 C   0  0  0  0  0  0  0  0  0  0  0  0
   17.8501  -14.2588   17.4577 O   0  0  0  0  0  0  0  0  0  0  0  0
   14.0410  -15.0908   19.0685 C   0  0  0  0  0  0  0  0  0  0  0  0
   13.5511  -14.0511   19.5649 O   0  0  0  0  0  0  0  0  0  0  0  0
   17.0018  -12.9846   15.8049 O   0  0  0  0  0  0  0  0  0  0  0  0
    9.4374  -16.8578   20.4988 N   0  0  0  0  0  0  0  0  0  0  0  0
    9.9754  -17.7810   19.5759 C   0  0  0  0  0  0  0  0  0  0  0  0
    9.2577  -18.7287   19.1828 O   0  0  0  0  0  0  0  0  0  0  0  0
   11.3454  -17.6441   19.0777 C   0  0  0  0  0  0  0  0  0  0  0  0
   12.0541  -16.4394   19.6833 C   0  0  2  0  0  0  0  0  0  0  0  0
   13.3297  -16.3135   19.0168 N   0  0  0  0  0  0  0  0  0  0  0  0
   12.2336  -16.5125   21.1362 C   0  0  0  0  0  0  0  0  0  0  0  0
   13.2683  -17.0483   21.6018 O   0  0  0  0  0  0  0  0  0  0  0  0
   10.4821  -15.2306   24.2442 C   0  0  0  0  0  0  0  0  0  0  0  0
   11.4851  -16.0902   23.5023 C   0  0  2  0  0  0  0  0  0  0  0  0
   11.2913  -16.0054   22.0690 N   0  0  0  0  0  0  0  0  0  0  0  0
   11.3749  -17.4751   23.9999 C   0  0  0  0  0  0  0  0  0  0  0  0
   10.8716  -18.4930   23.2150 O   0  0  0  0  0  0  0  0  0  0  0  0
   11.7457  -17.7431   25.1633 O   0  0  0  0  0  0  0  0  0  0  0  0
  2  1  1  6
  3  4  1  0
  3  2  1  0
  4  5  2  0
  6  7  2  0
  6  2  1  0
  8  4  1  0
  9 10  1  0
 10 12  1  0
 11 10  2  0
 13 12  1  6
 13 14  1  0
 13 15  1  0
 14  6  1  0
 15 19  1  0
 16 15  2  0
 18 17  1  1
 19 18  1  0
 20 18  1  0
 20 21  1  0
 22 20  2  0
M  END
$$$$
