DNA.pdb
     RDKit          3D

 22 21  0  0  1  0  0  0  0  0999 V2000
    9.2510  -17.8149   16.3402 N   0  0  0  0  0  0  0  0  0  0  0  0
    8.6950  -19.0693   16.7999 C   0  0  1  0  0  0  0  0  0  0  0  0
    8.5751  -20.0530   15.6577 C   0  0  0  0  0  0  0  0  0  0  0  0
    7.8287  -19.4831   14.5120 C   0  0  0  0  0  0  0  0  0  0  0  0
    7.5095  -18.2903   14.4203 O   0  0  0  0  0  0  0  0  0  0  0  0
    9.6066  -19.6395   17.8167 C   0  0  0  0  0  0  0  0  0  0  0  0
    9.3413  -20.7560   18.3171 O   0  0  0  0  0  0  0  0  0  0  0  0
    7.4665  -20.3379   13.4818 O   0  0  0  0  0  0  0  0  0  0  0  0
   15.3621  -19.0572   19.6643 N   0  0  0  0  0  0  0  0  0  0  0  0
   14.1090  -19.6963   19.5425 C   0  0  0  0  0  0  0  0  0  0  0  0
   13.8821  -20.7157   20.2332 O   0  0  0  0  0  0  0  0  0  0  0  0
   13.0834  -19.1863   18.6304 C   0  0  0  0  0  0  0  0  0  0  0  0
   11.6768  -19.4262   19.1633 C   0  0  2  0  0  0  0  0  0  0  0  0
   10.7530  -18.8963   18.1870 N   0  0  0  0  0  0  0  0  0  0  0  0
   11.4248  -18.8438   20.4845 C   0  0  0  0  0  0  0  0  0  0  0  0
   11.8954  -17.7134   20.7583 O   0  0  0  0  0  0  0  0  0  0  0  0
    9.0430  -19.2340   23.3074 C   0  0  0  0  0  0  0  0  0  0  0  0
   10.4295  -18.8998   22.7962 C   0  0  2  0  0  0  0  0  0  0  0  0
   10.6665  -19.4914   21.4951 N   0  0  0  0  0  0  0  0  0  0  0  0
   11.4181  -19.3412   23.7989 C   0  0  0  0  0  0  0  0  0  0  0  0
   12.1972  -20.4648   23.6080 O   0  0  0  0  0  0  0  0  0  0  0  0
   11.5612  -18.6851   24.8534 O   0  0  0  0  0  0  0  0  0  0  0  0
  2  1  1  6
  3  4  1  0
  3  2  1  0
  4  5  2  0
  6  7  2  0
  6  2  1  0
  8  4  1  0
  9 10  1  0
 10 12  1  0
 11 10  2  0
 13 12  1  6
 13 14  1  0
 13 15  1  0
 14  6  1  0
 15 19  1  0
 16 15  2  0
 18 17  1  1
 19 18  1  0
 20 18  1  0
 20 21  1  0
 22 20  2  0
M  END
$$$$
