DNA.pdb
     RDKit          3D

 22 21  0  0  1  0  0  0  0  0999 V2000
   12.5102  -16.1983   18.4723 N   0  0  0  0  0  0  0  0  0  0  0  0
   13.0426  -15.1793   19.3512 C   0  0  1  0  0  0  0  0  0  0  0  0
   13.7951  -14.1311   18.5627 C   0  0  0  0  0  0  0  0  0  0  0  0
   15.0378  -14.6732   17.9660 C   0  0  0  0  0  0  0  0  0  0  0  0
   15.6228  -15.6808   18.3851 O   0  0  0  0  0  0  0  0  0  0  0  0
   11.9117  -14.5232   20.0444 C   0  0  0  0  0  0  0  0  0  0  0  0
   12.1457  -13.5932   20.8493 O   0  0  0  0  0  0  0  0  0  0  0  0
   15.5769  -14.0115   16.8730 O   0  0  0  0  0  0  0  0  0  0  0  0
    9.0930  -12.9794   18.0508 N   0  0  0  0  0  0  0  0  0  0  0  0
    8.1347  -13.9636   18.3773 C   0  0  0  0  0  0  0  0  0  0  0  0
    7.1954  -14.1796   17.5780 O   0  0  0  0  0  0  0  0  0  0  0  0
    8.2260  -14.7266   19.6236 C   0  0  0  0  0  0  0  0  0  0  0  0
    9.4679  -14.3606   20.4261 C   0  0  2  0  0  0  0  0  0  0  0  0
   10.5986  -14.9742   19.7688 N   0  0  0  0  0  0  0  0  0  0  0  0
    9.4123  -14.7543   21.8368 C   0  0  0  0  0  0  0  0  0  0  0  0
   10.3572  -14.4408   22.6005 O   0  0  0  0  0  0  0  0  0  0  0  0
    8.1526  -14.2838   24.5301 C   0  0  0  0  0  0  0  0  0  0  0  0
    8.1579  -15.6305   23.8359 C   0  0  2  0  0  0  0  0  0  0  0  0
    8.3350  -15.4834   22.4055 N   0  0  0  0  0  0  0  0  0  0  0  0
    6.9076  -16.3376   24.1741 C   0  0  0  0  0  0  0  0  0  0  0  0
    6.6408  -16.7718   25.4571 O   0  0  0  0  0  0  0  0  0  0  0  0
    6.0606  -16.5533   23.2803 O   0  0  0  0  0  0  0  0  0  0  0  0
  2  1  1  6
  3  4  1  0
  3  2  1  0
  4  5  2  0
  6  7  2  0
  6  2  1  0
  8  4  1  0
  9 10  1  0
 10 12  1  0
 11 10  2  0
 13 12  1  6
 13 14  1  0
 13 15  1  0
 14  6  1  0
 15 19  1  0
 16 15  2  0
 18 17  1  1
 19 18  1  0
 20 18  1  0
 20 21  1  0
 22 20  2  0
M  END
$$$$
