DNA.pdb
     RDKit          3D

 22 21  0  0  1  0  0  0  0  0999 V2000
    8.9705  -13.1921   17.5363 N   0  0  0  0  0  0  0  0  0  0  0  0
    8.7152  -14.6157   17.4884 C   0  0  1  0  0  0  0  0  0  0  0  0
    8.8301  -15.1336   16.0724 C   0  0  0  0  0  0  0  0  0  0  0  0
    7.9048  -14.4350   15.1504 C   0  0  0  0  0  0  0  0  0  0  0  0
    7.0947  -13.5701   15.5092 O   0  0  0  0  0  0  0  0  0  0  0  0
    9.7283  -15.3001   18.3222 C   0  0  0  0  0  0  0  0  0  0  0  0
    9.6876  -16.5466   18.4323 O   0  0  0  0  0  0  0  0  0  0  0  0
    7.9498  -14.7709   13.8057 O   0  0  0  0  0  0  0  0  0  0  0  0
   13.9923  -14.4385   17.2928 N   0  0  0  0  0  0  0  0  0  0  0  0
   13.5154  -15.2413   18.3518 C   0  0  0  0  0  0  0  0  0  0  0  0
   13.5256  -16.4861   18.2170 O   0  0  0  0  0  0  0  0  0  0  0  0
   13.0164  -14.6429   19.5915 C   0  0  0  0  0  0  0  0  0  0  0  0
   11.6086  -15.1180   19.9271 C   0  0  2  0  0  0  0  0  0  0  0  0
   10.7129  -14.5143   18.9676 N   0  0  0  0  0  0  0  0  0  0  0  0
   11.1806  -14.8168   21.2962 C   0  0  0  0  0  0  0  0  0  0  0  0
   12.0259  -14.4089   22.1291 O   0  0  0  0  0  0  0  0  0  0  0  0
    8.0789  -14.1017   23.2109 C   0  0  0  0  0  0  0  0  0  0  0  0
    9.4536  -14.7329   23.1259 C   0  0  2  0  0  0  0  0  0  0  0  0
    9.8429  -14.9607   21.7491 N   0  0  0  0  0  0  0  0  0  0  0  0
    9.4480  -15.9779   23.9181 C   0  0  0  0  0  0  0  0  0  0  0  0
    9.4062  -15.9629   25.2979 O   0  0  0  0  0  0  0  0  0  0  0  0
    9.4814  -17.0815   23.3317 O   0  0  0  0  0  0  0  0  0  0  0  0
  2  1  1  6
  3  4  1  0
  3  2  1  0
  4  5  2  0
  6  7  2  0
  6  2  1  0
  8  4  1  0
  9 10  1  0
 10 12  1  0
 11 10  2  0
 13 12  1  6
 13 14  1  0
 13 15  1  0
 14  6  1  0
 15 19  1  0
 16 15  2  0
 18 17  1  6
 19 18  1  0
 20 18  1  0
 20 21  1  0
 22 20  2  0
M  END
$$$$
