DNA.pdb
     RDKit          3D

 22 21  0  0  1  0  0  0  0  0999 V2000
   12.1450  -17.0773   20.3065 N   0  0  0  0  0  0  0  0  0  0  0  0
   12.0781  -15.9375   21.1955 C   0  0  1  0  0  0  0  0  0  0  0  0
   12.1862  -14.6447   20.4186 C   0  0  0  0  0  0  0  0  0  0  0  0
   13.5226  -14.4795   19.8014 C   0  0  0  0  0  0  0  0  0  0  0  0
   14.5800  -14.4387   20.4443 O   0  0  0  0  0  0  0  0  0  0  0  0
   10.7704  -15.9612   21.8878 C   0  0  0  0  0  0  0  0  0  0  0  0
    9.7240  -15.7901   21.2221 O   0  0  0  0  0  0  0  0  0  0  0  0
   13.5918  -14.3637   18.4212 O   0  0  0  0  0  0  0  0  0  0  0  0
    7.9309  -18.5003   26.4373 N   0  0  0  0  0  0  0  0  0  0  0  0
    8.0200  -17.6407   25.3208 C   0  0  0  0  0  0  0  0  0  0  0  0
    7.0292  -16.9362   25.0212 O   0  0  0  0  0  0  0  0  0  0  0  0
    9.2431  -17.5630   24.5196 C   0  0  0  0  0  0  0  0  0  0  0  0
    9.5004  -16.1516   24.0079 C   0  0  2  0  0  0  0  0  0  0  0  0
   10.7516  -16.1792   23.2862 N   0  0  0  0  0  0  0  0  0  0  0  0
    9.5286  -15.1261   25.0549 C   0  0  0  0  0  0  0  0  0  0  0  0
    9.4115  -13.9183   24.7359 O   0  0  0  0  0  0  0  0  0  0  0  0
    8.5970  -13.4322   27.3615 C   0  0  0  0  0  0  0  0  0  0  0  0
    9.7691  -14.3882   27.4496 C   0  0  2  0  0  0  0  0  0  0  0  0
    9.6837  -15.4191   26.4353 N   0  0  0  0  0  0  0  0  0  0  0  0
    9.8154  -14.9492   28.8137 C   0  0  0  0  0  0  0  0  0  0  0  0
    9.6526  -16.2992   29.0519 O   0  0  0  0  0  0  0  0  0  0  0  0
   10.0073  -14.1880   29.7867 O   0  0  0  0  0  0  0  0  0  0  0  0
  2  1  1  6
  3  4  1  0
  3  2  1  0
  4  5  2  0
  6  7  2  0
  6  2  1  0
  8  4  1  0
  9 10  1  0
 10 12  1  0
 11 10  2  0
 13 12  1  1
 13 14  1  0
 13 15  1  0
 14  6  1  0
 15 19  1  0
 16 15  2  0
 18 17  1  1
 19 18  1  0
 20 18  1  0
 20 21  1  0
 22 20  2  0
M  END
$$$$
