DNA.pdb
     RDKit          3D

 22 21  0  0  1  0  0  0  0  0999 V2000
   11.5899  -18.4991   21.9385 N   0  0  0  0  0  0  0  0  0  0  0  0
   11.9524  -17.1137   22.1468 C   0  0  1  0  0  0  0  0  0  0  0  0
   12.4061  -16.4778   20.8520 C   0  0  0  0  0  0  0  0  0  0  0  0
   13.8225  -16.7883   20.5490 C   0  0  0  0  0  0  0  0  0  0  0  0
   14.5630  -17.4376   21.2994 O   0  0  0  0  0  0  0  0  0  0  0  0
   10.7589  -16.3868   22.6339 C   0  0  0  0  0  0  0  0  0  0  0  0
   10.8546  -15.1684   22.9050 O   0  0  0  0  0  0  0  0  0  0  0  0
   14.3489  -16.3231   19.3534 O   0  0  0  0  0  0  0  0  0  0  0  0
    5.6291  -18.9255   22.6654 N   0  0  0  0  0  0  0  0  0  0  0  0
    6.9321  -18.3856   22.7304 C   0  0  0  0  0  0  0  0  0  0  0  0
    7.8833  -19.1404   23.0359 O   0  0  0  0  0  0  0  0  0  0  0  0
    7.1815  -16.9710   22.4468 C   0  0  0  0  0  0  0  0  0  0  0  0
    8.3578  -16.4281   23.2480 C   0  0  2  0  0  0  0  0  0  0  0  0
    9.5452  -17.1014   22.7749 N   0  0  0  0  0  0  0  0  0  0  0  0
    8.2201  -16.5791   24.6994 C   0  0  0  0  0  0  0  0  0  0  0  0
    7.2783  -15.9987   25.2915 O   0  0  0  0  0  0  0  0  0  0  0  0
    7.6185  -18.1855   27.2531 C   0  0  0  0  0  0  0  0  0  0  0  0
    8.9361  -17.5136   26.9246 C   0  0  2  0  0  0  0  0  0  0  0  0
    9.1033  -17.3562   25.4941 N   0  0  0  0  0  0  0  0  0  0  0  0
   10.0277  -18.2996   27.5315 C   0  0  0  0  0  0  0  0  0  0  0  0
   10.0829  -18.5416   28.8894 O   0  0  0  0  0  0  0  0  0  0  0  0
   10.9317  -18.7634   26.8030 O   0  0  0  0  0  0  0  0  0  0  0  0
  2  1  1  6
  3  4  1  0
  3  2  1  0
  4  5  2  0
  6  7  2  0
  6  2  1  0
  8  4  1  0
  9 10  1  0
 10 12  1  0
 11 10  2  0
 13 12  1  6
 13 14  1  0
 13 15  1  0
 14  6  1  0
 15 19  1  0
 16 15  2  0
 18 17  1  6
 19 18  1  0
 20 18  1  0
 20 21  1  0
 22 20  2  0
M  END
$$$$
