DNA.pdb
     RDKit          3D

 22 21  0  0  1  0  0  0  0  0999 V2000
    8.9459  -18.0513   20.0836 N   0  0  0  0  0  0  0  0  0  0  0  0
   10.0218  -17.1485   19.7349 C   0  0  1  0  0  0  0  0  0  0  0  0
    9.9897  -16.8210   18.2590 C   0  0  0  0  0  0  0  0  0  0  0  0
   10.1501  -18.0309   17.4196 C   0  0  0  0  0  0  0  0  0  0  0  0
   10.1167  -19.1872   17.8611 O   0  0  0  0  0  0  0  0  0  0  0  0
    9.8440  -15.8933   20.4983 C   0  0  0  0  0  0  0  0  0  0  0  0
   10.8493  -15.2024   20.7802 O   0  0  0  0  0  0  0  0  0  0  0  0
   10.3498  -17.8564   16.0584 O   0  0  0  0  0  0  0  0  0  0  0  0
    8.0621  -11.9580   19.2893 N   0  0  0  0  0  0  0  0  0  0  0  0
    7.4729  -13.1993   19.6141 C   0  0  0  0  0  0  0  0  0  0  0  0
    7.2072  -14.0011   18.6898 O   0  0  0  0  0  0  0  0  0  0  0  0
    7.1740  -13.5565   21.0022 C   0  0  0  0  0  0  0  0  0  0  0  0
    8.3221  -14.3153   21.6551 C   0  0  2  0  0  0  0  0  0  0  0  0
    8.5345  -15.5177   20.8828 N   0  0  0  0  0  0  0  0  0  0  0  0
    8.1051  -14.6388   23.0682 C   0  0  0  0  0  0  0  0  0  0  0  0
    7.8612  -13.7139   23.8803 O   0  0  0  0  0  0  0  0  0  0  0  0
    6.9431  -17.2415   25.2822 C   0  0  0  0  0  0  0  0  0  0  0  0
    8.0530  -16.2488   25.0027 C   0  0  2  0  0  0  0  0  0  0  0  0
    8.1548  -15.9594   23.5868 N   0  0  0  0  0  0  0  0  0  0  0  0
    9.3119  -16.7849   25.5552 C   0  0  0  0  0  0  0  0  0  0  0  0
   10.4071  -17.0421   24.7552 O   0  0  0  0  0  0  0  0  0  0  0  0
    9.3981  -17.0151   26.7810 O   0  0  0  0  0  0  0  0  0  0  0  0
  2  1  1  6
  3  4  1  0
  3  2  1  0
  4  5  2  0
  6  7  2  0
  6  2  1  0
  8  4  1  0
  9 10  1  0
 10 12  1  0
 11 10  2  0
 13 12  1  6
 13 14  1  0
 13 15  1  0
 14  6  1  0
 15 19  1  0
 16 15  2  0
 18 17  1  6
 19 18  1  0
 20 18  1  0
 20 21  1  0
 22 20  2  0
M  END
$$$$
