DNA.pdb
     RDKit          3D

 22 21  0  0  1  0  0  0  0  0999 V2000
    8.9732  -18.9560   15.9463 N   0  0  0  0  0  0  0  0  0  0  0  0
    9.4264  -20.2812   16.3103 C   0  0  1  0  0  0  0  0  0  0  0  0
   10.9358  -20.3623   16.2667 C   0  0  0  0  0  0  0  0  0  0  0  0
   11.4820  -19.8364   14.9941 C   0  0  0  0  0  0  0  0  0  0  0  0
   11.2374  -20.3252   13.8831 O   0  0  0  0  0  0  0  0  0  0  0  0
    8.9809  -20.5638   17.6929 C   0  0  0  0  0  0  0  0  0  0  0  0
    8.2653  -19.7258   18.2871 O   0  0  0  0  0  0  0  0  0  0  0  0
   12.3171  -18.7308   15.0524 O   0  0  0  0  0  0  0  0  0  0  0  0
    6.2495  -24.4595   20.1322 N   0  0  0  0  0  0  0  0  0  0  0  0
    7.1330  -23.7968   19.2525 C   0  0  0  0  0  0  0  0  0  0  0  0
    6.6924  -23.3763   18.1585 O   0  0  0  0  0  0  0  0  0  0  0  0
    8.5410  -23.5965   19.6008 C   0  0  0  0  0  0  0  0  0  0  0  0
    8.9187  -22.1209   19.6205 C   0  0  2  0  0  0  0  0  0  0  0  0
    9.3825  -21.7800   18.2955 N   0  0  0  0  0  0  0  0  0  0  0  0
    9.9235  -21.7688   20.6278 C   0  0  0  0  0  0  0  0  0  0  0  0
   11.1384  -21.9570   20.3765 O   0  0  0  0  0  0  0  0  0  0  0  0
   10.0481  -19.9528   23.9427 C   0  0  0  0  0  0  0  0  0  0  0  0
   10.6111  -20.8703   22.8766 C   0  0  2  0  0  0  0  0  0  0  0  0
    9.6027  -21.2172   21.8959 N   0  0  0  0  0  0  0  0  0  0  0  0
   11.1819  -22.0608   23.5359 C   0  0  0  0  0  0  0  0  0  0  0  0
   12.3962  -22.0183   24.1913 O   0  0  0  0  0  0  0  0  0  0  0  0
   10.5551  -23.1420   23.5054 O   0  0  0  0  0  0  0  0  0  0  0  0
  2  1  1  1
  3  4  1  0
  3  2  1  0
  4  5  2  0
  6  7  2  0
  6  2  1  0
  8  4  1  0
  9 10  1  0
 10 12  1  0
 11 10  2  0
 13 12  1  6
 13 14  1  0
 13 15  1  0
 14  6  1  0
 15 19  1  0
 16 15  2  0
 18 17  1  1
 19 18  1  0
 20 18  1  0
 20 21  1  0
 22 20  2  0
M  END
$$$$
