HPM.pdb
     RDKit          3D

 26 27  0  0  1  0  0  0  0  0999 V2000
   23.6508  -19.7162  -15.9487 N   0  0  0  0  0  0  0  0  0  0  0  0
   24.4605  -19.1185  -14.9456 C   0  0  1  0  0  0  0  0  0  0  0  0
   23.6600  -18.0107  -14.2849 C   0  0  0  0  0  0  0  0  0  0  0  0
   23.2529  -17.0558  -15.3492 C   0  0  0  0  0  0  0  0  0  0  0  0
   24.0358  -16.1142  -15.9946 C   0  0  0  0  0  0  0  0  0  0  0  0
   23.3076  -15.4419  -16.8965 N   0  0  0  0  0  0  0  0  0  0  0  0
   22.0524  -15.9373  -16.8458 C   0  0  0  0  0  0  0  0  0  0  0  0
   22.0220  -16.9167  -15.9060 N   0  0  0  0  0  0  0  0  0  0  0  0
   25.0811  -20.0154  -13.9728 C   0  0  0  0  0  0  0  0  0  0  0  0
   24.2915  -20.8557  -13.4067 O   0  0  0  0  0  0  0  0  0  0  0  0
   26.4365  -20.0677  -13.5837 N   0  0  0  0  0  0  0  0  0  0  0  0
   27.5803  -19.3158  -14.0482 C   0  0  0  0  0  0  0  0  0  0  0  0
   28.6528  -20.4075  -14.1090 C   0  0  0  0  0  0  0  0  0  0  0  0
   28.4339  -21.1133  -12.7957 C   0  0  0  0  0  0  0  0  0  0  0  0
   26.9681  -20.9618  -12.5633 C   0  0  1  0  0  0  0  0  0  0  0  0
   26.6412  -20.4623  -11.1968 C   0  0  0  0  0  0  0  0  0  0  0  0
   26.4666  -19.2342  -10.9654 O   0  0  0  0  0  0  0  0  0  0  0  0
   28.1655  -18.9037   -4.4228 C   0  0  0  0  0  0  0  0  0  0  0  0
   28.0340  -19.6889   -6.0198 S   0  0  0  0  0  0  0  0  0  0  0  0
   26.9649  -18.9183   -7.2093 C   0  0  0  0  0  0  0  0  0  0  0  0
   26.9833  -19.4708   -8.5954 C   0  0  0  0  0  0  0  0  0  0  0  0
   26.4950  -20.8551   -8.6913 C   0  0  2  0  0  0  0  0  0  0  0  0
   26.5088  -21.3323  -10.0884 N   0  0  0  0  0  0  0  0  0  0  0  0
   25.0596  -20.9259   -8.3173 C   0  0  0  0  0  0  0  0  0  0  0  0
   24.6170  -21.0920   -6.9946 O   0  0  0  0  0  0  0  0  0  0  0  0
   24.1646  -20.8402   -9.1703 O   0  0  0  0  0  0  0  0  0  0  0  0
  2  1  1  6
  3  2  1  0
  4  3  1  0
  5  4  2  0
  6  7  1  0
  6  5  1  0
  7  8  2  0
  8  4  1  0
  9 11  1  0
  9  2  1  0
 10  9  2  0
 11 15  1  0
 12 13  1  0
 12 11  1  0
 13 14  1  0
 14 15  1  0
 15 16  1  1
 16 17  2  0
 19 18  1  0
 19 20  1  0
 20 21  1  0
 22 21  1  6
 22 23  1  0
 23 16  1  0
 24 22  1  0
 25 24  1  0
 26 24  2  0
M  END
$$$$
