HPM.pdb
     RDKit          3D

 26 27  0  0  1  0  0  0  0  0999 V2000
   26.3715  -20.0214  -17.4019 N   0  0  0  0  0  0  0  0  0  0  0  0
   26.8317  -19.3510  -16.2366 C   0  0  1  0  0  0  0  0  0  0  0  0
   26.1183  -18.0144  -16.1430 C   0  0  0  0  0  0  0  0  0  0  0  0
   26.6522  -17.1446  -17.2242 C   0  0  0  0  0  0  0  0  0  0  0  0
   27.9530  -16.7059  -17.4010 C   0  0  0  0  0  0  0  0  0  0  0  0
   28.0410  -15.9376  -18.4955 N   0  0  0  0  0  0  0  0  0  0  0  0
   26.8057  -15.8705  -19.0367 C   0  0  0  0  0  0  0  0  0  0  0  0
   25.9647  -16.6039  -18.2632 N   0  0  0  0  0  0  0  0  0  0  0  0
   26.7863  -20.0973  -14.9808 C   0  0  0  0  0  0  0  0  0  0  0  0
   25.7326  -20.8073  -14.7924 O   0  0  0  0  0  0  0  0  0  0  0  0
   27.7566  -20.1302  -13.9567 N   0  0  0  0  0  0  0  0  0  0  0  0
   29.0606  -19.5122  -13.8734 C   0  0  0  0  0  0  0  0  0  0  0  0
   29.8855  -20.6360  -13.2390 C   0  0  0  0  0  0  0  0  0  0  0  0
   28.9657  -21.0947  -12.1370 C   0  0  0  0  0  0  0  0  0  0  0  0
   27.6057  -20.8523  -12.7002 C   0  0  1  0  0  0  0  0  0  0  0  0
   26.7095  -20.1118  -11.7662 C   0  0  0  0  0  0  0  0  0  0  0  0
   26.6198  -18.8534  -11.7936 O   0  0  0  0  0  0  0  0  0  0  0  0
   20.4029  -18.9804  -12.3358 C   0  0  0  0  0  0  0  0  0  0  0  0
   20.7409  -20.0900  -10.9798 S   0  0  0  0  0  0  0  0  0  0  0  0
   22.2934  -19.8877  -10.1430 C   0  0  0  0  0  0  0  0  0  0  0  0
   23.4994  -20.4697  -10.8017 C   0  0  0  0  0  0  0  0  0  0  0  0
   24.7650  -20.1325  -10.1318 C   0  0  2  0  0  0  0  0  0  0  0  0
   25.9132  -20.7744  -10.8020 N   0  0  0  0  0  0  0  0  0  0  0  0
   24.7977  -20.7099   -8.7640 C   0  0  0  0  0  0  0  0  0  0  0  0
   24.4328  -19.9879   -7.6157 O   0  0  0  0  0  0  0  0  0  0  0  0
   25.1554  -21.8796   -8.5648 O   0  0  0  0  0  0  0  0  0  0  0  0
  2  1  1  6
  3  2  1  0
  4  3  1  0
  5  4  2  0
  6  7  1  0
  6  5  1  0
  7  8  2  0
  8  4  1  0
  9 11  1  0
  9  2  1  0
 10  9  2  0
 11 15  1  0
 12 13  1  0
 12 11  1  0
 13 14  1  0
 14 15  1  0
 15 16  1  1
 16 17  2  0
 19 18  1  0
 19 20  1  0
 20 21  1  0
 22 21  1  6
 22 23  1  0
 23 16  1  0
 24 22  1  0
 25 24  1  0
 26 24  2  0
M  END
$$$$
