HPM.pdb
     RDKit          3D

 26 27  0  0  1  0  0  0  0  0999 V2000
   21.1710  -13.1147  -17.7083 N   0  0  0  0  0  0  0  0  0  0  0  0
   20.7258  -11.7728  -17.8517 C   0  0  1  0  0  0  0  0  0  0  0  0
   19.3448  -11.7939  -18.4815 C   0  0  0  0  0  0  0  0  0  0  0  0
   19.4875  -12.3405  -19.8567 C   0  0  0  0  0  0  0  0  0  0  0  0
   20.0408  -11.7242  -20.9658 C   0  0  0  0  0  0  0  0  0  0  0  0
   19.9888  -12.5408  -22.0271 N   0  0  0  0  0  0  0  0  0  0  0  0
   19.4050  -13.6883  -21.6199 C   0  0  0  0  0  0  0  0  0  0  0  0
   19.1018  -13.5641  -20.3023 N   0  0  0  0  0  0  0  0  0  0  0  0
   20.7847  -10.9241  -16.6632 C   0  0  0  0  0  0  0  0  0  0  0  0
   20.3905  -11.4694  -15.5691 O   0  0  0  0  0  0  0  0  0  0  0  0
   21.2204   -9.5848  -16.5756 N   0  0  0  0  0  0  0  0  0  0  0  0
   21.6639   -8.6687  -17.6018 C   0  0  0  0  0  0  0  0  0  0  0  0
   22.8471   -7.9887  -16.9064 C   0  0  0  0  0  0  0  0  0  0  0  0
   22.2676   -7.7018  -15.5453 C   0  0  0  0  0  0  0  0  0  0  0  0
   21.3094   -8.8258  -15.3349 C   0  0  1  0  0  0  0  0  0  0  0  0
   19.9602   -8.3692  -14.8935 C   0  0  0  0  0  0  0  0  0  0  0  0
   19.0170   -8.2014  -15.7148 O   0  0  0  0  0  0  0  0  0  0  0  0
   14.2788   -9.2024   -9.5661 C   0  0  0  0  0  0  0  0  0  0  0  0
   15.9618   -9.4373  -10.1106 S   0  0  0  0  0  0  0  0  0  0  0  0
   16.5303   -8.4018  -11.4359 C   0  0  0  0  0  0  0  0  0  0  0  0
   17.9333   -8.6057  -11.9015 C   0  0  0  0  0  0  0  0  0  0  0  0
   18.3018   -7.7799  -13.0617 C   0  0  2  0  0  0  0  0  0  0  0  0
   19.6627   -8.0999  -13.5363 N   0  0  0  0  0  0  0  0  0  0  0  0
   18.4008   -6.3507  -12.6706 C   0  0  0  0  0  0  0  0  0  0  0  0
   17.3646   -5.4244  -12.8739 O   0  0  0  0  0  0  0  0  0  0  0  0
   19.4221   -5.8964  -12.1352 O   0  0  0  0  0  0  0  0  0  0  0  0
  2  1  1  1
  3  2  1  0
  4  3  1  0
  5  4  2  0
  6  7  1  0
  6  5  1  0
  7  8  2  0
  8  4  1  0
  9 11  1  0
  9  2  1  0
 10  9  2  0
 11 15  1  0
 12 13  1  0
 12 11  1  0
 13 14  1  0
 14 15  1  0
 15 16  1  6
 16 17  2  0
 19 18  1  0
 19 20  1  0
 20 21  1  0
 22 21  1  1
 22 23  1  0
 23 16  1  0
 24 22  1  0
 25 24  1  0
 26 24  2  0
M  END
$$$$
