HPM.pdb
     RDKit          3D

 26 27  0  0  1  0  0  0  0  0999 V2000
   24.8023  -17.3301  -15.6289 N   0  0  0  0  0  0  0  0  0  0  0  0
   25.9126  -17.8407  -14.9039 C   0  0  1  0  0  0  0  0  0  0  0  0
   26.6843  -16.6681  -14.3262 C   0  0  0  0  0  0  0  0  0  0  0  0
   27.2029  -15.8673  -15.4666 C   0  0  0  0  0  0  0  0  0  0  0  0
   28.3209  -16.1157  -16.2439 C   0  0  0  0  0  0  0  0  0  0  0  0
   28.4596  -15.1650  -17.1781 N   0  0  0  0  0  0  0  0  0  0  0  0
   27.4392  -14.2953  -17.0174 C   0  0  0  0  0  0  0  0  0  0  0  0
   26.6780  -14.7239  -15.9781 N   0  0  0  0  0  0  0  0  0  0  0  0
   25.6354  -18.8725  -13.9065 C   0  0  0  0  0  0  0  0  0  0  0  0
   24.6951  -18.6040  -13.0736 O   0  0  0  0  0  0  0  0  0  0  0  0
   26.2744  -20.1210  -13.7506 N   0  0  0  0  0  0  0  0  0  0  0  0
   27.4077  -20.6928  -14.4419 C   0  0  0  0  0  0  0  0  0  0  0  0
   26.9477  -22.1422  -14.6249 C   0  0  0  0  0  0  0  0  0  0  0  0
   26.3967  -22.4545  -13.2575 C   0  0  0  0  0  0  0  0  0  0  0  0
   25.8725  -21.1389  -12.7885 C   0  0  1  0  0  0  0  0  0  0  0  0
   26.3314  -20.7825  -11.4152 C   0  0  0  0  0  0  0  0  0  0  0  0
   27.5260  -20.4490  -11.1824 O   0  0  0  0  0  0  0  0  0  0  0  0
   28.5528  -19.1890   -4.4926 C   0  0  0  0  0  0  0  0  0  0  0  0
   27.9757  -18.8829   -6.1531 S   0  0  0  0  0  0  0  0  0  0  0  0
   27.0004  -20.1567   -6.9132 C   0  0  0  0  0  0  0  0  0  0  0  0
   26.7102  -20.0102   -8.3697 C   0  0  0  0  0  0  0  0  0  0  0  0
   25.9112  -21.1102   -8.9314 C   0  0  2  0  0  0  0  0  0  0  0  0
   25.4583  -20.7978  -10.3014 N   0  0  0  0  0  0  0  0  0  0  0  0
   24.6420  -21.2673   -8.1766 C   0  0  0  0  0  0  0  0  0  0  0  0
   24.5825  -21.7817   -6.8709 O   0  0  0  0  0  0  0  0  0  0  0  0
   23.5520  -20.9460   -8.6712 O   0  0  0  0  0  0  0  0  0  0  0  0
  2  1  1  1
  3  2  1  0
  4  3  1  0
  5  4  2  0
  6  7  1  0
  6  5  1  0
  7  8  2  0
  8  4  1  0
  9 11  1  0
  9  2  1  0
 10  9  2  0
 11 15  1  0
 12 13  1  0
 12 11  1  0
 13 14  1  0
 14 15  1  0
 15 16  1  1
 16 17  2  0
 19 18  1  0
 19 20  1  0
 20 21  1  0
 22 21  1  1
 22 23  1  0
 23 16  1  0
 24 22  1  0
 25 24  1  0
 26 24  2  0
M  END
$$$$
