HPM.pdb
     RDKit          3D

 26 27  0  0  1  0  0  0  0  0999 V2000
   20.4236  -21.0569  -13.3718 N   0  0  0  0  0  0  0  0  0  0  0  0
   21.6331  -20.3141  -13.3034 C   0  0  1  0  0  0  0  0  0  0  0  0
   21.2999  -18.9012  -12.8593 C   0  0  0  0  0  0  0  0  0  0  0  0
   20.5384  -18.2533  -13.9597 C   0  0  0  0  0  0  0  0  0  0  0  0
   20.9916  -17.9058  -15.2205 C   0  0  0  0  0  0  0  0  0  0  0  0
   20.0055  -17.3416  -15.9311 N   0  0  0  0  0  0  0  0  0  0  0  0
   18.9089  -17.3175  -15.1434 C   0  0  0  0  0  0  0  0  0  0  0  0
   19.2351  -17.8715  -13.9475 N   0  0  0  0  0  0  0  0  0  0  0  0
   22.7275  -20.8988  -12.5310 C   0  0  0  0  0  0  0  0  0  0  0  0
   22.4393  -21.2398  -11.3265 O   0  0  0  0  0  0  0  0  0  0  0  0
   24.0551  -21.1316  -12.9485 N   0  0  0  0  0  0  0  0  0  0  0  0
   24.7095  -20.8559  -14.2075 C   0  0  0  0  0  0  0  0  0  0  0  0
   25.5487  -22.1235  -14.3937 C   0  0  0  0  0  0  0  0  0  0  0  0
   26.1406  -22.2933  -13.0184 C   0  0  0  0  0  0  0  0  0  0  0  0
   25.0858  -21.7419  -12.1189 C   0  0  1  0  0  0  0  0  0  0  0  0
   25.6166  -20.7641  -11.1260 C   0  0  0  0  0  0  0  0  0  0  0  0
   25.4334  -19.5225  -11.2570 O   0  0  0  0  0  0  0  0  0  0  0  0
   28.6858  -18.8303   -4.0750 C   0  0  0  0  0  0  0  0  0  0  0  0
   27.5124  -19.6750   -5.1209 S   0  0  0  0  0  0  0  0  0  0  0  0
   27.7519  -19.5354   -6.8744 C   0  0  0  0  0  0  0  0  0  0  0  0
   26.9202  -20.4176   -7.7445 C   0  0  0  0  0  0  0  0  0  0  0  0
   27.1670  -20.2384   -9.1835 C   0  0  2  0  0  0  0  0  0  0  0  0
   26.3515  -21.1707   -9.9869 N   0  0  0  0  0  0  0  0  0  0  0  0
   28.5614  -20.6207   -9.5223 C   0  0  0  0  0  0  0  0  0  0  0  0
   28.8931  -21.8199  -10.1741 O   0  0  0  0  0  0  0  0  0  0  0  0
   29.5192  -19.8863   -9.2412 O   0  0  0  0  0  0  0  0  0  0  0  0
  2  1  1  1
  3  2  1  0
  4  3  1  0
  5  4  2  0
  6  7  1  0
  6  5  1  0
  7  8  2  0
  8  4  1  0
  9 11  1  0
  9  2  1  0
 10  9  2  0
 11 15  1  0
 12 13  1  0
 12 11  1  0
 13 14  1  0
 14 15  1  0
 15 16  1  1
 16 17  2  0
 19 18  1  0
 19 20  1  0
 20 21  1  0
 22 21  1  1
 22 23  1  0
 23 16  1  0
 24 22  1  0
 25 24  1  0
 26 24  2  0
M  END
$$$$
