HPM.pdb
     RDKit          3D

 26 27  0  0  1  0  0  0  0  0999 V2000
   14.4478  -22.0164   -2.5344 N   0  0  0  0  0  0  0  0  0  0  0  0
   13.9417  -21.8249   -1.2205 C   0  0  1  0  0  0  0  0  0  0  0  0
   13.1940  -23.0808   -0.8103 C   0  0  0  0  0  0  0  0  0  0  0  0
   12.0721  -23.2675   -1.7679 C   0  0  0  0  0  0  0  0  0  0  0  0
   10.9153  -22.5161   -1.8825 C   0  0  0  0  0  0  0  0  0  0  0  0
   10.1439  -22.9956   -2.8677 N   0  0  0  0  0  0  0  0  0  0  0  0
   10.7883  -24.0566   -3.3992 C   0  0  0  0  0  0  0  0  0  0  0  0
   11.9584  -24.2194   -2.7299 N   0  0  0  0  0  0  0  0  0  0  0  0
   14.8920  -21.3831   -0.2017 C   0  0  0  0  0  0  0  0  0  0  0  0
   16.0956  -21.8098   -0.3401 O   0  0  0  0  0  0  0  0  0  0  0  0
   14.6458  -20.5485    0.9092 N   0  0  0  0  0  0  0  0  0  0  0  0
   13.4324  -19.8975    1.3487 C   0  0  0  0  0  0  0  0  0  0  0  0
   13.9648  -18.5262    1.7751 C   0  0  0  0  0  0  0  0  0  0  0  0
   15.1888  -18.9143    2.5640 C   0  0  0  0  0  0  0  0  0  0  0  0
   15.6520  -20.1618    1.8896 C   0  0  1  0  0  0  0  0  0  0  0  0
   15.9210  -21.2765    2.8428 C   0  0  0  0  0  0  0  0  0  0  0  0
   15.0776  -22.1933    3.0438 O   0  0  0  0  0  0  0  0  0  0  0  0
   21.3094  -26.6762    4.1804 C   0  0  0  0  0  0  0  0  0  0  0  0
   20.6742  -25.1967    3.4111 S   0  0  0  0  0  0  0  0  0  0  0  0
   19.2668  -24.4325    4.1773 C   0  0  0  0  0  0  0  0  0  0  0  0
   18.7009  -23.2263    3.5052 C   0  0  0  0  0  0  0  0  0  0  0  0
   17.5772  -22.6129    4.2299 C   0  0  2  0  0  0  0  0  0  0  0  0
   17.1306  -21.3692    3.5717 N   0  0  0  0  0  0  0  0  0  0  0  0
   18.0148  -22.1540    5.5727 C   0  0  0  0  0  0  0  0  0  0  0  0
   17.8872  -22.9366    6.7321 O   0  0  0  0  0  0  0  0  0  0  0  0
   18.5239  -21.0364    5.7395 O   0  0  0  0  0  0  0  0  0  0  0  0
  2  1  1  6
  3  2  1  0
  4  3  1  0
  5  4  2  0
  6  7  1  0
  6  5  1  0
  7  8  2  0
  8  4  1  0
  9 11  1  0
  9  2  1  0
 10  9  2  0
 11 15  1  0
 12 13  1  0
 12 11  1  0
 13 14  1  0
 14 15  1  0
 15 16  1  1
 16 17  2  0
 19 18  1  0
 19 20  1  0
 20 21  1  0
 22 21  1  6
 22 23  1  0
 23 16  1  0
 24 22  1  0
 25 24  1  0
 26 24  2  0
M  END
$$$$
