HPM.pdb
     RDKit          3D

 26 27  0  0  1  0  0  0  0  0999 V2000
   24.2332  -18.2288  -16.3028 N   0  0  0  0  0  0  0  0  0  0  0  0
   25.2945  -18.1103  -15.3654 C   0  0  1  0  0  0  0  0  0  0  0  0
   24.9691  -16.9688  -14.4191 C   0  0  0  0  0  0  0  0  0  0  0  0
   24.9723  -15.7126  -15.2144 C   0  0  0  0  0  0  0  0  0  0  0  0
   23.8838  -14.9773  -15.6509 C   0  0  0  0  0  0  0  0  0  0  0  0
   24.2931  -13.9033  -16.3400 N   0  0  0  0  0  0  0  0  0  0  0  0
   25.6430  -13.9306  -16.3575 C   0  0  0  0  0  0  0  0  0  0  0  0
   26.0527  -15.0297  -15.6736 N   0  0  0  0  0  0  0  0  0  0  0  0
   25.6930  -19.3256  -14.6579 C   0  0  0  0  0  0  0  0  0  0  0  0
   24.7352  -20.0121  -14.1465 O   0  0  0  0  0  0  0  0  0  0  0  0
   26.9970  -19.8314  -14.4710 N   0  0  0  0  0  0  0  0  0  0  0  0
   28.2844  -19.2660  -14.8058 C   0  0  0  0  0  0  0  0  0  0  0  0
   29.0237  -20.4970  -15.3385 C   0  0  0  0  0  0  0  0  0  0  0  0
   28.6668  -21.5304  -14.3015 C   0  0  0  0  0  0  0  0  0  0  0  0
   27.3030  -21.1180  -13.8592 C   0  0  1  0  0  0  0  0  0  0  0  0
   27.1658  -21.0470  -12.3761 C   0  0  0  0  0  0  0  0  0  0  0  0
   28.1553  -21.2147  -11.6112 O   0  0  0  0  0  0  0  0  0  0  0  0
   29.0374  -19.8918   -6.9367 C   0  0  0  0  0  0  0  0  0  0  0  0
   27.3085  -19.4525   -6.8915 S   0  0  0  0  0  0  0  0  0  0  0  0
   26.2302  -20.3147   -8.0076 C   0  0  0  0  0  0  0  0  0  0  0  0
   26.5509  -20.2281   -9.4625 C   0  0  0  0  0  0  0  0  0  0  0  0
   25.6821  -21.0552  -10.3141 C   0  0  2  0  0  0  0  0  0  0  0  0
   25.9252  -20.7890  -11.7458 N   0  0  0  0  0  0  0  0  0  0  0  0
   24.2590  -20.6731  -10.1295 C   0  0  0  0  0  0  0  0  0  0  0  0
   23.4560  -20.1738  -11.1682 O   0  0  0  0  0  0  0  0  0  0  0  0
   23.6993  -20.7780   -9.0287 O   0  0  0  0  0  0  0  0  0  0  0  0
  2  1  1  1
  3  2  1  0
  4  3  1  0
  5  4  2  0
  6  7  1  0
  6  5  1  0
  7  8  2  0
  8  4  1  0
  9 11  1  0
  9  2  1  0
 10  9  2  0
 11 15  1  0
 12 13  1  0
 12 11  1  0
 13 14  1  0
 14 15  1  0
 15 16  1  1
 16 17  2  0
 19 18  1  0
 19 20  1  0
 20 21  1  0
 22 21  1  1
 22 23  1  0
 23 16  1  0
 24 22  1  0
 25 24  1  0
 26 24  2  0
M  END
$$$$
