HPM.pdb
     RDKit          3D

 26 27  0  0  1  0  0  0  0  0999 V2000
   23.7795  -20.1218  -15.9339 N   0  0  0  0  0  0  0  0  0  0  0  0
   24.6814  -19.4613  -15.0567 C   0  0  1  0  0  0  0  0  0  0  0  0
   23.9923  -18.2252  -14.5073 C   0  0  0  0  0  0  0  0  0  0  0  0
   23.7410  -17.3072  -15.6495 C   0  0  0  0  0  0  0  0  0  0  0  0
   24.5553  -16.2931  -16.1232 C   0  0  0  0  0  0  0  0  0  0  0  0
   23.9828  -15.6874  -17.1725 N   0  0  0  0  0  0  0  0  0  0  0  0
   22.7984  -16.2986  -17.3892 C   0  0  0  0  0  0  0  0  0  0  0  0
   22.6541  -17.2814  -16.4635 N   0  0  0  0  0  0  0  0  0  0  0  0
   25.2973  -20.2703  -14.0067 C   0  0  0  0  0  0  0  0  0  0  0  0
   24.5242  -21.1205  -13.4327 O   0  0  0  0  0  0  0  0  0  0  0  0
   26.6322  -20.2285  -13.5513 N   0  0  0  0  0  0  0  0  0  0  0  0
   27.7452  -19.4059  -13.9683 C   0  0  0  0  0  0  0  0  0  0  0  0
   28.8894  -20.4241  -13.9636 C   0  0  0  0  0  0  0  0  0  0  0  0
   28.6530  -21.1314  -12.6541 C   0  0  0  0  0  0  0  0  0  0  0  0
   27.1706  -21.0762  -12.4955 C   0  0  1  0  0  0  0  0  0  0  0  0
   26.7440  -20.5878  -11.1527 C   0  0  0  0  0  0  0  0  0  0  0  0
   26.5552  -19.3613  -10.9239 O   0  0  0  0  0  0  0  0  0  0  0  0
   28.5252  -19.6830   -4.6083 C   0  0  0  0  0  0  0  0  0  0  0  0
   28.0237  -18.6521   -5.9757 S   0  0  0  0  0  0  0  0  0  0  0  0
   26.7078  -19.2599   -7.0008 C   0  0  0  0  0  0  0  0  0  0  0  0
   27.0948  -19.9008   -8.2917 C   0  0  0  0  0  0  0  0  0  0  0  0
   26.2026  -20.9951   -8.7044 C   0  0  2  0  0  0  0  0  0  0  0  0
   26.5278  -21.4670  -10.0650 N   0  0  0  0  0  0  0  0  0  0  0  0
   24.8067  -20.5051   -8.8343 C   0  0  0  0  0  0  0  0  0  0  0  0
   23.7753  -20.8806   -7.9578 O   0  0  0  0  0  0  0  0  0  0  0  0
   24.4770  -19.7259   -9.7399 O   0  0  0  0  0  0  0  0  0  0  0  0
  2  1  1  1
  3  2  1  0
  4  3  1  0
  5  4  2  0
  6  7  1  0
  6  5  1  0
  7  8  2  0
  8  4  1  0
  9 11  1  0
  9  2  1  0
 10  9  2  0
 11 15  1  0
 12 13  1  0
 12 11  1  0
 13 14  1  0
 14 15  1  0
 15 16  1  1
 16 17  2  0
 19 18  1  0
 19 20  1  0
 20 21  1  0
 22 21  1  6
 22 23  1  0
 23 16  1  0
 24 22  1  0
 25 24  1  0
 26 24  2  0
M  END
$$$$
