HPM.pdb
     RDKit          3D

 26 27  0  0  1  0  0  0  0  0999 V2000
   20.7723  -12.5453  -17.8935 N   0  0  0  0  0  0  0  0  0  0  0  0
   20.4057  -11.2150  -18.2326 C   0  0  1  0  0  0  0  0  0  0  0  0
   18.9027  -11.0785  -18.0685 C   0  0  0  0  0  0  0  0  0  0  0  0
   18.2597  -11.9607  -19.0779 C   0  0  0  0  0  0  0  0  0  0  0  0
   18.1276  -11.7441  -20.4386 C   0  0  0  0  0  0  0  0  0  0  0  0
   17.4883  -12.7716  -21.0142 N   0  0  0  0  0  0  0  0  0  0  0  0
   17.2008  -13.6600  -20.0387 C   0  0  0  0  0  0  0  0  0  0  0  0
   17.6701  -13.1654  -18.8646 N   0  0  0  0  0  0  0  0  0  0  0  0
   21.1395  -10.1365  -17.5735 C   0  0  0  0  0  0  0  0  0  0  0  0
   21.4036  -10.3211  -16.3300 O   0  0  0  0  0  0  0  0  0  0  0  0
   21.5895   -8.9237  -18.1373 N   0  0  0  0  0  0  0  0  0  0  0  0
   21.4016   -8.3720  -19.4600 C   0  0  0  0  0  0  0  0  0  0  0  0
   22.7909   -7.7936  -19.7444 C   0  0  0  0  0  0  0  0  0  0  0  0
   23.0941   -7.0946  -18.4443 C   0  0  0  0  0  0  0  0  0  0  0  0
   22.3895   -7.9320  -17.4304 C   0  0  1  0  0  0  0  0  0  0  0  0
   21.5431   -7.1331  -16.4983 C   0  0  0  0  0  0  0  0  0  0  0  0
   20.3085   -6.9690  -16.7014 O   0  0  0  0  0  0  0  0  0  0  0  0
   19.2111  -10.0068  -11.5523 C   0  0  0  0  0  0  0  0  0  0  0  0
   20.1806   -8.5088  -11.5429 S   0  0  0  0  0  0  0  0  0  0  0  0
   20.3197   -7.6312  -13.0798 C   0  0  0  0  0  0  0  0  0  0  0  0
   21.1668   -6.4026  -13.0846 C   0  0  0  0  0  0  0  0  0  0  0  0
   21.2468   -5.7394  -14.3952 C   0  0  2  0  0  0  0  0  0  0  0  0
   22.0732   -6.5173  -15.3395 N   0  0  0  0  0  0  0  0  0  0  0  0
   21.9756   -4.4506  -14.2807 C   0  0  0  0  0  0  0  0  0  0  0  0
   21.4115   -3.2961  -13.7133 O   0  0  0  0  0  0  0  0  0  0  0  0
   23.1397   -4.3281  -14.6879 O   0  0  0  0  0  0  0  0  0  0  0  0
  2  1  1  1
  3  2  1  0
  4  3  1  0
  5  4  2  0
  6  7  1  0
  6  5  1  0
  7  8  2  0
  8  4  1  0
  9 11  1  0
  9  2  1  0
 10  9  2  0
 11 15  1  0
 12 13  1  0
 12 11  1  0
 13 14  1  0
 14 15  1  0
 15 16  1  6
 16 17  2  0
 19 18  1  0
 19 20  1  0
 20 21  1  0
 22 21  1  1
 22 23  1  0
 23 16  1  0
 24 22  1  0
 25 24  1  0
 26 24  2  0
M  END
$$$$
