QAH.pdb
     RDKit          3D

 25 25  0  0  1  0  0  0  0  0999 V2000
   15.2246  -17.9161   15.1989 N   0  0  0  0  0  0  0  0  0  0  0  0
   15.7923  -17.8337   16.4783 C   0  0  0  0  0  0  0  0  0  0  0  0
   15.6944  -18.7937   17.2648 O   0  0  0  0  0  0  0  0  0  0  0  0
   16.5022  -16.6099   16.8847 C   0  0  0  0  0  0  0  0  0  0  0  0
   15.6911  -15.8965   17.9293 C   0  0  0  0  0  0  0  0  0  0  0  0
   14.8051  -14.8232   17.3326 C   0  0  2  0  0  0  0  0  0  0  0  0
   15.5826  -13.7764   16.7408 N   0  0  0  0  0  0  0  0  0  0  0  0
   13.9552  -14.3018   18.4624 C   0  0  0  0  0  0  0  0  0  0  0  0
   14.4033  -13.4102   19.2279 O   0  0  0  0  0  0  0  0  0  0  0  0
   10.4329  -14.5327   19.5195 C   0  0  0  0  0  0  0  0  0  0  0  0
   11.9016  -14.3324   19.8069 C   0  0  2  0  0  0  0  0  0  0  0  0
   12.6416  -14.8046   18.6815 N   0  0  0  0  0  0  0  0  0  0  0  0
   12.3151  -14.9500   21.0867 C   0  0  0  0  0  0  0  0  0  0  0  0
   11.6748  -14.6648   22.1304 O   0  0  0  0  0  0  0  0  0  0  0  0
   13.4040  -15.8490   21.1775 N   0  0  0  0  0  0  0  0  0  0  0  0
   13.8156  -16.4869   22.4206 C   0  0  1  0  0  0  0  0  0  0  0  0
   14.5313  -17.7425   22.0534 C   0  0  0  0  0  0  0  0  0  0  0  0
   13.6499  -18.8184   21.5916 C   0  0  0  0  0  0  0  0  0  0  0  0
   12.2677  -18.7679   21.6462 C   0  0  0  0  0  0  0  0  0  0  0  0
   11.8210  -19.9290   21.1384 N   0  0  0  0  0  0  0  0  0  0  0  0
   12.8747  -20.6858   20.7762 C   0  0  0  0  0  0  0  0  0  0  0  0
   13.9979  -20.0100   21.0518 N   0  0  0  0  0  0  0  0  0  0  0  0
   14.5456  -15.5768   23.3011 C   0  0  0  0  0  0  0  0  0  0  0  0
   14.7682  -15.8906   24.4791 O   0  0  0  0  0  0  0  0  0  0  0  0
   14.9965  -14.3541   22.8283 O   0  0  0  0  0  0  0  0  0  0  0  0
  2  1  1  0
  3  2  2  0
  4  2  1  0
  5  4  1  0
  6  8  1  0
  6  5  1  0
  6  7  1  1
  8  9  2  0
 11 10  1  6
 12 11  1  0
 12  8  1  0
 13 15  1  0
 13 11  1  0
 14 13  2  0
 16 17  1  6
 16 15  1  0
 17 18  1  0
 18 22  1  0
 19 20  1  0
 19 18  2  0
 20 21  1  0
 21 22  2  0
 23 16  1  0
 23 25  1  0
 24 23  2  0
M  END
$$$$
