QAH.pdb
     RDKit          3D

 25 25  0  0  1  0  0  0  0  0999 V2000
    7.1034  -14.9304   14.9213 N   0  0  0  0  0  0  0  0  0  0  0  0
    8.1300  -14.3204   15.6560 C   0  0  0  0  0  0  0  0  0  0  0  0
    9.2817  -14.2652   15.1871 O   0  0  0  0  0  0  0  0  0  0  0  0
    7.8390  -13.7477   16.9805 C   0  0  0  0  0  0  0  0  0  0  0  0
    9.0047  -14.0055   17.8930 C   0  0  0  0  0  0  0  0  0  0  0  0
    8.8049  -15.2434   18.7420 C   0  0  2  0  0  0  0  0  0  0  0  0
    7.4732  -15.7537   18.6127 N   0  0  0  0  0  0  0  0  0  0  0  0
    9.0980  -14.8327   20.1619 C   0  0  0  0  0  0  0  0  0  0  0  0
   10.2299  -14.3752   20.4642 O   0  0  0  0  0  0  0  0  0  0  0  0
    7.3182  -14.0814   23.2437 C   0  0  0  0  0  0  0  0  0  0  0  0
    8.4832  -14.7310   22.5363 C   0  0  2  0  0  0  0  0  0  0  0  0
    8.1079  -14.9541   21.1773 N   0  0  0  0  0  0  0  0  0  0  0  0
    8.9524  -15.9527   23.2274 C   0  0  0  0  0  0  0  0  0  0  0  0
    8.2953  -17.0156   23.0893 O   0  0  0  0  0  0  0  0  0  0  0  0
   10.1128  -15.9672   24.0371 N   0  0  0  0  0  0  0  0  0  0  0  0
   10.6023  -17.1595   24.7155 C   0  0  1  0  0  0  0  0  0  0  0  0
   12.0771  -17.2120   24.5014 C   0  0  0  0  0  0  0  0  0  0  0  0
   12.4702  -17.4152   23.1043 C   0  0  0  0  0  0  0  0  0  0  0  0
   11.6099  -17.8482   22.1101 C   0  0  0  0  0  0  0  0  0  0  0  0
   12.3323  -17.9128   20.9789 N   0  0  0  0  0  0  0  0  0  0  0  0
   13.5984  -17.5367   21.2427 C   0  0  0  0  0  0  0  0  0  0  0  0
   13.6884  -17.2307   22.5437 N   0  0  0  0  0  0  0  0  0  0  0  0
   10.1621  -17.2313   26.1075 C   0  0  0  0  0  0  0  0  0  0  0  0
   10.4632  -18.2073   26.8091 O   0  0  0  0  0  0  0  0  0  0  0  0
    9.4039  -16.2092   26.6572 O   0  0  0  0  0  0  0  0  0  0  0  0
  2  1  1  0
  3  2  2  0
  4  2  1  0
  5  4  1  0
  6  8  1  0
  6  5  1  0
  6  7  1  1
  8  9  2  0
 11 10  1  1
 12 11  1  0
 12  8  1  0
 13 15  1  0
 13 11  1  0
 14 13  2  0
 16 17  1  1
 16 15  1  0
 17 18  1  0
 18 22  1  0
 19 20  1  0
 19 18  2  0
 20 21  1  0
 21 22  2  0
 23 16  1  0
 23 25  1  0
 24 23  2  0
M  END
$$$$
