QAH.pdb
     RDKit          3D

 25 25  0  0  1  0  0  0  0  0999 V2000
   11.5274  -15.1029   17.4951 N   0  0  0  0  0  0  0  0  0  0  0  0
   10.5139  -15.0077   16.5311 C   0  0  0  0  0  0  0  0  0  0  0  0
   10.0573  -13.8930   16.2171 O   0  0  0  0  0  0  0  0  0  0  0  0
    9.9945  -16.2292   15.8945 C   0  0  0  0  0  0  0  0  0  0  0  0
   10.7512  -17.4160   16.4207 C   0  0  0  0  0  0  0  0  0  0  0  0
    9.8308  -18.5468   16.8299 C   0  0  2  0  0  0  0  0  0  0  0  0
    8.6440  -18.5674   16.0289 N   0  0  0  0  0  0  0  0  0  0  0  0
    9.5058  -18.3206   18.2839 C   0  0  0  0  0  0  0  0  0  0  0  0
    8.5013  -17.6355   18.6054 O   0  0  0  0  0  0  0  0  0  0  0  0
   10.4411  -19.9672   21.4184 C   0  0  0  0  0  0  0  0  0  0  0  0
    9.8820  -18.7843   20.6649 C   0  0  2  0  0  0  0  0  0  0  0  0
   10.3225  -18.8735   19.3102 N   0  0  0  0  0  0  0  0  0  0  0  0
   10.2162  -17.4953   21.3108 C   0  0  0  0  0  0  0  0  0  0  0  0
   11.3131  -16.9468   21.0342 O   0  0  0  0  0  0  0  0  0  0  0  0
    9.3461  -16.8587   22.2274 N   0  0  0  0  0  0  0  0  0  0  0  0
    9.6442  -15.5818   22.8613 C   0  0  1  0  0  0  0  0  0  0  0  0
    8.4630  -14.6978   22.6445 C   0  0  0  0  0  0  0  0  0  0  0  0
    8.3138  -14.2294   21.2640 C   0  0  0  0  0  0  0  0  0  0  0  0
    9.1901  -14.5410   20.2387 C   0  0  0  0  0  0  0  0  0  0  0  0
    8.7228  -13.9316   19.1360 N   0  0  0  0  0  0  0  0  0  0  0  0
    7.5970  -13.2609   19.4470 C   0  0  0  0  0  0  0  0  0  0  0  0
    7.3418  -13.4400   20.7497 N   0  0  0  0  0  0  0  0  0  0  0  0
   10.0743  -15.7338   24.2500 C   0  0  0  0  0  0  0  0  0  0  0  0
    9.8763  -16.7981   24.8531 O   0  0  0  0  0  0  0  0  0  0  0  0
   10.7078  -14.6902   24.9066 O   0  0  0  0  0  0  0  0  0  0  0  0
  2  1  1  0
  3  2  2  0
  4  2  1  0
  5  4  1  0
  6  8  1  0
  6  5  1  0
  6  7  1  6
  8  9  2  0
 11 10  1  1
 12 11  1  0
 12  8  1  0
 13 15  1  0
 13 11  1  0
 14 13  2  0
 16 17  1  1
 16 15  1  0
 17 18  1  0
 18 22  1  0
 19 20  1  0
 19 18  2  0
 20 21  1  0
 21 22  2  0
 23 16  1  0
 23 25  1  0
 24 23  2  0
M  END
$$$$
