QAH.pdb
     RDKit          3D

 25 25  0  0  1  0  0  0  0  0999 V2000
    7.1270  -12.4312   19.1358 N   0  0  0  0  0  0  0  0  0  0  0  0
    8.0212  -13.1444   18.3249 C   0  0  0  0  0  0  0  0  0  0  0  0
    8.4798  -12.6190   17.2938 O   0  0  0  0  0  0  0  0  0  0  0  0
    8.4133  -14.5131   18.6986 C   0  0  0  0  0  0  0  0  0  0  0  0
    7.6948  -14.9020   19.9598 C   0  0  0  0  0  0  0  0  0  0  0  0
    7.9432  -16.3470   20.3384 C   0  0  2  0  0  0  0  0  0  0  0  0
    7.5938  -17.2326   19.2688 N   0  0  0  0  0  0  0  0  0  0  0  0
    7.1066  -16.6116   21.5634 C   0  0  0  0  0  0  0  0  0  0  0  0
    5.8924  -16.2841   21.5795 O   0  0  0  0  0  0  0  0  0  0  0  0
    5.5851  -18.2006   23.3197 C   0  0  0  0  0  0  0  0  0  0  0  0
    6.8263  -17.5093   23.8309 C   0  0  2  0  0  0  0  0  0  0  0  0
    7.6705  -17.2315   22.7140 N   0  0  0  0  0  0  0  0  0  0  0  0
    7.4985  -18.2774   24.9026 C   0  0  0  0  0  0  0  0  0  0  0  0
    6.8236  -18.6453   25.8974 O   0  0  0  0  0  0  0  0  0  0  0  0
    8.8723  -18.6121   24.8476 N   0  0  0  0  0  0  0  0  0  0  0  0
    9.5575  -19.3612   25.8920 C   0  0  1  0  0  0  0  0  0  0  0  0
   10.5802  -20.2142   25.2212 C   0  0  0  0  0  0  0  0  0  0  0  0
   10.0391  -21.0775   24.1679 C   0  0  0  0  0  0  0  0  0  0  0  0
    8.7019  -21.1263   23.8137 C   0  0  0  0  0  0  0  0  0  0  0  0
    8.6003  -22.0272   22.8220 N   0  0  0  0  0  0  0  0  0  0  0  0
    9.8212  -22.5301   22.5567 C   0  0  0  0  0  0  0  0  0  0  0  0
   10.7067  -21.9515   23.3786 N   0  0  0  0  0  0  0  0  0  0  0  0
   10.0556  -18.4999   26.9628 C   0  0  0  0  0  0  0  0  0  0  0  0
    9.9279  -17.2696   26.8864 O   0  0  0  0  0  0  0  0  0  0  0  0
   10.6755  -19.0494   28.0743 O   0  0  0  0  0  0  0  0  0  0  0  0
  2  1  1  0
  3  2  2  0
  4  2  1  0
  5  4  1  0
  6  8  1  0
  6  5  1  0
  6  7  1  6
  8  9  2  0
 11 10  1  6
 12 11  1  0
 12  8  1  0
 13 15  1  0
 13 11  1  0
 14 13  2  0
 16 17  1  6
 16 15  1  0
 17 18  1  0
 18 22  1  0
 19 20  1  0
 19 18  2  0
 20 21  1  0
 21 22  2  0
 23 16  1  0
 23 25  1  0
 24 23  2  0
M  END
$$$$
