QAH.pdb
     RDKit          3D

 25 25  0  0  1  0  0  0  0  0999 V2000
    8.8347  -14.6070   14.4558 N   0  0  0  0  0  0  0  0  0  0  0  0
    7.6107  -15.1057   14.9236 C   0  0  0  0  0  0  0  0  0  0  0  0
    6.8504  -15.7144   14.1482 O   0  0  0  0  0  0  0  0  0  0  0  0
    7.2312  -14.9063   16.3317 C   0  0  0  0  0  0  0  0  0  0  0  0
    8.3456  -14.1926   17.0436 C   0  0  0  0  0  0  0  0  0  0  0  0
    8.9751  -15.0468   18.1239 C   0  0  2  0  0  0  0  0  0  0  0  0
    8.2501  -16.2675   18.3104 N   0  0  0  0  0  0  0  0  0  0  0  0
    8.9714  -14.2111   19.3778 C   0  0  0  0  0  0  0  0  0  0  0  0
    9.3409  -13.0097   19.3350 O   0  0  0  0  0  0  0  0  0  0  0  0
    7.8606  -12.7241   21.6339 C   0  0  0  0  0  0  0  0  0  0  0  0
    8.6897  -13.9744   21.8049 C   0  0  2  0  0  0  0  0  0  0  0  0
    8.5532  -14.7616   20.6221 N   0  0  0  0  0  0  0  0  0  0  0  0
    8.3534  -14.7087   23.0450 C   0  0  0  0  0  0  0  0  0  0  0  0
    7.3040  -15.4004   23.0724 O   0  0  0  0  0  0  0  0  0  0  0  0
    9.1700  -14.6602   24.1997 N   0  0  0  0  0  0  0  0  0  0  0  0
    8.9578  -15.5039   25.3678 C   0  0  1  0  0  0  0  0  0  0  0  0
    7.5147  -15.3992   25.7284 C   0  0  0  0  0  0  0  0  0  0  0  0
    7.0856  -14.0441   26.0851 C   0  0  0  0  0  0  0  0  0  0  0  0
    7.8794  -13.1286   26.7543 C   0  0  0  0  0  0  0  0  0  0  0  0
    7.1422  -12.0144   26.8981 N   0  0  0  0  0  0  0  0  0  0  0  0
    5.9309  -12.2130   26.3437 C   0  0  0  0  0  0  0  0  0  0  0  0
    5.8909  -13.4552   25.8440 N   0  0  0  0  0  0  0  0  0  0  0  0
    9.4654  -16.8612   25.1769 C   0  0  0  0  0  0  0  0  0  0  0  0
    9.9991  -17.1845   24.1062 O   0  0  0  0  0  0  0  0  0  0  0  0
    9.3557  -17.8005   26.1905 O   0  0  0  0  0  0  0  0  0  0  0  0
  2  1  1  0
  3  2  2  0
  4  2  1  0
  5  4  1  0
  6  8  1  0
  6  5  1  0
  6  7  1  1
  8  9  2  0
 11 10  1  6
 12 11  1  0
 12  8  1  0
 13 15  1  0
 13 11  1  0
 14 13  2  0
 16 17  1  6
 16 15  1  0
 17 18  1  0
 18 22  1  0
 19 20  1  0
 19 18  2  0
 20 21  1  0
 21 22  2  0
 23 16  1  0
 23 25  1  0
 24 23  2  0
M  END
$$$$
