QAH.pdb
     RDKit          3D

 25 25  0  0  1  0  0  0  0  0999 V2000
   10.2490  -16.9098   15.7143 N   0  0  0  0  0  0  0  0  0  0  0  0
    9.0188  -16.5909   15.1221 C   0  0  0  0  0  0  0  0  0  0  0  0
    8.7013  -17.1043   14.0335 O   0  0  0  0  0  0  0  0  0  0  0  0
    8.1081  -15.6486   15.7926 C   0  0  0  0  0  0  0  0  0  0  0  0
    8.7292  -15.2028   17.0862 C   0  0  0  0  0  0  0  0  0  0  0  0
    7.9080  -14.1351   17.7781 C   0  0  2  0  0  0  0  0  0  0  0  0
    7.6713  -13.0187   16.9131 N   0  0  0  0  0  0  0  0  0  0  0  0
    8.6914  -13.7254   18.9984 C   0  0  0  0  0  0  0  0  0  0  0  0
    9.1152  -12.5463   19.1080 O   0  0  0  0  0  0  0  0  0  0  0  0
    7.3499  -13.7621   21.5398 C   0  0  0  0  0  0  0  0  0  0  0  0
    8.7706  -14.2522   21.3947 C   0  0  2  0  0  0  0  0  0  0  0  0
    8.9633  -14.6571   20.0396 N   0  0  0  0  0  0  0  0  0  0  0  0
    9.1072  -15.3049   22.3790 C   0  0  0  0  0  0  0  0  0  0  0  0
    8.6381  -15.2174   23.5421 O   0  0  0  0  0  0  0  0  0  0  0  0
    9.9373  -16.4051   22.0581 N   0  0  0  0  0  0  0  0  0  0  0  0
   11.2217  -16.6539   22.6982 C   0  0  1  0  0  0  0  0  0  0  0  0
   12.0908  -15.4768   22.4104 C   0  0  0  0  0  0  0  0  0  0  0  0
   12.5831  -15.4217   21.0313 C   0  0  0  0  0  0  0  0  0  0  0  0
   12.0103  -16.1069   19.9737 C   0  0  0  0  0  0  0  0  0  0  0  0
   12.7372  -15.8076   18.8839 N   0  0  0  0  0  0  0  0  0  0  0  0
   13.7301  -14.9675   19.2336 C   0  0  0  0  0  0  0  0  0  0  0  0
   13.6404  -14.7278   20.5485 N   0  0  0  0  0  0  0  0  0  0  0  0
   11.0839  -17.0088   24.1094 C   0  0  0  0  0  0  0  0  0  0  0  0
   10.1884  -16.4991   24.7978 O   0  0  0  0  0  0  0  0  0  0  0  0
   11.9524  -17.9185   24.6923 O   0  0  0  0  0  0  0  0  0  0  0  0
  2  1  1  0
  3  2  2  0
  4  2  1  0
  5  4  1  0
  6  8  1  0
  6  5  1  0
  6  7  1  6
  8  9  2  0
 11 10  1  6
 12 11  1  0
 12  8  1  0
 13 15  1  0
 13 11  1  0
 14 13  2  0
 16 17  1  1
 16 15  1  0
 17 18  1  0
 18 22  1  0
 19 20  1  0
 19 18  2  0
 20 21  1  0
 21 22  2  0
 23 16  1  0
 23 25  1  0
 24 23  2  0
M  END
$$$$
