QAH.pdb
     RDKit          3D

 25 25  0  0  1  0  0  0  0  0999 V2000
   10.4931  -22.5946   26.3039 N   0  0  0  0  0  0  0  0  0  0  0  0
   11.5981  -22.8855   25.4915 C   0  0  0  0  0  0  0  0  0  0  0  0
   12.4584  -23.6971   25.8796 O   0  0  0  0  0  0  0  0  0  0  0  0
   11.7346  -22.2279   24.1816 C   0  0  0  0  0  0  0  0  0  0  0  0
   10.5514  -21.3289   23.9586 C   0  0  0  0  0  0  0  0  0  0  0  0
   10.6517  -20.5623   22.6566 C   0  0  2  0  0  0  0  0  0  0  0  0
   11.3838  -21.3014   21.6726 N   0  0  0  0  0  0  0  0  0  0  0  0
   11.3368  -19.2610   22.9852 C   0  0  0  0  0  0  0  0  0  0  0  0
   12.5760  -19.1395   22.8079 O   0  0  0  0  0  0  0  0  0  0  0  0
   10.3368  -15.7930   23.5437 C   0  0  0  0  0  0  0  0  0  0  0  0
   11.2907  -16.9391   23.7807 C   0  0  2  0  0  0  0  0  0  0  0  0
   10.6003  -18.1559   23.4975 N   0  0  0  0  0  0  0  0  0  0  0  0
   11.8916  -16.9021   25.1326 C   0  0  0  0  0  0  0  0  0  0  0  0
   12.6021  -15.9152   25.4517 O   0  0  0  0  0  0  0  0  0  0  0  0
   11.6954  -17.9367   26.0779 N   0  0  0  0  0  0  0  0  0  0  0  0
   11.1056  -17.7208   27.3920 C   0  0  1  0  0  0  0  0  0  0  0  0
    9.8933  -16.8751   27.1955 C   0  0  0  0  0  0  0  0  0  0  0  0
    9.9536  -15.5786   27.8760 C   0  0  0  0  0  0  0  0  0  0  0  0
   10.9214  -15.2318   28.8028 C   0  0  0  0  0  0  0  0  0  0  0  0
   10.6417  -13.9786   29.1990 N   0  0  0  0  0  0  0  0  0  0  0  0
    9.5425  -13.5469   28.5515 C   0  0  0  0  0  0  0  0  0  0  0  0
    9.1167  -14.5234   27.7395 N   0  0  0  0  0  0  0  0  0  0  0  0
   10.8945  -18.9694   28.1221 C   0  0  0  0  0  0  0  0  0  0  0  0
   10.5276  -19.9900   27.5227 O   0  0  0  0  0  0  0  0  0  0  0  0
   11.1025  -19.0252   29.4916 O   0  0  0  0  0  0  0  0  0  0  0  0
  2  1  1  0
  3  2  2  0
  4  2  1  0
  5  4  1  0
  6  8  1  0
  6  5  1  0
  6  7  1  6
  8  9  2  0
 11 10  1  1
 12 11  1  0
 12  8  1  0
 13 15  1  0
 13 11  1  0
 14 13  2  0
 16 17  1  6
 16 15  1  0
 17 18  1  0
 18 22  1  0
 19 20  1  0
 19 18  2  0
 20 21  1  0
 21 22  2  0
 23 16  1  0
 23 25  1  0
 24 23  2  0
M  END
$$$$
