QAH.pdb
     RDKit          3D

 25 25  0  0  1  0  0  0  0  0999 V2000
    9.4104  -12.7907   18.1074 N   0  0  0  0  0  0  0  0  0  0  0  0
    8.6536  -12.6228   19.2756 C   0  0  0  0  0  0  0  0  0  0  0  0
    8.6341  -11.5187   19.8503 O   0  0  0  0  0  0  0  0  0  0  0  0
    7.8849  -13.7555   19.8169 C   0  0  0  0  0  0  0  0  0  0  0  0
    8.1613  -14.9770   18.9866 C   0  0  0  0  0  0  0  0  0  0  0  0
    7.4209  -16.1957   19.4962 C   0  0  2  0  0  0  0  0  0  0  0  0
    6.0095  -15.9611   19.5527 N   0  0  0  0  0  0  0  0  0  0  0  0
    7.9821  -16.4887   20.8637 C   0  0  0  0  0  0  0  0  0  0  0  0
    7.3237  -16.1879   21.8922 O   0  0  0  0  0  0  0  0  0  0  0  0
   11.0433  -18.1380   22.1953 C   0  0  0  0  0  0  0  0  0  0  0  0
    9.6901  -17.4802   22.3215 C   0  0  2  0  0  0  0  0  0  0  0  0
    9.2561  -17.1054   21.0145 N   0  0  0  0  0  0  0  0  0  0  0  0
    9.6966  -16.3577   23.2860 C   0  0  0  0  0  0  0  0  0  0  0  0
    9.6569  -15.1811   22.8448 O   0  0  0  0  0  0  0  0  0  0  0  0
    9.7459  -16.5611   24.6855 N   0  0  0  0  0  0  0  0  0  0  0  0
    9.4068  -15.5312   25.6579 C   0  0  1  0  0  0  0  0  0  0  0  0
    8.0091  -15.0986   25.3697 C   0  0  0  0  0  0  0  0  0  0  0  0
    7.5290  -14.0173   26.2345 C   0  0  0  0  0  0  0  0  0  0  0  0
    8.3018  -13.3905   27.1967 C   0  0  0  0  0  0  0  0  0  0  0  0
    7.5178  -12.4656   27.7759 N   0  0  0  0  0  0  0  0  0  0  0  0
    6.2980  -12.5027   27.2060 C   0  0  0  0  0  0  0  0  0  0  0  0
    6.2994  -13.4519   26.2608 N   0  0  0  0  0  0  0  0  0  0  0  0
    9.6679  -15.9526   27.0329 C   0  0  0  0  0  0  0  0  0  0  0  0
    9.2183  -17.0281   27.4535 O   0  0  0  0  0  0  0  0  0  0  0  0
   10.4209  -15.1548   27.8804 O   0  0  0  0  0  0  0  0  0  0  0  0
  2  1  1  0
  3  2  2  0
  4  2  1  0
  5  4  1  0
  6  8  1  0
  6  5  1  0
  6  7  1  1
  8  9  2  0
 11 10  1  6
 12 11  1  0
 12  8  1  0
 13 15  1  0
 13 11  1  0
 14 13  2  0
 16 17  1  1
 16 15  1  0
 17 18  1  0
 18 22  1  0
 19 20  1  0
 19 18  2  0
 20 21  1  0
 21 22  2  0
 23 16  1  0
 23 25  1  0
 24 23  2  0
M  END
$$$$
