QAH.pdb
     RDKit          3D

 25 25  0  0  1  0  0  0  0  0999 V2000
    9.4541  -18.6442   19.4966 N   0  0  0  0  0  0  0  0  0  0  0  0
    8.2187  -18.5467   18.8409 C   0  0  0  0  0  0  0  0  0  0  0  0
    7.9934  -19.2413   17.8328 O   0  0  0  0  0  0  0  0  0  0  0  0
    7.1931  -17.6214   19.3497 C   0  0  0  0  0  0  0  0  0  0  0  0
    7.6146  -17.1170   20.7009 C   0  0  0  0  0  0  0  0  0  0  0  0
    8.0051  -15.6543   20.6703 C   0  0  2  0  0  0  0  0  0  0  0  0
    8.9385  -15.3869   19.6178 N   0  0  0  0  0  0  0  0  0  0  0  0
    8.6004  -15.3484   22.0204 C   0  0  0  0  0  0  0  0  0  0  0  0
    9.8071  -15.6172   22.2520 O   0  0  0  0  0  0  0  0  0  0  0  0
    7.4998  -13.6142   25.1109 C   0  0  0  0  0  0  0  0  0  0  0  0
    8.4087  -14.5299   24.3267 C   0  0  2  0  0  0  0  0  0  0  0  0
    7.8149  -14.7552   23.0485 N   0  0  0  0  0  0  0  0  0  0  0  0
    8.7221  -15.7766   25.0601 C   0  0  0  0  0  0  0  0  0  0  0  0
    7.8024  -16.6115   25.2542 O   0  0  0  0  0  0  0  0  0  0  0  0
   10.0185  -16.0621   25.5502 N   0  0  0  0  0  0  0  0  0  0  0  0
   10.3316  -17.2364   26.3529 C   0  0  1  0  0  0  0  0  0  0  0  0
   11.6994  -17.6834   25.9618 C   0  0  0  0  0  0  0  0  0  0  0  0
   11.7993  -18.1577   24.5788 C   0  0  0  0  0  0  0  0  0  0  0  0
   10.7095  -18.4230   23.7677 C   0  0  0  0  0  0  0  0  0  0  0  0
   11.2013  -18.8347   22.5869 N   0  0  0  0  0  0  0  0  0  0  0  0
   12.5469  -18.8314   22.6448 C   0  0  0  0  0  0  0  0  0  0  0  0
   12.9187  -18.4173   23.8633 N   0  0  0  0  0  0  0  0  0  0  0  0
   10.1249  -17.0083   27.7818 C   0  0  0  0  0  0  0  0  0  0  0  0
   10.2999  -17.9281   28.5937 O   0  0  0  0  0  0  0  0  0  0  0  0
    9.7314  -15.7619   28.2437 O   0  0  0  0  0  0  0  0  0  0  0  0
  2  1  1  0
  3  2  2  0
  4  2  1  0
  5  4  1  0
  6  8  1  0
  6  5  1  0
  6  7  1  6
  8  9  2  0
 11 10  1  1
 12 11  1  0
 12  8  1  0
 13 15  1  0
 13 11  1  0
 14 13  2  0
 16 17  1  1
 16 15  1  0
 17 18  1  0
 18 22  1  0
 19 20  1  0
 19 18  2  0
 20 21  1  0
 21 22  2  0
 23 16  1  0
 23 25  1  0
 24 23  2  0
M  END
$$$$
