QAH.pdb
     RDKit          3D

 25 25  0  0  1  0  0  0  0  0999 V2000
    8.7370  -19.1979   16.9124 N   0  0  0  0  0  0  0  0  0  0  0  0
   10.0028  -18.9518   16.3620 C   0  0  0  0  0  0  0  0  0  0  0  0
   10.7807  -19.8989   16.1441 O   0  0  0  0  0  0  0  0  0  0  0  0
   10.4051  -17.5719   16.0444 C   0  0  0  0  0  0  0  0  0  0  0  0
    9.2606  -16.6458   16.3450 C   0  0  0  0  0  0  0  0  0  0  0  0
    9.5684  -15.2126   15.9654 C   0  0  2  0  0  0  0  0  0  0  0  0
   10.7746  -15.1250   15.1987 N   0  0  0  0  0  0  0  0  0  0  0  0
    9.6860  -14.4496   17.2596 C   0  0  0  0  0  0  0  0  0  0  0  0
   10.8203  -14.1971   17.7408 O   0  0  0  0  0  0  0  0  0  0  0  0
    7.3529  -12.6705   19.5348 C   0  0  0  0  0  0  0  0  0  0  0  0
    8.6880  -13.2736   19.1692 C   0  0  2  0  0  0  0  0  0  0  0  0
    8.5260  -14.0051   17.9543 N   0  0  0  0  0  0  0  0  0  0  0  0
    9.2639  -14.0777   20.2702 C   0  0  0  0  0  0  0  0  0  0  0  0
    9.5396  -13.5067   21.3558 O   0  0  0  0  0  0  0  0  0  0  0  0
    9.5149  -15.4646   20.1448 N   0  0  0  0  0  0  0  0  0  0  0  0
    9.9522  -16.3036   21.2522 C   0  0  1  0  0  0  0  0  0  0  0  0
    9.3924  -17.6658   21.0183 C   0  0  0  0  0  0  0  0  0  0  0  0
    7.9470  -17.6836   20.7777 C   0  0  0  0  0  0  0  0  0  0  0  0
    6.9925  -17.5185   21.7666 C   0  0  0  0  0  0  0  0  0  0  0  0
    5.7954  -17.5979   21.1614 N   0  0  0  0  0  0  0  0  0  0  0  0
    5.9807  -17.8048   19.8436 C   0  0  0  0  0  0  0  0  0  0  0  0
    7.2974  -17.8581   19.6030 N   0  0  0  0  0  0  0  0  0  0  0  0
   11.3970  -16.2412   21.4646 C   0  0  0  0  0  0  0  0  0  0  0  0
   11.9286  -16.9221   22.3530 O   0  0  0  0  0  0  0  0  0  0  0  0
   12.1874  -15.4204   20.6750 O   0  0  0  0  0  0  0  0  0  0  0  0
  2  1  1  0
  3  2  2  0
  4  2  1  0
  5  4  1  0
  6  8  1  0
  6  5  1  0
  6  7  1  1
  8  9  2  0
 11 10  1  1
 12 11  1  0
 12  8  1  0
 13 15  1  0
 13 11  1  0
 14 13  2  0
 16 17  1  6
 16 15  1  0
 17 18  1  0
 18 22  1  0
 19 20  1  0
 19 18  2  0
 20 21  1  0
 21 22  2  0
 23 16  1  0
 23 25  1  0
 24 23  2  0
M  END
$$$$
