QAH.pdb
     RDKit          3D

 25 25  0  0  1  0  0  0  0  0999 V2000
    9.8565  -16.8381   15.4856 N   0  0  0  0  0  0  0  0  0  0  0  0
    8.8648  -15.9371   15.0729 C   0  0  0  0  0  0  0  0  0  0  0  0
    8.8786  -15.4860   13.9128 O   0  0  0  0  0  0  0  0  0  0  0  0
    7.8108  -15.5290   16.0160 C   0  0  0  0  0  0  0  0  0  0  0  0
    8.0774  -14.1218   16.4704 C   0  0  0  0  0  0  0  0  0  0  0  0
    9.1860  -14.0523   17.4996 C   0  0  2  0  0  0  0  0  0  0  0  0
    9.8592  -15.3100   17.6249 N   0  0  0  0  0  0  0  0  0  0  0  0
    8.5327  -13.6498   18.7965 C   0  0  0  0  0  0  0  0  0  0  0  0
    7.5107  -12.9169   18.7859 O   0  0  0  0  0  0  0  0  0  0  0  0
    6.9063  -13.9957   21.0582 C   0  0  0  0  0  0  0  0  0  0  0  0
    8.3782  -13.7161   21.2455 C   0  0  2  0  0  0  0  0  0  0  0  0
    9.0560  -14.0880   20.0456 N   0  0  0  0  0  0  0  0  0  0  0  0
    8.9255  -14.3647   22.4580 C   0  0  0  0  0  0  0  0  0  0  0  0
    8.1886  -14.4730   23.4708 O   0  0  0  0  0  0  0  0  0  0  0  0
   10.2471  -14.8667   22.5181 N   0  0  0  0  0  0  0  0  0  0  0  0
   10.5948  -16.1371   23.1400 C   0  0  1  0  0  0  0  0  0  0  0  0
    9.8703  -17.2046   22.3923 C   0  0  0  0  0  0  0  0  0  0  0  0
    8.5324  -17.4958   22.9147 C   0  0  0  0  0  0  0  0  0  0  0  0
    7.9562  -16.8362   23.9866 C   0  0  0  0  0  0  0  0  0  0  0  0
    6.7404  -17.3804   24.1633 N   0  0  0  0  0  0  0  0  0  0  0  0
    6.5514  -18.3451   23.2427 C   0  0  0  0  0  0  0  0  0  0  0  0
    7.6466  -18.4201   22.4750 N   0  0  0  0  0  0  0  0  0  0  0  0
   12.0394  -16.3214   23.2653 C   0  0  0  0  0  0  0  0  0  0  0  0
   12.8206  -15.5380   22.7071 O   0  0  0  0  0  0  0  0  0  0  0  0
   12.5506  -17.3735   24.0094 O   0  0  0  0  0  0  0  0  0  0  0  0
  2  1  1  0
  3  2  2  0
  4  2  1  0
  5  4  1  0
  6  8  1  0
  6  5  1  0
  6  7  1  1
  8  9  2  0
 11 10  1  6
 12 11  1  0
 12  8  1  0
 13 15  1  0
 13 11  1  0
 14 13  2  0
 16 17  1  6
 16 15  1  0
 17 18  1  0
 18 22  1  0
 19 20  1  0
 19 18  2  0
 20 21  1  0
 21 22  2  0
 23 16  1  0
 23 25  1  0
 24 23  2  0
M  END
$$$$
