QAH.pdb
     RDKit          3D

 25 25  0  0  1  0  0  0  0  0999 V2000
    5.3750  -20.0774   16.2372 N   0  0  0  0  0  0  0  0  0  0  0  0
    6.2928  -19.2102   15.6279 C   0  0  0  0  0  0  0  0  0  0  0  0
    5.9458  -18.5274   14.6465 O   0  0  0  0  0  0  0  0  0  0  0  0
    7.6644  -19.1120   16.1533 C   0  0  0  0  0  0  0  0  0  0  0  0
    7.8143  -20.0568   17.3121 C   0  0  0  0  0  0  0  0  0  0  0  0
    8.3108  -19.3582   18.5605 C   0  0  2  0  0  0  0  0  0  0  0  0
    9.2198  -18.2999   18.2378 N   0  0  0  0  0  0  0  0  0  0  0  0
    8.9793  -20.4171   19.3986 C   0  0  0  0  0  0  0  0  0  0  0  0
    8.3148  -21.3972   19.8225 O   0  0  0  0  0  0  0  0  0  0  0  0
   12.4015  -21.3510   20.3940 C   0  0  0  0  0  0  0  0  0  0  0  0
   10.9156  -21.2639   20.6475 C   0  0  2  0  0  0  0  0  0  0  0  0
   10.3625  -20.3280   19.7227 N   0  0  0  0  0  0  0  0  0  0  0  0
   10.6019  -20.9538   22.0602 C   0  0  0  0  0  0  0  0  0  0  0  0
    9.4380  -20.5794   22.3530 O   0  0  0  0  0  0  0  0  0  0  0  0
   11.5640  -21.0636   23.0920 N   0  0  0  0  0  0  0  0  0  0  0  0
   11.2181  -21.1721   24.5027 C   0  0  1  0  0  0  0  0  0  0  0  0
   10.2720  -22.3170   24.6357 C   0  0  0  0  0  0  0  0  0  0  0  0
    9.9219  -22.6439   26.0207 C   0  0  0  0  0  0  0  0  0  0  0  0
   10.4865  -22.0364   27.1289 C   0  0  0  0  0  0  0  0  0  0  0  0
    9.9165  -22.5999   28.2074 N   0  0  0  0  0  0  0  0  0  0  0  0
    9.0271  -23.5265   27.8021 C   0  0  0  0  0  0  0  0  0  0  0  0
    9.0264  -23.5576   26.4629 N   0  0  0  0  0  0  0  0  0  0  0  0
   12.3971  -21.2221   25.3652 C   0  0  0  0  0  0  0  0  0  0  0  0
   13.1140  -22.2326   25.3867 O   0  0  0  0  0  0  0  0  0  0  0  0
   12.7257  -20.1405   26.1677 O   0  0  0  0  0  0  0  0  0  0  0  0
  2  1  1  0
  3  2  2  0
  4  2  1  0
  5  4  1  0
  6  8  1  0
  6  5  1  0
  6  7  1  6
  8  9  2  0
 11 10  1  1
 12 11  1  0
 12  8  1  0
 13 15  1  0
 13 11  1  0
 14 13  2  0
 16 17  1  6
 16 15  1  0
 17 18  1  0
 18 22  1  0
 19 20  1  0
 19 18  2  0
 20 21  1  0
 21 22  2  0
 23 16  1  0
 23 25  1  0
 24 23  2  0
M  END
$$$$
