VLY.pdb
     RDKit          3D

 28 28  0  0  1  0  0  0  0  0999 V2000
    7.4685  -13.6986   19.0939 C   0  0  0  0  0  0  0  0  0  0  0  0
    8.4212  -14.8736   18.9401 C   0  0  2  0  0  0  0  0  0  0  0  0
    8.0839  -15.5557   17.6374 C   0  0  0  0  0  0  0  0  0  0  0  0
    8.2414  -15.8163   20.1213 C   0  0  2  0  0  0  0  0  0  0  0  0
    6.9732  -16.4690   20.0851 N   0  0  0  0  0  0  0  0  0  0  0  0
    8.5178  -15.1216   21.3919 C   0  0  0  0  0  0  0  0  0  0  0  0
    9.6745  -14.6648   21.5812 O   0  0  0  0  0  0  0  0  0  0  0  0
    5.7468  -12.7190   26.4688 C   0  0  0  0  0  0  0  0  0  0  0  0
    6.9370  -12.9206   25.6097 C   0  0  2  0  0  0  0  0  0  0  0  0
    7.6176  -11.5656   25.3800 C   0  0  0  0  0  0  0  0  0  0  0  0
    6.7387  -13.5639   24.2985 C   0  0  0  0  0  0  0  0  0  0  0  0
    7.8671  -14.3133   23.7024 C   0  0  2  0  0  0  0  0  0  0  0  0
    7.5675  -14.9274   22.4279 N   0  0  0  0  0  0  0  0  0  0  0  0
    8.5403  -15.2492   24.6244 C   0  0  0  0  0  0  0  0  0  0  0  0
    8.0337  -16.3844   24.8160 O   0  0  0  0  0  0  0  0  0  0  0  0
   12.7942  -17.4986   31.9617 O   0  0  0  0  0  0  0  0  0  0  0  0
   12.3544  -16.8536   30.8280 C   0  0  0  0  0  0  0  0  0  0  0  0
   11.4883  -15.7866   30.9104 C   0  0  0  0  0  0  0  0  0  0  0  0
   11.0790  -15.1764   29.7418 C   0  0  0  0  0  0  0  0  0  0  0  0
   11.4939  -15.5808   28.4839 C   0  0  0  0  0  0  0  0  0  0  0  0
   11.0170  -14.8909   27.2778 C   0  0  0  0  0  0  0  0  0  0  0  0
   10.3892  -15.8059   26.2513 C   0  0  2  0  0  0  0  0  0  0  0  0
    9.7216  -14.9163   25.2917 N   0  0  0  0  0  0  0  0  0  0  0  0
    9.4532  -16.7645   26.8405 C   0  0  0  0  0  0  0  0  0  0  0  0
    8.3064  -16.3928   27.1711 O   0  0  0  0  0  0  0  0  0  0  0  0
   12.3671  -16.6588   28.4294 C   0  0  0  0  0  0  0  0  0  0  0  0
   12.7858  -17.2793   29.5842 C   0  0  0  0  0  0  0  0  0  0  0  0
    9.8416  -18.0741   27.0274 O   0  0  0  0  0  0  0  0  0  0  0  0
  2  1  1  1
  2  3  1  0
  4  6  1  0
  4  2  1  0
  4  5  1  1
  6  7  2  0
  9 11  1  0
  9  8  1  6
 10  9  1  0
 12 11  1  1
 12 14  1  0
 13 12  1  0
 13  6  1  0
 14 15  2  0
 16 17  1  0
 17 18  2  0
 18 19  1  0
 20 19  2  0
 20 21  1  0
 22 21  1  1
 22 24  1  0
 23 22  1  0
 23 14  1  0
 24 25  2  0
 24 28  1  0
 26 20  1  0
 27 17  1  0
 27 26  2  0
M  END
$$$$
