VLY.pdb
     RDKit          3D

 28 28  0  0  1  0  0  0  0  0999 V2000
    6.0209  -16.2316   19.5397 C   0  0  0  0  0  0  0  0  0  0  0  0
    6.9761  -15.3324   20.3085 C   0  0  2  0  0  0  0  0  0  0  0  0
    8.0329  -14.8678   19.3372 C   0  0  0  0  0  0  0  0  0  0  0  0
    7.5880  -16.1237   21.4555 C   0  0  2  0  0  0  0  0  0  0  0  0
    6.6152  -16.9340   22.1134 N   0  0  0  0  0  0  0  0  0  0  0  0
    8.3358  -15.2352   22.3637 C   0  0  0  0  0  0  0  0  0  0  0  0
    9.3706  -14.6702   21.9251 O   0  0  0  0  0  0  0  0  0  0  0  0
    6.8053  -11.4640   24.7478 C   0  0  0  0  0  0  0  0  0  0  0  0
    6.7260  -12.8348   25.3044 C   0  0  2  0  0  0  0  0  0  0  0  0
    5.8077  -12.8186   26.5326 C   0  0  0  0  0  0  0  0  0  0  0  0
    7.9867  -13.4987   25.6814 C   0  0  0  0  0  0  0  0  0  0  0  0
    8.7682  -14.1806   24.6256 C   0  0  2  0  0  0  0  0  0  0  0  0
    7.9724  -14.9667   23.7090 N   0  0  0  0  0  0  0  0  0  0  0  0
    9.9467  -14.9231   25.1143 C   0  0  0  0  0  0  0  0  0  0  0  0
   10.8229  -14.3076   25.7744 O   0  0  0  0  0  0  0  0  0  0  0  0
   10.9029  -14.9712   31.4583 O   0  0  0  0  0  0  0  0  0  0  0  0
   10.8579  -15.6760   30.2768 C   0  0  0  0  0  0  0  0  0  0  0  0
   11.5269  -16.8713   30.1385 C   0  0  0  0  0  0  0  0  0  0  0  0
   11.4478  -17.5366   28.9315 C   0  0  0  0  0  0  0  0  0  0  0  0
   10.7286  -17.0652   27.8459 C   0  0  0  0  0  0  0  0  0  0  0  0
   10.6886  -17.8200   26.5864 C   0  0  0  0  0  0  0  0  0  0  0  0
   11.2466  -17.0689   25.3991 C   0  0  2  0  0  0  0  0  0  0  0  0
   10.1220  -16.2871   24.8682 N   0  0  0  0  0  0  0  0  0  0  0  0
   11.8163  -17.9544   24.3824 C   0  0  0  0  0  0  0  0  0  0  0  0
   11.2085  -18.1394   23.3059 O   0  0  0  0  0  0  0  0  0  0  0  0
   10.0635  -15.8579   28.0124 C   0  0  0  0  0  0  0  0  0  0  0  0
   10.1311  -15.1809   29.2087 C   0  0  0  0  0  0  0  0  0  0  0  0
   13.0223  -18.5797   24.6175 O   0  0  0  0  0  0  0  0  0  0  0  0
  2  1  1  6
  2  3  1  0
  4  6  1  0
  4  2  1  0
  4  5  1  1
  6  7  2  0
  9 11  1  0
  9  8  1  1
 10  9  1  0
 12 11  1  1
 12 14  1  0
 13 12  1  0
 13  6  1  0
 14 15  2  0
 16 17  1  0
 17 18  2  0
 18 19  1  0
 20 19  2  0
 20 21  1  0
 22 21  1  1
 22 24  1  0
 23 22  1  0
 23 14  1  0
 24 25  2  0
 24 28  1  0
 26 20  1  0
 27 17  1  0
 27 26  2  0
M  END
$$$$
