VLY.pdb
     RDKit          3D

 28 28  0  0  1  0  0  0  0  0999 V2000
    9.5179  -18.6778   21.8307 C   0  0  0  0  0  0  0  0  0  0  0  0
    8.0364  -18.8088   22.1467 C   0  0  2  0  0  0  0  0  0  0  0  0
    7.5669  -20.1156   21.5568 C   0  0  0  0  0  0  0  0  0  0  0  0
    7.2928  -17.6282   21.5389 C   0  0  2  0  0  0  0  0  0  0  0  0
    7.3938  -17.6192   20.1157 N   0  0  0  0  0  0  0  0  0  0  0  0
    7.7095  -16.3646   22.1737 C   0  0  0  0  0  0  0  0  0  0  0  0
    8.6189  -15.6929   21.6221 O   0  0  0  0  0  0  0  0  0  0  0  0
    6.2836  -12.5079   26.9514 C   0  0  0  0  0  0  0  0  0  0  0  0
    7.0617  -12.8542   25.7391 C   0  0  2  0  0  0  0  0  0  0  0  0
    7.0484  -11.6555   24.7825 C   0  0  0  0  0  0  0  0  0  0  0  0
    6.6584  -14.0521   24.9811 C   0  0  0  0  0  0  0  0  0  0  0  0
    7.6269  -14.6462   24.0327 C   0  0  2  0  0  0  0  0  0  0  0  0
    7.1564  -15.8436   23.3724 N   0  0  0  0  0  0  0  0  0  0  0  0
    8.9928  -14.8084   24.5683 C   0  0  0  0  0  0  0  0  0  0  0  0
    9.6154  -13.7903   24.9659 O   0  0  0  0  0  0  0  0  0  0  0  0
   10.9805  -14.5391   31.3808 O   0  0  0  0  0  0  0  0  0  0  0  0
   10.9409  -15.1895   30.1683 C   0  0  0  0  0  0  0  0  0  0  0  0
   11.2792  -16.5202   30.0663 C   0  0  0  0  0  0  0  0  0  0  0  0
   11.2218  -17.1229   28.8257 C   0  0  0  0  0  0  0  0  0  0  0  0
   10.8407  -16.4591   27.6716 C   0  0  0  0  0  0  0  0  0  0  0  0
   10.8050  -17.1581   26.3800 C   0  0  0  0  0  0  0  0  0  0  0  0
   10.9723  -16.2506   25.1827 C   0  0  2  0  0  0  0  0  0  0  0  0
    9.6178  -16.0553   24.6487 N   0  0  0  0  0  0  0  0  0  0  0  0
   11.8766  -16.8022   24.1727 C   0  0  0  0  0  0  0  0  0  0  0  0
   11.4259  -17.1665   23.0651 O   0  0  0  0  0  0  0  0  0  0  0  0
   10.5047  -15.1184   27.8026 C   0  0  0  0  0  0  0  0  0  0  0  0
   10.5560  -14.5010   29.0315 C   0  0  0  0  0  0  0  0  0  0  0  0
   13.2226  -16.9166   24.4484 O   0  0  0  0  0  0  0  0  0  0  0  0
  2  1  1  6
  2  3  1  0
  4  6  1  0
  4  2  1  0
  4  5  1  6
  6  7  2  0
  9 11  1  0
  9  8  1  1
 10  9  1  0
 12 11  1  1
 12 14  1  0
 13 12  1  0
 13  6  1  0
 14 15  2  0
 16 17  1  0
 17 18  2  0
 18 19  1  0
 20 19  2  0
 20 21  1  0
 22 21  1  1
 22 24  1  0
 23 22  1  0
 23 14  1  0
 24 25  2  0
 24 28  1  0
 26 20  1  0
 27 17  1  0
 27 26  2  0
M  END
$$$$
