VLY.pdb
     RDKit          3D

 28 28  0  0  1  0  0  0  0  0999 V2000
    7.9521  -18.8363   19.1669 C   0  0  0  0  0  0  0  0  0  0  0  0
    8.5043  -17.9896   20.3028 C   0  0  2  0  0  0  0  0  0  0  0  0
    8.0557  -18.6266   21.5947 C   0  0  0  0  0  0  0  0  0  0  0  0
    7.9692  -16.5711   20.1700 C   0  0  2  0  0  0  0  0  0  0  0  0
    8.2693  -16.0132   18.8915 N   0  0  0  0  0  0  0  0  0  0  0  0
    8.4112  -15.7371   21.3025 C   0  0  0  0  0  0  0  0  0  0  0  0
    9.6054  -15.3424   21.3206 O   0  0  0  0  0  0  0  0  0  0  0  0
    7.6842  -13.6599   26.4839 C   0  0  0  0  0  0  0  0  0  0  0  0
    7.2215  -12.9088   25.2936 C   0  0  2  0  0  0  0  0  0  0  0  0
    5.9683  -12.1083   25.6691 C   0  0  0  0  0  0  0  0  0  0  0  0
    6.9289  -13.6733   24.0680 C   0  0  0  0  0  0  0  0  0  0  0  0
    8.0111  -14.4849   23.4675 C   0  0  2  0  0  0  0  0  0  0  0  0
    7.5823  -15.3420   22.3846 N   0  0  0  0  0  0  0  0  0  0  0  0
    8.8555  -15.2031   24.4423 C   0  0  0  0  0  0  0  0  0  0  0  0
    8.3041  -15.9505   25.2906 O   0  0  0  0  0  0  0  0  0  0  0  0
   11.1551  -16.7211   31.8311 O   0  0  0  0  0  0  0  0  0  0  0  0
   11.1558  -16.2008   30.5567 C   0  0  0  0  0  0  0  0  0  0  0  0
   10.4511  -15.0564   30.2579 C   0  0  0  0  0  0  0  0  0  0  0  0
   10.4864  -14.5782   28.9634 C   0  0  0  0  0  0  0  0  0  0  0  0
   11.1956  -15.1897   27.9430 C   0  0  0  0  0  0  0  0  0  0  0  0
   11.1883  -14.6317   26.5841 C   0  0  0  0  0  0  0  0  0  0  0  0
   11.1041  -15.6720   25.4906 C   0  0  2  0  0  0  0  0  0  0  0  0
   10.2471  -15.0807   24.4544 N   0  0  0  0  0  0  0  0  0  0  0  0
   10.5752  -16.9524   25.9630 C   0  0  0  0  0  0  0  0  0  0  0  0
    9.4135  -17.0160   26.4202 O   0  0  0  0  0  0  0  0  0  0  0  0
   11.8973  -16.3417   28.2716 C   0  0  0  0  0  0  0  0  0  0  0  0
   11.8735  -16.8329   29.5570 C   0  0  0  0  0  0  0  0  0  0  0  0
   11.3617  -18.0829   25.9003 O   0  0  0  0  0  0  0  0  0  0  0  0
  2  1  1  6
  2  3  1  0
  4  6  1  0
  4  2  1  0
  4  5  1  6
  6  7  2  0
  9 11  1  0
  9  8  1  1
 10  9  1  0
 12 11  1  1
 12 14  1  0
 13 12  1  0
 13  6  1  0
 14 15  2  0
 16 17  1  0
 17 18  2  0
 18 19  1  0
 20 19  2  0
 20 21  1  0
 22 21  1  1
 22 24  1  0
 23 22  1  0
 23 14  1  0
 24 25  2  0
 24 28  1  0
 26 20  1  0
 27 17  1  0
 27 26  2  0
M  END
$$$$
