VLY.pdb
     RDKit          3D

 28 28  0  0  1  0  0  0  0  0999 V2000
    6.5282  -14.3611   19.3675 C   0  0  0  0  0  0  0  0  0  0  0  0
    7.6613  -15.2879   18.9561 C   0  0  2  0  0  0  0  0  0  0  0  0
    7.1721  -16.0986   17.7815 C   0  0  0  0  0  0  0  0  0  0  0  0
    8.0237  -16.1818   20.1332 C   0  0  2  0  0  0  0  0  0  0  0  0
    6.9942  -17.1300   20.4102 N   0  0  0  0  0  0  0  0  0  0  0  0
    8.4194  -15.3739   21.3012 C   0  0  0  0  0  0  0  0  0  0  0  0
    9.4404  -14.6456   21.2029 O   0  0  0  0  0  0  0  0  0  0  0  0
    6.4248  -13.2302   26.8523 C   0  0  0  0  0  0  0  0  0  0  0  0
    7.4722  -13.4316   25.8240 C   0  0  2  0  0  0  0  0  0  0  0  0
    8.0261  -12.0639   25.4062 C   0  0  0  0  0  0  0  0  0  0  0  0
    7.1052  -14.1716   24.6032 C   0  0  0  0  0  0  0  0  0  0  0  0
    8.1888  -14.6558   23.7192 C   0  0  2  0  0  0  0  0  0  0  0  0
    7.7283  -15.3559   22.5406 N   0  0  0  0  0  0  0  0  0  0  0  0
    9.2684  -15.3864   24.4118 C   0  0  0  0  0  0  0  0  0  0  0  0
    9.0416  -16.5486   24.8362 O   0  0  0  0  0  0  0  0  0  0  0  0
   10.3665  -16.6448   31.5107 O   0  0  0  0  0  0  0  0  0  0  0  0
   10.7628  -16.1618   30.2841 C   0  0  0  0  0  0  0  0  0  0  0  0
   11.5878  -16.8992   29.4648 C   0  0  0  0  0  0  0  0  0  0  0  0
   11.9544  -16.3667   28.2451 C   0  0  0  0  0  0  0  0  0  0  0  0
   11.5359  -15.1247   27.7977 C   0  0  0  0  0  0  0  0  0  0  0  0
   11.9663  -14.6133   26.4896 C   0  0  0  0  0  0  0  0  0  0  0  0
   11.6174  -15.5167   25.3289 C   0  0  2  0  0  0  0  0  0  0  0  0
   10.5343  -14.8304   24.6120 N   0  0  0  0  0  0  0  0  0  0  0  0
   11.2182  -16.8594   25.7530 C   0  0  0  0  0  0  0  0  0  0  0  0
   10.0808  -17.0478   26.2362 O   0  0  0  0  0  0  0  0  0  0  0  0
   10.7048  -14.4024   28.6433 C   0  0  0  0  0  0  0  0  0  0  0  0
   10.3289  -14.9174   29.8629 C   0  0  0  0  0  0  0  0  0  0  0  0
   12.0996  -17.9107   25.6166 O   0  0  0  0  0  0  0  0  0  0  0  0
  2  1  1  1
  2  3  1  0
  4  6  1  0
  4  2  1  0
  4  5  1  1
  6  7  2  0
  9 11  1  0
  9  8  1  1
 10  9  1  0
 12 11  1  1
 12 14  1  0
 13 12  1  0
 13  6  1  0
 14 15  2  0
 16 17  1  0
 17 18  2  0
 18 19  1  0
 20 19  2  0
 20 21  1  0
 22 21  1  1
 22 24  1  0
 23 22  1  0
 23 14  1  0
 24 25  2  0
 24 28  1  0
 26 20  1  0
 27 17  1  0
 27 26  2  0
M  END
$$$$
