VLY.pdb
     RDKit          3D

 28 28  0  0  1  0  0  0  0  0999 V2000
    7.7730  -18.5317   18.8112 C   0  0  0  0  0  0  0  0  0  0  0  0
    8.3362  -17.7329   19.9760 C   0  0  2  0  0  0  0  0  0  0  0  0
    7.8827  -18.4117   21.2449 C   0  0  0  0  0  0  0  0  0  0  0  0
    7.8164  -16.3048   19.8960 C   0  0  2  0  0  0  0  0  0  0  0  0
    8.1495  -15.6927   18.6509 N   0  0  0  0  0  0  0  0  0  0  0  0
    8.2403  -15.5270   21.0744 C   0  0  0  0  0  0  0  0  0  0  0  0
    9.4384  -15.1493   21.1388 O   0  0  0  0  0  0  0  0  0  0  0  0
    5.9797  -12.9711   26.3571 C   0  0  0  0  0  0  0  0  0  0  0  0
    7.0962  -13.2212   25.4158 C   0  0  2  0  0  0  0  0  0  0  0  0
    7.8526  -11.9074   25.1839 C   0  0  0  0  0  0  0  0  0  0  0  0
    6.7710  -13.8030   24.1012 C   0  0  0  0  0  0  0  0  0  0  0  0
    7.8386  -14.5100   23.3591 C   0  0  2  0  0  0  0  0  0  0  0  0
    7.3897  -15.1686   22.1525 N   0  0  0  0  0  0  0  0  0  0  0  0
    8.6866  -15.3890   24.1882 C   0  0  0  0  0  0  0  0  0  0  0  0
    8.1789  -16.4220   24.6955 O   0  0  0  0  0  0  0  0  0  0  0  0
   11.6233  -16.7780   31.8488 O   0  0  0  0  0  0  0  0  0  0  0  0
   11.3515  -16.2595   30.6030 C   0  0  0  0  0  0  0  0  0  0  0  0
   10.9603  -14.9483   30.4508 C   0  0  0  0  0  0  0  0  0  0  0  0
   10.7004  -14.4801   29.1785 C   0  0  0  0  0  0  0  0  0  0  0  0
   10.8118  -15.2611   28.0403 C   0  0  0  0  0  0  0  0  0  0  0  0
   10.5158  -14.7027   26.7142 C   0  0  0  0  0  0  0  0  0  0  0  0
   10.7828  -15.6545   25.5705 C   0  0  2  0  0  0  0  0  0  0  0  0
   10.0346  -15.1121   24.4286 N   0  0  0  0  0  0  0  0  0  0  0  0
   10.3860  -17.0308   25.8714 C   0  0  0  0  0  0  0  0  0  0  0  0
    9.1745  -17.3225   25.9707 O   0  0  0  0  0  0  0  0  0  0  0  0
   11.2080  -16.5792   28.2221 C   0  0  0  0  0  0  0  0  0  0  0  0
   11.4715  -17.0632   29.4832 C   0  0  0  0  0  0  0  0  0  0  0  0
   11.3517  -17.9996   26.0432 O   0  0  0  0  0  0  0  0  0  0  0  0
  2  1  1  6
  2  3  1  0
  4  6  1  0
  4  2  1  0
  4  5  1  6
  6  7  2  0
  9 11  1  0
  9  8  1  6
 10  9  1  0
 12 11  1  1
 12 14  1  0
 13 12  1  0
 13  6  1  0
 14 15  2  0
 16 17  1  0
 17 18  2  0
 18 19  1  0
 20 19  2  0
 20 21  1  0
 22 21  1  1
 22 24  1  0
 23 22  1  0
 23 14  1  0
 24 25  2  0
 24 28  1  0
 26 20  1  0
 27 17  1  0
 27 26  2  0
M  END
$$$$
