VLY.pdb
     RDKit          3D

 28 28  0  0  1  0  0  0  0  0999 V2000
    7.3429  -14.4386   20.4329 C   0  0  0  0  0  0  0  0  0  0  0  0
    8.4995  -15.4129   20.2742 C   0  0  2  0  0  0  0  0  0  0  0  0
    8.2237  -16.2378   19.0414 C   0  0  0  0  0  0  0  0  0  0  0  0
    8.5863  -16.2870   21.5171 C   0  0  2  0  0  0  0  0  0  0  0  0
    7.4624  -17.1592   21.6264 N   0  0  0  0  0  0  0  0  0  0  0  0
    8.8223  -15.4660   22.7186 C   0  0  0  0  0  0  0  0  0  0  0  0
    9.8895  -14.8037   22.7868 O   0  0  0  0  0  0  0  0  0  0  0  0
    8.1003  -12.7499   27.5043 C   0  0  0  0  0  0  0  0  0  0  0  0
    7.3796  -12.5100   26.2322 C   0  0  2  0  0  0  0  0  0  0  0  0
    6.0649  -11.7816   26.5374 C   0  0  0  0  0  0  0  0  0  0  0  0
    7.0734  -13.6757   25.3840 C   0  0  0  0  0  0  0  0  0  0  0  0
    8.1802  -14.5816   25.0035 C   0  0  2  0  0  0  0  0  0  0  0  0
    7.9269  -15.3656   23.8151 N   0  0  0  0  0  0  0  0  0  0  0  0
    8.7096  -15.4049   26.1086 C   0  0  0  0  0  0  0  0  0  0  0  0
    8.0039  -16.3428   26.5607 O   0  0  0  0  0  0  0  0  0  0  0  0
   12.7622  -17.9638   21.7422 O   0  0  0  0  0  0  0  0  0  0  0  0
   12.6005  -17.5109   23.0320 C   0  0  0  0  0  0  0  0  0  0  0  0
   12.7454  -16.1765   23.3382 C   0  0  0  0  0  0  0  0  0  0  0  0
   12.5722  -15.7769   24.6481 C   0  0  0  0  0  0  0  0  0  0  0  0
   12.2592  -16.6493   25.6771 C   0  0  0  0  0  0  0  0  0  0  0  0
   12.0926  -16.1600   27.0522 C   0  0  0  0  0  0  0  0  0  0  0  0
   10.6592  -16.1452   27.5322 C   0  0  2  0  0  0  0  0  0  0  0  0
    9.9687  -15.1772   26.6695 N   0  0  0  0  0  0  0  0  0  0  0  0
   10.5367  -15.7911   28.9470 C   0  0  0  0  0  0  0  0  0  0  0  0
   10.9757  -16.5667   29.8237 O   0  0  0  0  0  0  0  0  0  0  0  0
   12.1188  -17.9890   25.3409 C   0  0  0  0  0  0  0  0  0  0  0  0
   12.2877  -18.4055   24.0401 C   0  0  0  0  0  0  0  0  0  0  0  0
    9.9378  -14.6023   29.3058 O   0  0  0  0  0  0  0  0  0  0  0  0
  2  1  1  1
  2  3  1  0
  4  6  1  0
  4  2  1  0
  4  5  1  1
  6  7  2  0
  9 11  1  0
  9  8  1  1
 10  9  1  0
 12 11  1  1
 12 14  1  0
 13 12  1  0
 13  6  1  0
 14 15  2  0
 16 17  1  0
 17 18  2  0
 18 19  1  0
 20 19  2  0
 20 21  1  0
 22 21  1  6
 22 24  1  0
 23 22  1  0
 23 14  1  0
 24 25  2  0
 24 28  1  0
 26 20  1  0
 27 17  1  0
 27 26  2  0
M  END
$$$$
