VLY.pdb
     RDKit          3D

 28 28  0  0  1  0  0  0  0  0999 V2000
   10.1597  -18.4571   22.0322 C   0  0  0  0  0  0  0  0  0  0  0  0
    8.6529  -18.4976   21.8323 C   0  0  2  0  0  0  0  0  0  0  0  0
    8.3352  -19.7669   21.0812 C   0  0  0  0  0  0  0  0  0  0  0  0
    8.2230  -17.2672   21.0466 C   0  0  2  0  0  0  0  0  0  0  0  0
    8.7674  -17.2685   19.7277 N   0  0  0  0  0  0  0  0  0  0  0  0
    8.5060  -16.0360   21.8066 C   0  0  0  0  0  0  0  0  0  0  0  0
    9.6248  -15.4831   21.6489 O   0  0  0  0  0  0  0  0  0  0  0  0
    6.1063  -12.5320   26.4741 C   0  0  0  0  0  0  0  0  0  0  0  0
    7.0967  -12.7597   25.3960 C   0  0  2  0  0  0  0  0  0  0  0  0
    7.2753  -11.4584   24.6042 C   0  0  0  0  0  0  0  0  0  0  0  0
    6.8335  -13.8485   24.4381 C   0  0  0  0  0  0  0  0  0  0  0  0
    7.9430  -14.3133   23.5760 C   0  0  2  0  0  0  0  0  0  0  0  0
    7.6020  -15.4215   22.7118 N   0  0  0  0  0  0  0  0  0  0  0  0
    9.2207  -14.5332   24.2819 C   0  0  0  0  0  0  0  0  0  0  0  0
   10.0295  -13.5758   24.3883 O   0  0  0  0  0  0  0  0  0  0  0  0
   12.1248  -16.8959   32.1191 O   0  0  0  0  0  0  0  0  0  0  0  0
   11.4939  -16.6409   30.9226 C   0  0  0  0  0  0  0  0  0  0  0  0
   11.2722  -15.3498   30.4992 C   0  0  0  0  0  0  0  0  0  0  0  0
   10.6349  -15.1513   29.2908 C   0  0  0  0  0  0  0  0  0  0  0  0
   10.2037  -16.1852   28.4765 C   0  0  0  0  0  0  0  0  0  0  0  0
    9.5269  -15.9061   27.2030 C   0  0  0  0  0  0  0  0  0  0  0  0
   10.4437  -15.9201   26.0012 C   0  0  2  0  0  0  0  0  0  0  0  0
    9.5621  -15.7694   24.8359 N   0  0  0  0  0  0  0  0  0  0  0  0
   11.2496  -17.1388   25.9146 C   0  0  0  0  0  0  0  0  0  0  0  0
   12.4083  -17.1543   26.3835 O   0  0  0  0  0  0  0  0  0  0  0  0
   10.4398  -17.4770   28.9273 C   0  0  0  0  0  0  0  0  0  0  0  0
   11.0739  -17.6938   30.1293 C   0  0  0  0  0  0  0  0  0  0  0  0
   10.7254  -18.2649   25.3163 O   0  0  0  0  0  0  0  0  0  0  0  0
  2  1  1  6
  2  3  1  0
  4  6  1  0
  4  2  1  0
  4  5  1  6
  6  7  2  0
  9 11  1  0
  9  8  1  1
 10  9  1  0
 12 11  1  1
 12 14  1  0
 13 12  1  0
 13  6  1  0
 14 15  2  0
 16 17  1  0
 17 18  2  0
 18 19  1  0
 20 19  2  0
 20 21  1  0
 22 21  1  1
 22 24  1  0
 23 22  1  0
 23 14  1  0
 24 25  2  0
 24 28  1  0
 26 20  1  0
 27 17  1  0
 27 26  2  0
M  END
$$$$
