VLY.pdb
     RDKit          3D

 28 28  0  0  1  0  0  0  0  0999 V2000
    7.4067  -18.8247   23.0218 C   0  0  0  0  0  0  0  0  0  0  0  0
    6.6313  -17.9178   22.0792 C   0  0  2  0  0  0  0  0  0  0  0  0
    6.1112  -18.7800   20.9556 C   0  0  0  0  0  0  0  0  0  0  0  0
    7.5612  -16.8315   21.5585 C   0  0  2  0  0  0  0  0  0  0  0  0
    8.6347  -17.3795   20.7949 N   0  0  0  0  0  0  0  0  0  0  0  0
    7.9999  -15.9487   22.6547 C   0  0  0  0  0  0  0  0  0  0  0  0
    9.1590  -16.1055   23.1176 O   0  0  0  0  0  0  0  0  0  0  0  0
    8.0135  -12.6052   26.7910 C   0  0  0  0  0  0  0  0  0  0  0  0
    7.2454  -11.9986   25.6787 C   0  0  2  0  0  0  0  0  0  0  0  0
    5.9386  -11.4210   26.2361 C   0  0  0  0  0  0  0  0  0  0  0  0
    6.9152  -12.8528   24.5239 C   0  0  0  0  0  0  0  0  0  0  0  0
    7.5784  -14.1708   24.4088 C   0  0  2  0  0  0  0  0  0  0  0  0
    7.2049  -14.9251   23.2328 N   0  0  0  0  0  0  0  0  0  0  0  0
    7.5305  -14.9934   25.6336 C   0  0  0  0  0  0  0  0  0  0  0  0
    6.4110  -15.2821   26.1292 O   0  0  0  0  0  0  0  0  0  0  0  0
    8.3412  -22.7846   28.9533 O   0  0  0  0  0  0  0  0  0  0  0  0
    8.2947  -21.5669   28.3131 C   0  0  0  0  0  0  0  0  0  0  0  0
    7.1211  -21.0974   27.7674 C   0  0  0  0  0  0  0  0  0  0  0  0
    7.1309  -19.8696   27.1365 C   0  0  0  0  0  0  0  0  0  0  0  0
    8.2626  -19.0797   27.0215 C   0  0  0  0  0  0  0  0  0  0  0  0
    8.2070  -17.7833   26.3329 C   0  0  0  0  0  0  0  0  0  0  0  0
    8.7075  -16.6225   27.1619 C   0  0  2  0  0  0  0  0  0  0  0  0
    8.6871  -15.4622   26.2613 N   0  0  0  0  0  0  0  0  0  0  0  0
   10.0425  -16.8529   27.7158 C   0  0  0  0  0  0  0  0  0  0  0  0
   10.1841  -17.0394   28.9437 O   0  0  0  0  0  0  0  0  0  0  0  0
    9.4322  -19.5768   27.5805 C   0  0  0  0  0  0  0  0  0  0  0  0
    9.4411  -20.7988   28.2133 C   0  0  0  0  0  0  0  0  0  0  0  0
   11.1382  -16.8638   26.8790 O   0  0  0  0  0  0  0  0  0  0  0  0
  2  1  1  1
  2  3  1  0
  4  6  1  0
  4  2  1  0
  4  5  1  1
  6  7  2  0
  9 11  1  0
  9  8  1  1
 10  9  1  0
 12 11  1  1
 12 14  1  0
 13 12  1  0
 13  6  1  0
 14 15  2  0
 16 17  1  0
 17 18  2  0
 18 19  1  0
 20 19  2  0
 20 21  1  0
 22 21  1  6
 22 24  1  0
 23 22  1  0
 23 14  1  0
 24 25  2  0
 24 28  1  0
 26 20  1  0
 27 17  1  0
 27 26  2  0
M  END
$$$$
