VLY.pdb
     RDKit          3D

 28 28  0  0  1  0  0  0  0  0999 V2000
    8.4524  -19.6459   20.5830 C   0  0  0  0  0  0  0  0  0  0  0  0
    8.7692  -18.3938   21.3855 C   0  0  2  0  0  0  0  0  0  0  0  0
    8.5207  -18.7183   22.8378 C   0  0  0  0  0  0  0  0  0  0  0  0
    7.8726  -17.2595   20.9105 C   0  0  2  0  0  0  0  0  0  0  0  0
    7.9405  -17.0928   19.4951 N   0  0  0  0  0  0  0  0  0  0  0  0
    8.1441  -16.0251   21.6694 C   0  0  0  0  0  0  0  0  0  0  0  0
    9.2215  -15.4148   21.4476 O   0  0  0  0  0  0  0  0  0  0  0  0
    5.8297  -12.6075   26.4603 C   0  0  0  0  0  0  0  0  0  0  0  0
    6.8005  -12.8406   25.3656 C   0  0  2  0  0  0  0  0  0  0  0  0
    6.9142  -11.5636   24.5239 C   0  0  0  0  0  0  0  0  0  0  0  0
    6.5516  -13.9717   24.4540 C   0  0  0  0  0  0  0  0  0  0  0  0
    7.6174  -14.3592   23.5031 C   0  0  2  0  0  0  0  0  0  0  0  0
    7.2727  -15.4679   22.6411 N   0  0  0  0  0  0  0  0  0  0  0  0
    8.9537  -14.5221   24.1088 C   0  0  0  0  0  0  0  0  0  0  0  0
    9.7735  -13.5707   24.0391 O   0  0  0  0  0  0  0  0  0  0  0  0
   12.1007  -16.5365   32.0071 O   0  0  0  0  0  0  0  0  0  0  0  0
   11.4261  -16.4270   30.8122 C   0  0  0  0  0  0  0  0  0  0  0  0
   10.9874  -17.5459   30.1408 C   0  0  0  0  0  0  0  0  0  0  0  0
   10.3160  -17.3784   28.9463 C   0  0  0  0  0  0  0  0  0  0  0  0
   10.0581  -16.1399   28.3829 C   0  0  0  0  0  0  0  0  0  0  0  0
    9.3417  -16.0303   27.1052 C   0  0  0  0  0  0  0  0  0  0  0  0
   10.2328  -15.7262   25.9225 C   0  0  2  0  0  0  0  0  0  0  0  0
    9.3388  -15.6981   24.7572 N   0  0  0  0  0  0  0  0  0  0  0  0
   11.3085  -16.7043   25.7544 C   0  0  0  0  0  0  0  0  0  0  0  0
   12.3030  -16.6730   26.5112 O   0  0  0  0  0  0  0  0  0  0  0  0
   10.5112  -15.0284   29.0807 C   0  0  0  0  0  0  0  0  0  0  0  0
   11.1823  -15.1763   30.2730 C   0  0  0  0  0  0  0  0  0  0  0  0
   11.2188  -17.6566   24.7615 O   0  0  0  0  0  0  0  0  0  0  0  0
  2  1  1  6
  2  3  1  0
  4  6  1  0
  4  2  1  0
  4  5  1  6
  6  7  2  0
  9 11  1  0
  9  8  1  1
 10  9  1  0
 12 11  1  1
 12 14  1  0
 13 12  1  0
 13  6  1  0
 14 15  2  0
 16 17  1  0
 17 18  2  0
 18 19  1  0
 20 19  2  0
 20 21  1  0
 22 21  1  1
 22 24  1  0
 23 22  1  0
 23 14  1  0
 24 25  2  0
 24 28  1  0
 26 20  1  0
 27 17  1  0
 27 26  2  0
M  END
$$$$
