VLY.pdb
     RDKit          3D

 28 28  0  0  1  0  0  0  0  0999 V2000
    7.4092  -17.5770   19.3636 C   0  0  0  0  0  0  0  0  0  0  0  0
    7.9656  -17.0799   20.6885 C   0  0  2  0  0  0  0  0  0  0  0  0
    7.0637  -17.6053   21.7779 C   0  0  0  0  0  0  0  0  0  0  0  0
    7.9908  -15.5583   20.6767 C   0  0  2  0  0  0  0  0  0  0  0  0
    8.7771  -15.0535   19.5984 N   0  0  0  0  0  0  0  0  0  0  0  0
    8.3821  -15.0313   21.9968 C   0  0  0  0  0  0  0  0  0  0  0  0
    9.5910  -15.1110   22.3351 O   0  0  0  0  0  0  0  0  0  0  0  0
    7.6462  -13.2550   27.2732 C   0  0  0  0  0  0  0  0  0  0  0  0
    7.3647  -12.3673   26.1209 C   0  0  2  0  0  0  0  0  0  0  0  0
    6.2740  -11.3663   26.5213 C   0  0  0  0  0  0  0  0  0  0  0  0
    6.9672  -12.9961   24.8485 C   0  0  0  0  0  0  0  0  0  0  0  0
    7.8578  -14.0209   24.2594 C   0  0  2  0  0  0  0  0  0  0  0  0
    7.4884  -14.4349   22.9240 N   0  0  0  0  0  0  0  0  0  0  0  0
    8.1380  -15.1725   25.1395 C   0  0  0  0  0  0  0  0  0  0  0  0
    7.1778  -15.8776   25.5432 O   0  0  0  0  0  0  0  0  0  0  0  0
   15.2552  -15.8780   23.0612 O   0  0  0  0  0  0  0  0  0  0  0  0
   14.0685  -16.3177   23.6027 C   0  0  0  0  0  0  0  0  0  0  0  0
   14.0339  -16.9183   24.8411 C   0  0  0  0  0  0  0  0  0  0  0  0
   12.8166  -17.3405   25.3365 C   0  0  0  0  0  0  0  0  0  0  0  0
   11.6215  -17.1924   24.6526 C   0  0  0  0  0  0  0  0  0  0  0  0
   10.3592  -17.6680   25.2343 C   0  0  0  0  0  0  0  0  0  0  0  0
    9.7670  -16.7373   26.2679 C   0  0  2  0  0  0  0  0  0  0  0  0
    9.4345  -15.5058   25.5393 N   0  0  0  0  0  0  0  0  0  0  0  0
   10.6759  -16.4752   27.3847 C   0  0  0  0  0  0  0  0  0  0  0  0
   11.0696  -17.4199   28.1026 O   0  0  0  0  0  0  0  0  0  0  0  0
   11.6848  -16.5835   23.4065 C   0  0  0  0  0  0  0  0  0  0  0  0
   12.8896  -16.1563   22.8967 C   0  0  0  0  0  0  0  0  0  0  0  0
   11.0942  -15.1863   27.6389 O   0  0  0  0  0  0  0  0  0  0  0  0
  2  1  1  6
  2  3  1  0
  4  6  1  0
  4  2  1  0
  4  5  1  6
  6  7  2  0
  9 11  1  0
  9  8  1  1
 10  9  1  0
 12 11  1  1
 12 14  1  0
 13 12  1  0
 13  6  1  0
 14 15  2  0
 16 17  1  0
 17 18  2  0
 18 19  1  0
 20 19  2  0
 20 21  1  0
 22 21  1  6
 22 24  1  0
 23 22  1  0
 23 14  1  0
 24 25  2  0
 24 28  1  0
 26 20  1  0
 27 17  1  0
 27 26  2  0
M  END
$$$$
