VLY.pdb
     RDKit          3D

 28 28  0  0  1  0  0  0  0  0999 V2000
   10.9433  -21.3521   19.5661 C   0  0  0  0  0  0  0  0  0  0  0  0
   11.0018  -19.9411   20.1299 C   0  0  2  0  0  0  0  0  0  0  0  0
   10.2061  -19.9381   21.4117 C   0  0  0  0  0  0  0  0  0  0  0  0
   10.4143  -18.9749   19.1114 C   0  0  2  0  0  0  0  0  0  0  0  0
   11.1022  -19.0437   17.8633 N   0  0  0  0  0  0  0  0  0  0  0  0
   10.3292  -17.6134   19.6704 C   0  0  0  0  0  0  0  0  0  0  0  0
   11.3839  -16.9313   19.7395 O   0  0  0  0  0  0  0  0  0  0  0  0
    6.4886  -12.8655   20.9930 C   0  0  0  0  0  0  0  0  0  0  0  0
    7.7584  -13.6069   21.1752 C   0  0  2  0  0  0  0  0  0  0  0  0
    8.9089  -12.7665   20.6077 C   0  0  0  0  0  0  0  0  0  0  0  0
    7.8526  -14.9618   20.6029 C   0  0  0  0  0  0  0  0  0  0  0  0
    9.0848  -15.7454   20.8440 C   0  0  2  0  0  0  0  0  0  0  0  0
    9.1350  -17.0082   20.1412 N   0  0  0  0  0  0  0  0  0  0  0  0
    9.4563  -15.8868   22.2657 C   0  0  0  0  0  0  0  0  0  0  0  0
    8.9618  -16.8316   22.9327 O   0  0  0  0  0  0  0  0  0  0  0  0
   10.5314  -15.3759   30.6914 O   0  0  0  0  0  0  0  0  0  0  0  0
   10.2985  -15.2699   29.3388 C   0  0  0  0  0  0  0  0  0  0  0  0
   10.2019  -14.0386   28.7305 C   0  0  0  0  0  0  0  0  0  0  0  0
    9.9674  -13.9902   27.3710 C   0  0  0  0  0  0  0  0  0  0  0  0
    9.8230  -15.1184   26.5809 C   0  0  0  0  0  0  0  0  0  0  0  0
    9.5701  -14.9981   25.1388 C   0  0  0  0  0  0  0  0  0  0  0  0
   10.8016  -15.1734   24.2798 C   0  0  2  0  0  0  0  0  0  0  0  0
   10.3390  -15.0061   22.8956 N   0  0  0  0  0  0  0  0  0  0  0  0
   11.4540  -16.4685   24.4783 C   0  0  0  0  0  0  0  0  0  0  0  0
   12.6404  -16.5151   24.8693 O   0  0  0  0  0  0  0  0  0  0  0  0
    9.9250  -16.3470   27.2194 C   0  0  0  0  0  0  0  0  0  0  0  0
   10.1586  -16.4144   28.5740 C   0  0  0  0  0  0  0  0  0  0  0  0
   10.7553  -17.6315   24.2333 O   0  0  0  0  0  0  0  0  0  0  0  0
  2  1  1  6
  2  3  1  0
  4  6  1  0
  4  2  1  0
  4  5  1  6
  6  7  2  0
  9 11  1  0
  9  8  1  6
 10  9  1  0
 12 11  1  1
 12 14  1  0
 13 12  1  0
 13  6  1  0
 14 15  2  0
 16 17  1  0
 17 18  2  0
 18 19  1  0
 20 19  2  0
 20 21  1  0
 22 21  1  1
 22 24  1  0
 23 22  1  0
 23 14  1  0
 24 25  2  0
 24 28  1  0
 26 20  1  0
 27 17  1  0
 27 26  2  0
M  END
$$$$
