VLY.pdb
     RDKit          3D

 28 28  0  0  1  0  0  0  0  0999 V2000
    7.0563  -12.7923   20.2915 C   0  0  0  0  0  0  0  0  0  0  0  0
    8.0049  -13.8307   19.7135 C   0  0  2  0  0  0  0  0  0  0  0  0
    7.4692  -14.2209   18.3581 C   0  0  0  0  0  0  0  0  0  0  0  0
    8.0621  -15.0276   20.6517 C   0  0  2  0  0  0  0  0  0  0  0  0
    6.8250  -15.7381   20.6740 N   0  0  0  0  0  0  0  0  0  0  0  0
    8.5414  -14.6239   21.9861 C   0  0  0  0  0  0  0  0  0  0  0  0
    9.6703  -14.0757   22.0724 O   0  0  0  0  0  0  0  0  0  0  0  0
    7.2597  -11.4518   25.0815 C   0  0  0  0  0  0  0  0  0  0  0  0
    6.4999  -12.7235   25.1027 C   0  0  2  0  0  0  0  0  0  0  0  0
    5.3346  -12.5882   26.0906 C   0  0  0  0  0  0  0  0  0  0  0  0
    7.2353  -13.9595   25.4254 C   0  0  0  0  0  0  0  0  0  0  0  0
    8.2965  -14.4114   24.4981 C   0  0  2  0  0  0  0  0  0  0  0  0
    7.8177  -14.8090   23.1928 N   0  0  0  0  0  0  0  0  0  0  0  0
    9.2340  -15.3984   25.0693 C   0  0  0  0  0  0  0  0  0  0  0  0
    8.8182  -16.1927   25.9516 O   0  0  0  0  0  0  0  0  0  0  0  0
   11.1315  -15.0107   31.4260 O   0  0  0  0  0  0  0  0  0  0  0  0
   11.0389  -15.5396   30.1586 C   0  0  0  0  0  0  0  0  0  0  0  0
   10.8545  -14.7266   29.0629 C   0  0  0  0  0  0  0  0  0  0  0  0
   10.7684  -15.3100   27.8147 C   0  0  0  0  0  0  0  0  0  0  0  0
   10.8577  -16.6756   27.6027 C   0  0  0  0  0  0  0  0  0  0  0  0
   10.7534  -17.2339   26.2480 C   0  0  0  0  0  0  0  0  0  0  0  0
   11.5213  -16.4596   25.2010 C   0  0  2  0  0  0  0  0  0  0  0  0
   10.5681  -15.4800   24.6628 N   0  0  0  0  0  0  0  0  0  0  0  0
   12.0684  -17.3159   24.1476 C   0  0  0  0  0  0  0  0  0  0  0  0
   13.0314  -18.0728   24.3972 O   0  0  0  0  0  0  0  0  0  0  0  0
   11.0437  -17.4722   28.7245 C   0  0  0  0  0  0  0  0  0  0  0  0
   11.1318  -16.9081   29.9767 C   0  0  0  0  0  0  0  0  0  0  0  0
   11.5174  -17.2836   22.8842 O   0  0  0  0  0  0  0  0  0  0  0  0
  2  1  1  1
  2  3  1  0
  4  6  1  0
  4  2  1  0
  4  5  1  1
  6  7  2  0
  9 11  1  0
  9  8  1  1
 10  9  1  0
 12 11  1  1
 12 14  1  0
 13 12  1  0
 13  6  1  0
 14 15  2  0
 16 17  1  0
 17 18  2  0
 18 19  1  0
 20 19  2  0
 20 21  1  0
 22 21  1  1
 22 24  1  0
 23 22  1  0
 23 14  1  0
 24 25  2  0
 24 28  1  0
 26 20  1  0
 27 17  1  0
 27 26  2  0
M  END
$$$$
