VLY.pdb
     RDKit          3D

 28 28  0  0  1  0  0  0  0  0999 V2000
    8.1715  -17.8645   20.1751 C   0  0  0  0  0  0  0  0  0  0  0  0
    8.7333  -17.2914   21.4666 C   0  0  2  0  0  0  0  0  0  0  0  0
    8.1717  -18.1116   22.6016 C   0  0  0  0  0  0  0  0  0  0  0  0
    8.3213  -15.8310   21.5822 C   0  0  2  0  0  0  0  0  0  0  0  0
    8.7696  -15.0677   20.4632 N   0  0  0  0  0  0  0  0  0  0  0  0
    8.7289  -15.2740   22.8849 C   0  0  0  0  0  0  0  0  0  0  0  0
    9.9379  -14.9681   23.0495 O   0  0  0  0  0  0  0  0  0  0  0  0
    8.1942  -11.5726   25.6312 C   0  0  0  0  0  0  0  0  0  0  0  0
    7.0529  -12.5172   25.6493 C   0  0  2  0  0  0  0  0  0  0  0  0
    5.9444  -11.9379   26.5369 C   0  0  0  0  0  0  0  0  0  0  0  0
    7.3122  -13.9020   26.0821 C   0  0  0  0  0  0  0  0  0  0  0  0
    8.2851  -14.7107   25.3141 C   0  0  2  0  0  0  0  0  0  0  0  0
    7.8510  -15.0548   23.9783 N   0  0  0  0  0  0  0  0  0  0  0  0
    8.8246  -15.8775   26.0398 C   0  0  0  0  0  0  0  0  0  0  0  0
    8.0936  -16.8895   26.1938 O   0  0  0  0  0  0  0  0  0  0  0  0
   13.2188  -18.1142   21.5249 O   0  0  0  0  0  0  0  0  0  0  0  0
   12.9548  -17.8673   22.8531 C   0  0  0  0  0  0  0  0  0  0  0  0
   12.3655  -18.8243   23.6484 C   0  0  0  0  0  0  0  0  0  0  0  0
   12.1233  -18.5236   24.9738 C   0  0  0  0  0  0  0  0  0  0  0  0
   12.4420  -17.3056   25.5507 C   0  0  0  0  0  0  0  0  0  0  0  0
   12.1533  -17.0472   26.9676 C   0  0  0  0  0  0  0  0  0  0  0  0
   10.6797  -17.0330   27.3043 C   0  0  2  0  0  0  0  0  0  0  0  0
   10.1205  -15.8958   26.5614 N   0  0  0  0  0  0  0  0  0  0  0  0
   10.4254  -16.9171   28.7410 C   0  0  0  0  0  0  0  0  0  0  0  0
   10.7912  -17.8288   29.5141 O   0  0  0  0  0  0  0  0  0  0  0  0
   13.0352  -16.3589   24.7265 C   0  0  0  0  0  0  0  0  0  0  0  0
   13.2843  -16.6411   23.4027 C   0  0  0  0  0  0  0  0  0  0  0  0
    9.7838  -15.8012   29.2347 O   0  0  0  0  0  0  0  0  0  0  0  0
  2  1  1  6
  2  3  1  0
  4  6  1  0
  4  2  1  0
  4  5  1  6
  6  7  2  0
  9 11  1  0
  9  8  1  1
 10  9  1  0
 12 11  1  1
 12 14  1  0
 13 12  1  0
 13  6  1  0
 14 15  2  0
 16 17  1  0
 17 18  2  0
 18 19  1  0
 20 19  2  0
 20 21  1  0
 22 21  1  1
 22 24  1  0
 23 22  1  0
 23 14  1  0
 24 25  2  0
 24 28  1  0
 26 20  1  0
 27 17  1  0
 27 26  2  0
M  END
$$$$
