VLY.pdb
     RDKit          3D

 28 28  0  0  1  0  0  0  0  0999 V2000
   11.7187  -18.9687   14.1952 C   0  0  0  0  0  0  0  0  0  0  0  0
   11.6884  -18.1953   15.5040 C   0  0  2  0  0  0  0  0  0  0  0  0
   11.0684  -19.0972   16.5425 C   0  0  0  0  0  0  0  0  0  0  0  0
   10.8694  -16.9270   15.3123 C   0  0  2  0  0  0  0  0  0  0  0  0
   11.3592  -16.1439   14.2249 N   0  0  0  0  0  0  0  0  0  0  0  0
   10.7549  -16.1817   16.5791 C   0  0  0  0  0  0  0  0  0  0  0  0
   11.7881  -15.6343   17.0431 O   0  0  0  0  0  0  0  0  0  0  0  0
    6.4864  -13.7127   20.4975 C   0  0  0  0  0  0  0  0  0  0  0  0
    7.8634  -13.9194   19.9913 C   0  0  2  0  0  0  0  0  0  0  0  0
    8.4146  -12.5780   19.4925 C   0  0  0  0  0  0  0  0  0  0  0  0
    8.0634  -14.9222   18.9299 C   0  0  0  0  0  0  0  0  0  0  0  0
    9.4480  -15.2869   18.5556 C   0  0  2  0  0  0  0  0  0  0  0  0
    9.5548  -16.0338   17.3220 N   0  0  0  0  0  0  0  0  0  0  0  0
   10.2397  -15.8955   19.6428 C   0  0  0  0  0  0  0  0  0  0  0  0
   10.1993  -17.1428   19.8001 O   0  0  0  0  0  0  0  0  0  0  0  0
   16.4994  -14.9490   17.1932 O   0  0  0  0  0  0  0  0  0  0  0  0
   15.6716  -14.9205   18.2927 C   0  0  0  0  0  0  0  0  0  0  0  0
   15.9489  -15.6779   19.4085 C   0  0  0  0  0  0  0  0  0  0  0  0
   15.0850  -15.6114   20.4831 C   0  0  0  0  0  0  0  0  0  0  0  0
   13.9483  -14.8205   20.5008 C   0  0  0  0  0  0  0  0  0  0  0  0
   13.0668  -14.7984   21.6757 C   0  0  0  0  0  0  0  0  0  0  0  0
   11.8674  -15.7118   21.5643 C   0  0  2  0  0  0  0  0  0  0  0  0
   11.0328  -15.1325   20.5033 N   0  0  0  0  0  0  0  0  0  0  0  0
   11.1304  -15.8390   22.8224 C   0  0  0  0  0  0  0  0  0  0  0  0
    9.9813  -15.3572   22.9228 O   0  0  0  0  0  0  0  0  0  0  0  0
   13.6924  -14.0671   19.3631 C   0  0  0  0  0  0  0  0  0  0  0  0
   14.5427  -14.1207   18.2823 C   0  0  0  0  0  0  0  0  0  0  0  0
   11.7079  -16.4909   23.8911 O   0  0  0  0  0  0  0  0  0  0  0  0
  2  1  1  6
  2  3  1  0
  4  6  1  0
  4  2  1  0
  4  5  1  6
  6  7  2  0
  9 11  1  0
  9  8  1  6
 10  9  1  0
 12 11  1  1
 12 14  1  0
 13 12  1  0
 13  6  1  0
 14 15  2  0
 16 17  1  0
 17 18  2  0
 18 19  1  0
 20 19  2  0
 20 21  1  0
 22 21  1  1
 22 24  1  0
 23 22  1  0
 23 14  1  0
 24 25  2  0
 24 28  1  0
 26 20  1  0
 27 17  1  0
 27 26  2  0
M  END
$$$$
