VLY.pdb
     RDKit          3D

 28 28  0  0  1  0  0  0  0  0999 V2000
    7.2075  -20.0324   23.0654 C   0  0  0  0  0  0  0  0  0  0  0  0
    5.9716  -19.2291   22.6921 C   0  0  2  0  0  0  0  0  0  0  0  0
    4.7870  -20.1580   22.7926 C   0  0  0  0  0  0  0  0  0  0  0  0
    6.1364  -18.6933   21.2773 C   0  0  2  0  0  0  0  0  0  0  0  0
    6.1863  -19.7481   20.3178 N   0  0  0  0  0  0  0  0  0  0  0  0
    7.2775  -17.7631   21.1998 C   0  0  0  0  0  0  0  0  0  0  0  0
    8.3572  -18.1848   20.7110 O   0  0  0  0  0  0  0  0  0  0  0  0
    7.9722  -13.8581   18.9362 C   0  0  0  0  0  0  0  0  0  0  0  0
    7.3126  -13.7210   20.2558 C   0  0  2  0  0  0  0  0  0  0  0  0
    6.8521  -12.2687   20.4310 C   0  0  0  0  0  0  0  0  0  0  0  0
    8.0807  -14.1076   21.4528 C   0  0  0  0  0  0  0  0  0  0  0  0
    8.4003  -15.5386   21.6542 C   0  0  2  0  0  0  0  0  0  0  0  0
    7.2493  -16.4141   21.6395 N   0  0  0  0  0  0  0  0  0  0  0  0
    9.2930  -15.8152   22.7968 C   0  0  0  0  0  0  0  0  0  0  0  0
    8.9082  -15.5151   23.9562 O   0  0  0  0  0  0  0  0  0  0  0  0
    7.3550  -20.2265   27.0506 O   0  0  0  0  0  0  0  0  0  0  0  0
    8.3742  -19.7137   26.2805 C   0  0  0  0  0  0  0  0  0  0  0  0
    8.4233  -19.9454   24.9242 C   0  0  0  0  0  0  0  0  0  0  0  0
    9.4678  -19.4073   24.1998 C   0  0  0  0  0  0  0  0  0  0  0  0
   10.4749  -18.6429   24.7652 C   0  0  0  0  0  0  0  0  0  0  0  0
   11.5621  -18.1026   23.9382 C   0  0  0  0  0  0  0  0  0  0  0  0
   11.4989  -16.6056   23.7376 C   0  0  2  0  0  0  0  0  0  0  0  0
   10.5516  -16.3994   22.6339 N   0  0  0  0  0  0  0  0  0  0  0  0
   12.8057  -16.0151   23.4449 C   0  0  0  0  0  0  0  0  0  0  0  0
   13.6744  -15.9488   24.3415 O   0  0  0  0  0  0  0  0  0  0  0  0
   10.4011  -18.4247   26.1343 C   0  0  0  0  0  0  0  0  0  0  0  0
    9.3669  -18.9533   26.8725 C   0  0  0  0  0  0  0  0  0  0  0  0
   13.0724  -15.5354   22.1802 O   0  0  0  0  0  0  0  0  0  0  0  0
  2  1  1  6
  2  3  1  0
  4  6  1  0
  4  2  1  0
  4  5  1  6
  6  7  2  0
  9 11  1  0
  9  8  1  6
 10  9  1  0
 12 11  1  1
 12 14  1  0
 13 12  1  0
 13  6  1  0
 14 15  2  0
 16 17  1  0
 17 18  2  0
 18 19  1  0
 20 19  2  0
 20 21  1  0
 22 21  1  6
 22 24  1  0
 23 22  1  0
 23 14  1  0
 24 25  2  0
 24 28  1  0
 26 20  1  0
 27 17  1  0
 27 26  2  0
M  END
$$$$
