VLY.pdb
     RDKit          3D

 28 28  0  0  1  0  0  0  0  0999 V2000
   10.3482  -21.0499   19.2437 C   0  0  0  0  0  0  0  0  0  0  0  0
   10.4609  -19.7771   20.0679 C   0  0  2  0  0  0  0  0  0  0  0  0
    9.6104  -19.9650   21.2998 C   0  0  0  0  0  0  0  0  0  0  0  0
    9.9747  -18.6007   19.2338 C   0  0  2  0  0  0  0  0  0  0  0  0
   10.6425  -18.5372   17.9744 N   0  0  0  0  0  0  0  0  0  0  0  0
   10.0417  -17.3476   20.0074 C   0  0  0  0  0  0  0  0  0  0  0  0
   11.1747  -16.8588   20.2518 O   0  0  0  0  0  0  0  0  0  0  0  0
    8.5587  -12.9598   19.3619 C   0  0  0  0  0  0  0  0  0  0  0  0
    7.5510  -13.9132   19.8820 C   0  0  2  0  0  0  0  0  0  0  0  0
    6.1936  -13.2039   19.9638 C   0  0  0  0  0  0  0  0  0  0  0  0
    7.8151  -14.5522   21.1836 C   0  0  0  0  0  0  0  0  0  0  0  0
    8.9895  -15.4445   21.3061 C   0  0  2  0  0  0  0  0  0  0  0  0
    8.9128  -16.6442   20.5022 N   0  0  0  0  0  0  0  0  0  0  0  0
    9.4022  -15.7323   22.6939 C   0  0  0  0  0  0  0  0  0  0  0  0
    8.8574  -16.6871   23.3051 O   0  0  0  0  0  0  0  0  0  0  0  0
   10.6293  -15.3962   31.1389 O   0  0  0  0  0  0  0  0  0  0  0  0
   10.3883  -15.2773   29.7888 C   0  0  0  0  0  0  0  0  0  0  0  0
   10.5793  -14.0795   29.1375 C   0  0  0  0  0  0  0  0  0  0  0  0
   10.3223  -14.0163   27.7827 C   0  0  0  0  0  0  0  0  0  0  0  0
    9.8804  -15.0974   27.0384 C   0  0  0  0  0  0  0  0  0  0  0  0
    9.6208  -14.9624   25.5988 C   0  0  0  0  0  0  0  0  0  0  0  0
   10.8211  -15.2497   24.7260 C   0  0  2  0  0  0  0  0  0  0  0  0
   10.3780  -14.9794   23.3517 N   0  0  0  0  0  0  0  0  0  0  0  0
   11.3174  -16.6186   24.8739 C   0  0  0  0  0  0  0  0  0  0  0  0
   10.6121  -17.5809   24.5009 O   0  0  0  0  0  0  0  0  0  0  0  0
    9.6963  -16.2929   27.7198 C   0  0  0  0  0  0  0  0  0  0  0  0
    9.9475  -16.3745   29.0704 C   0  0  0  0  0  0  0  0  0  0  0  0
   12.5622  -16.8398   25.4238 O   0  0  0  0  0  0  0  0  0  0  0  0
  2  1  1  6
  2  3  1  0
  4  6  1  0
  4  2  1  0
  4  5  1  6
  6  7  2  0
  9 11  1  0
  9  8  1  1
 10  9  1  0
 12 11  1  1
 12 14  1  0
 13 12  1  0
 13  6  1  0
 14 15  2  0
 16 17  1  0
 17 18  2  0
 18 19  1  0
 20 19  2  0
 20 21  1  0
 22 21  1  1
 22 24  1  0
 23 22  1  0
 23 14  1  0
 24 25  2  0
 24 28  1  0
 26 20  1  0
 27 17  1  0
 27 26  2  0
M  END
$$$$
