DLY.pdb
     RDKit          3D

 29 29  0  0  1  0  0  0  0  0999 V2000
   27.3267  -20.9444  -15.5902 N   0  0  0  0  0  0  0  0  0  0  0  0
   26.6790  -20.0816  -14.6298 C   0  0  1  0  0  0  0  0  0  0  0  0
   25.3644  -19.6286  -15.1738 C   0  0  0  0  0  0  0  0  0  0  0  0
   25.4254  -18.8597  -16.4205 C   0  0  0  0  0  0  0  0  0  0  0  0
   25.0696  -19.2539  -17.5486 O   0  0  0  0  0  0  0  0  0  0  0  0
   26.5050  -20.7658  -13.3158 C   0  0  0  0  0  0  0  0  0  0  0  0
   26.2352  -22.0146  -13.2699 O   0  0  0  0  0  0  0  0  0  0  0  0
   25.9293  -17.5629  -16.3400 O   0  0  0  0  0  0  0  0  0  0  0  0
   28.1001  -21.2017   -8.0115 C   0  0  0  0  0  0  0  0  0  0  0  0
   26.8151  -20.4675   -8.3301 C   0  0  1  0  0  0  0  0  0  0  0  0
   26.7389  -19.3104   -7.3316 C   0  0  0  0  0  0  0  0  0  0  0  0
   26.8528  -19.8791   -9.6961 C   0  0  0  0  0  0  0  0  0  0  0  0
   26.4570  -20.8136  -10.7994 C   0  0  2  0  0  0  0  0  0  0  0  0
   26.6179  -20.1218  -12.0713 N   0  0  0  0  0  0  0  0  0  0  0  0
   25.0854  -21.3432  -10.6474 C   0  0  0  0  0  0  0  0  0  0  0  0
   24.8708  -22.2126   -9.7813 O   0  0  0  0  0  0  0  0  0  0  0  0
   17.9693  -22.9370   -7.0718 O   0  0  0  0  0  0  0  0  0  0  0  0
   18.9648  -22.3347   -7.8368 C   0  0  0  0  0  0  0  0  0  0  0  0
   18.6421  -21.6500   -8.9889 C   0  0  0  0  0  0  0  0  0  0  0  0
   19.6071  -21.0417   -9.7692 C   0  0  0  0  0  0  0  0  0  0  0  0
   20.9438  -21.0933   -9.4275 C   0  0  0  0  0  0  0  0  0  0  0  0
   22.0174  -20.4638  -10.2257 C   0  0  0  0  0  0  0  0  0  0  0  0
   22.6247  -21.3820  -11.2590 C   0  0  2  0  0  0  0  0  0  0  0  0
   23.9986  -20.8959  -11.4553 N   0  0  0  0  0  0  0  0  0  0  0  0
   21.9678  -21.2956  -12.5825 C   0  0  0  0  0  0  0  0  0  0  0  0
   20.8412  -22.0323  -12.9293 O   0  0  0  0  0  0  0  0  0  0  0  0
   21.2756  -21.7764   -8.2763 C   0  0  0  0  0  0  0  0  0  0  0  0
   20.2983  -22.3895   -7.4906 C   0  0  0  0  0  0  0  0  0  0  0  0
   22.4619  -20.5016  -13.4536 O   0  0  0  0  0  0  0  0  0  0  0  0
  2  1  1  6
  2  3  1  0
  4  3  1  0
  4  8  1  0
  5  4  2  0
  6  2  1  0
  7  6  2  0
 10 12  1  0
 10  9  1  1
 11 10  1  0
 13 12  1  1
 13 14  1  0
 14  6  1  0
 15 24  1  0
 15 13  1  0
 16 15  2  0
 18 17  1  0
 19 18  2  0
 20 19  1  0
 21 20  2  0
 21 27  1  0
 23 22  1  1
 22 21  1  0
 23 25  1  0
 23 24  1  0
 25 26  1  0
 27 28  2  0
 28 18  1  0
 29 25  2  0
M  END
$$$$
