DLY.pdb
     RDKit          3D

 29 29  0  0  1  0  0  0  0  0999 V2000
   29.3139  -19.3378  -16.4932 N   0  0  0  0  0  0  0  0  0  0  0  0
   28.4953  -20.5212  -16.6185 C   0  0  1  0  0  0  0  0  0  0  0  0
   29.2344  -21.5583  -17.3980 C   0  0  0  0  0  0  0  0  0  0  0  0
   29.6462  -21.1624  -18.7482 C   0  0  0  0  0  0  0  0  0  0  0  0
   29.4677  -20.0474  -19.2767 O   0  0  0  0  0  0  0  0  0  0  0  0
   28.0912  -21.0461  -15.2820 C   0  0  0  0  0  0  0  0  0  0  0  0
   27.3214  -22.0629  -15.1945 O   0  0  0  0  0  0  0  0  0  0  0  0
   30.3004  -22.1230  -19.5172 O   0  0  0  0  0  0  0  0  0  0  0  0
   31.3655  -20.6906  -10.8925 C   0  0  0  0  0  0  0  0  0  0  0  0
   30.3724  -21.2154  -11.9074 C   0  0  1  0  0  0  0  0  0  0  0  0
   30.2354  -22.7120  -11.6194 C   0  0  0  0  0  0  0  0  0  0  0  0
   29.0314  -20.5985  -11.7210 C   0  0  0  0  0  0  0  0  0  0  0  0
   28.0190  -20.9555  -12.7673 C   0  0  2  0  0  0  0  0  0  0  0  0
   28.5053  -20.4897  -14.0592 N   0  0  0  0  0  0  0  0  0  0  0  0
   26.6718  -20.4209  -12.4777 C   0  0  0  0  0  0  0  0  0  0  0  0
   26.4943  -19.1884  -12.5172 O   0  0  0  0  0  0  0  0  0  0  0  0
   17.8046  -20.2158  -11.6385 O   0  0  0  0  0  0  0  0  0  0  0  0
   19.1395  -20.5126  -11.9013 C   0  0  0  0  0  0  0  0  0  0  0  0
   19.9823  -19.5480  -12.4107 C   0  0  0  0  0  0  0  0  0  0  0  0
   21.3116  -19.8118  -12.6818 C   0  0  0  0  0  0  0  0  0  0  0  0
   21.8569  -21.0594  -12.4532 C   0  0  0  0  0  0  0  0  0  0  0  0
   23.2699  -21.3977  -12.7270 C   0  0  0  0  0  0  0  0  0  0  0  0
   24.2479  -20.7225  -11.7957 C   0  0  2  0  0  0  0  0  0  0  0  0
   25.5674  -21.2635  -12.1548 N   0  0  0  0  0  0  0  0  0  0  0  0
   24.0390  -21.0669  -10.3716 C   0  0  0  0  0  0  0  0  0  0  0  0
   23.1724  -20.3743   -9.5340 O   0  0  0  0  0  0  0  0  0  0  0  0
   21.0206  -22.0305  -11.9436 C   0  0  0  0  0  0  0  0  0  0  0  0
   19.6786  -21.7605  -11.6710 C   0  0  0  0  0  0  0  0  0  0  0  0
   24.6894  -22.0536   -9.8850 O   0  0  0  0  0  0  0  0  0  0  0  0
  2  1  1  1
  2  3  1  0
  4  3  1  0
  4  8  1  0
  5  4  2  0
  6  2  1  0
  7  6  2  0
 10 12  1  0
 10  9  1  1
 11 10  1  0
 13 12  1  1
 13 14  1  0
 14  6  1  0
 15 24  1  0
 15 13  1  0
 16 15  2  0
 18 17  1  0
 19 18  2  0
 20 19  1  0
 21 20  2  0
 21 27  1  0
 23 22  1  6
 22 21  1  0
 23 25  1  0
 23 24  1  0
 25 26  1  0
 27 28  2  0
 28 18  1  0
 29 25  2  0
M  END
$$$$
