DLY.pdb
     RDKit          3D

 29 29  0  0  1  0  0  0  0  0999 V2000
   20.6882  -13.6451  -18.5130 N   0  0  0  0  0  0  0  0  0  0  0  0
   21.2367  -12.4252  -19.0584 C   0  0  1  0  0  0  0  0  0  0  0  0
   20.1526  -11.6472  -19.7284 C   0  0  0  0  0  0  0  0  0  0  0  0
   19.4396  -12.3479  -20.8007 C   0  0  0  0  0  0  0  0  0  0  0  0
   19.9589  -12.9551  -21.7578 O   0  0  0  0  0  0  0  0  0  0  0  0
   21.9035  -11.6098  -18.0022 C   0  0  0  0  0  0  0  0  0  0  0  0
   21.3084  -11.3783  -16.8947 O   0  0  0  0  0  0  0  0  0  0  0  0
   18.0471  -12.3357  -20.7476 O   0  0  0  0  0  0  0  0  0  0  0  0
   25.8666  -10.2220  -14.6968 C   0  0  0  0  0  0  0  0  0  0  0  0
   26.1589   -9.8906  -16.1447 C   0  0  1  0  0  0  0  0  0  0  0  0
   27.6113  -10.3097  -16.3821 C   0  0  0  0  0  0  0  0  0  0  0  0
   25.3057  -10.6895  -17.0653 C   0  0  0  0  0  0  0  0  0  0  0  0
   23.8514  -10.3259  -17.0568 C   0  0  2  0  0  0  0  0  0  0  0  0
   23.1871  -11.0513  -18.1313 N   0  0  0  0  0  0  0  0  0  0  0  0
   23.6164   -8.8708  -17.1675 C   0  0  0  0  0  0  0  0  0  0  0  0
   23.9552   -8.2865  -18.2145 O   0  0  0  0  0  0  0  0  0  0  0  0
   19.9390   -0.9315  -15.3307 O   0  0  0  0  0  0  0  0  0  0  0  0
   20.3201   -2.2704  -15.3638 C   0  0  0  0  0  0  0  0  0  0  0  0
   20.0739   -3.0392  -16.4811 C   0  0  0  0  0  0  0  0  0  0  0  0
   20.4400   -4.3704  -16.5443 C   0  0  0  0  0  0  0  0  0  0  0  0
   21.0718   -4.9922  -15.4857 C   0  0  0  0  0  0  0  0  0  0  0  0
   21.4828   -6.4124  -15.4977 C   0  0  0  0  0  0  0  0  0  0  0  0
   22.7713   -6.6659  -16.2428 C   0  0  2  0  0  0  0  0  0  0  0  0
   23.0161   -8.1108  -16.1207 N   0  0  0  0  0  0  0  0  0  0  0  0
   23.9445   -5.9999  -15.6342 C   0  0  0  0  0  0  0  0  0  0  0  0
   24.4636   -4.7934  -16.0895 O   0  0  0  0  0  0  0  0  0  0  0  0
   21.3219   -4.2302  -14.3638 C   0  0  0  0  0  0  0  0  0  0  0  0
   20.9508   -2.8860  -14.3035 C   0  0  0  0  0  0  0  0  0  0  0  0
   24.5114   -6.5631  -14.6368 O   0  0  0  0  0  0  0  0  0  0  0  0
  2  1  1  1
  2  3  1  0
  4  3  1  0
  4  8  1  0
  5  4  2  0
  6  2  1  0
  7  6  2  0
 10 12  1  0
 10  9  1  1
 11 10  1  0
 13 12  1  6
 13 14  1  0
 14  6  1  0
 15 24  1  0
 15 13  1  0
 16 15  2  0
 18 17  1  0
 19 18  2  0
 20 19  1  0
 21 20  2  0
 21 27  1  0
 23 22  1  1
 22 21  1  0
 23 25  1  0
 23 24  1  0
 25 26  1  0
 27 28  2  0
 28 18  1  0
 29 25  2  0
M  END
$$$$
