DLY.pdb
     RDKit          3D

 29 29  0  0  1  0  0  0  0  0999 V2000
   20.7991  -10.0961  -19.8702 N   0  0  0  0  0  0  0  0  0  0  0  0
   19.9142  -10.3195  -18.7507 C   0  0  1  0  0  0  0  0  0  0  0  0
   19.2995  -11.6755  -18.8642 C   0  0  0  0  0  0  0  0  0  0  0  0
   18.4669  -11.8967  -20.0504 C   0  0  0  0  0  0  0  0  0  0  0  0
   18.4904  -11.2291  -21.1031 O   0  0  0  0  0  0  0  0  0  0  0  0
   20.6321  -10.1665  -17.4521 C   0  0  0  0  0  0  0  0  0  0  0  0
   20.0074  -10.3234  -16.3478 O   0  0  0  0  0  0  0  0  0  0  0  0
   17.5609  -12.9544  -19.9992 O   0  0  0  0  0  0  0  0  0  0  0  0
   24.8162  -11.1538  -14.2336 C   0  0  0  0  0  0  0  0  0  0  0  0
   24.9923   -9.8990  -15.0620 C   0  0  1  0  0  0  0  0  0  0  0  0
   26.4569   -9.8957  -15.5052 C   0  0  0  0  0  0  0  0  0  0  0  0
   24.1526   -9.9391  -16.2896 C   0  0  0  0  0  0  0  0  0  0  0  0
   22.6850   -9.7374  -16.0600 C   0  0  2  0  0  0  0  0  0  0  0  0
   21.9971   -9.8501  -17.3391 N   0  0  0  0  0  0  0  0  0  0  0  0
   22.3725   -8.4549  -15.3949 C   0  0  0  0  0  0  0  0  0  0  0  0
   22.4465   -8.3898  -14.1529 O   0  0  0  0  0  0  0  0  0  0  0  0
   21.3183    0.4187  -14.9937 O   0  0  0  0  0  0  0  0  0  0  0  0
   21.6472   -0.9108  -15.2455 C   0  0  0  0  0  0  0  0  0  0  0  0
   22.1440   -1.7102  -14.2383 C   0  0  0  0  0  0  0  0  0  0  0  0
   22.4795   -3.0330  -14.4568 C   0  0  0  0  0  0  0  0  0  0  0  0
   22.3311   -3.6152  -15.7000 C   0  0  0  0  0  0  0  0  0  0  0  0
   22.6761   -5.0232  -15.9907 C   0  0  0  0  0  0  0  0  0  0  0  0
   21.6748   -6.0176  -15.4539 C   0  0  2  0  0  0  0  0  0  0  0  0
   21.9896   -7.2893  -16.1219 N   0  0  0  0  0  0  0  0  0  0  0  0
   20.2759   -5.7001  -15.8183 C   0  0  0  0  0  0  0  0  0  0  0  0
   19.4269   -4.9452  -15.0172 O   0  0  0  0  0  0  0  0  0  0  0  0
   21.8348   -2.8225  -16.7134 C   0  0  0  0  0  0  0  0  0  0  0  0
   21.4970   -1.4869  -16.4891 C   0  0  0  0  0  0  0  0  0  0  0  0
   19.8234   -6.1430  -16.9284 O   0  0  0  0  0  0  0  0  0  0  0  0
  2  1  1  6
  2  3  1  0
  4  3  1  0
  4  8  1  0
  5  4  2  0
  6  2  1  0
  7  6  2  0
 10 12  1  0
 10  9  1  1
 11 10  1  0
 13 12  1  6
 13 14  1  0
 14  6  1  0
 15 24  1  0
 15 13  1  0
 16 15  2  0
 18 17  1  0
 19 18  2  0
 20 19  1  0
 21 20  2  0
 21 27  1  0
 23 22  1  6
 22 21  1  0
 23 25  1  0
 23 24  1  0
 25 26  1  0
 27 28  2  0
 28 18  1  0
 29 25  2  0
M  END
$$$$
