DLY.pdb
     RDKit          3D

 29 29  0  0  1  0  0  0  0  0999 V2000
   20.1305  -12.3778  -19.0672 N   0  0  0  0  0  0  0  0  0  0  0  0
   21.3029  -11.5427  -19.1878 C   0  0  1  0  0  0  0  0  0  0  0  0
   21.0286  -10.4344  -20.1501 C   0  0  0  0  0  0  0  0  0  0  0  0
   20.8505  -10.8385  -21.5480 C   0  0  0  0  0  0  0  0  0  0  0  0
   20.2840  -10.1775  -22.4405 O   0  0  0  0  0  0  0  0  0  0  0  0
   21.7255  -11.0052  -17.8620 C   0  0  0  0  0  0  0  0  0  0  0  0
   20.8519  -10.5852  -17.0284 O   0  0  0  0  0  0  0  0  0  0  0  0
   21.3629  -12.0806  -21.9177 O   0  0  0  0  0  0  0  0  0  0  0  0
   26.1889  -13.0373  -15.5374 C   0  0  0  0  0  0  0  0  0  0  0  0
   24.8035  -12.5072  -15.8398 C   0  0  1  0  0  0  0  0  0  0  0  0
   23.8955  -13.0671  -14.7428 C   0  0  0  0  0  0  0  0  0  0  0  0
   24.7595  -11.0231  -15.7441 C   0  0  0  0  0  0  0  0  0  0  0  0
   23.4513  -10.4020  -16.1316 C   0  0  2  0  0  0  0  0  0  0  0  0
   23.0626  -10.9190  -17.4369 N   0  0  0  0  0  0  0  0  0  0  0  0
   23.4872   -8.9244  -16.1297 C   0  0  0  0  0  0  0  0  0  0  0  0
   24.0689   -8.3374  -17.0621 O   0  0  0  0  0  0  0  0  0  0  0  0
   20.8964   -0.8664  -17.1798 O   0  0  0  0  0  0  0  0  0  0  0  0
   21.1737   -2.2188  -16.9973 C   0  0  0  0  0  0  0  0  0  0  0  0
   20.4246   -3.1787  -17.6436 C   0  0  0  0  0  0  0  0  0  0  0  0
   20.6751   -4.5284  -17.4830 C   0  0  0  0  0  0  0  0  0  0  0  0
   21.6920   -4.9771  -16.6639 C   0  0  0  0  0  0  0  0  0  0  0  0
   22.0025   -6.4072  -16.4534 C   0  0  0  0  0  0  0  0  0  0  0  0
   22.7748   -6.6812  -15.1853 C   0  0  2  0  0  0  0  0  0  0  0  0
   22.8808   -8.1455  -15.1003 N   0  0  0  0  0  0  0  0  0  0  0  0
   22.0660   -6.2512  -13.9593 C   0  0  0  0  0  0  0  0  0  0  0  0
   22.3500   -5.0702  -13.2833 O   0  0  0  0  0  0  0  0  0  0  0  0
   22.4464   -4.0234  -16.0134 C   0  0  0  0  0  0  0  0  0  0  0  0
   22.1905   -2.6611  -16.1780 C   0  0  0  0  0  0  0  0  0  0  0  0
   21.1434   -7.0049  -13.4967 O   0  0  0  0  0  0  0  0  0  0  0  0
  2  1  1  1
  2  3  1  0
  4  3  1  0
  4  8  1  0
  5  4  2  0
  6  2  1  0
  7  6  2  0
 10 12  1  0
 10  9  1  1
 11 10  1  0
 13 12  1  6
 13 14  1  0
 14  6  1  0
 15 24  1  0
 15 13  1  0
 16 15  2  0
 18 17  1  0
 19 18  2  0
 20 19  1  0
 21 20  2  0
 21 27  1  0
 23 22  1  6
 22 21  1  0
 23 25  1  0
 23 24  1  0
 25 26  1  0
 27 28  2  0
 28 18  1  0
 29 25  2  0
M  END
$$$$
