DLY.pdb
     RDKit          3D

 29 29  0  0  1  0  0  0  0  0999 V2000
   31.1500  -22.8493  -18.5183 N   0  0  0  0  0  0  0  0  0  0  0  0
   31.2309  -24.2733  -18.2901 C   0  0  1  0  0  0  0  0  0  0  0  0
   32.5094  -24.5939  -17.5886 C   0  0  0  0  0  0  0  0  0  0  0  0
   33.7324  -24.1572  -18.2688 C   0  0  0  0  0  0  0  0  0  0  0  0
   33.7937  -23.5072  -19.3310 O   0  0  0  0  0  0  0  0  0  0  0  0
   30.0576  -24.7661  -17.5119 C   0  0  0  0  0  0  0  0  0  0  0  0
   30.2321  -25.4571  -16.4506 O   0  0  0  0  0  0  0  0  0  0  0  0
   34.9446  -24.5004  -17.6732 O   0  0  0  0  0  0  0  0  0  0  0  0
   25.0021  -24.6867  -15.3831 C   0  0  0  0  0  0  0  0  0  0  0  0
   25.1026  -24.8302  -16.8868 C   0  0  1  0  0  0  0  0  0  0  0  0
   23.9619  -23.9879  -17.4619 C   0  0  0  0  0  0  0  0  0  0  0  0
   26.3798  -24.2652  -17.3998 C   0  0  0  0  0  0  0  0  0  0  0  0
   27.5893  -25.1195  -17.1663 C   0  0  2  0  0  0  0  0  0  0  0  0
   28.7191  -24.5225  -17.8659 N   0  0  0  0  0  0  0  0  0  0  0  0
   27.3922  -26.5275  -17.5706 C   0  0  0  0  0  0  0  0  0  0  0  0
   27.3972  -26.8093  -18.7842 O   0  0  0  0  0  0  0  0  0  0  0  0
   26.7263  -35.4014  -16.4011 O   0  0  0  0  0  0  0  0  0  0  0  0
   26.9132  -34.0288  -16.2598 C   0  0  0  0  0  0  0  0  0  0  0  0
   28.0481  -33.4237  -16.7559 C   0  0  0  0  0  0  0  0  0  0  0  0
   28.2623  -32.0640  -16.6314 C   0  0  0  0  0  0  0  0  0  0  0  0
   27.3444  -31.2475  -16.0013 C   0  0  0  0  0  0  0  0  0  0  0  0
   27.5231  -29.7890  -15.8376 C   0  0  0  0  0  0  0  0  0  0  0  0
   27.0629  -28.9828  -17.0283 C   0  0  2  0  0  0  0  0  0  0  0  0
   27.1966  -27.5755  -16.6233 N   0  0  0  0  0  0  0  0  0  0  0  0
   25.6331  -29.1796  -17.3558 C   0  0  0  0  0  0  0  0  0  0  0  0
   25.1792  -30.1138  -18.2797 O   0  0  0  0  0  0  0  0  0  0  0  0
   26.2060  -31.8447  -15.5019 C   0  0  0  0  0  0  0  0  0  0  0  0
   25.9930  -33.2183  -15.6295 C   0  0  0  0  0  0  0  0  0  0  0  0
   24.7687  -28.4523  -16.7580 O   0  0  0  0  0  0  0  0  0  0  0  0
  2  1  1  1
  2  3  1  0
  4  3  1  0
  4  8  1  0
  5  4  2  0
  6  2  1  0
  7  6  2  0
 10 12  1  0
 10  9  1  1
 11 10  1  0
 13 12  1  6
 13 14  1  0
 14  6  1  0
 15 24  1  0
 15 13  1  0
 16 15  2  0
 18 17  1  0
 19 18  2  0
 20 19  1  0
 21 20  2  0
 21 27  1  0
 23 22  1  1
 22 21  1  0
 23 25  1  0
 23 24  1  0
 25 26  1  0
 27 28  2  0
 28 18  1  0
 29 25  2  0
M  END
$$$$
