DLY.pdb
     RDKit          3D

 29 29  0  0  1  0  0  0  0  0999 V2000
   28.4735  -21.9478  -16.9551 N   0  0  0  0  0  0  0  0  0  0  0  0
   27.8932  -20.7631  -16.3669 C   0  0  1  0  0  0  0  0  0  0  0  0
   27.0059  -20.0947  -17.3646 C   0  0  0  0  0  0  0  0  0  0  0  0
   27.6773  -19.5648  -18.5552 C   0  0  0  0  0  0  0  0  0  0  0  0
   27.4064  -19.8429  -19.7400 O   0  0  0  0  0  0  0  0  0  0  0  0
   27.1429  -21.0880  -15.1192 C   0  0  0  0  0  0  0  0  0  0  0  0
   26.1764  -21.9243  -15.1475 O   0  0  0  0  0  0  0  0  0  0  0  0
   28.7190  -18.6632  -18.3455 O   0  0  0  0  0  0  0  0  0  0  0  0
   29.7327  -20.4481  -10.4040 C   0  0  0  0  0  0  0  0  0  0  0  0
   28.8981  -21.0002  -11.5400 C   0  0  1  0  0  0  0  0  0  0  0  0
   28.8746  -22.5170  -11.3396 C   0  0  0  0  0  0  0  0  0  0  0  0
   27.4933  -20.5161  -11.4639 C   0  0  0  0  0  0  0  0  0  0  0  0
   26.6507  -20.8260  -12.6645 C   0  0  2  0  0  0  0  0  0  0  0  0
   27.4238  -20.5252  -13.8620 N   0  0  0  0  0  0  0  0  0  0  0  0
   25.3582  -20.1090  -12.6671 C   0  0  0  0  0  0  0  0  0  0  0  0
   25.3289  -18.9270  -13.0596 O   0  0  0  0  0  0  0  0  0  0  0  0
   17.7565  -19.0128  -16.4518 O   0  0  0  0  0  0  0  0  0  0  0  0
   18.9831  -19.3555  -15.8886 C   0  0  0  0  0  0  0  0  0  0  0  0
   19.3059  -20.6777  -15.6695 C   0  0  0  0  0  0  0  0  0  0  0  0
   20.5149  -21.0495  -15.1125 C   0  0  0  0  0  0  0  0  0  0  0  0
   21.4574  -20.1083  -14.7490 C   0  0  0  0  0  0  0  0  0  0  0  0
   22.7644  -20.4490  -14.1474 C   0  0  0  0  0  0  0  0  0  0  0  0
   22.8247  -20.2215  -12.6560 C   0  0  2  0  0  0  0  0  0  0  0  0
   24.1433  -20.7200  -12.2372 N   0  0  0  0  0  0  0  0  0  0  0  0
   21.8295  -21.0129  -11.8987 C   0  0  0  0  0  0  0  0  0  0  0  0
   20.6219  -20.4948  -11.4450 O   0  0  0  0  0  0  0  0  0  0  0  0
   21.1425  -18.7831  -14.9647 C   0  0  0  0  0  0  0  0  0  0  0  0
   19.9205  -18.4112  -15.5275 C   0  0  0  0  0  0  0  0  0  0  0  0
   22.0932  -22.2380  -11.6479 O   0  0  0  0  0  0  0  0  0  0  0  0
  2  1  1  6
  2  3  1  0
  4  3  1  0
  4  8  1  0
  5  4  2  0
  6  2  1  0
  7  6  2  0
 10 12  1  0
 10  9  1  1
 11 10  1  0
 13 12  1  1
 13 14  1  0
 14  6  1  0
 15 24  1  0
 15 13  1  0
 16 15  2  0
 18 17  1  0
 19 18  2  0
 20 19  1  0
 21 20  2  0
 21 27  1  0
 23 22  1  6
 22 21  1  0
 23 25  1  0
 23 24  1  0
 25 26  1  0
 27 28  2  0
 28 18  1  0
 29 25  2  0
M  END
$$$$
