DLY.pdb
     RDKit          3D

 29 29  0  0  1  0  0  0  0  0999 V2000
   19.1612  -22.2759   -9.3329 N   0  0  0  0  0  0  0  0  0  0  0  0
   19.6217  -22.2743  -10.7020 C   0  0  1  0  0  0  0  0  0  0  0  0
   18.4497  -22.1754  -11.6219 C   0  0  0  0  0  0  0  0  0  0  0  0
   17.6170  -23.3780  -11.7190 C   0  0  0  0  0  0  0  0  0  0  0  0
   18.0240  -24.5473  -11.8654 O   0  0  0  0  0  0  0  0  0  0  0  0
   20.5882  -21.1652  -10.9486 C   0  0  0  0  0  0  0  0  0  0  0  0
   20.2571  -19.9551  -10.7031 O   0  0  0  0  0  0  0  0  0  0  0  0
   16.2370  -23.2000  -11.6406 O   0  0  0  0  0  0  0  0  0  0  0  0
   25.6197  -21.4939   -9.3666 C   0  0  0  0  0  0  0  0  0  0  0  0
   24.2349  -21.0206   -9.7542 C   0  0  1  0  0  0  0  0  0  0  0  0
   23.9906  -19.7442   -8.9463 C   0  0  0  0  0  0  0  0  0  0  0  0
   24.1710  -20.6579  -11.1957 C   0  0  0  0  0  0  0  0  0  0  0  0
   22.8144  -20.2510  -11.6869 C   0  0  2  0  0  0  0  0  0  0  0  0
   21.8882  -21.3503  -11.4505 N   0  0  0  0  0  0  0  0  0  0  0  0
   22.8098  -19.8427  -13.1075 C   0  0  0  0  0  0  0  0  0  0  0  0
   23.5156  -18.8771  -13.4562 O   0  0  0  0  0  0  0  0  0  0  0  0
   28.2256  -21.9426  -15.8947 O   0  0  0  0  0  0  0  0  0  0  0  0
   26.8434  -21.7959  -15.9773 C   0  0  0  0  0  0  0  0  0  0  0  0
   26.2868  -20.9241  -16.8886 C   0  0  0  0  0  0  0  0  0  0  0  0
   24.9190  -20.7564  -16.9946 C   0  0  0  0  0  0  0  0  0  0  0  0
   24.0453  -21.4583  -16.1883 C   0  0  0  0  0  0  0  0  0  0  0  0
   22.5751  -21.3165  -16.2567 C   0  0  0  0  0  0  0  0  0  0  0  0
   22.0448  -20.1164  -15.5097 C   0  0  2  0  0  0  0  0  0  0  0  0
   22.0276  -20.5130  -14.0938 N   0  0  0  0  0  0  0  0  0  0  0  0
   20.6464  -19.7776  -15.8561 C   0  0  0  0  0  0  0  0  0  0  0  0
   20.2881  -19.0758  -17.0012 O   0  0  0  0  0  0  0  0  0  0  0  0
   24.5937  -22.3327  -15.2736 C   0  0  0  0  0  0  0  0  0  0  0  0
   25.9756  -22.4995  -15.1694 C   0  0  0  0  0  0  0  0  0  0  0  0
   19.7178  -20.1498  -15.0607 O   0  0  0  0  0  0  0  0  0  0  0  0
  2  1  1  1
  2  3  1  0
  4  3  1  0
  4  8  1  0
  5  4  2  0
  6  2  1  0
  7  6  2  0
 10 12  1  0
 10  9  1  1
 11 10  1  0
 13 12  1  6
 13 14  1  0
 14  6  1  0
 15 24  1  0
 15 13  1  0
 16 15  2  0
 18 17  1  0
 19 18  2  0
 20 19  1  0
 21 20  2  0
 21 27  1  0
 23 22  1  6
 22 21  1  0
 23 25  1  0
 23 24  1  0
 25 26  1  0
 27 28  2  0
 28 18  1  0
 29 25  2  0
M  END
$$$$
