DLY.pdb
     RDKit          3D

 29 29  0  0  1  0  0  0  0  0999 V2000
   24.4916  -12.1147  -20.3754 N   0  0  0  0  0  0  0  0  0  0  0  0
   23.3551  -13.0043  -20.4324 C   0  0  1  0  0  0  0  0  0  0  0  0
   22.8225  -13.0438  -21.8268 C   0  0  0  0  0  0  0  0  0  0  0  0
   22.2454  -11.7898  -22.3205 C   0  0  0  0  0  0  0  0  0  0  0  0
   22.4642  -10.6487  -21.8685 O   0  0  0  0  0  0  0  0  0  0  0  0
   23.7126  -14.3730  -19.9593 C   0  0  0  0  0  0  0  0  0  0  0  0
   22.8426  -15.3096  -19.9788 O   0  0  0  0  0  0  0  0  0  0  0  0
   21.3673  -11.8789  -23.3990 O   0  0  0  0  0  0  0  0  0  0  0  0
   26.7958  -18.6583  -19.3479 C   0  0  0  0  0  0  0  0  0  0  0  0
   27.2578  -17.5429  -18.4346 C   0  0  1  0  0  0  0  0  0  0  0  0
   28.7856  -17.5413  -18.5205 C   0  0  0  0  0  0  0  0  0  0  0  0
   26.7806  -16.2180  -18.9148 C   0  0  0  0  0  0  0  0  0  0  0  0
   25.2905  -16.0586  -18.9565 C   0  0  2  0  0  0  0  0  0  0  0  0
   24.9817  -14.7318  -19.4726 N   0  0  0  0  0  0  0  0  0  0  0  0
   24.6455  -16.2873  -17.6464 C   0  0  0  0  0  0  0  0  0  0  0  0
   24.9455  -15.5443  -16.6924 O   0  0  0  0  0  0  0  0  0  0  0  0
   17.0443  -16.3689  -18.6349 O   0  0  0  0  0  0  0  0  0  0  0  0
   18.2852  -16.3178  -18.0051 C   0  0  0  0  0  0  0  0  0  0  0  0
   19.3864  -15.8234  -18.6708 C   0  0  0  0  0  0  0  0  0  0  0  0
   20.6309  -15.7596  -18.0730 C   0  0  0  0  0  0  0  0  0  0  0  0
   20.8270  -16.1905  -16.7760 C   0  0  0  0  0  0  0  0  0  0  0  0
   22.1353  -16.1480  -16.0886 C   0  0  0  0  0  0  0  0  0  0  0  0
   22.9169  -17.4359  -16.1891 C   0  0  2  0  0  0  0  0  0  0  0  0
   23.6925  -17.3268  -17.4337 N   0  0  0  0  0  0  0  0  0  0  0  0
   22.0613  -18.6335  -16.3447 C   0  0  0  0  0  0  0  0  0  0  0  0
   21.3366  -19.1992  -15.3021 O   0  0  0  0  0  0  0  0  0  0  0  0
   19.7305  -16.6866  -16.1026 C   0  0  0  0  0  0  0  0  0  0  0  0
   18.4751  -16.7495  -16.7096 C   0  0  0  0  0  0  0  0  0  0  0  0
   21.9839  -19.1773  -17.4986 O   0  0  0  0  0  0  0  0  0  0  0  0
  2  1  1  6
  2  3  1  0
  4  3  1  0
  4  8  1  0
  5  4  2  0
  6  2  1  0
  7  6  2  0
 10 12  1  0
 10  9  1  6
 11 10  1  0
 13 12  1  1
 13 14  1  0
 14  6  1  0
 15 24  1  0
 15 13  1  0
 16 15  2  0
 18 17  1  0
 19 18  2  0
 20 19  1  0
 21 20  2  0
 21 27  1  0
 23 22  1  6
 22 21  1  0
 23 25  1  0
 23 24  1  0
 25 26  1  0
 27 28  2  0
 28 18  1  0
 29 25  2  0
M  END
$$$$
