DLY.pdb
     RDKit          3D

 29 29  0  0  1  0  0  0  0  0999 V2000
   27.6167  -22.4383  -18.3018 N   0  0  0  0  0  0  0  0  0  0  0  0
   27.7975  -22.3819  -16.8698 C   0  0  1  0  0  0  0  0  0  0  0  0
   29.1902  -22.7965  -16.5266 C   0  0  0  0  0  0  0  0  0  0  0  0
   29.5683  -24.1512  -16.9401 C   0  0  0  0  0  0  0  0  0  0  0  0
   28.8714  -24.9400  -17.6083 O   0  0  0  0  0  0  0  0  0  0  0  0
   27.5002  -21.0202  -16.3381 C   0  0  0  0  0  0  0  0  0  0  0  0
   27.5908  -20.7835  -15.0851 O   0  0  0  0  0  0  0  0  0  0  0  0
   30.8275  -24.6034  -16.5502 O   0  0  0  0  0  0  0  0  0  0  0  0
   29.6822  -18.5796  -17.6576 C   0  0  0  0  0  0  0  0  0  0  0  0
   28.8801  -17.3608  -17.2540 C   0  0  1  0  0  0  0  0  0  0  0  0
   29.3263  -16.2394  -18.1946 C   0  0  0  0  0  0  0  0  0  0  0  0
   27.4240  -17.5754  -17.4714 C   0  0  0  0  0  0  0  0  0  0  0  0
   26.7988  -18.6160  -16.5918 C   0  0  2  0  0  0  0  0  0  0  0  0
   27.1116  -19.9304  -17.1365 N   0  0  0  0  0  0  0  0  0  0  0  0
   25.3408  -18.4373  -16.4275 C   0  0  0  0  0  0  0  0  0  0  0  0
   24.9190  -17.3761  -15.9294 O   0  0  0  0  0  0  0  0  0  0  0  0
   16.6445  -19.0644  -17.8699 O   0  0  0  0  0  0  0  0  0  0  0  0
   18.0363  -19.1031  -17.8921 C   0  0  0  0  0  0  0  0  0  0  0  0
   18.6963  -20.1636  -18.4751 C   0  0  0  0  0  0  0  0  0  0  0  0
   20.0762  -20.2308  -18.5130 C   0  0  0  0  0  0  0  0  0  0  0  0
   20.8586  -19.2335  -17.9657 C   0  0  0  0  0  0  0  0  0  0  0  0
   22.3370  -19.2550  -17.9754 C   0  0  0  0  0  0  0  0  0  0  0  0
   22.9536  -19.2760  -16.5974 C   0  0  2  0  0  0  0  0  0  0  0  0
   24.3989  -19.4345  -16.8179 N   0  0  0  0  0  0  0  0  0  0  0  0
   22.5349  -20.4383  -15.7824 C   0  0  0  0  0  0  0  0  0  0  0  0
   23.2340  -21.6391  -15.7426 O   0  0  0  0  0  0  0  0  0  0  0  0
   20.2064  -18.1687  -17.3802 C   0  0  0  0  0  0  0  0  0  0  0  0
   18.8126  -18.1042  -17.3438 C   0  0  0  0  0  0  0  0  0  0  0  0
   21.4743  -20.3334  -15.0771 O   0  0  0  0  0  0  0  0  0  0  0  0
  2  1  1  6
  2  3  1  0
  4  3  1  0
  4  8  1  0
  5  4  2  0
  6  2  1  0
  7  6  2  0
 10 12  1  0
 10  9  1  6
 11 10  1  0
 13 12  1  6
 13 14  1  0
 14  6  1  0
 15 24  1  0
 15 13  1  0
 16 15  2  0
 18 17  1  0
 19 18  2  0
 20 19  1  0
 21 20  2  0
 21 27  1  0
 23 22  1  6
 22 21  1  0
 23 25  1  0
 23 24  1  0
 25 26  1  0
 27 28  2  0
 28 18  1  0
 29 25  2  0
M  END
$$$$
