DLY.pdb
     RDKit          3D

 29 29  0  0  1  0  0  0  0  0999 V2000
   19.5022  -11.1895  -17.3194 N   0  0  0  0  0  0  0  0  0  0  0  0
   20.5085  -10.6168  -16.4558 C   0  0  1  0  0  0  0  0  0  0  0  0
   21.7266  -10.2931  -17.2563 C   0  0  0  0  0  0  0  0  0  0  0  0
   22.4471  -11.4446  -17.8078 C   0  0  0  0  0  0  0  0  0  0  0  0
   22.7172  -12.5028  -17.2065 O   0  0  0  0  0  0  0  0  0  0  0  0
   19.9951   -9.4055  -15.7527 C   0  0  0  0  0  0  0  0  0  0  0  0
   19.4069   -8.4797  -16.4093 O   0  0  0  0  0  0  0  0  0  0  0  0
   22.8721  -11.3500  -19.1316 O   0  0  0  0  0  0  0  0  0  0  0  0
   17.8476   -9.6304  -10.6427 C   0  0  0  0  0  0  0  0  0  0  0  0
   18.0846   -9.3111  -12.1034 C   0  0  1  0  0  0  0  0  0  0  0  0
   16.8354   -8.5627  -12.5733 C   0  0  0  0  0  0  0  0  0  0  0  0
   19.2460   -8.3973  -12.2756 C   0  0  0  0  0  0  0  0  0  0  0  0
   19.5537   -8.0247  -13.6947 C   0  0  2  0  0  0  0  0  0  0  0  0
   20.1108   -9.1901  -14.3683 N   0  0  0  0  0  0  0  0  0  0  0  0
   20.4560   -6.8593  -13.8062 C   0  0  0  0  0  0  0  0  0  0  0  0
   21.6779   -7.0278  -13.6304 O   0  0  0  0  0  0  0  0  0  0  0  0
   24.1068   -0.0871  -17.9318 O   0  0  0  0  0  0  0  0  0  0  0  0
   23.4312   -1.1900  -17.4158 C   0  0  0  0  0  0  0  0  0  0  0  0
   22.2206   -1.0308  -16.7759 C   0  0  0  0  0  0  0  0  0  0  0  0
   21.5261   -2.1054  -16.2534 C   0  0  0  0  0  0  0  0  0  0  0  0
   22.0168   -3.3924  -16.3497 C   0  0  0  0  0  0  0  0  0  0  0  0
   21.3183   -4.5772  -15.8072 C   0  0  0  0  0  0  0  0  0  0  0  0
   20.8918   -4.4248  -14.3669 C   0  0  2  0  0  0  0  0  0  0  0  0
   19.9801   -5.5491  -14.1076 N   0  0  0  0  0  0  0  0  0  0  0  0
   20.1077   -3.1958  -14.1116 C   0  0  0  0  0  0  0  0  0  0  0  0
   20.6703   -2.0058  -13.6647 O   0  0  0  0  0  0  0  0  0  0  0  0
   23.2274   -3.5607  -16.9883 C   0  0  0  0  0  0  0  0  0  0  0  0
   23.9260   -2.4730  -17.5149 C   0  0  0  0  0  0  0  0  0  0  0  0
   18.8460   -3.2292  -14.3126 O   0  0  0  0  0  0  0  0  0  0  0  0
  2  1  1  6
  2  3  1  0
  4  3  1  0
  4  8  1  0
  5  4  2  0
  6  2  1  0
  7  6  2  0
 10 12  1  0
 10  9  1  1
 11 10  1  0
 13 12  1  1
 13 14  1  0
 14  6  1  0
 15 24  1  0
 15 13  1  0
 16 15  2  0
 18 17  1  0
 19 18  2  0
 20 19  1  0
 21 20  2  0
 21 27  1  0
 23 22  1  6
 22 21  1  0
 23 25  1  0
 23 24  1  0
 25 26  1  0
 27 28  2  0
 28 18  1  0
 29 25  2  0
M  END
$$$$
