DLY.pdb
     RDKit          3D

 29 29  0  0  1  0  0  0  0  0999 V2000
   23.2440  -20.0173  -15.2639 N   0  0  0  0  0  0  0  0  0  0  0  0
   23.3305  -21.3748  -14.7778 C   0  0  1  0  0  0  0  0  0  0  0  0
   23.1444  -22.3242  -15.9151 C   0  0  0  0  0  0  0  0  0  0  0  0
   21.8535  -22.2417  -16.6048 C   0  0  0  0  0  0  0  0  0  0  0  0
   21.4601  -21.3025  -17.3243 O   0  0  0  0  0  0  0  0  0  0  0  0
   24.6278  -21.6215  -14.0841 C   0  0  0  0  0  0  0  0  0  0  0  0
   24.9930  -22.8145  -13.8051 O   0  0  0  0  0  0  0  0  0  0  0  0
   20.9797  -23.3151  -16.4424 O   0  0  0  0  0  0  0  0  0  0  0  0
   28.8654  -18.7335  -15.1422 C   0  0  0  0  0  0  0  0  0  0  0  0
   27.7526  -19.6869  -14.7621 C   0  0  1  0  0  0  0  0  0  0  0  0
   27.9992  -20.9592  -15.5757 C   0  0  0  0  0  0  0  0  0  0  0  0
   27.8237  -20.0547  -13.3223 C   0  0  0  0  0  0  0  0  0  0  0  0
   26.6523  -20.8374  -12.8099 C   0  0  2  0  0  0  0  0  0  0  0  0
   25.5187  -20.6060  -13.6952 N   0  0  0  0  0  0  0  0  0  0  0  0
   26.3104  -20.5193  -11.4075 C   0  0  0  0  0  0  0  0  0  0  0  0
   25.9003  -19.3748  -11.1350 O   0  0  0  0  0  0  0  0  0  0  0  0
   29.5258  -20.0240   -3.6835 O   0  0  0  0  0  0  0  0  0  0  0  0
   28.8448  -19.9917   -4.8977 C   0  0  0  0  0  0  0  0  0  0  0  0
   28.1286  -18.8733   -5.2671 C   0  0  0  0  0  0  0  0  0  0  0  0
   27.4425  -18.8108   -6.4653 C   0  0  0  0  0  0  0  0  0  0  0  0
   27.4443  -19.8711   -7.3496 C   0  0  0  0  0  0  0  0  0  0  0  0
   26.7266  -19.8600   -8.6422 C   0  0  0  0  0  0  0  0  0  0  0  0
   26.0445  -21.1664   -8.9700 C   0  0  2  0  0  0  0  0  0  0  0  0
   26.4323  -21.4737  -10.3548 N   0  0  0  0  0  0  0  0  0  0  0  0
   24.5672  -21.0757   -8.9701 C   0  0  0  0  0  0  0  0  0  0  0  0
   23.7609  -21.6898   -8.0187 O   0  0  0  0  0  0  0  0  0  0  0  0
   28.1584  -20.9941   -6.9877 C   0  0  0  0  0  0  0  0  0  0  0  0
   28.8501  -21.0537   -5.7769 C   0  0  0  0  0  0  0  0  0  0  0  0
   24.0017  -20.3969   -9.8935 O   0  0  0  0  0  0  0  0  0  0  0  0
  2  1  1  6
  2  3  1  0
  4  3  1  0
  4  8  1  0
  5  4  2  0
  6  2  1  0
  7  6  2  0
 10 12  1  0
 10  9  1  1
 11 10  1  0
 13 12  1  6
 13 14  1  0
 14  6  1  0
 15 24  1  0
 15 13  1  0
 16 15  2  0
 18 17  1  0
 19 18  2  0
 20 19  1  0
 21 20  2  0
 21 27  1  0
 23 22  1  6
 22 21  1  0
 23 25  1  0
 23 24  1  0
 25 26  1  0
 27 28  2  0
 28 18  1  0
 29 25  2  0
M  END
$$$$
