DLY.pdb
     RDKit          3D

 29 29  0  0  1  0  0  0  0  0999 V2000
   25.9759  -37.9709  -16.7131 N   0  0  0  0  0  0  0  0  0  0  0  0
   24.6088  -37.7057  -16.3298 C   0  0  1  0  0  0  0  0  0  0  0  0
   23.8654  -38.9951  -16.2106 C   0  0  0  0  0  0  0  0  0  0  0  0
   23.7448  -39.7738  -17.4468 C   0  0  0  0  0  0  0  0  0  0  0  0
   23.7868  -41.0161  -17.5432 O   0  0  0  0  0  0  0  0  0  0  0  0
   24.5423  -36.9321  -15.0561 C   0  0  0  0  0  0  0  0  0  0  0  0
   25.2934  -37.2470  -14.0706 O   0  0  0  0  0  0  0  0  0  0  0  0
   23.5659  -39.0591  -18.6297 O   0  0  0  0  0  0  0  0  0  0  0  0
   22.6217  -31.7437  -15.1344 C   0  0  0  0  0  0  0  0  0  0  0  0
   23.4294  -33.0093  -14.9410 C   0  0  1  0  0  0  0  0  0  0  0  0
   24.8386  -32.5492  -14.5614 C   0  0  0  0  0  0  0  0  0  0  0  0
   22.9026  -33.8196  -13.8098 C   0  0  0  0  0  0  0  0  0  0  0  0
   23.6121  -35.1196  -13.5775 C   0  0  2  0  0  0  0  0  0  0  0  0
   23.6844  -35.8393  -14.8420 N   0  0  0  0  0  0  0  0  0  0  0  0
   22.9811  -35.9454  -12.5265 C   0  0  0  0  0  0  0  0  0  0  0  0
   21.9425  -36.5760  -12.8020 O   0  0  0  0  0  0  0  0  0  0  0  0
   21.0069  -42.2771   -7.1460 O   0  0  0  0  0  0  0  0  0  0  0  0
   21.4741  -41.3039   -8.0257 C   0  0  0  0  0  0  0  0  0  0  0  0
   20.5938  -40.4462   -8.6498 C   0  0  0  0  0  0  0  0  0  0  0  0
   21.0265  -39.4703   -9.5277 C   0  0  0  0  0  0  0  0  0  0  0  0
   22.3665  -39.3108   -9.8197 C   0  0  0  0  0  0  0  0  0  0  0  0
   22.8846  -38.2868  -10.7520 C   0  0  0  0  0  0  0  0  0  0  0  0
   22.8996  -36.8916  -10.1751 C   0  0  2  0  0  0  0  0  0  0  0  0
   23.5170  -36.0473  -11.2088 N   0  0  0  0  0  0  0  0  0  0  0  0
   23.7555  -36.7595   -8.9749 C   0  0  0  0  0  0  0  0  0  0  0  0
   24.8816  -35.9464   -8.9214 O   0  0  0  0  0  0  0  0  0  0  0  0
   23.2542  -40.1649   -9.1997 C   0  0  0  0  0  0  0  0  0  0  0  0
   22.8135  -41.1492   -8.3136 C   0  0  0  0  0  0  0  0  0  0  0  0
   23.4434  -37.4283   -7.9314 O   0  0  0  0  0  0  0  0  0  0  0  0
  2  1  1  1
  2  3  1  0
  4  3  1  0
  4  8  1  0
  5  4  2  0
  6  2  1  0
  7  6  2  0
 10 12  1  0
 10  9  1  1
 11 10  1  0
 13 12  1  6
 13 14  1  0
 14  6  1  0
 15 24  1  0
 15 13  1  0
 16 15  2  0
 18 17  1  0
 19 18  2  0
 20 19  1  0
 21 20  2  0
 21 27  1  0
 23 22  1  6
 22 21  1  0
 23 25  1  0
 23 24  1  0
 25 26  1  0
 27 28  2  0
 28 18  1  0
 29 25  2  0
M  END
$$$$
