DLY.pdb
     RDKit          3D

 29 29  0  0  1  0  0  0  0  0999 V2000
   26.2530  -21.4297  -13.8962 N   0  0  0  0  0  0  0  0  0  0  0  0
   25.2834  -20.5490  -13.2874 C   0  0  1  0  0  0  0  0  0  0  0  0
   24.1266  -20.3650  -14.2133 C   0  0  0  0  0  0  0  0  0  0  0  0
   24.4368  -19.7267  -15.4960 C   0  0  0  0  0  0  0  0  0  0  0  0
   25.5261  -19.2147  -15.8209 O   0  0  0  0  0  0  0  0  0  0  0  0
   24.8305  -21.0709  -11.9654 C   0  0  0  0  0  0  0  0  0  0  0  0
   24.4889  -22.2963  -11.8388 O   0  0  0  0  0  0  0  0  0  0  0  0
   23.4177  -19.6871  -16.4458 O   0  0  0  0  0  0  0  0  0  0  0  0
   26.9762  -19.0292   -7.3385 C   0  0  0  0  0  0  0  0  0  0  0  0
   26.4468  -20.0467   -8.3266 C   0  0  1  0  0  0  0  0  0  0  0  0
   26.8073  -21.4160   -7.7466 C   0  0  0  0  0  0  0  0  0  0  0  0
   24.9641  -19.9798   -8.4298 C   0  0  0  0  0  0  0  0  0  0  0  0
   24.3645  -20.8382   -9.5026 C   0  0  2  0  0  0  0  0  0  0  0  0
   24.7448  -20.2919  -10.7984 N   0  0  0  0  0  0  0  0  0  0  0  0
   22.8969  -20.9711   -9.3871 C   0  0  0  0  0  0  0  0  0  0  0  0
   22.1866  -19.9663   -9.5821 O   0  0  0  0  0  0  0  0  0  0  0  0
   14.8652  -24.7384   -9.6431 O   0  0  0  0  0  0  0  0  0  0  0  0
   16.2264  -24.4460   -9.6700 C   0  0  0  0  0  0  0  0  0  0  0  0
   17.1120  -25.1723   -8.9030 C   0  0  0  0  0  0  0  0  0  0  0  0
   18.4683  -24.9063   -8.9081 C   0  0  0  0  0  0  0  0  0  0  0  0
   18.9986  -23.8963   -9.6858 C   0  0  0  0  0  0  0  0  0  0  0  0
   20.4393  -23.5666   -9.7281 C   0  0  0  0  0  0  0  0  0  0  0  0
   20.8034  -22.3308   -8.9408 C   0  0  2  0  0  0  0  0  0  0  0  0
   22.2638  -22.2066   -9.0607 N   0  0  0  0  0  0  0  0  0  0  0  0
   20.5211  -22.4504   -7.4929 C   0  0  0  0  0  0  0  0  0  0  0  0
   19.2782  -22.1865   -6.9293 O   0  0  0  0  0  0  0  0  0  0  0  0
   18.1195  -23.1646  -10.4563 C   0  0  0  0  0  0  0  0  0  0  0  0
   16.7504  -23.4361  -10.4486 C   0  0  0  0  0  0  0  0  0  0  0  0
   21.4700  -22.8157   -6.7186 O   0  0  0  0  0  0  0  0  0  0  0  0
  2  1  1  6
  2  3  1  0
  4  3  1  0
  4  8  1  0
  5  4  2  0
  6  2  1  0
  7  6  2  0
 10 12  1  0
 10  9  1  1
 11 10  1  0
 13 12  1  1
 13 14  1  0
 14  6  1  0
 15 24  1  0
 15 13  1  0
 16 15  2  0
 18 17  1  0
 19 18  2  0
 20 19  1  0
 21 20  2  0
 21 27  1  0
 23 22  1  6
 22 21  1  0
 23 25  1  0
 23 24  1  0
 25 26  1  0
 27 28  2  0
 28 18  1  0
 29 25  2  0
M  END
$$$$
