YTP.pdb
     RDKit          3D

 27 28  0  0  1  0  0  0  0  0999 V2000
   10.1994  -14.4085   30.8223 O   0  0  0  0  0  0  0  0  0  0  0  0
    9.9902  -14.6075   29.4798 C   0  0  0  0  0  0  0  0  0  0  0  0
    9.6132  -13.5589   28.6849 C   0  0  0  0  0  0  0  0  0  0  0  0
    9.3919  -13.7258   27.3167 C   0  0  0  0  0  0  0  0  0  0  0  0
    9.5721  -14.9941   26.8125 C   0  0  0  0  0  0  0  0  0  0  0  0
    9.3508  -15.2455   25.3476 C   0  0  0  0  0  0  0  0  0  0  0  0
    7.8384  -15.1975   25.1530 C   0  0  2  0  0  0  0  0  0  0  0  0
    7.1696  -16.1999   25.9235 N   0  0  0  0  0  0  0  0  0  0  0  0
    7.5271  -15.3087   23.6956 C   0  0  0  0  0  0  0  0  0  0  0  0
    6.9001  -16.3337   23.3044 O   0  0  0  0  0  0  0  0  0  0  0  0
    9.9515  -16.0618   27.5980 C   0  0  0  0  0  0  0  0  0  0  0  0
   10.1561  -15.8468   28.9334 C   0  0  0  0  0  0  0  0  0  0  0  0
    7.5161  -13.4508   19.0947 C   0  0  0  0  0  0  0  0  0  0  0  0
    7.9108  -13.3325   20.5650 C   0  0  1  0  0  0  0  0  0  0  0  0
    6.7739  -12.5712   21.0841 O   0  0  0  0  0  0  0  0  0  0  0  0
    7.8708  -14.6100   21.2749 C   0  0  2  0  0  0  0  0  0  0  0  0
    7.8923  -14.3430   22.7539 N   0  0  0  0  0  0  0  0  0  0  0  0
    8.7626  -15.7037   20.9789 C   0  0  0  0  0  0  0  0  0  0  0  0
    9.9743  -15.4872   21.5720 O   0  0  0  0  0  0  0  0  0  0  0  0
    8.7738  -16.9066   20.2875 N   0  0  0  0  0  0  0  0  0  0  0  0
    7.4680  -17.7611   20.2211 C   0  0  0  0  0  0  0  0  0  0  0  0
    7.4301  -17.9960   18.7070 C   0  0  0  0  0  0  0  0  0  0  0  0
    8.8771  -17.7470   18.2017 C   0  0  0  0  0  0  0  0  0  0  0  0
    9.5777  -17.8101   19.5463 C   0  0  1  0  0  0  0  0  0  0  0  0
   10.9927  -17.8865   19.5980 C   0  0  0  0  0  0  0  0  0  0  0  0
   11.6418  -18.9844   19.0094 O   0  0  0  0  0  0  0  0  0  0  0  0
   11.7633  -17.0267   20.1365 O   0  0  0  0  0  0  0  0  0  0  0  0
  2 12  2  0
  2  1  1  0
  3  2  1  0
  4  5  1  0
  4  3  2  0
  5 11  2  0
  6  7  1  0
  6  5  1  0
  7  9  1  0
  7  8  1  1
  9 17  1  0
  9 10  2  0
 11 12  1  0
 14 13  1  6
 15 14  1  0
 16 14  1  0
 16 18  1  0
 16 17  1  1
 18 19  2  0
 20 21  1  0
 20 18  1  0
 22 21  1  0
 23 24  1  0
 23 22  1  0
 24 20  1  0
 24 25  1  6
 25 26  1  0
 27 25  2  0
M  END
$$$$
