YTP.pdb
     RDKit          3D

 27 28  0  0  1  0  0  0  0  0999 V2000
    9.1886  -21.6766   29.3709 O   0  0  0  0  0  0  0  0  0  0  0  0
    9.3740  -20.5045   28.6798 C   0  0  0  0  0  0  0  0  0  0  0  0
    8.4437  -20.0993   27.7611 C   0  0  0  0  0  0  0  0  0  0  0  0
    8.6009  -18.9138   27.0408 C   0  0  0  0  0  0  0  0  0  0  0  0
    9.7349  -18.1783   27.3025 C   0  0  0  0  0  0  0  0  0  0  0  0
    9.9679  -16.8911   26.5630 C   0  0  0  0  0  0  0  0  0  0  0  0
   10.2207  -17.2971   25.1142 C   0  0  2  0  0  0  0  0  0  0  0  0
   11.5618  -17.7521   24.9143 N   0  0  0  0  0  0  0  0  0  0  0  0
    9.8761  -16.1531   24.2165 C   0  0  0  0  0  0  0  0  0  0  0  0
   10.7845  -15.3132   23.9587 O   0  0  0  0  0  0  0  0  0  0  0  0
   10.6822  -18.5709   28.2241 C   0  0  0  0  0  0  0  0  0  0  0  0
   10.4824  -19.7410   28.9042 C   0  0  0  0  0  0  0  0  0  0  0  0
    8.4886  -14.7171   20.9778 C   0  0  0  0  0  0  0  0  0  0  0  0
    7.4450  -14.5614   22.0815 C   0  0  1  0  0  0  0  0  0  0  0  0
    6.7149  -15.8212   21.9356 O   0  0  0  0  0  0  0  0  0  0  0  0
    8.0192  -14.6064   23.4253 C   0  0  2  0  0  0  0  0  0  0  0  0
    8.6102  -15.9694   23.6539 N   0  0  0  0  0  0  0  0  0  0  0  0
    7.2961  -14.2008   24.6049 C   0  0  0  0  0  0  0  0  0  0  0  0
    6.5190  -15.2328   25.0499 O   0  0  0  0  0  0  0  0  0  0  0  0
    7.1469  -13.0959   25.4308 N   0  0  0  0  0  0  0  0  0  0  0  0
    8.2644  -12.0047   25.4551 C   0  0  0  0  0  0  0  0  0  0  0  0
    7.3777  -10.7709   25.2535 C   0  0  0  0  0  0  0  0  0  0  0  0
    5.9436  -11.2070   25.6583 C   0  0  0  0  0  0  0  0  0  0  0  0
    6.3170  -12.4769   26.4003 C   0  0  1  0  0  0  0  0  0  0  0  0
    5.3460  -13.1371   27.1954 C   0  0  0  0  0  0  0  0  0  0  0  0
    4.8021  -12.4714   28.3063 O   0  0  0  0  0  0  0  0  0  0  0  0
    4.8952  -14.3114   26.9936 O   0  0  0  0  0  0  0  0  0  0  0  0
  2 12  2  0
  2  1  1  0
  3  2  1  0
  4  5  1  0
  4  3  2  0
  5 11  2  0
  6  7  1  0
  6  5  1  0
  7  9  1  0
  7  8  1  1
  9 17  1  0
  9 10  2  0
 11 12  1  0
 14 13  1  6
 15 14  1  0
 16 14  1  0
 16 18  1  0
 16 17  1  1
 18 19  2  0
 20 21  1  0
 20 18  1  0
 22 21  1  0
 23 24  1  0
 23 22  1  0
 24 20  1  0
 24 25  1  6
 25 26  1  0
 27 25  2  0
M  END
$$$$
