YTP.pdb
     RDKit          3D

 27 28  0  0  1  0  0  0  0  0999 V2000
   10.8598  -14.5016   30.3880 O   0  0  0  0  0  0  0  0  0  0  0  0
   10.0901  -14.5416   29.2515 C   0  0  0  0  0  0  0  0  0  0  0  0
    9.7586  -15.7468   28.6936 C   0  0  0  0  0  0  0  0  0  0  0  0
    8.9782  -15.8240   27.5386 C   0  0  0  0  0  0  0  0  0  0  0  0
    8.5621  -14.6300   26.9941 C   0  0  0  0  0  0  0  0  0  0  0  0
    7.7189  -14.6390   25.7503 C   0  0  0  0  0  0  0  0  0  0  0  0
    8.3835  -15.6479   24.8184 C   0  0  2  0  0  0  0  0  0  0  0  0
    9.8069  -15.5082   24.8094 N   0  0  0  0  0  0  0  0  0  0  0  0
    7.7972  -15.5129   23.4504 C   0  0  0  0  0  0  0  0  0  0  0  0
    6.5378  -15.5170   23.3470 O   0  0  0  0  0  0  0  0  0  0  0  0
    8.8863  -13.4072   27.5422 C   0  0  0  0  0  0  0  0  0  0  0  0
    9.6536  -13.3847   28.6746 C   0  0  0  0  0  0  0  0  0  0  0  0
    7.2606  -13.0786   21.3238 C   0  0  0  0  0  0  0  0  0  0  0  0
    7.9131  -14.0790   20.3724 C   0  0  1  0  0  0  0  0  0  0  0  0
    9.2967  -13.6029   20.3956 O   0  0  0  0  0  0  0  0  0  0  0  0
    7.9671  -15.4358   20.9144 C   0  0  2  0  0  0  0  0  0  0  0  0
    8.5672  -15.3836   22.2915 N   0  0  0  0  0  0  0  0  0  0  0  0
    8.5323  -16.5497   20.1942 C   0  0  0  0  0  0  0  0  0  0  0  0
    9.8425  -16.7124   20.5464 O   0  0  0  0  0  0  0  0  0  0  0  0
    8.1622  -17.5090   19.2627 N   0  0  0  0  0  0  0  0  0  0  0  0
    6.6874  -18.0236   19.2417 C   0  0  0  0  0  0  0  0  0  0  0  0
    6.4098  -17.8481   17.7446 C   0  0  0  0  0  0  0  0  0  0  0  0
    7.8012  -17.7876   17.0582 C   0  0  0  0  0  0  0  0  0  0  0  0
    8.6219  -18.3398   18.2090 C   0  0  1  0  0  0  0  0  0  0  0  0
    9.9696  -18.7225   17.9902 C   0  0  0  0  0  0  0  0  0  0  0  0
   11.0002  -17.8382   18.3495 O   0  0  0  0  0  0  0  0  0  0  0  0
   10.3553  -19.8289   17.4900 O   0  0  0  0  0  0  0  0  0  0  0  0
  2 12  2  0
  2  1  1  0
  3  2  1  0
  4  5  1  0
  4  3  2  0
  5 11  2  0
  6  7  1  0
  6  5  1  0
  7  9  1  0
  7  8  1  6
  9 17  1  0
  9 10  2  0
 11 12  1  0
 14 13  1  1
 15 14  1  0
 16 14  1  0
 16 18  1  0
 16 17  1  1
 18 19  2  0
 20 21  1  0
 20 18  1  0
 22 21  1  0
 23 24  1  0
 23 22  1  0
 24 20  1  0
 24 25  1  6
 25 26  1  0
 27 25  2  0
M  END
$$$$
