YTP.pdb
     RDKit          3D

 27 28  0  0  1  0  0  0  0  0999 V2000
    9.9860  -15.4178   31.1337 O   0  0  0  0  0  0  0  0  0  0  0  0
    9.9914  -15.2215   29.7745 C   0  0  0  0  0  0  0  0  0  0  0  0
    8.8516  -15.4399   29.0488 C   0  0  0  0  0  0  0  0  0  0  0  0
    8.8220  -15.2505   27.6659 C   0  0  0  0  0  0  0  0  0  0  0  0
    9.9937  -14.8347   27.0747 C   0  0  0  0  0  0  0  0  0  0  0  0
   10.0332  -14.6112   25.5893 C   0  0  0  0  0  0  0  0  0  0  0  0
   10.4098  -15.9615   24.9870 C   0  0  2  0  0  0  0  0  0  0  0  0
   11.6281  -16.4697   25.5376 N   0  0  0  0  0  0  0  0  0  0  0  0
   10.4759  -15.8344   23.4995 C   0  0  0  0  0  0  0  0  0  0  0  0
   11.5408  -15.3783   22.9946 O   0  0  0  0  0  0  0  0  0  0  0  0
   11.1508  -14.6099   27.7897 C   0  0  0  0  0  0  0  0  0  0  0  0
   11.1287  -14.8098   29.1429 C   0  0  0  0  0  0  0  0  0  0  0  0
   11.4407  -17.8476   21.4655 C   0  0  0  0  0  0  0  0  0  0  0  0
   10.1283  -17.5158   20.7592 C   0  0  1  0  0  0  0  0  0  0  0  0
    9.2421  -18.5098   21.3660 O   0  0  0  0  0  0  0  0  0  0  0  0
    9.5757  -16.2207   21.1528 C   0  0  2  0  0  0  0  0  0  0  0  0
    9.4269  -16.1922   22.6483 N   0  0  0  0  0  0  0  0  0  0  0  0
    8.3964  -15.6514   20.5495 C   0  0  0  0  0  0  0  0  0  0  0  0
    7.2797  -16.1208   21.1815 O   0  0  0  0  0  0  0  0  0  0  0  0
    8.0416  -14.7740   19.5348 N   0  0  0  0  0  0  0  0  0  0  0  0
    7.3732  -13.4111   19.9033 C   0  0  0  0  0  0  0  0  0  0  0  0
    8.2749  -12.4880   19.0763 C   0  0  0  0  0  0  0  0  0  0  0  0
    8.9347  -13.3911   17.9993 C   0  0  0  0  0  0  0  0  0  0  0  0
    8.0022  -14.5812   18.1301 C   0  0  1  0  0  0  0  0  0  0  0  0
    8.0372  -15.6112   17.1562 C   0  0  0  0  0  0  0  0  0  0  0  0
    7.1527  -15.5545   16.0664 O   0  0  0  0  0  0  0  0  0  0  0  0
    8.8219  -16.6148   17.1650 O   0  0  0  0  0  0  0  0  0  0  0  0
  2 12  2  0
  2  1  1  0
  3  2  1  0
  4  5  1  0
  4  3  2  0
  5 11  2  0
  6  7  1  0
  6  5  1  0
  7  9  1  0
  7  8  1  1
  9 17  1  0
  9 10  2  0
 11 12  1  0
 14 13  1  1
 15 14  1  0
 16 14  1  0
 16 18  1  0
 16 17  1  1
 18 19  2  0
 20 21  1  0
 20 18  1  0
 22 21  1  0
 23 24  1  0
 23 22  1  0
 24 20  1  0
 24 25  1  6
 25 26  1  0
 27 25  2  0
M  END
$$$$
