YTP.pdb
     RDKit          3D

 27 28  0  0  1  0  0  0  0  0999 V2000
   10.2587  -15.3295   30.4937 O   0  0  0  0  0  0  0  0  0  0  0  0
    9.9535  -15.0177   29.1915 C   0  0  0  0  0  0  0  0  0  0  0  0
   10.2118  -15.9201   28.1951 C   0  0  0  0  0  0  0  0  0  0  0  0
    9.9146  -15.6357   26.8610 C   0  0  0  0  0  0  0  0  0  0  0  0
    9.3510  -14.4065   26.6027 C   0  0  0  0  0  0  0  0  0  0  0  0
    9.0056  -14.0343   25.1884 C   0  0  0  0  0  0  0  0  0  0  0  0
    7.6095  -14.6018   24.9504 C   0  0  2  0  0  0  0  0  0  0  0  0
    7.2471  -15.5617   25.9469 N   0  0  0  0  0  0  0  0  0  0  0  0
    7.5396  -15.1711   23.5705 C   0  0  0  0  0  0  0  0  0  0  0  0
    7.0540  -16.3300   23.4360 O   0  0  0  0  0  0  0  0  0  0  0  0
    9.0840  -13.4856   27.5934 C   0  0  0  0  0  0  0  0  0  0  0  0
    9.3937  -13.8116   28.8854 C   0  0  0  0  0  0  0  0  0  0  0  0
    6.8962  -12.7971   20.6432 C   0  0  0  0  0  0  0  0  0  0  0  0
    7.7115  -13.9660   20.0949 C   0  0  1  0  0  0  0  0  0  0  0  0
    9.0374  -13.3514   20.0183 O   0  0  0  0  0  0  0  0  0  0  0  0
    7.8544  -15.0642   21.0494 C   0  0  2  0  0  0  0  0  0  0  0  0
    7.9808  -14.4901   22.4327 N   0  0  0  0  0  0  0  0  0  0  0  0
    8.8154  -16.1271   20.8890 C   0  0  0  0  0  0  0  0  0  0  0  0
    9.9166  -15.8762   21.6579 O   0  0  0  0  0  0  0  0  0  0  0  0
    8.9692  -17.3245   20.2050 N   0  0  0  0  0  0  0  0  0  0  0  0
    7.7401  -18.2748   20.0437 C   0  0  0  0  0  0  0  0  0  0  0  0
    7.8343  -18.5091   18.5319 C   0  0  0  0  0  0  0  0  0  0  0  0
    9.2924  -18.1509   18.1361 C   0  0  0  0  0  0  0  0  0  0  0  0
    9.8924  -18.1635   19.5299 C   0  0  1  0  0  0  0  0  0  0  0  0
   11.3012  -18.1331   19.6884 C   0  0  0  0  0  0  0  0  0  0  0  0
   12.0585  -19.2520   19.3038 O   0  0  0  0  0  0  0  0  0  0  0  0
   11.9750  -17.1571   20.1537 O   0  0  0  0  0  0  0  0  0  0  0  0
  2 12  2  0
  2  1  1  0
  3  2  1  0
  4  5  1  0
  4  3  2  0
  5 11  2  0
  6  7  1  0
  6  5  1  0
  7  9  1  0
  7  8  1  1
  9 17  1  0
  9 10  2  0
 11 12  1  0
 14 13  1  1
 15 14  1  0
 16 14  1  0
 16 18  1  0
 16 17  1  1
 18 19  2  0
 20 21  1  0
 20 18  1  0
 22 21  1  0
 23 24  1  0
 23 22  1  0
 24 20  1  0
 24 25  1  6
 25 26  1  0
 27 25  2  0
M  END
$$$$
