YTP.pdb
     RDKit          3D

 27 28  0  0  1  0  0  0  0  0999 V2000
   14.8819  -14.3481   19.5444 O   0  0  0  0  0  0  0  0  0  0  0  0
   13.5427  -14.0457   19.5761 C   0  0  0  0  0  0  0  0  0  0  0  0
   12.8341  -13.9621   18.4080 C   0  0  0  0  0  0  0  0  0  0  0  0
   11.4719  -13.6564   18.4037 C   0  0  0  0  0  0  0  0  0  0  0  0
   10.8829  -13.4449   19.6300 C   0  0  0  0  0  0  0  0  0  0  0  0
    9.4193  -13.1117   19.6993 C   0  0  0  0  0  0  0  0  0  0  0  0
    8.7002  -14.4564   19.7489 C   0  0  2  0  0  0  0  0  0  0  0  0
    7.9198  -14.6874   18.5728 N   0  0  0  0  0  0  0  0  0  0  0  0
    7.8753  -14.5264   20.9930 C   0  0  0  0  0  0  0  0  0  0  0  0
    6.6747  -14.1378   20.9255 O   0  0  0  0  0  0  0  0  0  0  0  0
   11.5810  -13.5250   20.8162 C   0  0  0  0  0  0  0  0  0  0  0  0
   12.9142  -13.8275   20.7674 C   0  0  0  0  0  0  0  0  0  0  0  0
    6.2625  -16.8074   22.1683 C   0  0  0  0  0  0  0  0  0  0  0  0
    6.8674  -16.3808   23.5038 C   0  0  1  0  0  0  0  0  0  0  0  0
    7.9674  -17.3396   23.6149 O   0  0  0  0  0  0  0  0  0  0  0  0
    7.5091  -15.0681   23.4504 C   0  0  2  0  0  0  0  0  0  0  0  0
    8.3629  -14.9964   22.2154 N   0  0  0  0  0  0  0  0  0  0  0  0
    8.2339  -14.5001   24.5599 C   0  0  0  0  0  0  0  0  0  0  0  0
    9.5242  -14.9495   24.5494 O   0  0  0  0  0  0  0  0  0  0  0  0
    8.0339  -13.6378   25.6284 N   0  0  0  0  0  0  0  0  0  0  0  0
    7.6896  -12.1405   25.3468 C   0  0  0  0  0  0  0  0  0  0  0  0
    6.4656  -12.0158   26.2608 C   0  0  0  0  0  0  0  0  0  0  0  0
    6.5777  -13.1794   27.2828 C   0  0  0  0  0  0  0  0  0  0  0  0
    8.0358  -13.5240   27.0422 C   0  0  1  0  0  0  0  0  0  0  0  0
    8.7088  -14.3937   27.9374 C   0  0  0  0  0  0  0  0  0  0  0  0
    8.9083  -13.9879   29.2673 O   0  0  0  0  0  0  0  0  0  0  0  0
    9.1607  -15.5498   27.6505 O   0  0  0  0  0  0  0  0  0  0  0  0
  2 12  2  0
  2  1  1  0
  3  2  1  0
  4  5  1  0
  4  3  2  0
  5 11  2  0
  6  7  1  0
  6  5  1  0
  7  9  1  0
  7  8  1  6
  9 17  1  0
  9 10  2  0
 11 12  1  0
 14 13  1  6
 15 14  1  0
 16 14  1  0
 16 18  1  0
 16 17  1  6
 18 19  2  0
 20 21  1  0
 20 18  1  0
 22 21  1  0
 23 24  1  0
 23 22  1  0
 24 20  1  0
 24 25  1  1
 25 26  1  0
 27 25  2  0
M  END
$$$$
