YTP.pdb
     RDKit          3D

 27 28  0  0  1  0  0  0  0  0999 V2000
    9.5674  -21.2875   30.1716 O   0  0  0  0  0  0  0  0  0  0  0  0
    9.6448  -20.2524   29.2724 C   0  0  0  0  0  0  0  0  0  0  0  0
    8.6152  -20.0290   28.3985 C   0  0  0  0  0  0  0  0  0  0  0  0
    8.6611  -18.9863   27.4714 C   0  0  0  0  0  0  0  0  0  0  0  0
    9.7906  -18.1993   27.4831 C   0  0  0  0  0  0  0  0  0  0  0  0
    9.9067  -17.0587   26.5117 C   0  0  0  0  0  0  0  0  0  0  0  0
    9.7928  -17.6924   25.1284 C   0  0  2  0  0  0  0  0  0  0  0  0
   10.9074  -18.5398   24.8368 N   0  0  0  0  0  0  0  0  0  0  0  0
    9.6243  -16.6146   24.1070 C   0  0  0  0  0  0  0  0  0  0  0  0
   10.6213  -15.8794   23.8575 O   0  0  0  0  0  0  0  0  0  0  0  0
   10.8369  -18.4095   28.3559 C   0  0  0  0  0  0  0  0  0  0  0  0
   10.7441  -19.4447   29.2454 C   0  0  0  0  0  0  0  0  0  0  0  0
    6.9727  -13.6366   21.2606 C   0  0  0  0  0  0  0  0  0  0  0  0
    7.2027  -15.0263   21.8502 C   0  0  1  0  0  0  0  0  0  0  0  0
    8.1528  -15.5718   20.8800 O   0  0  0  0  0  0  0  0  0  0  0  0
    7.9270  -14.9987   23.1199 C   0  0  2  0  0  0  0  0  0  0  0  0
    8.4289  -16.3831   23.4212 N   0  0  0  0  0  0  0  0  0  0  0  0
    7.3842  -14.4202   24.3239 C   0  0  0  0  0  0  0  0  0  0  0  0
    6.5693  -15.3236   24.9456 O   0  0  0  0  0  0  0  0  0  0  0  0
    7.4346  -13.2389   25.0500 N   0  0  0  0  0  0  0  0  0  0  0  0
    8.5377  -12.1844   24.7165 C   0  0  0  0  0  0  0  0  0  0  0  0
    7.6387  -10.9487   24.5988 C   0  0  0  0  0  0  0  0  0  0  0  0
    6.3294  -11.3016   25.3552 C   0  0  0  0  0  0  0  0  0  0  0  0
    6.8503  -12.5073   26.1154 C   0  0  1  0  0  0  0  0  0  0  0  0
    6.0785  -13.0606   27.1685 C   0  0  0  0  0  0  0  0  0  0  0  0
    5.6283  -12.2225   28.2019 O   0  0  0  0  0  0  0  0  0  0  0  0
    5.7332  -14.2825   27.2730 O   0  0  0  0  0  0  0  0  0  0  0  0
  2 12  2  0
  2  1  1  0
  3  2  1  0
  4  5  1  0
  4  3  2  0
  5 11  2  0
  6  7  1  0
  6  5  1  0
  7  9  1  0
  7  8  1  6
  9 17  1  0
  9 10  2  0
 11 12  1  0
 14 13  1  6
 15 14  1  0
 16 14  1  0
 16 18  1  0
 16 17  1  1
 18 19  2  0
 20 21  1  0
 20 18  1  0
 22 21  1  0
 23 24  1  0
 23 22  1  0
 24 20  1  0
 24 25  1  6
 25 26  1  0
 27 25  2  0
M  END
$$$$
