YTP.pdb
     RDKit          3D

 27 28  0  0  1  0  0  0  0  0999 V2000
    8.9313  -13.1205   16.1245 O   0  0  0  0  0  0  0  0  0  0  0  0
    8.3426  -13.4436   17.3224 C   0  0  0  0  0  0  0  0  0  0  0  0
    8.6232  -12.7071   18.4415 C   0  0  0  0  0  0  0  0  0  0  0  0
    8.0428  -13.0080   19.6750 C   0  0  0  0  0  0  0  0  0  0  0  0
    7.1780  -14.0789   19.7054 C   0  0  0  0  0  0  0  0  0  0  0  0
    6.5175  -14.4589   21.0005 C   0  0  0  0  0  0  0  0  0  0  0  0
    7.2439  -15.7152   21.4716 C   0  0  2  0  0  0  0  0  0  0  0  0
    6.8774  -16.8634   20.7016 N   0  0  0  0  0  0  0  0  0  0  0  0
    6.9879  -15.9123   22.9307 C   0  0  0  0  0  0  0  0  0  0  0  0
    5.8079  -16.1883   23.2889 O   0  0  0  0  0  0  0  0  0  0  0  0
    6.8838  -14.8316   18.5885 C   0  0  0  0  0  0  0  0  0  0  0  0
    7.4785  -14.4965   17.4029 C   0  0  0  0  0  0  0  0  0  0  0  0
    6.1054  -17.7540   24.2794 C   0  0  0  0  0  0  0  0  0  0  0  0
    7.1573  -17.5424   25.3658 C   0  0  1  0  0  0  0  0  0  0  0  0
    8.2128  -18.4377   24.8906 O   0  0  0  0  0  0  0  0  0  0  0  0
    7.7495  -16.2059   25.3390 C   0  0  2  0  0  0  0  0  0  0  0  0
    7.9810  -15.8074   23.9083 N   0  0  0  0  0  0  0  0  0  0  0  0
    8.9019  -15.8392   26.1242 C   0  0  0  0  0  0  0  0  0  0  0  0
    9.9679  -16.6194   25.7751 O   0  0  0  0  0  0  0  0  0  0  0  0
    9.2680  -14.9408   27.1162 N   0  0  0  0  0  0  0  0  0  0  0  0
    8.9896  -13.4181   26.9075 C   0  0  0  0  0  0  0  0  0  0  0  0
    8.2958  -13.1315   28.2438 C   0  0  0  0  0  0  0  0  0  0  0  0
    8.7173  -14.2823   29.1972 C   0  0  0  0  0  0  0  0  0  0  0  0
    9.8879  -14.8037   28.3846 C   0  0  1  0  0  0  0  0  0  0  0  0
   10.7882  -15.7323   28.9659 C   0  0  0  0  0  0  0  0  0  0  0  0
   10.6988  -17.0883   28.6103 O   0  0  0  0  0  0  0  0  0  0  0  0
   11.7075  -15.4512   29.8020 O   0  0  0  0  0  0  0  0  0  0  0  0
  2 12  2  0
  2  1  1  0
  3  2  1  0
  4  5  1  0
  4  3  2  0
  5 11  2  0
  6  7  1  0
  6  5  1  0
  7  9  1  0
  7  8  1  6
  9 17  1  0
  9 10  2  0
 11 12  1  0
 14 13  1  6
 15 14  1  0
 16 14  1  0
 16 18  1  0
 16 17  1  6
 18 19  2  0
 20 21  1  0
 20 18  1  0
 22 21  1  0
 23 24  1  0
 23 22  1  0
 24 20  1  0
 24 25  1  1
 25 26  1  0
 27 25  2  0
M  END
$$$$
