YTP.pdb
     RDKit          3D

 27 28  0  0  1  0  0  0  0  0999 V2000
    5.0453  -11.2145   28.6045 O   0  0  0  0  0  0  0  0  0  0  0  0
    5.8978  -11.7990   27.7003 C   0  0  0  0  0  0  0  0  0  0  0  0
    5.4344  -12.1707   26.4671 C   0  0  0  0  0  0  0  0  0  0  0  0
    6.2732  -12.7675   25.5241 C   0  0  0  0  0  0  0  0  0  0  0  0
    7.5838  -12.9609   25.8987 C   0  0  0  0  0  0  0  0  0  0  0  0
    8.5422  -13.5983   24.9326 C   0  0  0  0  0  0  0  0  0  0  0  0
    8.1552  -15.0736   24.8930 C   0  0  2  0  0  0  0  0  0  0  0  0
    8.4379  -15.7323   26.1307 N   0  0  0  0  0  0  0  0  0  0  0  0
    8.8400  -15.7299   23.7383 C   0  0  0  0  0  0  0  0  0  0  0  0
   10.0446  -16.0802   23.8903 O   0  0  0  0  0  0  0  0  0  0  0  0
    8.0678  -12.5929   27.1361 C   0  0  0  0  0  0  0  0  0  0  0  0
    7.2058  -12.0117   28.0253 C   0  0  0  0  0  0  0  0  0  0  0  0
   10.3300  -17.9248   22.7181 C   0  0  0  0  0  0  0  0  0  0  0  0
    9.4646  -17.7560   21.4714 C   0  0  1  0  0  0  0  0  0  0  0  0
    8.2827  -18.5249   21.8631 O   0  0  0  0  0  0  0  0  0  0  0  0
    8.9854  -16.3872   21.2860 C   0  0  2  0  0  0  0  0  0  0  0  0
    8.2183  -15.9728   22.5105 N   0  0  0  0  0  0  0  0  0  0  0  0
    8.2696  -15.9556   20.1112 C   0  0  0  0  0  0  0  0  0  0  0  0
    7.3005  -16.8665   19.7982 O   0  0  0  0  0  0  0  0  0  0  0  0
    8.2528  -14.9051   19.2049 N   0  0  0  0  0  0  0  0  0  0  0  0
    7.8935  -13.4700   19.7063 C   0  0  0  0  0  0  0  0  0  0  0  0
    9.0780  -12.7149   19.0931 C   0  0  0  0  0  0  0  0  0  0  0  0
    9.6194  -13.6238   17.9565 C   0  0  0  0  0  0  0  0  0  0  0  0
    8.4200  -14.5465   17.8428 C   0  0  1  0  0  0  0  0  0  0  0  0
    8.3169  -15.4314   16.7396 C   0  0  0  0  0  0  0  0  0  0  0  0
    8.8793  -16.7150   16.8356 O   0  0  0  0  0  0  0  0  0  0  0  0
    7.7392  -15.1746   15.6335 O   0  0  0  0  0  0  0  0  0  0  0  0
  2 12  2  0
  2  1  1  0
  3  2  1  0
  4  5  1  0
  4  3  2  0
  5 11  2  0
  6  7  1  0
  6  5  1  0
  7  9  1  0
  7  8  1  1
  9 17  1  0
  9 10  2  0
 11 12  1  0
 14 13  1  1
 15 14  1  0
 16 14  1  0
 16 18  1  0
 16 17  1  1
 18 19  2  0
 20 21  1  0
 20 18  1  0
 22 21  1  0
 23 24  1  0
 23 22  1  0
 24 20  1  0
 24 25  1  6
 25 26  1  0
 27 25  2  0
M  END
$$$$
