YTP.pdb
     RDKit          3D

 27 28  0  0  1  0  0  0  0  0999 V2000
    5.5925  -11.0082   28.7383 O   0  0  0  0  0  0  0  0  0  0  0  0
    6.0525  -11.7389   27.6704 C   0  0  0  0  0  0  0  0  0  0  0  0
    5.2131  -12.0274   26.6284 C   0  0  0  0  0  0  0  0  0  0  0  0
    5.6476  -12.7679   25.5276 C   0  0  0  0  0  0  0  0  0  0  0  0
    6.9579  -13.1899   25.5460 C   0  0  0  0  0  0  0  0  0  0  0  0
    7.4924  -13.9918   24.3930 C   0  0  0  0  0  0  0  0  0  0  0  0
    6.9150  -15.3926   24.5725 C   0  0  2  0  0  0  0  0  0  0  0  0
    7.0078  -15.8378   25.9286 N   0  0  0  0  0  0  0  0  0  0  0  0
    7.5945  -16.3287   23.6264 C   0  0  0  0  0  0  0  0  0  0  0  0
    7.8929  -17.4808   24.0512 O   0  0  0  0  0  0  0  0  0  0  0  0
    7.8174  -12.9087   26.5867 C   0  0  0  0  0  0  0  0  0  0  0  0
    7.3435  -12.1796   27.6429 C   0  0  0  0  0  0  0  0  0  0  0  0
    9.0692  -17.5167   19.0271 C   0  0  0  0  0  0  0  0  0  0  0  0
    8.4926  -16.5159   20.0259 C   0  0  1  0  0  0  0  0  0  0  0  0
    7.0600  -16.7156   19.8040 O   0  0  0  0  0  0  0  0  0  0  0  0
    8.7202  -16.8985   21.4185 C   0  0  2  0  0  0  0  0  0  0  0  0
    7.9125  -15.9946   22.3072 N   0  0  0  0  0  0  0  0  0  0  0  0
   10.0358  -17.0656   21.9845 C   0  0  0  0  0  0  0  0  0  0  0  0
   10.7706  -15.9298   21.7924 O   0  0  0  0  0  0  0  0  0  0  0  0
   10.7852  -18.0135   22.6665 N   0  0  0  0  0  0  0  0  0  0  0  0
   10.0588  -19.0329   23.6008 C   0  0  0  0  0  0  0  0  0  0  0  0
   10.6923  -20.3209   23.0633 C   0  0  0  0  0  0  0  0  0  0  0  0
   11.9935  -19.8841   22.3375 C   0  0  0  0  0  0  0  0  0  0  0  0
   12.0968  -18.4883   22.9236 C   0  0  1  0  0  0  0  0  0  0  0  0
   13.2907  -17.7421   22.7544 C   0  0  0  0  0  0  0  0  0  0  0  0
   13.3389  -16.7395   21.7717 O   0  0  0  0  0  0  0  0  0  0  0  0
   14.3598  -17.8883   23.4317 O   0  0  0  0  0  0  0  0  0  0  0  0
  2 12  2  0
  2  1  1  0
  3  2  1  0
  4  5  1  0
  4  3  2  0
  5 11  2  0
  6  7  1  0
  6  5  1  0
  7  9  1  0
  7  8  1  1
  9 17  1  0
  9 10  2  0
 11 12  1  0
 14 13  1  6
 15 14  1  0
 16 14  1  0
 16 18  1  0
 16 17  1  1
 18 19  2  0
 20 21  1  0
 20 18  1  0
 22 21  1  0
 23 24  1  0
 23 22  1  0
 24 20  1  0
 24 25  1  6
 25 26  1  0
 27 25  2  0
M  END
$$$$
