YTP.pdb
     RDKit          3D

 27 28  0  0  1  0  0  0  0  0999 V2000
   10.4145  -17.0180   29.8262 O   0  0  0  0  0  0  0  0  0  0  0  0
   10.9248  -16.7581   28.5780 C   0  0  0  0  0  0  0  0  0  0  0  0
   10.3217  -15.8290   27.7739 C   0  0  0  0  0  0  0  0  0  0  0  0
   10.8136  -15.5405   26.4997 C   0  0  0  0  0  0  0  0  0  0  0  0
   11.9314  -16.2364   26.0975 C   0  0  0  0  0  0  0  0  0  0  0  0
   12.5144  -15.9759   24.7372 C   0  0  0  0  0  0  0  0  0  0  0  0
   11.6531  -16.7793   23.7674 C   0  0  2  0  0  0  0  0  0  0  0  0
   12.4476  -17.5470   22.8591 N   0  0  0  0  0  0  0  0  0  0  0  0
   10.7221  -15.8530   23.0545 C   0  0  0  0  0  0  0  0  0  0  0  0
   11.2291  -14.9004   22.3968 O   0  0  0  0  0  0  0  0  0  0  0  0
   12.5517  -17.1754   26.8938 C   0  0  0  0  0  0  0  0  0  0  0  0
   12.0310  -17.4224   28.1346 C   0  0  0  0  0  0  0  0  0  0  0  0
    8.7963  -14.4827   20.6480 C   0  0  0  0  0  0  0  0  0  0  0  0
    7.7836  -14.6802   21.7736 C   0  0  1  0  0  0  0  0  0  0  0  0
    7.2922  -16.0214   21.4556 O   0  0  0  0  0  0  0  0  0  0  0  0
    8.4059  -14.8039   23.0908 C   0  0  2  0  0  0  0  0  0  0  0  0
    9.3314  -15.9883   23.0797 N   0  0  0  0  0  0  0  0  0  0  0  0
    7.6533  -14.8035   24.3206 C   0  0  0  0  0  0  0  0  0  0  0  0
    7.0407  -16.0132   24.4895 O   0  0  0  0  0  0  0  0  0  0  0  0
    7.3619  -13.9641   25.3863 N   0  0  0  0  0  0  0  0  0  0  0  0
    8.3996  -12.8746   25.8057 C   0  0  0  0  0  0  0  0  0  0  0  0
    7.4553  -11.6680   25.8441 C   0  0  0  0  0  0  0  0  0  0  0  0
    6.0229  -12.2529   25.9753 C   0  0  0  0  0  0  0  0  0  0  0  0
    6.4128  -13.6581   26.3950 C   0  0  1  0  0  0  0  0  0  0  0  0
    5.4219  -14.5439   26.8893 C   0  0  0  0  0  0  0  0  0  0  0  0
    4.6553  -14.1622   28.0028 O   0  0  0  0  0  0  0  0  0  0  0  0
    5.1408  -15.6882   26.4049 O   0  0  0  0  0  0  0  0  0  0  0  0
  2 12  2  0
  2  1  1  0
  3  2  1  0
  4  5  1  0
  4  3  2  0
  5 11  2  0
  6  7  1  0
  6  5  1  0
  7  9  1  0
  7  8  1  6
  9 17  1  0
  9 10  2  0
 11 12  1  0
 14 13  1  6
 15 14  1  0
 16 14  1  0
 16 18  1  0
 16 17  1  6
 18 19  2  0
 20 21  1  0
 20 18  1  0
 22 21  1  0
 23 24  1  0
 23 22  1  0
 24 20  1  0
 24 25  1  6
 25 26  1  0
 27 25  2  0
M  END
$$$$
