MLW.pdb
     RDKit          3D

 31 32  0  0  1  0  0  0  0  0999 V2000
    8.7036  -21.8237   24.3260 C   0  0  0  0  0  0  0  0  0  0  0  0
    7.3230  -22.4365   23.3507 S   0  0  0  0  0  0  0  0  0  0  0  0
    7.4267  -21.8474   21.6186 C   0  0  0  0  0  0  0  0  0  0  0  0
    8.1327  -20.5298   21.6535 C   0  0  0  0  0  0  0  0  0  0  0  0
    8.1930  -19.8132   20.3455 C   0  0  2  0  0  0  0  0  0  0  0  0
    8.7433  -20.5982   19.2830 N   0  0  0  0  0  0  0  0  0  0  0  0
    8.8027  -18.4509   20.4362 C   0  0  0  0  0  0  0  0  0  0  0  0
   10.0275  -18.3465   20.3470 O   0  0  0  0  0  0  0  0  0  0  0  0
    6.6641  -12.5685   21.0669 C   0  0  0  0  0  0  0  0  0  0  0  0
    7.9034  -13.4994   21.0235 C   0  0  2  0  0  0  0  0  0  0  0  0
    8.6277  -13.0712   19.7304 C   0  0  0  0  0  0  0  0  0  0  0  0
    7.3992  -14.8650   20.7987 C   0  0  0  0  0  0  0  0  0  0  0  0
    8.4121  -15.9712   20.9295 C   0  0  2  0  0  0  0  0  0  0  0  0
    8.0265  -17.2887   20.6195 N   0  0  0  0  0  0  0  0  0  0  0  0
    9.3107  -15.7855   22.0751 C   0  0  0  0  0  0  0  0  0  0  0  0
   10.2293  -14.8937   22.0720 O   0  0  0  0  0  0  0  0  0  0  0  0
    9.2386  -16.5643   23.2615 N   0  0  0  0  0  0  0  0  0  0  0  0
   10.1251  -16.3513   24.4240 C   0  0  1  0  0  0  0  0  0  0  0  0
    9.8637  -15.0302   25.0404 C   0  0  0  0  0  0  0  0  0  0  0  0
    8.4684  -14.8310   25.4400 C   0  0  0  0  0  0  0  0  0  0  0  0
    7.4430  -15.7708   25.5237 C   0  0  0  0  0  0  0  0  0  0  0  0
    6.3007  -15.1878   25.8998 N   0  0  0  0  0  0  0  0  0  0  0  0
    6.5304  -13.8751   26.0727 C   0  0  0  0  0  0  0  0  0  0  0  0
    5.6629  -12.8602   26.4732 C   0  0  0  0  0  0  0  0  0  0  0  0
    6.1180  -11.5608   26.6068 C   0  0  0  0  0  0  0  0  0  0  0  0
    7.4359  -11.3303   26.3309 C   0  0  0  0  0  0  0  0  0  0  0  0
    8.2888  -12.3229   25.9375 C   0  0  0  0  0  0  0  0  0  0  0  0
    7.8659  -13.6185   25.7961 C   0  0  0  0  0  0  0  0  0  0  0  0
   10.1752  -17.5282   25.2705 C   0  0  0  0  0  0  0  0  0  0  0  0
    9.3088  -18.4483   25.1154 O   0  0  0  0  0  0  0  0  0  0  0  0
   11.1102  -17.7663   26.2668 O   0  0  0  0  0  0  0  0  0  0  0  0
  1  2  1  0
  2  3  1  0
  4  3  1  0
  5  6  1  6
  5  4  1  0
  7  8  2  0
  7  5  1  0
 10  9  1  6
 10 11  1  0
 10 12  1  0
 13 12  1  1
 13 14  1  0
 14  7  1  0
 15 13  1  0
 16 15  2  0
 17 15  1  0
 18 29  1  0
 18 17  1  0
 18 19  1  1
 20 19  1  0
 20 28  1  0
 21 22  1  0
 21 20  2  0
 22 23  1  0
 23 28  2  0
 23 24  1  0
 24 25  2  0
 25 26  1  0
 27 26  2  0
 28 27  1  0
 29 31  1  0
 30 29  2  0
M  END
$$$$
