MLW.pdb
     RDKit          3D

 31 32  0  0  1  0  0  0  0  0999 V2000
   11.6102  -19.1651   15.8564 C   0  0  0  0  0  0  0  0  0  0  0  0
   11.1994  -20.5574   16.9173 S   0  0  0  0  0  0  0  0  0  0  0  0
    9.7019  -20.2076   17.9137 C   0  0  0  0  0  0  0  0  0  0  0  0
    9.8807  -18.8415   18.4948 C   0  0  0  0  0  0  0  0  0  0  0  0
    9.3173  -18.6618   19.8653 C   0  0  2  0  0  0  0  0  0  0  0  0
    7.9098  -18.9070   19.9466 N   0  0  0  0  0  0  0  0  0  0  0  0
    9.7209  -17.3772   20.5153 C   0  0  0  0  0  0  0  0  0  0  0  0
   10.9064  -17.0426   20.4735 O   0  0  0  0  0  0  0  0  0  0  0  0
    8.6814  -13.3634   19.4396 C   0  0  0  0  0  0  0  0  0  0  0  0
    7.5355  -14.0394   20.2360 C   0  0  2  0  0  0  0  0  0  0  0  0
    6.4344  -12.9592   20.2656 C   0  0  0  0  0  0  0  0  0  0  0  0
    8.0169  -14.1970   21.6190 C   0  0  0  0  0  0  0  0  0  0  0  0
    8.9847  -15.3259   21.8552 C   0  0  2  0  0  0  0  0  0  0  0  0
    8.7948  -16.5410   21.1710 N   0  0  0  0  0  0  0  0  0  0  0  0
    9.4377  -15.4030   23.2492 C   0  0  0  0  0  0  0  0  0  0  0  0
    9.9615  -14.3969   23.8430 O   0  0  0  0  0  0  0  0  0  0  0  0
    9.3352  -16.5775   24.0424 N   0  0  0  0  0  0  0  0  0  0  0  0
    9.9618  -16.7118   25.3735 C   0  0  1  0  0  0  0  0  0  0  0  0
    8.9274  -16.7423   26.4330 C   0  0  0  0  0  0  0  0  0  0  0  0
    7.8193  -15.8120   26.2032 C   0  0  0  0  0  0  0  0  0  0  0  0
    6.5627  -16.0705   25.6594 C   0  0  0  0  0  0  0  0  0  0  0  0
    5.8415  -14.9476   25.5877 N   0  0  0  0  0  0  0  0  0  0  0  0
    6.5819  -13.9356   26.0711 C   0  0  0  0  0  0  0  0  0  0  0  0
    6.2652  -12.5860   26.2179 C   0  0  0  0  0  0  0  0  0  0  0  0
    7.1822  -11.7059   26.7639 C   0  0  0  0  0  0  0  0  0  0  0  0
    8.3896  -12.2196   27.1436 C   0  0  0  0  0  0  0  0  0  0  0  0
    8.7033  -13.5420   27.0005 C   0  0  0  0  0  0  0  0  0  0  0  0
    7.8155  -14.4363   26.4625 C   0  0  0  0  0  0  0  0  0  0  0  0
   10.9972  -17.7278   25.3679 C   0  0  0  0  0  0  0  0  0  0  0  0
   11.7354  -17.8750   26.3948 O   0  0  0  0  0  0  0  0  0  0  0  0
   11.2727  -18.5934   24.3198 O   0  0  0  0  0  0  0  0  0  0  0  0
  1  2  1  0
  2  3  1  0
  4  3  1  0
  5  6  1  6
  5  4  1  0
  7  8  2  0
  7  5  1  0
 10  9  1  6
 10 11  1  0
 10 12  1  0
 13 12  1  1
 13 14  1  0
 14  7  1  0
 15 13  1  0
 16 15  2  0
 17 15  1  0
 18 29  1  0
 18 17  1  0
 18 19  1  1
 20 19  1  0
 20 28  1  0
 21 22  1  0
 21 20  2  0
 22 23  1  0
 23 28  2  0
 23 24  1  0
 24 25  2  0
 25 26  1  0
 27 26  2  0
 28 27  1  0
 29 31  1  0
 30 29  2  0
M  END
$$$$
