MLW.pdb
     RDKit          3D

 31 32  0  0  1  0  0  0  0  0999 V2000
   10.7169  -16.3332   15.5208 C   0  0  0  0  0  0  0  0  0  0  0  0
    9.8547  -17.9053   15.6546 S   0  0  0  0  0  0  0  0  0  0  0  0
    9.6003  -18.3704   17.4087 C   0  0  0  0  0  0  0  0  0  0  0  0
   10.6408  -17.6462   18.2015 C   0  0  0  0  0  0  0  0  0  0  0  0
   10.5870  -17.8817   19.6744 C   0  0  2  0  0  0  0  0  0  0  0  0
    9.5764  -18.8133   20.0727 N   0  0  0  0  0  0  0  0  0  0  0  0
   10.5669  -16.6235   20.4820 C   0  0  0  0  0  0  0  0  0  0  0  0
   11.6117  -15.9797   20.5960 O   0  0  0  0  0  0  0  0  0  0  0  0
    8.7865  -12.8120   19.6745 C   0  0  0  0  0  0  0  0  0  0  0  0
    7.7312  -13.8631   20.1059 C   0  0  2  0  0  0  0  0  0  0  0  0
    6.3982  -13.0926   20.0091 C   0  0  0  0  0  0  0  0  0  0  0  0
    7.9647  -14.1355   21.5344 C   0  0  0  0  0  0  0  0  0  0  0  0
    9.1699  -14.9786   21.8561 C   0  0  2  0  0  0  0  0  0  0  0  0
    9.3983  -16.1525   21.1140 N   0  0  0  0  0  0  0  0  0  0  0  0
    9.4639  -15.0238   23.2934 C   0  0  0  0  0  0  0  0  0  0  0  0
    9.5759  -13.9562   23.9911 O   0  0  0  0  0  0  0  0  0  0  0  0
    9.6452  -16.2325   24.0182 N   0  0  0  0  0  0  0  0  0  0  0  0
   10.2278  -16.2825   25.3749 C   0  0  1  0  0  0  0  0  0  0  0  0
    9.1655  -16.4752   26.3887 C   0  0  0  0  0  0  0  0  0  0  0  0
    7.9301  -15.7445   26.0955 C   0  0  0  0  0  0  0  0  0  0  0  0
    6.7385  -16.2272   25.5579 C   0  0  0  0  0  0  0  0  0  0  0  0
    5.8525  -15.2370   25.4143 N   0  0  0  0  0  0  0  0  0  0  0  0
    6.4177  -14.0956   25.8429 C   0  0  0  0  0  0  0  0  0  0  0  0
    5.8921  -12.8062   25.9072 C   0  0  0  0  0  0  0  0  0  0  0  0
    6.6512  -11.7636   26.4076 C   0  0  0  0  0  0  0  0  0  0  0  0
    7.9172  -12.0594   26.8266 C   0  0  0  0  0  0  0  0  0  0  0  0
    8.4357  -13.3223   26.7643 C   0  0  0  0  0  0  0  0  0  0  0  0
    7.7074  -14.3738   26.2731 C   0  0  0  0  0  0  0  0  0  0  0  0
   11.4025  -17.1327   25.4124 C   0  0  0  0  0  0  0  0  0  0  0  0
   12.1045  -17.1839   26.4735 O   0  0  0  0  0  0  0  0  0  0  0  0
   11.8541  -17.9314   24.3724 O   0  0  0  0  0  0  0  0  0  0  0  0
  1  2  1  0
  2  3  1  0
  4  3  1  0
  5  6  1  6
  5  4  1  0
  7  8  2  0
  7  5  1  0
 10  9  1  1
 10 11  1  0
 10 12  1  0
 13 12  1  1
 13 14  1  0
 14  7  1  0
 15 13  1  0
 16 15  2  0
 17 15  1  0
 18 29  1  0
 18 17  1  0
 18 19  1  1
 20 19  1  0
 20 28  1  0
 21 22  1  0
 21 20  2  0
 22 23  1  0
 23 28  2  0
 23 24  1  0
 24 25  2  0
 25 26  1  0
 27 26  2  0
 28 27  1  0
 29 31  1  0
 30 29  2  0
M  END
$$$$
