MLW.pdb
     RDKit          3D

 31 32  0  0  1  0  0  0  0  0999 V2000
   15.1435  -21.3544   20.0549 C   0  0  0  0  0  0  0  0  0  0  0  0
   14.2748  -21.2446   18.4846 S   0  0  0  0  0  0  0  0  0  0  0  0
   12.4817  -20.9677   18.7412 C   0  0  0  0  0  0  0  0  0  0  0  0
   12.3488  -19.6949   19.5145 C   0  0  0  0  0  0  0  0  0  0  0  0
   10.9468  -19.3003   19.8412 C   0  0  2  0  0  0  0  0  0  0  0  0
   10.0456  -19.4053   18.7345 N   0  0  0  0  0  0  0  0  0  0  0  0
   10.8436  -17.9883   20.5509 C   0  0  0  0  0  0  0  0  0  0  0  0
   11.8765  -17.3503   20.7631 O   0  0  0  0  0  0  0  0  0  0  0  0
    6.5238  -13.6641   21.2750 C   0  0  0  0  0  0  0  0  0  0  0  0
    7.9372  -14.1143   21.7267 C   0  0  2  0  0  0  0  0  0  0  0  0
    8.8622  -13.0231   21.1491 C   0  0  0  0  0  0  0  0  0  0  0  0
    8.2378  -15.3588   20.9984 C   0  0  0  0  0  0  0  0  0  0  0  0
    9.3069  -16.2321   21.5995 C   0  0  2  0  0  0  0  0  0  0  0  0
    9.6101  -17.4605   20.9830 N   0  0  0  0  0  0  0  0  0  0  0  0
    9.3096  -16.1975   23.0669 C   0  0  0  0  0  0  0  0  0  0  0  0
    8.2221  -16.1500   23.7407 O   0  0  0  0  0  0  0  0  0  0  0  0
   10.4962  -16.2139   23.8486 N   0  0  0  0  0  0  0  0  0  0  0  0
   10.4932  -16.1514   25.3246 C   0  0  1  0  0  0  0  0  0  0  0  0
   10.1354  -14.7901   25.7854 C   0  0  0  0  0  0  0  0  0  0  0  0
    8.6918  -14.5481   25.8468 C   0  0  0  0  0  0  0  0  0  0  0  0
    7.6486  -15.4640   25.7258 C   0  0  0  0  0  0  0  0  0  0  0  0
    6.4673  -14.8445   25.8090 N   0  0  0  0  0  0  0  0  0  0  0  0
    6.6879  -13.5305   25.9838 C   0  0  0  0  0  0  0  0  0  0  0  0
    5.7805  -12.4838   26.1386 C   0  0  0  0  0  0  0  0  0  0  0  0
    6.2291  -11.1889   26.3274 C   0  0  0  0  0  0  0  0  0  0  0  0
    7.5811  -10.9951   26.3535 C   0  0  0  0  0  0  0  0  0  0  0  0
    8.4732  -12.0190   26.2014 C   0  0  0  0  0  0  0  0  0  0  0  0
    8.0579  -13.3109   26.0123 C   0  0  0  0  0  0  0  0  0  0  0  0
    9.8084  -17.2941   25.8986 C   0  0  0  0  0  0  0  0  0  0  0  0
    9.3774  -18.2154   25.1327 O   0  0  0  0  0  0  0  0  0  0  0  0
    9.5706  -17.4971   27.2499 O   0  0  0  0  0  0  0  0  0  0  0  0
  1  2  1  0
  2  3  1  0
  4  3  1  0
  5  6  1  6
  5  4  1  0
  7  8  2  0
  7  5  1  0
 10  9  1  6
 10 11  1  0
 10 12  1  0
 13 12  1  1
 13 14  1  0
 14  7  1  0
 15 13  1  0
 16 15  2  0
 17 15  1  0
 18 29  1  0
 18 17  1  0
 18 19  1  6
 20 19  1  0
 20 28  1  0
 21 22  1  0
 21 20  2  0
 22 23  1  0
 23 28  2  0
 23 24  1  0
 24 25  2  0
 25 26  1  0
 27 26  2  0
 28 27  1  0
 29 31  1  0
 30 29  2  0
M  END
$$$$
