MLW.pdb
     RDKit          3D

 31 32  0  0  1  0  0  0  0  0999 V2000
    9.5240  -22.2312   18.9014 C   0  0  0  0  0  0  0  0  0  0  0  0
   11.2772  -21.8329   18.8881 S   0  0  0  0  0  0  0  0  0  0  0  0
   11.5766  -20.2010   18.1101 C   0  0  0  0  0  0  0  0  0  0  0  0
   11.2244  -19.1664   19.1305 C   0  0  0  0  0  0  0  0  0  0  0  0
   11.3531  -17.7540   18.6652 C   0  0  2  0  0  0  0  0  0  0  0  0
   12.5479  -17.4993   17.9197 N   0  0  0  0  0  0  0  0  0  0  0  0
   11.1148  -16.7443   19.7419 C   0  0  0  0  0  0  0  0  0  0  0  0
   12.0851  -16.3014   20.3595 O   0  0  0  0  0  0  0  0  0  0  0  0
    6.5121  -13.3119   20.3605 C   0  0  0  0  0  0  0  0  0  0  0  0
    7.9350  -13.6042   20.9028 C   0  0  2  0  0  0  0  0  0  0  0  0
    8.8377  -13.3992   19.6686 C   0  0  0  0  0  0  0  0  0  0  0  0
    7.9769  -15.0399   21.2291 C   0  0  0  0  0  0  0  0  0  0  0  0
    9.3430  -15.6726   21.2444 C   0  0  2  0  0  0  0  0  0  0  0  0
    9.8236  -16.2853   20.0721 N   0  0  0  0  0  0  0  0  0  0  0  0
    9.6504  -16.3290   22.5207 C   0  0  0  0  0  0  0  0  0  0  0  0
    9.8166  -17.5958   22.6028 O   0  0  0  0  0  0  0  0  0  0  0  0
    9.7872  -15.6280   23.7492 N   0  0  0  0  0  0  0  0  0  0  0  0
    9.9929  -16.3030   25.0470 C   0  0  1  0  0  0  0  0  0  0  0  0
    9.7714  -15.3568   26.1647 C   0  0  0  0  0  0  0  0  0  0  0  0
    8.4134  -14.8094   26.2142 C   0  0  0  0  0  0  0  0  0  0  0  0
    7.1997  -15.4719   26.0421 C   0  0  0  0  0  0  0  0  0  0  0  0
    6.1790  -14.6140   26.1320 N   0  0  0  0  0  0  0  0  0  0  0  0
    6.6748  -13.3862   26.3613 C   0  0  0  0  0  0  0  0  0  0  0  0
    6.0123  -12.1734   26.5436 C   0  0  0  0  0  0  0  0  0  0  0  0
    6.7261  -11.0143   26.7895 C   0  0  0  0  0  0  0  0  0  0  0  0
    8.0870  -11.1198   26.8431 C   0  0  0  0  0  0  0  0  0  0  0  0
    8.7396  -12.3071   26.6642 C   0  0  0  0  0  0  0  0  0  0  0  0
    8.0588  -13.4706   26.4186 C   0  0  0  0  0  0  0  0  0  0  0  0
    9.3383  -17.5972   25.0770 C   0  0  0  0  0  0  0  0  0  0  0  0
    8.2957  -17.7878   24.3715 O   0  0  0  0  0  0  0  0  0  0  0  0
    9.7511  -18.6932   25.8200 O   0  0  0  0  0  0  0  0  0  0  0  0
  1  2  1  0
  2  3  1  0
  4  3  1  0
  5  6  1  1
  5  4  1  0
  7  8  2  0
  7  5  1  0
 10  9  1  6
 10 11  1  0
 10 12  1  0
 13 12  1  6
 13 14  1  0
 14  7  1  0
 15 13  1  0
 16 15  2  0
 17 15  1  0
 18 29  1  0
 18 17  1  0
 18 19  1  1
 20 19  1  0
 20 28  1  0
 21 22  1  0
 21 20  2  0
 22 23  1  0
 23 28  2  0
 23 24  1  0
 24 25  2  0
 25 26  1  0
 27 26  2  0
 28 27  1  0
 29 31  1  0
 30 29  2  0
M  END
$$$$
