MLW.pdb
     RDKit          3D

 31 32  0  0  1  0  0  0  0  0999 V2000
    5.6484  -20.7576   27.0444 C   0  0  0  0  0  0  0  0  0  0  0  0
    6.7699  -19.9655   25.8836 S   0  0  0  0  0  0  0  0  0  0  0  0
    6.0320  -19.8795   24.2085 C   0  0  0  0  0  0  0  0  0  0  0  0
    6.9753  -19.0854   23.3627 C   0  0  0  0  0  0  0  0  0  0  0  0
    6.4877  -18.7903   21.9832 C   0  0  2  0  0  0  0  0  0  0  0  0
    6.1687  -19.9594   21.2220 N   0  0  0  0  0  0  0  0  0  0  0  0
    7.3541  -17.8290   21.2343 C   0  0  0  0  0  0  0  0  0  0  0  0
    8.1052  -18.2692   20.3618 O   0  0  0  0  0  0  0  0  0  0  0  0
    7.6066  -13.5242   18.8815 C   0  0  0  0  0  0  0  0  0  0  0  0
    7.1158  -13.8786   20.3090 C   0  0  2  0  0  0  0  0  0  0  0  0
    6.5354  -12.5471   20.8289 C   0  0  0  0  0  0  0  0  0  0  0  0
    8.3177  -14.1631   21.1114 C   0  0  0  0  0  0  0  0  0  0  0  0
    8.4000  -15.5429   21.7084 C   0  0  2  0  0  0  0  0  0  0  0  0
    7.3402  -16.4434   21.4924 N   0  0  0  0  0  0  0  0  0  0  0  0
    9.0297  -15.5511   23.0342 C   0  0  0  0  0  0  0  0  0  0  0  0
    8.4507  -15.0440   24.0572 O   0  0  0  0  0  0  0  0  0  0  0  0
   10.3101  -16.1120   23.2898 N   0  0  0  0  0  0  0  0  0  0  0  0
   10.9214  -16.1532   24.6341 C   0  0  1  0  0  0  0  0  0  0  0  0
    9.9135  -16.5331   25.6507 C   0  0  0  0  0  0  0  0  0  0  0  0
    9.0342  -15.4317   26.0506 C   0  0  0  0  0  0  0  0  0  0  0  0
    7.6978  -15.2187   25.7185 C   0  0  0  0  0  0  0  0  0  0  0  0
    7.2552  -14.0790   26.2583 N   0  0  0  0  0  0  0  0  0  0  0  0
    8.2620  -13.5166   26.9482 C   0  0  0  0  0  0  0  0  0  0  0  0
    8.2881  -12.3378   27.6917 C   0  0  0  0  0  0  0  0  0  0  0  0
    9.4419  -11.9478   28.3477 C   0  0  0  0  0  0  0  0  0  0  0  0
   10.5317  -12.7630   28.2301 C   0  0  0  0  0  0  0  0  0  0  0  0
   10.5095  -13.9189   27.5015 C   0  0  0  0  0  0  0  0  0  0  0  0
    9.3815  -14.3296   26.8409 C   0  0  0  0  0  0  0  0  0  0  0  0
   12.1969  -16.8437   24.6116 C   0  0  0  0  0  0  0  0  0  0  0  0
   12.5693  -17.4362   23.5479 O   0  0  0  0  0  0  0  0  0  0  0  0
   13.0903  -16.9230   25.6695 O   0  0  0  0  0  0  0  0  0  0  0  0
  1  2  1  0
  2  3  1  0
  4  3  1  0
  5  6  1  6
  5  4  1  0
  7  8  2  0
  7  5  1  0
 10  9  1  6
 10 11  1  0
 10 12  1  0
 13 12  1  1
 13 14  1  0
 14  7  1  0
 15 13  1  0
 16 15  2  0
 17 15  1  0
 18 29  1  0
 18 17  1  0
 18 19  1  1
 20 19  1  0
 20 28  1  0
 21 22  1  0
 21 20  2  0
 22 23  1  0
 23 28  2  0
 23 24  1  0
 24 25  2  0
 25 26  1  0
 27 26  2  0
 28 27  1  0
 29 31  1  0
 30 29  2  0
M  END
$$$$
