MLW.pdb
     RDKit          3D

 31 32  0  0  1  0  0  0  0  0999 V2000
   11.9665  -19.9839   15.8284 C   0  0  0  0  0  0  0  0  0  0  0  0
   10.8572  -21.3621   16.1491 S   0  0  0  0  0  0  0  0  0  0  0  0
   10.1788  -21.2804   17.8494 C   0  0  0  0  0  0  0  0  0  0  0  0
   10.1852  -19.8390   18.2468 C   0  0  0  0  0  0  0  0  0  0  0  0
    9.7077  -19.5665   19.6344 C   0  0  2  0  0  0  0  0  0  0  0  0
    8.3713  -20.0144   19.8826 N   0  0  0  0  0  0  0  0  0  0  0  0
    9.9404  -18.1591   20.0826 C   0  0  0  0  0  0  0  0  0  0  0  0
   11.0772  -17.6919   19.9908 O   0  0  0  0  0  0  0  0  0  0  0  0
    6.4934  -13.0797   21.0782 C   0  0  0  0  0  0  0  0  0  0  0  0
    7.8909  -13.7384   21.2097 C   0  0  2  0  0  0  0  0  0  0  0  0
    8.6737  -13.1592   20.0132 C   0  0  0  0  0  0  0  0  0  0  0  0
    7.7078  -15.1758   20.9452 C   0  0  0  0  0  0  0  0  0  0  0  0
    8.9355  -16.0346   21.0935 C   0  0  2  0  0  0  0  0  0  0  0  0
    8.9077  -17.3539   20.6042 N   0  0  0  0  0  0  0  0  0  0  0  0
    9.6418  -15.8016   22.3589 C   0  0  0  0  0  0  0  0  0  0  0  0
   10.6631  -15.0327   22.4277 O   0  0  0  0  0  0  0  0  0  0  0  0
    9.2593  -16.3977   23.5909 N   0  0  0  0  0  0  0  0  0  0  0  0
   10.1032  -16.3626   24.8029 C   0  0  1  0  0  0  0  0  0  0  0  0
    9.8978  -15.0953   25.5413 C   0  0  0  0  0  0  0  0  0  0  0  0
    8.4917  -14.7999   25.8272 C   0  0  0  0  0  0  0  0  0  0  0  0
    7.4002  -15.6661   25.8204 C   0  0  0  0  0  0  0  0  0  0  0  0
    6.2741  -15.0056   26.1062 N   0  0  0  0  0  0  0  0  0  0  0  0
    6.5793  -13.7123   26.3064 C   0  0  0  0  0  0  0  0  0  0  0  0
    5.7543  -12.6399   26.6419 C   0  0  0  0  0  0  0  0  0  0  0  0
    6.2859  -11.3755   26.8212 C   0  0  0  0  0  0  0  0  0  0  0  0
    7.6347  -11.2370   26.6553 C   0  0  0  0  0  0  0  0  0  0  0  0
    8.4461  -12.2860   26.3258 C   0  0  0  0  0  0  0  0  0  0  0  0
    7.9475  -13.5489   26.1414 C   0  0  0  0  0  0  0  0  0  0  0  0
   10.0400  -17.6190   25.5251 C   0  0  0  0  0  0  0  0  0  0  0  0
   10.7636  -17.7835   26.5597 O   0  0  0  0  0  0  0  0  0  0  0  0
    9.2363  -18.7000   25.1947 O   0  0  0  0  0  0  0  0  0  0  0  0
  1  2  1  0
  2  3  1  0
  4  3  1  0
  5  6  1  6
  5  4  1  0
  7  8  2  0
  7  5  1  0
 10  9  1  6
 10 11  1  0
 10 12  1  0
 13 12  1  1
 13 14  1  0
 14  7  1  0
 15 13  1  0
 16 15  2  0
 17 15  1  0
 18 29  1  0
 18 17  1  0
 18 19  1  1
 20 19  1  0
 20 28  1  0
 21 22  1  0
 21 20  2  0
 22 23  1  0
 23 28  2  0
 23 24  1  0
 24 25  2  0
 25 26  1  0
 27 26  2  0
 28 27  1  0
 29 31  1  0
 30 29  2  0
M  END
$$$$
