MLW.pdb
     RDKit          3D

 31 32  0  0  1  0  0  0  0  0999 V2000
    5.5265  -11.0847   28.2220 C   0  0  0  0  0  0  0  0  0  0  0  0
    5.3243  -12.0458   26.7159 S   0  0  0  0  0  0  0  0  0  0  0  0
    6.2711  -13.6123   26.8015 C   0  0  0  0  0  0  0  0  0  0  0  0
    6.0697  -14.3092   25.4940 C   0  0  0  0  0  0  0  0  0  0  0  0
    6.7802  -15.6150   25.3606 C   0  0  2  0  0  0  0  0  0  0  0  0
    7.7792  -15.8326   26.3620 N   0  0  0  0  0  0  0  0  0  0  0  0
    7.2766  -15.8885   23.9770 C   0  0  0  0  0  0  0  0  0  0  0  0
    6.8296  -16.8655   23.3730 O   0  0  0  0  0  0  0  0  0  0  0  0
    7.1573  -13.9367   20.3101 C   0  0  0  0  0  0  0  0  0  0  0  0
    8.3532  -13.3346   21.0922 C   0  0  2  0  0  0  0  0  0  0  0  0
    8.9217  -12.2797   20.1206 C   0  0  0  0  0  0  0  0  0  0  0  0
    9.3641  -14.3998   21.2057 C   0  0  0  0  0  0  0  0  0  0  0  0
    9.1740  -15.3703   22.3410 C   0  0  2  0  0  0  0  0  0  0  0  0
    8.2340  -15.0698   23.3444 N   0  0  0  0  0  0  0  0  0  0  0  0
   10.4294  -16.0027   22.7634 C   0  0  0  0  0  0  0  0  0  0  0  0
   11.5608  -15.6331   22.2919 O   0  0  0  0  0  0  0  0  0  0  0  0
   10.4943  -17.0577   23.7131 N   0  0  0  0  0  0  0  0  0  0  0  0
   11.7449  -17.7697   24.0469 C   0  0  1  0  0  0  0  0  0  0  0  0
   12.1314  -17.5081   25.4525 C   0  0  0  0  0  0  0  0  0  0  0  0
   11.0471  -16.9589   26.2704 C   0  0  0  0  0  0  0  0  0  0  0  0
    9.8601  -17.5705   26.6688 C   0  0  0  0  0  0  0  0  0  0  0  0
    9.1137  -16.7253   27.3862 N   0  0  0  0  0  0  0  0  0  0  0  0
    9.7690  -15.5561   27.4822 C   0  0  0  0  0  0  0  0  0  0  0  0
    9.4089  -14.3798   28.1377 C   0  0  0  0  0  0  0  0  0  0  0  0
   10.2527  -13.2837   28.1257 C   0  0  0  0  0  0  0  0  0  0  0  0
   11.4333  -13.4131   27.4509 C   0  0  0  0  0  0  0  0  0  0  0  0
   11.7890  -14.5647   26.8067 C   0  0  0  0  0  0  0  0  0  0  0  0
   10.9733  -15.6656   26.8012 C   0  0  0  0  0  0  0  0  0  0  0  0
   11.7165  -19.1377   23.5652 C   0  0  0  0  0  0  0  0  0  0  0  0
   10.6390  -19.6067   23.0751 O   0  0  0  0  0  0  0  0  0  0  0  0
   12.7864  -20.0203   23.5787 O   0  0  0  0  0  0  0  0  0  0  0  0
  1  2  1  0
  2  3  1  0
  4  3  1  0
  5  6  1  1
  5  4  1  0
  7  8  2  0
  7  5  1  0
 10  9  1  6
 10 11  1  0
 10 12  1  0
 13 12  1  1
 13 14  1  0
 14  7  1  0
 15 13  1  0
 16 15  2  0
 17 15  1  0
 18 29  1  0
 18 17  1  0
 18 19  1  1
 20 19  1  0
 20 28  1  0
 21 22  1  0
 21 20  2  0
 22 23  1  0
 23 28  2  0
 23 24  1  0
 24 25  2  0
 25 26  1  0
 27 26  2  0
 28 27  1  0
 29 31  1  0
 30 29  2  0
M  END
$$$$
