MLW.pdb
     RDKit          3D

 31 32  0  0  1  0  0  0  0  0999 V2000
   12.5816  -17.1795   16.2635 C   0  0  0  0  0  0  0  0  0  0  0  0
   11.8815  -18.8309   16.1386 S   0  0  0  0  0  0  0  0  0  0  0  0
   11.0623  -19.3197   17.7032 C   0  0  0  0  0  0  0  0  0  0  0  0
   10.9958  -18.0933   18.5559 C   0  0  0  0  0  0  0  0  0  0  0  0
   10.3664  -18.2909   19.8948 C   0  0  2  0  0  0  0  0  0  0  0  0
    9.0791  -18.9138   19.8403 N   0  0  0  0  0  0  0  0  0  0  0  0
   10.3820  -17.0652   20.7510 C   0  0  0  0  0  0  0  0  0  0  0  0
   11.4700  -16.6123   21.1117 O   0  0  0  0  0  0  0  0  0  0  0  0
    8.4573  -12.9275   19.7473 C   0  0  0  0  0  0  0  0  0  0  0  0
    7.5428  -14.1074   20.1667 C   0  0  2  0  0  0  0  0  0  0  0  0
    6.1238  -13.5079   20.0830 C   0  0  0  0  0  0  0  0  0  0  0  0
    7.8137  -14.3672   21.5911 C   0  0  0  0  0  0  0  0  0  0  0  0
    9.0143  -15.2259   21.8875 C   0  0  2  0  0  0  0  0  0  0  0  0
    9.1993  -16.4145   21.1569 N   0  0  0  0  0  0  0  0  0  0  0  0
    9.3530  -15.2547   23.3154 C   0  0  0  0  0  0  0  0  0  0  0  0
    9.5483  -14.1795   23.9823 O   0  0  0  0  0  0  0  0  0  0  0  0
    9.4898  -16.4548   24.0640 N   0  0  0  0  0  0  0  0  0  0  0  0
    9.9980  -16.4896   25.4507 C   0  0  1  0  0  0  0  0  0  0  0  0
    8.8836  -16.6835   26.4068 C   0  0  0  0  0  0  0  0  0  0  0  0
    7.7691  -15.7530   26.2108 C   0  0  0  0  0  0  0  0  0  0  0  0
    6.5113  -16.0021   25.6652 C   0  0  0  0  0  0  0  0  0  0  0  0
    5.7834  -14.8818   25.6315 N   0  0  0  0  0  0  0  0  0  0  0  0
    6.5202  -13.8808   26.1422 C   0  0  0  0  0  0  0  0  0  0  0  0
    6.1966  -12.5383   26.3318 C   0  0  0  0  0  0  0  0  0  0  0  0
    7.1111  -11.6699   26.9002 C   0  0  0  0  0  0  0  0  0  0  0  0
    8.3234  -12.1879   27.2583 C   0  0  0  0  0  0  0  0  0  0  0  0
    8.6440  -13.5034   27.0732 C   0  0  0  0  0  0  0  0  0  0  0  0
    7.7587  -14.3860   26.5122 C   0  0  0  0  0  0  0  0  0  0  0  0
   11.1757  -17.3296   25.5590 C   0  0  0  0  0  0  0  0  0  0  0  0
   11.8320  -17.3499   26.6498 O   0  0  0  0  0  0  0  0  0  0  0  0
   11.6765  -18.1498   24.5589 O   0  0  0  0  0  0  0  0  0  0  0  0
  1  2  1  0
  2  3  1  0
  4  3  1  0
  5  6  1  6
  5  4  1  0
  7  8  2  0
  7  5  1  0
 10  9  1  1
 10 11  1  0
 10 12  1  0
 13 12  1  1
 13 14  1  0
 14  7  1  0
 15 13  1  0
 16 15  2  0
 17 15  1  0
 18 29  1  0
 18 17  1  0
 18 19  1  1
 20 19  1  0
 20 28  1  0
 21 22  1  0
 21 20  2  0
 22 23  1  0
 23 28  2  0
 23 24  1  0
 24 25  2  0
 25 26  1  0
 27 26  2  0
 28 27  1  0
 29 31  1  0
 30 29  2  0
M  END
$$$$
