MLW.pdb
     RDKit          3D

 31 32  0  0  1  0  0  0  0  0999 V2000
   13.0103  -17.2042   17.3412 C   0  0  0  0  0  0  0  0  0  0  0  0
   12.9370  -19.0003   17.3065 S   0  0  0  0  0  0  0  0  0  0  0  0
   11.5577  -19.6239   18.3392 C   0  0  0  0  0  0  0  0  0  0  0  0
   10.6628  -18.4576   18.6122 C   0  0  0  0  0  0  0  0  0  0  0  0
   10.0493  -18.4398   19.9728 C   0  0  2  0  0  0  0  0  0  0  0  0
    8.6847  -18.8703   19.9956 N   0  0  0  0  0  0  0  0  0  0  0  0
   10.2655  -17.1575   20.7108 C   0  0  0  0  0  0  0  0  0  0  0  0
   11.4153  -16.7276   20.8209 O   0  0  0  0  0  0  0  0  0  0  0  0
    8.6641  -13.0918   19.5745 C   0  0  0  0  0  0  0  0  0  0  0  0
    7.7125  -14.1045   20.2623 C   0  0  2  0  0  0  0  0  0  0  0  0
    6.3491  -13.3825   20.2461 C   0  0  0  0  0  0  0  0  0  0  0  0
    8.1334  -14.1913   21.6711 C   0  0  0  0  0  0  0  0  0  0  0  0
    9.2033  -15.2052   21.9779 C   0  0  2  0  0  0  0  0  0  0  0  0
    9.2028  -16.4284   21.2818 N   0  0  0  0  0  0  0  0  0  0  0  0
    9.5594  -15.2418   23.4013 C   0  0  0  0  0  0  0  0  0  0  0  0
    9.9162  -14.1868   24.0329 O   0  0  0  0  0  0  0  0  0  0  0  0
    9.5384  -16.4277   24.1839 N   0  0  0  0  0  0  0  0  0  0  0  0
   10.1017  -16.5072   25.5472 C   0  0  1  0  0  0  0  0  0  0  0  0
    9.0176  -16.6058   26.5515 C   0  0  0  0  0  0  0  0  0  0  0  0
    7.8472  -15.7820   26.2392 C   0  0  0  0  0  0  0  0  0  0  0  0
    6.6594  -16.1564   25.6140 C   0  0  0  0  0  0  0  0  0  0  0  0
    5.8449  -15.1048   25.4841 N   0  0  0  0  0  0  0  0  0  0  0  0
    6.4546  -14.0278   26.0077 C   0  0  0  0  0  0  0  0  0  0  0  0
    6.0063  -12.7129   26.1212 C   0  0  0  0  0  0  0  0  0  0  0  0
    6.7993  -11.7507   26.7204 C   0  0  0  0  0  0  0  0  0  0  0  0
    8.0201  -12.1502   27.1853 C   0  0  0  0  0  0  0  0  0  0  0  0
    8.4628  -13.4383   27.0750 C   0  0  0  0  0  0  0  0  0  0  0  0
    7.6995  -14.4119   26.4859 C   0  0  0  0  0  0  0  0  0  0  0  0
   11.2067  -17.4452   25.6064 C   0  0  0  0  0  0  0  0  0  0  0  0
   11.9077  -17.5206   26.6667 O   0  0  0  0  0  0  0  0  0  0  0  0
   11.5895  -18.3064   24.5889 O   0  0  0  0  0  0  0  0  0  0  0  0
  1  2  1  0
  2  3  1  0
  4  3  1  0
  5  6  1  6
  5  4  1  0
  7  8  2  0
  7  5  1  0
 10  9  1  6
 10 11  1  0
 10 12  1  0
 13 12  1  1
 13 14  1  0
 14  7  1  0
 15 13  1  0
 16 15  2  0
 17 15  1  0
 18 29  1  0
 18 17  1  0
 18 19  1  1
 20 19  1  0
 20 28  1  0
 21 22  1  0
 21 20  2  0
 22 23  1  0
 23 28  2  0
 23 24  1  0
 24 25  2  0
 25 26  1  0
 27 26  2  0
 28 27  1  0
 29 31  1  0
 30 29  2  0
M  END
$$$$
