MLW.pdb
     RDKit          3D

 31 32  0  0  1  0  0  0  0  0999 V2000
    7.9145  -20.6000   14.9208 C   0  0  0  0  0  0  0  0  0  0  0  0
    8.8510  -19.0653   14.9041 S   0  0  0  0  0  0  0  0  0  0  0  0
    9.0988  -18.4258   16.6034 C   0  0  0  0  0  0  0  0  0  0  0  0
    9.5260  -19.5873   17.4425 C   0  0  0  0  0  0  0  0  0  0  0  0
    9.7618  -19.2709   18.8820 C   0  0  2  0  0  0  0  0  0  0  0  0
    8.7427  -19.7671   19.7558 N   0  0  0  0  0  0  0  0  0  0  0  0
   10.0926  -17.8346   19.1334 C   0  0  0  0  0  0  0  0  0  0  0  0
   11.1827  -17.4053   18.7506 O   0  0  0  0  0  0  0  0  0  0  0  0
    7.0480  -12.5361   20.1386 C   0  0  0  0  0  0  0  0  0  0  0  0
    8.4109  -13.2631   20.2738 C   0  0  2  0  0  0  0  0  0  0  0  0
    9.2174  -12.7394   19.0674 C   0  0  0  0  0  0  0  0  0  0  0  0
    8.1542  -14.6926   20.0282 C   0  0  0  0  0  0  0  0  0  0  0  0
    9.3463  -15.6052   20.1423 C   0  0  2  0  0  0  0  0  0  0  0  0
    9.2034  -16.9604   19.7907 N   0  0  0  0  0  0  0  0  0  0  0  0
   10.1877  -15.2973   21.3050 C   0  0  0  0  0  0  0  0  0  0  0  0
   10.8065  -14.1816   21.4111 O   0  0  0  0  0  0  0  0  0  0  0  0
   10.3827  -16.1938   22.3902 N   0  0  0  0  0  0  0  0  0  0  0  0
    9.9109  -15.9172   23.7625 C   0  0  1  0  0  0  0  0  0  0  0  0
    8.5685  -15.2920   23.7334 C   0  0  0  0  0  0  0  0  0  0  0  0
    8.0460  -14.9539   25.0596 C   0  0  0  0  0  0  0  0  0  0  0  0
    7.9587  -15.7593   26.1934 C   0  0  0  0  0  0  0  0  0  0  0  0
    7.3923  -15.0906   27.2024 N   0  0  0  0  0  0  0  0  0  0  0  0
    7.0949  -13.8512   26.7769 C   0  0  0  0  0  0  0  0  0  0  0  0
    6.5117  -12.7861   27.4614 C   0  0  0  0  0  0  0  0  0  0  0  0
    6.3095  -11.5725   26.8291 C   0  0  0  0  0  0  0  0  0  0  0  0
    6.7040  -11.4758   25.5248 C   0  0  0  0  0  0  0  0  0  0  0  0
    7.2755  -12.5182   24.8508 C   0  0  0  0  0  0  0  0  0  0  0  0
    7.4873  -13.7315   25.4511 C   0  0  0  0  0  0  0  0  0  0  0  0
   10.1434  -17.0504   24.6376 C   0  0  0  0  0  0  0  0  0  0  0  0
   10.0704  -18.2309   24.1661 O   0  0  0  0  0  0  0  0  0  0  0  0
   10.4551  -16.9772   25.9871 O   0  0  0  0  0  0  0  0  0  0  0  0
  1  2  1  0
  2  3  1  0
  4  3  1  0
  5  6  1  1
  5  4  1  0
  7  8  2  0
  7  5  1  0
 10  9  1  6
 10 11  1  0
 10 12  1  0
 13 12  1  1
 13 14  1  0
 14  7  1  0
 15 13  1  0
 16 15  2  0
 17 15  1  0
 18 29  1  0
 18 17  1  0
 18 19  1  6
 20 19  1  0
 20 28  1  0
 21 22  1  0
 21 20  2  0
 22 23  1  0
 23 28  2  0
 23 24  1  0
 24 25  2  0
 25 26  1  0
 27 26  2  0
 28 27  1  0
 29 31  1  0
 30 29  2  0
M  END
$$$$
