RDD.pdb
     RDKit          3D

 28 27  0  0  1  0  0  0  0  0999 V2000
   26.8558  -22.1982  -10.1940 N   0  0  0  0  0  0  0  0  0  0  0  0
   26.0982  -20.9989  -10.2180 C   0  0  0  0  0  0  0  0  0  0  0  0
   25.1972  -20.8371   -9.3226 N   0  0  0  0  0  0  0  0  0  0  0  0
   26.3130  -19.9857  -11.2063 N   0  0  0  0  0  0  0  0  0  0  0  0
   25.9894  -20.2610  -12.6157 C   0  0  0  0  0  0  0  0  0  0  0  0
   26.2104  -21.7137  -12.8615 C   0  0  0  0  0  0  0  0  0  0  0  0
   25.0571  -22.4814  -13.3829 C   0  0  0  0  0  0  0  0  0  0  0  0
   24.5464  -22.1132  -14.7369 C   0  0  2  0  0  0  0  0  0  0  0  0
   25.5128  -22.3877  -15.7419 N   0  0  0  0  0  0  0  0  0  0  0  0
   23.9908  -20.7445  -14.7177 C   0  0  0  0  0  0  0  0  0  0  0  0
   23.1940  -20.4087  -13.7629 O   0  0  0  0  0  0  0  0  0  0  0  0
   24.6304  -19.9882   -9.2200 N   0  0  0  0  0  0  0  0  0  0  0  0
   24.2298  -19.7176  -15.6501 C   0  0  1  0  0  0  0  0  0  0  0  0
   23.5969  -18.3823  -15.5452 C   0  0  0  0  0  0  0  0  0  0  0  0
   24.2724  -17.5596  -16.6141 C   0  0  0  0  0  0  0  0  0  0  0  0
   25.6877  -17.3581  -16.2529 O   0  0  0  0  0  0  0  0  0  0  0  0
   26.1908  -17.7023  -15.1345 C   0  0  0  0  0  0  0  0  0  0  0  0
   22.1586  -18.4769  -15.8340 O   0  0  0  0  0  0  0  0  0  0  0  0
   21.7585  -19.3053  -16.6805 O   0  0  0  0  0  0  0  0  0  0  0  0
   26.5173  -16.7463  -17.2158 N   0  0  0  0  0  0  0  0  0  0  0  0
   21.1742  -17.6654  -15.1963 C   0  0  2  0  0  0  0  0  0  0  0  0
   19.7559  -17.7849  -15.3897 C   0  0  0  0  0  0  0  0  0  0  0  0
   19.3835  -18.0878  -16.8169 C   0  0  0  0  0  0  0  0  0  0  0  0
   19.5484  -16.9394  -17.7343 O   0  0  0  0  0  0  0  0  0  0  0  0
   19.2451  -17.0529  -18.9388 C   0  0  0  0  0  0  0  0  0  0  0  0
   19.2119  -18.7858  -14.4427 O   0  0  0  0  0  0  0  0  0  0  0  0
   17.9696  -19.0086  -14.4147 O   0  0  0  0  0  0  0  0  0  0  0  0
   20.0388  -15.7339  -17.2716 O   0  0  0  0  0  0  0  0  0  0  0  0
  1  2  1  0
  2  3  2  0
  4  2  1  0
  5  4  1  0
  6  5  1  0
  7  6  1  0
  8 10  1  0
  8  7  1  0
  8  9  1  6
 10 12  1  0
 11 10  2  0
 12 13  1  0
 13 14  1  1
 13 17  1  0
 15 19  1  0
 15 14  1  0
 16 15  2  0
 17 18  2  0
 17 20  1  0
 20 21  1  0
 21 25  1  0
 21 22  1  1
 23 22  1  0
 24 23  2  0
 25 28  1  0
 26 25  2  0
 27 23  1  0
M  END
$$$$
