RDD.pdb
     RDKit          3D

 28 27  0  0  1  0  0  0  0  0999 V2000
   33.8386  -11.1173  -17.6048 N   0  0  0  0  0  0  0  0  0  0  0  0
   33.0599  -11.1527  -18.7902 C   0  0  0  0  0  0  0  0  0  0  0  0
   32.7570  -12.2971  -19.2785 N   0  0  0  0  0  0  0  0  0  0  0  0
   32.6167   -9.9579  -19.4425 N   0  0  0  0  0  0  0  0  0  0  0  0
   31.4008   -9.2764  -18.9693 C   0  0  0  0  0  0  0  0  0  0  0  0
   30.7640  -10.1399  -17.9357 C   0  0  0  0  0  0  0  0  0  0  0  0
   29.5474   -9.6060  -17.2829 C   0  0  0  0  0  0  0  0  0  0  0  0
   28.2689   -9.6851  -18.0501 C   0  0  2  0  0  0  0  0  0  0  0  0
   28.4974  -10.1137  -19.3855 N   0  0  0  0  0  0  0  0  0  0  0  0
   27.4970   -8.4363  -17.8851 C   0  0  0  0  0  0  0  0  0  0  0  0
   28.0475   -7.3166  -18.2048 O   0  0  0  0  0  0  0  0  0  0  0  0
   32.2913  -12.4347  -20.1822 N   0  0  0  0  0  0  0  0  0  0  0  0
   26.1815   -8.3085  -17.4010 C   0  0  1  0  0  0  0  0  0  0  0  0
   25.5029   -6.9979  -17.2733 C   0  0  0  0  0  0  0  0  0  0  0  0
   25.3648   -6.5048  -18.6924 C   0  0  0  0  0  0  0  0  0  0  0  0
   24.6597   -5.2098  -18.6922 O   0  0  0  0  0  0  0  0  0  0  0  0
   23.4453   -5.0626  -19.0474 C   0  0  0  0  0  0  0  0  0  0  0  0
   24.1684   -7.1714  -16.6818 O   0  0  0  0  0  0  0  0  0  0  0  0
   23.5127   -8.2028  -16.9450 O   0  0  0  0  0  0  0  0  0  0  0  0
   25.3901   -4.0789  -18.2710 N   0  0  0  0  0  0  0  0  0  0  0  0
   23.5648   -6.2167  -15.8109 C   0  0  1  0  0  0  0  0  0  0  0  0
   22.2387   -6.3183  -15.2684 C   0  0  0  0  0  0  0  0  0  0  0  0
   21.9938   -7.6258  -14.5629 C   0  0  0  0  0  0  0  0  0  0  0  0
   21.1703   -8.5786  -15.3386 O   0  0  0  0  0  0  0  0  0  0  0  0
   20.6961   -8.2411  -16.4416 C   0  0  0  0  0  0  0  0  0  0  0  0
   21.9722   -5.1508  -14.3962 O   0  0  0  0  0  0  0  0  0  0  0  0
   20.8255   -4.9974  -13.8911 O   0  0  0  0  0  0  0  0  0  0  0  0
   20.9165   -9.8466  -14.8533 O   0  0  0  0  0  0  0  0  0  0  0  0
  1  2  1  0
  2  3  2  0
  4  2  1  0
  5  4  1  0
  6  5  1  0
  7  6  1  0
  8 10  1  0
  8  7  1  0
  8  9  1  6
 10 12  1  0
 11 10  2  0
 12 13  1  0
 13 14  1  1
 13 17  1  0
 15 19  1  0
 15 14  1  0
 16 15  2  0
 17 18  2  0
 17 20  1  0
 20 21  1  0
 21 25  1  0
 21 22  1  1
 23 22  1  0
 24 23  2  0
 25 28  1  0
 26 25  2  0
 27 23  1  0
M  END
$$$$
