RDD.pdb
     RDKit          3D

 28 27  0  0  1  0  0  0  0  0999 V2000
   17.1484  -15.5273  -15.9393 N   0  0  0  0  0  0  0  0  0  0  0  0
   16.7227  -14.6207  -16.9441 C   0  0  0  0  0  0  0  0  0  0  0  0
   15.8620  -15.0296  -17.7995 N   0  0  0  0  0  0  0  0  0  0  0  0
   17.2286  -13.2838  -17.0230 N   0  0  0  0  0  0  0  0  0  0  0  0
   18.0334  -12.8757  -18.1860 C   0  0  0  0  0  0  0  0  0  0  0  0
   19.4707  -12.9761  -17.8070 C   0  0  0  0  0  0  0  0  0  0  0  0
   20.4586  -12.6325  -18.8544 C   0  0  0  0  0  0  0  0  0  0  0  0
   21.9025  -12.8063  -18.5160 C   0  0  2  0  0  0  0  0  0  0  0  0
   22.1455  -14.0847  -17.9449 N   0  0  0  0  0  0  0  0  0  0  0  0
   22.3904  -11.6419  -17.7488 C   0  0  0  0  0  0  0  0  0  0  0  0
   22.1521  -11.5847  -16.4842 O   0  0  0  0  0  0  0  0  0  0  0  0
   15.5469  -14.4832  -18.6085 N   0  0  0  0  0  0  0  0  0  0  0  0
   23.1114  -10.5396  -18.2448 C   0  0  2  0  0  0  0  0  0  0  0  0
   23.4995   -9.3919  -17.3921 C   0  0  0  0  0  0  0  0  0  0  0  0
   24.8825   -9.0203  -17.8665 C   0  0  0  0  0  0  0  0  0  0  0  0
   25.3759   -7.8741  -17.0810 O   0  0  0  0  0  0  0  0  0  0  0  0
   24.6911   -7.2788  -16.1870 C   0  0  0  0  0  0  0  0  0  0  0  0
   22.5849   -8.2623  -17.6122 O   0  0  0  0  0  0  0  0  0  0  0  0
   22.3388   -7.8942  -18.7813 O   0  0  0  0  0  0  0  0  0  0  0  0
   26.6856   -7.4248  -17.3502 N   0  0  0  0  0  0  0  0  0  0  0  0
   21.9507   -7.5472  -16.5537 C   0  0  1  0  0  0  0  0  0  0  0  0
   21.0496   -6.4424  -16.7292 C   0  0  0  0  0  0  0  0  0  0  0  0
   19.6433   -6.7596  -16.2945 C   0  0  0  0  0  0  0  0  0  0  0  0
   18.6906   -5.6459  -16.4933 O   0  0  0  0  0  0  0  0  0  0  0  0
   19.0288   -4.6445  -17.1552 C   0  0  0  0  0  0  0  0  0  0  0  0
   21.5941   -5.2483  -16.0419 O   0  0  0  0  0  0  0  0  0  0  0  0
   22.5136   -5.3843  -15.1877 O   0  0  0  0  0  0  0  0  0  0  0  0
   17.4216   -5.7000  -15.9502 O   0  0  0  0  0  0  0  0  0  0  0  0
  1  2  1  0
  2  3  2  0
  4  2  1  0
  5  4  1  0
  6  5  1  0
  7  6  1  0
  8 10  1  0
  8  7  1  0
  8  9  1  1
 10 12  1  0
 11 10  2  0
 12 13  1  0
 13 14  1  6
 13 17  1  0
 15 19  1  0
 15 14  1  0
 16 15  2  0
 17 18  2  0
 17 20  1  0
 20 21  1  0
 21 25  1  0
 21 22  1  1
 23 22  1  0
 24 23  2  0
 25 28  1  0
 26 25  2  0
 27 23  1  0
M  END
$$$$
