RDD.pdb
     RDKit          3D

 28 27  0  0  1  0  0  0  0  0999 V2000
   31.1236  -20.4105  -10.4025 N   0  0  0  0  0  0  0  0  0  0  0  0
   31.1685  -21.7794  -10.7725 C   0  0  0  0  0  0  0  0  0  0  0  0
   32.1331  -22.4932  -10.3256 N   0  0  0  0  0  0  0  0  0  0  0  0
   30.1785  -22.3682  -11.6225 N   0  0  0  0  0  0  0  0  0  0  0  0
   29.0308  -21.5635  -12.0720 C   0  0  0  0  0  0  0  0  0  0  0  0
   28.0792  -21.4451  -10.9318 C   0  0  0  0  0  0  0  0  0  0  0  0
   26.7929  -20.7669  -11.2088 C   0  0  0  0  0  0  0  0  0  0  0  0
   25.7919  -21.5090  -12.0316 C   0  0  2  0  0  0  0  0  0  0  0  0
   26.4291  -22.4220  -12.9146 N   0  0  0  0  0  0  0  0  0  0  0  0
   24.8341  -20.5651  -12.6433 C   0  0  0  0  0  0  0  0  0  0  0  0
   24.3049  -19.6499  -11.9075 O   0  0  0  0  0  0  0  0  0  0  0  0
   32.3019  -23.4691  -10.5932 N   0  0  0  0  0  0  0  0  0  0  0  0
   24.4067  -20.5383  -13.9841 C   0  0  1  0  0  0  0  0  0  0  0  0
   23.3812  -19.5886  -14.4751 C   0  0  0  0  0  0  0  0  0  0  0  0
   23.7930  -19.2898  -15.8953 C   0  0  0  0  0  0  0  0  0  0  0  0
   24.8048  -18.2172  -15.8943 O   0  0  0  0  0  0  0  0  0  0  0  0
   24.6430  -17.0893  -15.3250 C   0  0  0  0  0  0  0  0  0  0  0  0
   22.0558  -20.2243  -14.4716 O   0  0  0  0  0  0  0  0  0  0  0  0
   21.9588  -21.4368  -14.7604 O   0  0  0  0  0  0  0  0  0  0  0  0
   26.0165  -18.4742  -16.5692 N   0  0  0  0  0  0  0  0  0  0  0  0
   20.8517  -19.5288  -14.1540 C   0  0  2  0  0  0  0  0  0  0  0  0
   19.5415  -20.1170  -14.1312 C   0  0  0  0  0  0  0  0  0  0  0  0
   18.4794  -19.1614  -13.6558 C   0  0  0  0  0  0  0  0  0  0  0  0
   17.1120  -19.7244  -13.6854 O   0  0  0  0  0  0  0  0  0  0  0  0
   16.9450  -20.9602  -13.7038 C   0  0  0  0  0  0  0  0  0  0  0  0
   19.2319  -20.6827  -15.4650 O   0  0  0  0  0  0  0  0  0  0  0  0
   18.9661  -21.9118  -15.5758 O   0  0  0  0  0  0  0  0  0  0  0  0
   16.0088  -18.8933  -13.6944 O   0  0  0  0  0  0  0  0  0  0  0  0
  1  2  1  0
  2  3  2  0
  4  2  1  0
  5  4  1  0
  6  5  1  0
  7  6  1  0
  8 10  1  0
  8  7  1  0
  8  9  1  6
 10 12  1  0
 11 10  2  0
 12 13  1  0
 13 14  1  1
 13 17  1  0
 15 19  1  0
 15 14  1  0
 16 15  2  0
 17 18  2  0
 17 20  1  0
 20 21  1  0
 21 25  1  0
 21 22  1  6
 23 22  1  0
 24 23  2  0
 25 28  1  0
 26 25  2  0
 27 23  1  0
M  END
$$$$
