RDD.pdb
     RDKit          3D

 28 27  0  0  1  0  0  0  0  0999 V2000
   27.3797  -20.6152   -8.6736 N   0  0  0  0  0  0  0  0  0  0  0  0
   26.0166  -20.9901   -8.7932 C   0  0  0  0  0  0  0  0  0  0  0  0
   25.2462  -20.7901   -7.7901 N   0  0  0  0  0  0  0  0  0  0  0  0
   25.4944  -21.5801   -9.9885 N   0  0  0  0  0  0  0  0  0  0  0  0
   26.3852  -21.8119  -11.1371 C   0  0  0  0  0  0  0  0  0  0  0  0
   26.3018  -20.6218  -12.0296 C   0  0  0  0  0  0  0  0  0  0  0  0
   25.0162  -20.4079  -12.7317 C   0  0  0  0  0  0  0  0  0  0  0  0
   24.9478  -20.8052  -14.1694 C   0  0  2  0  0  0  0  0  0  0  0  0
   26.1066  -21.5309  -14.5569 N   0  0  0  0  0  0  0  0  0  0  0  0
   24.5946  -19.6391  -15.0047 C   0  0  0  0  0  0  0  0  0  0  0  0
   23.8490  -18.7162  -14.5031 O   0  0  0  0  0  0  0  0  0  0  0  0
   24.2618  -21.0762   -7.7516 N   0  0  0  0  0  0  0  0  0  0  0  0
   24.9839  -19.3985  -16.3357 C   0  0  1  0  0  0  0  0  0  0  0  0
   24.4430  -18.2736  -17.1335 C   0  0  0  0  0  0  0  0  0  0  0  0
   25.4281  -18.1048  -18.2637 C   0  0  0  0  0  0  0  0  0  0  0  0
   26.6916  -17.5616  -17.7322 O   0  0  0  0  0  0  0  0  0  0  0  0
   26.8510  -17.1859  -16.5255 C   0  0  0  0  0  0  0  0  0  0  0  0
   23.1244  -18.6250  -17.6800 O   0  0  0  0  0  0  0  0  0  0  0  0
   23.0107  -19.6455  -18.3931 O   0  0  0  0  0  0  0  0  0  0  0  0
   27.7762  -17.4594  -18.6283 N   0  0  0  0  0  0  0  0  0  0  0  0
   21.9457  -17.8579  -17.4426 C   0  0  1  0  0  0  0  0  0  0  0  0
   20.6583  -18.4045  -17.1152 C   0  0  0  0  0  0  0  0  0  0  0  0
   20.7046  -19.3494  -15.9437 C   0  0  0  0  0  0  0  0  0  0  0  0
   19.3949  -19.9483  -15.6066 O   0  0  0  0  0  0  0  0  0  0  0  0
   18.3727  -19.6117  -16.2371 C   0  0  0  0  0  0  0  0  0  0  0  0
   19.6922  -17.3006  -16.9086 O   0  0  0  0  0  0  0  0  0  0  0  0
   18.4601  -17.5065  -17.0909 O   0  0  0  0  0  0  0  0  0  0  0  0
   19.2876  -20.8817  -14.5942 O   0  0  0  0  0  0  0  0  0  0  0  0
  1  2  1  0
  2  3  2  0
  4  2  1  0
  5  4  1  0
  6  5  1  0
  7  6  1  0
  8 10  1  0
  8  7  1  0
  8  9  1  6
 10 12  1  0
 11 10  2  0
 12 13  1  0
 13 14  1  1
 13 17  1  0
 15 19  1  0
 15 14  1  0
 16 15  2  0
 17 18  2  0
 17 20  1  0
 20 21  1  0
 21 25  1  0
 21 22  1  6
 23 22  1  0
 24 23  2  0
 25 28  1  0
 26 25  2  0
 27 23  1  0
M  END
$$$$
