RDD.pdb
     RDKit          3D

 28 27  0  0  1  0  0  0  0  0999 V2000
   27.4266  -17.3752  -19.3688 N   0  0  0  0  0  0  0  0  0  0  0  0
   28.8015  -17.2074  -19.0617 C   0  0  0  0  0  0  0  0  0  0  0  0
   29.3416  -16.0742  -19.3142 N   0  0  0  0  0  0  0  0  0  0  0  0
   29.5848  -18.2602  -18.4893 N   0  0  0  0  0  0  0  0  0  0  0  0
   29.2440  -18.7807  -17.1553 C   0  0  0  0  0  0  0  0  0  0  0  0
   27.8101  -18.4711  -16.8950 C   0  0  0  0  0  0  0  0  0  0  0  0
   26.9274  -19.6205  -16.5932 C   0  0  0  0  0  0  0  0  0  0  0  0
   27.4499  -20.6554  -15.6522 C   0  0  2  0  0  0  0  0  0  0  0  0
   28.1075  -21.7017  -16.3538 N   0  0  0  0  0  0  0  0  0  0  0  0
   26.3922  -21.0644  -14.7053 C   0  0  0  0  0  0  0  0  0  0  0  0
   25.6848  -22.1069  -14.9735 O   0  0  0  0  0  0  0  0  0  0  0  0
   30.3343  -15.8615  -19.1668 N   0  0  0  0  0  0  0  0  0  0  0  0
   26.0429  -20.4324  -13.4972 C   0  0  2  0  0  0  0  0  0  0  0  0
   24.9027  -20.8798  -12.6640 C   0  0  0  0  0  0  0  0  0  0  0  0
   25.2512  -20.4209  -11.2698 C   0  0  0  0  0  0  0  0  0  0  0  0
   24.2721  -20.9732  -10.3155 O   0  0  0  0  0  0  0  0  0  0  0  0
   23.2605  -21.6672  -10.6583 C   0  0  0  0  0  0  0  0  0  0  0  0
   23.6633  -20.2217  -13.1020 O   0  0  0  0  0  0  0  0  0  0  0  0
   23.7291  -19.1072  -13.6645 O   0  0  0  0  0  0  0  0  0  0  0  0
   24.4854  -20.7061   -8.9470 N   0  0  0  0  0  0  0  0  0  0  0  0
   22.3667  -20.7873  -12.9198 C   0  0  1  0  0  0  0  0  0  0  0  0
   21.1463  -20.2359  -13.4392 C   0  0  0  0  0  0  0  0  0  0  0  0
   21.3152  -18.8362  -13.9680 C   0  0  0  0  0  0  0  0  0  0  0  0
   20.0600  -18.2272  -14.4592 O   0  0  0  0  0  0  0  0  0  0  0  0
   18.9969  -18.3906  -13.8278 C   0  0  0  0  0  0  0  0  0  0  0  0
   20.5827  -21.1557  -14.4546 O   0  0  0  0  0  0  0  0  0  0  0  0
   21.1472  -22.2629  -14.6762 O   0  0  0  0  0  0  0  0  0  0  0  0
   20.0491  -17.4751  -15.6177 O   0  0  0  0  0  0  0  0  0  0  0  0
  1  2  1  0
  2  3  2  0
  4  2  1  0
  5  4  1  0
  6  5  1  0
  7  6  1  0
  8 10  1  0
  8  7  1  0
  8  9  1  6
 10 12  1  0
 11 10  2  0
 12 13  1  0
 13 14  1  1
 13 17  1  0
 15 19  1  0
 15 14  1  0
 16 15  2  0
 17 18  2  0
 17 20  1  0
 20 21  1  0
 21 25  1  0
 21 22  1  1
 23 22  1  0
 24 23  2  0
 25 28  1  0
 26 25  2  0
 27 23  1  0
M  END
$$$$
