RDD.pdb
     RDKit          3D

 28 27  0  0  1  0  0  0  0  0999 V2000
    9.8875  -13.3359  -11.0090 N   0  0  0  0  0  0  0  0  0  0  0  0
   11.0689  -13.7479  -10.3400 C   0  0  0  0  0  0  0  0  0  0  0  0
   11.1233  -14.9480   -9.8969 N   0  0  0  0  0  0  0  0  0  0  0  0
   12.1798  -12.8652  -10.1499 N   0  0  0  0  0  0  0  0  0  0  0  0
   12.6482  -12.0304  -11.2681 C   0  0  0  0  0  0  0  0  0  0  0  0
   12.5062  -10.6031  -10.8656 C   0  0  0  0  0  0  0  0  0  0  0  0
   13.5695   -9.6775  -11.3171 C   0  0  0  0  0  0  0  0  0  0  0  0
   14.9569   -9.9411  -10.8321 C   0  0  2  0  0  0  0  0  0  0  0  0
   14.9482  -10.4594   -9.5090 N   0  0  0  0  0  0  0  0  0  0  0  0
   15.8128   -8.7603  -11.0682 C   0  0  0  0  0  0  0  0  0  0  0  0
   15.8495   -8.2431  -12.2473 O   0  0  0  0  0  0  0  0  0  0  0  0
   10.4703  -15.3405   -9.2099 N   0  0  0  0  0  0  0  0  0  0  0  0
   16.6291   -8.1016  -10.1298 C   0  0  1  0  0  0  0  0  0  0  0  0
   17.3336   -6.8349  -10.4360 C   0  0  0  0  0  0  0  0  0  0  0  0
   17.5223   -6.1740   -9.0931 C   0  0  0  0  0  0  0  0  0  0  0  0
   16.2793   -5.4777   -8.7132 O   0  0  0  0  0  0  0  0  0  0  0  0
   15.2695   -5.3584   -9.4805 C   0  0  0  0  0  0  0  0  0  0  0  0
   18.6468   -7.1148  -11.0344 O   0  0  0  0  0  0  0  0  0  0  0  0
   19.3750   -7.9945  -10.5258 O   0  0  0  0  0  0  0  0  0  0  0  0
   16.2246   -4.9170   -7.4200 N   0  0  0  0  0  0  0  0  0  0  0  0
   19.1501   -6.4304  -12.1800 C   0  0  1  0  0  0  0  0  0  0  0  0
   20.4167   -6.6908  -12.8055 C   0  0  0  0  0  0  0  0  0  0  0  0
   20.2893   -7.4940  -14.0727 C   0  0  0  0  0  0  0  0  0  0  0  0
   21.5767   -7.7347  -14.7599 O   0  0  0  0  0  0  0  0  0  0  0  0
   22.6464   -7.3804  -14.2255 C   0  0  0  0  0  0  0  0  0  0  0  0
   21.1324   -5.4117  -13.0207 O   0  0  0  0  0  0  0  0  0  0  0  0
   22.3946   -5.3936  -13.0153 O   0  0  0  0  0  0  0  0  0  0  0  0
   21.6102   -8.3503  -15.9960 O   0  0  0  0  0  0  0  0  0  0  0  0
  1  2  1  0
  2  3  2  0
  4  2  1  0
  5  4  1  0
  6  5  1  0
  7  6  1  0
  8 10  1  0
  8  7  1  0
  8  9  1  1
 10 12  1  0
 11 10  2  0
 12 13  1  0
 13 14  1  6
 13 17  1  0
 15 19  1  0
 15 14  1  0
 16 15  2  0
 17 18  2  0
 17 20  1  0
 20 21  1  0
 21 25  1  0
 21 22  1  6
 23 22  1  0
 24 23  2  0
 25 28  1  0
 26 25  2  0
 27 23  1  0
M  END
$$$$
