RDD.pdb
     RDKit          3D

 28 27  0  0  1  0  0  0  0  0999 V2000
   30.4565  -22.1861   -8.6127 N   0  0  0  0  0  0  0  0  0  0  0  0
   30.9838  -22.2881   -9.9259 C   0  0  0  0  0  0  0  0  0  0  0  0
   32.2562  -22.3339  -10.0626 N   0  0  0  0  0  0  0  0  0  0  0  0
   30.1392  -22.3362  -11.0808 N   0  0  0  0  0  0  0  0  0  0  0  0
   28.6813  -22.2062  -10.9244 C   0  0  0  0  0  0  0  0  0  0  0  0
   28.2435  -21.0050  -11.6892 C   0  0  0  0  0  0  0  0  0  0  0  0
   26.8269  -20.6025  -11.5387 C   0  0  0  0  0  0  0  0  0  0  0  0
   25.7889  -21.5579  -12.0278 C   0  0  2  0  0  0  0  0  0  0  0  0
   26.3330  -22.4656  -12.9761 N   0  0  0  0  0  0  0  0  0  0  0  0
   24.5758  -20.8243  -12.4433 C   0  0  0  0  0  0  0  0  0  0  0  0
   24.0057  -20.0346  -11.6004 O   0  0  0  0  0  0  0  0  0  0  0  0
   32.7388  -22.3809  -10.9666 N   0  0  0  0  0  0  0  0  0  0  0  0
   23.9353  -20.8821  -13.6953 C   0  0  1  0  0  0  0  0  0  0  0  0
   22.6623  -20.1771  -13.9729 C   0  0  0  0  0  0  0  0  0  0  0  0
   22.8942  -19.4855  -15.2934 C   0  0  0  0  0  0  0  0  0  0  0  0
   21.7174  -18.6616  -15.6257 O   0  0  0  0  0  0  0  0  0  0  0  0
   21.5282  -18.1202  -16.7631 C   0  0  0  0  0  0  0  0  0  0  0  0
   21.5645  -21.1448  -14.1116 O   0  0  0  0  0  0  0  0  0  0  0  0
   21.8334  -22.3502  -14.3058 O   0  0  0  0  0  0  0  0  0  0  0  0
   20.7558  -18.4733  -14.6111 N   0  0  0  0  0  0  0  0  0  0  0  0
   20.1863  -20.7853  -14.0379 C   0  0  2  0  0  0  0  0  0  0  0  0
   19.1291  -21.6562  -13.6053 C   0  0  0  0  0  0  0  0  0  0  0  0
   19.3918  -22.2696  -12.2554 C   0  0  0  0  0  0  0  0  0  0  0  0
   18.3000  -23.1428  -11.7728 O   0  0  0  0  0  0  0  0  0  0  0  0
   17.1220  -22.7332  -11.7807 C   0  0  0  0  0  0  0  0  0  0  0  0
   17.8404  -20.9269  -13.6497 O   0  0  0  0  0  0  0  0  0  0  0  0
   16.7790  -21.5507  -13.9286 O   0  0  0  0  0  0  0  0  0  0  0  0
   18.5698  -24.4155  -11.3088 O   0  0  0  0  0  0  0  0  0  0  0  0
  1  2  1  0
  2  3  2  0
  4  2  1  0
  5  4  1  0
  6  5  1  0
  7  6  1  0
  8 10  1  0
  8  7  1  0
  8  9  1  6
 10 12  1  0
 11 10  2  0
 12 13  1  0
 13 14  1  1
 13 17  1  0
 15 19  1  0
 15 14  1  0
 16 15  2  0
 17 18  2  0
 17 20  1  0
 20 21  1  0
 21 25  1  0
 21 22  1  1
 23 22  1  0
 24 23  2  0
 25 28  1  0
 26 25  2  0
 27 23  1  0
M  END
$$$$
