RDD.pdb
     RDKit          3D

 28 27  0  0  1  0  0  0  0  0999 V2000
   30.0653  -21.6494  -11.0337 N   0  0  0  0  0  0  0  0  0  0  0  0
   30.3932  -21.5299   -9.6585 C   0  0  0  0  0  0  0  0  0  0  0  0
   31.6313  -21.5343   -9.3315 N   0  0  0  0  0  0  0  0  0  0  0  0
   29.3876  -21.4107   -8.6466 N   0  0  0  0  0  0  0  0  0  0  0  0
   27.9696  -21.5790   -9.0038 C   0  0  0  0  0  0  0  0  0  0  0  0
   27.6162  -20.5195   -9.9898 C   0  0  0  0  0  0  0  0  0  0  0  0
   26.1948  -20.4375  -10.3948 C   0  0  0  0  0  0  0  0  0  0  0  0
   25.7660  -21.2701  -11.5578 C   0  0  2  0  0  0  0  0  0  0  0  0
   26.8876  -21.7534  -12.2843 N   0  0  0  0  0  0  0  0  0  0  0  0
   24.7341  -20.5597  -12.3409 C   0  0  0  0  0  0  0  0  0  0  0  0
   23.6949  -20.1026  -11.7324 O   0  0  0  0  0  0  0  0  0  0  0  0
   31.9758  -21.4200   -8.3720 N   0  0  0  0  0  0  0  0  0  0  0  0
   24.7413  -20.3096  -13.7259 C   0  0  1  0  0  0  0  0  0  0  0  0
   23.5692  -19.7545  -14.4419 C   0  0  0  0  0  0  0  0  0  0  0  0
   24.0979  -19.3931  -15.8078 C   0  0  0  0  0  0  0  0  0  0  0  0
   23.0342  -18.7270  -16.5819 O   0  0  0  0  0  0  0  0  0  0  0  0
   22.6838  -19.0784  -17.7551 C   0  0  0  0  0  0  0  0  0  0  0  0
   22.5228  -20.7783  -14.5755 O   0  0  0  0  0  0  0  0  0  0  0  0
   22.7408  -21.9339  -14.1512 O   0  0  0  0  0  0  0  0  0  0  0  0
   22.3780  -17.6384  -15.9703 N   0  0  0  0  0  0  0  0  0  0  0  0
   21.2513  -20.5291  -15.1717 C   0  0  2  0  0  0  0  0  0  0  0  0
   19.9916  -20.9720  -14.6424 C   0  0  0  0  0  0  0  0  0  0  0  0
   20.0648  -21.3331  -13.1824 C   0  0  0  0  0  0  0  0  0  0  0  0
   19.1430  -22.4208  -12.7887 O   0  0  0  0  0  0  0  0  0  0  0  0
   19.1689  -23.5115  -13.3928 C   0  0  0  0  0  0  0  0  0  0  0  0
   18.9549  -19.9500  -14.9170 O   0  0  0  0  0  0  0  0  0  0  0  0
   17.7356  -20.2764  -14.8980 O   0  0  0  0  0  0  0  0  0  0  0  0
   18.2460  -22.2427  -11.7535 O   0  0  0  0  0  0  0  0  0  0  0  0
  1  2  1  0
  2  3  2  0
  4  2  1  0
  5  4  1  0
  6  5  1  0
  7  6  1  0
  8 10  1  0
  8  7  1  0
  8  9  1  6
 10 12  1  0
 11 10  2  0
 12 13  1  0
 13 14  1  1
 13 17  1  0
 15 19  1  0
 15 14  1  0
 16 15  2  0
 17 18  2  0
 17 20  1  0
 20 21  1  0
 21 25  1  0
 21 22  1  1
 23 22  1  0
 24 23  2  0
 25 28  1  0
 26 25  2  0
 27 23  1  0
M  END
$$$$
