RDD.pdb
     RDKit          3D

 28 27  0  0  1  0  0  0  0  0999 V2000
   19.2910  -18.3299  -14.7718 N   0  0  0  0  0  0  0  0  0  0  0  0
   19.5807  -18.4287  -16.1571 C   0  0  0  0  0  0  0  0  0  0  0  0
   19.9315  -19.5702  -16.6197 N   0  0  0  0  0  0  0  0  0  0  0  0
   19.4947  -17.2992  -17.0325 N   0  0  0  0  0  0  0  0  0  0  0  0
   20.1674  -16.0414  -16.6688 C   0  0  0  0  0  0  0  0  0  0  0  0
   19.1260  -15.0820  -16.2055 C   0  0  0  0  0  0  0  0  0  0  0  0
   19.5992  -13.7491  -15.7688 C   0  0  0  0  0  0  0  0  0  0  0  0
   19.6262  -12.6634  -16.7937 C   0  0  2  0  0  0  0  0  0  0  0  0
   20.1508  -13.1352  -18.0272 N   0  0  0  0  0  0  0  0  0  0  0  0
   20.2560  -11.4497  -16.2345 C   0  0  0  0  0  0  0  0  0  0  0  0
   19.9044  -11.0490  -15.0619 O   0  0  0  0  0  0  0  0  0  0  0  0
   20.1898  -19.7428  -17.5974 N   0  0  0  0  0  0  0  0  0  0  0  0
   21.2311  -10.6400  -16.8465 C   0  0  1  0  0  0  0  0  0  0  0  0
   21.7451   -9.3998  -16.2200 C   0  0  0  0  0  0  0  0  0  0  0  0
   23.1077   -9.2024  -16.8367 C   0  0  0  0  0  0  0  0  0  0  0  0
   23.7541   -8.0267  -16.2250 O   0  0  0  0  0  0  0  0  0  0  0  0
   23.2237   -7.3235  -15.3048 C   0  0  0  0  0  0  0  0  0  0  0  0
   20.8813   -8.2608  -16.5628 O   0  0  0  0  0  0  0  0  0  0  0  0
   20.7037   -7.9688  -17.7654 O   0  0  0  0  0  0  0  0  0  0  0  0
   25.0349   -7.6758  -16.7005 N   0  0  0  0  0  0  0  0  0  0  0  0
   20.2225   -7.4534  -15.5891 C   0  0  2  0  0  0  0  0  0  0  0  0
   19.3307   -6.3671  -15.8857 C   0  0  0  0  0  0  0  0  0  0  0  0
   18.0285   -6.4575  -15.1350 C   0  0  0  0  0  0  0  0  0  0  0  0
   17.1052   -5.3334  -15.4021 O   0  0  0  0  0  0  0  0  0  0  0  0
   16.4658   -4.8135  -14.4660 C   0  0  0  0  0  0  0  0  0  0  0  0
   20.0262   -5.0803  -15.6511 O   0  0  0  0  0  0  0  0  0  0  0  0
   19.4273   -3.9945  -15.8876 O   0  0  0  0  0  0  0  0  0  0  0  0
   16.9394   -4.8486  -16.6849 O   0  0  0  0  0  0  0  0  0  0  0  0
  1  2  1  0
  2  3  2  0
  4  2  1  0
  5  4  1  0
  6  5  1  0
  7  6  1  0
  8 10  1  0
  8  7  1  0
  8  9  1  6
 10 12  1  0
 11 10  2  0
 12 13  1  0
 13 14  1  1
 13 17  1  0
 15 19  1  0
 15 14  1  0
 16 15  2  0
 17 18  2  0
 17 20  1  0
 20 21  1  0
 21 25  1  0
 21 22  1  1
 23 22  1  0
 24 23  2  0
 25 28  1  0
 26 25  2  0
 27 23  1  0
M  END
$$$$
