RDD.pdb
     RDKit          3D

 28 27  0  0  1  0  0  0  0  0999 V2000
   31.7932  -22.0063   -8.9661 N   0  0  0  0  0  0  0  0  0  0  0  0
   31.8128  -22.0607  -10.3837 C   0  0  0  0  0  0  0  0  0  0  0  0
   32.6925  -22.8019  -10.9463 N   0  0  0  0  0  0  0  0  0  0  0  0
   30.8893  -21.3151  -11.1841 N   0  0  0  0  0  0  0  0  0  0  0  0
   29.6076  -20.8804  -10.6054 C   0  0  0  0  0  0  0  0  0  0  0  0
   28.5128  -21.5580  -11.3549 C   0  0  0  0  0  0  0  0  0  0  0  0
   27.1278  -21.2206  -10.9557 C   0  0  0  0  0  0  0  0  0  0  0  0
   26.0196  -21.8302  -11.7493 C   0  0  2  0  0  0  0  0  0  0  0  0
   26.4121  -23.0782  -12.3042 N   0  0  0  0  0  0  0  0  0  0  0  0
   25.4628  -20.8391  -12.6928 C   0  0  0  0  0  0  0  0  0  0  0  0
   24.8732  -19.7946  -12.2233 O   0  0  0  0  0  0  0  0  0  0  0  0
   32.8189  -22.8794  -11.9614 N   0  0  0  0  0  0  0  0  0  0  0  0
   25.4941  -20.8940  -14.0988 C   0  0  2  0  0  0  0  0  0  0  0  0
   24.8931  -19.8419  -14.9512 C   0  0  0  0  0  0  0  0  0  0  0  0
   25.8520  -19.6996  -16.1072 C   0  0  0  0  0  0  0  0  0  0  0  0
   26.8656  -18.6807  -15.7775 O   0  0  0  0  0  0  0  0  0  0  0  0
   26.7780  -17.8875  -14.7847 C   0  0  0  0  0  0  0  0  0  0  0  0
   23.5822  -20.2798  -15.4518 O   0  0  0  0  0  0  0  0  0  0  0  0
   23.3733  -21.4991  -15.6326 O   0  0  0  0  0  0  0  0  0  0  0  0
   27.9911  -18.5947  -16.6233 N   0  0  0  0  0  0  0  0  0  0  0  0
   22.5151  -19.3817  -15.7502 C   0  0  1  0  0  0  0  0  0  0  0  0
   21.1183  -19.6844  -15.6068 C   0  0  0  0  0  0  0  0  0  0  0  0
   20.7634  -20.1695  -14.2262 C   0  0  0  0  0  0  0  0  0  0  0  0
   19.3235  -20.4539  -14.0443 O   0  0  0  0  0  0  0  0  0  0  0  0
   18.8679  -21.5799  -14.3276 C   0  0  0  0  0  0  0  0  0  0  0  0
   20.3148  -18.5078  -16.0126 O   0  0  0  0  0  0  0  0  0  0  0  0
   20.8942  -17.4200  -16.2859 O   0  0  0  0  0  0  0  0  0  0  0  0
   18.4695  -19.4812  -13.5623 O   0  0  0  0  0  0  0  0  0  0  0  0
  1  2  1  0
  2  3  2  0
  4  2  1  0
  5  4  1  0
  6  5  1  0
  7  6  1  0
  8 10  1  0
  8  7  1  0
  8  9  1  6
 10 12  1  0
 11 10  2  0
 12 13  1  0
 13 14  1  1
 13 17  1  0
 15 19  1  0
 15 14  1  0
 16 15  2  0
 17 18  2  0
 17 20  1  0
 20 21  1  0
 21 25  1  0
 21 22  1  6
 23 22  1  0
 24 23  2  0
 25 28  1  0
 26 25  2  0
 27 23  1  0
M  END
$$$$
