AMS.pdb
     RDKit          3D

 20 19  0  0  1  0  0  0  0  0999 V2000
   25.5191  -14.3454  -16.5619 C   0  0  0  0  0  0  0  0  0  0  0  0
   24.1042  -13.7641  -16.5174 C   0  0  2  0  0  0  0  0  0  0  0  0
   23.3070  -14.2929  -17.6070 N   0  0  0  0  0  0  0  0  0  0  0  0
   24.1412  -12.2867  -16.6175 C   0  0  0  0  0  0  0  0  0  0  0  0
   24.7945  -11.6035  -15.7917 O   0  0  0  0  0  0  0  0  0  0  0  0
   26.7669   -9.6145  -21.9791 C   0  0  0  0  0  0  0  0  0  0  0  0
   25.0396   -9.4640  -21.4336 S   0  0  0  0  0  0  0  0  0  0  0  0
   24.9338   -9.8729  -19.6839 C   0  0  0  0  0  0  0  0  0  0  0  0
   23.5050   -9.7943  -19.2234 C   0  0  0  0  0  0  0  0  0  0  0  0
   23.4289  -10.1833  -17.7730 C   0  0  2  0  0  0  0  0  0  0  0  0
   23.4417  -11.6247  -17.6441 N   0  0  0  0  0  0  0  0  0  0  0  0
   22.1748   -9.6234  -17.1642 C   0  0  0  0  0  0  0  0  0  0  0  0
   21.0956  -10.2613  -17.2752 O   0  0  0  0  0  0  0  0  0  0  0  0
   19.6394   -8.5205  -13.8023 O   0  0  0  0  0  0  0  0  0  0  0  0
   20.7700   -8.9575  -14.5254 C   0  0  0  0  0  0  0  0  0  0  0  0
   21.0047   -8.0288  -15.7006 C   0  0  2  0  0  0  0  0  0  0  0  0
   22.1553   -8.4060  -16.4693 N   0  0  0  0  0  0  0  0  0  0  0  0
   21.1177   -6.6516  -15.1673 C   0  0  0  0  0  0  0  0  0  0  0  0
   19.9406   -6.0861  -14.6461 O   0  0  0  0  0  0  0  0  0  0  0  0
   22.1656   -5.9924  -15.1576 O   0  0  0  0  0  0  0  0  0  0  0  0
  2  3  1  0
  2  1  1  6
  4 11  1  0
  4  2  1  0
  5  4  2  0
  7  8  1  0
  7  6  1  0
  8  9  1  0
 10  9  1  6
 10 11  1  0
 10 12  1  0
 12 17  1  0
 13 12  2  0
 15 14  1  0
 16 15  1  1
 16 18  1  0
 17 16  1  0
 18 19  1  0
 20 18  2  0
M  END
$$$$
