AMS.pdb
     RDKit          3D

 20 19  0  0  1  0  0  0  0  0999 V2000
   18.6578  -11.3105  -17.1175 C   0  0  0  0  0  0  0  0  0  0  0  0
   20.0946  -11.8327  -17.1844 C   0  0  2  0  0  0  0  0  0  0  0  0
   20.2320  -13.0355  -16.3863 N   0  0  0  0  0  0  0  0  0  0  0  0
   21.0468  -10.8118  -16.6888 C   0  0  0  0  0  0  0  0  0  0  0  0
   21.2086  -10.6290  -15.4576 O   0  0  0  0  0  0  0  0  0  0  0  0
   27.2513   -6.3361  -18.4103 C   0  0  0  0  0  0  0  0  0  0  0  0
   25.9850   -7.4731  -19.0488 S   0  0  0  0  0  0  0  0  0  0  0  0
   24.7734   -7.7951  -17.7572 C   0  0  0  0  0  0  0  0  0  0  0  0
   23.7201   -8.7398  -18.2650 C   0  0  0  0  0  0  0  0  0  0  0  0
   22.7407   -9.0303  -17.1617 C   0  0  2  0  0  0  0  0  0  0  0  0
   21.7867  -10.0288  -17.5947 N   0  0  0  0  0  0  0  0  0  0  0  0
   22.0242   -7.7676  -16.7758 C   0  0  0  0  0  0  0  0  0  0  0  0
   21.1970   -7.2571  -17.5753 O   0  0  0  0  0  0  0  0  0  0  0  0
   20.1661   -4.8625  -13.5407 O   0  0  0  0  0  0  0  0  0  0  0  0
   20.8754   -6.0499  -13.8217 C   0  0  0  0  0  0  0  0  0  0  0  0
   21.4928   -5.9517  -15.2028 C   0  0  2  0  0  0  0  0  0  0  0  0
   22.2403   -7.1260  -15.5482 N   0  0  0  0  0  0  0  0  0  0  0  0
   22.3292   -4.7296  -15.2335 C   0  0  0  0  0  0  0  0  0  0  0  0
   21.6617   -3.5239  -15.5125 O   0  0  0  0  0  0  0  0  0  0  0  0
   23.5506   -4.7164  -15.0319 O   0  0  0  0  0  0  0  0  0  0  0  0
  2  3  1  0
  2  1  1  1
  4 11  1  0
  4  2  1  0
  5  4  2  0
  7  8  1  0
  7  6  1  0
  8  9  1  0
 10  9  1  6
 10 11  1  0
 10 12  1  0
 12 17  1  0
 13 12  2  0
 15 14  1  0
 16 15  1  1
 16 18  1  0
 17 16  1  0
 18 19  1  0
 20 18  2  0
M  END
$$$$
