AMS.pdb
     RDKit          3D

 20 19  0  0  1  0  0  0  0  0999 V2000
   17.7235   -9.4693  -19.2518 C   0  0  0  0  0  0  0  0  0  0  0  0
   18.7346  -10.5581  -18.8858 C   0  0  2  0  0  0  0  0  0  0  0  0
   18.0493  -11.7920  -18.5540 N   0  0  0  0  0  0  0  0  0  0  0  0
   19.5618  -10.1382  -17.7309 C   0  0  0  0  0  0  0  0  0  0  0  0
   19.0499   -9.9922  -16.5942 O   0  0  0  0  0  0  0  0  0  0  0  0
   26.7323  -10.2626  -14.6501 C   0  0  0  0  0  0  0  0  0  0  0  0
   25.6995  -10.5803  -16.1117 S   0  0  0  0  0  0  0  0  0  0  0  0
   24.0522   -9.9126  -15.8289 C   0  0  0  0  0  0  0  0  0  0  0  0
   23.1767  -10.1830  -17.0206 C   0  0  0  0  0  0  0  0  0  0  0  0
   21.8126   -9.5994  -16.7768 C   0  0  2  0  0  0  0  0  0  0  0  0
   20.9390   -9.8961  -17.8919 N   0  0  0  0  0  0  0  0  0  0  0  0
   21.9241   -8.1127  -16.5921 C   0  0  0  0  0  0  0  0  0  0  0  0
   22.2919   -7.3955  -17.5586 O   0  0  0  0  0  0  0  0  0  0  0  0
   19.5006   -5.9802  -16.1364 O   0  0  0  0  0  0  0  0  0  0  0  0
   20.3561   -5.4010  -15.1748 C   0  0  0  0  0  0  0  0  0  0  0  0
   21.7209   -6.0560  -15.2568 C   0  0  2  0  0  0  0  0  0  0  0  0
   21.6322   -7.4827  -15.3741 N   0  0  0  0  0  0  0  0  0  0  0  0
   22.4889   -5.6419  -14.0599 C   0  0  0  0  0  0  0  0  0  0  0  0
   22.7607   -4.2677  -13.9380 O   0  0  0  0  0  0  0  0  0  0  0  0
   22.8919   -6.4218  -13.1869 O   0  0  0  0  0  0  0  0  0  0  0  0
  2  3  1  0
  2  1  1  1
  4 11  1  0
  4  2  1  0
  5  4  2  0
  7  8  1  0
  7  6  1  0
  8  9  1  0
 10  9  1  6
 10 11  1  0
 10 12  1  0
 12 17  1  0
 13 12  2  0
 15 14  1  0
 16 15  1  1
 16 18  1  0
 17 16  1  0
 18 19  1  0
 20 18  2  0
M  END
$$$$
