AMS.pdb
     RDKit          3D

 20 19  0  0  1  0  0  0  0  0999 V2000
   17.8772  -10.0831  -18.3359 C   0  0  0  0  0  0  0  0  0  0  0  0
   18.9246  -11.0732  -17.8215 C   0  0  2  0  0  0  0  0  0  0  0  0
   18.2800  -12.2556  -17.2840 N   0  0  0  0  0  0  0  0  0  0  0  0
   19.7572  -10.4533  -16.7648 C   0  0  0  0  0  0  0  0  0  0  0  0
   19.2892  -10.2440  -15.6190 O   0  0  0  0  0  0  0  0  0  0  0  0
   25.2284  -13.8972  -15.5293 C   0  0  0  0  0  0  0  0  0  0  0  0
   25.1374  -12.1691  -16.0855 S   0  0  0  0  0  0  0  0  0  0  0  0
   23.4914  -11.5243  -15.7470 C   0  0  0  0  0  0  0  0  0  0  0  0
   23.3793  -10.1123  -16.2503 C   0  0  0  0  0  0  0  0  0  0  0  0
   21.9856   -9.6059  -16.0012 C   0  0  2  0  0  0  0  0  0  0  0  0
   21.0905  -10.0886  -17.0309 N   0  0  0  0  0  0  0  0  0  0  0  0
   21.9885   -8.1037  -15.9849 C   0  0  0  0  0  0  0  0  0  0  0  0
   21.9457   -7.4736  -17.0735 O   0  0  0  0  0  0  0  0  0  0  0  0
   20.4196   -4.0874  -15.0961 O   0  0  0  0  0  0  0  0  0  0  0  0
   20.4929   -5.4960  -15.1447 C   0  0  0  0  0  0  0  0  0  0  0  0
   21.9070   -5.9371  -14.8217 C   0  0  2  0  0  0  0  0  0  0  0  0
   22.0375   -7.3651  -14.7943 N   0  0  0  0  0  0  0  0  0  0  0  0
   22.2852   -5.3180  -13.5303 C   0  0  0  0  0  0  0  0  0  0  0  0
   22.2355   -6.1531  -12.4001 O   0  0  0  0  0  0  0  0  0  0  0  0
   22.6327   -4.1370  -13.3995 O   0  0  0  0  0  0  0  0  0  0  0  0
  2  3  1  0
  2  1  1  1
  4 11  1  0
  4  2  1  0
  5  4  2  0
  7  8  1  0
  7  6  1  0
  8  9  1  0
 10  9  1  6
 10 11  1  0
 10 12  1  0
 12 17  1  0
 13 12  2  0
 15 14  1  0
 16 15  1  1
 16 18  1  0
 17 16  1  0
 18 19  1  0
 20 18  2  0
M  END
$$$$
