AMS.pdb
     RDKit          3D

 20 19  0  0  1  0  0  0  0  0999 V2000
   27.7407  -18.8179  -15.8839 C   0  0  0  0  0  0  0  0  0  0  0  0
   28.2004  -20.0751  -15.1423 C   0  0  2  0  0  0  0  0  0  0  0  0
   28.7654  -21.0320  -16.0736 N   0  0  0  0  0  0  0  0  0  0  0  0
   27.0663  -20.7064  -14.4283 C   0  0  0  0  0  0  0  0  0  0  0  0
   26.4154  -21.6406  -14.9566 O   0  0  0  0  0  0  0  0  0  0  0  0
   26.5453  -19.9767   -8.0975 C   0  0  0  0  0  0  0  0  0  0  0  0
   24.9919  -20.8865   -8.3485 S   0  0  0  0  0  0  0  0  0  0  0  0
   24.8415  -21.3327  -10.0858 C   0  0  0  0  0  0  0  0  0  0  0  0
   25.8222  -20.5420  -10.9060 C   0  0  0  0  0  0  0  0  0  0  0  0
   25.6850  -20.9289  -12.3525 C   0  0  2  0  0  0  0  0  0  0  0  0
   26.7007  -20.2662  -13.1423 N   0  0  0  0  0  0  0  0  0  0  0  0
   24.3188  -20.5511  -12.8499 C   0  0  0  0  0  0  0  0  0  0  0  0
   24.0414  -19.3373  -13.0334 O   0  0  0  0  0  0  0  0  0  0  0  0
   22.3343  -22.5531  -15.4926 O   0  0  0  0  0  0  0  0  0  0  0  0
   21.4110  -22.1526  -14.5031 C   0  0  0  0  0  0  0  0  0  0  0  0
   22.0465  -21.0962  -13.6207 C   0  0  2  0  0  0  0  0  0  0  0  0
   23.3276  -21.5047  -13.1216 N   0  0  0  0  0  0  0  0  0  0  0  0
   21.0936  -20.7929  -12.5281 C   0  0  0  0  0  0  0  0  0  0  0  0
   19.8618  -20.2342  -12.9121 O   0  0  0  0  0  0  0  0  0  0  0  0
   21.3202  -21.0006  -11.3287 O   0  0  0  0  0  0  0  0  0  0  0  0
  2  3  1  0
  2  1  1  6
  4 11  1  0
  4  2  1  0
  5  4  2  0
  7  8  1  0
  7  6  1  0
  8  9  1  0
 10  9  1  1
 10 11  1  0
 10 12  1  0
 12 17  1  0
 13 12  2  0
 15 14  1  0
 16 15  1  6
 16 18  1  0
 17 16  1  0
 18 19  1  0
 20 18  2  0
M  END
$$$$
