AMS.pdb
     RDKit          3D

 20 19  0  0  1  0  0  0  0  0999 V2000
   28.6810  -18.6305  -16.2141 C   0  0  0  0  0  0  0  0  0  0  0  0
   27.1765  -18.4435  -16.0057 C   0  0  2  0  0  0  0  0  0  0  0  0
   26.9032  -17.1318  -15.4515 N   0  0  0  0  0  0  0  0  0  0  0  0
   26.6420  -19.4771  -15.0891 C   0  0  0  0  0  0  0  0  0  0  0  0
   26.6555  -20.6901  -15.4117 O   0  0  0  0  0  0  0  0  0  0  0  0
   24.8683  -21.3536   -7.7063 C   0  0  0  0  0  0  0  0  0  0  0  0
   25.6795  -20.1922   -8.8453 S   0  0  0  0  0  0  0  0  0  0  0  0
   25.3228  -20.6797  -10.5408 C   0  0  0  0  0  0  0  0  0  0  0  0
   25.9426  -19.7004  -11.4981 C   0  0  0  0  0  0  0  0  0  0  0  0
   25.5786  -20.0841  -12.9056 C   0  0  2  0  0  0  0  0  0  0  0  0
   26.1092  -19.1129  -13.8382 N   0  0  0  0  0  0  0  0  0  0  0  0
   24.0842  -20.1617  -13.0384 C   0  0  0  0  0  0  0  0  0  0  0  0
   23.4068  -19.1010  -13.0285 O   0  0  0  0  0  0  0  0  0  0  0  0
   20.1095  -22.6751  -14.1342 O   0  0  0  0  0  0  0  0  0  0  0  0
   21.4972  -22.7437  -13.8862 C   0  0  0  0  0  0  0  0  0  0  0  0
   21.9856  -21.3982  -13.3866 C   0  0  2  0  0  0  0  0  0  0  0  0
   23.4040  -21.3800  -13.1745 N   0  0  0  0  0  0  0  0  0  0  0  0
   21.2332  -21.0792  -12.1513 C   0  0  0  0  0  0  0  0  0  0  0  0
   19.8791  -20.7383  -12.3162 O   0  0  0  0  0  0  0  0  0  0  0  0
   21.7221  -21.0971  -11.0140 O   0  0  0  0  0  0  0  0  0  0  0  0
  2  3  1  0
  2  1  1  1
  4 11  1  0
  4  2  1  0
  5  4  2  0
  7  8  1  0
  7  6  1  0
  8  9  1  0
 10  9  1  1
 10 11  1  0
 10 12  1  0
 12 17  1  0
 13 12  2  0
 15 14  1  0
 16 15  1  1
 16 18  1  0
 17 16  1  0
 18 19  1  0
 20 18  2  0
M  END
$$$$
