AMS.pdb
     RDKit          3D

 20 19  0  0  1  0  0  0  0  0999 V2000
   19.8246  -10.0253  -19.9084 C   0  0  0  0  0  0  0  0  0  0  0  0
   19.4716  -10.7732  -18.6209 C   0  0  2  0  0  0  0  0  0  0  0  0
   18.3805  -11.6984  -18.8578 N   0  0  0  0  0  0  0  0  0  0  0  0
   19.0779   -9.8237  -17.5543 C   0  0  0  0  0  0  0  0  0  0  0  0
   18.1356   -9.0136  -17.7319 O   0  0  0  0  0  0  0  0  0  0  0  0
   16.5169   -9.2155  -10.7910 C   0  0  0  0  0  0  0  0  0  0  0  0
   18.0737   -9.7221  -11.5808 S   0  0  0  0  0  0  0  0  0  0  0  0
   18.1701   -8.9899  -13.2222 C   0  0  0  0  0  0  0  0  0  0  0  0
   19.3718   -9.5217  -13.9521 C   0  0  0  0  0  0  0  0  0  0  0  0
   19.4826   -8.8405  -15.2880 C   0  0  2  0  0  0  0  0  0  0  0  0
   19.7571   -9.8157  -16.3215 N   0  0  0  0  0  0  0  0  0  0  0  0
   20.5799   -7.8154  -15.2436 C   0  0  0  0  0  0  0  0  0  0  0  0
   21.7753   -8.1828  -15.3845 O   0  0  0  0  0  0  0  0  0  0  0  0
   22.1334   -3.3540  -15.8240 O   0  0  0  0  0  0  0  0  0  0  0  0
   21.0507   -4.2583  -15.8691 C   0  0  0  0  0  0  0  0  0  0  0  0
   21.4015   -5.5021  -15.0762 C   0  0  2  0  0  0  0  0  0  0  0  0
   20.3257   -6.4503  -15.0497 N   0  0  0  0  0  0  0  0  0  0  0  0
   21.7966   -5.0693  -13.7159 C   0  0  0  0  0  0  0  0  0  0  0  0
   20.8129   -5.1766  -12.7170 O   0  0  0  0  0  0  0  0  0  0  0  0
   22.9166   -4.6306  -13.4226 O   0  0  0  0  0  0  0  0  0  0  0  0
  2  3  1  0
  2  1  1  6
  4 11  1  0
  4  2  1  0
  5  4  2  0
  7  8  1  0
  7  6  1  0
  8  9  1  0
 10  9  1  1
 10 11  1  0
 10 12  1  0
 12 17  1  0
 13 12  2  0
 15 14  1  0
 16 15  1  6
 16 18  1  0
 17 16  1  0
 18 19  1  0
 20 18  2  0
M  END
$$$$
