AMS.pdb
     RDKit          3D

 20 19  0  0  1  0  0  0  0  0999 V2000
   19.1822  -10.3122  -18.8241 C   0  0  0  0  0  0  0  0  0  0  0  0
   20.4441  -11.0064  -18.3068 C   0  0  2  0  0  0  0  0  0  0  0  0
   20.1840  -12.4125  -18.0666 N   0  0  0  0  0  0  0  0  0  0  0  0
   20.9090  -10.3785  -17.0482 C   0  0  0  0  0  0  0  0  0  0  0  0
   20.2370  -10.4816  -15.9931 O   0  0  0  0  0  0  0  0  0  0  0  0
   26.6273  -12.4097  -14.8484 C   0  0  0  0  0  0  0  0  0  0  0  0
   26.2202  -10.7099  -15.3473 S   0  0  0  0  0  0  0  0  0  0  0  0
   24.4322  -10.5030  -15.3397 C   0  0  0  0  0  0  0  0  0  0  0  0
   24.0767   -9.0923  -15.7181 C   0  0  0  0  0  0  0  0  0  0  0  0
   22.5822   -8.9702  -15.8301 C   0  0  2  0  0  0  0  0  0  0  0  0
   22.1156   -9.6543  -17.0170 N   0  0  0  0  0  0  0  0  0  0  0  0
   22.1960   -7.5196  -15.8871 C   0  0  0  0  0  0  0  0  0  0  0  0
   22.4245   -6.8597  -16.9341 O   0  0  0  0  0  0  0  0  0  0  0  0
   18.9301   -5.9226  -15.0993 O   0  0  0  0  0  0  0  0  0  0  0  0
   19.8758   -5.1594  -14.3815 C   0  0  0  0  0  0  0  0  0  0  0  0
   21.2670   -5.4660  -14.9002 C   0  0  2  0  0  0  0  0  0  0  0  0
   21.5845   -6.8617  -14.8106 N   0  0  0  0  0  0  0  0  0  0  0  0
   22.2229   -4.6271  -14.1410 C   0  0  0  0  0  0  0  0  0  0  0  0
   22.0674   -3.2353  -14.2664 O   0  0  0  0  0  0  0  0  0  0  0  0
   23.1256   -5.0763  -13.4226 O   0  0  0  0  0  0  0  0  0  0  0  0
  2  3  1  0
  2  1  1  1
  4 11  1  0
  4  2  1  0
  5  4  2  0
  7  8  1  0
  7  6  1  0
  8  9  1  0
 10  9  1  6
 10 11  1  0
 10 12  1  0
 12 17  1  0
 13 12  2  0
 15 14  1  0
 16 15  1  1
 16 18  1  0
 17 16  1  0
 18 19  1  0
 20 18  2  0
M  END
$$$$
