AMS.pdb
     RDKit          3D

 20 19  0  0  1  0  0  0  0  0999 V2000
   18.3602  -14.4276  -18.1569 C   0  0  0  0  0  0  0  0  0  0  0  0
   19.8841  -14.5482  -18.0867 C   0  0  2  0  0  0  0  0  0  0  0  0
   20.2694  -15.9172  -17.8040 N   0  0  0  0  0  0  0  0  0  0  0  0
   20.4318  -13.6638  -17.0322 C   0  0  0  0  0  0  0  0  0  0  0  0
   20.0203  -13.7446  -15.8491 O   0  0  0  0  0  0  0  0  0  0  0  0
   26.5979  -14.3220  -14.8814 C   0  0  0  0  0  0  0  0  0  0  0  0
   25.8875  -13.0355  -15.9512 S   0  0  0  0  0  0  0  0  0  0  0  0
   24.1133  -12.9400  -15.6637 C   0  0  0  0  0  0  0  0  0  0  0  0
   23.5160  -11.8416  -16.4983 C   0  0  0  0  0  0  0  0  0  0  0  0
   22.0207  -11.8567  -16.3418 C   0  0  2  0  0  0  0  0  0  0  0  0
   21.4253  -12.7162  -17.3425 N   0  0  0  0  0  0  0  0  0  0  0  0
   21.4837  -10.4603  -16.4778 C   0  0  0  0  0  0  0  0  0  0  0  0
   21.3286   -9.9665  -17.6250 O   0  0  0  0  0  0  0  0  0  0  0  0
   19.1581   -6.6606  -14.7116 O   0  0  0  0  0  0  0  0  0  0  0  0
   19.6298   -7.9691  -14.4722 C   0  0  0  0  0  0  0  0  0  0  0  0
   20.6269   -8.3489  -15.5493 C   0  0  2  0  0  0  0  0  0  0  0  0
   21.1438   -9.6743  -15.3677 N   0  0  0  0  0  0  0  0  0  0  0  0
   21.6993   -7.3272  -15.5471 C   0  0  0  0  0  0  0  0  0  0  0  0
   21.3289   -6.0334  -15.9545 O   0  0  0  0  0  0  0  0  0  0  0  0
   22.8711   -7.5483  -15.2144 O   0  0  0  0  0  0  0  0  0  0  0  0
  2  3  1  0
  2  1  1  1
  4 11  1  0
  4  2  1  0
  5  4  2  0
  7  8  1  0
  7  6  1  0
  8  9  1  0
 10  9  1  6
 10 11  1  0
 10 12  1  0
 12 17  1  0
 13 12  2  0
 15 14  1  0
 16 15  1  1
 16 18  1  0
 17 16  1  0
 18 19  1  0
 20 18  2  0
M  END
$$$$
