AMS.pdb
     RDKit          3D

 20 19  0  0  1  0  0  0  0  0999 V2000
   16.3833  -10.0953  -16.0514 C   0  0  0  0  0  0  0  0  0  0  0  0
   17.5488  -11.0793  -15.9277 C   0  0  2  0  0  0  0  0  0  0  0  0
   17.1709  -12.2072  -15.0985 N   0  0  0  0  0  0  0  0  0  0  0  0
   18.7329  -10.4170  -15.3332 C   0  0  0  0  0  0  0  0  0  0  0  0
   18.6743   -9.9032  -14.1894 O   0  0  0  0  0  0  0  0  0  0  0  0
   26.4488  -10.2400  -14.6687 C   0  0  0  0  0  0  0  0  0  0  0  0
   25.0028  -10.9876  -15.4774 S   0  0  0  0  0  0  0  0  0  0  0  0
   23.5453   -9.9936  -15.1204 C   0  0  0  0  0  0  0  0  0  0  0  0
   22.3370  -10.5986  -15.7789 C   0  0  0  0  0  0  0  0  0  0  0  0
   21.1365   -9.7373  -15.5002 C   0  0  2  0  0  0  0  0  0  0  0  0
   19.9457  -10.3538  -16.0449 N   0  0  0  0  0  0  0  0  0  0  0  0
   21.3365   -8.3785  -16.1089 C   0  0  0  0  0  0  0  0  0  0  0  0
   21.4269   -8.2684  -17.3593 O   0  0  0  0  0  0  0  0  0  0  0  0
   19.7167   -5.0930  -14.7781 O   0  0  0  0  0  0  0  0  0  0  0  0
   20.3199   -5.1505  -16.0529 C   0  0  0  0  0  0  0  0  0  0  0  0
   21.6123   -5.9379  -15.9622 C   0  0  2  0  0  0  0  0  0  0  0  0
   21.4279   -7.2138  -15.3338 N   0  0  0  0  0  0  0  0  0  0  0  0
   22.5980   -5.0991  -15.2419 C   0  0  0  0  0  0  0  0  0  0  0  0
   22.9977   -3.9147  -15.8857 O   0  0  0  0  0  0  0  0  0  0  0  0
   23.0738   -5.3800  -14.1340 O   0  0  0  0  0  0  0  0  0  0  0  0
  2  3  1  0
  2  1  1  1
  4 11  1  0
  4  2  1  0
  5  4  2  0
  7  8  1  0
  7  6  1  0
  8  9  1  0
 10  9  1  6
 10 11  1  0
 10 12  1  0
 12 17  1  0
 13 12  2  0
 15 14  1  0
 16 15  1  1
 16 18  1  0
 17 16  1  0
 18 19  1  0
 20 18  2  0
M  END
$$$$
