AMS.pdb
     RDKit          3D

 20 19  0  0  1  0  0  0  0  0999 V2000
   14.2851  -20.3098    3.3810 C   0  0  0  0  0  0  0  0  0  0  0  0
   15.1338  -19.5103    2.3899 C   0  0  2  0  0  0  0  0  0  0  0  0
   15.7032  -20.3907    1.3883 N   0  0  0  0  0  0  0  0  0  0  0  0
   16.2298  -18.8019    3.0907 C   0  0  0  0  0  0  0  0  0  0  0  0
   17.3942  -19.2705    3.1002 O   0  0  0  0  0  0  0  0  0  0  0  0
   19.4722  -12.0587    4.9453 C   0  0  0  0  0  0  0  0  0  0  0  0
   18.0493  -12.9178    4.2096 S   0  0  0  0  0  0  0  0  0  0  0  0
   18.0904  -14.6514    4.6921 C   0  0  0  0  0  0  0  0  0  0  0  0
   16.9651  -15.3959    4.0295 C   0  0  0  0  0  0  0  0  0  0  0  0
   17.0220  -16.8432    4.4334 C   0  0  2  0  0  0  0  0  0  0  0  0
   15.9806  -17.5882    3.7588 N   0  0  0  0  0  0  0  0  0  0  0  0
   16.8562  -16.9599    5.9219 C   0  0  0  0  0  0  0  0  0  0  0  0
   15.7118  -16.8285    6.4287 O   0  0  0  0  0  0  0  0  0  0  0  0
   18.5880  -19.5166    8.3158 O   0  0  0  0  0  0  0  0  0  0  0  0
   18.7160  -18.2250    8.8703 C   0  0  0  0  0  0  0  0  0  0  0  0
   17.7303  -17.2895    8.1982 C   0  0  2  0  0  0  0  0  0  0  0  0
   17.9352  -17.2120    6.7808 N   0  0  0  0  0  0  0  0  0  0  0  0
   17.8518  -15.9660    8.8520 C   0  0  0  0  0  0  0  0  0  0  0  0
   17.3371  -15.8653   10.1566 O   0  0  0  0  0  0  0  0  0  0  0  0
   18.3687  -14.9729    8.3234 O   0  0  0  0  0  0  0  0  0  0  0  0
  2  3  1  0
  2  1  1  1
  4 11  1  0
  4  2  1  0
  5  4  2  0
  7  8  1  0
  7  6  1  0
  8  9  1  0
 10  9  1  6
 10 11  1  0
 10 12  1  0
 12 17  1  0
 13 12  2  0
 15 14  1  0
 16 15  1  1
 16 18  1  0
 17 16  1  0
 18 19  1  0
 20 18  2  0
M  END
$$$$
