AMS.pdb
     RDKit          3D

 20 19  0  0  1  0  0  0  0  0999 V2000
   19.5582  -12.2959  -20.0885 C   0  0  0  0  0  0  0  0  0  0  0  0
   20.9642  -12.7416  -19.6808 C   0  0  2  0  0  0  0  0  0  0  0  0
   20.9888  -14.1702  -19.4338 N   0  0  0  0  0  0  0  0  0  0  0  0
   21.4052  -12.0313  -18.4580 C   0  0  0  0  0  0  0  0  0  0  0  0
   20.8876  -12.2895  -17.3439 O   0  0  0  0  0  0  0  0  0  0  0  0
   26.8699  -11.1932  -14.9265 C   0  0  0  0  0  0  0  0  0  0  0  0
   26.5252   -9.6431  -15.8108 S   0  0  0  0  0  0  0  0  0  0  0  0
   24.7502   -9.4900  -16.0671 C   0  0  0  0  0  0  0  0  0  0  0  0
   24.3346  -10.2866  -17.2722 C   0  0  0  0  0  0  0  0  0  0  0  0
   22.8345  -10.2845  -17.3752 C   0  0  2  0  0  0  0  0  0  0  0  0
   22.4148  -11.0530  -18.5275 N   0  0  0  0  0  0  0  0  0  0  0  0
   22.3373   -8.8716  -17.4904 C   0  0  0  0  0  0  0  0  0  0  0  0
   22.6163   -8.1998  -18.5174 O   0  0  0  0  0  0  0  0  0  0  0  0
   19.1087   -7.5751  -15.3747 O   0  0  0  0  0  0  0  0  0  0  0  0
   19.4850   -6.9744  -16.5952 C   0  0  0  0  0  0  0  0  0  0  0  0
   20.9971   -6.9634  -16.7049 C   0  0  2  0  0  0  0  0  0  0  0  0
   21.5664   -8.2622  -16.4904 N   0  0  0  0  0  0  0  0  0  0  0  0
   21.5089   -5.9641  -15.7388 C   0  0  0  0  0  0  0  0  0  0  0  0
   21.1096   -4.6323  -15.9486 O   0  0  0  0  0  0  0  0  0  0  0  0
   22.2489   -6.2343  -14.7837 O   0  0  0  0  0  0  0  0  0  0  0  0
  2  3  1  0
  2  1  1  1
  4 11  1  0
  4  2  1  0
  5  4  2  0
  7  8  1  0
  7  6  1  0
  8  9  1  0
 10  9  1  6
 10 11  1  0
 10 12  1  0
 12 17  1  0
 13 12  2  0
 15 14  1  0
 16 15  1  1
 16 18  1  0
 17 16  1  0
 18 19  1  0
 20 18  2  0
M  END
$$$$
