AMS.pdb
     RDKit          3D

 20 19  0  0  1  0  0  0  0  0999 V2000
   18.6673  -11.8670  -18.5003 C   0  0  0  0  0  0  0  0  0  0  0  0
   19.4040  -10.5399  -18.6952 C   0  0  2  0  0  0  0  0  0  0  0  0
   20.5652  -10.7273  -19.5432 N   0  0  0  0  0  0  0  0  0  0  0  0
   19.8406   -9.9867  -17.3922 C   0  0  0  0  0  0  0  0  0  0  0  0
   19.0169   -9.8094  -16.4618 O   0  0  0  0  0  0  0  0  0  0  0  0
   24.0902  -13.9109  -14.7935 C   0  0  0  0  0  0  0  0  0  0  0  0
   24.3755  -12.1424  -15.1015 S   0  0  0  0  0  0  0  0  0  0  0  0
   22.7937  -11.3246  -15.3639 C   0  0  0  0  0  0  0  0  0  0  0  0
   23.0073   -9.8546  -15.5945 C   0  0  0  0  0  0  0  0  0  0  0  0
   21.6862   -9.2021  -15.8939 C   0  0  2  0  0  0  0  0  0  0  0  0
   21.1905   -9.6506  -17.1776 N   0  0  0  0  0  0  0  0  0  0  0  0
   21.8491   -7.7087  -15.8987 C   0  0  0  0  0  0  0  0  0  0  0  0
   22.6066   -7.1721  -16.7485 O   0  0  0  0  0  0  0  0  0  0  0  0
   19.2209   -5.1607  -14.0492 O   0  0  0  0  0  0  0  0  0  0  0  0
   20.0725   -4.6965  -15.0745 C   0  0  0  0  0  0  0  0  0  0  0  0
   21.3829   -5.4573  -15.0223 C   0  0  2  0  0  0  0  0  0  0  0  0
   21.1852   -6.8774  -14.9857 N   0  0  0  0  0  0  0  0  0  0  0  0
   22.1376   -4.9691  -13.8450 C   0  0  0  0  0  0  0  0  0  0  0  0
   22.5581   -3.6280  -13.8860 O   0  0  0  0  0  0  0  0  0  0  0  0
   22.4088   -5.6620  -12.8555 O   0  0  0  0  0  0  0  0  0  0  0  0
  2  3  1  0
  2  1  1  1
  4 11  1  0
  4  2  1  0
  5  4  2  0
  7  8  1  0
  7  6  1  0
  8  9  1  0
 10  9  1  6
 10 11  1  0
 10 12  1  0
 12 17  1  0
 13 12  2  0
 15 14  1  0
 16 15  1  1
 16 18  1  0
 17 16  1  0
 18 19  1  0
 20 18  2  0
M  END
$$$$
