AMS.pdb
     RDKit          3D

 20 19  0  0  1  0  0  0  0  0999 V2000
   17.7076  -12.3158    5.3593 C   0  0  0  0  0  0  0  0  0  0  0  0
   18.9297  -11.4744    5.7340 C   0  0  2  0  0  0  0  0  0  0  0  0
   19.4710  -10.8197    4.5588 N   0  0  0  0  0  0  0  0  0  0  0  0
   19.9815  -12.3206    6.3440 C   0  0  0  0  0  0  0  0  0  0  0  0
   20.9549  -12.7256    5.6628 O   0  0  0  0  0  0  0  0  0  0  0  0
   24.4757  -11.7261   11.2894 C   0  0  0  0  0  0  0  0  0  0  0  0
   23.0186  -12.7045   11.7625 S   0  0  0  0  0  0  0  0  0  0  0  0
   22.4074  -13.5913   10.3204 C   0  0  0  0  0  0  0  0  0  0  0  0
   21.2821  -12.8240    9.6844 C   0  0  0  0  0  0  0  0  0  0  0  0
   20.9389  -13.4515    8.3617 C   0  0  2  0  0  0  0  0  0  0  0  0
   19.9044  -12.6843    7.7016 N   0  0  0  0  0  0  0  0  0  0  0  0
   20.4739  -14.8636    8.5772 C   0  0  0  0  0  0  0  0  0  0  0  0
   19.2647  -15.0814    8.8501 O   0  0  0  0  0  0  0  0  0  0  0  0
   21.0445  -19.5695    7.9325 O   0  0  0  0  0  0  0  0  0  0  0  0
   21.7035  -18.3215    7.9347 C   0  0  0  0  0  0  0  0  0  0  0  0
   20.8364  -17.2965    8.6390 C   0  0  2  0  0  0  0  0  0  0  0  0
   21.3399  -15.9623    8.4861 N   0  0  0  0  0  0  0  0  0  0  0  0
   20.7379  -17.6953   10.0621 C   0  0  0  0  0  0  0  0  0  0  0  0
   19.5283  -18.2914   10.4605 O   0  0  0  0  0  0  0  0  0  0  0  0
   21.6405  -17.5351   10.8943 O   0  0  0  0  0  0  0  0  0  0  0  0
  2  3  1  0
  2  1  1  6
  4 11  1  0
  4  2  1  0
  5  4  2  0
  7  8  1  0
  7  6  1  0
  8  9  1  0
 10  9  1  1
 10 11  1  0
 10 12  1  0
 12 17  1  0
 13 12  2  0
 15 14  1  0
 16 15  1  6
 16 18  1  0
 17 16  1  0
 18 19  1  0
 20 18  2  0
M  END
$$$$
