WIP.pdb
     RDKit          3D

 30 32  0  0  1  0  0  0  0  0999 V2000
   26.4043  -19.7348  -11.2535 N   0  0  0  0  0  0  0  0  0  0  0  0
   25.9441  -20.0921   -9.9487 C   0  0  1  0  0  0  0  0  0  0  0  0
   25.2281  -21.4236   -9.9424 C   0  0  0  0  0  0  0  0  0  0  0  0
   23.9913  -21.3048  -10.7533 C   0  0  0  0  0  0  0  0  0  0  0  0
   23.7162  -21.9114  -11.9597 C   0  0  0  0  0  0  0  0  0  0  0  0
   22.4835  -21.5547  -12.3834 N   0  0  0  0  0  0  0  0  0  0  0  0
   21.9515  -20.7234  -11.4687 C   0  0  0  0  0  0  0  0  0  0  0  0
   20.7260  -20.0889  -11.4364 C   0  0  0  0  0  0  0  0  0  0  0  0
   20.3819  -19.2678  -10.3855 C   0  0  0  0  0  0  0  0  0  0  0  0
   21.3114  -19.1124   -9.3783 C   0  0  0  0  0  0  0  0  0  0  0  0
   22.5428  -19.7340   -9.3849 C   0  0  0  0  0  0  0  0  0  0  0  0
   22.8689  -20.5474  -10.4379 C   0  0  0  0  0  0  0  0  0  0  0  0
   27.0741  -20.0889   -8.9651 C   0  0  0  0  0  0  0  0  0  0  0  0
   28.1675  -20.5926   -9.3312 O   0  0  0  0  0  0  0  0  0  0  0  0
   27.5343  -15.8056   -5.7389 C   0  0  0  0  0  0  0  0  0  0  0  0
   27.9395  -16.9766   -6.5841 C   0  0  0  0  0  0  0  0  0  0  0  0
   27.6318  -18.2612   -5.8399 C   0  0  2  0  0  0  0  0  0  0  0  0
   28.2893  -18.1472   -4.5082 C   0  0  0  0  0  0  0  0  0  0  0  0
   28.0090  -19.4017   -6.7037 C   0  0  2  0  0  0  0  0  0  0  0  0
   26.8990  -19.5345   -7.6744 N   0  0  0  0  0  0  0  0  0  0  0  0
   28.3130  -20.6777   -6.0735 C   0  0  0  0  0  0  0  0  0  0  0  0
   27.2747  -21.4381   -5.8965 O   0  0  0  0  0  0  0  0  0  0  0  0
   29.5074  -21.2225   -5.6345 N   0  0  0  0  0  0  0  0  0  0  0  0
   30.8402  -20.7045   -5.7714 C   0  0  0  0  0  0  0  0  0  0  0  0
   31.7738  -21.8907   -5.9570 C   0  0  0  0  0  0  0  0  0  0  0  0
   31.0645  -22.9778   -5.2147 C   0  0  0  0  0  0  0  0  0  0  0  0
   29.6732  -22.5017   -4.9574 C   0  0  1  0  0  0  0  0  0  0  0  0
   29.4509  -22.3467   -3.4812 C   0  0  0  0  0  0  0  0  0  0  0  0
   29.3376  -21.2374   -2.9360 O   0  0  0  0  0  0  0  0  0  0  0  0
   29.3727  -23.4847   -2.7230 O   0  0  0  0  0  0  0  0  0  0  0  0
  2  1  1  6
  2 13  1  0
  3  4  1  0
  3  2  1  0
  4  5  2  0
  5  6  1  0
  7  6  1  0
  8  7  2  0
  9  8  1  0
 10 11  1  0
 10  9  2  0
 11 12  2  0
 12  4  1  0
 12  7  1  0
 13 20  1  0
 13 14  2  0
 16 17  1  0
 16 15  1  0
 17 18  1  1
 19 17  1  0
 19 21  1  0
 19 20  1  6
 21 22  2  0
 23 27  1  0
 23 21  1  0
 24 23  1  0
 25 24  1  0
 25 26  1  0
 26 27  1  0
 27 28  1  1
 28 29  2  0
 28 30  1  0
M  END
$$$$
