WIP.pdb
     RDKit          3D

 30 32  0  0  1  0  0  0  0  0999 V2000
   21.4608  -20.7317  -16.8668 N   0  0  0  0  0  0  0  0  0  0  0  0
   21.9549  -19.7882  -15.9143 C   0  0  1  0  0  0  0  0  0  0  0  0
   20.9218  -19.4430  -14.8661 C   0  0  0  0  0  0  0  0  0  0  0  0
   19.8213  -18.6854  -15.5111 C   0  0  0  0  0  0  0  0  0  0  0  0
   18.4852  -19.0198  -15.5569 C   0  0  0  0  0  0  0  0  0  0  0  0
   17.7977  -18.0761  -16.2374 N   0  0  0  0  0  0  0  0  0  0  0  0
   18.6685  -17.1308  -16.6359 C   0  0  0  0  0  0  0  0  0  0  0  0
   18.4675  -15.9702  -17.3558 C   0  0  0  0  0  0  0  0  0  0  0  0
   19.5192  -15.1336  -17.6574 C   0  0  0  0  0  0  0  0  0  0  0  0
   20.7691  -15.5081  -17.2098 C   0  0  0  0  0  0  0  0  0  0  0  0
   20.9985  -16.6615  -16.4890 C   0  0  0  0  0  0  0  0  0  0  0  0
   19.9411  -17.4824  -16.1977 C   0  0  0  0  0  0  0  0  0  0  0  0
   23.2168  -20.2844  -15.2772 C   0  0  0  0  0  0  0  0  0  0  0  0
   23.2841  -21.5080  -14.9919 O   0  0  0  0  0  0  0  0  0  0  0  0
   27.7674  -18.4653  -17.0024 C   0  0  0  0  0  0  0  0  0  0  0  0
   26.6896  -19.3035  -16.3815 C   0  0  0  0  0  0  0  0  0  0  0  0
   26.5963  -18.9832  -14.9025 C   0  0  2  0  0  0  0  0  0  0  0  0
   27.9716  -19.1298  -14.3496 C   0  0  0  0  0  0  0  0  0  0  0  0
   25.5207  -19.8113  -14.3136 C   0  0  2  0  0  0  0  0  0  0  0  0
   24.2847  -19.3933  -15.0133 N   0  0  0  0  0  0  0  0  0  0  0  0
   25.3413  -19.7899  -12.8696 C   0  0  0  0  0  0  0  0  0  0  0  0
   24.6901  -18.7531  -12.4353 O   0  0  0  0  0  0  0  0  0  0  0  0
   25.7374  -20.6761  -11.8828 N   0  0  0  0  0  0  0  0  0  0  0  0
   26.4876  -21.8944  -12.0117 C   0  0  0  0  0  0  0  0  0  0  0  0
   25.9569  -22.8691  -10.9718 C   0  0  0  0  0  0  0  0  0  0  0  0
   25.4800  -21.9557   -9.8882 C   0  0  0  0  0  0  0  0  0  0  0  0
   25.4270  -20.5789  -10.4627 C   0  0  1  0  0  0  0  0  0  0  0  0
   26.4222  -19.6963   -9.7674 C   0  0  0  0  0  0  0  0  0  0  0  0
   27.4924  -19.3528  -10.2941 O   0  0  0  0  0  0  0  0  0  0  0  0
   26.1201  -19.2633   -8.5036 O   0  0  0  0  0  0  0  0  0  0  0  0
  2  1  1  6
  2 13  1  0
  3  4  1  0
  3  2  1  0
  4  5  2  0
  5  6  1  0
  7  6  1  0
  8  7  2  0
  9  8  1  0
 10 11  1  0
 10  9  2  0
 11 12  2  0
 12  4  1  0
 12  7  1  0
 13 20  1  0
 13 14  2  0
 16 17  1  0
 16 15  1  0
 17 18  1  1
 19 17  1  0
 19 21  1  0
 19 20  1  6
 21 22  2  0
 23 27  1  0
 23 21  1  0
 24 23  1  0
 25 24  1  0
 25 26  1  0
 26 27  1  0
 27 28  1  1
 28 29  2  0
 28 30  1  0
M  END
$$$$
