WIP.pdb
     RDKit          3D

 30 32  0  0  1  0  0  0  0  0999 V2000
   26.6070  -20.4694  -11.7654 N   0  0  0  0  0  0  0  0  0  0  0  0
   26.0649  -20.5126  -10.4440 C   0  0  1  0  0  0  0  0  0  0  0  0
   25.0037  -21.5795  -10.2986 C   0  0  0  0  0  0  0  0  0  0  0  0
   23.8207  -21.1896  -11.1047 C   0  0  0  0  0  0  0  0  0  0  0  0
   23.4736  -21.6406  -12.3597 C   0  0  0  0  0  0  0  0  0  0  0  0
   22.3261  -21.0494  -12.7599 N   0  0  0  0  0  0  0  0  0  0  0  0
   21.9207  -20.2189  -11.7818 C   0  0  0  0  0  0  0  0  0  0  0  0
   20.8171  -19.3934  -11.7041 C   0  0  0  0  0  0  0  0  0  0  0  0
   20.5925  -18.6155  -10.5900 C   0  0  0  0  0  0  0  0  0  0  0  0
   21.5140  -18.7008   -9.5672 C   0  0  0  0  0  0  0  0  0  0  0  0
   22.6251  -19.5166   -9.6181 C   0  0  0  0  0  0  0  0  0  0  0  0
   22.8333  -20.2838  -10.7339 C   0  0  0  0  0  0  0  0  0  0  0  0
   27.1502  -20.6972   -9.4280 C   0  0  0  0  0  0  0  0  0  0  0  0
   27.9442  -21.6596   -9.5908 O   0  0  0  0  0  0  0  0  0  0  0  0
   29.9860  -17.3115   -5.2530 C   0  0  0  0  0  0  0  0  0  0  0  0
   29.6761  -18.6910   -5.7537 C   0  0  0  0  0  0  0  0  0  0  0  0
   28.6194  -18.6043   -6.8374 C   0  0  2  0  0  0  0  0  0  0  0  0
   27.5253  -17.7513   -6.2952 C   0  0  0  0  0  0  0  0  0  0  0  0
   28.2787  -19.9787   -7.2668 C   0  0  2  0  0  0  0  0  0  0  0  0
   27.2626  -19.8102   -8.3304 N   0  0  0  0  0  0  0  0  0  0  0  0
   27.8335  -20.9294   -6.2589 C   0  0  0  0  0  0  0  0  0  0  0  0
   26.5448  -21.0882   -6.2180 O   0  0  0  0  0  0  0  0  0  0  0  0
   28.5372  -21.6924   -5.3432 N   0  0  0  0  0  0  0  0  0  0  0  0
   29.9565  -21.7730   -5.1366 C   0  0  0  0  0  0  0  0  0  0  0  0
   30.2797  -23.2067   -4.7453 C   0  0  0  0  0  0  0  0  0  0  0  0
   29.0216  -23.6470   -4.0678 C   0  0  0  0  0  0  0  0  0  0  0  0
   27.9687  -22.6404   -4.3942 C   0  0  1  0  0  0  0  0  0  0  0  0
   27.5322  -21.9335   -3.1443 C   0  0  0  0  0  0  0  0  0  0  0  0
   27.8380  -20.7551   -2.9022 O   0  0  0  0  0  0  0  0  0  0  0  0
   26.7675  -22.6321   -2.2481 O   0  0  0  0  0  0  0  0  0  0  0  0
  2  1  1  6
  2 13  1  0
  3  4  1  0
  3  2  1  0
  4  5  2  0
  5  6  1  0
  7  6  1  0
  8  7  2  0
  9  8  1  0
 10 11  1  0
 10  9  2  0
 11 12  2  0
 12  4  1  0
 12  7  1  0
 13 20  1  0
 13 14  2  0
 16 17  1  0
 16 15  1  0
 17 18  1  1
 19 17  1  0
 19 21  1  0
 19 20  1  6
 21 22  2  0
 23 27  1  0
 23 21  1  0
 24 23  1  0
 25 24  1  0
 25 26  1  0
 26 27  1  0
 27 28  1  1
 28 29  2  0
 28 30  1  0
M  END
$$$$
