WIP.pdb
     RDKit          3D

 30 32  0  0  1  0  0  0  0  0999 V2000
   27.0500  -20.6334  -11.6852 N   0  0  0  0  0  0  0  0  0  0  0  0
   26.2467  -20.3874  -10.5294 C   0  0  1  0  0  0  0  0  0  0  0  0
   24.8952  -21.0584  -10.6220 C   0  0  0  0  0  0  0  0  0  0  0  0
   24.1443  -20.4659  -11.7562 C   0  0  0  0  0  0  0  0  0  0  0  0
   24.4690  -20.5128  -13.0947 C   0  0  0  0  0  0  0  0  0  0  0  0
   23.5363  -19.8543  -13.8177 N   0  0  0  0  0  0  0  0  0  0  0  0
   22.6078  -19.3787  -12.9677 C   0  0  0  0  0  0  0  0  0  0  0  0
   21.4632  -18.6448  -13.2063 C   0  0  0  0  0  0  0  0  0  0  0  0
   20.6425  -18.2571  -12.1704 C   0  0  0  0  0  0  0  0  0  0  0  0
   21.0163  -18.6338  -10.8972 C   0  0  0  0  0  0  0  0  0  0  0  0
   22.1539  -19.3666  -10.6300 C   0  0  0  0  0  0  0  0  0  0  0  0
   22.9591  -19.7440  -11.6722 C   0  0  0  0  0  0  0  0  0  0  0  0
   26.9649  -20.8034   -9.2822 C   0  0  0  0  0  0  0  0  0  0  0  0
   27.3482  -21.9991   -9.2010 O   0  0  0  0  0  0  0  0  0  0  0  0
   29.8784  -17.6256   -6.0733 C   0  0  0  0  0  0  0  0  0  0  0  0
   29.2638  -18.8121   -6.7548 C   0  0  0  0  0  0  0  0  0  0  0  0
   27.9060  -19.0935   -6.1415 C   0  0  2  0  0  0  0  0  0  0  0  0
   28.1144  -19.1723   -4.6688 C   0  0  0  0  0  0  0  0  0  0  0  0
   27.3221  -20.2700   -6.8228 C   0  0  2  0  0  0  0  0  0  0  0  0
   27.1950  -19.8703   -8.2427 N   0  0  0  0  0  0  0  0  0  0  0  0
   26.0719  -20.8152   -6.3153 C   0  0  0  0  0  0  0  0  0  0  0  0
   25.0151  -20.1849   -6.7320 O   0  0  0  0  0  0  0  0  0  0  0  0
   25.8113  -21.8828   -5.4738 N   0  0  0  0  0  0  0  0  0  0  0  0
   26.7367  -22.7868   -4.8493 C   0  0  0  0  0  0  0  0  0  0  0  0
   26.0718  -24.1535   -4.7931 C   0  0  0  0  0  0  0  0  0  0  0  0
   24.6205  -23.8024   -4.7127 C   0  0  0  0  0  0  0  0  0  0  0  0
   24.4955  -22.3576   -5.0668 C   0  0  1  0  0  0  0  0  0  0  0  0
   24.0014  -21.5815   -3.8809 C   0  0  0  0  0  0  0  0  0  0  0  0
   24.7288  -20.8060   -3.2405 O   0  0  0  0  0  0  0  0  0  0  0  0
   22.6947  -21.7488   -3.5062 O   0  0  0  0  0  0  0  0  0  0  0  0
  2  1  1  6
  2 13  1  0
  3  4  1  0
  3  2  1  0
  4  5  2  0
  5  6  1  0
  7  6  1  0
  8  7  2  0
  9  8  1  0
 10 11  1  0
 10  9  2  0
 11 12  2  0
 12  4  1  0
 12  7  1  0
 13 20  1  0
 13 14  2  0
 16 17  1  0
 16 15  1  0
 17 18  1  1
 19 17  1  0
 19 21  1  0
 19 20  1  6
 21 22  2  0
 23 27  1  0
 23 21  1  0
 24 23  1  0
 25 24  1  0
 25 26  1  0
 26 27  1  0
 27 28  1  1
 28 29  2  0
 28 30  1  0
M  END
$$$$
