WIP.pdb
     RDKit          3D

 30 32  0  0  1  0  0  0  0  0999 V2000
   26.3888  -21.6304  -12.0466 N   0  0  0  0  0  0  0  0  0  0  0  0
   26.1607  -20.5695  -11.1170 C   0  0  1  0  0  0  0  0  0  0  0  0
   24.7673  -19.9959  -11.2382 C   0  0  0  0  0  0  0  0  0  0  0  0
   24.5664  -19.5184  -12.6285 C   0  0  0  0  0  0  0  0  0  0  0  0
   23.5047  -19.7887  -13.4645 C   0  0  0  0  0  0  0  0  0  0  0  0
   23.6866  -19.1721  -14.6532 N   0  0  0  0  0  0  0  0  0  0  0  0
   24.8532  -18.5034  -14.6029 C   0  0  0  0  0  0  0  0  0  0  0  0
   25.4837  -17.7241  -15.5519 C   0  0  0  0  0  0  0  0  0  0  0  0
   26.6936  -17.1231  -15.2837 C   0  0  0  0  0  0  0  0  0  0  0  0
   27.2382  -17.3358  -14.0344 C   0  0  0  0  0  0  0  0  0  0  0  0
   26.6304  -18.1093  -13.0675 C   0  0  0  0  0  0  0  0  0  0  0  0
   25.4271  -18.6999  -13.3510 C   0  0  0  0  0  0  0  0  0  0  0  0
   26.4319  -21.0215   -9.7147 C   0  0  0  0  0  0  0  0  0  0  0  0
   26.2073  -22.2280   -9.4370 O   0  0  0  0  0  0  0  0  0  0  0  0
   29.6992  -20.3717   -5.1978 C   0  0  0  0  0  0  0  0  0  0  0  0
   28.3164  -19.8063   -5.3322 C   0  0  0  0  0  0  0  0  0  0  0  0
   28.0505  -19.4753   -6.7876 C   0  0  2  0  0  0  0  0  0  0  0  0
   27.6626  -18.0378   -6.8312 C   0  0  0  0  0  0  0  0  0  0  0  0
   27.0931  -20.4680   -7.3237 C   0  0  2  0  0  0  0  0  0  0  0  0
   26.9231  -20.1093   -8.7500 N   0  0  0  0  0  0  0  0  0  0  0  0
   25.8061  -20.6176   -6.6612 C   0  0  0  0  0  0  0  0  0  0  0  0
   24.9518  -19.6836   -6.9535 O   0  0  0  0  0  0  0  0  0  0  0  0
   25.3330  -21.5761   -5.7817 N   0  0  0  0  0  0  0  0  0  0  0  0
   26.0161  -22.7156   -5.2355 C   0  0  0  0  0  0  0  0  0  0  0  0
   24.9956  -23.8344   -5.0936 C   0  0  0  0  0  0  0  0  0  0  0  0
   23.7212  -23.0823   -4.8787 C   0  0  0  0  0  0  0  0  0  0  0  0
   23.9823  -21.6580   -5.2419 C   0  0  1  0  0  0  0  0  0  0  0  0
   23.8495  -20.7879   -4.0262 C   0  0  0  0  0  0  0  0  0  0  0  0
   24.8274  -20.2615   -3.4720 O   0  0  0  0  0  0  0  0  0  0  0  0
   22.5927  -20.5784   -3.5237 O   0  0  0  0  0  0  0  0  0  0  0  0
  2  1  1  6
  2 13  1  0
  3  4  1  0
  3  2  1  0
  4  5  2  0
  5  6  1  0
  7  6  1  0
  8  7  2  0
  9  8  1  0
 10 11  1  0
 10  9  2  0
 11 12  2  0
 12  4  1  0
 12  7  1  0
 13 20  1  0
 13 14  2  0
 16 17  1  0
 16 15  1  0
 17 18  1  1
 19 17  1  0
 19 21  1  0
 19 20  1  6
 21 22  2  0
 23 27  1  0
 23 21  1  0
 24 23  1  0
 25 24  1  0
 25 26  1  0
 26 27  1  0
 27 28  1  1
 28 29  2  0
 28 30  1  0
M  END
$$$$
