WIP.pdb
     RDKit          3D

 30 32  0  0  1  0  0  0  0  0999 V2000
   28.2299  -22.2262  -13.5698 N   0  0  0  0  0  0  0  0  0  0  0  0
   27.0325  -21.8276  -12.8997 C   0  0  1  0  0  0  0  0  0  0  0  0
   27.1609  -20.4591  -12.2703 C   0  0  0  0  0  0  0  0  0  0  0  0
   28.0309  -20.5637  -11.0730 C   0  0  0  0  0  0  0  0  0  0  0  0
   29.4057  -20.6520  -11.0387 C   0  0  0  0  0  0  0  0  0  0  0  0
   29.8297  -20.7327   -9.7581 N   0  0  0  0  0  0  0  0  0  0  0  0
   28.7489  -20.6981   -8.9572 C   0  0  0  0  0  0  0  0  0  0  0  0
   28.6482  -20.7496   -7.5814 C   0  0  0  0  0  0  0  0  0  0  0  0
   27.4204  -20.6982   -6.9595 C   0  0  0  0  0  0  0  0  0  0  0  0
   26.3089  -20.5938   -7.7696 C   0  0  0  0  0  0  0  0  0  0  0  0
   26.3803  -20.5404   -9.1461 C   0  0  0  0  0  0  0  0  0  0  0  0
   27.6096  -20.5928   -9.7484 C   0  0  0  0  0  0  0  0  0  0  0  0
   25.8585  -21.8798  -13.8289 C   0  0  0  0  0  0  0  0  0  0  0  0
   25.9325  -21.2234  -14.8999 O   0  0  0  0  0  0  0  0  0  0  0  0
   24.4877  -24.5770  -16.5783 C   0  0  0  0  0  0  0  0  0  0  0  0
   24.4722  -24.9619  -15.1287 C   0  0  0  0  0  0  0  0  0  0  0  0
   23.3087  -24.2750  -14.4409 C   0  0  2  0  0  0  0  0  0  0  0  0
   22.0727  -24.7514  -15.1222 C   0  0  0  0  0  0  0  0  0  0  0  0
   23.5724  -22.8192  -14.4220 C   0  0  2  0  0  0  0  0  0  0  0  0
   24.7153  -22.6459  -13.4969 N   0  0  0  0  0  0  0  0  0  0  0  0
   22.4790  -21.9211  -14.0823 C   0  0  0  0  0  0  0  0  0  0  0  0
   21.9991  -22.1037  -12.8889 O   0  0  0  0  0  0  0  0  0  0  0  0
   21.8653  -20.9099  -14.8012 N   0  0  0  0  0  0  0  0  0  0  0  0
   22.1713  -20.4250  -16.1183 C   0  0  0  0  0  0  0  0  0  0  0  0
   21.9104  -18.9266  -16.1247 C   0  0  0  0  0  0  0  0  0  0  0  0
   20.8305  -18.7835  -15.1004 C   0  0  0  0  0  0  0  0  0  0  0  0
   20.7712  -20.0662  -14.3390 C   0  0  1  0  0  0  0  0  0  0  0  0
   19.4518  -20.7411  -14.5766 C   0  0  0  0  0  0  0  0  0  0  0  0
   19.3206  -21.6925  -15.3629 O   0  0  0  0  0  0  0  0  0  0  0  0
   18.3621  -20.2750  -13.8901 O   0  0  0  0  0  0  0  0  0  0  0  0
  2  1  1  6
  2 13  1  0
  3  4  1  0
  3  2  1  0
  4  5  2  0
  5  6  1  0
  7  6  1  0
  8  7  2  0
  9  8  1  0
 10 11  1  0
 10  9  2  0
 11 12  2  0
 12  4  1  0
 12  7  1  0
 13 20  1  0
 13 14  2  0
 16 17  1  0
 16 15  1  0
 17 18  1  6
 19 17  1  0
 19 21  1  0
 19 20  1  1
 21 22  2  0
 23 27  1  0
 23 21  1  0
 24 23  1  0
 25 24  1  0
 25 26  1  0
 26 27  1  0
 27 28  1  6
 28 29  2  0
 28 30  1  0
M  END
$$$$
