WIP.pdb
     RDKit          3D

 30 32  0  0  1  0  0  0  0  0999 V2000
   21.3916  -17.9145  -14.0714 N   0  0  0  0  0  0  0  0  0  0  0  0
   21.9244  -19.2117  -13.7971 C   0  0  1  0  0  0  0  0  0  0  0  0
   21.2763  -20.2839  -14.6430 C   0  0  0  0  0  0  0  0  0  0  0  0
   19.8446  -20.3881  -14.2680 C   0  0  0  0  0  0  0  0  0  0  0  0
   18.7652  -20.5483  -15.1097 C   0  0  0  0  0  0  0  0  0  0  0  0
   17.6234  -20.5999  -14.3887 N   0  0  0  0  0  0  0  0  0  0  0  0
   17.9445  -20.4752  -13.0879 C   0  0  0  0  0  0  0  0  0  0  0  0
   17.1457  -20.4657  -11.9621 C   0  0  0  0  0  0  0  0  0  0  0  0
   17.6940  -20.3237  -10.7067 C   0  0  0  0  0  0  0  0  0  0  0  0
   19.0650  -20.1929  -10.6303 C   0  0  0  0  0  0  0  0  0  0  0  0
   19.8869  -20.1990  -11.7381 C   0  0  0  0  0  0  0  0  0  0  0  0
   19.3249  -20.3412  -12.9794 C   0  0  0  0  0  0  0  0  0  0  0  0
   23.4127  -19.2240  -13.9676 C   0  0  0  0  0  0  0  0  0  0  0  0
   23.9215  -18.3494  -14.7155 O   0  0  0  0  0  0  0  0  0  0  0  0
   25.7856  -20.8546   -9.5686 C   0  0  0  0  0  0  0  0  0  0  0  0
   25.4781  -20.0979  -10.8267 C   0  0  0  0  0  0  0  0  0  0  0  0
   26.0560  -20.8441  -12.0132 C   0  0  2  0  0  0  0  0  0  0  0  0
   27.5061  -21.0329  -11.7296 C   0  0  0  0  0  0  0  0  0  0  0  0
   25.6798  -20.1195  -13.2473 C   0  0  2  0  0  0  0  0  0  0  0  0
   24.2021  -20.1930  -13.3028 N   0  0  0  0  0  0  0  0  0  0  0  0
   26.2757  -20.5396  -14.5066 C   0  0  0  0  0  0  0  0  0  0  0  0
   25.7326  -21.6037  -15.0170 O   0  0  0  0  0  0  0  0  0  0  0  0
   27.3115  -20.0066  -15.2543 N   0  0  0  0  0  0  0  0  0  0  0  0
   28.1274  -18.8575  -14.9760 C   0  0  0  0  0  0  0  0  0  0  0  0
   28.4469  -18.1921  -16.3058 C   0  0  0  0  0  0  0  0  0  0  0  0
   28.4222  -19.3455  -17.2570 C   0  0  0  0  0  0  0  0  0  0  0  0
   27.7780  -20.4898  -16.5471 C   0  0  1  0  0  0  0  0  0  0  0  0
   28.7694  -21.6018  -16.3649 C   0  0  0  0  0  0  0  0  0  0  0  0
   29.1714  -21.9613  -15.2470 O   0  0  0  0  0  0  0  0  0  0  0  0
   29.2372  -22.2321  -17.4874 O   0  0  0  0  0  0  0  0  0  0  0  0
  2  1  1  6
  2 13  1  0
  3  4  1  0
  3  2  1  0
  4  5  2  0
  5  6  1  0
  7  6  1  0
  8  7  2  0
  9  8  1  0
 10 11  1  0
 10  9  2  0
 11 12  2  0
 12  4  1  0
 12  7  1  0
 13 20  1  0
 13 14  2  0
 16 17  1  0
 16 15  1  0
 17 18  1  1
 19 17  1  0
 19 21  1  0
 19 20  1  6
 21 22  2  0
 23 27  1  0
 23 21  1  0
 24 23  1  0
 25 24  1  0
 25 26  1  0
 26 27  1  0
 27 28  1  1
 28 29  2  0
 28 30  1  0
M  END
$$$$
