WIP.pdb
     RDKit          3D

 30 32  0  0  1  0  0  0  0  0999 V2000
   25.0172  -18.6850   -8.3542 N   0  0  0  0  0  0  0  0  0  0  0  0
   25.8956  -19.7912   -8.5697 C   0  0  1  0  0  0  0  0  0  0  0  0
   25.3753  -21.0627   -7.9391 C   0  0  0  0  0  0  0  0  0  0  0  0
   25.4617  -20.9344   -6.4635 C   0  0  0  0  0  0  0  0  0  0  0  0
   24.5800  -21.4243   -5.5245 C   0  0  0  0  0  0  0  0  0  0  0  0
   25.0039  -21.1009   -4.2827 N   0  0  0  0  0  0  0  0  0  0  0  0
   26.1505  -20.4065   -4.4001 C   0  0  0  0  0  0  0  0  0  0  0  0
   26.9701  -19.8558   -3.4356 C   0  0  0  0  0  0  0  0  0  0  0  0
   28.1150  -19.1745   -3.7848 C   0  0  0  0  0  0  0  0  0  0  0  0
   28.3992  -19.0707   -5.1306 C   0  0  0  0  0  0  0  0  0  0  0  0
   27.5984  -19.6110   -6.1152 C   0  0  0  0  0  0  0  0  0  0  0  0
   26.4632  -20.2855   -5.7502 C   0  0  0  0  0  0  0  0  0  0  0  0
   26.1565  -19.9883  -10.0317 C   0  0  0  0  0  0  0  0  0  0  0  0
   25.4857  -19.2980  -10.8422 O   0  0  0  0  0  0  0  0  0  0  0  0
   31.6161  -21.9003  -11.8882 C   0  0  0  0  0  0  0  0  0  0  0  0
   30.3855  -21.1085  -12.2176 C   0  0  0  0  0  0  0  0  0  0  0  0
   29.3303  -21.3600  -11.1584 C   0  0  2  0  0  0  0  0  0  0  0  0
   29.2312  -22.8379  -11.0014 C   0  0  0  0  0  0  0  0  0  0  0  0
   28.1061  -20.6194  -11.5354 C   0  0  2  0  0  0  0  0  0  0  0  0
   27.1271  -20.9224  -10.4670 N   0  0  0  0  0  0  0  0  0  0  0  0
   27.5350  -20.8500  -12.8539 C   0  0  0  0  0  0  0  0  0  0  0  0
   26.7229  -21.8627  -12.9061 O   0  0  0  0  0  0  0  0  0  0  0  0
   27.7010  -20.1825  -14.0551 N   0  0  0  0  0  0  0  0  0  0  0  0
   28.6144  -19.1225  -14.3800 C   0  0  0  0  0  0  0  0  0  0  0  0
   27.9108  -18.1992  -15.3626 C   0  0  0  0  0  0  0  0  0  0  0  0
   26.9781  -19.1307  -16.0683 C   0  0  0  0  0  0  0  0  0  0  0  0
   26.9263  -20.3918  -15.2711 C   0  0  1  0  0  0  0  0  0  0  0  0
   27.4999  -21.5255  -16.0699 C   0  0  0  0  0  0  0  0  0  0  0  0
   28.5800  -22.0654  -15.7825 O   0  0  0  0  0  0  0  0  0  0  0  0
   26.7897  -21.9675  -17.1544 O   0  0  0  0  0  0  0  0  0  0  0  0
  2  1  1  6
  2 13  1  0
  3  4  1  0
  3  2  1  0
  4  5  2  0
  5  6  1  0
  7  6  1  0
  8  7  2  0
  9  8  1  0
 10 11  1  0
 10  9  2  0
 11 12  2  0
 12  4  1  0
 12  7  1  0
 13 20  1  0
 13 14  2  0
 16 17  1  0
 16 15  1  0
 17 18  1  6
 19 17  1  0
 19 21  1  0
 19 20  1  1
 21 22  2  0
 23 27  1  0
 23 21  1  0
 24 23  1  0
 25 24  1  0
 25 26  1  0
 26 27  1  0
 27 28  1  6
 28 29  2  0
 28 30  1  0
M  END
$$$$
