WIP.pdb
     RDKit          3D

 30 32  0  0  1  0  0  0  0  0999 V2000
   21.7662  -19.0026  -13.5115 N   0  0  0  0  0  0  0  0  0  0  0  0
   22.6450  -20.0640  -13.1333 C   0  0  1  0  0  0  0  0  0  0  0  0
   22.0847  -21.4218  -13.4906 C   0  0  0  0  0  0  0  0  0  0  0  0
   21.0615  -21.7966  -12.4837 C   0  0  0  0  0  0  0  0  0  0  0  0
   19.8664  -22.4470  -12.7023 C   0  0  0  0  0  0  0  0  0  0  0  0
   19.2090  -22.6070  -11.5324 N   0  0  0  0  0  0  0  0  0  0  0  0
   19.9602  -22.0692  -10.5541 C   0  0  0  0  0  0  0  0  0  0  0  0
   19.7344  -21.9774   -9.1954 C   0  0  0  0  0  0  0  0  0  0  0  0
   20.6532  -21.3757   -8.3644 C   0  0  0  0  0  0  0  0  0  0  0  0
   21.7974  -20.8749   -8.9499 C   0  0  0  0  0  0  0  0  0  0  0  0
   22.0488  -20.9527  -10.3039 C   0  0  0  0  0  0  0  0  0  0  0  0
   21.1241  -21.5546  -11.1161 C   0  0  0  0  0  0  0  0  0  0  0  0
   24.0035  -19.8718  -13.7349 C   0  0  0  0  0  0  0  0  0  0  0  0
   24.1255  -18.9992  -14.6332 O   0  0  0  0  0  0  0  0  0  0  0  0
   27.5988  -21.1102  -10.1313 C   0  0  0  0  0  0  0  0  0  0  0  0
   26.8711  -20.3974  -11.2323 C   0  0  0  0  0  0  0  0  0  0  0  0
   27.3133  -20.9587  -12.5695 C   0  0  2  0  0  0  0  0  0  0  0  0
   28.7927  -20.7955  -12.6293 C   0  0  0  0  0  0  0  0  0  0  0  0
   26.5025  -20.3240  -13.6322 C   0  0  2  0  0  0  0  0  0  0  0  0
   25.0989  -20.6535  -13.2956 N   0  0  0  0  0  0  0  0  0  0  0  0
   26.8016  -20.6480  -15.0190 C   0  0  0  0  0  0  0  0  0  0  0  0
   26.3187  -21.7892  -15.4089 O   0  0  0  0  0  0  0  0  0  0  0  0
   27.5034  -19.9571  -15.9916 N   0  0  0  0  0  0  0  0  0  0  0  0
   28.2192  -18.7167  -15.8787 C   0  0  0  0  0  0  0  0  0  0  0  0
   28.0561  -17.9744  -17.1962 C   0  0  0  0  0  0  0  0  0  0  0  0
   27.8968  -19.0914  -18.1774 C   0  0  0  0  0  0  0  0  0  0  0  0
   27.6300  -20.3334  -17.3934 C   0  0  1  0  0  0  0  0  0  0  0  0
   28.7589  -21.3054  -17.5758 C   0  0  0  0  0  0  0  0  0  0  0  0
   29.4839  -21.6704  -16.6367 O   0  0  0  0  0  0  0  0  0  0  0  0
   28.9822  -21.7978  -18.8342 O   0  0  0  0  0  0  0  0  0  0  0  0
  2  1  1  6
  2 13  1  0
  3  4  1  0
  3  2  1  0
  4  5  2  0
  5  6  1  0
  7  6  1  0
  8  7  2  0
  9  8  1  0
 10 11  1  0
 10  9  2  0
 11 12  2  0
 12  4  1  0
 12  7  1  0
 13 20  1  0
 13 14  2  0
 16 17  1  0
 16 15  1  0
 17 18  1  6
 19 17  1  0
 19 21  1  0
 19 20  1  1
 21 22  2  0
 23 27  1  0
 23 21  1  0
 24 23  1  0
 25 24  1  0
 25 26  1  0
 26 27  1  0
 27 28  1  1
 28 29  2  0
 28 30  1  0
M  END
$$$$
