WIP.pdb
     RDKit          3D

 30 32  0  0  1  0  0  0  0  0999 V2000
   27.2010  -18.4916   -8.9924 N   0  0  0  0  0  0  0  0  0  0  0  0
   26.9981  -19.8745   -9.2897 C   0  0  1  0  0  0  0  0  0  0  0  0
   26.3531  -20.6152   -8.1405 C   0  0  0  0  0  0  0  0  0  0  0  0
   26.9353  -20.1227   -6.8677 C   0  0  0  0  0  0  0  0  0  0  0  0
   26.3649  -19.2523   -5.9644 C   0  0  0  0  0  0  0  0  0  0  0  0
   27.2083  -19.0461   -4.9287 N   0  0  0  0  0  0  0  0  0  0  0  0
   28.3211  -19.7709   -5.1455 C   0  0  0  0  0  0  0  0  0  0  0  0
   29.4691  -19.9022   -4.3902 C   0  0  0  0  0  0  0  0  0  0  0  0
   30.5022  -20.7115   -4.8080 C   0  0  0  0  0  0  0  0  0  0  0  0
   30.3354  -21.3769   -6.0047 C   0  0  0  0  0  0  0  0  0  0  0  0
   29.1996  -21.2641   -6.7793 C   0  0  0  0  0  0  0  0  0  0  0  0
   28.1815  -20.4548   -6.3488 C   0  0  0  0  0  0  0  0  0  0  0  0
   26.1989  -20.0383  -10.5462 C   0  0  0  0  0  0  0  0  0  0  0  0
   25.1847  -19.3080  -10.6918 O   0  0  0  0  0  0  0  0  0  0  0  0
   28.3176  -19.1140  -14.3348 C   0  0  0  0  0  0  0  0  0  0  0  0
   28.5120  -20.3124  -13.4539 C   0  0  0  0  0  0  0  0  0  0  0  0
   27.3950  -21.3058  -13.7070 C   0  0  2  0  0  0  0  0  0  0  0  0
   27.2719  -21.4374  -15.1856 C   0  0  0  0  0  0  0  0  0  0  0  0
   26.2022  -20.8688  -12.9484 C   0  0  2  0  0  0  0  0  0  0  0  0
   26.5865  -20.9864  -11.5235 N   0  0  0  0  0  0  0  0  0  0  0  0
   24.9338  -21.5329  -13.2084 C   0  0  0  0  0  0  0  0  0  0  0  0
   24.9250  -22.7931  -12.8930 O   0  0  0  0  0  0  0  0  0  0  0  0
   23.7403  -21.0606  -13.7267 N   0  0  0  0  0  0  0  0  0  0  0  0
   23.4193  -19.7415  -14.1963 C   0  0  0  0  0  0  0  0  0  0  0  0
   21.9645  -19.4731  -13.8431 C   0  0  0  0  0  0  0  0  0  0  0  0
   21.3703  -20.8451  -13.8618 C   0  0  0  0  0  0  0  0  0  0  0  0
   22.5033  -21.8171  -13.8679 C   0  0  1  0  0  0  0  0  0  0  0  0
   22.5056  -22.5913  -15.1536 C   0  0  0  0  0  0  0  0  0  0  0  0
   23.3630  -22.4200  -16.0346 O   0  0  0  0  0  0  0  0  0  0  0  0
   21.5154  -23.5182  -15.3441 O   0  0  0  0  0  0  0  0  0  0  0  0
  2  1  1  1
  2 13  1  0
  3  4  1  0
  3  2  1  0
  4  5  2  0
  5  6  1  0
  7  6  1  0
  8  7  2  0
  9  8  1  0
 10 11  1  0
 10  9  2  0
 11 12  2  0
 12  4  1  0
 12  7  1  0
 13 20  1  0
 13 14  2  0
 16 17  1  0
 16 15  1  0
 17 18  1  6
 19 17  1  0
 19 21  1  0
 19 20  1  1
 21 22  2  0
 23 27  1  0
 23 21  1  0
 24 23  1  0
 25 24  1  0
 25 26  1  0
 26 27  1  0
 27 28  1  6
 28 29  2  0
 28 30  1  0
M  END
$$$$
