WIP.pdb
     RDKit          3D

 30 32  0  0  1  0  0  0  0  0999 V2000
   28.8701  -20.1701  -16.1020 N   0  0  0  0  0  0  0  0  0  0  0  0
   27.7297  -19.6175  -15.4419 C   0  0  1  0  0  0  0  0  0  0  0  0
   26.7210  -19.0590  -16.4196 C   0  0  0  0  0  0  0  0  0  0  0  0
   27.2505  -17.7915  -16.9805 C   0  0  0  0  0  0  0  0  0  0  0  0
   27.8105  -17.5921  -18.2237 C   0  0  0  0  0  0  0  0  0  0  0  0
   28.1732  -16.2977  -18.3627 N   0  0  0  0  0  0  0  0  0  0  0  0
   27.8567  -15.6508  -17.2261 C   0  0  0  0  0  0  0  0  0  0  0  0
   28.0218  -14.3274  -16.8697 C   0  0  0  0  0  0  0  0  0  0  0  0
   27.6192  -13.8719  -15.6339 C   0  0  0  0  0  0  0  0  0  0  0  0
   27.0494  -14.7926  -14.7793 C   0  0  0  0  0  0  0  0  0  0  0  0
   26.8724  -16.1202  -15.1091 C   0  0  0  0  0  0  0  0  0  0  0  0
   27.2785  -16.5565  -16.3426 C   0  0  0  0  0  0  0  0  0  0  0  0
   27.0938  -20.6296  -14.5387 C   0  0  0  0  0  0  0  0  0  0  0  0
   26.9890  -21.8085  -14.9658 O   0  0  0  0  0  0  0  0  0  0  0  0
   27.3018  -20.6428   -9.1874 C   0  0  0  0  0  0  0  0  0  0  0  0
   27.1082  -21.0914  -10.6055 C   0  0  0  0  0  0  0  0  0  0  0  0
   25.7582  -20.6121  -11.1020 C   0  0  2  0  0  0  0  0  0  0  0  0
   24.7486  -21.0996  -10.1213 C   0  0  0  0  0  0  0  0  0  0  0  0
   25.6080  -21.0254  -12.5148 C   0  0  2  0  0  0  0  0  0  0  0  0
   26.6332  -20.2542  -13.2537 N   0  0  0  0  0  0  0  0  0  0  0  0
   24.3000  -20.8962  -13.1394 C   0  0  0  0  0  0  0  0  0  0  0  0
   23.9251  -19.6666  -13.3264 O   0  0  0  0  0  0  0  0  0  0  0  0
   23.3911  -21.8473  -13.5700 N   0  0  0  0  0  0  0  0  0  0  0  0
   23.5100  -23.2788  -13.5610 C   0  0  0  0  0  0  0  0  0  0  0  0
   22.7967  -23.8036  -14.7975 C   0  0  0  0  0  0  0  0  0  0  0  0
   21.7425  -22.7677  -15.0249 C   0  0  0  0  0  0  0  0  0  0  0  0
   22.0968  -21.5854  -14.1853 C   0  0  1  0  0  0  0  0  0  0  0  0
   21.0485  -21.3737  -13.1322 C   0  0  0  0  0  0  0  0  0  0  0  0
   21.2289  -21.6724  -11.9411 O   0  0  0  0  0  0  0  0  0  0  0  0
   19.8532  -20.8287  -13.5198 O   0  0  0  0  0  0  0  0  0  0  0  0
  2  1  1  6
  2 13  1  0
  3  4  1  0
  3  2  1  0
  4  5  2  0
  5  6  1  0
  7  6  1  0
  8  7  2  0
  9  8  1  0
 10 11  1  0
 10  9  2  0
 11 12  2  0
 12  4  1  0
 12  7  1  0
 13 20  1  0
 13 14  2  0
 16 17  1  0
 16 15  1  0
 17 18  1  1
 19 17  1  0
 19 21  1  0
 19 20  1  6
 21 22  2  0
 23 27  1  0
 23 21  1  0
 24 23  1  0
 25 24  1  0
 25 26  1  0
 26 27  1  0
 27 28  1  1
 28 29  2  0
 28 30  1  0
M  END
$$$$
