WIP.pdb
     RDKit          3D

 30 32  0  0  1  0  0  0  0  0999 V2000
   26.1270  -21.3267  -12.3416 N   0  0  0  0  0  0  0  0  0  0  0  0
   25.3659  -20.6592  -11.3332 C   0  0  1  0  0  0  0  0  0  0  0  0
   23.8777  -20.8315  -11.5356 C   0  0  0  0  0  0  0  0  0  0  0  0
   23.4869  -20.1624  -12.8009 C   0  0  0  0  0  0  0  0  0  0  0  0
   23.2009  -18.8280  -12.9920 C   0  0  0  0  0  0  0  0  0  0  0  0
   22.8852  -18.6061  -14.2872 N   0  0  0  0  0  0  0  0  0  0  0  0
   22.9617  -19.7788  -14.9427 C   0  0  0  0  0  0  0  0  0  0  0  0
   22.7357  -20.0823  -16.2702 C   0  0  0  0  0  0  0  0  0  0  0  0
   22.8742  -21.3715  -16.7347 C   0  0  0  0  0  0  0  0  0  0  0  0
   23.2456  -22.3336  -15.8187 C   0  0  0  0  0  0  0  0  0  0  0  0
   23.4777  -22.0585  -14.4871 C   0  0  0  0  0  0  0  0  0  0  0  0
   23.3354  -20.7707  -14.0418 C   0  0  0  0  0  0  0  0  0  0  0  0
   25.7752  -21.1156   -9.9663 C   0  0  0  0  0  0  0  0  0  0  0  0
   25.8006  -22.3545   -9.7482 O   0  0  0  0  0  0  0  0  0  0  0  0
   29.4003  -18.7295   -6.9174 C   0  0  0  0  0  0  0  0  0  0  0  0
   28.4573  -19.7439   -7.4932 C   0  0  0  0  0  0  0  0  0  0  0  0
   27.0711  -19.5196   -6.9215 C   0  0  2  0  0  0  0  0  0  0  0  0
   27.2188  -19.5206   -5.4393 C   0  0  0  0  0  0  0  0  0  0  0  0
   26.1519  -20.5084   -7.5270 C   0  0  2  0  0  0  0  0  0  0  0  0
   26.1178  -20.1717   -8.9684 N   0  0  0  0  0  0  0  0  0  0  0  0
   24.8079  -20.6297   -6.9825 C   0  0  0  0  0  0  0  0  0  0  0  0
   24.0027  -19.6793   -7.3514 O   0  0  0  0  0  0  0  0  0  0  0  0
   24.2382  -21.5755   -6.1477 N   0  0  0  0  0  0  0  0  0  0  0  0
   24.8348  -22.7496   -5.5740 C   0  0  0  0  0  0  0  0  0  0  0  0
   23.7599  -23.8239   -5.5124 C   0  0  0  0  0  0  0  0  0  0  0  0
   22.5080  -23.0188   -5.3696 C   0  0  0  0  0  0  0  0  0  0  0  0
   22.8533  -21.6037   -5.6965 C   0  0  1  0  0  0  0  0  0  0  0  0
   22.6800  -20.7413   -4.4805 C   0  0  0  0  0  0  0  0  0  0  0  0
   23.6424  -20.2910   -3.8388 O   0  0  0  0  0  0  0  0  0  0  0  0
   21.4033  -20.4508   -4.0788 O   0  0  0  0  0  0  0  0  0  0  0  0
  2  1  1  6
  2 13  1  0
  3  4  1  0
  3  2  1  0
  4  5  2  0
  5  6  1  0
  7  6  1  0
  8  7  2  0
  9  8  1  0
 10 11  1  0
 10  9  2  0
 11 12  2  0
 12  4  1  0
 12  7  1  0
 13 20  1  0
 13 14  2  0
 16 17  1  0
 16 15  1  0
 17 18  1  1
 19 17  1  0
 19 21  1  0
 19 20  1  6
 21 22  2  0
 23 27  1  0
 23 21  1  0
 24 23  1  0
 25 24  1  0
 25 26  1  0
 26 27  1  0
 27 28  1  1
 28 29  2  0
 28 30  1  0
M  END
$$$$
