WIP.pdb
     RDKit          3D

 30 32  0  0  1  0  0  0  0  0999 V2000
   26.5364  -20.0376  -11.9054 N   0  0  0  0  0  0  0  0  0  0  0  0
   26.1024  -20.1998  -10.5537 C   0  0  1  0  0  0  0  0  0  0  0  0
   25.2068  -21.4058  -10.3841 C   0  0  0  0  0  0  0  0  0  0  0  0
   23.8919  -21.1159  -11.0073 C   0  0  0  0  0  0  0  0  0  0  0  0
   23.4972  -21.3853  -12.2999 C   0  0  0  0  0  0  0  0  0  0  0  0
   22.2250  -20.9703  -12.4884 N   0  0  0  0  0  0  0  0  0  0  0  0
   21.7854  -20.4337  -11.3353 C   0  0  0  0  0  0  0  0  0  0  0  0
   20.5658  -19.8733  -11.0126 C   0  0  0  0  0  0  0  0  0  0  0  0
   20.3272  -19.3766   -9.7504 C   0  0  0  0  0  0  0  0  0  0  0  0
   21.3550  -19.4657   -8.8348 C   0  0  0  0  0  0  0  0  0  0  0  0
   22.5830  -20.0204   -9.1299 C   0  0  0  0  0  0  0  0  0  0  0  0
   22.8035  -20.5096  -10.3904 C   0  0  0  0  0  0  0  0  0  0  0  0
   27.2735  -20.2692   -9.6221 C   0  0  0  0  0  0  0  0  0  0  0  0
   28.3121  -20.8488  -10.0328 O   0  0  0  0  0  0  0  0  0  0  0  0
   29.0527  -17.0139   -4.7985 C   0  0  0  0  0  0  0  0  0  0  0  0
   29.2742  -18.2400   -5.6336 C   0  0  0  0  0  0  0  0  0  0  0  0
   28.1526  -18.3651   -6.6461 C   0  0  2  0  0  0  0  0  0  0  0  0
   26.8788  -18.2253   -5.8867 C   0  0  0  0  0  0  0  0  0  0  0  0
   28.3634  -19.6062   -7.4237 C   0  0  2  0  0  0  0  0  0  0  0  0
   27.1958  -19.6972   -8.3294 N   0  0  0  0  0  0  0  0  0  0  0  0
   28.5665  -20.8519   -6.6994 C   0  0  0  0  0  0  0  0  0  0  0  0
   27.4851  -21.5560   -6.5495 O   0  0  0  0  0  0  0  0  0  0  0  0
   29.7030  -21.4173   -6.1475 N   0  0  0  0  0  0  0  0  0  0  0  0
   31.0545  -20.9308   -6.1681 C   0  0  0  0  0  0  0  0  0  0  0  0
   31.9732  -22.1398   -6.2550 C   0  0  0  0  0  0  0  0  0  0  0  0
   31.1743  -23.2012   -5.5687 C   0  0  0  0  0  0  0  0  0  0  0  0
   29.7769  -22.6911   -5.4443 C   0  0  1  0  0  0  0  0  0  0  0  0
   29.4251  -22.5121   -3.9963 C   0  0  0  0  0  0  0  0  0  0  0  0
   29.0228  -23.4475   -3.2863 O   0  0  0  0  0  0  0  0  0  0  0  0
   29.5595  -21.2611   -3.4551 O   0  0  0  0  0  0  0  0  0  0  0  0
  2  1  1  6
  2 13  1  0
  3  4  1  0
  3  2  1  0
  4  5  2  0
  5  6  1  0
  7  6  1  0
  8  7  2  0
  9  8  1  0
 10 11  1  0
 10  9  2  0
 11 12  2  0
 12  4  1  0
 12  7  1  0
 13 20  1  0
 13 14  2  0
 16 17  1  0
 16 15  1  0
 17 18  1  1
 19 17  1  0
 19 21  1  0
 19 20  1  6
 21 22  2  0
 23 27  1  0
 23 21  1  0
 24 23  1  0
 25 24  1  0
 25 26  1  0
 26 27  1  0
 27 28  1  1
 28 29  2  0
 28 30  1  0
M  END
$$$$
