WIP.pdb
     RDKit          3D

 30 32  0  0  1  0  0  0  0  0999 V2000
   25.1885  -20.8297  -12.5049 N   0  0  0  0  0  0  0  0  0  0  0  0
   24.8396  -20.5416  -11.1496 C   0  0  1  0  0  0  0  0  0  0  0  0
   23.4564  -21.0410  -10.7992 C   0  0  0  0  0  0  0  0  0  0  0  0
   22.4556  -20.2383  -11.5445 C   0  0  0  0  0  0  0  0  0  0  0  0
   22.5123  -19.8380  -12.8619 C   0  0  0  0  0  0  0  0  0  0  0  0
   21.4101  -19.1203  -13.1725 N   0  0  0  0  0  0  0  0  0  0  0  0
   20.6357  -19.0476  -12.0744 C   0  0  0  0  0  0  0  0  0  0  0  0
   19.4166  -18.4320  -11.8740 C   0  0  0  0  0  0  0  0  0  0  0  0
   18.7906  -18.4842  -10.6483 C   0  0  0  0  0  0  0  0  0  0  0  0
   19.4345  -19.1740   -9.6421 C   0  0  0  0  0  0  0  0  0  0  0  0
   20.6524  -19.7981   -9.8145 C   0  0  0  0  0  0  0  0  0  0  0  0
   21.2612  -19.7363  -11.0402 C   0  0  0  0  0  0  0  0  0  0  0  0
   25.8624  -21.0964  -10.2060 C   0  0  0  0  0  0  0  0  0  0  0  0
   25.7022  -22.2766   -9.8001 O   0  0  0  0  0  0  0  0  0  0  0  0
   30.5305  -21.7312  -11.3567 C   0  0  0  0  0  0  0  0  0  0  0  0
   29.2185  -21.7492  -10.6299 C   0  0  0  0  0  0  0  0  0  0  0  0
   29.2557  -20.7335   -9.5049 C   0  0  2  0  0  0  0  0  0  0  0  0
   30.4854  -21.0210   -8.7150 C   0  0  0  0  0  0  0  0  0  0  0  0
   27.9550  -20.7707   -8.8006 C   0  0  2  0  0  0  0  0  0  0  0  0
   26.9632  -20.3060   -9.7966 N   0  0  0  0  0  0  0  0  0  0  0  0
   27.8242  -20.0423   -7.5476 C   0  0  0  0  0  0  0  0  0  0  0  0
   27.2034  -18.9068   -7.6612 O   0  0  0  0  0  0  0  0  0  0  0  0
   28.2396  -20.3455   -6.2625 N   0  0  0  0  0  0  0  0  0  0  0  0
   28.8991  -21.5279   -5.7824 C   0  0  0  0  0  0  0  0  0  0  0  0
   28.3910  -21.7935   -4.3737 C   0  0  0  0  0  0  0  0  0  0  0  0
   28.0589  -20.4193   -3.8868 C   0  0  0  0  0  0  0  0  0  0  0  0
   28.0481  -19.5194   -5.0779 C   0  0  1  0  0  0  0  0  0  0  0  0
   29.1483  -18.5051   -4.9622 C   0  0  0  0  0  0  0  0  0  0  0  0
   30.1539  -18.5250   -5.6896 O   0  0  0  0  0  0  0  0  0  0  0  0
   29.0198  -17.5275   -4.0115 O   0  0  0  0  0  0  0  0  0  0  0  0
  2  1  1  6
  2 13  1  0
  3  4  1  0
  3  2  1  0
  4  5  2  0
  5  6  1  0
  7  6  1  0
  8  7  2  0
  9  8  1  0
 10 11  1  0
 10  9  2  0
 11 12  2  0
 12  4  1  0
 12  7  1  0
 13 20  1  0
 13 14  2  0
 16 17  1  0
 16 15  1  0
 17 18  1  1
 19 17  1  0
 19 21  1  0
 19 20  1  6
 21 22  2  0
 23 27  1  0
 23 21  1  0
 24 23  1  0
 25 24  1  0
 25 26  1  0
 26 27  1  0
 27 28  1  1
 28 29  2  0
 28 30  1  0
M  END
$$$$
