WIP.pdb
     RDKit          3D

 30 32  0  0  1  0  0  0  0  0999 V2000
   26.1454  -21.1797  -11.8644 N   0  0  0  0  0  0  0  0  0  0  0  0
   25.5787  -20.6580  -10.6609 C   0  0  1  0  0  0  0  0  0  0  0  0
   24.1432  -21.0928  -10.4723 C   0  0  0  0  0  0  0  0  0  0  0  0
   23.2661  -20.2076  -11.2776 C   0  0  0  0  0  0  0  0  0  0  0  0
   22.2577  -19.3855  -10.8234 C   0  0  0  0  0  0  0  0  0  0  0  0
   21.6880  -18.7383  -11.8641 N   0  0  0  0  0  0  0  0  0  0  0  0
   22.3121  -19.1280  -12.9907 C   0  0  0  0  0  0  0  0  0  0  0  0
   22.1052  -18.7612  -14.3053 C   0  0  0  0  0  0  0  0  0  0  0  0
   22.8729  -19.2931  -15.3176 C   0  0  0  0  0  0  0  0  0  0  0  0
   23.8475  -20.2003  -14.9574 C   0  0  0  0  0  0  0  0  0  0  0  0
   24.0759  -20.5847  -13.6525 C   0  0  0  0  0  0  0  0  0  0  0  0
   23.3032  -20.0458  -12.6579 C   0  0  0  0  0  0  0  0  0  0  0  0
   26.4108  -21.0337   -9.4730 C   0  0  0  0  0  0  0  0  0  0  0  0
   26.7587  -22.2378   -9.3618 O   0  0  0  0  0  0  0  0  0  0  0  0
   29.9844  -18.2629   -5.4105 C   0  0  0  0  0  0  0  0  0  0  0  0
   29.1895  -19.4846   -5.7647 C   0  0  0  0  0  0  0  0  0  0  0  0
   28.3421  -19.1929   -6.9877 C   0  0  2  0  0  0  0  0  0  0  0  0
   27.6392  -17.9074   -6.7194 C   0  0  0  0  0  0  0  0  0  0  0  0
   27.5172  -20.3864   -7.2782 C   0  0  2  0  0  0  0  0  0  0  0  0
   26.7826  -20.0550   -8.5202 N   0  0  0  0  0  0  0  0  0  0  0  0
   26.6142  -20.8728   -6.2460 C   0  0  0  0  0  0  0  0  0  0  0  0
   25.3987  -20.4281   -6.3576 O   0  0  0  0  0  0  0  0  0  0  0  0
   26.8199  -21.7236   -5.1737 N   0  0  0  0  0  0  0  0  0  0  0  0
   28.0443  -22.3194   -4.7160 C   0  0  0  0  0  0  0  0  0  0  0  0
   27.7068  -23.7031   -4.1826 C   0  0  0  0  0  0  0  0  0  0  0  0
   26.2987  -23.5313   -3.7099 C   0  0  0  0  0  0  0  0  0  0  0  0
   25.7949  -22.2471   -4.2804 C   0  0  1  0  0  0  0  0  0  0  0  0
   25.5147  -21.2716   -3.1748 C   0  0  0  0  0  0  0  0  0  0  0  0
   26.2707  -20.3223   -2.9144 O   0  0  0  0  0  0  0  0  0  0  0  0
   24.3759  -21.4524   -2.4355 O   0  0  0  0  0  0  0  0  0  0  0  0
  2  1  1  6
  2 13  1  0
  3  4  1  0
  3  2  1  0
  4  5  2  0
  5  6  1  0
  7  6  1  0
  8  7  2  0
  9  8  1  0
 10 11  1  0
 10  9  2  0
 11 12  2  0
 12  4  1  0
 12  7  1  0
 13 20  1  0
 13 14  2  0
 16 17  1  0
 16 15  1  0
 17 18  1  1
 19 17  1  0
 19 21  1  0
 19 20  1  6
 21 22  2  0
 23 27  1  0
 23 21  1  0
 24 23  1  0
 25 24  1  0
 25 26  1  0
 26 27  1  0
 27 28  1  1
 28 29  2  0
 28 30  1  0
M  END
$$$$
