AFR.pdb
     RDKit          3D

 28 28  0  0  1  0  0  0  0  0999 V2000
    7.5832  -20.5570   22.7349 C   0  0  0  0  0  0  0  0  0  0  0  0
    6.7583  -19.4262   22.1926 C   0  0  2  0  0  0  0  0  0  0  0  0
    6.7300  -19.4048   20.7631 N   0  0  0  0  0  0  0  0  0  0  0  0
    7.2810  -18.1567   22.7738 C   0  0  0  0  0  0  0  0  0  0  0  0
    8.2359  -17.5566   22.2201 O   0  0  0  0  0  0  0  0  0  0  0  0
    6.7473  -17.5690   23.9504 N   0  0  0  0  0  0  0  0  0  0  0  0
    7.2567  -16.3572   24.5619 C   0  0  1  0  0  0  0  0  0  0  0  0
    6.2583  -15.7022   25.4559 C   0  0  0  0  0  0  0  0  0  0  0  0
    6.6834  -14.4112   26.0214 C   0  0  0  0  0  0  0  0  0  0  0  0
    6.3961  -13.2328   25.3522 C   0  0  0  0  0  0  0  0  0  0  0  0
    6.7727  -11.9990   25.8375 C   0  0  0  0  0  0  0  0  0  0  0  0
    7.4609  -11.8817   27.0257 C   0  0  0  0  0  0  0  0  0  0  0  0
    7.7547  -13.0453   27.7039 C   0  0  0  0  0  0  0  0  0  0  0  0
    7.3706  -14.2893   27.2070 C   0  0  0  0  0  0  0  0  0  0  0  0
    8.5352  -16.6749   25.2260 C   0  0  0  0  0  0  0  0  0  0  0  0
    8.6797  -17.7763   25.8258 O   0  0  0  0  0  0  0  0  0  0  0  0
   16.6870  -16.8552   25.1692 N   0  0  0  0  0  0  0  0  0  0  0  0
   16.3654  -16.1610   23.9751 C   0  0  0  0  0  0  0  0  0  0  0  0
   17.1655  -15.3055   23.4126 N   0  0  0  0  0  0  0  0  0  0  0  0
   15.1091  -16.3991   23.3489 N   0  0  0  0  0  0  0  0  0  0  0  0
   13.9933  -17.0304   24.0505 C   0  0  0  0  0  0  0  0  0  0  0  0
   13.4022  -16.0027   24.9656 C   0  0  0  0  0  0  0  0  0  0  0  0
   11.9823  -15.6601   24.6853 C   0  0  0  0  0  0  0  0  0  0  0  0
   10.9870  -16.2880   25.6448 C   0  0  2  0  0  0  0  0  0  0  0  0
    9.6708  -15.8118   25.2481 N   0  0  0  0  0  0  0  0  0  0  0  0
   11.3143  -15.9851   27.0475 C   0  0  0  0  0  0  0  0  0  0  0  0
   10.5714  -15.0213   27.7098 O   0  0  0  0  0  0  0  0  0  0  0  0
   12.2295  -16.5471   27.6857 O   0  0  0  0  0  0  0  0  0  0  0  0
  2  1  1  6
  2  3  1  0
  4  5  2  0
  4  2  1  0
  6  4  1  0
  7  6  1  0
  7  8  1  1
  9 14  2  0
  9  8  1  0
 10  9  1  0
 11 12  1  0
 11 10  2  0
 12 13  2  0
 13 14  1  0
 15 16  2  0
 15  7  1  0
 17 18  1  0
 18 19  2  0
 20 21  1  0
 20 18  1  0
 21 22  1  0
 22 23  1  0
 24 23  1  6
 24 25  1  0
 25 15  1  0
 26 24  1  0
 27 26  1  0
 28 26  2  0
M  END
$$$$
