AFR.pdb
     RDKit          3D

 28 28  0  0  1  0  0  0  0  0999 V2000
    8.3417  -18.9154   20.6439 C   0  0  0  0  0  0  0  0  0  0  0  0
    7.9592  -17.5200   20.2438 C   0  0  2  0  0  0  0  0  0  0  0  0
    8.4849  -17.1527   18.9659 N   0  0  0  0  0  0  0  0  0  0  0  0
    8.3946  -16.5955   21.3293 C   0  0  0  0  0  0  0  0  0  0  0  0
    9.5770  -16.1715   21.3590 O   0  0  0  0  0  0  0  0  0  0  0  0
    7.5264  -16.1533   22.3614 N   0  0  0  0  0  0  0  0  0  0  0  0
    7.9112  -15.2356   23.4157 C   0  0  1  0  0  0  0  0  0  0  0  0
    6.7536  -14.4671   23.9583 C   0  0  0  0  0  0  0  0  0  0  0  0
    7.0748  -13.5695   25.0801 C   0  0  0  0  0  0  0  0  0  0  0  0
    6.4986  -13.7789   26.3224 C   0  0  0  0  0  0  0  0  0  0  0  0
    6.7644  -12.9674   27.4043 C   0  0  0  0  0  0  0  0  0  0  0  0
    7.6265  -11.8977   27.2964 C   0  0  0  0  0  0  0  0  0  0  0  0
    8.2082  -11.6757   26.0665 C   0  0  0  0  0  0  0  0  0  0  0  0
    7.9346  -12.5005   24.9771 C   0  0  0  0  0  0  0  0  0  0  0  0
    8.6584  -15.9917   24.4387 C   0  0  0  0  0  0  0  0  0  0  0  0
    8.1617  -17.0384   24.9398 O   0  0  0  0  0  0  0  0  0  0  0  0
   16.4227  -15.2756   22.8576 N   0  0  0  0  0  0  0  0  0  0  0  0
   16.1371  -16.3275   23.7649 C   0  0  0  0  0  0  0  0  0  0  0  0
   17.0588  -17.0410   24.3392 N   0  0  0  0  0  0  0  0  0  0  0  0
   14.7805  -16.6318   24.0724 N   0  0  0  0  0  0  0  0  0  0  0  0
   13.6625  -15.8899   23.4932 C   0  0  0  0  0  0  0  0  0  0  0  0
   12.4003  -16.5299   23.9829 C   0  0  0  0  0  0  0  0  0  0  0  0
   12.1511  -16.3829   25.4418 C   0  0  0  0  0  0  0  0  0  0  0  0
   10.6897  -16.4891   25.8398 C   0  0  2  0  0  0  0  0  0  0  0  0
    9.9481  -15.6299   24.9295 N   0  0  0  0  0  0  0  0  0  0  0  0
   10.4828  -16.1479   27.2565 C   0  0  0  0  0  0  0  0  0  0  0  0
    9.8352  -14.9630   27.5668 O   0  0  0  0  0  0  0  0  0  0  0  0
   10.8583  -16.8657   28.2074 O   0  0  0  0  0  0  0  0  0  0  0  0
  2  1  1  1
  2  3  1  0
  4  5  2  0
  4  2  1  0
  6  4  1  0
  7  6  1  0
  7  8  1  1
  9 14  2  0
  9  8  1  0
 10  9  1  0
 11 12  1  0
 11 10  2  0
 12 13  2  0
 13 14  1  0
 15 16  2  0
 15  7  1  0
 17 18  1  0
 18 19  2  0
 20 21  1  0
 20 18  1  0
 21 22  1  0
 22 23  1  0
 24 23  1  6
 24 25  1  0
 25 15  1  0
 26 24  1  0
 27 26  1  0
 28 26  2  0
M  END
$$$$
