AFR.pdb
     RDKit          3D

 28 28  0  0  1  0  0  0  0  0999 V2000
    9.6020  -16.5038   19.3793 C   0  0  0  0  0  0  0  0  0  0  0  0
    9.0247  -17.2234   20.5635 C   0  0  2  0  0  0  0  0  0  0  0  0
    7.6926  -17.6865   20.3274 N   0  0  0  0  0  0  0  0  0  0  0  0
    9.1144  -16.3143   21.7416 C   0  0  0  0  0  0  0  0  0  0  0  0
   10.2355  -15.9201   22.1493 O   0  0  0  0  0  0  0  0  0  0  0  0
    7.9739  -15.8546   22.4506 N   0  0  0  0  0  0  0  0  0  0  0  0
    8.0303  -15.0546   23.6584 C   0  0  1  0  0  0  0  0  0  0  0  0
    7.0079  -13.9686   23.6755 C   0  0  0  0  0  0  0  0  0  0  0  0
    6.9229  -13.2150   24.9374 C   0  0  0  0  0  0  0  0  0  0  0  0
    7.8605  -12.2367   25.2251 C   0  0  0  0  0  0  0  0  0  0  0  0
    7.8270  -11.5042   26.3921 C   0  0  0  0  0  0  0  0  0  0  0  0
    6.8461  -11.7155   27.3367 C   0  0  0  0  0  0  0  0  0  0  0  0
    5.9054  -12.6860   27.0654 C   0  0  0  0  0  0  0  0  0  0  0  0
    5.9457  -13.4227   25.8832 C   0  0  0  0  0  0  0  0  0  0  0  0
    7.9575  -15.9618   24.8195 C   0  0  0  0  0  0  0  0  0  0  0  0
    6.8867  -16.5810   25.0720 O   0  0  0  0  0  0  0  0  0  0  0  0
    5.5724  -18.0836   22.6648 N   0  0  0  0  0  0  0  0  0  0  0  0
    5.5546  -19.4754   22.9364 C   0  0  0  0  0  0  0  0  0  0  0  0
    4.6643  -20.2843   22.4451 N   0  0  0  0  0  0  0  0  0  0  0  0
    6.5518  -20.0308   23.7875 N   0  0  0  0  0  0  0  0  0  0  0  0
    7.1025  -19.2999   24.9269 C   0  0  0  0  0  0  0  0  0  0  0  0
    8.5616  -19.6278   25.0049 C   0  0  0  0  0  0  0  0  0  0  0  0
    9.4673  -18.4480   25.0075 C   0  0  0  0  0  0  0  0  0  0  0  0
    9.3182  -17.5488   26.2218 C   0  0  2  0  0  0  0  0  0  0  0  0
    9.0370  -16.2134   25.7175 N   0  0  0  0  0  0  0  0  0  0  0  0
   10.5053  -17.6020   27.0904 C   0  0  0  0  0  0  0  0  0  0  0  0
   11.7485  -17.3517   26.5325 O   0  0  0  0  0  0  0  0  0  0  0  0
   10.4631  -17.8619   28.3116 O   0  0  0  0  0  0  0  0  0  0  0  0
  2  1  1  6
  2  3  1  0
  4  5  2  0
  4  2  1  0
  6  4  1  0
  7  6  1  0
  7  8  1  6
  9 14  2  0
  9  8  1  0
 10  9  1  0
 11 12  1  0
 11 10  2  0
 12 13  2  0
 13 14  1  0
 15 16  2  0
 15  7  1  0
 17 18  1  0
 18 19  2  0
 20 21  1  0
 20 18  1  0
 21 22  1  0
 22 23  1  0
 24 23  1  6
 24 25  1  0
 25 15  1  0
 26 24  1  0
 27 26  1  0
 28 26  2  0
M  END
$$$$
