AFR.pdb
     RDKit          3D

 28 28  0  0  1  0  0  0  0  0999 V2000
    6.4114  -19.1844   21.0964 C   0  0  0  0  0  0  0  0  0  0  0  0
    6.0648  -17.7705   20.7302 C   0  0  2  0  0  0  0  0  0  0  0  0
    6.3388  -17.4768   19.3579 N   0  0  0  0  0  0  0  0  0  0  0  0
    6.7892  -16.8633   21.6655 C   0  0  0  0  0  0  0  0  0  0  0  0
    7.9546  -16.4796   21.3948 O   0  0  0  0  0  0  0  0  0  0  0  0
    6.2229  -16.3938   22.8794 N   0  0  0  0  0  0  0  0  0  0  0  0
    6.9179  -15.5522   23.8336 C   0  0  1  0  0  0  0  0  0  0  0  0
    5.9860  -14.8318   24.7487 C   0  0  0  0  0  0  0  0  0  0  0  0
    6.6366  -13.9335   25.7168 C   0  0  0  0  0  0  0  0  0  0  0  0
    7.1679  -14.4456   26.8892 C   0  0  0  0  0  0  0  0  0  0  0  0
    7.7855  -13.6481   27.8285 C   0  0  0  0  0  0  0  0  0  0  0  0
    7.9033  -12.2880   27.6401 C   0  0  0  0  0  0  0  0  0  0  0  0
    7.3795  -11.7627   26.4782 C   0  0  0  0  0  0  0  0  0  0  0  0
    6.7564  -12.5754   25.5331 C   0  0  0  0  0  0  0  0  0  0  0  0
    7.9233  -16.3756   24.5321 C   0  0  0  0  0  0  0  0  0  0  0  0
    7.6500  -17.5634   24.8608 O   0  0  0  0  0  0  0  0  0  0  0  0
   16.0291  -18.0163   21.9050 N   0  0  0  0  0  0  0  0  0  0  0  0
   15.7273  -18.8899   22.9807 C   0  0  0  0  0  0  0  0  0  0  0  0
   16.5187  -19.8470   23.3627 N   0  0  0  0  0  0  0  0  0  0  0  0
   14.5020  -18.7260   23.6870 N   0  0  0  0  0  0  0  0  0  0  0  0
   13.6258  -17.5756   23.4758 C   0  0  0  0  0  0  0  0  0  0  0  0
   12.5458  -17.6406   24.5112 C   0  0  0  0  0  0  0  0  0  0  0  0
   11.3775  -16.7576   24.2509 C   0  0  0  0  0  0  0  0  0  0  0  0
   10.2748  -16.8584   25.2897 C   0  0  2  0  0  0  0  0  0  0  0  0
    9.2327  -15.9293   24.8804 N   0  0  0  0  0  0  0  0  0  0  0  0
   10.7787  -16.6019   26.6486 C   0  0  0  0  0  0  0  0  0  0  0  0
   11.4462  -17.6184   27.3125 O   0  0  0  0  0  0  0  0  0  0  0  0
   10.6411  -15.5147   27.2483 O   0  0  0  0  0  0  0  0  0  0  0  0
  2  1  1  1
  2  3  1  0
  4  5  2  0
  4  2  1  0
  6  4  1  0
  7  6  1  0
  7  8  1  1
  9 14  2  0
  9  8  1  0
 10  9  1  0
 11 12  1  0
 11 10  2  0
 12 13  2  0
 13 14  1  0
 15 16  2  0
 15  7  1  0
 17 18  1  0
 18 19  2  0
 20 21  1  0
 20 18  1  0
 21 22  1  0
 22 23  1  0
 24 23  1  6
 24 25  1  0
 25 15  1  0
 26 24  1  0
 27 26  1  0
 28 26  2  0
M  END
$$$$
