AFR.pdb
     RDKit          3D

 28 28  0  0  1  0  0  0  0  0999 V2000
    8.2269  -19.2551   21.2164 C   0  0  0  0  0  0  0  0  0  0  0  0
    8.3584  -17.8339   20.7513 C   0  0  2  0  0  0  0  0  0  0  0  0
    9.3749  -17.6738   19.7586 N   0  0  0  0  0  0  0  0  0  0  0  0
    8.5891  -16.9780   21.9500 C   0  0  0  0  0  0  0  0  0  0  0  0
    9.7525  -16.8219   22.3981 O   0  0  0  0  0  0  0  0  0  0  0  0
    7.5408  -16.3096   22.6348 N   0  0  0  0  0  0  0  0  0  0  0  0
    7.7331  -15.4602   23.7939 C   0  0  1  0  0  0  0  0  0  0  0  0
    6.6029  -14.5093   24.0022 C   0  0  0  0  0  0  0  0  0  0  0  0
    6.6894  -13.7008   25.2295 C   0  0  0  0  0  0  0  0  0  0  0  0
    7.6172  -12.6761   25.3207 C   0  0  0  0  0  0  0  0  0  0  0  0
    7.7399  -11.8912   26.4470 C   0  0  0  0  0  0  0  0  0  0  0  0
    6.9343  -12.0938   27.5466 C   0  0  0  0  0  0  0  0  0  0  0  0
    6.0057  -13.1100   27.4717 C   0  0  0  0  0  0  0  0  0  0  0  0
    5.8875  -13.8995   26.3295 C   0  0  0  0  0  0  0  0  0  0  0  0
    8.0115  -16.3214   24.9589 C   0  0  0  0  0  0  0  0  0  0  0  0
    7.1191  -17.0986   25.3984 O   0  0  0  0  0  0  0  0  0  0  0  0
   12.7648  -19.6404   22.5373 N   0  0  0  0  0  0  0  0  0  0  0  0
   11.6687  -20.5329   22.6523 C   0  0  0  0  0  0  0  0  0  0  0  0
   11.2030  -21.2196   21.6523 N   0  0  0  0  0  0  0  0  0  0  0  0
   11.0345  -20.6964   23.9166 N   0  0  0  0  0  0  0  0  0  0  0  0
   11.4317  -19.9292   25.0953 C   0  0  0  0  0  0  0  0  0  0  0  0
   10.3279  -18.9612   25.3909 C   0  0  0  0  0  0  0  0  0  0  0  0
   10.5360  -18.1292   26.6060 C   0  0  0  0  0  0  0  0  0  0  0  0
    9.4236  -17.1323   26.8785 C   0  0  2  0  0  0  0  0  0  0  0  0
    9.2536  -16.3565   25.6596 N   0  0  0  0  0  0  0  0  0  0  0  0
    9.7113  -16.3014   28.0589 C   0  0  0  0  0  0  0  0  0  0  0  0
   10.0574  -14.9735   27.8681 O   0  0  0  0  0  0  0  0  0  0  0  0
    9.6634  -16.7216   29.2343 O   0  0  0  0  0  0  0  0  0  0  0  0
  2  1  1  1
  2  3  1  0
  4  5  2  0
  4  2  1  0
  6  4  1  0
  7  6  1  0
  7  8  1  1
  9 14  2  0
  9  8  1  0
 10  9  1  0
 11 12  1  0
 11 10  2  0
 12 13  2  0
 13 14  1  0
 15 16  2  0
 15  7  1  0
 17 18  1  0
 18 19  2  0
 20 21  1  0
 20 18  1  0
 21 22  1  0
 22 23  1  0
 24 23  1  6
 24 25  1  0
 25 15  1  0
 26 24  1  0
 27 26  1  0
 28 26  2  0
M  END
$$$$
