AFR.pdb
     RDKit          3D

 28 28  0  0  1  0  0  0  0  0999 V2000
    8.0111  -12.8070   19.8131 C   0  0  0  0  0  0  0  0  0  0  0  0
    7.8967  -14.2671   20.1423 C   0  0  2  0  0  0  0  0  0  0  0  0
    6.5593  -14.7555   20.0106 N   0  0  0  0  0  0  0  0  0  0  0  0
    8.4493  -14.4737   21.5114 C   0  0  0  0  0  0  0  0  0  0  0  0
    9.6433  -14.1722   21.7610 O   0  0  0  0  0  0  0  0  0  0  0  0
    7.6833  -15.0065   22.5810 N   0  0  0  0  0  0  0  0  0  0  0  0
    8.1456  -15.0955   23.9521 C   0  0  1  0  0  0  0  0  0  0  0  0
    7.0490  -14.8883   24.9420 C   0  0  0  0  0  0  0  0  0  0  0  0
    6.9148  -13.5098   25.4410 C   0  0  0  0  0  0  0  0  0  0  0  0
    8.0036  -12.8691   26.0094 C   0  0  0  0  0  0  0  0  0  0  0  0
    7.9307  -11.5806   26.4929 C   0  0  0  0  0  0  0  0  0  0  0  0
    6.7556  -10.8632   26.4315 C   0  0  0  0  0  0  0  0  0  0  0  0
    5.6626  -11.4867   25.8687 C   0  0  0  0  0  0  0  0  0  0  0  0
    5.7439  -12.7899   25.3819 C   0  0  0  0  0  0  0  0  0  0  0  0
    8.8654  -16.3727   24.1169 C   0  0  0  0  0  0  0  0  0  0  0  0
    8.2386  -17.4659   24.0428 O   0  0  0  0  0  0  0  0  0  0  0  0
   16.9344  -19.2576   21.6893 N   0  0  0  0  0  0  0  0  0  0  0  0
   16.1543  -20.3571   22.1296 C   0  0  0  0  0  0  0  0  0  0  0  0
   16.5325  -21.5936   22.0018 N   0  0  0  0  0  0  0  0  0  0  0  0
   14.8924  -20.1136   22.7425 N   0  0  0  0  0  0  0  0  0  0  0  0
   14.3387  -18.7685   22.8837 C   0  0  0  0  0  0  0  0  0  0  0  0
   13.0305  -18.8970   23.6012 C   0  0  0  0  0  0  0  0  0  0  0  0
   12.2511  -17.6349   23.7094 C   0  0  0  0  0  0  0  0  0  0  0  0
   10.9284  -17.7783   24.4410 C   0  0  2  0  0  0  0  0  0  0  0  0
   10.2666  -16.4851   24.3597 N   0  0  0  0  0  0  0  0  0  0  0  0
   11.1164  -18.2470   25.8235 C   0  0  0  0  0  0  0  0  0  0  0  0
   10.9289  -17.3482   26.8610 O   0  0  0  0  0  0  0  0  0  0  0  0
   11.4384  -19.4159   26.1244 O   0  0  0  0  0  0  0  0  0  0  0  0
  2  1  1  1
  2  3  1  0
  4  5  2  0
  4  2  1  0
  6  4  1  0
  7  6  1  0
  7  8  1  1
  9 14  2  0
  9  8  1  0
 10  9  1  0
 11 12  1  0
 11 10  2  0
 12 13  2  0
 13 14  1  0
 15 16  2  0
 15  7  1  0
 17 18  1  0
 18 19  2  0
 20 21  1  0
 20 18  1  0
 21 22  1  0
 22 23  1  0
 24 23  1  1
 24 25  1  0
 25 15  1  0
 26 24  1  0
 27 26  1  0
 28 26  2  0
M  END
$$$$
