AFR.pdb
     RDKit          3D

 28 28  0  0  1  0  0  0  0  0999 V2000
    8.4014  -17.3681   18.6400 C   0  0  0  0  0  0  0  0  0  0  0  0
    7.5439  -17.5762   19.8544 C   0  0  2  0  0  0  0  0  0  0  0  0
    6.1491  -17.4421   19.5700 N   0  0  0  0  0  0  0  0  0  0  0  0
    8.0063  -16.6308   20.9103 C   0  0  0  0  0  0  0  0  0  0  0  0
    9.0169  -15.9109   20.7127 O   0  0  0  0  0  0  0  0  0  0  0  0
    7.3526  -16.4922   22.1626 N   0  0  0  0  0  0  0  0  0  0  0  0
    7.7100  -15.5093   23.1666 C   0  0  1  0  0  0  0  0  0  0  0  0
    6.5206  -14.8120   23.7359 C   0  0  0  0  0  0  0  0  0  0  0  0
    6.7906  -14.0008   24.9343 C   0  0  0  0  0  0  0  0  0  0  0  0
    6.3602  -14.4355   26.1773 C   0  0  0  0  0  0  0  0  0  0  0  0
    6.5858  -13.7135   27.3294 C   0  0  0  0  0  0  0  0  0  0  0  0
    7.2586  -12.5112   27.2952 C   0  0  0  0  0  0  0  0  0  0  0  0
    7.6934  -12.0646   26.0657 C   0  0  0  0  0  0  0  0  0  0  0  0
    7.4616  -12.8001   24.9050 C   0  0  0  0  0  0  0  0  0  0  0  0
    8.5577  -16.1676   24.1789 C   0  0  0  0  0  0  0  0  0  0  0  0
    8.0452  -16.9702   25.0076 O   0  0  0  0  0  0  0  0  0  0  0  0
   15.1003  -16.6907   20.2322 N   0  0  0  0  0  0  0  0  0  0  0  0
   14.1965  -15.5984   20.2660 C   0  0  0  0  0  0  0  0  0  0  0  0
   14.1233  -14.7067   19.3237 N   0  0  0  0  0  0  0  0  0  0  0  0
   13.3203  -15.4548   21.3791 N   0  0  0  0  0  0  0  0  0  0  0  0
   13.2187  -16.4658   22.4294 C   0  0  0  0  0  0  0  0  0  0  0  0
   12.4043  -15.8766   23.5394 C   0  0  0  0  0  0  0  0  0  0  0  0
   12.1712  -16.7857   24.6933 C   0  0  0  0  0  0  0  0  0  0  0  0
   10.7618  -16.7328   25.2554 C   0  0  2  0  0  0  0  0  0  0  0  0
    9.9647  -15.9704   24.3066 N   0  0  0  0  0  0  0  0  0  0  0  0
   10.7366  -16.1718   26.6159 C   0  0  0  0  0  0  0  0  0  0  0  0
   10.3184  -14.8620   26.7868 O   0  0  0  0  0  0  0  0  0  0  0  0
   11.0724  -16.8077   27.6374 O   0  0  0  0  0  0  0  0  0  0  0  0
  2  1  1  6
  2  3  1  0
  4  5  2  0
  4  2  1  0
  6  4  1  0
  7  6  1  0
  7  8  1  1
  9 14  2  0
  9  8  1  0
 10  9  1  0
 11 12  1  0
 11 10  2  0
 12 13  2  0
 13 14  1  0
 15 16  2  0
 15  7  1  0
 17 18  1  0
 18 19  2  0
 20 21  1  0
 20 18  1  0
 21 22  1  0
 22 23  1  0
 24 23  1  6
 24 25  1  0
 25 15  1  0
 26 24  1  0
 27 26  1  0
 28 26  2  0
M  END
$$$$
