AFR.pdb
     RDKit          3D

 28 28  0  0  1  0  0  0  0  0999 V2000
    8.0329  -12.6880   18.3479 C   0  0  0  0  0  0  0  0  0  0  0  0
    8.1414  -14.0594   18.9485 C   0  0  2  0  0  0  0  0  0  0  0  0
    6.9753  -14.8535   18.7158 N   0  0  0  0  0  0  0  0  0  0  0  0
    8.4470  -13.9025   20.3992 C   0  0  0  0  0  0  0  0  0  0  0  0
    9.5869  -13.5217   20.7652 O   0  0  0  0  0  0  0  0  0  0  0  0
    7.4977  -14.1658   21.4210 N   0  0  0  0  0  0  0  0  0  0  0  0
    7.7584  -14.0093   22.8385 C   0  0  1  0  0  0  0  0  0  0  0  0
    6.5868  -13.4593   23.5801 C   0  0  0  0  0  0  0  0  0  0  0  0
    6.8245  -13.1939   25.0085 C   0  0  0  0  0  0  0  0  0  0  0  0
    6.2165  -13.9834   25.9709 C   0  0  0  0  0  0  0  0  0  0  0  0
    6.4045  -13.7762   27.3205 C   0  0  0  0  0  0  0  0  0  0  0  0
    7.2165  -12.7611   27.7781 C   0  0  0  0  0  0  0  0  0  0  0  0
    7.8289  -11.9663   26.8328 C   0  0  0  0  0  0  0  0  0  0  0  0
    7.6340  -12.1818   25.4699 C   0  0  0  0  0  0  0  0  0  0  0  0
    8.2473  -15.2977   23.3652 C   0  0  0  0  0  0  0  0  0  0  0  0
    7.7919  -16.3821   22.9065 O   0  0  0  0  0  0  0  0  0  0  0  0
   15.4754  -18.9944   24.0194 N   0  0  0  0  0  0  0  0  0  0  0  0
   14.6609  -20.0425   23.5198 C   0  0  0  0  0  0  0  0  0  0  0  0
   15.0668  -21.2729   23.4212 N   0  0  0  0  0  0  0  0  0  0  0  0
   13.3320  -19.7510   23.1001 N   0  0  0  0  0  0  0  0  0  0  0  0
   12.8525  -18.3826   22.9174 C   0  0  0  0  0  0  0  0  0  0  0  0
   11.7613  -18.1545   23.9174 C   0  0  0  0  0  0  0  0  0  0  0  0
   10.9524  -16.9273   23.6897 C   0  0  0  0  0  0  0  0  0  0  0  0
    9.8413  -16.7147   24.7024 C   0  0  2  0  0  0  0  0  0  0  0  0
    9.2329  -15.4311   24.3879 N   0  0  0  0  0  0  0  0  0  0  0  0
   10.3388  -16.7968   26.0851 C   0  0  0  0  0  0  0  0  0  0  0  0
   10.5291  -18.0477   26.6496 O   0  0  0  0  0  0  0  0  0  0  0  0
   10.6028  -15.8000   26.7903 O   0  0  0  0  0  0  0  0  0  0  0  0
  2  1  1  1
  2  3  1  0
  4  5  2  0
  4  2  1  0
  6  4  1  0
  7  6  1  0
  7  8  1  1
  9 14  2  0
  9  8  1  0
 10  9  1  0
 11 12  1  0
 11 10  2  0
 12 13  2  0
 13 14  1  0
 15 16  2  0
 15  7  1  0
 17 18  1  0
 18 19  2  0
 20 21  1  0
 20 18  1  0
 21 22  1  0
 22 23  1  0
 24 23  1  6
 24 25  1  0
 25 15  1  0
 26 24  1  0
 27 26  1  0
 28 26  2  0
M  END
$$$$
