AFR.pdb
     RDKit          3D

 28 28  0  0  1  0  0  0  0  0999 V2000
    7.4610  -12.9760   20.2227 C   0  0  0  0  0  0  0  0  0  0  0  0
    7.4244  -14.4238   20.6176 C   0  0  2  0  0  0  0  0  0  0  0  0
    6.0956  -14.9513   20.6440 N   0  0  0  0  0  0  0  0  0  0  0  0
    8.1205  -14.5598   21.9289 C   0  0  0  0  0  0  0  0  0  0  0  0
    9.3294  -14.2351   22.0371 O   0  0  0  0  0  0  0  0  0  0  0  0
    7.4787  -15.0491   23.0965 N   0  0  0  0  0  0  0  0  0  0  0  0
    8.0968  -15.1033   24.4068 C   0  0  1  0  0  0  0  0  0  0  0  0
    7.1368  -14.7990   25.5072 C   0  0  0  0  0  0  0  0  0  0  0  0
    7.0097  -13.3715   25.8438 C   0  0  0  0  0  0  0  0  0  0  0  0
    8.1433  -12.6119   26.0826 C   0  0  0  0  0  0  0  0  0  0  0  0
    8.0793  -11.2729   26.4027 C   0  0  0  0  0  0  0  0  0  0  0  0
    6.8686  -10.6220   26.5006 C   0  0  0  0  0  0  0  0  0  0  0  0
    5.7308  -11.3640   26.2660 C   0  0  0  0  0  0  0  0  0  0  0  0
    5.8034  -12.7176   25.9428 C   0  0  0  0  0  0  0  0  0  0  0  0
    8.7726  -16.4072   24.5472 C   0  0  0  0  0  0  0  0  0  0  0  0
    8.1071  -17.4341   24.8574 O   0  0  0  0  0  0  0  0  0  0  0  0
   15.4314  -21.1669   21.4653 N   0  0  0  0  0  0  0  0  0  0  0  0
   14.7388  -20.0816   20.8706 C   0  0  0  0  0  0  0  0  0  0  0  0
   14.9225  -19.7102   19.6390 N   0  0  0  0  0  0  0  0  0  0  0  0
   13.7936  -19.3512   21.6454 N   0  0  0  0  0  0  0  0  0  0  0  0
   12.9059  -19.9986   22.6090 C   0  0  0  0  0  0  0  0  0  0  0  0
   12.8863  -19.1469   23.8406 C   0  0  0  0  0  0  0  0  0  0  0  0
   12.0778  -17.9037   23.7271 C   0  0  0  0  0  0  0  0  0  0  0  0
   10.7741  -17.9331   24.5049 C   0  0  2  0  0  0  0  0  0  0  0  0
   10.1698  -16.6185   24.3522 N   0  0  0  0  0  0  0  0  0  0  0  0
   10.9849  -18.3141   25.9109 C   0  0  0  0  0  0  0  0  0  0  0  0
   11.2849  -19.6347   26.2035 O   0  0  0  0  0  0  0  0  0  0  0  0
   10.9092  -17.5145   26.8676 O   0  0  0  0  0  0  0  0  0  0  0  0
  2  1  1  1
  2  3  1  0
  4  5  2  0
  4  2  1  0
  6  4  1  0
  7  6  1  0
  7  8  1  1
  9 14  2  0
  9  8  1  0
 10  9  1  0
 11 12  1  0
 11 10  2  0
 12 13  2  0
 13 14  1  0
 15 16  2  0
 15  7  1  0
 17 18  1  0
 18 19  2  0
 20 21  1  0
 20 18  1  0
 21 22  1  0
 22 23  1  0
 24 23  1  6
 24 25  1  0
 25 15  1  0
 26 24  1  0
 27 26  1  0
 28 26  2  0
M  END
$$$$
