AFR.pdb
     RDKit          3D

 28 28  0  0  1  0  0  0  0  0999 V2000
    8.4692  -18.0409   20.2116 C   0  0  0  0  0  0  0  0  0  0  0  0
    8.7721  -16.5898   19.9746 C   0  0  2  0  0  0  0  0  0  0  0  0
    9.9031  -16.3983   19.1211 N   0  0  0  0  0  0  0  0  0  0  0  0
    8.9392  -15.9329   21.3024 C   0  0  0  0  0  0  0  0  0  0  0  0
   10.0754  -15.8684   21.8348 O   0  0  0  0  0  0  0  0  0  0  0  0
    7.8582  -15.3592   22.0215 N   0  0  0  0  0  0  0  0  0  0  0  0
    7.9926  -14.6827   23.2967 C   0  0  1  0  0  0  0  0  0  0  0  0
    6.7543  -13.9505   23.6910 C   0  0  0  0  0  0  0  0  0  0  0  0
    6.8185  -13.2817   25.0009 C   0  0  0  0  0  0  0  0  0  0  0  0
    6.1534  -13.8228   26.0890 C   0  0  0  0  0  0  0  0  0  0  0  0
    6.1802  -13.2357   27.3357 C   0  0  0  0  0  0  0  0  0  0  0  0
    6.8793  -12.0690   27.5577 C   0  0  0  0  0  0  0  0  0  0  0  0
    7.5467  -11.5177   26.4849 C   0  0  0  0  0  0  0  0  0  0  0  0
    7.5150  -12.1170   25.2272 C   0  0  0  0  0  0  0  0  0  0  0  0
    8.4494  -15.6658   24.2973 C   0  0  0  0  0  0  0  0  0  0  0  0
    7.7969  -16.7307   24.4813 O   0  0  0  0  0  0  0  0  0  0  0  0
   15.5279  -19.0304   22.9487 N   0  0  0  0  0  0  0  0  0  0  0  0
   14.3476  -18.2494   22.8578 C   0  0  0  0  0  0  0  0  0  0  0  0
   13.8681  -17.8140   21.7314 N   0  0  0  0  0  0  0  0  0  0  0  0
   13.6414  -17.9152   24.0481 N   0  0  0  0  0  0  0  0  0  0  0  0
   12.6323  -18.7965   24.6318 C   0  0  0  0  0  0  0  0  0  0  0  0
   11.3599  -18.0134   24.7331 C   0  0  0  0  0  0  0  0  0  0  0  0
   11.3359  -16.9994   25.8211 C   0  0  0  0  0  0  0  0  0  0  0  0
    9.9517  -16.4693   26.1504 C   0  0  2  0  0  0  0  0  0  0  0  0
    9.6141  -15.5135   25.1068 N   0  0  0  0  0  0  0  0  0  0  0  0
    9.8946  -15.8938   27.5039 C   0  0  0  0  0  0  0  0  0  0  0  0
    9.9038  -16.7518   28.5916 O   0  0  0  0  0  0  0  0  0  0  0  0
    9.8370  -14.6679   27.7371 O   0  0  0  0  0  0  0  0  0  0  0  0
  2  1  1  1
  2  3  1  0
  4  5  2  0
  4  2  1  0
  6  4  1  0
  7  6  1  0
  7  8  1  1
  9 14  2  0
  9  8  1  0
 10  9  1  0
 11 12  1  0
 11 10  2  0
 12 13  2  0
 13 14  1  0
 15 16  2  0
 15  7  1  0
 17 18  1  0
 18 19  2  0
 20 21  1  0
 20 18  1  0
 21 22  1  0
 22 23  1  0
 24 23  1  6
 24 25  1  0
 25 15  1  0
 26 24  1  0
 27 26  1  0
 28 26  2  0
M  END
$$$$
