CHW.pdb
     RDKit          3D

 31 33  0  0  1  0  0  0  0  0999 V2000
    9.4353  -15.0849   18.5608 N   0  0  0  0  0  0  0  0  0  0  0  0
    8.7684  -14.2204   19.4948 C   0  0  1  0  0  0  0  0  0  0  0  0
    7.5464  -13.5827   18.8290 C   0  0  0  0  0  0  0  0  0  0  0  0
    8.0845  -12.6681   17.3627 S   0  0  0  0  0  0  0  0  0  0  0  0
    8.2689  -15.0384   20.6368 C   0  0  0  0  0  0  0  0  0  0  0  0
    7.1761  -14.6911   21.1629 O   0  0  0  0  0  0  0  0  0  0  0  0
    9.0117  -16.1720   21.1049 N   0  0  0  0  0  0  0  0  0  0  0  0
    8.6048  -16.8226   22.3045 C   0  0  1  0  0  0  0  0  0  0  0  0
    8.3633  -18.2829   22.0951 C   0  0  0  0  0  0  0  0  0  0  0  0
    7.9231  -18.9311   23.3444 C   0  0  0  0  0  0  0  0  0  0  0  0
    6.7374  -18.7819   24.0346 C   0  0  0  0  0  0  0  0  0  0  0  0
    6.7653  -19.5708   25.1207 N   0  0  0  0  0  0  0  0  0  0  0  0
    7.9423  -20.2094   25.1240 C   0  0  0  0  0  0  0  0  0  0  0  0
    8.6461  -19.8333   24.0620 N   0  0  0  0  0  0  0  0  0  0  0  0
    9.5836  -16.5637   23.4076 C   0  0  0  0  0  0  0  0  0  0  0  0
   10.5888  -17.2950   23.4954 O   0  0  0  0  0  0  0  0  0  0  0  0
    9.3818  -15.5185   24.3323 N   0  0  0  0  0  0  0  0  0  0  0  0
    9.9968  -15.6637   25.6680 C   0  0  1  0  0  0  0  0  0  0  0  0
    8.9381  -15.6855   26.7116 C   0  0  0  0  0  0  0  0  0  0  0  0
    7.7288  -14.8943   26.4725 C   0  0  0  0  0  0  0  0  0  0  0  0
    6.4466  -15.3721   26.1536 C   0  0  0  0  0  0  0  0  0  0  0  0
    5.6066  -14.3408   25.9680 N   0  0  0  0  0  0  0  0  0  0  0  0
    6.2808  -13.1864   26.1525 C   0  0  0  0  0  0  0  0  0  0  0  0
    5.9129  -11.8561   26.1042 C   0  0  0  0  0  0  0  0  0  0  0  0
    6.8469  -10.8770   26.3668 C   0  0  0  0  0  0  0  0  0  0  0  0
    8.1539  -11.1703   26.6808 C   0  0  0  0  0  0  0  0  0  0  0  0
    8.5016  -12.4969   26.7232 C   0  0  0  0  0  0  0  0  0  0  0  0
    7.5865  -13.5234   26.4630 C   0  0  0  0  0  0  0  0  0  0  0  0
   10.8481  -16.8514   25.6342 C   0  0  0  0  0  0  0  0  0  0  0  0
   11.6465  -17.2160   26.7242 O   0  0  0  0  0  0  0  0  0  0  0  0
   10.9232  -17.6168   24.6417 O   0  0  0  0  0  0  0  0  0  0  0  0
  2  1  1  6
  2  3  1  0
  3  4  1  0
  5  2  1  0
  5  6  2  0
  7  5  1  0
  8  7  1  0
  8  9  1  6
 10  9  1  0
 11 10  2  0
 12 11  1  0
 13 12  1  0
 13 14  2  0
 14 10  1  0
 15 17  1  0
 15  8  1  0
 16 15  2  0
 18 17  1  0
 18 29  1  0
 18 19  1  1
 20 19  1  0
 21 20  2  0
 22 23  1  0
 22 21  1  0
 23 28  2  0
 24 25  2  0
 24 23  1  0
 25 26  1  0
 26 27  2  0
 28 27  1  0
 28 20  1  0
 29 30  1  0
 31 29  2  0
M  END
$$$$
