CHW.pdb
     RDKit          3D

 31 33  0  0  1  0  0  0  0  0999 V2000
    9.2942  -19.4889   20.4909 N   0  0  0  0  0  0  0  0  0  0  0  0
   10.4358  -18.7774   19.9859 C   0  0  1  0  0  0  0  0  0  0  0  0
   10.2986  -18.5846   18.4734 C   0  0  0  0  0  0  0  0  0  0  0  0
    8.6798  -17.8579   18.1164 S   0  0  0  0  0  0  0  0  0  0  0  0
   10.4677  -17.4194   20.6002 C   0  0  0  0  0  0  0  0  0  0  0  0
   11.4583  -16.6858   20.3311 O   0  0  0  0  0  0  0  0  0  0  0  0
    9.4069  -16.9794   21.4585 N   0  0  0  0  0  0  0  0  0  0  0  0
    9.4488  -15.6615   21.9963 C   0  0  1  0  0  0  0  0  0  0  0  0
    8.1792  -14.9136   21.7447 C   0  0  0  0  0  0  0  0  0  0  0  0
    8.1032  -14.4554   20.3450 C   0  0  0  0  0  0  0  0  0  0  0  0
    8.9983  -14.6501   19.3128 C   0  0  0  0  0  0  0  0  0  0  0  0
    8.5205  -14.0581   18.2066 N   0  0  0  0  0  0  0  0  0  0  0  0
    7.3466  -13.4979   18.5251 C   0  0  0  0  0  0  0  0  0  0  0  0
    7.0856  -13.7300   19.8068 N   0  0  0  0  0  0  0  0  0  0  0  0
    9.8091  -15.6918   23.4493 C   0  0  0  0  0  0  0  0  0  0  0  0
   10.5930  -14.8273   23.8864 O   0  0  0  0  0  0  0  0  0  0  0  0
    9.2791  -16.6727   24.3125 N   0  0  0  0  0  0  0  0  0  0  0  0
    9.8035  -16.7189   25.6932 C   0  0  1  0  0  0  0  0  0  0  0  0
    8.6879  -16.5573   26.6626 C   0  0  0  0  0  0  0  0  0  0  0  0
    7.6590  -15.5604   26.3577 C   0  0  0  0  0  0  0  0  0  0  0  0
    6.4150  -15.7800   25.7424 C   0  0  0  0  0  0  0  0  0  0  0  0
    5.7647  -14.6142   25.5953 N   0  0  0  0  0  0  0  0  0  0  0  0
    6.5291  -13.6191   26.0920 C   0  0  0  0  0  0  0  0  0  0  0  0
    6.3483  -12.2552   26.2122 C   0  0  0  0  0  0  0  0  0  0  0  0
    7.3278  -11.4833   26.7994 C   0  0  0  0  0  0  0  0  0  0  0  0
    8.4998  -12.0201   27.2804 C   0  0  0  0  0  0  0  0  0  0  0  0
    8.6625  -13.3765   27.1516 C   0  0  0  0  0  0  0  0  0  0  0  0
    7.6949  -14.1978   26.5619 C   0  0  0  0  0  0  0  0  0  0  0  0
   10.5629  -17.9598   25.8346 C   0  0  0  0  0  0  0  0  0  0  0  0
   11.2198  -18.2891   27.0256 O   0  0  0  0  0  0  0  0  0  0  0  0
   10.6788  -18.8050   24.9133 O   0  0  0  0  0  0  0  0  0  0  0  0
  2  1  1  1
  2  3  1  0
  3  4  1  0
  5  2  1  0
  5  6  2  0
  7  5  1  0
  8  7  1  0
  8  9  1  1
 10  9  1  0
 11 10  2  0
 12 11  1  0
 13 12  1  0
 13 14  2  0
 14 10  1  0
 15 17  1  0
 15  8  1  0
 16 15  2  0
 18 17  1  0
 18 29  1  0
 18 19  1  1
 20 19  1  0
 21 20  2  0
 22 23  1  0
 22 21  1  0
 23 28  2  0
 24 25  2  0
 24 23  1  0
 25 26  1  0
 26 27  2  0
 28 27  1  0
 28 20  1  0
 29 30  1  0
 31 29  2  0
M  END
$$$$
