CHW.pdb
     RDKit          3D

 31 33  0  0  1  0  0  0  0  0999 V2000
    6.7653  -14.9729   19.1647 N   0  0  0  0  0  0  0  0  0  0  0  0
    8.1265  -14.7500   19.5670 C   0  0  1  0  0  0  0  0  0  0  0  0
    8.2701  -13.3425   20.1516 C   0  0  0  0  0  0  0  0  0  0  0  0
    8.1710  -12.1336   18.8082 S   0  0  0  0  0  0  0  0  0  0  0  0
    8.4724  -15.7129   20.6513 C   0  0  0  0  0  0  0  0  0  0  0  0
    7.5954  -15.9330   21.5312 O   0  0  0  0  0  0  0  0  0  0  0  0
    9.7538  -16.3557   20.6778 N   0  0  0  0  0  0  0  0  0  0  0  0
   10.0324  -17.3092   21.6981 C   0  0  1  0  0  0  0  0  0  0  0  0
   11.1119  -18.2615   21.2947 C   0  0  0  0  0  0  0  0  0  0  0  0
   11.3478  -19.2698   22.3447 C   0  0  0  0  0  0  0  0  0  0  0  0
   10.8203  -19.3445   23.6177 C   0  0  0  0  0  0  0  0  0  0  0  0
   11.3111  -20.4352   24.2275 N   0  0  0  0  0  0  0  0  0  0  0  0
   12.1336  -21.0435   23.3633 C   0  0  0  0  0  0  0  0  0  0  0  0
   12.1636  -20.3527   22.2291 N   0  0  0  0  0  0  0  0  0  0  0  0
   10.3367  -16.6259   22.9952 C   0  0  0  0  0  0  0  0  0  0  0  0
   11.0551  -15.6078   22.9774 O   0  0  0  0  0  0  0  0  0  0  0  0
    9.8273  -17.1155   24.2153 N   0  0  0  0  0  0  0  0  0  0  0  0
   10.1963  -16.3880   25.4475 C   0  0  1  0  0  0  0  0  0  0  0  0
    9.7655  -14.9688   25.3441 C   0  0  0  0  0  0  0  0  0  0  0  0
    8.3388  -14.6764   25.5015 C   0  0  0  0  0  0  0  0  0  0  0  0
    7.2607  -15.5522   25.2898 C   0  0  0  0  0  0  0  0  0  0  0  0
    6.1003  -14.9082   25.4961 N   0  0  0  0  0  0  0  0  0  0  0  0
    6.3625  -13.6300   25.8404 C   0  0  0  0  0  0  0  0  0  0  0  0
    5.5618  -12.5551   26.1733 C   0  0  0  0  0  0  0  0  0  0  0  0
    6.1386  -11.3487   26.5080 C   0  0  0  0  0  0  0  0  0  0  0  0
    7.5018  -11.1633   26.5259 C   0  0  0  0  0  0  0  0  0  0  0  0
    8.2815  -12.2417   26.1915 C   0  0  0  0  0  0  0  0  0  0  0  0
    7.7385  -13.4841   25.8447 C   0  0  0  0  0  0  0  0  0  0  0  0
    9.6280  -17.1199   26.5779 C   0  0  0  0  0  0  0  0  0  0  0  0
   10.0182  -16.8571   27.8959 O   0  0  0  0  0  0  0  0  0  0  0  0
    8.7638  -18.0217   26.4500 O   0  0  0  0  0  0  0  0  0  0  0  0
  2  1  1  1
  2  3  1  0
  3  4  1  0
  5  2  1  0
  5  6  2  0
  7  5  1  0
  8  7  1  0
  8  9  1  6
 10  9  1  0
 11 10  2  0
 12 11  1  0
 13 12  1  0
 13 14  2  0
 14 10  1  0
 15 17  1  0
 15  8  1  0
 16 15  2  0
 18 17  1  0
 18 29  1  0
 18 19  1  6
 20 19  1  0
 21 20  2  0
 22 23  1  0
 22 21  1  0
 23 28  2  0
 24 25  2  0
 24 23  1  0
 25 26  1  0
 26 27  2  0
 28 27  1  0
 28 20  1  0
 29 30  1  0
 31 29  2  0
M  END
$$$$
