CHW.pdb
     RDKit          3D

 31 33  0  0  1  0  0  0  0  0999 V2000
    7.2696  -14.5127   18.0455 N   0  0  0  0  0  0  0  0  0  0  0  0
    8.1895  -14.1178   19.0762 C   0  0  1  0  0  0  0  0  0  0  0  0
    7.5341  -13.0732   19.9831 C   0  0  0  0  0  0  0  0  0  0  0  0
    8.6991  -12.6133   21.2899 S   0  0  0  0  0  0  0  0  0  0  0  0
    8.4999  -15.3033   19.9253 C   0  0  0  0  0  0  0  0  0  0  0  0
    7.5242  -15.9716   20.3647 O   0  0  0  0  0  0  0  0  0  0  0  0
    9.8578  -15.6570   20.2198 N   0  0  0  0  0  0  0  0  0  0  0  0
   10.1174  -16.7447   21.1015 C   0  0  1  0  0  0  0  0  0  0  0  0
   11.1583  -17.6697   20.5580 C   0  0  0  0  0  0  0  0  0  0  0  0
   10.6498  -18.4103   19.3885 C   0  0  0  0  0  0  0  0  0  0  0  0
    9.4186  -18.3276   18.7706 C   0  0  0  0  0  0  0  0  0  0  0  0
    9.3927  -19.1852   17.7380 N   0  0  0  0  0  0  0  0  0  0  0  0
   10.5808  -19.8018   17.6973 C   0  0  0  0  0  0  0  0  0  0  0  0
   11.3441  -19.3445   18.6836 N   0  0  0  0  0  0  0  0  0  0  0  0
   10.4619  -16.2477   22.4713 C   0  0  0  0  0  0  0  0  0  0  0  0
   11.2166  -15.2614   22.5743 O   0  0  0  0  0  0  0  0  0  0  0  0
    9.9498  -16.8748   23.6256 N   0  0  0  0  0  0  0  0  0  0  0  0
   10.3447  -16.3161   24.9353 C   0  0  1  0  0  0  0  0  0  0  0  0
    9.8994  -14.9011   25.0356 C   0  0  0  0  0  0  0  0  0  0  0  0
    8.5021  -14.6502   25.3962 C   0  0  0  0  0  0  0  0  0  0  0  0
    7.4222  -15.5436   25.2964 C   0  0  0  0  0  0  0  0  0  0  0  0
    6.2885  -14.9368   25.6840 N   0  0  0  0  0  0  0  0  0  0  0  0
    6.5704  -13.6665   26.0419 C   0  0  0  0  0  0  0  0  0  0  0  0
    5.8019  -12.6252   26.5239 C   0  0  0  0  0  0  0  0  0  0  0  0
    6.3955  -11.4187   26.8269 C   0  0  0  0  0  0  0  0  0  0  0  0
    7.7446  -11.2004   26.6680 C   0  0  0  0  0  0  0  0  0  0  0  0
    8.4922  -12.2458   26.1872 C   0  0  0  0  0  0  0  0  0  0  0  0
    7.9312  -13.4871   25.8662 C   0  0  0  0  0  0  0  0  0  0  0  0
    9.8122  -17.2006   25.9701 C   0  0  0  0  0  0  0  0  0  0  0  0
    9.0561  -18.3343   25.6515 O   0  0  0  0  0  0  0  0  0  0  0  0
    9.9915  -17.0100   27.1981 O   0  0  0  0  0  0  0  0  0  0  0  0
  2  1  1  6
  2  3  1  0
  3  4  1  0
  5  2  1  0
  5  6  2  0
  7  5  1  0
  8  7  1  0
  8  9  1  6
 10  9  1  0
 11 10  2  0
 12 11  1  0
 13 12  1  0
 13 14  2  0
 14 10  1  0
 15 17  1  0
 15  8  1  0
 16 15  2  0
 18 17  1  0
 18 29  1  0
 18 19  1  1
 20 19  1  0
 21 20  2  0
 22 23  1  0
 22 21  1  0
 23 28  2  0
 24 25  2  0
 24 23  1  0
 25 26  1  0
 26 27  2  0
 28 27  1  0
 28 20  1  0
 29 30  1  0
 31 29  2  0
M  END
$$$$
