CHW.pdb
     RDKit          3D

 31 33  0  0  1  0  0  0  0  0999 V2000
    8.3578  -14.6048   17.5103 N   0  0  0  0  0  0  0  0  0  0  0  0
    8.7566  -14.1182   18.8020 C   0  0  1  0  0  0  0  0  0  0  0  0
    7.8161  -12.9947   19.2454 C   0  0  0  0  0  0  0  0  0  0  0  0
    8.2892  -12.4508   20.9056 S   0  0  0  0  0  0  0  0  0  0  0  0
    8.6214  -15.2214   19.7955 C   0  0  0  0  0  0  0  0  0  0  0  0
    7.7898  -16.1342   19.5369 O   0  0  0  0  0  0  0  0  0  0  0  0
    9.4130  -15.2307   20.9909 N   0  0  0  0  0  0  0  0  0  0  0  0
    9.5672  -16.4482   21.7133 C   0  0  1  0  0  0  0  0  0  0  0  0
   10.4207  -17.4310   20.9783 C   0  0  0  0  0  0  0  0  0  0  0  0
    9.6199  -18.2142   20.0191 C   0  0  0  0  0  0  0  0  0  0  0  0
    8.6222  -19.1360   20.2625 C   0  0  0  0  0  0  0  0  0  0  0  0
    8.1657  -19.6015   19.0889 N   0  0  0  0  0  0  0  0  0  0  0  0
    8.8564  -18.9907   18.1177 C   0  0  0  0  0  0  0  0  0  0  0  0
    9.7326  -18.1552   18.6644 N   0  0  0  0  0  0  0  0  0  0  0  0
   10.0727  -16.1842   23.0978 C   0  0  0  0  0  0  0  0  0  0  0  0
   11.0836  -15.4687   23.2360 O   0  0  0  0  0  0  0  0  0  0  0  0
    9.4271  -16.7286   24.2269 N   0  0  0  0  0  0  0  0  0  0  0  0
    9.9768  -16.3873   25.5553 C   0  0  1  0  0  0  0  0  0  0  0  0
    8.8786  -16.3264   26.5557 C   0  0  0  0  0  0  0  0  0  0  0  0
    7.7044  -15.5135   26.2301 C   0  0  0  0  0  0  0  0  0  0  0  0
    6.4825  -15.9561   25.6960 C   0  0  0  0  0  0  0  0  0  0  0  0
    5.6643  -14.9101   25.4962 N   0  0  0  0  0  0  0  0  0  0  0  0
    6.2946  -13.7799   25.8792 C   0  0  0  0  0  0  0  0  0  0  0  0
    5.9222  -12.4503   25.9074 C   0  0  0  0  0  0  0  0  0  0  0  0
    6.8012  -11.5025   26.3861 C   0  0  0  0  0  0  0  0  0  0  0  0
    8.0566  -11.8271   26.8458 C   0  0  0  0  0  0  0  0  0  0  0  0
    8.4098  -13.1525   26.8094 C   0  0  0  0  0  0  0  0  0  0  0  0
    7.5497  -14.1476   26.3312 C   0  0  0  0  0  0  0  0  0  0  0  0
   11.0287  -17.3558   25.8587 C   0  0  0  0  0  0  0  0  0  0  0  0
   11.8946  -17.1859   26.9449 O   0  0  0  0  0  0  0  0  0  0  0  0
   11.2278  -18.3920   25.1782 O   0  0  0  0  0  0  0  0  0  0  0  0
  2  1  1  6
  2  3  1  0
  3  4  1  0
  5  2  1  0
  5  6  2  0
  7  5  1  0
  8  7  1  0
  8  9  1  6
 10  9  1  0
 11 10  2  0
 12 11  1  0
 13 12  1  0
 13 14  2  0
 14 10  1  0
 15 17  1  0
 15  8  1  0
 16 15  2  0
 18 17  1  0
 18 29  1  0
 18 19  1  1
 20 19  1  0
 21 20  2  0
 22 23  1  0
 22 21  1  0
 23 28  2  0
 24 25  2  0
 24 23  1  0
 25 26  1  0
 26 27  2  0
 28 27  1  0
 28 20  1  0
 29 30  1  0
 31 29  2  0
M  END
$$$$
