CHW.pdb
     RDKit          3D

 31 33  0  0  1  0  0  0  0  0999 V2000
    7.1701  -15.1791   18.8301 N   0  0  0  0  0  0  0  0  0  0  0  0
    8.1164  -14.6773   19.7879 C   0  0  1  0  0  0  0  0  0  0  0  0
    7.4735  -13.5613   20.6154 C   0  0  0  0  0  0  0  0  0  0  0  0
    8.6929  -12.9216   21.7901 S   0  0  0  0  0  0  0  0  0  0  0  0
    8.4737  -15.7738   20.7325 C   0  0  0  0  0  0  0  0  0  0  0  0
    7.5503  -16.5582   21.0844 O   0  0  0  0  0  0  0  0  0  0  0  0
    9.8176  -15.9185   21.2109 N   0  0  0  0  0  0  0  0  0  0  0  0
   10.1307  -16.9945   22.0897 C   0  0  1  0  0  0  0  0  0  0  0  0
   11.2043  -17.8750   21.5361 C   0  0  0  0  0  0  0  0  0  0  0  0
   10.7256  -18.6131   20.3525 C   0  0  0  0  0  0  0  0  0  0  0  0
   11.0538  -18.4391   19.0234 C   0  0  0  0  0  0  0  0  0  0  0  0
   10.3802  -19.3385   18.2887 N   0  0  0  0  0  0  0  0  0  0  0  0
    9.6384  -20.0705   19.1297 C   0  0  0  0  0  0  0  0  0  0  0  0
    9.8377  -19.6440   20.3719 N   0  0  0  0  0  0  0  0  0  0  0  0
   10.4669  -16.4835   23.4564 C   0  0  0  0  0  0  0  0  0  0  0  0
   11.2240  -15.4986   23.5541 O   0  0  0  0  0  0  0  0  0  0  0  0
    9.9443  -17.0963   24.6138 N   0  0  0  0  0  0  0  0  0  0  0  0
   10.3620  -16.5486   25.9211 C   0  0  1  0  0  0  0  0  0  0  0  0
    9.8864  -15.1465   26.0563 C   0  0  0  0  0  0  0  0  0  0  0  0
    8.4433  -14.9246   26.1744 C   0  0  0  0  0  0  0  0  0  0  0  0
    7.4215  -15.8824   26.0615 C   0  0  0  0  0  0  0  0  0  0  0  0
    6.2228  -15.2903   26.1885 N   0  0  0  0  0  0  0  0  0  0  0  0
    6.4047  -13.9675   26.3840 C   0  0  0  0  0  0  0  0  0  0  0  0
    5.5380  -12.9119   26.5881 C   0  0  0  0  0  0  0  0  0  0  0  0
    6.0384  -11.6424   26.7835 C   0  0  0  0  0  0  0  0  0  0  0  0
    7.3878  -11.3741   26.7843 C   0  0  0  0  0  0  0  0  0  0  0  0
    8.2338  -12.4347   26.5790 C   0  0  0  0  0  0  0  0  0  0  0  0
    7.7695  -13.7393   26.3759 C   0  0  0  0  0  0  0  0  0  0  0  0
    9.8794  -17.4616   26.9556 C   0  0  0  0  0  0  0  0  0  0  0  0
   10.2601  -17.3234   28.2951 O   0  0  0  0  0  0  0  0  0  0  0  0
    9.1020  -18.4192   26.7208 O   0  0  0  0  0  0  0  0  0  0  0  0
  2  1  1  6
  2  3  1  0
  3  4  1  0
  5  2  1  0
  5  6  2  0
  7  5  1  0
  8  7  1  0
  8  9  1  6
 10  9  1  0
 11 10  2  0
 12 11  1  0
 13 12  1  0
 13 14  2  0
 14 10  1  0
 15 17  1  0
 15  8  1  0
 16 15  2  0
 18 17  1  0
 18 29  1  0
 18 19  1  1
 20 19  1  0
 21 20  2  0
 22 23  1  0
 22 21  1  0
 23 28  2  0
 24 25  2  0
 24 23  1  0
 25 26  1  0
 26 27  2  0
 28 27  1  0
 28 20  1  0
 29 30  1  0
 31 29  2  0
M  END
$$$$
