CHW.pdb
     RDKit          3D

 31 33  0  0  1  0  0  0  0  0999 V2000
   13.8321  -14.0572   18.4381 N   0  0  0  0  0  0  0  0  0  0  0  0
   13.3531  -15.2841   19.0125 C   0  0  1  0  0  0  0  0  0  0  0  0
   14.4770  -15.9598   19.8023 C   0  0  0  0  0  0  0  0  0  0  0  0
   14.9821  -14.8711   21.1571 S   0  0  0  0  0  0  0  0  0  0  0  0
   12.2639  -14.9701   19.9807 C   0  0  0  0  0  0  0  0  0  0  0  0
   12.3814  -13.9143   20.6614 O   0  0  0  0  0  0  0  0  0  0  0  0
   11.1342  -15.8421   20.1193 N   0  0  0  0  0  0  0  0  0  0  0  0
   10.0888  -15.4880   21.0191 C   0  0  1  0  0  0  0  0  0  0  0  0
    8.7425  -15.8624   20.4882 C   0  0  0  0  0  0  0  0  0  0  0  0
    8.4093  -15.0744   19.2870 C   0  0  0  0  0  0  0  0  0  0  0  0
    8.3412  -15.4782   17.9692 C   0  0  0  0  0  0  0  0  0  0  0  0
    7.9973  -14.4256   17.2100 N   0  0  0  0  0  0  0  0  0  0  0  0
    7.8490  -13.3732   18.0248 C   0  0  0  0  0  0  0  0  0  0  0  0
    8.0939  -13.7508   19.2746 N   0  0  0  0  0  0  0  0  0  0  0  0
   10.3406  -16.0628   22.3786 C   0  0  0  0  0  0  0  0  0  0  0  0
   11.2136  -16.9437   22.5001 O   0  0  0  0  0  0  0  0  0  0  0  0
    9.6112  -15.6247   23.5029 N   0  0  0  0  0  0  0  0  0  0  0  0
   10.1410  -15.9763   24.8368 C   0  0  1  0  0  0  0  0  0  0  0  0
    9.7852  -14.9164   25.8168 C   0  0  0  0  0  0  0  0  0  0  0  0
    8.3633  -14.6538   26.0507 C   0  0  0  0  0  0  0  0  0  0  0  0
    7.2956  -15.5565   25.9119 C   0  0  0  0  0  0  0  0  0  0  0  0
    6.1340  -14.9358   26.1749 N   0  0  0  0  0  0  0  0  0  0  0  0
    6.3854  -13.6471   26.4868 C   0  0  0  0  0  0  0  0  0  0  0  0
    5.5799  -12.5857   26.8500 C   0  0  0  0  0  0  0  0  0  0  0  0
    6.1465  -11.3619   27.1356 C   0  0  0  0  0  0  0  0  0  0  0  0
    7.5038  -11.1457   27.0739 C   0  0  0  0  0  0  0  0  0  0  0  0
    8.2883  -12.2112   26.7104 C   0  0  0  0  0  0  0  0  0  0  0  0
    7.7557  -13.4704   26.4114 C   0  0  0  0  0  0  0  0  0  0  0  0
    9.6448  -17.3102   25.1701 C   0  0  0  0  0  0  0  0  0  0  0  0
    8.7463  -17.9899   24.3400 O   0  0  0  0  0  0  0  0  0  0  0  0
    9.9831  -17.9315   26.2075 O   0  0  0  0  0  0  0  0  0  0  0  0
  2  1  1  1
  2  3  1  0
  3  4  1  0
  5  2  1  0
  5  6  2  0
  7  5  1  0
  8  7  1  0
  8  9  1  6
 10  9  1  0
 11 10  2  0
 12 11  1  0
 13 12  1  0
 13 14  2  0
 14 10  1  0
 15 17  1  0
 15  8  1  0
 16 15  2  0
 18 17  1  0
 18 29  1  0
 18 19  1  1
 20 19  1  0
 21 20  2  0
 22 23  1  0
 22 21  1  0
 23 28  2  0
 24 25  2  0
 24 23  1  0
 25 26  1  0
 26 27  2  0
 28 27  1  0
 28 20  1  0
 29 30  1  0
 31 29  2  0
M  END
$$$$
