CHW.pdb
     RDKit          3D

 31 33  0  0  1  0  0  0  0  0999 V2000
    7.5404  -19.0646   19.3081 N   0  0  0  0  0  0  0  0  0  0  0  0
    7.0948  -18.4714   20.5385 C   0  0  1  0  0  0  0  0  0  0  0  0
    7.1623  -19.5046   21.6660 C   0  0  0  0  0  0  0  0  0  0  0  0
    6.7142  -18.7042   23.2264 S   0  0  0  0  0  0  0  0  0  0  0  0
    8.0225  -17.3629   20.9029 C   0  0  0  0  0  0  0  0  0  0  0  0
    9.2602  -17.5930   20.8190 O   0  0  0  0  0  0  0  0  0  0  0  0
    7.5128  -16.0920   21.3281 N   0  0  0  0  0  0  0  0  0  0  0  0
    8.4258  -15.0384   21.6184 C   0  0  1  0  0  0  0  0  0  0  0  0
    7.9282  -13.7160   21.1302 C   0  0  0  0  0  0  0  0  0  0  0  0
    8.0055  -13.6314   19.6599 C   0  0  0  0  0  0  0  0  0  0  0  0
    9.0162  -13.1283   18.8663 C   0  0  0  0  0  0  0  0  0  0  0  0
    8.6613  -13.2573   17.5779 N   0  0  0  0  0  0  0  0  0  0  0  0
    7.4511  -13.8298   17.5494 C   0  0  0  0  0  0  0  0  0  0  0  0
    7.0471  -14.0592   18.7939 N   0  0  0  0  0  0  0  0  0  0  0  0
    8.7613  -15.0130   23.0774 C   0  0  0  0  0  0  0  0  0  0  0  0
    8.1952  -14.1734   23.8038 O   0  0  0  0  0  0  0  0  0  0  0  0
    9.6958  -15.9142   23.6274 N   0  0  0  0  0  0  0  0  0  0  0  0
   10.1417  -15.6695   25.0148 C   0  0  1  0  0  0  0  0  0  0  0  0
    9.0790  -16.0862   25.9675 C   0  0  0  0  0  0  0  0  0  0  0  0
    7.8294  -15.3221   25.9716 C   0  0  0  0  0  0  0  0  0  0  0  0
    6.5795  -15.7294   25.4755 C   0  0  0  0  0  0  0  0  0  0  0  0
    5.6843  -14.7387   25.6206 N   0  0  0  0  0  0  0  0  0  0  0  0
    6.2902  -13.6803   26.1984 C   0  0  0  0  0  0  0  0  0  0  0  0
    5.8481  -12.4306   26.5858 C   0  0  0  0  0  0  0  0  0  0  0  0
    6.7225  -11.5502   27.1861 C   0  0  0  0  0  0  0  0  0  0  0  0
    8.0408  -11.8658   27.4213 C   0  0  0  0  0  0  0  0  0  0  0  0
    8.4627  -13.1111   27.0288 C   0  0  0  0  0  0  0  0  0  0  0  0
    7.6097  -14.0359   26.4156 C   0  0  0  0  0  0  0  0  0  0  0  0
   11.4237  -16.3489   25.1917 C   0  0  0  0  0  0  0  0  0  0  0  0
   12.1341  -16.2785   26.3954 O   0  0  0  0  0  0  0  0  0  0  0  0
   11.9706  -17.0327   24.2918 O   0  0  0  0  0  0  0  0  0  0  0  0
  2  1  1  6
  2  3  1  0
  3  4  1  0
  5  2  1  0
  5  6  2  0
  7  5  1  0
  8  7  1  0
  8  9  1  1
 10  9  1  0
 11 10  2  0
 12 11  1  0
 13 12  1  0
 13 14  2  0
 14 10  1  0
 15 17  1  0
 15  8  1  0
 16 15  2  0
 18 17  1  0
 18 29  1  0
 18 19  1  1
 20 19  1  0
 21 20  2  0
 22 23  1  0
 22 21  1  0
 23 28  2  0
 24 25  2  0
 24 23  1  0
 25 26  1  0
 26 27  2  0
 28 27  1  0
 28 20  1  0
 29 30  1  0
 31 29  2  0
M  END
$$$$
