CHW.pdb
     RDKit          3D

 31 33  0  0  1  0  0  0  0  0999 V2000
   10.1021  -18.7342   19.2185 N   0  0  0  0  0  0  0  0  0  0  0  0
    9.3803  -18.4755   20.4338 C   0  0  1  0  0  0  0  0  0  0  0  0
    9.7193  -19.5450   21.4753 C   0  0  0  0  0  0  0  0  0  0  0  0
    8.2380  -19.9091   22.4496 S   0  0  0  0  0  0  0  0  0  0  0  0
    9.8253  -17.1655   20.9891 C   0  0  0  0  0  0  0  0  0  0  0  0
   11.0480  -16.8751   20.8776 O   0  0  0  0  0  0  0  0  0  0  0  0
    8.8886  -16.2820   21.6198 N   0  0  0  0  0  0  0  0  0  0  0  0
    9.3586  -15.0692   22.1996 C   0  0  1  0  0  0  0  0  0  0  0  0
    8.5401  -13.8922   21.7760 C   0  0  0  0  0  0  0  0  0  0  0  0
    8.2603  -13.9354   20.3287 C   0  0  0  0  0  0  0  0  0  0  0  0
    8.6363  -14.8791   19.3946 C   0  0  0  0  0  0  0  0  0  0  0  0
    8.1578  -14.5158   18.1939 N   0  0  0  0  0  0  0  0  0  0  0  0
    7.4912  -13.3660   18.3576 C   0  0  0  0  0  0  0  0  0  0  0  0
    7.5459  -13.0076   19.6356 N   0  0  0  0  0  0  0  0  0  0  0  0
    9.4453  -15.1912   23.6894 C   0  0  0  0  0  0  0  0  0  0  0  0
    9.5426  -14.1501   24.3672 O   0  0  0  0  0  0  0  0  0  0  0  0
    9.4189  -16.4513   24.3215 N   0  0  0  0  0  0  0  0  0  0  0  0
   10.1164  -16.5768   25.6181 C   0  0  1  0  0  0  0  0  0  0  0  0
    9.3033  -15.9470   26.6918 C   0  0  0  0  0  0  0  0  0  0  0  0
    7.9942  -15.4021   26.3246 C   0  0  0  0  0  0  0  0  0  0  0  0
    6.9175  -16.0906   25.7407 C   0  0  0  0  0  0  0  0  0  0  0  0
    5.9006  -15.2430   25.5144 N   0  0  0  0  0  0  0  0  0  0  0  0
    6.2572  -14.0088   25.9276 C   0  0  0  0  0  0  0  0  0  0  0  0
    5.6056  -12.7914   25.9480 C   0  0  0  0  0  0  0  0  0  0  0  0
    6.2406  -11.6829   26.4658 C   0  0  0  0  0  0  0  0  0  0  0  0
    7.5186  -11.7353   26.9727 C   0  0  0  0  0  0  0  0  0  0  0  0
    8.1509  -12.9527   26.9433 C   0  0  0  0  0  0  0  0  0  0  0  0
    7.5444  -14.1033   26.4266 C   0  0  0  0  0  0  0  0  0  0  0  0
   10.4113  -17.9935   25.8242 C   0  0  0  0  0  0  0  0  0  0  0  0
   11.1543  -18.4383   26.9236 O   0  0  0  0  0  0  0  0  0  0  0  0
   10.0262  -18.8978   25.0430 O   0  0  0  0  0  0  0  0  0  0  0  0
  2  1  1  6
  2  3  1  0
  3  4  1  0
  5  2  1  0
  5  6  2  0
  7  5  1  0
  8  7  1  0
  8  9  1  1
 10  9  1  0
 11 10  2  0
 12 11  1  0
 13 12  1  0
 13 14  2  0
 14 10  1  0
 15 17  1  0
 15  8  1  0
 16 15  2  0
 18 17  1  0
 18 29  1  0
 18 19  1  1
 20 19  1  0
 21 20  2  0
 22 23  1  0
 22 21  1  0
 23 28  2  0
 24 25  2  0
 24 23  1  0
 25 26  1  0
 26 27  2  0
 28 27  1  0
 28 20  1  0
 29 30  1  0
 31 29  2  0
M  END
$$$$
