CHW.pdb
     RDKit          3D

 31 33  0  0  1  0  0  0  0  0999 V2000
    7.3370  -15.1982   19.2943 N   0  0  0  0  0  0  0  0  0  0  0  0
    8.3702  -14.6684   20.1407 C   0  0  1  0  0  0  0  0  0  0  0  0
    7.8343  -13.4658   20.9217 C   0  0  0  0  0  0  0  0  0  0  0  0
    8.1708  -11.9557   19.9823 S   0  0  0  0  0  0  0  0  0  0  0  0
    8.7532  -15.7057   21.1406 C   0  0  0  0  0  0  0  0  0  0  0  0
    7.8437  -16.4781   21.5503 O   0  0  0  0  0  0  0  0  0  0  0  0
   10.1053  -15.8091   21.6063 N   0  0  0  0  0  0  0  0  0  0  0  0
   10.4554  -16.8643   22.4962 C   0  0  1  0  0  0  0  0  0  0  0  0
   11.7179  -17.5497   22.0826 C   0  0  0  0  0  0  0  0  0  0  0  0
   11.5106  -18.3487   20.8606 C   0  0  0  0  0  0  0  0  0  0  0  0
   10.6476  -19.4035   20.6430 C   0  0  0  0  0  0  0  0  0  0  0  0
   10.7923  -19.8287   19.3778 N   0  0  0  0  0  0  0  0  0  0  0  0
   11.7266  -19.0627   18.8003 C   0  0  0  0  0  0  0  0  0  0  0  0
   12.1653  -18.1703   19.6811 N   0  0  0  0  0  0  0  0  0  0  0  0
   10.5165  -16.3703   23.9083 C   0  0  0  0  0  0  0  0  0  0  0  0
   11.2032  -15.3605   24.1565 O   0  0  0  0  0  0  0  0  0  0  0  0
    9.8167  -17.0259   24.9420 N   0  0  0  0  0  0  0  0  0  0  0  0
    9.9690  -16.4923   26.3115 C   0  0  1  0  0  0  0  0  0  0  0  0
    8.6417  -16.4270   26.9783 C   0  0  0  0  0  0  0  0  0  0  0  0
    7.5945  -15.6296   26.3356 C   0  0  0  0  0  0  0  0  0  0  0  0
    6.5274  -16.0978   25.5506 C   0  0  0  0  0  0  0  0  0  0  0  0
    5.8002  -15.0618   25.1017 N   0  0  0  0  0  0  0  0  0  0  0  0
    6.3418  -13.9137   25.5595 C   0  0  0  0  0  0  0  0  0  0  0  0
    5.9983  -12.5831   25.4222 C   0  0  0  0  0  0  0  0  0  0  0  0
    6.7552  -11.6125   26.0427 C   0  0  0  0  0  0  0  0  0  0  0  0
    7.8584  -11.9148   26.8072 C   0  0  0  0  0  0  0  0  0  0  0  0
    8.1853  -13.2415   26.9317 C   0  0  0  0  0  0  0  0  0  0  0  0
    7.4457  -14.2595   26.3189 C   0  0  0  0  0  0  0  0  0  0  0  0
   10.9596  -17.3188   26.9986 C   0  0  0  0  0  0  0  0  0  0  0  0
   11.4249  -16.9985   28.2789 O   0  0  0  0  0  0  0  0  0  0  0  0
   11.4561  -18.3578   26.4980 O   0  0  0  0  0  0  0  0  0  0  0  0
  2  1  1  6
  2  3  1  0
  3  4  1  0
  5  2  1  0
  5  6  2  0
  7  5  1  0
  8  7  1  0
  8  9  1  6
 10  9  1  0
 11 10  2  0
 12 11  1  0
 13 12  1  0
 13 14  2  0
 14 10  1  0
 15 17  1  0
 15  8  1  0
 16 15  2  0
 18 17  1  0
 18 29  1  0
 18 19  1  1
 20 19  1  0
 21 20  2  0
 22 23  1  0
 22 21  1  0
 23 28  2  0
 24 25  2  0
 24 23  1  0
 25 26  1  0
 26 27  2  0
 28 27  1  0
 28 20  1  0
 29 30  1  0
 31 29  2  0
M  END
$$$$
