CHW.pdb
     RDKit          3D

 31 33  0  0  1  0  0  0  0  0999 V2000
    6.8107  -14.7145   18.9606 N   0  0  0  0  0  0  0  0  0  0  0  0
    7.9992  -14.3039   19.6559 C   0  0  1  0  0  0  0  0  0  0  0  0
    7.7017  -13.0640   20.5029 C   0  0  0  0  0  0  0  0  0  0  0  0
    9.1942  -12.6029   21.4172 S   0  0  0  0  0  0  0  0  0  0  0  0
    8.4077  -15.3884   20.5938 C   0  0  0  0  0  0  0  0  0  0  0  0
    7.5033  -15.9158   21.2976 O   0  0  0  0  0  0  0  0  0  0  0  0
    9.7772  -15.8045   20.6792 N   0  0  0  0  0  0  0  0  0  0  0  0
   10.1243  -16.8798   21.5458 C   0  0  1  0  0  0  0  0  0  0  0  0
   11.1879  -17.7509   20.9587 C   0  0  0  0  0  0  0  0  0  0  0  0
   10.6524  -18.5691   19.8548 C   0  0  0  0  0  0  0  0  0  0  0  0
    9.3470  -18.7197   19.4333 C   0  0  0  0  0  0  0  0  0  0  0  0
    9.3229  -19.5614   18.3877 N   0  0  0  0  0  0  0  0  0  0  0  0
   10.5847  -19.9399   18.1468 C   0  0  0  0  0  0  0  0  0  0  0  0
   11.3920  -19.3503   19.0216 N   0  0  0  0  0  0  0  0  0  0  0  0
   10.4968  -16.3692   22.9032 C   0  0  0  0  0  0  0  0  0  0  0  0
   11.4229  -15.5404   22.9940 O   0  0  0  0  0  0  0  0  0  0  0  0
    9.8214  -16.8103   24.0597 N   0  0  0  0  0  0  0  0  0  0  0  0
   10.3144  -16.3205   25.3638 C   0  0  1  0  0  0  0  0  0  0  0  0
    9.8579  -14.9227   25.5834 C   0  0  0  0  0  0  0  0  0  0  0  0
    8.4166  -14.6853   25.6913 C   0  0  0  0  0  0  0  0  0  0  0  0
    7.3855  -15.6326   25.5745 C   0  0  0  0  0  0  0  0  0  0  0  0
    6.1922  -15.0276   25.6918 N   0  0  0  0  0  0  0  0  0  0  0  0
    6.3869  -13.7061   25.8847 C   0  0  0  0  0  0  0  0  0  0  0  0
    5.5300  -12.6408   26.0800 C   0  0  0  0  0  0  0  0  0  0  0  0
    6.0425  -11.3761   26.2750 C   0  0  0  0  0  0  0  0  0  0  0  0
    7.3947  -11.1221   26.2840 C   0  0  0  0  0  0  0  0  0  0  0  0
    8.2308  -12.1922   26.0873 C   0  0  0  0  0  0  0  0  0  0  0  0
    7.7540  -13.4924   25.8849 C   0  0  0  0  0  0  0  0  0  0  0  0
    9.8819  -17.2736   26.3842 C   0  0  0  0  0  0  0  0  0  0  0  0
   10.3377  -17.1952   27.7050 O   0  0  0  0  0  0  0  0  0  0  0  0
    9.0840  -18.2152   26.1531 O   0  0  0  0  0  0  0  0  0  0  0  0
  2  1  1  1
  2  3  1  0
  3  4  1  0
  5  2  1  0
  5  6  2  0
  7  5  1  0
  8  7  1  0
  8  9  1  6
 10  9  1  0
 11 10  2  0
 12 11  1  0
 13 12  1  0
 13 14  2  0
 14 10  1  0
 15 17  1  0
 15  8  1  0
 16 15  2  0
 18 17  1  0
 18 29  1  0
 18 19  1  1
 20 19  1  0
 21 20  2  0
 22 23  1  0
 22 21  1  0
 23 28  2  0
 24 25  2  0
 24 23  1  0
 25 26  1  0
 26 27  2  0
 28 27  1  0
 28 20  1  0
 29 30  1  0
 31 29  2  0
M  END
$$$$
