CHW.pdb
     RDKit          3D

 31 33  0  0  1  0  0  0  0  0999 V2000
    7.0310  -14.8531   18.5169 N   0  0  0  0  0  0  0  0  0  0  0  0
    8.0933  -14.4312   19.3876 C   0  0  1  0  0  0  0  0  0  0  0  0
    7.6332  -13.2345   20.2239 C   0  0  0  0  0  0  0  0  0  0  0  0
    8.9646  -12.7587   21.3541 S   0  0  0  0  0  0  0  0  0  0  0  0
    8.4054  -15.5367   20.3379 C   0  0  0  0  0  0  0  0  0  0  0  0
    7.4323  -16.1880   20.8074 O   0  0  0  0  0  0  0  0  0  0  0  0
    9.7622  -15.8358   20.6922 N   0  0  0  0  0  0  0  0  0  0  0  0
   10.0250  -16.9009   21.6002 C   0  0  1  0  0  0  0  0  0  0  0  0
   11.0134  -17.8766   21.0474 C   0  0  0  0  0  0  0  0  0  0  0  0
   10.4138  -18.6839   19.9687 C   0  0  0  0  0  0  0  0  0  0  0  0
    9.1288  -19.1742   19.8563 C   0  0  0  0  0  0  0  0  0  0  0  0
    9.0232  -19.8549   18.7039 N   0  0  0  0  0  0  0  0  0  0  0  0
   10.2141  -19.8005   18.0940 C   0  0  0  0  0  0  0  0  0  0  0  0
   11.0572  -19.0998   18.8441 N   0  0  0  0  0  0  0  0  0  0  0  0
   10.4416  -16.3694   22.9365 C   0  0  0  0  0  0  0  0  0  0  0  0
   11.4224  -15.6027   22.9927 O   0  0  0  0  0  0  0  0  0  0  0  0
    9.7469  -16.7226   24.1115 N   0  0  0  0  0  0  0  0  0  0  0  0
   10.2226  -16.1410   25.3839 C   0  0  1  0  0  0  0  0  0  0  0  0
    9.6946  -14.7596   25.5363 C   0  0  0  0  0  0  0  0  0  0  0  0
    8.2453  -14.5947   25.6700 C   0  0  0  0  0  0  0  0  0  0  0  0
    7.2529  -15.5643   25.4481 C   0  0  0  0  0  0  0  0  0  0  0  0
    6.0367  -15.0253   25.6323 N   0  0  0  0  0  0  0  0  0  0  0  0
    6.1785  -13.7268   25.9717 C   0  0  0  0  0  0  0  0  0  0  0  0
    5.2801  -12.7258   26.2849 C   0  0  0  0  0  0  0  0  0  0  0  0
    5.7418  -11.4710   26.6200 C   0  0  0  0  0  0  0  0  0  0  0  0
    7.0826  -11.1646   26.6573 C   0  0  0  0  0  0  0  0  0  0  0  0
    7.9605  -12.1710   26.3422 C   0  0  0  0  0  0  0  0  0  0  0  0
    7.5359  -13.4588   25.9958 C   0  0  0  0  0  0  0  0  0  0  0  0
    9.8484  -17.0615   26.4560 C   0  0  0  0  0  0  0  0  0  0  0  0
   10.2994  -16.8846   27.7689 O   0  0  0  0  0  0  0  0  0  0  0  0
    9.1082  -18.0602   26.2790 O   0  0  0  0  0  0  0  0  0  0  0  0
  2  1  1  6
  2  3  1  0
  3  4  1  0
  5  2  1  0
  5  6  2  0
  7  5  1  0
  8  7  1  0
  8  9  1  6
 10  9  1  0
 11 10  2  0
 12 11  1  0
 13 12  1  0
 13 14  2  0
 14 10  1  0
 15 17  1  0
 15  8  1  0
 16 15  2  0
 18 17  1  0
 18 29  1  0
 18 19  1  1
 20 19  1  0
 21 20  2  0
 22 23  1  0
 22 21  1  0
 23 28  2  0
 24 25  2  0
 24 23  1  0
 25 26  1  0
 26 27  2  0
 28 27  1  0
 28 20  1  0
 29 30  1  0
 31 29  2  0
M  END
$$$$
