CHW.pdb
     RDKit          3D

 31 33  0  0  1  0  0  0  0  0999 V2000
   13.5753  -14.2879   17.8615 N   0  0  0  0  0  0  0  0  0  0  0  0
   13.3625  -15.3558   18.7990 C   0  0  1  0  0  0  0  0  0  0  0  0
   14.6370  -15.5917   19.6135 C   0  0  0  0  0  0  0  0  0  0  0  0
   15.8858  -16.3522   18.5467 S   0  0  0  0  0  0  0  0  0  0  0  0
   12.2971  -14.9491   19.7592 C   0  0  0  0  0  0  0  0  0  0  0  0
   12.4536  -13.8552   20.3679 O   0  0  0  0  0  0  0  0  0  0  0  0
   11.1464  -15.7782   19.9696 N   0  0  0  0  0  0  0  0  0  0  0  0
   10.1229  -15.3355   20.8553 C   0  0  1  0  0  0  0  0  0  0  0  0
    8.7579  -15.5476   20.2840 C   0  0  0  0  0  0  0  0  0  0  0  0
    8.5954  -14.8145   19.0148 C   0  0  0  0  0  0  0  0  0  0  0  0
    8.4740  -13.4566   18.8003 C   0  0  0  0  0  0  0  0  0  0  0  0
    8.3497  -13.2350   17.4820 N   0  0  0  0  0  0  0  0  0  0  0  0
    8.3909  -14.4245   16.8683 C   0  0  0  0  0  0  0  0  0  0  0  0
    8.5382  -15.3806   17.7788 N   0  0  0  0  0  0  0  0  0  0  0  0
   10.2765  -15.9685   22.2035 C   0  0  0  0  0  0  0  0  0  0  0  0
   11.1074  -16.8873   22.3385 O   0  0  0  0  0  0  0  0  0  0  0  0
    9.5028  -15.5423   23.3025 N   0  0  0  0  0  0  0  0  0  0  0  0
   10.0181  -15.8424   24.6545 C   0  0  1  0  0  0  0  0  0  0  0  0
    9.6196  -14.7643   25.5975 C   0  0  0  0  0  0  0  0  0  0  0  0
    8.1892  -14.5718   25.8476 C   0  0  0  0  0  0  0  0  0  0  0  0
    7.1546  -15.4988   25.6365 C   0  0  0  0  0  0  0  0  0  0  0  0
    5.9716  -14.9424   25.9440 N   0  0  0  0  0  0  0  0  0  0  0  0
    6.1765  -13.6737   26.3557 C   0  0  0  0  0  0  0  0  0  0  0  0
    5.3336  -12.6733   26.7983 C   0  0  0  0  0  0  0  0  0  0  0  0
    5.8559  -11.4559   27.1795 C   0  0  0  0  0  0  0  0  0  0  0  0
    7.2045  -11.1870   27.1381 C   0  0  0  0  0  0  0  0  0  0  0  0
    8.0267  -12.1921   26.6948 C   0  0  0  0  0  0  0  0  0  0  0  0
    7.5396  -13.4426   26.2976 C   0  0  0  0  0  0  0  0  0  0  0  0
    9.5493  -17.1783   25.0179 C   0  0  0  0  0  0  0  0  0  0  0  0
    8.6976  -17.9116   24.1840 O   0  0  0  0  0  0  0  0  0  0  0  0
    9.8712  -17.7542   26.0862 O   0  0  0  0  0  0  0  0  0  0  0  0
  2  1  1  6
  2  3  1  0
  3  4  1  0
  5  2  1  0
  5  6  2  0
  7  5  1  0
  8  7  1  0
  8  9  1  6
 10  9  1  0
 11 10  2  0
 12 11  1  0
 13 12  1  0
 13 14  2  0
 14 10  1  0
 15 17  1  0
 15  8  1  0
 16 15  2  0
 18 17  1  0
 18 29  1  0
 18 19  1  1
 20 19  1  0
 21 20  2  0
 22 23  1  0
 22 21  1  0
 23 28  2  0
 24 25  2  0
 24 23  1  0
 25 26  1  0
 26 27  2  0
 28 27  1  0
 28 20  1  0
 29 30  1  0
 31 29  2  0
M  END
$$$$
