CHW.pdb
     RDKit          3D

 31 33  0  0  1  0  0  0  0  0999 V2000
    6.6294  -20.9868   22.7568 N   0  0  0  0  0  0  0  0  0  0  0  0
    6.5241  -19.5629   22.5958 C   0  0  1  0  0  0  0  0  0  0  0  0
    5.7045  -18.9708   23.7451 C   0  0  0  0  0  0  0  0  0  0  0  0
    6.4460  -19.4736   25.3178 S   0  0  0  0  0  0  0  0  0  0  0  0
    7.8880  -18.9666   22.6767 C   0  0  0  0  0  0  0  0  0  0  0  0
    8.8310  -19.7252   23.0328 O   0  0  0  0  0  0  0  0  0  0  0  0
    8.1028  -17.5853   22.3576 N   0  0  0  0  0  0  0  0  0  0  0  0
    9.4290  -17.0666   22.3711 C   0  0  1  0  0  0  0  0  0  0  0  0
    9.6810  -16.1442   21.2221 C   0  0  0  0  0  0  0  0  0  0  0  0
   10.4651  -16.8139   20.1679 C   0  0  0  0  0  0  0  0  0  0  0  0
   10.2732  -18.0526   19.5907 C   0  0  0  0  0  0  0  0  0  0  0  0
   11.2275  -18.2542   18.6682 N   0  0  0  0  0  0  0  0  0  0  0  0
   12.0115  -17.1686   18.6564 C   0  0  0  0  0  0  0  0  0  0  0  0
   11.5633  -16.2968   19.5530 N   0  0  0  0  0  0  0  0  0  0  0  0
    9.7352  -16.4253   23.6891 C   0  0  0  0  0  0  0  0  0  0  0  0
    9.8459  -15.1850   23.7361 O   0  0  0  0  0  0  0  0  0  0  0  0
    9.8971  -17.1984   24.8570 N   0  0  0  0  0  0  0  0  0  0  0  0
   10.3502  -16.4999   26.0778 C   0  0  1  0  0  0  0  0  0  0  0  0
    9.2092  -16.3318   27.0161 C   0  0  0  0  0  0  0  0  0  0  0  0
    8.0215  -15.6286   26.5259 C   0  0  0  0  0  0  0  0  0  0  0  0
    6.9051  -16.1878   25.8816 C   0  0  0  0  0  0  0  0  0  0  0  0
    6.0381  -15.2190   25.5446 N   0  0  0  0  0  0  0  0  0  0  0  0
    6.5336  -14.0283   25.9419 C   0  0  0  0  0  0  0  0  0  0  0  0
    6.0610  -12.7328   25.8672 C   0  0  0  0  0  0  0  0  0  0  0  0
    6.8058  -11.7002   26.3954 C   0  0  0  0  0  0  0  0  0  0  0  0
    8.0220  -11.9054   27.0052 C   0  0  0  0  0  0  0  0  0  0  0  0
    8.4762  -13.1986   27.0693 C   0  0  0  0  0  0  0  0  0  0  0  0
    7.7535  -14.2768   26.5459 C   0  0  0  0  0  0  0  0  0  0  0  0
   11.4830  -17.2486   26.6188 C   0  0  0  0  0  0  0  0  0  0  0  0
   12.2254  -16.7761   27.7070 O   0  0  0  0  0  0  0  0  0  0  0  0
   11.8652  -18.3507   26.1541 O   0  0  0  0  0  0  0  0  0  0  0  0
  2  1  1  1
  2  3  1  0
  3  4  1  0
  5  2  1  0
  5  6  2  0
  7  5  1  0
  8  7  1  0
  8  9  1  6
 10  9  1  0
 11 10  2  0
 12 11  1  0
 13 12  1  0
 13 14  2  0
 14 10  1  0
 15 17  1  0
 15  8  1  0
 16 15  2  0
 18 17  1  0
 18 29  1  0
 18 19  1  1
 20 19  1  0
 21 20  2  0
 22 23  1  0
 22 21  1  0
 23 28  2  0
 24 25  2  0
 24 23  1  0
 25 26  1  0
 26 27  2  0
 28 27  1  0
 28 20  1  0
 29 30  1  0
 31 29  2  0
M  END
$$$$
