CHW.pdb
     RDKit          3D

 31 33  0  0  1  0  0  0  0  0999 V2000
    7.5323  -15.2993   17.2923 N   0  0  0  0  0  0  0  0  0  0  0  0
    8.4222  -14.7408   18.2724 C   0  0  1  0  0  0  0  0  0  0  0  0
    7.8641  -13.4085   18.7794 C   0  0  0  0  0  0  0  0  0  0  0  0
    8.9402  -12.7802   20.0922 S   0  0  0  0  0  0  0  0  0  0  0  0
    8.4897  -15.6620   19.4426 C   0  0  0  0  0  0  0  0  0  0  0  0
    7.4034  -16.1524   19.8563 O   0  0  0  0  0  0  0  0  0  0  0  0
    9.7465  -15.9692   20.0605 N   0  0  0  0  0  0  0  0  0  0  0  0
    9.7963  -16.9644   21.0779 C   0  0  1  0  0  0  0  0  0  0  0  0
   10.6446  -18.1293   20.6805 C   0  0  0  0  0  0  0  0  0  0  0  0
   10.6646  -19.1552   21.7397 C   0  0  0  0  0  0  0  0  0  0  0  0
   11.7074  -19.5507   22.5525 C   0  0  0  0  0  0  0  0  0  0  0  0
   11.2725  -20.5167   23.3773 N   0  0  0  0  0  0  0  0  0  0  0  0
    9.9810  -20.7333   23.0975 C   0  0  0  0  0  0  0  0  0  0  0  0
    9.6048  -19.9214   22.1157 N   0  0  0  0  0  0  0  0  0  0  0  0
   10.2277  -16.3693   22.3825 C   0  0  0  0  0  0  0  0  0  0  0  0
   10.9946  -15.3873   22.3641 O   0  0  0  0  0  0  0  0  0  0  0  0
    9.7824  -16.9010   23.6101 N   0  0  0  0  0  0  0  0  0  0  0  0
   10.2382  -16.2322   24.8464 C   0  0  1  0  0  0  0  0  0  0  0  0
    9.6654  -14.8621   24.9198 C   0  0  0  0  0  0  0  0  0  0  0  0
    8.3158  -14.7161   25.4702 C   0  0  0  0  0  0  0  0  0  0  0  0
    7.3269  -15.7084   25.5772 C   0  0  0  0  0  0  0  0  0  0  0  0
    6.2054  -15.1831   26.0969 N   0  0  0  0  0  0  0  0  0  0  0  0
    6.4079  -13.8719   26.3437 C   0  0  0  0  0  0  0  0  0  0  0  0
    5.6164  -12.8755   26.8802 C   0  0  0  0  0  0  0  0  0  0  0  0
    6.1244  -11.6028   27.0298 C   0  0  0  0  0  0  0  0  0  0  0  0
    7.4087  -11.2739   26.6618 C   0  0  0  0  0  0  0  0  0  0  0  0
    8.1801  -12.2761   26.1297 C   0  0  0  0  0  0  0  0  0  0  0  0
    7.7051  -13.5815   25.9593 C   0  0  0  0  0  0  0  0  0  0  0  0
    9.8934  -17.1012   25.9700 C   0  0  0  0  0  0  0  0  0  0  0  0
    8.8319  -18.0103   25.8986 O   0  0  0  0  0  0  0  0  0  0  0  0
   10.5141  -17.0946   27.0614 O   0  0  0  0  0  0  0  0  0  0  0  0
  2  1  1  6
  2  3  1  0
  3  4  1  0
  5  2  1  0
  5  6  2  0
  7  5  1  0
  8  7  1  0
  8  9  1  6
 10  9  1  0
 11 10  2  0
 12 11  1  0
 13 12  1  0
 13 14  2  0
 14 10  1  0
 15 17  1  0
 15  8  1  0
 16 15  2  0
 18 17  1  0
 18 29  1  0
 18 19  1  1
 20 19  1  0
 21 20  2  0
 22 23  1  0
 22 21  1  0
 23 28  2  0
 24 25  2  0
 24 23  1  0
 25 26  1  0
 26 27  2  0
 28 27  1  0
 28 20  1  0
 29 30  1  0
 31 29  2  0
M  END
$$$$
