CHW.pdb
     RDKit          3D

 31 33  0  0  1  0  0  0  0  0999 V2000
    7.8147  -14.5756   17.1648 N   0  0  0  0  0  0  0  0  0  0  0  0
    8.6141  -14.2376   18.3099 C   0  0  1  0  0  0  0  0  0  0  0  0
    8.1615  -12.8902   18.8782 C   0  0  0  0  0  0  0  0  0  0  0  0
    9.1020  -12.5402   20.3846 S   0  0  0  0  0  0  0  0  0  0  0  0
    8.3906  -15.2593   19.3723 C   0  0  0  0  0  0  0  0  0  0  0  0
    7.1983  -15.5972   19.6083 O   0  0  0  0  0  0  0  0  0  0  0  0
    9.4971  -15.8264   20.0864 N   0  0  0  0  0  0  0  0  0  0  0  0
    9.2507  -16.8264   21.0699 C   0  0  1  0  0  0  0  0  0  0  0  0
    9.5700  -18.1973   20.5666 C   0  0  0  0  0  0  0  0  0  0  0  0
    9.3065  -19.2154   21.6004 C   0  0  0  0  0  0  0  0  0  0  0  0
    8.8081  -19.0546   22.8771 C   0  0  0  0  0  0  0  0  0  0  0  0
    8.7300  -20.2580   23.4673 N   0  0  0  0  0  0  0  0  0  0  0  0
    9.1686  -21.1670   22.5872 C   0  0  0  0  0  0  0  0  0  0  0  0
    9.5176  -20.5526   21.4623 N   0  0  0  0  0  0  0  0  0  0  0  0
    9.9725  -16.5089   22.3428 C   0  0  0  0  0  0  0  0  0  0  0  0
   11.1729  -16.1804   22.2805 O   0  0  0  0  0  0  0  0  0  0  0  0
    9.3179  -16.5774   23.5898 N   0  0  0  0  0  0  0  0  0  0  0  0
   10.0811  -16.1560   24.7829 C   0  0  1  0  0  0  0  0  0  0  0  0
    9.6585  -14.7920   25.1967 C   0  0  0  0  0  0  0  0  0  0  0  0
    8.2491  -14.5902   25.5411 C   0  0  0  0  0  0  0  0  0  0  0  0
    7.2278  -15.5551   25.5530 C   0  0  0  0  0  0  0  0  0  0  0  0
    6.0591  -14.9809   25.8815 N   0  0  0  0  0  0  0  0  0  0  0  0
    6.2609  -13.6632   26.0920 C   0  0  0  0  0  0  0  0  0  0  0  0
    5.4293  -12.6245   26.4619 C   0  0  0  0  0  0  0  0  0  0  0  0
    5.9461  -11.3567   26.6218 C   0  0  0  0  0  0  0  0  0  0  0  0
    7.2782  -11.0736   26.4258 C   0  0  0  0  0  0  0  0  0  0  0  0
    8.0891  -12.1174   26.0577 C   0  0  0  0  0  0  0  0  0  0  0  0
    7.6070  -13.4197   25.8835 C   0  0  0  0  0  0  0  0  0  0  0  0
    9.9070  -17.1874   25.8039 C   0  0  0  0  0  0  0  0  0  0  0  0
   10.6789  -17.2053   26.9711 O   0  0  0  0  0  0  0  0  0  0  0  0
    9.0670  -18.1157   25.7088 O   0  0  0  0  0  0  0  0  0  0  0  0
  2  1  1  6
  2  3  1  0
  3  4  1  0
  5  2  1  0
  5  6  2  0
  7  5  1  0
  8  7  1  0
  8  9  1  6
 10  9  1  0
 11 10  2  0
 12 11  1  0
 13 12  1  0
 13 14  2  0
 14 10  1  0
 15 17  1  0
 15  8  1  0
 16 15  2  0
 18 17  1  0
 18 29  1  0
 18 19  1  1
 20 19  1  0
 21 20  2  0
 22 23  1  0
 22 21  1  0
 23 28  2  0
 24 25  2  0
 24 23  1  0
 25 26  1  0
 26 27  2  0
 28 27  1  0
 28 20  1  0
 29 30  1  0
 31 29  2  0
M  END
$$$$
