CHW.pdb
     RDKit          3D

 31 33  0  0  1  0  0  0  0  0999 V2000
    6.4002  -19.4873   21.0373 N   0  0  0  0  0  0  0  0  0  0  0  0
    6.6776  -18.3603   21.8844 C   0  0  1  0  0  0  0  0  0  0  0  0
    6.1620  -18.6363   23.2991 C   0  0  0  0  0  0  0  0  0  0  0  0
    4.3609  -18.4579   23.3151 S   0  0  0  0  0  0  0  0  0  0  0  0
    8.1546  -18.1830   21.9824 C   0  0  0  0  0  0  0  0  0  0  0  0
    8.8443  -19.2072   22.2414 O   0  0  0  0  0  0  0  0  0  0  0  0
    8.7515  -16.8942   21.7860 N   0  0  0  0  0  0  0  0  0  0  0  0
   10.1656  -16.7603   21.8867 C   0  0  1  0  0  0  0  0  0  0  0  0
   10.7261  -15.9057   20.7958 C   0  0  0  0  0  0  0  0  0  0  0  0
   10.6856  -16.6079   19.4996 C   0  0  0  0  0  0  0  0  0  0  0  0
   10.8723  -17.9476   19.2263 C   0  0  0  0  0  0  0  0  0  0  0  0
   10.7424  -18.1430   17.9044 N   0  0  0  0  0  0  0  0  0  0  0  0
   10.4786  -16.9548   17.3460 C   0  0  0  0  0  0  0  0  0  0  0  0
   10.4421  -16.0252   18.2943 N   0  0  0  0  0  0  0  0  0  0  0  0
   10.5574  -16.2709   23.2465 C   0  0  0  0  0  0  0  0  0  0  0  0
   11.1805  -15.1954   23.3354 O   0  0  0  0  0  0  0  0  0  0  0  0
   10.2339  -17.0032   24.4071 N   0  0  0  0  0  0  0  0  0  0  0  0
   10.6932  -16.4619   25.7031 C   0  0  1  0  0  0  0  0  0  0  0  0
   10.1515  -15.0911   25.8981 C   0  0  0  0  0  0  0  0  0  0  0  0
    8.7004  -14.9444   26.0332 C   0  0  0  0  0  0  0  0  0  0  0  0
    7.7313  -15.9598   25.9693 C   0  0  0  0  0  0  0  0  0  0  0  0
    6.5038  -15.4300   26.0970 N   0  0  0  0  0  0  0  0  0  0  0  0
    6.6156  -14.0933   26.2457 C   0  0  0  0  0  0  0  0  0  0  0  0
    5.6952  -13.0802   26.4296 C   0  0  0  0  0  0  0  0  0  0  0  0
    6.1279  -11.7795   26.5745 C   0  0  0  0  0  0  0  0  0  0  0  0
    7.4604  -11.4382   26.5436 C   0  0  0  0  0  0  0  0  0  0  0  0
    8.3603  -12.4574   26.3590 C   0  0  0  0  0  0  0  0  0  0  0  0
    7.9655  -13.7915   26.2070 C   0  0  0  0  0  0  0  0  0  0  0  0
   10.3176  -17.4221   26.7393 C   0  0  0  0  0  0  0  0  0  0  0  0
   10.7354  -17.2734   28.0667 O   0  0  0  0  0  0  0  0  0  0  0  0
    9.6057  -18.4321   26.5169 O   0  0  0  0  0  0  0  0  0  0  0  0
  2  1  1  6
  2  3  1  0
  3  4  1  0
  5  2  1  0
  5  6  2  0
  7  5  1  0
  8  7  1  0
  8  9  1  6
 10  9  1  0
 11 10  2  0
 12 11  1  0
 13 12  1  0
 13 14  2  0
 14 10  1  0
 15 17  1  0
 15  8  1  0
 16 15  2  0
 18 17  1  0
 18 29  1  0
 18 19  1  1
 20 19  1  0
 21 20  2  0
 22 23  1  0
 22 21  1  0
 23 28  2  0
 24 25  2  0
 24 23  1  0
 25 26  1  0
 26 27  2  0
 28 27  1  0
 28 20  1  0
 29 30  1  0
 31 29  2  0
M  END
$$$$
