ERC.pdb
     RDKit          3D

 27 26  0  0  1  0  0  0  0  0999 V2000
   14.3081  -14.0870   17.7628 N   0  0  0  0  0  0  0  0  0  0  0  0
   13.6960  -15.3227   18.2180 C   0  0  1  0  0  0  0  0  0  0  0  0
   14.6249  -16.4855   18.2175 C   0  0  0  0  0  0  0  0  0  0  0  0
   15.9863  -16.1464   17.6546 C   0  0  0  0  0  0  0  0  0  0  0  0
   17.0830  -16.7804   18.4008 C   0  0  0  0  0  0  0  0  0  0  0  0
   17.2076  -18.0534   18.3908 O   0  0  0  0  0  0  0  0  0  0  0  0
   13.1046  -15.1226   19.5773 C   0  0  0  0  0  0  0  0  0  0  0  0
   13.6355  -14.3162   20.3986 O   0  0  0  0  0  0  0  0  0  0  0  0
   18.0240  -16.0855   19.1393 O   0  0  0  0  0  0  0  0  0  0  0  0
    7.7673  -13.8838   16.8018 N   0  0  0  0  0  0  0  0  0  0  0  0
    7.8449  -13.0293   17.9578 C   0  0  0  0  0  0  0  0  0  0  0  0
    8.4834  -11.9036   17.9448 N   0  0  0  0  0  0  0  0  0  0  0  0
    7.2063  -13.4266   19.1407 N   0  0  0  0  0  0  0  0  0  0  0  0
    7.7410  -14.5865   19.8943 C   0  0  0  0  0  0  0  0  0  0  0  0
    9.1419  -14.3792   20.2734 C   0  0  0  0  0  0  0  0  0  0  0  0
    9.8486  -15.4537   20.9381 C   0  0  0  0  0  0  0  0  0  0  0  0
   11.2767  -15.4439   21.3198 C   0  0  2  0  0  0  0  0  0  0  0  0
   11.9554  -15.8033   20.0083 N   0  0  0  0  0  0  0  0  0  0  0  0
   11.6203  -16.6018   22.2062 C   0  0  0  0  0  0  0  0  0  0  0  0
   11.6427  -17.7573   21.8189 O   0  0  0  0  0  0  0  0  0  0  0  0
    8.6206  -11.4395   18.8813 N   0  0  0  0  0  0  0  0  0  0  0  0
   11.9453  -16.3842   23.5867 C   0  0  1  0  0  0  0  0  0  0  0  0
   12.2620  -17.5333   24.4064 C   0  0  0  0  0  0  0  0  0  0  0  0
   13.3854  -17.0712   25.3329 S   0  0  0  0  0  0  0  0  0  0  0  0
   14.7957  -16.4055   24.4403 C   0  0  0  0  0  0  0  0  0  0  0  0
   11.0671  -17.9310   25.1579 O   0  0  0  0  0  0  0  0  0  0  0  0
    9.9950  -17.3019   24.9986 O   0  0  0  0  0  0  0  0  0  0  0  0
  2  1  1  1
  3  2  1  0
  4  5  1  0
  4  3  1  0
  5  6  2  0
  7  2  1  0
  7  8  2  0
  9  5  1  0
 10 11  1  0
 11 13  1  0
 11 12  2  0
 13 14  1  0
 14 15  1  0
 17 16  1  6
 16 15  1  0
 17 18  1  0
 18  7  1  0
 19 17  1  0
 20 19  2  0
 21 19  1  0
 22 25  1  0
 22 21  1  0
 22 23  1  6
 24 23  1  0
 25 27  1  0
 26 25  2  0
M  END
$$$$
