ERC.pdb
     RDKit          3D

 27 26  0  0  1  0  0  0  0  0999 V2000
    8.5543  -12.8708   18.5330 N   0  0  0  0  0  0  0  0  0  0  0  0
    8.8257  -14.2437   18.9205 C   0  0  1  0  0  0  0  0  0  0  0  0
   10.2761  -14.5704   18.9868 C   0  0  0  0  0  0  0  0  0  0  0  0
   11.0484  -13.6258   19.8793 C   0  0  0  0  0  0  0  0  0  0  0  0
   12.4904  -13.9122   19.8960 C   0  0  0  0  0  0  0  0  0  0  0  0
   13.2562  -13.3766   19.0227 O   0  0  0  0  0  0  0  0  0  0  0  0
    8.1593  -14.5411   20.2262 C   0  0  0  0  0  0  0  0  0  0  0  0
    7.7977  -13.5998   20.9942 O   0  0  0  0  0  0  0  0  0  0  0  0
   13.1068  -14.7444   20.8133 O   0  0  0  0  0  0  0  0  0  0  0  0
    7.6272  -20.3126   25.0430 N   0  0  0  0  0  0  0  0  0  0  0  0
    6.2806  -20.8118   24.9437 C   0  0  0  0  0  0  0  0  0  0  0  0
    5.7328  -21.5162   25.8812 N   0  0  0  0  0  0  0  0  0  0  0  0
    5.5327  -20.5257   23.7933 N   0  0  0  0  0  0  0  0  0  0  0  0
    6.1950  -19.8475   22.6529 C   0  0  0  0  0  0  0  0  0  0  0  0
    6.3469  -18.4104   22.8991 C   0  0  0  0  0  0  0  0  0  0  0  0
    6.8734  -17.5753   21.8402 C   0  0  0  0  0  0  0  0  0  0  0  0
    7.0837  -16.1140   21.9145 C   0  0  2  0  0  0  0  0  0  0  0  0
    7.9052  -15.8504   20.6632 N   0  0  0  0  0  0  0  0  0  0  0  0
    8.0252  -15.7461   23.0202 C   0  0  0  0  0  0  0  0  0  0  0  0
    9.2379  -15.8105   22.9155 O   0  0  0  0  0  0  0  0  0  0  0  0
    4.7645  -21.8807   25.6792 N   0  0  0  0  0  0  0  0  0  0  0  0
    7.5161  -15.2906   24.2820 C   0  0  2  0  0  0  0  0  0  0  0  0
    8.4624  -14.9657   25.3267 C   0  0  0  0  0  0  0  0  0  0  0  0
    7.7810  -13.8876   26.1677 S   0  0  0  0  0  0  0  0  0  0  0  0
    8.7419  -13.4193   27.6121 C   0  0  0  0  0  0  0  0  0  0  0  0
    8.7425  -16.1716   26.1129 O   0  0  0  0  0  0  0  0  0  0  0  0
    7.9151  -17.1128   26.1229 O   0  0  0  0  0  0  0  0  0  0  0  0
  2  1  1  1
  3  2  1  0
  4  5  1  0
  4  3  1  0
  5  6  2  0
  7  2  1  0
  7  8  2  0
  9  5  1  0
 10 11  1  0
 11 13  1  0
 11 12  2  0
 13 14  1  0
 14 15  1  0
 17 16  1  1
 16 15  1  0
 17 18  1  0
 18  7  1  0
 19 17  1  0
 20 19  2  0
 21 19  1  0
 22 25  1  0
 22 21  1  0
 22 23  1  1
 24 23  1  0
 25 27  1  0
 26 25  2  0
M  END
$$$$
