ERC.pdb
     RDKit          3D

 27 26  0  0  1  0  0  0  0  0999 V2000
   14.8273  -18.0344   21.0659 N   0  0  0  0  0  0  0  0  0  0  0  0
   13.7287  -18.4433   21.9231 C   0  0  1  0  0  0  0  0  0  0  0  0
   14.1068  -19.4732   22.9288 C   0  0  0  0  0  0  0  0  0  0  0  0
   15.4393  -19.1896   23.5840 C   0  0  0  0  0  0  0  0  0  0  0  0
   15.8471  -20.2463   24.5214 C   0  0  0  0  0  0  0  0  0  0  0  0
   15.0452  -21.2068   24.7864 O   0  0  0  0  0  0  0  0  0  0  0  0
   13.1385  -17.2442   22.5946 C   0  0  0  0  0  0  0  0  0  0  0  0
   13.8449  -16.2143   22.8114 O   0  0  0  0  0  0  0  0  0  0  0  0
   17.0724  -20.2858   25.1625 O   0  0  0  0  0  0  0  0  0  0  0  0
    6.2586  -13.2353   20.0722 N   0  0  0  0  0  0  0  0  0  0  0  0
    7.3875  -13.4440   19.2035 C   0  0  0  0  0  0  0  0  0  0  0  0
    7.4289  -12.9755   17.9977 N   0  0  0  0  0  0  0  0  0  0  0  0
    8.4830  -14.1789   19.6773 N   0  0  0  0  0  0  0  0  0  0  0  0
    8.4754  -14.6615   21.0795 C   0  0  0  0  0  0  0  0  0  0  0  0
    9.6839  -15.4321   21.3874 C   0  0  0  0  0  0  0  0  0  0  0  0
    9.8861  -15.8959   22.7438 C   0  0  0  0  0  0  0  0  0  0  0  0
   11.1698  -15.8927   23.4769 C   0  0  2  0  0  0  0  0  0  0  0  0
   11.7999  -17.1959   23.0135 N   0  0  0  0  0  0  0  0  0  0  0  0
   10.9692  -16.1177   24.9444 C   0  0  0  0  0  0  0  0  0  0  0  0
   10.8890  -17.2254   25.4466 O   0  0  0  0  0  0  0  0  0  0  0  0
    8.2854  -13.2226   17.4353 N   0  0  0  0  0  0  0  0  0  0  0  0
   10.8608  -15.0011   25.8390 C   0  0  2  0  0  0  0  0  0  0  0  0
   10.7523  -15.2661   27.2570 C   0  0  0  0  0  0  0  0  0  0  0  0
   10.6266  -13.8935   27.9158 S   0  0  0  0  0  0  0  0  0  0  0  0
   10.6635  -13.9756   29.7104 C   0  0  0  0  0  0  0  0  0  0  0  0
    9.5682  -16.0962   27.5011 O   0  0  0  0  0  0  0  0  0  0  0  0
    8.5361  -15.9244   26.8113 O   0  0  0  0  0  0  0  0  0  0  0  0
  2  1  1  1
  3  2  1  0
  4  5  1  0
  4  3  1  0
  5  6  2  0
  7  2  1  0
  7  8  2  0
  9  5  1  0
 10 11  1  0
 11 13  1  0
 11 12  2  0
 13 14  1  0
 14 15  1  0
 17 16  1  6
 16 15  1  0
 17 18  1  0
 18  7  1  0
 19 17  1  0
 20 19  2  0
 21 19  1  0
 22 25  1  0
 22 21  1  0
 22 23  1  6
 24 23  1  0
 25 27  1  0
 26 25  2  0
M  END
$$$$
