ERC.pdb
     RDKit          3D

 27 26  0  0  1  0  0  0  0  0999 V2000
    8.8356  -13.1166   18.6439 N   0  0  0  0  0  0  0  0  0  0  0  0
    8.9924  -14.4332   19.2360 C   0  0  1  0  0  0  0  0  0  0  0  0
   10.3986  -14.9206   19.2455 C   0  0  0  0  0  0  0  0  0  0  0  0
   11.4018  -13.8089   19.4528 C   0  0  0  0  0  0  0  0  0  0  0  0
   12.7833  -14.3021   19.5510 C   0  0  0  0  0  0  0  0  0  0  0  0
   13.7508  -13.4711   19.6470 O   0  0  0  0  0  0  0  0  0  0  0  0
    8.4257  -14.4353   20.6203 C   0  0  0  0  0  0  0  0  0  0  0  0
    8.2465  -13.3469   21.2447 O   0  0  0  0  0  0  0  0  0  0  0  0
   13.1326  -15.6407   19.5477 O   0  0  0  0  0  0  0  0  0  0  0  0
    4.4720  -20.2937   19.5716 N   0  0  0  0  0  0  0  0  0  0  0  0
    3.4843  -19.3411   20.0071 C   0  0  0  0  0  0  0  0  0  0  0  0
    2.2555  -19.3845   19.6031 N   0  0  0  0  0  0  0  0  0  0  0  0
    3.8629  -18.3303   20.9013 N   0  0  0  0  0  0  0  0  0  0  0  0
    5.2804  -18.2379   21.3271 C   0  0  0  0  0  0  0  0  0  0  0  0
    5.4718  -17.1825   22.3264 C   0  0  0  0  0  0  0  0  0  0  0  0
    6.8150  -16.8907   22.7810 C   0  0  0  0  0  0  0  0  0  0  0  0
    7.4921  -15.5796   22.6939 C   0  0  2  0  0  0  0  0  0  0  0  0
    8.0707  -15.6170   21.2889 N   0  0  0  0  0  0  0  0  0  0  0  0
    8.7131  -15.5289   23.5606 C   0  0  0  0  0  0  0  0  0  0  0  0
    9.7302  -14.9338   23.2494 O   0  0  0  0  0  0  0  0  0  0  0  0
    1.6033  -18.6754   20.0308 N   0  0  0  0  0  0  0  0  0  0  0  0
    8.7284  -16.2010   24.8283 C   0  0  2  0  0  0  0  0  0  0  0  0
    9.0319  -15.4264   26.0118 C   0  0  0  0  0  0  0  0  0  0  0  0
    7.9067  -14.3989   26.1214 S   0  0  0  0  0  0  0  0  0  0  0  0
    8.1200  -13.2768   27.5085 C   0  0  0  0  0  0  0  0  0  0  0  0
    9.0668  -16.3197   27.1743 O   0  0  0  0  0  0  0  0  0  0  0  0
    8.1617  -17.1725   27.3299 O   0  0  0  0  0  0  0  0  0  0  0  0
  2  1  1  1
  3  2  1  0
  4  5  1  0
  4  3  1  0
  5  6  2  0
  7  2  1  0
  7  8  2  0
  9  5  1  0
 10 11  1  0
 11 13  1  0
 11 12  2  0
 13 14  1  0
 14 15  1  0
 17 16  1  1
 16 15  1  0
 17 18  1  0
 18  7  1  0
 19 17  1  0
 20 19  2  0
 21 19  1  0
 22 25  1  0
 22 21  1  0
 22 23  1  6
 24 23  1  0
 25 27  1  0
 26 25  2  0
M  END
$$$$
