ERC.pdb
     RDKit          3D

 27 26  0  0  1  0  0  0  0  0999 V2000
    5.8642  -18.3287   24.2012 N   0  0  0  0  0  0  0  0  0  0  0  0
    7.2615  -18.6773   24.0145 C   0  0  1  0  0  0  0  0  0  0  0  0
    7.4905  -19.6657   22.9256 C   0  0  0  0  0  0  0  0  0  0  0  0
    7.4263  -19.0447   21.5488 C   0  0  0  0  0  0  0  0  0  0  0  0
    7.6206  -20.0280   20.4731 C   0  0  0  0  0  0  0  0  0  0  0  0
    6.6836  -20.8492   20.1841 O   0  0  0  0  0  0  0  0  0  0  0  0
    8.0640  -17.4376   23.7768 C   0  0  0  0  0  0  0  0  0  0  0  0
    9.3225  -17.5012   23.6399 O   0  0  0  0  0  0  0  0  0  0  0  0
    8.7770  -20.1397   19.7221 O   0  0  0  0  0  0  0  0  0  0  0  0
    8.2216  -12.5560   17.3617 N   0  0  0  0  0  0  0  0  0  0  0  0
    8.0191  -13.9797   17.2927 C   0  0  0  0  0  0  0  0  0  0  0  0
    8.1210  -14.6403   16.1844 N   0  0  0  0  0  0  0  0  0  0  0  0
    7.7017  -14.6786   18.4655 N   0  0  0  0  0  0  0  0  0  0  0  0
    7.8080  -13.9829   19.7707 C   0  0  0  0  0  0  0  0  0  0  0  0
    7.4148  -14.8591   20.8783 C   0  0  0  0  0  0  0  0  0  0  0  0
    7.5061  -14.3528   22.2316 C   0  0  0  0  0  0  0  0  0  0  0  0
    8.3069  -14.9442   23.3243 C   0  0  2  0  0  0  0  0  0  0  0  0
    7.4799  -16.1641   23.6958 N   0  0  0  0  0  0  0  0  0  0  0  0
    8.2514  -14.1078   24.5660 C   0  0  0  0  0  0  0  0  0  0  0  0
    7.8842  -12.9456   24.5739 O   0  0  0  0  0  0  0  0  0  0  0  0
    8.0541  -15.6893   16.2641 N   0  0  0  0  0  0  0  0  0  0  0  0
    8.6413  -14.6633   25.8302 C   0  0  1  0  0  0  0  0  0  0  0  0
    8.5253  -13.8333   27.0093 C   0  0  0  0  0  0  0  0  0  0  0  0
    7.0243  -13.6592   27.2345 S   0  0  0  0  0  0  0  0  0  0  0  0
    6.4578  -11.9880   26.8954 C   0  0  0  0  0  0  0  0  0  0  0  0
    9.1690  -14.5116   28.1391 O   0  0  0  0  0  0  0  0  0  0  0  0
    9.6052  -15.6778   27.9969 O   0  0  0  0  0  0  0  0  0  0  0  0
  2  1  1  6
  3  2  1  0
  4  5  1  0
  4  3  1  0
  5  6  2  0
  7  2  1  0
  7  8  2  0
  9  5  1  0
 10 11  1  0
 11 13  1  0
 11 12  2  0
 13 14  1  0
 14 15  1  0
 17 16  1  6
 16 15  1  0
 17 18  1  0
 18  7  1  0
 19 17  1  0
 20 19  2  0
 21 19  1  0
 22 25  1  0
 22 21  1  0
 22 23  1  6
 24 23  1  0
 25 27  1  0
 26 25  2  0
M  END
$$$$
