ERC.pdb
     RDKit          3D

 27 26  0  0  1  0  0  0  0  0999 V2000
   10.9445  -19.1897   22.8887 N   0  0  0  0  0  0  0  0  0  0  0  0
    9.6095  -18.8243   23.3281 C   0  0  1  0  0  0  0  0  0  0  0  0
    9.1584  -19.5572   24.5423 C   0  0  0  0  0  0  0  0  0  0  0  0
   10.3055  -19.9710   25.4358 C   0  0  0  0  0  0  0  0  0  0  0  0
    9.8612  -20.7235   26.6180 C   0  0  0  0  0  0  0  0  0  0  0  0
    9.2132  -20.1275   27.5459 O   0  0  0  0  0  0  0  0  0  0  0  0
    9.5370  -17.3467   23.5483 C   0  0  0  0  0  0  0  0  0  0  0  0
   10.4639  -16.7410   24.1653 O   0  0  0  0  0  0  0  0  0  0  0  0
   10.0964  -22.0727   26.8140 O   0  0  0  0  0  0  0  0  0  0  0  0
    9.1836  -15.1554   17.0345 N   0  0  0  0  0  0  0  0  0  0  0  0
    8.3659  -14.2111   17.7501 C   0  0  0  0  0  0  0  0  0  0  0  0
    7.5475  -13.4088   17.1487 N   0  0  0  0  0  0  0  0  0  0  0  0
    8.4555  -14.1567   19.1479 N   0  0  0  0  0  0  0  0  0  0  0  0
    7.5282  -13.2739   19.8961 C   0  0  0  0  0  0  0  0  0  0  0  0
    7.7583  -13.3575   21.3415 C   0  0  0  0  0  0  0  0  0  0  0  0
    7.7345  -14.6589   21.9753 C   0  0  0  0  0  0  0  0  0  0  0  0
    8.5025  -15.0505   23.1761 C   0  0  2  0  0  0  0  0  0  0  0  0
    8.4612  -16.5677   23.0950 N   0  0  0  0  0  0  0  0  0  0  0  0
    7.7460  -14.7590   24.4360 C   0  0  0  0  0  0  0  0  0  0  0  0
    6.7637  -15.3892   24.7875 O   0  0  0  0  0  0  0  0  0  0  0  0
    7.0541  -12.7074   17.7617 N   0  0  0  0  0  0  0  0  0  0  0  0
    8.1646  -13.6932   25.3006 C   0  0  2  0  0  0  0  0  0  0  0  0
    7.3630  -13.4028   26.4692 C   0  0  0  0  0  0  0  0  0  0  0  0
    8.2951  -12.6580   27.4234 S   0  0  0  0  0  0  0  0  0  0  0  0
    9.7952  -13.5765   27.7909 C   0  0  0  0  0  0  0  0  0  0  0  0
    6.2181  -12.5764   26.0729 O   0  0  0  0  0  0  0  0  0  0  0  0
    6.1670  -12.1001   24.9148 O   0  0  0  0  0  0  0  0  0  0  0  0
  2  1  1  1
  3  2  1  0
  4  5  1  0
  4  3  1  0
  5  6  2  0
  7  2  1  0
  7  8  2  0
  9  5  1  0
 10 11  1  0
 11 13  1  0
 11 12  2  0
 13 14  1  0
 14 15  1  0
 17 16  1  6
 16 15  1  0
 17 18  1  0
 18  7  1  0
 19 17  1  0
 20 19  2  0
 21 19  1  0
 22 25  1  0
 22 21  1  0
 22 23  1  6
 24 23  1  0
 25 27  1  0
 26 25  2  0
M  END
$$$$
