ERC.pdb
     RDKit          3D

 27 26  0  0  1  0  0  0  0  0999 V2000
   11.2063  -19.4545   19.5447 N   0  0  0  0  0  0  0  0  0  0  0  0
   12.3348  -18.6786   19.0616 C   0  0  1  0  0  0  0  0  0  0  0  0
   12.2172  -18.2787   17.6329 C   0  0  0  0  0  0  0  0  0  0  0  0
   13.2764  -18.9114   16.7592 C   0  0  0  0  0  0  0  0  0  0  0  0
   13.6089  -18.0904   15.5858 C   0  0  0  0  0  0  0  0  0  0  0  0
   13.0043  -16.9798   15.3935 O   0  0  0  0  0  0  0  0  0  0  0  0
   12.5300  -17.4764   19.9299 C   0  0  0  0  0  0  0  0  0  0  0  0
   13.6133  -16.8196   19.8868 O   0  0  0  0  0  0  0  0  0  0  0  0
   14.5572  -18.4355   14.6395 O   0  0  0  0  0  0  0  0  0  0  0  0
    7.7105  -12.3798   17.7445 N   0  0  0  0  0  0  0  0  0  0  0  0
    7.6087  -13.1977   18.9249 C   0  0  0  0  0  0  0  0  0  0  0  0
    6.4914  -13.3658   19.5562 N   0  0  0  0  0  0  0  0  0  0  0  0
    8.7578  -13.8373   19.4097 N   0  0  0  0  0  0  0  0  0  0  0  0
   10.0538  -13.1176   19.3721 C   0  0  0  0  0  0  0  0  0  0  0  0
   11.1342  -13.9297   19.9401 C   0  0  0  0  0  0  0  0  0  0  0  0
   10.8312  -14.8157   21.0442 C   0  0  0  0  0  0  0  0  0  0  0  0
   11.7679  -15.7764   21.6647 C   0  0  2  0  0  0  0  0  0  0  0  0
   11.5463  -17.0212   20.8213 N   0  0  0  0  0  0  0  0  0  0  0  0
   11.3036  -16.2023   23.0239 C   0  0  0  0  0  0  0  0  0  0  0  0
   10.1775  -15.9951   23.4416 O   0  0  0  0  0  0  0  0  0  0  0  0
    6.5078  -14.0629   20.3467 N   0  0  0  0  0  0  0  0  0  0  0  0
   12.1973  -16.8910   23.9104 C   0  0  1  0  0  0  0  0  0  0  0  0
   11.7029  -17.2885   25.2105 C   0  0  0  0  0  0  0  0  0  0  0  0
   10.6132  -18.3217   24.9294 S   0  0  0  0  0  0  0  0  0  0  0  0
   10.1012  -19.2132   26.4032 C   0  0  0  0  0  0  0  0  0  0  0  0
   12.8060  -17.8605   25.9894 O   0  0  0  0  0  0  0  0  0  0  0  0
   13.9010  -18.1030   25.4301 O   0  0  0  0  0  0  0  0  0  0  0  0
  2  1  1  1
  3  2  1  0
  4  5  1  0
  4  3  1  0
  5  6  2  0
  7  2  1  0
  7  8  2  0
  9  5  1  0
 10 11  1  0
 11 13  1  0
 11 12  2  0
 13 14  1  0
 14 15  1  0
 17 16  1  6
 16 15  1  0
 17 18  1  0
 18  7  1  0
 19 17  1  0
 20 19  2  0
 21 19  1  0
 22 25  1  0
 22 21  1  0
 22 23  1  1
 24 23  1  0
 25 27  1  0
 26 25  2  0
M  END
$$$$
