ERC.pdb
     RDKit          3D

 27 26  0  0  1  0  0  0  0  0999 V2000
   13.6060  -17.2626   21.1978 N   0  0  0  0  0  0  0  0  0  0  0  0
   12.2468  -17.6499   21.5317 C   0  0  1  0  0  0  0  0  0  0  0  0
   12.1346  -19.0327   22.0702 C   0  0  0  0  0  0  0  0  0  0  0  0
   13.4680  -19.6059   22.4930 C   0  0  0  0  0  0  0  0  0  0  0  0
   13.5709  -21.0505   22.2396 C   0  0  0  0  0  0  0  0  0  0  0  0
   13.8204  -21.4737   21.0587 O   0  0  0  0  0  0  0  0  0  0  0  0
   11.6614  -16.6627   22.4909 C   0  0  0  0  0  0  0  0  0  0  0  0
   12.4091  -16.0060   23.2760 O   0  0  0  0  0  0  0  0  0  0  0  0
   13.4136  -22.0229   23.2109 O   0  0  0  0  0  0  0  0  0  0  0  0
    7.9215  -12.2877   19.0070 N   0  0  0  0  0  0  0  0  0  0  0  0
    7.6299  -13.6552   18.6641 C   0  0  0  0  0  0  0  0  0  0  0  0
    7.9396  -14.1615   17.5140 N   0  0  0  0  0  0  0  0  0  0  0  0
    6.9894  -14.4706   19.6073 N   0  0  0  0  0  0  0  0  0  0  0  0
    6.9303  -14.0281   21.0214 C   0  0  0  0  0  0  0  0  0  0  0  0
    8.2503  -14.0871   21.6566 C   0  0  0  0  0  0  0  0  0  0  0  0
    8.4475  -14.9947   22.7672 C   0  0  0  0  0  0  0  0  0  0  0  0
    9.7372  -15.2848   23.4288 C   0  0  2  0  0  0  0  0  0  0  0  0
   10.2822  -16.4165   22.5731 N   0  0  0  0  0  0  0  0  0  0  0  0
    9.5400  -15.9356   24.7637 C   0  0  0  0  0  0  0  0  0  0  0  0
    9.5489  -17.1434   24.9270 O   0  0  0  0  0  0  0  0  0  0  0  0
    7.7324  -15.1876   17.3900 N   0  0  0  0  0  0  0  0  0  0  0  0
    9.3266  -15.1340   25.9345 C   0  0  2  0  0  0  0  0  0  0  0  0
    9.0889  -15.8071   27.1927 C   0  0  0  0  0  0  0  0  0  0  0  0
    9.1369  -14.7087   28.2535 S   0  0  0  0  0  0  0  0  0  0  0  0
   10.5997  -13.6737   28.1195 C   0  0  0  0  0  0  0  0  0  0  0  0
    7.7770  -16.4611   27.1471 O   0  0  0  0  0  0  0  0  0  0  0  0
    6.9540  -16.1411   26.2578 O   0  0  0  0  0  0  0  0  0  0  0  0
  2  1  1  1
  3  2  1  0
  4  5  1  0
  4  3  1  0
  5  6  2  0
  7  2  1  0
  7  8  2  0
  9  5  1  0
 10 11  1  0
 11 13  1  0
 11 12  2  0
 13 14  1  0
 14 15  1  0
 17 16  1  6
 16 15  1  0
 17 18  1  0
 18  7  1  0
 19 17  1  0
 20 19  2  0
 21 19  1  0
 22 25  1  0
 22 21  1  0
 22 23  1  6
 24 23  1  0
 25 27  1  0
 26 25  2  0
M  END
$$$$
