ERC.pdb
     RDKit          3D

 27 26  0  0  1  0  0  0  0  0999 V2000
   10.7982  -16.3917   19.6417 N   0  0  0  0  0  0  0  0  0  0  0  0
    9.9580  -15.2398   19.9172 C   0  0  1  0  0  0  0  0  0  0  0  0
    9.2324  -14.7296   18.7221 C   0  0  0  0  0  0  0  0  0  0  0  0
    8.4856  -15.8165   17.9830 C   0  0  0  0  0  0  0  0  0  0  0  0
    7.7279  -15.3029   16.8325 C   0  0  0  0  0  0  0  0  0  0  0  0
    6.7199  -14.5392   17.0235 O   0  0  0  0  0  0  0  0  0  0  0  0
    8.9972  -15.5666   21.0160 C   0  0  0  0  0  0  0  0  0  0  0  0
    8.0154  -16.3398   20.8045 O   0  0  0  0  0  0  0  0  0  0  0  0
    8.0289  -15.5901   15.5132 O   0  0  0  0  0  0  0  0  0  0  0  0
   11.3953  -21.9519   24.1173 N   0  0  0  0  0  0  0  0  0  0  0  0
   10.3584  -21.0769   23.6359 C   0  0  0  0  0  0  0  0  0  0  0  0
    9.2222  -21.5220   23.2046 N   0  0  0  0  0  0  0  0  0  0  0  0
   10.5832  -19.6934   23.6341 N   0  0  0  0  0  0  0  0  0  0  0  0
   10.2919  -18.9139   24.8615 C   0  0  0  0  0  0  0  0  0  0  0  0
    9.1866  -17.9744   24.6497 C   0  0  0  0  0  0  0  0  0  0  0  0
    9.3282  -16.9516   23.6349 C   0  0  0  0  0  0  0  0  0  0  0  0
    8.4911  -15.7402   23.5049 C   0  0  2  0  0  0  0  0  0  0  0  0
    9.1270  -15.0448   22.3124 N   0  0  0  0  0  0  0  0  0  0  0  0
    8.7338  -14.7770   24.6264 C   0  0  0  0  0  0  0  0  0  0  0  0
    9.8476  -14.4486   24.9970 O   0  0  0  0  0  0  0  0  0  0  0  0
    8.5311  -20.7924   22.8861 N   0  0  0  0  0  0  0  0  0  0  0  0
    7.6282  -14.1886   25.3264 C   0  0  2  0  0  0  0  0  0  0  0  0
    7.9112  -13.2730   26.4100 C   0  0  0  0  0  0  0  0  0  0  0  0
    6.5666  -12.6413   26.7665 S   0  0  0  0  0  0  0  0  0  0  0  0
    5.7830  -11.8330   25.3659 C   0  0  0  0  0  0  0  0  0  0  0  0
    8.4749  -14.0228   27.5373 O   0  0  0  0  0  0  0  0  0  0  0  0
    8.5134  -15.2747   27.4936 O   0  0  0  0  0  0  0  0  0  0  0  0
  2  1  1  6
  3  2  1  0
  4  5  1  0
  4  3  1  0
  5  6  2  0
  7  2  1  0
  7  8  2  0
  9  5  1  0
 10 11  1  0
 11 13  1  0
 11 12  2  0
 13 14  1  0
 14 15  1  0
 17 16  1  1
 16 15  1  0
 17 18  1  0
 18  7  1  0
 19 17  1  0
 20 19  2  0
 21 19  1  0
 22 25  1  0
 22 21  1  0
 22 23  1  6
 24 23  1  0
 25 27  1  0
 26 25  2  0
M  END
$$$$
