ERC.pdb
     RDKit          3D

 27 26  0  0  1  0  0  0  0  0999 V2000
    9.5653  -18.2641   17.5044 N   0  0  0  0  0  0  0  0  0  0  0  0
    9.1920  -17.7112   18.7943 C   0  0  1  0  0  0  0  0  0  0  0  0
    7.8137  -18.0732   19.2234 C   0  0  0  0  0  0  0  0  0  0  0  0
    7.5992  -19.5675   19.3029 C   0  0  0  0  0  0  0  0  0  0  0  0
    6.2064  -19.9254   19.6092 C   0  0  0  0  0  0  0  0  0  0  0  0
    5.3533  -20.0320   18.6622 O   0  0  0  0  0  0  0  0  0  0  0  0
   10.1904  -18.1239   19.8288 C   0  0  0  0  0  0  0  0  0  0  0  0
   10.2578  -19.3295   20.2143 O   0  0  0  0  0  0  0  0  0  0  0  0
    5.7282  -20.1645   20.8851 O   0  0  0  0  0  0  0  0  0  0  0  0
   15.8622  -17.9422   17.3721 N   0  0  0  0  0  0  0  0  0  0  0  0
   16.4446  -19.0936   18.0106 C   0  0  0  0  0  0  0  0  0  0  0  0
   17.0518  -20.0217   17.3436 N   0  0  0  0  0  0  0  0  0  0  0  0
   16.3540  -19.2165   19.4040 N   0  0  0  0  0  0  0  0  0  0  0  0
   15.6694  -18.1533   20.1787 C   0  0  0  0  0  0  0  0  0  0  0  0
   14.2144  -18.2230   20.0138 C   0  0  0  0  0  0  0  0  0  0  0  0
   13.3831  -17.3260   20.7886 C   0  0  0  0  0  0  0  0  0  0  0  0
   12.1066  -17.6795   21.4448 C   0  0  2  0  0  0  0  0  0  0  0  0
   11.0862  -17.2179   20.4173 N   0  0  0  0  0  0  0  0  0  0  0  0
   11.8255  -16.7948   22.6208 C   0  0  0  0  0  0  0  0  0  0  0  0
   11.9352  -15.5814   22.5864 O   0  0  0  0  0  0  0  0  0  0  0  0
   17.5718  -20.7375   17.9167 N   0  0  0  0  0  0  0  0  0  0  0  0
   11.4040  -17.3632   23.8689 C   0  0  1  0  0  0  0  0  0  0  0  0
   10.8117  -16.4875   24.8564 C   0  0  0  0  0  0  0  0  0  0  0  0
    9.5376  -15.9500   24.2069 S   0  0  0  0  0  0  0  0  0  0  0  0
    8.6017  -14.8705   25.2966 C   0  0  0  0  0  0  0  0  0  0  0  0
   10.5194  -17.2591   26.0688 O   0  0  0  0  0  0  0  0  0  0  0  0
   10.3657  -18.5006   25.9931 O   0  0  0  0  0  0  0  0  0  0  0  0
  2  1  1  6
  3  2  1  0
  4  5  1  0
  4  3  1  0
  5  6  2  0
  7  2  1  0
  7  8  2  0
  9  5  1  0
 10 11  1  0
 11 13  1  0
 11 12  2  0
 13 14  1  0
 14 15  1  0
 17 16  1  6
 16 15  1  0
 17 18  1  0
 18  7  1  0
 19 17  1  0
 20 19  2  0
 21 19  1  0
 22 25  1  0
 22 21  1  0
 22 23  1  1
 24 23  1  0
 25 27  1  0
 26 25  2  0
M  END
$$$$
