ERC.pdb
     RDKit          3D

 27 26  0  0  1  0  0  0  0  0999 V2000
   10.0640  -21.5003   17.0703 N   0  0  0  0  0  0  0  0  0  0  0  0
    9.5327  -21.3681   18.4153 C   0  0  1  0  0  0  0  0  0  0  0  0
    9.7812  -22.5568   19.2756 C   0  0  0  0  0  0  0  0  0  0  0  0
   11.2514  -22.8781   19.4191 C   0  0  0  0  0  0  0  0  0  0  0  0
   11.6396  -23.1505   20.8107 C   0  0  0  0  0  0  0  0  0  0  0  0
   10.7750  -23.0388   21.7466 O   0  0  0  0  0  0  0  0  0  0  0  0
   10.0800  -20.1319   19.0553 C   0  0  0  0  0  0  0  0  0  0  0  0
   11.2774  -19.7735   18.8447 O   0  0  0  0  0  0  0  0  0  0  0  0
   12.9106  -23.5314   21.2025 O   0  0  0  0  0  0  0  0  0  0  0  0
    7.9574  -13.5593   18.8360 N   0  0  0  0  0  0  0  0  0  0  0  0
    7.8351  -12.9246   20.1223 C   0  0  0  0  0  0  0  0  0  0  0  0
    8.1062  -11.6722   20.3046 N   0  0  0  0  0  0  0  0  0  0  0  0
    7.4064  -13.6863   21.2181 N   0  0  0  0  0  0  0  0  0  0  0  0
    7.2795  -15.1562   21.0690 C   0  0  0  0  0  0  0  0  0  0  0  0
    8.5886  -15.7916   20.8910 C   0  0  0  0  0  0  0  0  0  0  0  0
    8.6423  -17.2185   20.6525 C   0  0  0  0  0  0  0  0  0  0  0  0
    9.8707  -18.0174   20.4574 C   0  0  2  0  0  0  0  0  0  0  0  0
    9.3145  -19.3202   19.9066 N   0  0  0  0  0  0  0  0  0  0  0  0
   10.4735  -18.4333   21.7643 C   0  0  0  0  0  0  0  0  0  0  0  0
   10.0380  -19.3489   22.4407 O   0  0  0  0  0  0  0  0  0  0  0  0
    7.9525  -11.3036   21.2802 N   0  0  0  0  0  0  0  0  0  0  0  0
   11.6215  -17.7459   22.2825 C   0  0  2  0  0  0  0  0  0  0  0  0
   12.1380  -18.1488   23.5723 C   0  0  0  0  0  0  0  0  0  0  0  0
   13.6200  -18.4391   23.3409 S   0  0  0  0  0  0  0  0  0  0  0  0
   14.5084  -18.7861   24.8638 C   0  0  0  0  0  0  0  0  0  0  0  0
   11.9417  -17.0563   24.5307 O   0  0  0  0  0  0  0  0  0  0  0  0
   11.8413  -15.8776   24.1171 O   0  0  0  0  0  0  0  0  0  0  0  0
  2  1  1  6
  3  2  1  0
  4  5  1  0
  4  3  1  0
  5  6  2  0
  7  2  1  0
  7  8  2  0
  9  5  1  0
 10 11  1  0
 11 13  1  0
 11 12  2  0
 13 14  1  0
 14 15  1  0
 17 16  1  1
 16 15  1  0
 17 18  1  0
 18  7  1  0
 19 17  1  0
 20 19  2  0
 21 19  1  0
 22 25  1  0
 22 21  1  0
 22 23  1  6
 24 23  1  0
 25 27  1  0
 26 25  2  0
M  END
$$$$
