ERC.pdb
     RDKit          3D

 27 26  0  0  1  0  0  0  0  0999 V2000
    9.1188  -18.2899   22.7837 N   0  0  0  0  0  0  0  0  0  0  0  0
   10.4103  -17.6442   22.6291 C   0  0  1  0  0  0  0  0  0  0  0  0
   11.2014  -18.1581   21.4780 C   0  0  0  0  0  0  0  0  0  0  0  0
   10.6219  -19.4238   20.8884 C   0  0  0  0  0  0  0  0  0  0  0  0
   11.4329  -19.9590   19.7850 C   0  0  0  0  0  0  0  0  0  0  0  0
   12.1216  -21.0227   19.9586 O   0  0  0  0  0  0  0  0  0  0  0  0
   10.2253  -16.1639   22.5211 C   0  0  0  0  0  0  0  0  0  0  0  0
   11.2235  -15.4001   22.3570 O   0  0  0  0  0  0  0  0  0  0  0  0
   11.5135  -19.3833   18.5297 O   0  0  0  0  0  0  0  0  0  0  0  0
    8.4660  -12.4773   17.4119 N   0  0  0  0  0  0  0  0  0  0  0  0
    8.0819  -13.8443   17.1747 C   0  0  0  0  0  0  0  0  0  0  0  0
    8.5768  -14.5439   16.2048 N   0  0  0  0  0  0  0  0  0  0  0  0
    7.1400  -14.4426   18.0230 N   0  0  0  0  0  0  0  0  0  0  0  0
    6.6919  -13.7113   19.2327 C   0  0  0  0  0  0  0  0  0  0  0  0
    7.8072  -13.4601   20.1505 C   0  0  0  0  0  0  0  0  0  0  0  0
    7.6989  -13.9205   21.5188 C   0  0  0  0  0  0  0  0  0  0  0  0
    8.8146  -14.0451   22.4805 C   0  0  2  0  0  0  0  0  0  0  0  0
    8.9638  -15.5533   22.5954 N   0  0  0  0  0  0  0  0  0  0  0  0
    8.4015  -13.6403   23.8625 C   0  0  0  0  0  0  0  0  0  0  0  0
    7.9647  -12.5351   24.1334 O   0  0  0  0  0  0  0  0  0  0  0  0
    8.2053  -15.5256   16.1069 N   0  0  0  0  0  0  0  0  0  0  0  0
    8.5093  -14.5693   24.9507 C   0  0  1  0  0  0  0  0  0  0  0  0
    8.1135  -14.1287   26.2705 C   0  0  0  0  0  0  0  0  0  0  0  0
    6.6229  -13.8126   26.1605 S   0  0  0  0  0  0  0  0  0  0  0  0
    6.0338  -12.7586   27.4912 C   0  0  0  0  0  0  0  0  0  0  0  0
    8.3710  -15.2047   27.2332 O   0  0  0  0  0  0  0  0  0  0  0  0
    8.5756  -16.3706   26.8217 O   0  0  0  0  0  0  0  0  0  0  0  0
  2  1  1  6
  3  2  1  0
  4  5  1  0
  4  3  1  0
  5  6  2  0
  7  2  1  0
  7  8  2  0
  9  5  1  0
 10 11  1  0
 11 13  1  0
 11 12  2  0
 13 14  1  0
 14 15  1  0
 17 16  1  6
 16 15  1  0
 17 18  1  0
 18  7  1  0
 19 17  1  0
 20 19  2  0
 21 19  1  0
 22 25  1  0
 22 21  1  0
 22 23  1  6
 24 23  1  0
 25 27  1  0
 26 25  2  0
M  END
$$$$
