ERC.pdb
     RDKit          3D

 27 26  0  0  1  0  0  0  0  0999 V2000
   17.4271  -20.2369   25.0256 N   0  0  0  0  0  0  0  0  0  0  0  0
   17.1336  -21.5470   25.5790 C   0  0  1  0  0  0  0  0  0  0  0  0
   18.3248  -22.2377   26.1437 C   0  0  0  0  0  0  0  0  0  0  0  0
   19.1579  -21.3384   27.0283 C   0  0  0  0  0  0  0  0  0  0  0  0
   20.3375  -22.0204   27.5806 C   0  0  0  0  0  0  0  0  0  0  0  0
   20.3391  -23.2939   27.6999 O   0  0  0  0  0  0  0  0  0  0  0  0
   16.0557  -21.4302   26.6094 C   0  0  0  0  0  0  0  0  0  0  0  0
   15.8964  -20.3514   27.2556 O   0  0  0  0  0  0  0  0  0  0  0  0
   21.4864  -21.3716   27.9964 O   0  0  0  0  0  0  0  0  0  0  0  0
   10.2343  -27.5576   27.4077 N   0  0  0  0  0  0  0  0  0  0  0  0
    9.7802  -26.7648   28.5202 C   0  0  0  0  0  0  0  0  0  0  0  0
    9.0645  -27.2613   29.4775 N   0  0  0  0  0  0  0  0  0  0  0  0
   10.1247  -25.4071   28.5728 N   0  0  0  0  0  0  0  0  0  0  0  0
   11.1101  -24.8750   27.6008 C   0  0  0  0  0  0  0  0  0  0  0  0
   11.9991  -23.8899   28.2241 C   0  0  0  0  0  0  0  0  0  0  0  0
   13.0732  -23.3250   27.4348 C   0  0  0  0  0  0  0  0  0  0  0  0
   14.0355  -22.2998   27.8912 C   0  0  2  0  0  0  0  0  0  0  0  0
   15.1822  -22.4863   26.9113 N   0  0  0  0  0  0  0  0  0  0  0  0
   14.6521  -22.6665   29.2064 C   0  0  0  0  0  0  0  0  0  0  0  0
   15.5008  -23.5327   29.3291 O   0  0  0  0  0  0  0  0  0  0  0  0
    8.8664  -26.6172   30.2880 N   0  0  0  0  0  0  0  0  0  0  0  0
   14.2522  -21.9892   30.4064 C   0  0  2  0  0  0  0  0  0  0  0  0
   14.8796  -22.3727   31.6522 C   0  0  0  0  0  0  0  0  0  0  0  0
   15.2520  -21.0591   32.3378 S   0  0  0  0  0  0  0  0  0  0  0  0
   15.9451  -21.3009   33.9779 C   0  0  0  0  0  0  0  0  0  0  0  0
   13.9266  -23.1508   32.4503 O   0  0  0  0  0  0  0  0  0  0  0  0
   12.6984  -23.0518   32.2217 O   0  0  0  0  0  0  0  0  0  0  0  0
  2  1  1  1
  3  2  1  0
  4  5  1  0
  4  3  1  0
  5  6  2  0
  7  2  1  0
  7  8  2  0
  9  5  1  0
 10 11  1  0
 11 13  1  0
 11 12  2  0
 13 14  1  0
 14 15  1  0
 17 16  1  6
 16 15  1  0
 17 18  1  0
 18  7  1  0
 19 17  1  0
 20 19  2  0
 21 19  1  0
 22 25  1  0
 22 21  1  0
 22 23  1  1
 24 23  1  0
 25 27  1  0
 26 25  2  0
M  END
$$$$
