ERC.pdb
     RDKit          3D

 27 26  0  0  1  0  0  0  0  0999 V2000
    6.4774  -15.6201   19.7048 N   0  0  0  0  0  0  0  0  0  0  0  0
    7.4851  -15.0275   20.5663 C   0  0  1  0  0  0  0  0  0  0  0  0
    7.6475  -13.5605   20.3747 C   0  0  0  0  0  0  0  0  0  0  0  0
    7.7303  -13.1665   18.9176 C   0  0  0  0  0  0  0  0  0  0  0  0
    8.9808  -13.6055   18.2812 C   0  0  0  0  0  0  0  0  0  0  0  0
    9.8614  -14.2276   18.9693 O   0  0  0  0  0  0  0  0  0  0  0  0
    7.1748  -15.3400   21.9958 C   0  0  0  0  0  0  0  0  0  0  0  0
    5.9844  -15.2735   22.4260 O   0  0  0  0  0  0  0  0  0  0  0  0
    9.2921  -13.3917   16.9503 O   0  0  0  0  0  0  0  0  0  0  0  0
    6.5890  -21.3109   27.3118 N   0  0  0  0  0  0  0  0  0  0  0  0
    6.5316  -21.6577   25.9157 C   0  0  0  0  0  0  0  0  0  0  0  0
    5.9810  -22.7513   25.4963 N   0  0  0  0  0  0  0  0  0  0  0  0
    7.0894  -20.7816   24.9744 N   0  0  0  0  0  0  0  0  0  0  0  0
    7.4300  -19.3992   25.3890 C   0  0  0  0  0  0  0  0  0  0  0  0
    8.0625  -18.6530   24.2970 C   0  0  0  0  0  0  0  0  0  0  0  0
    8.5559  -17.3179   24.5617 C   0  0  0  0  0  0  0  0  0  0  0  0
    7.8055  -16.0613   24.3543 C   0  0  2  0  0  0  0  0  0  0  0  0
    8.1637  -15.7143   22.9186 N   0  0  0  0  0  0  0  0  0  0  0  0
    8.3987  -14.9277   25.1338 C   0  0  0  0  0  0  0  0  0  0  0  0
    9.5382  -14.5273   24.9702 O   0  0  0  0  0  0  0  0  0  0  0  0
    6.0520  -22.9367   24.4610 N   0  0  0  0  0  0  0  0  0  0  0  0
    7.6211  -14.2520   26.1325 C   0  0  2  0  0  0  0  0  0  0  0  0
    8.2483  -13.1889   26.8870 C   0  0  0  0  0  0  0  0  0  0  0  0
    7.0966  -12.3366   27.4174 S   0  0  0  0  0  0  0  0  0  0  0  0
    5.9530  -11.8295   26.1275 C   0  0  0  0  0  0  0  0  0  0  0  0
    9.0375  -13.7738   27.9759 O   0  0  0  0  0  0  0  0  0  0  0  0
    9.6546  -13.0240   28.7681 O   0  0  0  0  0  0  0  0  0  0  0  0
  2  1  1  6
  3  2  1  0
  4  5  1  0
  4  3  1  0
  5  6  2  0
  7  2  1  0
  7  8  2  0
  9  5  1  0
 10 11  1  0
 11 13  1  0
 11 12  2  0
 13 14  1  0
 14 15  1  0
 17 16  1  1
 16 15  1  0
 17 18  1  0
 18  7  1  0
 19 17  1  0
 20 19  2  0
 21 19  1  0
 22 25  1  0
 22 21  1  0
 22 23  1  6
 24 23  1  0
 25 27  1  0
 26 25  2  0
M  END
$$$$
