NIM.pdb
     RDKit          3D

 25 24  0  0  1  0  0  0  0  0999 V2000
   13.3903  -19.5424   18.3870 N   0  0  0  0  0  0  0  0  0  0  0  0
   12.3949  -18.7352   17.8116 C   0  0  0  0  0  0  0  0  0  0  0  0
   11.9346  -19.0162   16.6937 O   0  0  0  0  0  0  0  0  0  0  0  0
   11.9080  -17.5598   18.5459 C   0  0  0  0  0  0  0  0  0  0  0  0
   10.9036  -17.8194   19.6074 C   0  0  2  0  0  0  0  0  0  0  0  0
    9.7088  -18.4524   19.1820 N   0  0  0  0  0  0  0  0  0  0  0  0
   10.6366  -16.5303   20.3029 C   0  0  0  0  0  0  0  0  0  0  0  0
   11.5974  -15.7954   20.6374 O   0  0  0  0  0  0  0  0  0  0  0  0
    7.1882  -12.8221   18.8302 C   0  0  0  0  0  0  0  0  0  0  0  0
    8.3366  -13.5376   19.4711 C   0  0  0  0  0  0  0  0  0  0  0  0
    8.0083  -14.1452   20.7897 C   0  0  2  0  0  0  0  0  0  0  0  0
    7.4090  -13.0534   21.6502 C   0  0  0  0  0  0  0  0  0  0  0  0
    9.0893  -14.9007   21.4791 C   0  0  2  0  0  0  0  0  0  0  0  0
    9.3242  -16.0846   20.6114 N   0  0  0  0  0  0  0  0  0  0  0  0
    8.8134  -15.3459   22.8433 C   0  0  0  0  0  0  0  0  0  0  0  0
    7.9411  -16.2636   23.0334 O   0  0  0  0  0  0  0  0  0  0  0  0
    6.8489  -11.7591   28.0426 C   0  0  0  0  0  0  0  0  0  0  0  0
    5.8555  -12.7053   26.8296 S   0  0  0  0  0  0  0  0  0  0  0  0
    6.6412  -14.3079   26.5130 C   0  0  0  0  0  0  0  0  0  0  0  0
    7.3539  -14.2688   25.1841 C   0  0  0  0  0  0  0  0  0  0  0  0
    8.7542  -14.8470   25.2951 C   0  0  2  0  0  0  0  0  0  0  0  0
    9.4280  -14.8580   24.0121 N   0  0  0  0  0  0  0  0  0  0  0  0
    8.6898  -16.2149   25.8221 C   0  0  0  0  0  0  0  0  0  0  0  0
    8.9857  -17.2370   25.1321 O   0  0  0  0  0  0  0  0  0  0  0  0
    8.2919  -16.4317   27.1261 O   0  0  0  0  0  0  0  0  0  0  0  0
  2  1  1  0
  3  2  2  0
  4  2  1  0
  5  6  1  6
  5  4  1  0
  7  5  1  0
  8  7  2  0
  9 10  1  0
 11 10  1  0
 11 13  1  0
 11 12  1  1
 13 14  1  6
 14  7  1  0
 15 13  1  0
 15 16  2  0
 18 17  1  0
 19 18  1  0
 20 19  1  0
 21 20  1  6
 22 21  1  0
 22 15  1  0
 23 21  1  0
 24 23  2  0
 25 23  1  0
M  END
$$$$
