NIM.pdb
     RDKit          3D

 25 24  0  0  1  0  0  0  0  0999 V2000
    8.7224  -21.2111   18.5737 N   0  0  0  0  0  0  0  0  0  0  0  0
    9.0502  -20.1575   17.7041 C   0  0  0  0  0  0  0  0  0  0  0  0
    9.3941  -20.3984   16.5362 O   0  0  0  0  0  0  0  0  0  0  0  0
    8.9811  -18.7737   18.1922 C   0  0  0  0  0  0  0  0  0  0  0  0
    8.7054  -18.6020   19.6405 C   0  0  2  0  0  0  0  0  0  0  0  0
    7.3382  -18.6293   20.0136 N   0  0  0  0  0  0  0  0  0  0  0  0
    9.3817  -17.3523   20.0849 C   0  0  0  0  0  0  0  0  0  0  0  0
   10.6058  -17.1948   19.8572 O   0  0  0  0  0  0  0  0  0  0  0  0
    6.8694  -12.3749   20.2960 C   0  0  0  0  0  0  0  0  0  0  0  0
    7.3784  -13.6287   20.9368 C   0  0  0  0  0  0  0  0  0  0  0  0
    8.7779  -13.9715   20.5633 C   0  0  2  0  0  0  0  0  0  0  0  0
    8.8170  -14.1199   19.0573 C   0  0  0  0  0  0  0  0  0  0  0  0
    9.4124  -15.1133   21.2762 C   0  0  2  0  0  0  0  0  0  0  0  0
    8.6963  -16.3118   20.7659 N   0  0  0  0  0  0  0  0  0  0  0  0
    9.3483  -15.0946   22.7360 C   0  0  0  0  0  0  0  0  0  0  0  0
   10.0467  -14.2349   23.3781 O   0  0  0  0  0  0  0  0  0  0  0  0
    7.5029  -11.3204   27.6483 C   0  0  0  0  0  0  0  0  0  0  0  0
    6.9244  -12.4488   26.3271 S   0  0  0  0  0  0  0  0  0  0  0  0
    7.6277  -14.1000   26.5817 C   0  0  0  0  0  0  0  0  0  0  0  0
    7.2986  -14.9783   25.4003 C   0  0  0  0  0  0  0  0  0  0  0  0
    8.5007  -15.8068   24.9806 C   0  0  2  0  0  0  0  0  0  0  0  0
    8.5710  -15.9496   23.5401 N   0  0  0  0  0  0  0  0  0  0  0  0
    8.4316  -17.1361   25.5981 C   0  0  0  0  0  0  0  0  0  0  0  0
    8.4176  -18.2115   24.9261 O   0  0  0  0  0  0  0  0  0  0  0  0
    8.3782  -17.2541   26.9725 O   0  0  0  0  0  0  0  0  0  0  0  0
  2  1  1  0
  3  2  2  0
  4  2  1  0
  5  6  1  6
  5  4  1  0
  7  5  1  0
  8  7  2  0
  9 10  1  0
 11 10  1  0
 11 13  1  0
 11 12  1  6
 13 14  1  6
 14  7  1  0
 15 13  1  0
 15 16  2  0
 18 17  1  0
 19 18  1  0
 20 19  1  0
 21 20  1  6
 22 21  1  0
 22 15  1  0
 23 21  1  0
 24 23  2  0
 25 23  1  0
M  END
$$$$
