NIM.pdb
     RDKit          3D

 25 24  0  0  1  0  0  0  0  0999 V2000
    8.7793  -21.7790   20.9276 N   0  0  0  0  0  0  0  0  0  0  0  0
    8.8000  -20.6975   20.0312 C   0  0  0  0  0  0  0  0  0  0  0  0
    8.4740  -20.8654   18.8455 O   0  0  0  0  0  0  0  0  0  0  0  0
    9.2102  -19.3716   20.5125 C   0  0  0  0  0  0  0  0  0  0  0  0
    8.9770  -18.2362   19.5855 C   0  0  2  0  0  0  0  0  0  0  0  0
    9.5176  -18.3844   18.2834 N   0  0  0  0  0  0  0  0  0  0  0  0
    9.4623  -16.9982   20.2550 C   0  0  0  0  0  0  0  0  0  0  0  0
   10.6939  -16.8271   20.4253 O   0  0  0  0  0  0  0  0  0  0  0  0
    6.5632  -12.3825   19.7935 C   0  0  0  0  0  0  0  0  0  0  0  0
    7.7471  -13.2928   19.8986 C   0  0  0  0  0  0  0  0  0  0  0  0
    8.0177  -13.7729   21.2814 C   0  0  2  0  0  0  0  0  0  0  0  0
    8.2244  -12.5496   22.1488 C   0  0  0  0  0  0  0  0  0  0  0  0
    9.0882  -14.7927   21.4506 C   0  0  2  0  0  0  0  0  0  0  0  0
    8.5834  -15.9837   20.7182 N   0  0  0  0  0  0  0  0  0  0  0  0
    9.4244  -15.1721   22.8211 C   0  0  0  0  0  0  0  0  0  0  0  0
   10.4786  -14.6852   23.3603 O   0  0  0  0  0  0  0  0  0  0  0  0
    5.3938  -12.7272   26.8171 C   0  0  0  0  0  0  0  0  0  0  0  0
    7.1207  -12.8672   27.4100 S   0  0  0  0  0  0  0  0  0  0  0  0
    7.7864  -14.4963   26.9754 C   0  0  0  0  0  0  0  0  0  0  0  0
    7.9276  -14.6024   25.4773 C   0  0  0  0  0  0  0  0  0  0  0  0
    8.6273  -15.8914   25.0819 C   0  0  2  0  0  0  0  0  0  0  0  0
    8.6851  -16.0448   23.6420 N   0  0  0  0  0  0  0  0  0  0  0  0
    7.9254  -17.0403   25.6654 C   0  0  0  0  0  0  0  0  0  0  0  0
    7.1447  -17.7854   24.9994 O   0  0  0  0  0  0  0  0  0  0  0  0
    8.1028  -17.3499   26.9990 O   0  0  0  0  0  0  0  0  0  0  0  0
  2  1  1  0
  3  2  2  0
  4  2  1  0
  5  6  1  6
  5  4  1  0
  7  5  1  0
  8  7  2  0
  9 10  1  0
 11 10  1  0
 11 13  1  0
 11 12  1  1
 13 14  1  6
 14  7  1  0
 15 13  1  0
 15 16  2  0
 18 17  1  0
 19 18  1  0
 20 19  1  0
 21 20  1  6
 22 21  1  0
 22 15  1  0
 23 21  1  0
 24 23  2  0
 25 23  1  0
M  END
$$$$
