NIM.pdb
     RDKit          3D

 25 24  0  0  1  0  0  0  0  0999 V2000
   11.4793  -18.3391   16.1675 N   0  0  0  0  0  0  0  0  0  0  0  0
   11.8390  -18.5182   17.5137 C   0  0  0  0  0  0  0  0  0  0  0  0
   12.4296  -19.5506   17.8682 O   0  0  0  0  0  0  0  0  0  0  0  0
   11.5091  -17.4731   18.4918 C   0  0  0  0  0  0  0  0  0  0  0  0
   10.8097  -17.9228   19.7213 C   0  0  2  0  0  0  0  0  0  0  0  0
    9.6205  -18.6664   19.5153 N   0  0  0  0  0  0  0  0  0  0  0  0
   10.5795  -16.7249   20.5749 C   0  0  0  0  0  0  0  0  0  0  0  0
   11.5221  -15.9237   20.7867 O   0  0  0  0  0  0  0  0  0  0  0  0
    6.8044  -13.5174   19.4322 C   0  0  0  0  0  0  0  0  0  0  0  0
    8.0746  -14.0563   20.0133 C   0  0  0  0  0  0  0  0  0  0  0  0
    7.9345  -14.5584   21.4076 C   0  0  2  0  0  0  0  0  0  0  0  0
    7.4145  -13.4113   22.2474 C   0  0  0  0  0  0  0  0  0  0  0  0
    9.1170  -15.2308   22.0110 C   0  0  2  0  0  0  0  0  0  0  0  0
    9.3229  -16.4403   21.1716 N   0  0  0  0  0  0  0  0  0  0  0  0
    9.0040  -15.6266   23.4131 C   0  0  0  0  0  0  0  0  0  0  0  0
    8.0836  -16.4482   23.7550 O   0  0  0  0  0  0  0  0  0  0  0  0
    6.5537  -10.7277   26.3331 C   0  0  0  0  0  0  0  0  0  0  0  0
    6.5857  -12.5320   26.6441 S   0  0  0  0  0  0  0  0  0  0  0  0
    8.1334  -13.2340   26.0136 C   0  0  0  0  0  0  0  0  0  0  0  0
    8.0985  -14.7364   26.1444 C   0  0  0  0  0  0  0  0  0  0  0  0
    9.4609  -15.3441   25.8576 C   0  0  2  0  0  0  0  0  0  0  0  0
    9.8302  -15.1874   24.4649 N   0  0  0  0  0  0  0  0  0  0  0  0
    9.4541  -16.7706   26.2012 C   0  0  0  0  0  0  0  0  0  0  0  0
    9.3285  -17.1956   27.3894 O   0  0  0  0  0  0  0  0  0  0  0  0
    9.5889  -17.7184   25.2066 O   0  0  0  0  0  0  0  0  0  0  0  0
  2  1  1  0
  3  2  2  0
  4  2  1  0
  5  6  1  6
  5  4  1  0
  7  5  1  0
  8  7  2  0
  9 10  1  0
 11 10  1  0
 11 13  1  0
 11 12  1  1
 13 14  1  6
 14  7  1  0
 15 13  1  0
 15 16  2  0
 18 17  1  0
 19 18  1  0
 20 19  1  0
 21 20  1  6
 22 21  1  0
 22 15  1  0
 23 21  1  0
 24 23  2  0
 25 23  1  0
M  END
$$$$
