NIM.pdb
     RDKit          3D

 25 24  0  0  1  0  0  0  0  0999 V2000
    8.4754  -18.9494   18.4319 N   0  0  0  0  0  0  0  0  0  0  0  0
    8.7499  -19.2940   19.7659 C   0  0  0  0  0  0  0  0  0  0  0  0
    8.4632  -20.4253   20.1882 O   0  0  0  0  0  0  0  0  0  0  0  0
    9.3774  -18.3033   20.6505 C   0  0  0  0  0  0  0  0  0  0  0  0
    9.0271  -16.8833   20.3979 C   0  0  2  0  0  0  0  0  0  0  0  0
    9.5624  -16.3193   19.2126 N   0  0  0  0  0  0  0  0  0  0  0  0
    9.4029  -16.1021   21.6082 C   0  0  0  0  0  0  0  0  0  0  0  0
   10.5316  -15.5567   21.6688 O   0  0  0  0  0  0  0  0  0  0  0  0
    6.5097  -13.0527   26.0308 C   0  0  0  0  0  0  0  0  0  0  0  0
    7.8172  -13.4255   25.4039 C   0  0  0  0  0  0  0  0  0  0  0  0
    7.6968  -14.4234   24.3060 C   0  0  2  0  0  0  0  0  0  0  0  0
    6.5496  -15.3451   24.6613 C   0  0  0  0  0  0  0  0  0  0  0  0
    8.9310  -15.1566   23.9141 C   0  0  2  0  0  0  0  0  0  0  0  0
    8.5304  -15.9415   22.7170 N   0  0  0  0  0  0  0  0  0  0  0  0
    9.5076  -16.0544   24.9125 C   0  0  0  0  0  0  0  0  0  0  0  0
    8.7659  -16.9534   25.4424 O   0  0  0  0  0  0  0  0  0  0  0  0
   10.0277  -12.8464   29.5020 C   0  0  0  0  0  0  0  0  0  0  0  0
   11.1892  -14.1152   30.1302 S   0  0  0  0  0  0  0  0  0  0  0  0
   11.0593  -15.6159   29.1219 C   0  0  0  0  0  0  0  0  0  0  0  0
   10.7778  -15.2402   27.6883 C   0  0  0  0  0  0  0  0  0  0  0  0
   11.1938  -16.3500   26.7382 C   0  0  2  0  0  0  0  0  0  0  0  0
   10.8395  -16.0374   25.3681 N   0  0  0  0  0  0  0  0  0  0  0  0
   10.5529  -17.6103   27.1307 C   0  0  0  0  0  0  0  0  0  0  0  0
    9.3181  -17.8419   26.9577 O   0  0  0  0  0  0  0  0  0  0  0  0
   11.3027  -18.6096   27.7180 O   0  0  0  0  0  0  0  0  0  0  0  0
  2  1  1  0
  3  2  2  0
  4  2  1  0
  5  6  1  6
  5  4  1  0
  7  5  1  0
  8  7  2  0
  9 10  1  0
 11 10  1  0
 11 13  1  0
 11 12  1  1
 13 14  1  6
 14  7  1  0
 15 13  1  0
 15 16  2  0
 18 17  1  0
 19 18  1  0
 20 19  1  0
 21 20  1  1
 22 21  1  0
 22 15  1  0
 23 21  1  0
 24 23  2  0
 25 23  1  0
M  END
$$$$
