NIM.pdb
     RDKit          3D

 25 24  0  0  1  0  0  0  0  0999 V2000
    8.4383  -16.4766   18.3245 N   0  0  0  0  0  0  0  0  0  0  0  0
    9.1234  -17.3357   19.1999 C   0  0  0  0  0  0  0  0  0  0  0  0
    9.5576  -18.4241   18.7910 O   0  0  0  0  0  0  0  0  0  0  0  0
    9.3186  -16.9315   20.5986 C   0  0  0  0  0  0  0  0  0  0  0  0
    8.6607  -15.6676   21.0140 C   0  0  2  0  0  0  0  0  0  0  0  0
    8.8672  -14.5566   20.1581 N   0  0  0  0  0  0  0  0  0  0  0  0
    9.0765  -15.3798   22.4143 C   0  0  0  0  0  0  0  0  0  0  0  0
   10.2806  -15.5111   22.7432 O   0  0  0  0  0  0  0  0  0  0  0  0
    7.5776  -11.5568   26.7900 C   0  0  0  0  0  0  0  0  0  0  0  0
    8.3574  -12.7876   26.4456 C   0  0  0  0  0  0  0  0  0  0  0  0
    7.8714  -13.4874   25.2250 C   0  0  2  0  0  0  0  0  0  0  0  0
    6.3822  -13.7010   25.3932 C   0  0  0  0  0  0  0  0  0  0  0  0
    8.5930  -14.7230   24.8160 C   0  0  2  0  0  0  0  0  0  0  0  0
    8.1604  -14.9565   23.4132 N   0  0  0  0  0  0  0  0  0  0  0  0
    8.3406  -15.9247   25.6082 C   0  0  0  0  0  0  0  0  0  0  0  0
    7.5721  -16.8321   25.1338 O   0  0  0  0  0  0  0  0  0  0  0  0
   12.5116  -18.1746   23.0895 C   0  0  0  0  0  0  0  0  0  0  0  0
   13.0928  -18.2518   24.8244 S   0  0  0  0  0  0  0  0  0  0  0  0
   11.6764  -18.4682   25.9348 C   0  0  0  0  0  0  0  0  0  0  0  0
   11.0487  -17.1270   26.2224 C   0  0  0  0  0  0  0  0  0  0  0  0
    9.8229  -17.2733   27.1076 C   0  0  2  0  0  0  0  0  0  0  0  0
    8.8732  -16.2021   26.8815 N   0  0  0  0  0  0  0  0  0  0  0  0
   10.2236  -17.2779   28.5192 C   0  0  0  0  0  0  0  0  0  0  0  0
   10.6381  -16.2434   29.1243 O   0  0  0  0  0  0  0  0  0  0  0  0
   10.1574  -18.4478   29.2491 O   0  0  0  0  0  0  0  0  0  0  0  0
  2  1  1  0
  3  2  2  0
  4  2  1  0
  5  6  1  6
  5  4  1  0
  7  5  1  0
  8  7  2  0
  9 10  1  0
 11 10  1  0
 11 13  1  0
 11 12  1  1
 13 14  1  6
 14  7  1  0
 15 13  1  0
 15 16  2  0
 18 17  1  0
 19 18  1  0
 20 19  1  0
 21 20  1  6
 22 21  1  0
 22 15  1  0
 23 21  1  0
 24 23  2  0
 25 23  1  0
M  END
$$$$
