NIM.pdb
     RDKit          3D

 25 24  0  0  1  0  0  0  0  0999 V2000
    8.7571  -17.6672   16.5102 N   0  0  0  0  0  0  0  0  0  0  0  0
    8.3704  -18.4391   17.6185 C   0  0  0  0  0  0  0  0  0  0  0  0
    7.2059  -18.8590   17.7088 O   0  0  0  0  0  0  0  0  0  0  0  0
    9.3568  -18.7416   18.6641 C   0  0  0  0  0  0  0  0  0  0  0  0
    8.9178  -18.5182   20.0643 C   0  0  2  0  0  0  0  0  0  0  0  0
    7.5316  -18.6865   20.3084 N   0  0  0  0  0  0  0  0  0  0  0  0
    9.3995  -17.1723   20.4804 C   0  0  0  0  0  0  0  0  0  0  0  0
   10.5889  -16.8418   20.2536 O   0  0  0  0  0  0  0  0  0  0  0  0
    6.8512  -12.7004   19.4081 C   0  0  0  0  0  0  0  0  0  0  0  0
    7.9698  -13.6325   19.7564 C   0  0  0  0  0  0  0  0  0  0  0  0
    8.0760  -13.9301   21.2110 C   0  0  2  0  0  0  0  0  0  0  0  0
    8.2191  -12.6059   21.9306 C   0  0  0  0  0  0  0  0  0  0  0  0
    9.0948  -14.9312   21.6284 C   0  0  2  0  0  0  0  0  0  0  0  0
    8.5636  -16.2280   21.1329 N   0  0  0  0  0  0  0  0  0  0  0  0
    9.3678  -15.0339   23.0603 C   0  0  0  0  0  0  0  0  0  0  0  0
   10.0170  -14.0939   23.6385 O   0  0  0  0  0  0  0  0  0  0  0  0
    5.8103  -11.9823   26.3980 C   0  0  0  0  0  0  0  0  0  0  0  0
    6.9731  -13.0813   27.2889 S   0  0  0  0  0  0  0  0  0  0  0  0
    6.7848  -14.7828   26.6926 C   0  0  0  0  0  0  0  0  0  0  0  0
    7.3517  -14.8969   25.2994 C   0  0  0  0  0  0  0  0  0  0  0  0
    8.5145  -15.8735   25.2582 C   0  0  2  0  0  0  0  0  0  0  0  0
    8.9771  -16.0923   23.9023 N   0  0  0  0  0  0  0  0  0  0  0  0
    8.1114  -17.1556   25.8473 C   0  0  0  0  0  0  0  0  0  0  0  0
    7.4554  -18.0341   25.2100 O   0  0  0  0  0  0  0  0  0  0  0  0
    8.4471  -17.4480   27.1540 O   0  0  0  0  0  0  0  0  0  0  0  0
  2  1  1  0
  3  2  2  0
  4  2  1  0
  5  6  1  6
  5  4  1  0
  7  5  1  0
  8  7  2  0
  9 10  1  0
 11 10  1  0
 11 13  1  0
 11 12  1  1
 13 14  1  1
 14  7  1  0
 15 13  1  0
 15 16  2  0
 18 17  1  0
 19 18  1  0
 20 19  1  0
 21 20  1  6
 22 21  1  0
 22 15  1  0
 23 21  1  0
 24 23  2  0
 25 23  1  0
M  END
$$$$
