NIM.pdb
     RDKit          3D

 25 24  0  0  1  0  0  0  0  0999 V2000
    7.4671  -17.9863   19.1954 N   0  0  0  0  0  0  0  0  0  0  0  0
    8.8075  -18.0174   19.6150 C   0  0  0  0  0  0  0  0  0  0  0  0
    9.6448  -18.6739   18.9761 O   0  0  0  0  0  0  0  0  0  0  0  0
    9.2038  -17.2667   20.8139 C   0  0  0  0  0  0  0  0  0  0  0  0
    8.7677  -15.8492   20.8741 C   0  0  2  0  0  0  0  0  0  0  0  0
    9.2293  -15.0186   19.8222 N   0  0  0  0  0  0  0  0  0  0  0  0
    9.1429  -15.3167   22.2129 C   0  0  0  0  0  0  0  0  0  0  0  0
   10.2739  -14.7990   22.3799 O   0  0  0  0  0  0  0  0  0  0  0  0
    5.9763  -12.1091   24.6879 C   0  0  0  0  0  0  0  0  0  0  0  0
    7.1682  -12.8806   24.2125 C   0  0  0  0  0  0  0  0  0  0  0  0
    7.5546  -14.0054   25.1077 C   0  0  2  0  0  0  0  0  0  0  0  0
    7.7582  -13.4276   26.4920 C   0  0  0  0  0  0  0  0  0  0  0  0
    8.6833  -14.8692   24.6669 C   0  0  2  0  0  0  0  0  0  0  0  0
    8.2672  -15.3674   23.3296 N   0  0  0  0  0  0  0  0  0  0  0  0
    9.0172  -16.0038   25.5252 C   0  0  0  0  0  0  0  0  0  0  0  0
    9.2047  -17.1526   24.9921 O   0  0  0  0  0  0  0  0  0  0  0  0
   12.4984  -14.8870   32.4914 C   0  0  0  0  0  0  0  0  0  0  0  0
   11.5963  -14.2494   31.0309 S   0  0  0  0  0  0  0  0  0  0  0  0
   11.4944  -15.5411   29.7631 C   0  0  0  0  0  0  0  0  0  0  0  0
   10.7136  -15.0279   28.5789 C   0  0  0  0  0  0  0  0  0  0  0  0
   10.4461  -16.1368   27.5757 C   0  0  2  0  0  0  0  0  0  0  0  0
    9.1624  -15.9665   26.9250 N   0  0  0  0  0  0  0  0  0  0  0  0
   10.4803  -17.4397   28.2499 C   0  0  0  0  0  0  0  0  0  0  0  0
    9.4386  -18.0311   28.6661 O   0  0  0  0  0  0  0  0  0  0  0  0
   11.6879  -18.0762   28.4555 O   0  0  0  0  0  0  0  0  0  0  0  0
  2  1  1  0
  3  2  2  0
  4  2  1  0
  5  6  1  6
  5  4  1  0
  7  5  1  0
  8  7  2  0
  9 10  1  0
 11 10  1  0
 11 13  1  0
 11 12  1  1
 13 14  1  6
 14  7  1  0
 15 13  1  0
 15 16  2  0
 18 17  1  0
 19 18  1  0
 20 19  1  0
 21 20  1  1
 22 21  1  0
 22 15  1  0
 23 21  1  0
 24 23  2  0
 25 23  1  0
M  END
$$$$
