NIM.pdb
     RDKit          3D

 25 24  0  0  1  0  0  0  0  0999 V2000
   10.6191  -20.3650   18.0539 N   0  0  0  0  0  0  0  0  0  0  0  0
   11.0397  -19.1120   17.5778 C   0  0  0  0  0  0  0  0  0  0  0  0
   11.7097  -19.0349   16.5359 O   0  0  0  0  0  0  0  0  0  0  0  0
   10.6784  -17.9000   18.3250 C   0  0  0  0  0  0  0  0  0  0  0  0
    9.9763  -18.1101   19.6157 C   0  0  2  0  0  0  0  0  0  0  0  0
    8.6881  -18.6950   19.5270 N   0  0  0  0  0  0  0  0  0  0  0  0
    9.9504  -16.8065   20.3343 C   0  0  0  0  0  0  0  0  0  0  0  0
   11.0140  -16.1557   20.4772 O   0  0  0  0  0  0  0  0  0  0  0  0
    7.0296  -12.9856   18.8980 C   0  0  0  0  0  0  0  0  0  0  0  0
    8.1488  -13.6836   19.6063 C   0  0  0  0  0  0  0  0  0  0  0  0
    7.8141  -14.1055   20.9939 C   0  0  2  0  0  0  0  0  0  0  0  0
    7.5105  -12.8502   21.7837 C   0  0  0  0  0  0  0  0  0  0  0  0
    8.7779  -15.0062   21.6827 C   0  0  2  0  0  0  0  0  0  0  0  0
    8.7593  -16.2542   20.8754 N   0  0  0  0  0  0  0  0  0  0  0  0
    8.4946  -15.3276   23.0797 C   0  0  0  0  0  0  0  0  0  0  0  0
    7.4118  -15.9470   23.3679 O   0  0  0  0  0  0  0  0  0  0  0  0
    7.1379  -10.0483   26.5007 C   0  0  0  0  0  0  0  0  0  0  0  0
    6.8789  -11.8416   26.7662 S   0  0  0  0  0  0  0  0  0  0  0  0
    7.8392  -12.7846   25.5520 C   0  0  0  0  0  0  0  0  0  0  0  0
    7.5652  -14.2581   25.7236 C   0  0  0  0  0  0  0  0  0  0  0  0
    8.8329  -15.0762   25.5468 C   0  0  2  0  0  0  0  0  0  0  0  0
    9.3154  -15.0203   24.1814 N   0  0  0  0  0  0  0  0  0  0  0  0
    8.5813  -16.4738   25.9166 C   0  0  0  0  0  0  0  0  0  0  0  0
    8.1674  -17.3440   25.0922 O   0  0  0  0  0  0  0  0  0  0  0  0
    8.7958  -16.8910   27.2149 O   0  0  0  0  0  0  0  0  0  0  0  0
  2  1  1  0
  3  2  2  0
  4  2  1  0
  5  6  1  6
  5  4  1  0
  7  5  1  0
  8  7  2  0
  9 10  1  0
 11 10  1  0
 11 13  1  0
 11 12  1  1
 13 14  1  6
 14  7  1  0
 15 13  1  0
 15 16  2  0
 18 17  1  0
 19 18  1  0
 20 19  1  0
 21 20  1  6
 22 21  1  0
 22 15  1  0
 23 21  1  0
 24 23  2  0
 25 23  1  0
M  END
$$$$
