NIM.pdb
     RDKit          3D

 25 24  0  0  1  0  0  0  0  0999 V2000
    9.0602  -18.9961   19.6749 N   0  0  0  0  0  0  0  0  0  0  0  0
    8.2665  -17.9629   20.2004 C   0  0  0  0  0  0  0  0  0  0  0  0
    7.2419  -17.5991   19.6018 O   0  0  0  0  0  0  0  0  0  0  0  0
    8.6625  -17.3215   21.4612 C   0  0  0  0  0  0  0  0  0  0  0  0
    8.5204  -15.8452   21.5190 C   0  0  2  0  0  0  0  0  0  0  0  0
    9.1885  -15.1228   20.4986 N   0  0  0  0  0  0  0  0  0  0  0  0
    8.9339  -15.4036   22.8794 C   0  0  0  0  0  0  0  0  0  0  0  0
   10.1509  -15.2291   23.1317 O   0  0  0  0  0  0  0  0  0  0  0  0
    6.0675  -11.8254   25.3853 C   0  0  0  0  0  0  0  0  0  0  0  0
    7.1646  -12.7156   24.8898 C   0  0  0  0  0  0  0  0  0  0  0  0
    7.4769  -13.8513   25.7999 C   0  0  2  0  0  0  0  0  0  0  0  0
    7.8662  -13.2602   27.1380 C   0  0  0  0  0  0  0  0  0  0  0  0
    8.4460  -14.8691   25.3104 C   0  0  2  0  0  0  0  0  0  0  0  0
    8.0012  -15.1661   23.9234 N   0  0  0  0  0  0  0  0  0  0  0  0
    8.5314  -16.1146   26.0699 C   0  0  0  0  0  0  0  0  0  0  0  0
    8.0533  -17.1875   25.5605 O   0  0  0  0  0  0  0  0  0  0  0  0
   13.3288  -16.0392   24.6057 C   0  0  0  0  0  0  0  0  0  0  0  0
   13.0288  -17.8430   24.7060 S   0  0  0  0  0  0  0  0  0  0  0  0
   11.6253  -18.1693   25.8057 C   0  0  0  0  0  0  0  0  0  0  0  0
   11.3596  -16.9558   26.6615 C   0  0  0  0  0  0  0  0  0  0  0  0
   10.1906  -17.1930   27.6022 C   0  0  2  0  0  0  0  0  0  0  0  0
    9.1059  -16.2666   27.3461 N   0  0  0  0  0  0  0  0  0  0  0  0
   10.6326  -17.0512   28.9942 C   0  0  0  0  0  0  0  0  0  0  0  0
   10.7161  -15.9311   29.5830 O   0  0  0  0  0  0  0  0  0  0  0  0
   10.9806  -18.1708   29.7228 O   0  0  0  0  0  0  0  0  0  0  0  0
  2  1  1  0
  3  2  2  0
  4  2  1  0
  5  6  1  6
  5  4  1  0
  7  5  1  0
  8  7  2  0
  9 10  1  0
 11 10  1  0
 11 13  1  0
 11 12  1  1
 13 14  1  6
 14  7  1  0
 15 13  1  0
 15 16  2  0
 18 17  1  0
 19 18  1  0
 20 19  1  0
 21 20  1  6
 22 21  1  0
 22 15  1  0
 23 21  1  0
 24 23  2  0
 25 23  1  0
M  END
$$$$
