NIM.pdb
     RDKit          3D

 25 24  0  0  1  0  0  0  0  0999 V2000
   10.4665  -20.3700   18.3529 N   0  0  0  0  0  0  0  0  0  0  0  0
    9.9958  -19.3026   17.5702 C   0  0  0  0  0  0  0  0  0  0  0  0
   10.1774  -19.3035   16.3424 O   0  0  0  0  0  0  0  0  0  0  0  0
    9.2893  -18.1906   18.2200 C   0  0  0  0  0  0  0  0  0  0  0  0
    9.1207  -18.2909   19.6912 C   0  0  2  0  0  0  0  0  0  0  0  0
    7.8366  -18.6932   20.1369 N   0  0  0  0  0  0  0  0  0  0  0  0
    9.5365  -16.9902   20.2842 C   0  0  0  0  0  0  0  0  0  0  0  0
   10.7187  -16.5934   20.1423 O   0  0  0  0  0  0  0  0  0  0  0  0
    6.7438  -12.7248   19.4905 C   0  0  0  0  0  0  0  0  0  0  0  0
    7.9443  -13.5562   19.8209 C   0  0  0  0  0  0  0  0  0  0  0  0
    8.0616  -13.8989   21.2647 C   0  0  2  0  0  0  0  0  0  0  0  0
    8.1850  -12.5965   22.0264 C   0  0  0  0  0  0  0  0  0  0  0  0
    9.0993  -14.8952   21.6457 C   0  0  2  0  0  0  0  0  0  0  0  0
    8.6442  -16.1623   21.0155 N   0  0  0  0  0  0  0  0  0  0  0  0
    9.3090  -15.1123   23.0755 C   0  0  0  0  0  0  0  0  0  0  0  0
   10.0095  -14.2685   23.7362 O   0  0  0  0  0  0  0  0  0  0  0  0
    6.0931  -11.9765   26.3475 C   0  0  0  0  0  0  0  0  0  0  0  0
    7.1252  -13.1272   27.3293 S   0  0  0  0  0  0  0  0  0  0  0  0
    6.8440  -14.8289   26.7714 C   0  0  0  0  0  0  0  0  0  0  0  0
    7.2940  -14.9731   25.3389 C   0  0  0  0  0  0  0  0  0  0  0  0
    8.3747  -16.0325   25.2072 C   0  0  2  0  0  0  0  0  0  0  0  0
    8.8029  -16.1868   23.8313 N   0  0  0  0  0  0  0  0  0  0  0  0
    7.8774  -17.3187   25.7087 C   0  0  0  0  0  0  0  0  0  0  0  0
    7.5769  -18.2883   24.9486 O   0  0  0  0  0  0  0  0  0  0  0  0
    7.7186  -17.5127   27.0662 O   0  0  0  0  0  0  0  0  0  0  0  0
  2  1  1  0
  3  2  2  0
  4  2  1  0
  5  6  1  6
  5  4  1  0
  7  5  1  0
  8  7  2  0
  9 10  1  0
 11 10  1  0
 11 13  1  0
 11 12  1  1
 13 14  1  6
 14  7  1  0
 15 13  1  0
 15 16  2  0
 18 17  1  0
 19 18  1  0
 20 19  1  0
 21 20  1  6
 22 21  1  0
 22 15  1  0
 23 21  1  0
 24 23  2  0
 25 23  1  0
M  END
$$$$
