NIM.pdb
     RDKit          3D

 25 24  0  0  1  0  0  0  0  0999 V2000
    7.0964  -19.8499   18.1023 N   0  0  0  0  0  0  0  0  0  0  0  0
    8.1932  -19.1640   17.5543 C   0  0  0  0  0  0  0  0  0  0  0  0
    8.5501  -19.3918   16.3876 O   0  0  0  0  0  0  0  0  0  0  0  0
    8.9089  -18.1785   18.3755 C   0  0  0  0  0  0  0  0  0  0  0  0
    8.4972  -18.0877   19.7986 C   0  0  2  0  0  0  0  0  0  0  0  0
    7.1249  -18.3301   20.0585 N   0  0  0  0  0  0  0  0  0  0  0  0
    8.9385  -16.7624   20.3138 C   0  0  0  0  0  0  0  0  0  0  0  0
   10.1300  -16.4012   20.1565 O   0  0  0  0  0  0  0  0  0  0  0  0
    7.2171  -12.3231   18.8184 C   0  0  0  0  0  0  0  0  0  0  0  0
    8.0409  -13.3980   19.4570 C   0  0  0  0  0  0  0  0  0  0  0  0
    7.8225  -13.5343   20.9230 C   0  0  2  0  0  0  0  0  0  0  0  0
    8.0572  -12.1721   21.5402 C   0  0  0  0  0  0  0  0  0  0  0  0
    8.5572  -14.6233   21.6223 C   0  0  2  0  0  0  0  0  0  0  0  0
    8.0606  -15.8718   20.9864 N   0  0  0  0  0  0  0  0  0  0  0  0
    8.3795  -14.7121   23.0701 C   0  0  0  0  0  0  0  0  0  0  0  0
    7.4188  -14.0683   23.6192 O   0  0  0  0  0  0  0  0  0  0  0  0
    8.0208  -11.4254   26.8704 C   0  0  0  0  0  0  0  0  0  0  0  0
    6.9155  -12.8778   27.0200 S   0  0  0  0  0  0  0  0  0  0  0  0
    7.0360  -13.8947   25.5242 C   0  0  0  0  0  0  0  0  0  0  0  0
    7.6549  -15.2272   25.8661 C   0  0  0  0  0  0  0  0  0  0  0  0
    9.0971  -15.2995   25.3947 C   0  0  2  0  0  0  0  0  0  0  0  0
    9.1788  -15.4586   23.9565 N   0  0  0  0  0  0  0  0  0  0  0  0
    9.7806  -16.4220   26.0475 C   0  0  0  0  0  0  0  0  0  0  0  0
   10.1640  -17.4567   25.4225 O   0  0  0  0  0  0  0  0  0  0  0  0
   10.0320  -16.3790   27.4042 O   0  0  0  0  0  0  0  0  0  0  0  0
  2  1  1  0
  3  2  2  0
  4  2  1  0
  5  6  1  6
  5  4  1  0
  7  5  1  0
  8  7  2  0
  9 10  1  0
 11 10  1  0
 11 13  1  0
 11 12  1  1
 13 14  1  6
 14  7  1  0
 15 13  1  0
 15 16  2  0
 18 17  1  0
 19 18  1  0
 20 19  1  0
 21 20  1  1
 22 21  1  0
 22 15  1  0
 23 21  1  0
 24 23  2  0
 25 23  1  0
M  END
$$$$
