NIM.pdb
     RDKit          3D

 25 24  0  0  1  0  0  0  0  0999 V2000
   12.0539  -21.1290   19.1997 N   0  0  0  0  0  0  0  0  0  0  0  0
   10.9104  -20.3241   19.0643 C   0  0  0  0  0  0  0  0  0  0  0  0
    9.9572  -20.7087   18.3686 O   0  0  0  0  0  0  0  0  0  0  0  0
   10.8573  -19.0278   19.7532 C   0  0  0  0  0  0  0  0  0  0  0  0
   10.3006  -17.8935   18.9743 C   0  0  2  0  0  0  0  0  0  0  0  0
   10.9776  -17.5851   17.7677 N   0  0  0  0  0  0  0  0  0  0  0  0
   10.2156  -16.7182   19.8842 C   0  0  0  0  0  0  0  0  0  0  0  0
   11.2691  -16.1616   20.2786 O   0  0  0  0  0  0  0  0  0  0  0  0
    7.0015  -12.6489   18.9832 C   0  0  0  0  0  0  0  0  0  0  0  0
    8.1400  -13.4828   19.4832 C   0  0  0  0  0  0  0  0  0  0  0  0
    7.8649  -14.1650   20.7773 C   0  0  2  0  0  0  0  0  0  0  0  0
    7.4440  -13.0988   21.7661 C   0  0  0  0  0  0  0  0  0  0  0  0
    8.9225  -15.0663   21.3099 C   0  0  2  0  0  0  0  0  0  0  0  0
    8.9783  -16.1872   20.3352 N   0  0  0  0  0  0  0  0  0  0  0  0
    8.7149  -15.6015   22.6537 C   0  0  0  0  0  0  0  0  0  0  0  0
    7.7233  -16.3833   22.8653 O   0  0  0  0  0  0  0  0  0  0  0  0
    8.1563  -12.1606   28.4847 C   0  0  0  0  0  0  0  0  0  0  0  0
    8.4429  -12.9187   26.8425 S   0  0  0  0  0  0  0  0  0  0  0  0
    7.4125  -14.3994   26.6643 C   0  0  0  0  0  0  0  0  0  0  0  0
    7.6196  -14.9988   25.2956 C   0  0  0  0  0  0  0  0  0  0  0  0
    9.0364  -15.5226   25.1345 C   0  0  2  0  0  0  0  0  0  0  0  0
    9.5189  -15.3422   23.7799 N   0  0  0  0  0  0  0  0  0  0  0  0
    9.0851  -16.9473   25.4822 C   0  0  0  0  0  0  0  0  0  0  0  0
    8.2496  -17.7953   25.0450 O   0  0  0  0  0  0  0  0  0  0  0  0
   10.0746  -17.4168   26.3226 O   0  0  0  0  0  0  0  0  0  0  0  0
  2  1  1  0
  3  2  2  0
  4  2  1  0
  5  6  1  6
  5  4  1  0
  7  5  1  0
  8  7  2  0
  9 10  1  0
 11 10  1  0
 11 13  1  0
 11 12  1  1
 13 14  1  6
 14  7  1  0
 15 13  1  0
 15 16  2  0
 18 17  1  0
 19 18  1  0
 20 19  1  0
 21 20  1  6
 22 21  1  0
 22 15  1  0
 23 21  1  0
 24 23  2  0
 25 23  1  0
M  END
$$$$
