KDA.pdb
     RDKit          3D

 23 22  0  0  1  0  0  0  0  0999 V2000
    9.1545  -13.0273   17.4143 N   0  0  0  0  0  0  0  0  0  0  0  0
    8.6937  -14.3179   17.9235 C   0  0  1  0  0  0  0  0  0  0  0  0
    8.4316  -15.1605   16.6986 C   0  0  0  0  0  0  0  0  0  0  0  0
    7.9900  -14.3588   15.5118 C   0  0  0  0  0  0  0  0  0  0  0  0
    7.5763  -15.2513   14.3618 C   0  0  0  0  0  0  0  0  0  0  0  0
    7.0660  -14.3576   13.2470 C   0  0  0  0  0  0  0  0  0  0  0  0
    6.5905  -15.2037   12.1816 N   0  0  0  0  0  0  0  0  0  0  0  0
    9.7553  -14.9716   18.7239 C   0  0  0  0  0  0  0  0  0  0  0  0
    9.6796  -16.1455   19.1613 O   0  0  0  0  0  0  0  0  0  0  0  0
   10.9736  -14.2941   19.0640 N   0  0  0  0  0  0  0  0  0  0  0  0
   12.0305  -14.8460   19.8313 C   0  0  1  0  0  0  0  0  0  0  0  0
   13.3790  -14.2421   19.5995 C   0  0  0  0  0  0  0  0  0  0  0  0
   13.9712  -14.6068   18.2934 C   0  0  0  0  0  0  0  0  0  0  0  0
   14.1637  -15.7679   17.9036 O   0  0  0  0  0  0  0  0  0  0  0  0
   11.6453  -14.9025   21.2458 C   0  0  0  0  0  0  0  0  0  0  0  0
   11.0863  -13.9057   21.7632 O   0  0  0  0  0  0  0  0  0  0  0  0
   14.3347  -13.5659   17.4493 O   0  0  0  0  0  0  0  0  0  0  0  0
    9.9724  -15.6969   23.5169 C   0  0  0  0  0  0  0  0  0  0  0  0
   11.4549  -16.0592   23.4851 C   0  0  2  0  0  0  0  0  0  0  0  0
   11.8626  -16.0268   22.0937 N   0  0  0  0  0  0  0  0  0  0  0  0
   11.6804  -17.3895   24.0991 C   0  0  0  0  0  0  0  0  0  0  0  0
   11.9220  -18.3433   23.3150 O   0  0  0  0  0  0  0  0  0  0  0  0
   11.6439  -17.6474   25.4457 O   0  0  0  0  0  0  0  0  0  0  0  0
  2  1  1  6
  3  2  1  0
  4  3  1  0
  5  6  1  0
  5  4  1  0
  7  6  1  0
  8  2  1  0
  8 10  1  0
  9  8  2  0
 11 10  1  0
 12 13  1  0
 11 12  1  1
 13 17  1  0
 14 13  2  0
 15 11  1  0
 15 20  1  0
 16 15  2  0
 19 18  1  6
 19 20  1  0
 19 21  1  0
 21 22  2  0
 21 23  1  0
M  END
$$$$
