KDA.pdb
     RDKit          3D

 23 22  0  0  1  0  0  0  0  0999 V2000
    6.8442  -19.4100   20.3367 N   0  0  0  0  0  0  0  0  0  0  0  0
    6.1468  -18.2706   20.9307 C   0  0  1  0  0  0  0  0  0  0  0  0
    5.4789  -18.8129   22.1712 C   0  0  0  0  0  0  0  0  0  0  0  0
    5.0464  -20.2413   22.0344 C   0  0  0  0  0  0  0  0  0  0  0  0
    6.1276  -21.1952   22.4939 C   0  0  0  0  0  0  0  0  0  0  0  0
    5.5756  -22.6040   22.3819 C   0  0  0  0  0  0  0  0  0  0  0  0
    6.6297  -23.5234   22.7294 N   0  0  0  0  0  0  0  0  0  0  0  0
    7.1123  -17.2231   21.3378 C   0  0  0  0  0  0  0  0  0  0  0  0
    8.2217  -17.4638   21.8730 O   0  0  0  0  0  0  0  0  0  0  0  0
    6.8422  -15.8272   21.1450 N   0  0  0  0  0  0  0  0  0  0  0  0
    7.6577  -14.7640   21.6085 C   0  0  1  0  0  0  0  0  0  0  0  0
    7.5305  -13.4782   20.8549 C   0  0  0  0  0  0  0  0  0  0  0  0
    7.9132  -13.5903   19.4300 C   0  0  0  0  0  0  0  0  0  0  0  0
    8.8312  -14.3030   18.9980 O   0  0  0  0  0  0  0  0  0  0  0  0
    7.5068  -14.6137   23.0600 C   0  0  0  0  0  0  0  0  0  0  0  0
    6.3729  -14.3523   23.5288 O   0  0  0  0  0  0  0  0  0  0  0  0
    7.1853  -12.8387   18.5170 O   0  0  0  0  0  0  0  0  0  0  0  0
    6.9712  -15.5734   25.5641 C   0  0  0  0  0  0  0  0  0  0  0  0
    8.3575  -14.9521   25.4160 C   0  0  2  0  0  0  0  0  0  0  0  0
    8.5724  -14.7449   23.9968 N   0  0  0  0  0  0  0  0  0  0  0  0
    9.3906  -15.8329   26.0113 C   0  0  0  0  0  0  0  0  0  0  0  0
   10.1586  -16.4281   25.2121 O   0  0  0  0  0  0  0  0  0  0  0  0
    9.5634  -16.0400   27.3561 O   0  0  0  0  0  0  0  0  0  0  0  0
  2  1  1  1
  3  2  1  0
  4  3  1  0
  5  6  1  0
  5  4  1  0
  7  6  1  0
  8  2  1  0
  8 10  1  0
  9  8  2  0
 11 10  1  0
 12 13  1  0
 11 12  1  6
 13 17  1  0
 14 13  2  0
 15 11  1  0
 15 20  1  0
 16 15  2  0
 19 18  1  6
 19 20  1  0
 19 21  1  0
 21 22  2  0
 21 23  1  0
M  END
$$$$
