KDA.pdb
     RDKit          3D

 23 22  0  0  1  0  0  0  0  0999 V2000
   10.7675  -13.0251   18.9380 N   0  0  0  0  0  0  0  0  0  0  0  0
    9.4784  -13.0218   19.6276 C   0  0  1  0  0  0  0  0  0  0  0  0
    8.4406  -12.9348   18.5348 C   0  0  0  0  0  0  0  0  0  0  0  0
    8.7007  -13.8725   17.3950 C   0  0  0  0  0  0  0  0  0  0  0  0
    7.6333  -13.7592   16.3282 C   0  0  0  0  0  0  0  0  0  0  0  0
    8.0043  -14.7085   15.2043 C   0  0  0  0  0  0  0  0  0  0  0  0
    7.0567  -14.5224   14.1345 N   0  0  0  0  0  0  0  0  0  0  0  0
    9.2783  -14.2915   20.3644 C   0  0  0  0  0  0  0  0  0  0  0  0
    8.2464  -14.5620   21.0256 O   0  0  0  0  0  0  0  0  0  0  0  0
   10.2722  -15.3263   20.3750 N   0  0  0  0  0  0  0  0  0  0  0  0
   10.1728  -16.5497   21.0847 C   0  0  1  0  0  0  0  0  0  0  0  0
   10.8167  -17.7297   20.4288 C   0  0  0  0  0  0  0  0  0  0  0  0
   10.6343  -18.9924   21.1783 C   0  0  0  0  0  0  0  0  0  0  0  0
    9.6605  -19.2521   21.9004 O   0  0  0  0  0  0  0  0  0  0  0  0
   10.5834  -16.3539   22.4794 C   0  0  0  0  0  0  0  0  0  0  0  0
   11.7996  -16.1834   22.7362 O   0  0  0  0  0  0  0  0  0  0  0  0
   11.6320  -19.9508   21.0579 O   0  0  0  0  0  0  0  0  0  0  0  0
    8.9414  -15.5363   25.7087 C   0  0  0  0  0  0  0  0  0  0  0  0
   10.1232  -16.1413   24.9557 C   0  0  2  0  0  0  0  0  0  0  0  0
    9.6873  -16.3424   23.5872 N   0  0  0  0  0  0  0  0  0  0  0  0
   10.5547  -17.4084   25.5929 C   0  0  0  0  0  0  0  0  0  0  0  0
   10.2048  -18.4764   25.0274 O   0  0  0  0  0  0  0  0  0  0  0  0
   11.2995  -17.4938   26.7415 O   0  0  0  0  0  0  0  0  0  0  0  0
  2  1  1  6
  3  2  1  0
  4  3  1  0
  5  6  1  0
  5  4  1  0
  7  6  1  0
  8  2  1  0
  8 10  1  0
  9  8  2  0
 11 10  1  0
 12 13  1  0
 11 12  1  6
 13 17  1  0
 14 13  2  0
 15 11  1  0
 15 20  1  0
 16 15  2  0
 19 18  1  1
 19 20  1  0
 19 21  1  0
 21 22  2  0
 21 23  1  0
M  END
$$$$
