KDA.pdb
     RDKit          3D

 23 22  0  0  1  0  0  0  0  0999 V2000
    5.7447  -16.6672   21.7234 N   0  0  0  0  0  0  0  0  0  0  0  0
    7.1801  -16.4108   21.8298 C   0  0  1  0  0  0  0  0  0  0  0  0
    7.3466  -14.9402   21.5327 C   0  0  0  0  0  0  0  0  0  0  0  0
    7.7600  -14.6648   20.1187 C   0  0  0  0  0  0  0  0  0  0  0  0
    7.8905  -13.1799   19.8576 C   0  0  0  0  0  0  0  0  0  0  0  0
    8.3622  -13.0046   18.4263 C   0  0  0  0  0  0  0  0  0  0  0  0
    8.5533  -11.5957   18.1906 N   0  0  0  0  0  0  0  0  0  0  0  0
    7.6543  -16.6671   23.2098 C   0  0  0  0  0  0  0  0  0  0  0  0
    6.9435  -16.5177   24.2333 O   0  0  0  0  0  0  0  0  0  0  0  0
    8.9904  -17.1145   23.4813 N   0  0  0  0  0  0  0  0  0  0  0  0
    9.5142  -17.3944   24.7687 C   0  0  1  0  0  0  0  0  0  0  0  0
   10.6304  -18.3893   24.8081 C   0  0  0  0  0  0  0  0  0  0  0  0
   11.0140  -18.7903   26.1798 C   0  0  0  0  0  0  0  0  0  0  0  0
   11.8456  -18.1982   26.8834 O   0  0  0  0  0  0  0  0  0  0  0  0
    9.8166  -16.1414   25.4692 C   0  0  0  0  0  0  0  0  0  0  0  0
   10.7379  -15.4095   25.0340 O   0  0  0  0  0  0  0  0  0  0  0  0
   10.3917  -19.9129   26.7095 O   0  0  0  0  0  0  0  0  0  0  0  0
    8.2387  -13.7444   27.7045 C   0  0  0  0  0  0  0  0  0  0  0  0
    9.5225  -14.4978   27.3668 C   0  0  2  0  0  0  0  0  0  0  0  0
    9.1290  -15.6835   26.6302 N   0  0  0  0  0  0  0  0  0  0  0  0
   10.2707  -14.8340   28.6017 C   0  0  0  0  0  0  0  0  0  0  0  0
   10.6522  -13.8701   29.3146 O   0  0  0  0  0  0  0  0  0  0  0  0
   10.5709  -16.1072   29.0138 O   0  0  0  0  0  0  0  0  0  0  0  0
  2  1  1  1
  3  2  1  0
  4  3  1  0
  5  6  1  0
  5  4  1  0
  7  6  1  0
  8  2  1  0
  8 10  1  0
  9  8  2  0
 11 10  1  0
 12 13  1  0
 11 12  1  6
 13 17  1  0
 14 13  2  0
 15 11  1  0
 15 20  1  0
 16 15  2  0
 19 18  1  1
 19 20  1  0
 19 21  1  0
 21 22  2  0
 21 23  1  0
M  END
$$$$
