KDA.pdb
     RDKit          3D

 23 22  0  0  1  0  0  0  0  0999 V2000
    8.4096  -17.2386   20.0902 N   0  0  0  0  0  0  0  0  0  0  0  0
    8.9481  -16.0349   20.7215 C   0  0  1  0  0  0  0  0  0  0  0  0
    8.3592  -14.8801   19.9479 C   0  0  0  0  0  0  0  0  0  0  0  0
    8.6447  -14.9450   18.4781 C   0  0  0  0  0  0  0  0  0  0  0  0
    7.9815  -13.8070   17.7329 C   0  0  0  0  0  0  0  0  0  0  0  0
    8.3720  -13.9251   16.2716 C   0  0  0  0  0  0  0  0  0  0  0  0
    7.7141  -12.8660   15.5487 N   0  0  0  0  0  0  0  0  0  0  0  0
    8.4943  -15.9368   22.1285 C   0  0  0  0  0  0  0  0  0  0  0  0
    7.2943  -15.7980   22.4688 O   0  0  0  0  0  0  0  0  0  0  0  0
    9.4149  -15.9949   23.2275 N   0  0  0  0  0  0  0  0  0  0  0  0
    9.0538  -15.9977   24.5986 C   0  0  1  0  0  0  0  0  0  0  0  0
    9.9722  -16.7534   25.5056 C   0  0  0  0  0  0  0  0  0  0  0  0
   10.3521  -18.0846   24.9831 C   0  0  0  0  0  0  0  0  0  0  0  0
   11.5107  -18.4346   24.7140 O   0  0  0  0  0  0  0  0  0  0  0  0
    8.7787  -14.6280   25.0465 C   0  0  0  0  0  0  0  0  0  0  0  0
    9.7128  -13.7905   25.0479 O   0  0  0  0  0  0  0  0  0  0  0  0
    9.3296  -19.0025   24.7828 O   0  0  0  0  0  0  0  0  0  0  0  0
    5.7839  -12.5979   26.0189 C   0  0  0  0  0  0  0  0  0  0  0  0
    7.2901  -12.8440   26.0414 C   0  0  2  0  0  0  0  0  0  0  0  0
    7.5050  -14.1676   25.4890 N   0  0  0  0  0  0  0  0  0  0  0  0
    7.8177  -12.7260   27.4218 C   0  0  0  0  0  0  0  0  0  0  0  0
    8.1441  -13.7955   27.9984 O   0  0  0  0  0  0  0  0  0  0  0  0
    7.9720  -11.5458   28.1034 O   0  0  0  0  0  0  0  0  0  0  0  0
  2  1  1  6
  3  2  1  0
  4  3  1  0
  5  6  1  0
  5  4  1  0
  7  6  1  0
  8  2  1  0
  8 10  1  0
  9  8  2  0
 11 10  1  0
 12 13  1  0
 11 12  1  1
 13 17  1  0
 14 13  2  0
 15 11  1  0
 15 20  1  0
 16 15  2  0
 19 18  1  1
 19 20  1  0
 19 21  1  0
 21 22  2  0
 21 23  1  0
M  END
$$$$
