KDA.pdb
     RDKit          3D

 23 22  0  0  1  0  0  0  0  0999 V2000
    9.6552  -13.0649   18.4592 N   0  0  0  0  0  0  0  0  0  0  0  0
    8.3652  -13.3907   19.0652 C   0  0  1  0  0  0  0  0  0  0  0  0
    7.4607  -13.7501   17.9112 C   0  0  0  0  0  0  0  0  0  0  0  0
    8.1850  -13.8629   16.6040 C   0  0  0  0  0  0  0  0  0  0  0  0
    7.2573  -14.3002   15.4912 C   0  0  0  0  0  0  0  0  0  0  0  0
    8.0652  -14.3385   14.2076 C   0  0  0  0  0  0  0  0  0  0  0  0
    7.1872  -14.7513   13.1419 N   0  0  0  0  0  0  0  0  0  0  0  0
    8.4887  -14.5727   19.9500 C   0  0  0  0  0  0  0  0  0  0  0  0
    7.5199  -15.1093   20.5404 O   0  0  0  0  0  0  0  0  0  0  0  0
    9.7531  -15.2027   20.2009 N   0  0  0  0  0  0  0  0  0  0  0  0
    9.9724  -16.2620   21.1175 C   0  0  1  0  0  0  0  0  0  0  0  0
   11.1104  -17.1748   20.7875 C   0  0  0  0  0  0  0  0  0  0  0  0
   11.2907  -18.2692   21.7669 C   0  0  0  0  0  0  0  0  0  0  0  0
   12.3452  -18.5093   22.3732 O   0  0  0  0  0  0  0  0  0  0  0  0
   10.0152  -15.7379   22.4870 C   0  0  0  0  0  0  0  0  0  0  0  0
   11.0052  -15.0557   22.8454 O   0  0  0  0  0  0  0  0  0  0  0  0
   10.1932  -19.0816   22.0190 O   0  0  0  0  0  0  0  0  0  0  0  0
    7.8979  -14.5801   25.0809 C   0  0  0  0  0  0  0  0  0  0  0  0
    9.1023  -15.4836   24.8302 C   0  0  2  0  0  0  0  0  0  0  0  0
    8.9968  -15.9493   23.4608 N   0  0  0  0  0  0  0  0  0  0  0  0
    9.1233  -16.6061   25.7984 C   0  0  0  0  0  0  0  0  0  0  0  0
    8.8593  -17.7504   25.3471 O   0  0  0  0  0  0  0  0  0  0  0  0
    9.4072  -16.4830   27.1347 O   0  0  0  0  0  0  0  0  0  0  0  0
  2  1  1  6
  3  2  1  0
  4  3  1  0
  5  6  1  0
  5  4  1  0
  7  6  1  0
  8  2  1  0
  8 10  1  0
  9  8  2  0
 11 10  1  0
 12 13  1  0
 11 12  1  6
 13 17  1  0
 14 13  2  0
 15 11  1  0
 15 20  1  0
 16 15  2  0
 19 18  1  1
 19 20  1  0
 19 21  1  0
 21 22  2  0
 21 23  1  0
M  END
$$$$
