KDA.pdb
     RDKit          3D

 23 22  0  0  1  0  0  0  0  0999 V2000
   10.0304  -13.2712   18.9327 N   0  0  0  0  0  0  0  0  0  0  0  0
    8.7607  -13.6210   19.5676 C   0  0  1  0  0  0  0  0  0  0  0  0
    7.8729  -14.1044   18.4465 C   0  0  0  0  0  0  0  0  0  0  0  0
    8.2736  -13.5741   17.1032 C   0  0  0  0  0  0  0  0  0  0  0  0
    7.4088  -14.1453   16.0004 C   0  0  0  0  0  0  0  0  0  0  0  0
    7.8159  -13.4733   14.7025 C   0  0  0  0  0  0  0  0  0  0  0  0
    7.0284  -14.0454   13.6397 N   0  0  0  0  0  0  0  0  0  0  0  0
    8.9479  -14.7320   20.5298 C   0  0  0  0  0  0  0  0  0  0  0  0
    8.0131  -15.2601   21.1797 O   0  0  0  0  0  0  0  0  0  0  0  0
   10.2404  -15.2964   20.7936 N   0  0  0  0  0  0  0  0  0  0  0  0
   10.4977  -16.3759   21.6762 C   0  0  1  0  0  0  0  0  0  0  0  0
   11.7720  -17.1196   21.4307 C   0  0  0  0  0  0  0  0  0  0  0  0
   11.7943  -17.8395   20.1381 C   0  0  0  0  0  0  0  0  0  0  0  0
   10.8296  -18.4460   19.6496 O   0  0  0  0  0  0  0  0  0  0  0  0
   10.3298  -15.9370   23.0659 C   0  0  0  0  0  0  0  0  0  0  0  0
   11.2799  -15.3485   23.6359 O   0  0  0  0  0  0  0  0  0  0  0  0
   12.9872  -17.8296   19.4275 O   0  0  0  0  0  0  0  0  0  0  0  0
    7.6468  -15.2272   25.4585 C   0  0  0  0  0  0  0  0  0  0  0  0
    9.0477  -15.7920   25.2394 C   0  0  2  0  0  0  0  0  0  0  0  0
    9.1451  -16.1325   23.8330 N   0  0  0  0  0  0  0  0  0  0  0  0
    9.2791  -16.9674   26.1126 C   0  0  0  0  0  0  0  0  0  0  0  0
    9.2748  -18.0966   25.5579 O   0  0  0  0  0  0  0  0  0  0  0  0
    9.4946  -16.9078   27.4659 O   0  0  0  0  0  0  0  0  0  0  0  0
  2  1  1  6
  3  2  1  0
  4  3  1  0
  5  6  1  0
  5  4  1  0
  7  6  1  0
  8  2  1  0
  8 10  1  0
  9  8  2  0
 11 10  1  0
 12 13  1  0
 11 12  1  1
 13 17  1  0
 14 13  2  0
 15 11  1  0
 15 20  1  0
 16 15  2  0
 19 18  1  6
 19 20  1  0
 19 21  1  0
 21 22  2  0
 21 23  1  0
M  END
$$$$
