KDA.pdb
     RDKit          3D

 23 22  0  0  1  0  0  0  0  0999 V2000
    6.0592  -16.5904   21.9862 N   0  0  0  0  0  0  0  0  0  0  0  0
    7.4930  -16.3134   22.0573 C   0  0  1  0  0  0  0  0  0  0  0  0
    7.6273  -14.8321   21.7994 C   0  0  0  0  0  0  0  0  0  0  0  0
    7.9489  -14.5063   20.3723 C   0  0  0  0  0  0  0  0  0  0  0  0
    8.0812  -13.0138   20.1598 C   0  0  0  0  0  0  0  0  0  0  0  0
    8.3539  -12.7819   18.6854 C   0  0  0  0  0  0  0  0  0  0  0  0
    8.3576  -11.3596   18.4525 N   0  0  0  0  0  0  0  0  0  0  0  0
    8.0129  -16.6022   23.4143 C   0  0  0  0  0  0  0  0  0  0  0  0
    7.3359  -16.4794   24.4640 O   0  0  0  0  0  0  0  0  0  0  0  0
    9.3577  -17.0531   23.6306 N   0  0  0  0  0  0  0  0  0  0  0  0
    9.9162  -17.3884   24.8900 C   0  0  1  0  0  0  0  0  0  0  0  0
   11.0663  -18.3439   24.8513 C   0  0  0  0  0  0  0  0  0  0  0  0
   11.4883  -18.8121   26.1900 C   0  0  0  0  0  0  0  0  0  0  0  0
   10.8458  -18.6367   27.2358 O   0  0  0  0  0  0  0  0  0  0  0  0
   10.1893  -16.1681   25.6571 C   0  0  0  0  0  0  0  0  0  0  0  0
   11.1919  -15.4753   25.3593 O   0  0  0  0  0  0  0  0  0  0  0  0
   12.6935  -19.4971   26.2712 O   0  0  0  0  0  0  0  0  0  0  0  0
    8.5074  -13.7119   27.7269 C   0  0  0  0  0  0  0  0  0  0  0  0
    9.7576  -14.5733   27.5700 C   0  0  2  0  0  0  0  0  0  0  0  0
    9.3857  -15.7007   26.7369 N   0  0  0  0  0  0  0  0  0  0  0  0
   10.2637  -15.0049   28.8949 C   0  0  0  0  0  0  0  0  0  0  0  0
   10.6240  -14.0974   29.6883 O   0  0  0  0  0  0  0  0  0  0  0  0
   10.3643  -16.3088   29.3084 O   0  0  0  0  0  0  0  0  0  0  0  0
  2  1  1  1
  3  2  1  0
  4  3  1  0
  5  6  1  0
  5  4  1  0
  7  6  1  0
  8  2  1  0
  8 10  1  0
  9  8  2  0
 11 10  1  0
 12 13  1  0
 11 12  1  6
 13 17  1  0
 14 13  2  0
 15 11  1  0
 15 20  1  0
 16 15  2  0
 19 18  1  1
 19 20  1  0
 19 21  1  0
 21 22  2  0
 21 23  1  0
M  END
$$$$
