KDA.pdb
     RDKit          3D

 23 22  0  0  1  0  0  0  0  0999 V2000
    7.4720  -17.1936   21.0332 N   0  0  0  0  0  0  0  0  0  0  0  0
    8.7550  -16.6803   21.5105 C   0  0  1  0  0  0  0  0  0  0  0  0
    8.7008  -15.1897   21.2780 C   0  0  0  0  0  0  0  0  0  0  0  0
    8.3586  -14.8227   19.8658 C   0  0  0  0  0  0  0  0  0  0  0  0
    8.2984  -13.3219   19.6813 C   0  0  0  0  0  0  0  0  0  0  0  0
    7.9431  -13.0510   18.2313 C   0  0  0  0  0  0  0  0  0  0  0  0
    7.8524  -11.6235   18.0552 N   0  0  0  0  0  0  0  0  0  0  0  0
    8.9051  -16.9230   22.9644 C   0  0  0  0  0  0  0  0  0  0  0  0
    7.9534  -16.8875   23.7818 O   0  0  0  0  0  0  0  0  0  0  0  0
   10.1778  -17.2228   23.5553 N   0  0  0  0  0  0  0  0  0  0  0  0
   10.3985  -17.4963   24.9289 C   0  0  1  0  0  0  0  0  0  0  0  0
   11.4671  -18.5008   25.2226 C   0  0  0  0  0  0  0  0  0  0  0  0
   11.6639  -18.7458   26.6685 C   0  0  0  0  0  0  0  0  0  0  0  0
   10.7635  -19.0560   27.4624 O   0  0  0  0  0  0  0  0  0  0  0  0
   10.5506  -16.2400   25.6711 C   0  0  0  0  0  0  0  0  0  0  0  0
   11.6015  -15.5709   25.5235 O   0  0  0  0  0  0  0  0  0  0  0  0
   12.9548  -18.6164   27.1635 O   0  0  0  0  0  0  0  0  0  0  0  0
    8.4453  -13.7807   27.4035 C   0  0  0  0  0  0  0  0  0  0  0  0
    9.7864  -14.5072   27.3451 C   0  0  2  0  0  0  0  0  0  0  0  0
    9.5751  -15.7115   26.5652 N   0  0  0  0  0  0  0  0  0  0  0  0
   10.2763  -14.8093   28.7113 C   0  0  0  0  0  0  0  0  0  0  0  0
   10.4833  -13.8275   29.4704 O   0  0  0  0  0  0  0  0  0  0  0  0
   10.5160  -16.0694   29.1970 O   0  0  0  0  0  0  0  0  0  0  0  0
  2  1  1  1
  3  2  1  0
  4  3  1  0
  5  6  1  0
  5  4  1  0
  7  6  1  0
  8  2  1  0
  8 10  1  0
  9  8  2  0
 11 10  1  0
 12 13  1  0
 11 12  1  6
 13 17  1  0
 14 13  2  0
 15 11  1  0
 15 20  1  0
 16 15  2  0
 19 18  1  1
 19 20  1  0
 19 21  1  0
 21 22  2  0
 21 23  1  0
M  END
$$$$
