KDA.pdb
     RDKit          3D

 23 22  0  0  1  0  0  0  0  0999 V2000
    6.3311  -17.4804   22.5037 N   0  0  0  0  0  0  0  0  0  0  0  0
    7.6557  -16.8684   22.4114 C   0  0  1  0  0  0  0  0  0  0  0  0
    7.4021  -15.3903   22.2388 C   0  0  0  0  0  0  0  0  0  0  0  0
    8.2286  -14.7706   21.1530 C   0  0  0  0  0  0  0  0  0  0  0  0
    7.9049  -13.3026   20.9784 C   0  0  0  0  0  0  0  0  0  0  0  0
    8.7958  -12.7637   19.8748 C   0  0  0  0  0  0  0  0  0  0  0  0
    8.5364  -11.3521   19.7437 N   0  0  0  0  0  0  0  0  0  0  0  0
    8.4119  -17.0708   23.6693 C   0  0  0  0  0  0  0  0  0  0  0  0
    7.8789  -17.3637   24.7671 O   0  0  0  0  0  0  0  0  0  0  0  0
    9.8401  -16.9434   23.7238 N   0  0  0  0  0  0  0  0  0  0  0  0
   10.6410  -17.1912   24.8673 C   0  0  1  0  0  0  0  0  0  0  0  0
   11.9622  -17.8397   24.6006 C   0  0  0  0  0  0  0  0  0  0  0  0
   12.7287  -18.1420   25.8297 C   0  0  0  0  0  0  0  0  0  0  0  0
   13.8765  -17.7366   26.0651 O   0  0  0  0  0  0  0  0  0  0  0  0
   10.7349  -15.9769   25.6851 C   0  0  0  0  0  0  0  0  0  0  0  0
   11.8676  -15.4975   25.9325 O   0  0  0  0  0  0  0  0  0  0  0  0
   12.1092  -18.9387   26.7834 O   0  0  0  0  0  0  0  0  0  0  0  0
    8.3845  -13.5876   27.3744 C   0  0  0  0  0  0  0  0  0  0  0  0
    9.7296  -14.3041   27.2913 C   0  0  2  0  0  0  0  0  0  0  0  0
    9.6142  -15.2867   26.2309 N   0  0  0  0  0  0  0  0  0  0  0  0
   10.0697  -14.9283   28.5922 C   0  0  0  0  0  0  0  0  0  0  0  0
    9.7546  -16.1371   28.7418 O   0  0  0  0  0  0  0  0  0  0  0  0
   10.6961  -14.2858   29.6296 O   0  0  0  0  0  0  0  0  0  0  0  0
  2  1  1  1
  3  2  1  0
  4  3  1  0
  5  6  1  0
  5  4  1  0
  7  6  1  0
  8  2  1  0
  8 10  1  0
  9  8  2  0
 11 10  1  0
 12 13  1  0
 11 12  1  6
 13 17  1  0
 14 13  2  0
 15 11  1  0
 15 20  1  0
 16 15  2  0
 19 18  1  1
 19 20  1  0
 19 21  1  0
 21 22  2  0
 21 23  1  0
M  END
$$$$
