KDA.pdb
     RDKit          3D

 23 22  0  0  1  0  0  0  0  0999 V2000
    9.9366  -17.2093   18.2141 N   0  0  0  0  0  0  0  0  0  0  0  0
   10.6639  -16.2961   19.0942 C   0  0  1  0  0  0  0  0  0  0  0  0
    9.6335  -15.3076   19.5842 C   0  0  0  0  0  0  0  0  0  0  0  0
    8.8331  -14.6893   18.4782 C   0  0  0  0  0  0  0  0  0  0  0  0
    7.9096  -13.6091   18.9982 C   0  0  0  0  0  0  0  0  0  0  0  0
    7.1669  -13.0280   17.8096 C   0  0  0  0  0  0  0  0  0  0  0  0
    6.1937  -12.0898   18.3091 N   0  0  0  0  0  0  0  0  0  0  0  0
   11.2093  -17.0236   20.2640 C   0  0  0  0  0  0  0  0  0  0  0  0
   10.6193  -17.9723   20.8356 O   0  0  0  0  0  0  0  0  0  0  0  0
   12.4799  -16.6880   20.8401 N   0  0  0  0  0  0  0  0  0  0  0  0
   13.0875  -17.3604   21.9306 C   0  0  1  0  0  0  0  0  0  0  0  0
   14.5831  -17.3526   21.9402 C   0  0  0  0  0  0  0  0  0  0  0  0
   15.1833  -18.0516   20.7823 C   0  0  0  0  0  0  0  0  0  0  0  0
   14.8872  -19.1989   20.4174 O   0  0  0  0  0  0  0  0  0  0  0  0
   12.4877  -16.9118   23.1920 C   0  0  0  0  0  0  0  0  0  0  0  0
   12.8587  -15.8200   23.6863 O   0  0  0  0  0  0  0  0  0  0  0  0
   16.1478  -17.3643   20.0572 O   0  0  0  0  0  0  0  0  0  0  0  0
    9.4241  -17.2993   25.0541 C   0  0  0  0  0  0  0  0  0  0  0  0
   10.9412  -17.1808   25.1730 C   0  0  2  0  0  0  0  0  0  0  0  0
   11.4954  -17.6370   23.9129 N   0  0  0  0  0  0  0  0  0  0  0  0
   11.4387  -17.9781   26.3196 C   0  0  0  0  0  0  0  0  0  0  0  0
   12.0345  -19.0525   26.0483 O   0  0  0  0  0  0  0  0  0  0  0  0
   11.2953  -17.6284   27.6381 O   0  0  0  0  0  0  0  0  0  0  0  0
  2  1  1  6
  3  2  1  0
  4  3  1  0
  5  6  1  0
  5  4  1  0
  7  6  1  0
  8  2  1  0
  8 10  1  0
  9  8  2  0
 11 10  1  0
 12 13  1  0
 11 12  1  1
 13 17  1  0
 14 13  2  0
 15 11  1  0
 15 20  1  0
 16 15  2  0
 19 18  1  6
 19 20  1  0
 19 21  1  0
 21 22  2  0
 21 23  1  0
M  END
$$$$
