NKE.pdb
     RDKit          3D

 27 26  0  0  1  0  0  0  0  0999 V2000
    8.3352  -18.2351   16.9593 N   0  0  0  0  0  0  0  0  0  0  0  0
    8.5748  -16.8374   16.9889 C   0  0  0  0  0  0  0  0  0  0  0  0
    8.6080  -16.1935   15.9015 O   0  0  0  0  0  0  0  0  0  0  0  0
    8.7947  -16.0514   18.2214 C   0  0  0  0  0  0  0  0  0  0  0  0
    8.7856  -16.9061   19.4682 C   0  0  2  0  0  0  0  0  0  0  0  0
    7.4437  -17.4364   19.6122 N   0  0  0  0  0  0  0  0  0  0  0  0
    9.0924  -16.0517   20.6299 C   0  0  0  0  0  0  0  0  0  0  0  0
   10.2572  -15.5384   20.7502 O   0  0  0  0  0  0  0  0  0  0  0  0
    8.1498  -15.7631   21.6388 N   0  0  0  0  0  0  0  0  0  0  0  0
    8.5110  -15.0017   22.8057 C   0  0  1  0  0  0  0  0  0  0  0  0
    7.2501  -14.4443   23.4062 C   0  0  0  0  0  0  0  0  0  0  0  0
    7.4956  -13.6880   24.6774 C   0  0  0  0  0  0  0  0  0  0  0  0
    6.2428  -13.0520   25.1798 C   0  0  0  0  0  0  0  0  0  0  0  0
    6.4321  -12.3130   26.4757 C   0  0  0  0  0  0  0  0  0  0  0  0
    5.2355  -11.6631   26.9318 N   0  0  0  0  0  0  0  0  0  0  0  0
    9.1626  -15.8883   23.8098 C   0  0  0  0  0  0  0  0  0  0  0  0
    8.5984  -16.8951   24.2890 O   0  0  0  0  0  0  0  0  0  0  0  0
   10.4763  -15.6081   24.2627 N   0  0  0  0  0  0  0  0  0  0  0  0
   11.4186  -16.5027   24.8188 C   0  0  1  0  0  0  0  0  0  0  0  0
   12.8584  -16.3251   24.4534 C   0  0  0  0  0  0  0  0  0  0  0  0
   13.7217  -17.4127   25.0256 C   0  0  0  0  0  0  0  0  0  0  0  0
   15.1327  -17.1463   24.5584 C   0  0  0  0  0  0  0  0  0  0  0  0
   15.6139  -15.9961   24.4713 O   0  0  0  0  0  0  0  0  0  0  0  0
   11.2483  -16.5727   26.2677 C   0  0  0  0  0  0  0  0  0  0  0  0
   10.6601  -15.6375   26.8619 O   0  0  0  0  0  0  0  0  0  0  0  0
   15.9437  -18.2102   24.2071 O   0  0  0  0  0  0  0  0  0  0  0  0
   11.7079  -17.6321   27.0354 O   0  0  0  0  0  0  0  0  0  0  0  0
  2  1  1  0
  3  2  2  0
  4  2  1  0
  5  4  1  0
  5  6  1  1
  7  8  2  0
  7  5  1  0
  9  7  1  0
 10  9  1  0
 10 11  1  1
 12 11  1  0
 13 12  1  0
 13 14  1  0
 14 15  1  0
 16 10  1  0
 17 16  2  0
 18 16  1  0
 19 18  1  0
 19 20  1  1
 20 21  1  0
 21 22  1  0
 22 26  1  0
 23 22  2  0
 24 19  1  0
 25 24  2  0
 27 24  1  0
M  END
$$$$
