NKE.pdb
     RDKit          3D

 27 26  0  0  1  0  0  0  0  0999 V2000
   14.0614  -14.3088   16.9978 N   0  0  0  0  0  0  0  0  0  0  0  0
   13.7893  -13.5683   18.1766 C   0  0  0  0  0  0  0  0  0  0  0  0
   14.1252  -12.3509   18.2323 O   0  0  0  0  0  0  0  0  0  0  0  0
   13.1268  -14.1197   19.3776 C   0  0  0  0  0  0  0  0  0  0  0  0
   13.0449  -15.6290   19.3580 C   0  0  2  0  0  0  0  0  0  0  0  0
   12.2810  -15.9996   18.1824 N   0  0  0  0  0  0  0  0  0  0  0  0
   12.3233  -16.0795   20.5622 C   0  0  0  0  0  0  0  0  0  0  0  0
   12.7596  -15.7588   21.7205 O   0  0  0  0  0  0  0  0  0  0  0  0
   11.1515  -16.8626   20.5051 N   0  0  0  0  0  0  0  0  0  0  0  0
   10.5048  -17.3315   21.7024 C   0  0  1  0  0  0  0  0  0  0  0  0
    9.3429  -18.1952   21.2960 C   0  0  0  0  0  0  0  0  0  0  0  0
    8.6059  -18.7690   22.4689 C   0  0  0  0  0  0  0  0  0  0  0  0
    7.3855  -19.5085   22.0325 C   0  0  0  0  0  0  0  0  0  0  0  0
    6.5503  -20.0031   23.1811 C   0  0  0  0  0  0  0  0  0  0  0  0
    5.3098  -20.5922   22.7609 N   0  0  0  0  0  0  0  0  0  0  0  0
   11.4522  -18.1570   22.5021 C   0  0  0  0  0  0  0  0  0  0  0  0
   12.1073  -19.1006   22.0102 O   0  0  0  0  0  0  0  0  0  0  0  0
   11.6432  -17.8890   23.8810 N   0  0  0  0  0  0  0  0  0  0  0  0
   12.7275  -18.2700   24.7036 C   0  0  1  0  0  0  0  0  0  0  0  0
   14.0802  -17.7150   24.3868 C   0  0  0  0  0  0  0  0  0  0  0  0
   15.1388  -18.2570   25.3040 C   0  0  0  0  0  0  0  0  0  0  0  0
   16.4527  -17.6580   24.8622 C   0  0  0  0  0  0  0  0  0  0  0  0
   16.7383  -16.4521   25.0239 O   0  0  0  0  0  0  0  0  0  0  0  0
   12.3884  -18.0596   26.1086 C   0  0  0  0  0  0  0  0  0  0  0  0
   11.3975  -17.3477   26.4003 O   0  0  0  0  0  0  0  0  0  0  0  0
   17.3944  -18.4646   24.2494 O   0  0  0  0  0  0  0  0  0  0  0  0
   13.1121  -18.6116   27.1547 O   0  0  0  0  0  0  0  0  0  0  0  0
  2  1  1  0
  3  2  2  0
  4  2  1  0
  5  4  1  0
  5  6  1  6
  7  8  2  0
  7  5  1  0
  9  7  1  0
 10  9  1  0
 10 11  1  6
 12 11  1  0
 13 12  1  0
 13 14  1  0
 14 15  1  0
 16 10  1  0
 17 16  2  0
 18 16  1  0
 19 18  1  0
 19 20  1  6
 20 21  1  0
 21 22  1  0
 22 26  1  0
 23 22  2  0
 24 19  1  0
 25 24  2  0
 27 24  1  0
M  END
$$$$
