NKE.pdb
     RDKit          3D

 27 26  0  0  1  0  0  0  0  0999 V2000
   12.7490  -19.1149   14.4705 N   0  0  0  0  0  0  0  0  0  0  0  0
   12.8373  -19.7358   15.7426 C   0  0  0  0  0  0  0  0  0  0  0  0
   13.5838  -20.7458   15.8862 O   0  0  0  0  0  0  0  0  0  0  0  0
   12.1074  -19.2854   16.9467 C   0  0  0  0  0  0  0  0  0  0  0  0
   11.2450  -18.0715   16.6866 C   0  0  2  0  0  0  0  0  0  0  0  0
   11.8303  -17.3650   15.5636 N   0  0  0  0  0  0  0  0  0  0  0  0
   11.2830  -17.2004   17.8755 C   0  0  0  0  0  0  0  0  0  0  0  0
   12.3926  -16.9957   18.4769 O   0  0  0  0  0  0  0  0  0  0  0  0
   10.1363  -16.5664   18.3977 N   0  0  0  0  0  0  0  0  0  0  0  0
   10.2123  -15.7182   19.5581 C   0  0  1  0  0  0  0  0  0  0  0  0
    8.8996  -14.9974   19.6943 C   0  0  0  0  0  0  0  0  0  0  0  0
    8.7245  -13.9098   18.6772 C   0  0  0  0  0  0  0  0  0  0  0  0
    7.5836  -14.2035   17.7614 C   0  0  0  0  0  0  0  0  0  0  0  0
    7.4743  -13.2301   16.6203 C   0  0  0  0  0  0  0  0  0  0  0  0
    6.4567  -13.5878   15.6723 N   0  0  0  0  0  0  0  0  0  0  0  0
   10.4284  -16.5443   20.7786 C   0  0  0  0  0  0  0  0  0  0  0  0
   10.0475  -17.7311   20.8671 O   0  0  0  0  0  0  0  0  0  0  0  0
   11.0900  -15.9934   21.9047 N   0  0  0  0  0  0  0  0  0  0  0  0
   11.8574  -16.6653   22.8830 C   0  0  1  0  0  0  0  0  0  0  0  0
   13.3336  -16.4236   22.9079 C   0  0  0  0  0  0  0  0  0  0  0  0
   14.0202  -17.2467   23.9598 C   0  0  0  0  0  0  0  0  0  0  0  0
   15.4940  -16.9289   23.8749 C   0  0  0  0  0  0  0  0  0  0  0  0
   16.3628  -17.7941   23.6327 O   0  0  0  0  0  0  0  0  0  0  0  0
   11.2693  -16.4660   24.2050 C   0  0  0  0  0  0  0  0  0  0  0  0
   10.4481  -15.5333   24.3765 O   0  0  0  0  0  0  0  0  0  0  0  0
   15.9202  -15.6278   24.0710 O   0  0  0  0  0  0  0  0  0  0  0  0
   11.5729  -17.2628   25.2986 O   0  0  0  0  0  0  0  0  0  0  0  0
  2  1  1  0
  3  2  2  0
  4  2  1  0
  5  4  1  0
  5  6  1  6
  7  8  2  0
  7  5  1  0
  9  7  1  0
 10  9  1  0
 10 11  1  1
 12 11  1  0
 13 12  1  0
 13 14  1  0
 14 15  1  0
 16 10  1  0
 17 16  2  0
 18 16  1  0
 19 18  1  0
 19 20  1  1
 20 21  1  0
 21 22  1  0
 22 26  1  0
 23 22  2  0
 24 19  1  0
 25 24  2  0
 27 24  1  0
M  END
$$$$
