NKE.pdb
     RDKit          3D

 27 26  0  0  1  0  0  0  0  0999 V2000
    7.9222  -11.7954   18.4849 N   0  0  0  0  0  0  0  0  0  0  0  0
    8.8970  -12.7358   18.9058 C   0  0  0  0  0  0  0  0  0  0  0  0
    9.9437  -12.8917   18.2141 O   0  0  0  0  0  0  0  0  0  0  0  0
    8.7853  -13.5710   20.1204 C   0  0  0  0  0  0  0  0  0  0  0  0
    9.2645  -14.9878   19.9008 C   0  0  2  0  0  0  0  0  0  0  0  0
    8.4001  -15.5798   18.8982 N   0  0  0  0  0  0  0  0  0  0  0  0
    9.1210  -15.7368   21.1626 C   0  0  0  0  0  0  0  0  0  0  0  0
    8.1160  -15.5151   21.9213 O   0  0  0  0  0  0  0  0  0  0  0  0
   10.0528  -16.7063   21.5882 N   0  0  0  0  0  0  0  0  0  0  0  0
    9.8919  -17.4023   22.8378 C   0  0  1  0  0  0  0  0  0  0  0  0
   10.1605  -18.8619   22.5954 C   0  0  0  0  0  0  0  0  0  0  0  0
    9.0931  -19.5218   21.7750 C   0  0  0  0  0  0  0  0  0  0  0  0
    9.3696  -20.9771   21.5961 C   0  0  0  0  0  0  0  0  0  0  0  0
    8.3209  -21.6837   20.7821 C   0  0  0  0  0  0  0  0  0  0  0  0
    8.5118  -23.1062   20.7331 N   0  0  0  0  0  0  0  0  0  0  0  0
   10.8793  -16.8973   23.8320 C   0  0  0  0  0  0  0  0  0  0  0  0
   12.0744  -16.6737   23.5435 O   0  0  0  0  0  0  0  0  0  0  0  0
   10.4813  -16.6490   25.1697 N   0  0  0  0  0  0  0  0  0  0  0  0
   11.2854  -16.2498   26.2613 C   0  0  1  0  0  0  0  0  0  0  0  0
   10.6277  -15.5219   27.3908 C   0  0  0  0  0  0  0  0  0  0  0  0
    9.6774  -14.4668   26.9019 C   0  0  0  0  0  0  0  0  0  0  0  0
    9.1000  -13.7939   28.1243 C   0  0  0  0  0  0  0  0  0  0  0  0
    9.3972  -14.1321   29.2902 O   0  0  0  0  0  0  0  0  0  0  0  0
   12.0660  -17.3836   26.7496 C   0  0  0  0  0  0  0  0  0  0  0  0
   11.7753  -18.5406   26.3618 O   0  0  0  0  0  0  0  0  0  0  0  0
    8.2007  -12.7551   27.9662 O   0  0  0  0  0  0  0  0  0  0  0  0
   13.1274  -17.2503   27.6320 O   0  0  0  0  0  0  0  0  0  0  0  0
  2  1  1  0
  3  2  2  0
  4  2  1  0
  5  4  1  0
  5  6  1  6
  7  8  2  0
  7  5  1  0
  9  7  1  0
 10  9  1  0
 10 11  1  6
 12 11  1  0
 13 12  1  0
 13 14  1  0
 14 15  1  0
 16 10  1  0
 17 16  2  0
 18 16  1  0
 19 18  1  0
 19 20  1  1
 20 21  1  0
 21 22  1  0
 22 26  1  0
 23 22  2  0
 24 19  1  0
 25 24  2  0
 27 24  1  0
M  END
$$$$
