NKE.pdb
     RDKit          3D

 27 26  0  0  1  0  0  0  0  0999 V2000
   10.3021  -17.4377   14.0480 N   0  0  0  0  0  0  0  0  0  0  0  0
    9.4841  -16.4533   14.6591 C   0  0  0  0  0  0  0  0  0  0  0  0
    8.7589  -15.7154   13.9326 O   0  0  0  0  0  0  0  0  0  0  0  0
    9.4087  -16.2137   16.1158 C   0  0  0  0  0  0  0  0  0  0  0  0
   10.4061  -17.0396   16.8957 C   0  0  2  0  0  0  0  0  0  0  0  0
   10.0718  -18.4331   16.6742 N   0  0  0  0  0  0  0  0  0  0  0  0
   10.2574  -16.7312   18.3297 C   0  0  0  0  0  0  0  0  0  0  0  0
   10.6895  -15.6184   18.7877 O   0  0  0  0  0  0  0  0  0  0  0  0
    9.6509  -17.6168   19.2449 N   0  0  0  0  0  0  0  0  0  0  0  0
    9.5876  -17.3140   20.6506 C   0  0  1  0  0  0  0  0  0  0  0  0
    8.5170  -18.1735   21.2640 C   0  0  0  0  0  0  0  0  0  0  0  0
    7.2444  -18.1725   20.4712 C   0  0  0  0  0  0  0  0  0  0  0  0
    6.2961  -19.2120   20.9679 C   0  0  0  0  0  0  0  0  0  0  0  0
    5.0376  -19.3052   20.1500 C   0  0  0  0  0  0  0  0  0  0  0  0
    4.1643  -20.3605   20.5810 N   0  0  0  0  0  0  0  0  0  0  0  0
   10.8877  -17.6405   21.3001 C   0  0  0  0  0  0  0  0  0  0  0  0
   11.5009  -18.7079   21.0854 O   0  0  0  0  0  0  0  0  0  0  0  0
   11.4827  -16.7254   22.2046 N   0  0  0  0  0  0  0  0  0  0  0  0
   12.6495  -16.8993   22.9830 C   0  0  1  0  0  0  0  0  0  0  0  0
   13.7770  -15.9360   22.7859 C   0  0  0  0  0  0  0  0  0  0  0  0
   14.3170  -15.9817   21.3853 C   0  0  0  0  0  0  0  0  0  0  0  0
   15.4548  -14.9911   21.3196 C   0  0  0  0  0  0  0  0  0  0  0  0
   15.8046  -14.2925   22.2951 O   0  0  0  0  0  0  0  0  0  0  0  0
   12.2967  -17.0144   24.3956 C   0  0  0  0  0  0  0  0  0  0  0  0
   11.1242  -16.7545   24.7580 O   0  0  0  0  0  0  0  0  0  0  0  0
   16.1527  -14.8365   20.1356 O   0  0  0  0  0  0  0  0  0  0  0  0
   13.1999  -17.4013   25.3742 O   0  0  0  0  0  0  0  0  0  0  0  0
  2  1  1  0
  3  2  2  0
  4  2  1  0
  5  4  1  0
  5  6  1  1
  7  8  2  0
  7  5  1  0
  9  7  1  0
 10  9  1  0
 10 11  1  1
 12 11  1  0
 13 12  1  0
 13 14  1  0
 14 15  1  0
 16 10  1  0
 17 16  2  0
 18 16  1  0
 19 18  1  0
 19 20  1  1
 20 21  1  0
 21 22  1  0
 22 26  1  0
 23 22  2  0
 24 19  1  0
 25 24  2  0
 27 24  1  0
M  END
$$$$
