NKE.pdb
     RDKit          3D

 27 26  0  0  1  0  0  0  0  0999 V2000
    9.9889  -19.3589   17.1931 N   0  0  0  0  0  0  0  0  0  0  0  0
    9.3638  -20.6151   17.4005 C   0  0  0  0  0  0  0  0  0  0  0  0
   10.0685  -21.6646   17.3902 O   0  0  0  0  0  0  0  0  0  0  0  0
    7.9161  -20.8016   17.6341 C   0  0  0  0  0  0  0  0  0  0  0  0
    7.1524  -19.4971   17.6369 C   0  0  2  0  0  0  0  0  0  0  0  0
    7.9189  -18.5523   16.8477 N   0  0  0  0  0  0  0  0  0  0  0  0
    7.0626  -19.0043   19.0235 C   0  0  0  0  0  0  0  0  0  0  0  0
    7.7450  -17.9833   19.3795 O   0  0  0  0  0  0  0  0  0  0  0  0
    6.2468  -19.6114   20.0010 N   0  0  0  0  0  0  0  0  0  0  0  0
    6.1038  -19.0428   21.3156 C   0  0  1  0  0  0  0  0  0  0  0  0
    4.8808  -19.6436   21.9518 C   0  0  0  0  0  0  0  0  0  0  0  0
    3.6142  -19.2791   21.2369 C   0  0  0  0  0  0  0  0  0  0  0  0
    2.4305  -19.9382   21.8622 C   0  0  0  0  0  0  0  0  0  0  0  0
    1.1284  -19.5551   21.2147 C   0  0  0  0  0  0  0  0  0  0  0  0
   -0.0033  -20.2286   21.7874 N   0  0  0  0  0  0  0  0  0  0  0  0
    7.2891  -19.3860   22.1498 C   0  0  0  0  0  0  0  0  0  0  0  0
    7.8333  -20.5105   22.1202 O   0  0  0  0  0  0  0  0  0  0  0  0
    7.8489  -18.4212   23.0246 N   0  0  0  0  0  0  0  0  0  0  0  0
    9.1118  -18.4446   23.6587 C   0  0  1  0  0  0  0  0  0  0  0  0
   10.1866  -17.5545   23.1196 C   0  0  0  0  0  0  0  0  0  0  0  0
   11.4876  -17.7405   23.8466 C   0  0  0  0  0  0  0  0  0  0  0  0
   12.4858  -16.8036   23.2092 C   0  0  0  0  0  0  0  0  0  0  0  0
   13.0778  -15.9059   23.8462 O   0  0  0  0  0  0  0  0  0  0  0  0
    8.9525  -18.2638   25.0992 C   0  0  0  0  0  0  0  0  0  0  0  0
    7.8916  -17.7602   25.5404 O   0  0  0  0  0  0  0  0  0  0  0  0
   12.7703  -16.9296   21.8616 O   0  0  0  0  0  0  0  0  0  0  0  0
    9.9239  -18.6236   26.0212 O   0  0  0  0  0  0  0  0  0  0  0  0
  2  1  1  0
  3  2  2  0
  4  2  1  0
  5  4  1  0
  5  6  1  6
  7  8  2  0
  7  5  1  0
  9  7  1  0
 10  9  1  0
 10 11  1  1
 12 11  1  0
 13 12  1  0
 13 14  1  0
 14 15  1  0
 16 10  1  0
 17 16  2  0
 18 16  1  0
 19 18  1  0
 19 20  1  6
 20 21  1  0
 21 22  1  0
 22 26  1  0
 23 22  2  0
 24 19  1  0
 25 24  2  0
 27 24  1  0
M  END
$$$$
