NKE.pdb
     RDKit          3D

 27 26  0  0  1  0  0  0  0  0999 V2000
    7.1788  -14.1095   16.5586 N   0  0  0  0  0  0  0  0  0  0  0  0
    7.7128  -15.2063   17.2822 C   0  0  0  0  0  0  0  0  0  0  0  0
    7.8413  -16.3234   16.7045 O   0  0  0  0  0  0  0  0  0  0  0  0
    8.1428  -15.1475   18.6953 C   0  0  0  0  0  0  0  0  0  0  0  0
    7.8118  -13.8266   19.3517 C   0  0  2  0  0  0  0  0  0  0  0  0
    8.5318  -12.7976   18.6266 N   0  0  0  0  0  0  0  0  0  0  0  0
    8.2912  -13.8576   20.7456 C   0  0  0  0  0  0  0  0  0  0  0  0
    9.5471  -13.8741   20.9845 O   0  0  0  0  0  0  0  0  0  0  0  0
    7.4203  -13.8705   21.8551 N   0  0  0  0  0  0  0  0  0  0  0  0
    7.9223  -13.8006   23.2023 C   0  0  1  0  0  0  0  0  0  0  0  0
    6.8373  -13.2315   24.0742 C   0  0  0  0  0  0  0  0  0  0  0  0
    7.2867  -12.9991   25.4856 C   0  0  0  0  0  0  0  0  0  0  0  0
    6.1939  -12.4072   26.3115 C   0  0  0  0  0  0  0  0  0  0  0  0
    6.6236  -12.0778   27.7144 C   0  0  0  0  0  0  0  0  0  0  0  0
    5.5969  -11.4259   28.4780 N   0  0  0  0  0  0  0  0  0  0  0  0
    8.2562  -15.1671   23.6922 C   0  0  0  0  0  0  0  0  0  0  0  0
    7.5594  -16.1694   23.4251 O   0  0  0  0  0  0  0  0  0  0  0  0
    9.4045  -15.3754   24.4968 N   0  0  0  0  0  0  0  0  0  0  0  0
   10.0022  -16.6016   24.8663 C   0  0  1  0  0  0  0  0  0  0  0  0
   11.3556  -16.9197   24.3138 C   0  0  0  0  0  0  0  0  0  0  0  0
   11.8692  -18.2407   24.8107 C   0  0  0  0  0  0  0  0  0  0  0  0
   13.2138  -18.4629   24.1604 C   0  0  0  0  0  0  0  0  0  0  0  0
   13.7479  -17.6262   23.4011 O   0  0  0  0  0  0  0  0  0  0  0  0
    9.9782  -16.7529   26.3189 C   0  0  0  0  0  0  0  0  0  0  0  0
   10.3208  -17.8474   26.8271 O   0  0  0  0  0  0  0  0  0  0  0  0
   13.8997  -19.6389   24.4045 O   0  0  0  0  0  0  0  0  0  0  0  0
    9.5916  -15.7380   27.1812 O   0  0  0  0  0  0  0  0  0  0  0  0
  2  1  1  0
  3  2  2  0
  4  2  1  0
  5  4  1  0
  5  6  1  6
  7  8  2  0
  7  5  1  0
  9  7  1  0
 10  9  1  0
 10 11  1  1
 12 11  1  0
 13 12  1  0
 13 14  1  0
 14 15  1  0
 16 10  1  0
 17 16  2  0
 18 16  1  0
 19 18  1  0
 19 20  1  1
 20 21  1  0
 21 22  1  0
 22 26  1  0
 23 22  2  0
 24 19  1  0
 25 24  2  0
 27 24  1  0
M  END
$$$$
