NKE.pdb
     RDKit          3D

 27 26  0  0  1  0  0  0  0  0999 V2000
   14.8135  -25.3512   35.2869 N   0  0  0  0  0  0  0  0  0  0  0  0
   15.5338  -24.3315   34.6137 C   0  0  0  0  0  0  0  0  0  0  0  0
   16.2938  -23.5707   35.2782 O   0  0  0  0  0  0  0  0  0  0  0  0
   15.4658  -24.0795   33.1586 C   0  0  0  0  0  0  0  0  0  0  0  0
   15.3798  -22.6078   32.8244 C   0  0  2  0  0  0  0  0  0  0  0  0
   14.0774  -22.1459   33.2642 N   0  0  0  0  0  0  0  0  0  0  0  0
   15.4783  -22.4480   31.3621 C   0  0  0  0  0  0  0  0  0  0  0  0
   16.4919  -22.9167   30.7394 O   0  0  0  0  0  0  0  0  0  0  0  0
   14.4933  -21.7914   30.5951 N   0  0  0  0  0  0  0  0  0  0  0  0
   14.6264  -21.6483   29.1690 C   0  0  1  0  0  0  0  0  0  0  0  0
   13.2672  -21.3426   28.6032 C   0  0  0  0  0  0  0  0  0  0  0  0
   13.2535  -21.3150   27.1041 C   0  0  0  0  0  0  0  0  0  0  0  0
   11.8672  -21.1478   26.5782 C   0  0  0  0  0  0  0  0  0  0  0  0
   11.8042  -21.1078   25.0762 C   0  0  0  0  0  0  0  0  0  0  0  0
   10.4616  -21.0356   24.5719 N   0  0  0  0  0  0  0  0  0  0  0  0
   15.5372  -20.5124   28.8547 C   0  0  0  0  0  0  0  0  0  0  0  0
   15.4409  -19.3962   29.4083 O   0  0  0  0  0  0  0  0  0  0  0  0
   16.5669  -20.6689   27.8931 N   0  0  0  0  0  0  0  0  0  0  0  0
   17.5523  -19.7321   27.5072 C   0  0  1  0  0  0  0  0  0  0  0  0
   18.8526  -19.7331   28.2470 C   0  0  0  0  0  0  0  0  0  0  0  0
   19.7915  -18.6789   27.7345 C   0  0  0  0  0  0  0  0  0  0  0  0
   21.0580  -18.7834   28.5502 C   0  0  0  0  0  0  0  0  0  0  0  0
   21.1246  -19.4209   29.6231 O   0  0  0  0  0  0  0  0  0  0  0  0
   17.7680  -19.7979   26.0641 C   0  0  0  0  0  0  0  0  0  0  0  0
   17.3683  -20.8034   25.4295 O   0  0  0  0  0  0  0  0  0  0  0  0
   22.2057  -18.1522   28.1057 O   0  0  0  0  0  0  0  0  0  0  0  0
   18.4002  -18.7948   25.3448 O   0  0  0  0  0  0  0  0  0  0  0  0
  2  1  1  0
  3  2  2  0
  4  2  1  0
  5  4  1  0
  5  6  1  6
  7  8  2  0
  7  5  1  0
  9  7  1  0
 10  9  1  0
 10 11  1  6
 12 11  1  0
 13 12  1  0
 13 14  1  0
 14 15  1  0
 16 10  1  0
 17 16  2  0
 18 16  1  0
 19 18  1  0
 19 20  1  1
 20 21  1  0
 21 22  1  0
 22 26  1  0
 23 22  2  0
 24 19  1  0
 25 24  2  0
 27 24  1  0
M  END
$$$$
