NKE.pdb
     RDKit          3D

 27 26  0  0  1  0  0  0  0  0999 V2000
    7.2760  -15.8123   13.4746 N   0  0  0  0  0  0  0  0  0  0  0  0
    7.5974  -14.4724   13.8109 C   0  0  0  0  0  0  0  0  0  0  0  0
    7.3752  -13.5545   12.9705 O   0  0  0  0  0  0  0  0  0  0  0  0
    8.1871  -14.0508   15.0993 C   0  0  0  0  0  0  0  0  0  0  0  0
    8.5529  -15.2204   15.9844 C   0  0  2  0  0  0  0  0  0  0  0  0
    7.3248  -15.9331   16.2788 N   0  0  0  0  0  0  0  0  0  0  0  0
    9.1218  -14.7023   17.2420 C   0  0  0  0  0  0  0  0  0  0  0  0
   10.2604  -14.1208   17.2313 O   0  0  0  0  0  0  0  0  0  0  0  0
    8.4638  -14.8158   18.4845 N   0  0  0  0  0  0  0  0  0  0  0  0
    9.1459  -14.5390   19.7214 C   0  0  1  0  0  0  0  0  0  0  0  0
    8.1436  -14.6393   20.8380 C   0  0  0  0  0  0  0  0  0  0  0  0
    8.7447  -14.3723   22.1854 C   0  0  0  0  0  0  0  0  0  0  0  0
    7.7584  -14.6204   23.2772 C   0  0  0  0  0  0  0  0  0  0  0  0
    8.3283  -14.4011   24.6515 C   0  0  0  0  0  0  0  0  0  0  0  0
    7.3815  -14.6588   25.7000 N   0  0  0  0  0  0  0  0  0  0  0  0
   10.2139  -15.5517   19.9508 C   0  0  0  0  0  0  0  0  0  0  0  0
   10.0832  -16.7542   19.6372 O   0  0  0  0  0  0  0  0  0  0  0  0
   11.4420  -15.1703   20.5472 N   0  0  0  0  0  0  0  0  0  0  0  0
   12.6224  -15.9355   20.6834 C   0  0  1  0  0  0  0  0  0  0  0  0
   13.7896  -15.5897   19.8138 C   0  0  0  0  0  0  0  0  0  0  0  0
   14.2485  -14.1754   20.0253 C   0  0  0  0  0  0  0  0  0  0  0  0
   15.3625  -13.9218   19.0378 C   0  0  0  0  0  0  0  0  0  0  0  0
   16.5163  -14.3797   19.1828 O   0  0  0  0  0  0  0  0  0  0  0  0
   13.0154  -16.0043   22.0885 C   0  0  0  0  0  0  0  0  0  0  0  0
   13.9975  -16.7125   22.4165 O   0  0  0  0  0  0  0  0  0  0  0  0
   15.1135  -13.1508   17.9169 O   0  0  0  0  0  0  0  0  0  0  0  0
   12.3529  -15.3196   23.0961 O   0  0  0  0  0  0  0  0  0  0  0  0
  2  1  1  0
  3  2  2  0
  4  2  1  0
  5  4  1  0
  5  6  1  1
  7  8  2  0
  7  5  1  0
  9  7  1  0
 10  9  1  0
 10 11  1  1
 12 11  1  0
 13 12  1  0
 13 14  1  0
 14 15  1  0
 16 10  1  0
 17 16  2  0
 18 16  1  0
 19 18  1  0
 19 20  1  6
 20 21  1  0
 21 22  1  0
 22 26  1  0
 23 22  2  0
 24 19  1  0
 25 24  2  0
 27 24  1  0
M  END
$$$$
