NKE.pdb
     RDKit          3D

 27 26  0  0  1  0  0  0  0  0999 V2000
   16.1752  -15.8892   17.1697 N   0  0  0  0  0  0  0  0  0  0  0  0
   15.1971  -14.8662   17.0783 C   0  0  0  0  0  0  0  0  0  0  0  0
   15.2097  -14.0870   16.0829 O   0  0  0  0  0  0  0  0  0  0  0  0
   14.1354  -14.6310   18.0797 C   0  0  0  0  0  0  0  0  0  0  0  0
   13.4781  -15.9102   18.5451 C   0  0  2  0  0  0  0  0  0  0  0  0
   12.5255  -16.2970   17.5224 N   0  0  0  0  0  0  0  0  0  0  0  0
   12.7532  -15.6403   19.8002 C   0  0  0  0  0  0  0  0  0  0  0  0
   13.4000  -15.2729   20.8402 O   0  0  0  0  0  0  0  0  0  0  0  0
   11.3535  -15.7682   19.9193 N   0  0  0  0  0  0  0  0  0  0  0  0
   10.6682  -15.4013   21.1307 C   0  0  1  0  0  0  0  0  0  0  0  0
    9.2682  -14.9903   20.7670 C   0  0  0  0  0  0  0  0  0  0  0  0
    9.2291  -13.8022   19.8533 C   0  0  0  0  0  0  0  0  0  0  0  0
    7.8286  -13.4618   19.4671 C   0  0  0  0  0  0  0  0  0  0  0  0
    7.7368  -12.2544   18.5753 C   0  0  0  0  0  0  0  0  0  0  0  0
    6.3835  -11.8780   18.2769 N   0  0  0  0  0  0  0  0  0  0  0  0
   10.5952  -16.5724   22.0483 C   0  0  0  0  0  0  0  0  0  0  0  0
   10.0565  -17.6522   21.7238 O   0  0  0  0  0  0  0  0  0  0  0  0
   11.1495  -16.4937   23.3506 N   0  0  0  0  0  0  0  0  0  0  0  0
   11.1728  -17.4903   24.3524 C   0  0  1  0  0  0  0  0  0  0  0  0
   12.4184  -17.6400   25.1674 C   0  0  0  0  0  0  0  0  0  0  0  0
   12.3606  -18.8415   26.0667 C   0  0  0  0  0  0  0  0  0  0  0  0
   13.7195  -18.9742   26.7117 C   0  0  0  0  0  0  0  0  0  0  0  0
   14.7860  -18.7386   26.1042 O   0  0  0  0  0  0  0  0  0  0  0  0
    9.9957  -17.3679   25.2083 C   0  0  0  0  0  0  0  0  0  0  0  0
    9.7129  -18.2997   25.9991 O   0  0  0  0  0  0  0  0  0  0  0  0
   13.8075  -19.3729   28.0332 O   0  0  0  0  0  0  0  0  0  0  0  0
    9.1598  -16.2614   25.1953 O   0  0  0  0  0  0  0  0  0  0  0  0
  2  1  1  0
  3  2  2  0
  4  2  1  0
  5  4  1  0
  5  6  1  6
  7  8  2  0
  7  5  1  0
  9  7  1  0
 10  9  1  0
 10 11  1  6
 12 11  1  0
 13 12  1  0
 13 14  1  0
 14 15  1  0
 16 10  1  0
 17 16  2  0
 18 16  1  0
 19 18  1  0
 19 20  1  1
 20 21  1  0
 21 22  1  0
 22 26  1  0
 23 22  2  0
 24 19  1  0
 25 24  2  0
 27 24  1  0
M  END
$$$$
