NKE.pdb
     RDKit          3D

 27 26  0  0  1  0  0  0  0  0999 V2000
    9.6161  -19.5278   17.1527 N   0  0  0  0  0  0  0  0  0  0  0  0
    8.8337  -19.0450   18.2327 C   0  0  0  0  0  0  0  0  0  0  0  0
    7.6065  -19.3435   18.2881 O   0  0  0  0  0  0  0  0  0  0  0  0
    9.3508  -18.1981   19.3285 C   0  0  0  0  0  0  0  0  0  0  0  0
    8.5901  -16.8996   19.4715 C   0  0  2  0  0  0  0  0  0  0  0  0
    8.9463  -16.0694   18.3371 N   0  0  0  0  0  0  0  0  0  0  0  0
    9.0241  -16.2311   20.7118 C   0  0  0  0  0  0  0  0  0  0  0  0
   10.2708  -16.0596   20.9375 O   0  0  0  0  0  0  0  0  0  0  0  0
    8.1185  -15.7599   21.6853 N   0  0  0  0  0  0  0  0  0  0  0  0
    8.5756  -15.0608   22.8575 C   0  0  1  0  0  0  0  0  0  0  0  0
    7.3947  -14.3620   23.4726 C   0  0  0  0  0  0  0  0  0  0  0  0
    7.7426  -13.6341   24.7364 C   0  0  0  0  0  0  0  0  0  0  0  0
    6.5431  -12.9722   25.3278 C   0  0  0  0  0  0  0  0  0  0  0  0
    6.8361  -12.2595   26.6191 C   0  0  0  0  0  0  0  0  0  0  0  0
    5.6587  -11.7307   27.2487 N   0  0  0  0  0  0  0  0  0  0  0  0
    9.1210  -16.0308   23.8477 C   0  0  0  0  0  0  0  0  0  0  0  0
    8.5119  -17.0693   24.1821 O   0  0  0  0  0  0  0  0  0  0  0  0
   10.3803  -15.7975   24.4554 N   0  0  0  0  0  0  0  0  0  0  0  0
   11.1126  -16.6558   25.3066 C   0  0  1  0  0  0  0  0  0  0  0  0
   12.6051  -16.6420   25.2050 C   0  0  0  0  0  0  0  0  0  0  0  0
   13.0755  -16.9077   23.8037 C   0  0  0  0  0  0  0  0  0  0  0  0
   14.4271  -16.2494   23.6609 C   0  0  0  0  0  0  0  0  0  0  0  0
   14.8596  -15.4027   24.4721 O   0  0  0  0  0  0  0  0  0  0  0  0
   10.6778  -16.4800   26.6898 C   0  0  0  0  0  0  0  0  0  0  0  0
    9.8618  -15.5678   26.9648 O   0  0  0  0  0  0  0  0  0  0  0  0
   15.2364  -16.5862   22.5911 O   0  0  0  0  0  0  0  0  0  0  0  0
   11.1237  -17.2779   27.7326 O   0  0  0  0  0  0  0  0  0  0  0  0
  2  1  1  0
  3  2  2  0
  4  2  1  0
  5  4  1  0
  5  6  1  6
  7  8  2  0
  7  5  1  0
  9  7  1  0
 10  9  1  0
 10 11  1  1
 12 11  1  0
 13 12  1  0
 13 14  1  0
 14 15  1  0
 16 10  1  0
 17 16  2  0
 18 16  1  0
 19 18  1  0
 19 20  1  1
 20 21  1  0
 21 22  1  0
 22 26  1  0
 23 22  2  0
 24 19  1  0
 25 24  2  0
 27 24  1  0
M  END
$$$$
