NKE.pdb
     RDKit          3D

 27 26  0  0  1  0  0  0  0  0999 V2000
   16.5156  -17.5156   16.4516 N   0  0  0  0  0  0  0  0  0  0  0  0
   16.2443  -18.8928   16.2483 C   0  0  0  0  0  0  0  0  0  0  0  0
   17.1376  -19.7449   16.5204 O   0  0  0  0  0  0  0  0  0  0  0  0
   14.9671  -19.4271   15.7299 C   0  0  0  0  0  0  0  0  0  0  0  0
   13.9670  -18.3400   15.4089 C   0  0  2  0  0  0  0  0  0  0  0  0
   14.7166  -17.2064   14.9030 N   0  0  0  0  0  0  0  0  0  0  0  0
   13.2805  -17.9462   16.6529 C   0  0  0  0  0  0  0  0  0  0  0  0
   13.5852  -16.8436   17.2240 O   0  0  0  0  0  0  0  0  0  0  0  0
   12.2837  -18.7372   17.2612 N   0  0  0  0  0  0  0  0  0  0  0  0
   11.5387  -18.2608   18.3969 C   0  0  1  0  0  0  0  0  0  0  0  0
   10.1572  -18.8505   18.3278 C   0  0  0  0  0  0  0  0  0  0  0  0
    9.2694  -18.3855   19.4430 C   0  0  0  0  0  0  0  0  0  0  0  0
    7.9322  -19.0448   19.3816 C   0  0  0  0  0  0  0  0  0  0  0  0
    6.9849  -18.5634   20.4456 C   0  0  0  0  0  0  0  0  0  0  0  0
    5.6646  -19.1123   20.3125 N   0  0  0  0  0  0  0  0  0  0  0  0
   12.1866  -18.7176   19.6580 C   0  0  0  0  0  0  0  0  0  0  0  0
   12.5947  -19.8871   19.8225 O   0  0  0  0  0  0  0  0  0  0  0  0
   12.3637  -17.8148   20.7364 N   0  0  0  0  0  0  0  0  0  0  0  0
   12.8906  -18.0798   22.0208 C   0  0  1  0  0  0  0  0  0  0  0  0
   13.9250  -17.1453   22.5638 C   0  0  0  0  0  0  0  0  0  0  0  0
   15.2530  -17.3213   21.8849 C   0  0  0  0  0  0  0  0  0  0  0  0
   16.2172  -16.3685   22.5505 C   0  0  0  0  0  0  0  0  0  0  0  0
   16.1500  -16.0701   23.7622 O   0  0  0  0  0  0  0  0  0  0  0  0
   11.8042  -18.2753   22.9773 C   0  0  0  0  0  0  0  0  0  0  0  0
   10.6323  -17.9771   22.6436 O   0  0  0  0  0  0  0  0  0  0  0  0
   17.2262  -15.7907   21.8015 O   0  0  0  0  0  0  0  0  0  0  0  0
   11.9990  -18.7801   24.2541 O   0  0  0  0  0  0  0  0  0  0  0  0
  2  1  1  0
  3  2  2  0
  4  2  1  0
  5  4  1  0
  5  6  1  1
  7  8  2  0
  7  5  1  0
  9  7  1  0
 10  9  1  0
 10 11  1  6
 12 11  1  0
 13 12  1  0
 13 14  1  0
 14 15  1  0
 16 10  1  0
 17 16  2  0
 18 16  1  0
 19 18  1  0
 19 20  1  1
 20 21  1  0
 21 22  1  0
 22 26  1  0
 23 22  2  0
 24 19  1  0
 25 24  2  0
 27 24  1  0
M  END
$$$$
