NKE.pdb
     RDKit          3D

 27 26  0  0  1  0  0  0  0  0999 V2000
    7.4549  -12.6610   15.4594 N   0  0  0  0  0  0  0  0  0  0  0  0
    7.5711  -13.9265   16.0892 C   0  0  0  0  0  0  0  0  0  0  0  0
    7.1893  -14.9612   15.4712 O   0  0  0  0  0  0  0  0  0  0  0  0
    8.1174  -14.1396   17.4462 C   0  0  0  0  0  0  0  0  0  0  0  0
    9.0661  -15.3144   17.5158 C   0  0  2  0  0  0  0  0  0  0  0  0
    8.2784  -16.5123   17.2982 N   0  0  0  0  0  0  0  0  0  0  0  0
    9.6572  -15.3659   18.8655 C   0  0  0  0  0  0  0  0  0  0  0  0
   10.4107  -14.4134   19.2650 O   0  0  0  0  0  0  0  0  0  0  0  0
    9.4319  -16.4328   19.7603 N   0  0  0  0  0  0  0  0  0  0  0  0
   10.1526  -16.5338   21.0021 C   0  0  1  0  0  0  0  0  0  0  0  0
    9.5603  -17.6673   21.7930 C   0  0  0  0  0  0  0  0  0  0  0  0
   10.2844  -17.9188   23.0816 C   0  0  0  0  0  0  0  0  0  0  0  0
    9.6985  -19.0790   23.8145 C   0  0  0  0  0  0  0  0  0  0  0  0
   10.4105  -19.3865   25.1029 C   0  0  0  0  0  0  0  0  0  0  0  0
    9.9057  -20.5609   25.7573 N   0  0  0  0  0  0  0  0  0  0  0  0
   11.5856  -16.8403   20.7348 C   0  0  0  0  0  0  0  0  0  0  0  0
   11.9486  -17.7667   19.9789 O   0  0  0  0  0  0  0  0  0  0  0  0
   12.6059  -16.0694   21.3465 N   0  0  0  0  0  0  0  0  0  0  0  0
   14.0039  -16.1677   21.1643 C   0  0  1  0  0  0  0  0  0  0  0  0
   14.7141  -15.0131   20.5312 C   0  0  0  0  0  0  0  0  0  0  0  0
   16.1885  -15.2655   20.3969 C   0  0  0  0  0  0  0  0  0  0  0  0
   16.7829  -14.0526   19.7217 C   0  0  0  0  0  0  0  0  0  0  0  0
   16.2547  -13.4973   18.7345 O   0  0  0  0  0  0  0  0  0  0  0  0
   14.6462  -16.5576   22.4168 C   0  0  0  0  0  0  0  0  0  0  0  0
   15.6799  -17.2674   22.3809 O   0  0  0  0  0  0  0  0  0  0  0  0
   17.9643  -13.5184   20.2034 O   0  0  0  0  0  0  0  0  0  0  0  0
   14.1694  -16.1810   23.6634 O   0  0  0  0  0  0  0  0  0  0  0  0
  2  1  1  0
  3  2  2  0
  4  2  1  0
  5  4  1  0
  5  6  1  1
  7  8  2  0
  7  5  1  0
  9  7  1  0
 10  9  1  0
 10 11  1  1
 12 11  1  0
 13 12  1  0
 13 14  1  0
 14 15  1  0
 16 10  1  0
 17 16  2  0
 18 16  1  0
 19 18  1  0
 19 20  1  1
 20 21  1  0
 21 22  1  0
 22 26  1  0
 23 22  2  0
 24 19  1  0
 25 24  2  0
 27 24  1  0
M  END
$$$$
