NKE.pdb
     RDKit          3D

 27 26  0  0  1  0  0  0  0  0999 V2000
   10.7726  -17.4230   16.6110 N   0  0  0  0  0  0  0  0  0  0  0  0
    9.8797  -16.6041   17.3484 C   0  0  0  0  0  0  0  0  0  0  0  0
    8.7481  -16.3269   16.8578 O   0  0  0  0  0  0  0  0  0  0  0  0
   10.1729  -16.0332   18.6800 C   0  0  0  0  0  0  0  0  0  0  0  0
    9.4797  -16.7760   19.7992 C   0  0  2  0  0  0  0  0  0  0  0  0
    8.0556  -16.7174   19.5322 N   0  0  0  0  0  0  0  0  0  0  0  0
    9.7595  -16.0842   21.0708 C   0  0  0  0  0  0  0  0  0  0  0  0
   10.9681  -15.9404   21.4623 O   0  0  0  0  0  0  0  0  0  0  0  0
    8.7438  -15.5608   21.8978 N   0  0  0  0  0  0  0  0  0  0  0  0
    9.0367  -15.0478   23.2104 C   0  0  1  0  0  0  0  0  0  0  0  0
    7.8653  -14.2177   23.6575 C   0  0  0  0  0  0  0  0  0  0  0  0
    8.0050  -13.7253   25.0668 C   0  0  0  0  0  0  0  0  0  0  0  0
    6.8425  -12.8774   25.4621 C   0  0  0  0  0  0  0  0  0  0  0  0
    6.8909  -12.4385   26.8996 C   0  0  0  0  0  0  0  0  0  0  0  0
    5.7718  -11.6208   27.2753 N   0  0  0  0  0  0  0  0  0  0  0  0
    9.2129  -16.1742   24.1689 C   0  0  0  0  0  0  0  0  0  0  0  0
    8.3631  -17.0793   24.3112 O   0  0  0  0  0  0  0  0  0  0  0  0
   10.3806  -16.2541   24.9686 N   0  0  0  0  0  0  0  0  0  0  0  0
   10.8221  -17.3346   25.7655 C   0  0  1  0  0  0  0  0  0  0  0  0
   12.2236  -17.8224   25.5758 C   0  0  0  0  0  0  0  0  0  0  0  0
   12.5480  -18.9692   26.4898 C   0  0  0  0  0  0  0  0  0  0  0  0
   13.9731  -19.3748   26.1982 C   0  0  0  0  0  0  0  0  0  0  0  0
   14.3104  -19.9657   25.1499 O   0  0  0  0  0  0  0  0  0  0  0  0
   10.5452  -17.0643   27.1739 C   0  0  0  0  0  0  0  0  0  0  0  0
   10.5887  -15.8821   27.5914 O   0  0  0  0  0  0  0  0  0  0  0  0
   14.9627  -19.0879   27.1208 O   0  0  0  0  0  0  0  0  0  0  0  0
   10.2321  -18.0572   28.0899 O   0  0  0  0  0  0  0  0  0  0  0  0
  2  1  1  0
  3  2  2  0
  4  2  1  0
  5  4  1  0
  5  6  1  6
  7  8  2  0
  7  5  1  0
  9  7  1  0
 10  9  1  0
 10 11  1  1
 12 11  1  0
 13 12  1  0
 13 14  1  0
 14 15  1  0
 16 10  1  0
 17 16  2  0
 18 16  1  0
 19 18  1  0
 19 20  1  1
 20 21  1  0
 21 22  1  0
 22 26  1  0
 23 22  2  0
 24 19  1  0
 25 24  2  0
 27 24  1  0
M  END
$$$$
