NKE.pdb
     RDKit          3D

 27 26  0  0  1  0  0  0  0  0999 V2000
   14.1294  -18.3618   16.9965 N   0  0  0  0  0  0  0  0  0  0  0  0
   12.8432  -17.8595   17.3206 C   0  0  0  0  0  0  0  0  0  0  0  0
   11.8743  -18.0955   16.5436 O   0  0  0  0  0  0  0  0  0  0  0  0
   12.5354  -17.0607   18.5258 C   0  0  0  0  0  0  0  0  0  0  0  0
   11.9591  -17.8945   19.6472 C   0  0  2  0  0  0  0  0  0  0  0  0
   10.7836  -18.5618   19.1221 N   0  0  0  0  0  0  0  0  0  0  0  0
   11.5529  -16.9967   20.7439 C   0  0  0  0  0  0  0  0  0  0  0  0
   12.4400  -16.5021   21.5206 O   0  0  0  0  0  0  0  0  0  0  0  0
   10.2089  -16.6457   20.9887 N   0  0  0  0  0  0  0  0  0  0  0  0
    9.8440  -15.8086   22.1013 C   0  0  1  0  0  0  0  0  0  0  0  0
    8.6039  -15.0467   21.7234 C   0  0  0  0  0  0  0  0  0  0  0  0
    8.7643  -14.2670   20.4528 C   0  0  0  0  0  0  0  0  0  0  0  0
    7.4514  -13.7554   19.9619 C   0  0  0  0  0  0  0  0  0  0  0  0
    7.5365  -13.1100   18.6063 C   0  0  0  0  0  0  0  0  0  0  0  0
    6.2518  -12.7573   18.0703 N   0  0  0  0  0  0  0  0  0  0  0  0
    9.5390  -16.6499   23.2921 C   0  0  0  0  0  0  0  0  0  0  0  0
    8.6064  -17.4814   23.3108 O   0  0  0  0  0  0  0  0  0  0  0  0
   10.3186  -16.5284   24.4697 N   0  0  0  0  0  0  0  0  0  0  0  0
   10.2491  -17.3055   25.6482 C   0  0  1  0  0  0  0  0  0  0  0  0
   10.7925  -18.6988   25.6056 C   0  0  0  0  0  0  0  0  0  0  0  0
   12.1980  -18.7379   25.0779 C   0  0  0  0  0  0  0  0  0  0  0  0
   12.6188  -20.1880   25.0536 C   0  0  0  0  0  0  0  0  0  0  0  0
   12.9675  -20.7769   24.0079 O   0  0  0  0  0  0  0  0  0  0  0  0
   10.8039  -16.5587   26.7741 C   0  0  0  0  0  0  0  0  0  0  0  0
   10.7083  -17.0332   27.9314 O   0  0  0  0  0  0  0  0  0  0  0  0
   12.6249  -20.9127   26.2316 O   0  0  0  0  0  0  0  0  0  0  0  0
   11.4407  -15.3349   26.6330 O   0  0  0  0  0  0  0  0  0  0  0  0
  2  1  1  0
  3  2  2  0
  4  2  1  0
  5  4  1  0
  5  6  1  6
  7  8  2  0
  7  5  1  0
  9  7  1  0
 10  9  1  0
 10 11  1  6
 12 11  1  0
 13 12  1  0
 13 14  1  0
 14 15  1  0
 16 10  1  0
 17 16  2  0
 18 16  1  0
 19 18  1  0
 19 20  1  6
 20 21  1  0
 21 22  1  0
 22 26  1  0
 23 22  2  0
 24 19  1  0
 25 24  2  0
 27 24  1  0
M  END
$$$$
