NKE.pdb
     RDKit          3D

 27 26  0  0  1  0  0  0  0  0999 V2000
    8.4988  -18.9338   15.0393 N   0  0  0  0  0  0  0  0  0  0  0  0
    9.1702  -17.6847   15.0180 C   0  0  0  0  0  0  0  0  0  0  0  0
    9.3864  -17.1187   13.9085 O   0  0  0  0  0  0  0  0  0  0  0  0
    9.6508  -16.9717   16.2205 C   0  0  0  0  0  0  0  0  0  0  0  0
    9.6695  -17.8494   17.4511 C   0  0  2  0  0  0  0  0  0  0  0  0
    8.3042  -18.2738   17.6932 N   0  0  0  0  0  0  0  0  0  0  0  0
   10.1344  -17.0473   18.5975 C   0  0  0  0  0  0  0  0  0  0  0  0
   11.3349  -16.6080   18.6193 O   0  0  0  0  0  0  0  0  0  0  0  0
    9.3085  -16.7310   19.6963 N   0  0  0  0  0  0  0  0  0  0  0  0
    9.8164  -16.0047   20.8305 C   0  0  1  0  0  0  0  0  0  0  0  0
    8.6904  -15.8266   21.8112 C   0  0  0  0  0  0  0  0  0  0  0  0
    9.0901  -15.0321   23.0183 C   0  0  0  0  0  0  0  0  0  0  0  0
    7.9373  -14.8396   23.9459 C   0  0  0  0  0  0  0  0  0  0  0  0
    8.2825  -14.0182   25.1574 C   0  0  0  0  0  0  0  0  0  0  0  0
    7.1532  -13.7720   26.0096 N   0  0  0  0  0  0  0  0  0  0  0  0
   10.9004  -16.7850   21.4900 C   0  0  0  0  0  0  0  0  0  0  0  0
   10.8104  -18.0112   21.7129 O   0  0  0  0  0  0  0  0  0  0  0  0
   12.0972  -16.1418   21.8945 N   0  0  0  0  0  0  0  0  0  0  0  0
   13.2551  -16.7242   22.4580 C   0  0  1  0  0  0  0  0  0  0  0  0
   14.5464  -15.9778   22.3412 C   0  0  0  0  0  0  0  0  0  0  0  0
   15.6976  -16.7535   22.9144 C   0  0  0  0  0  0  0  0  0  0  0  0
   16.9338  -15.9054   22.7324 C   0  0  0  0  0  0  0  0  0  0  0  0
   17.5101  -15.7719   21.6315 O   0  0  0  0  0  0  0  0  0  0  0  0
   12.9967  -17.1150   23.8414 C   0  0  0  0  0  0  0  0  0  0  0  0
   12.3080  -16.3635   24.5725 O   0  0  0  0  0  0  0  0  0  0  0  0
   17.4662  -15.2393   23.8213 O   0  0  0  0  0  0  0  0  0  0  0  0
   13.4778  -18.2892   24.4007 O   0  0  0  0  0  0  0  0  0  0  0  0
  2  1  1  0
  3  2  2  0
  4  2  1  0
  5  4  1  0
  5  6  1  1
  7  8  2  0
  7  5  1  0
  9  7  1  0
 10  9  1  0
 10 11  1  1
 12 11  1  0
 13 12  1  0
 13 14  1  0
 14 15  1  0
 16 10  1  0
 17 16  2  0
 18 16  1  0
 19 18  1  0
 19 20  1  1
 20 21  1  0
 21 22  1  0
 22 26  1  0
 23 22  2  0
 24 19  1  0
 25 24  2  0
 27 24  1  0
M  END
$$$$
