NKE.pdb
     RDKit          3D

 27 26  0  0  1  0  0  0  0  0999 V2000
    6.5620  -13.2737   16.2154 N   0  0  0  0  0  0  0  0  0  0  0  0
    7.7209  -14.0281   16.5307 C   0  0  0  0  0  0  0  0  0  0  0  0
    8.2287  -14.7776   15.6483 O   0  0  0  0  0  0  0  0  0  0  0  0
    8.4016  -14.0086   17.8428 C   0  0  0  0  0  0  0  0  0  0  0  0
    8.7063  -15.3948   18.3631 C   0  0  2  0  0  0  0  0  0  0  0  0
    7.4575  -16.1317   18.3708 N   0  0  0  0  0  0  0  0  0  0  0  0
    9.2069  -15.2820   19.7453 C   0  0  0  0  0  0  0  0  0  0  0  0
   10.3335  -14.7199   19.9683 O   0  0  0  0  0  0  0  0  0  0  0  0
    8.4949  -15.7714   20.8602 N   0  0  0  0  0  0  0  0  0  0  0  0
    9.1148  -15.8839   22.1544 C   0  0  1  0  0  0  0  0  0  0  0  0
    8.1359  -16.5474   23.0831 C   0  0  0  0  0  0  0  0  0  0  0  0
    8.7424  -16.9108   24.4053 C   0  0  0  0  0  0  0  0  0  0  0  0
    7.7495  -17.5893   25.2885 C   0  0  0  0  0  0  0  0  0  0  0  0
    8.3001  -17.9316   26.6454 C   0  0  0  0  0  0  0  0  0  0  0  0
    7.3387  -18.5759   27.4956 N   0  0  0  0  0  0  0  0  0  0  0  0
   10.3331  -16.7359   22.0623 C   0  0  0  0  0  0  0  0  0  0  0  0
   10.3102  -17.9009   21.6110 O   0  0  0  0  0  0  0  0  0  0  0  0
   11.5870  -16.2364   22.4955 N   0  0  0  0  0  0  0  0  0  0  0  0
   12.8412  -16.8877   22.4767 C   0  0  1  0  0  0  0  0  0  0  0  0
   13.9002  -16.3495   21.5673 C   0  0  0  0  0  0  0  0  0  0  0  0
   14.2629  -14.9316   21.9043 C   0  0  0  0  0  0  0  0  0  0  0  0
   15.2781  -14.4819   20.8808 C   0  0  0  0  0  0  0  0  0  0  0  0
   14.9824  -14.2422   19.6904 O   0  0  0  0  0  0  0  0  0  0  0  0
   13.3460  -17.0420   23.8386 C   0  0  0  0  0  0  0  0  0  0  0  0
   14.3943  -17.7030   24.0328 O   0  0  0  0  0  0  0  0  0  0  0  0
   16.5988  -14.3226   21.2593 O   0  0  0  0  0  0  0  0  0  0  0  0
   12.7210  -16.4899   24.9466 O   0  0  0  0  0  0  0  0  0  0  0  0
  2  1  1  0
  3  2  2  0
  4  2  1  0
  5  4  1  0
  5  6  1  1
  7  8  2  0
  7  5  1  0
  9  7  1  0
 10  9  1  0
 10 11  1  1
 12 11  1  0
 13 12  1  0
 13 14  1  0
 14 15  1  0
 16 10  1  0
 17 16  2  0
 18 16  1  0
 19 18  1  0
 19 20  1  6
 20 21  1  0
 21 22  1  0
 22 26  1  0
 23 22  2  0
 24 19  1  0
 25 24  2  0
 27 24  1  0
M  END
$$$$
