NKE.pdb
     RDKit          3D

 27 26  0  0  1  0  0  0  0  0999 V2000
    7.2993  -12.6639   17.2124 N   0  0  0  0  0  0  0  0  0  0  0  0
    8.0076  -13.6984   17.8756 C   0  0  0  0  0  0  0  0  0  0  0  0
    8.2640  -14.7685   17.2533 O   0  0  0  0  0  0  0  0  0  0  0  0
    8.4831  -13.6247   19.2734 C   0  0  0  0  0  0  0  0  0  0  0  0
    8.2606  -14.9118   20.0343 C   0  0  2  0  0  0  0  0  0  0  0  0
    6.8330  -15.1664   20.0337 N   0  0  0  0  0  0  0  0  0  0  0  0
    8.7152  -14.7245   21.4243 C   0  0  0  0  0  0  0  0  0  0  0  0
    9.9350  -14.4203   21.6573 O   0  0  0  0  0  0  0  0  0  0  0  0
    7.8588  -14.8659   22.5361 N   0  0  0  0  0  0  0  0  0  0  0  0
    8.3607  -14.7880   23.8829 C   0  0  1  0  0  0  0  0  0  0  0  0
    7.2286  -14.3649   24.7775 C   0  0  0  0  0  0  0  0  0  0  0  0
    7.3369  -12.9354   25.2169 C   0  0  0  0  0  0  0  0  0  0  0  0
    6.2572  -12.5830   26.1848 C   0  0  0  0  0  0  0  0  0  0  0  0
    6.3895  -11.1913   26.7389 C   0  0  0  0  0  0  0  0  0  0  0  0
    5.3635  -10.8651   27.6891 N   0  0  0  0  0  0  0  0  0  0  0  0
    8.8395  -16.1273   24.3254 C   0  0  0  0  0  0  0  0  0  0  0  0
    8.1271  -17.1523   24.2678 O   0  0  0  0  0  0  0  0  0  0  0  0
   10.1520  -16.2818   24.8382 N   0  0  0  0  0  0  0  0  0  0  0  0
   10.8394  -17.4807   25.1340 C   0  0  1  0  0  0  0  0  0  0  0  0
   12.2116  -17.6636   24.5668 C   0  0  0  0  0  0  0  0  0  0  0  0
   13.0974  -16.4835   24.8472 C   0  0  0  0  0  0  0  0  0  0  0  0
   14.3487  -16.6666   24.0220 C   0  0  0  0  0  0  0  0  0  0  0  0
   14.5259  -17.6445   23.2642 O   0  0  0  0  0  0  0  0  0  0  0  0
   10.8291  -17.7218   26.5745 C   0  0  0  0  0  0  0  0  0  0  0  0
   10.3878  -16.8329   27.3418 O   0  0  0  0  0  0  0  0  0  0  0  0
   15.3545  -15.7200   24.0951 O   0  0  0  0  0  0  0  0  0  0  0  0
   11.2873  -18.8971   27.1505 O   0  0  0  0  0  0  0  0  0  0  0  0
  2  1  1  0
  3  2  2  0
  4  2  1  0
  5  4  1  0
  5  6  1  1
  7  8  2  0
  7  5  1  0
  9  7  1  0
 10  9  1  0
 10 11  1  1
 12 11  1  0
 13 12  1  0
 13 14  1  0
 14 15  1  0
 16 10  1  0
 17 16  2  0
 18 16  1  0
 19 18  1  0
 19 20  1  1
 20 21  1  0
 21 22  1  0
 22 26  1  0
 23 22  2  0
 24 19  1  0
 25 24  2  0
 27 24  1  0
M  END
$$$$
