ATL.pdb
     RDKit          3D

 21 20  0  0  1  0  0  0  0  0999 V2000
   17.1298  -15.2029  -17.2727 C   0  0  0  0  0  0  0  0  0  0  0  0
   16.4884  -14.4772  -16.1115 C   0  0  2  0  0  0  0  0  0  0  0  0
   15.1319  -14.8858  -15.8807 N   0  0  0  0  0  0  0  0  0  0  0  0
   16.5080  -13.0226  -16.3543 C   0  0  0  0  0  0  0  0  0  0  0  0
   16.1791  -12.5331  -17.4848 O   0  0  0  0  0  0  0  0  0  0  0  0
   14.4808  -10.5985  -14.9905 C   0  0  0  0  0  0  0  0  0  0  0  0
   15.8544  -10.1249  -14.5431 C   0  0  1  0  0  0  0  0  0  0  0  0
   16.0724  -10.5262  -13.2324 O   0  0  0  0  0  0  0  0  0  0  0  0
   16.8547  -10.7436  -15.5002 C   0  0  2  0  0  0  0  0  0  0  0  0
   16.9003  -12.1646  -15.3076 N   0  0  0  0  0  0  0  0  0  0  0  0
   18.2096  -10.1546  -15.3239 C   0  0  0  0  0  0  0  0  0  0  0  0
   19.1084  -10.8626  -14.8092 O   0  0  0  0  0  0  0  0  0  0  0  0
   22.3472   -6.5054  -17.7665 C   0  0  0  0  0  0  0  0  0  0  0  0
   21.8881   -7.3205  -16.6174 C   0  0  2  0  0  0  0  0  0  0  0  0
   22.9334   -8.4225  -16.3574 C   0  0  0  0  0  0  0  0  0  0  0  0
   20.5822   -8.0050  -16.7280 C   0  0  0  0  0  0  0  0  0  0  0  0
   19.7716   -8.1907  -15.5022 C   0  0  2  0  0  0  0  0  0  0  0  0
   18.5139   -8.8146  -15.7213 N   0  0  0  0  0  0  0  0  0  0  0  0
   19.6710   -6.8849  -14.8015 C   0  0  0  0  0  0  0  0  0  0  0  0
   20.7780   -6.4857  -14.0658 O   0  0  0  0  0  0  0  0  0  0  0  0
   18.6779   -6.1443  -14.8331 O   0  0  0  0  0  0  0  0  0  0  0  0
  2  1  1  6
  3  2  1  0
  4  2  1  0
  4  5  2  0
  7  6  1  6
  7  9  1  0
  8  7  1  0
  9 10  1  1
 10  4  1  0
 11  9  1  0
 12 11  2  0
 14 13  1  6
 14 15  1  0
 16 14  1  0
 17 18  1  0
 17 16  1  6
 18 11  1  0
 19 17  1  0
 20 19  1  0
 21 19  2  0
M  END
$$$$
