ATL.pdb
     RDKit          3D

 21 20  0  0  1  0  0  0  0  0999 V2000
   17.0128  -14.5306  -17.3603 C   0  0  0  0  0  0  0  0  0  0  0  0
   16.9966  -13.8872  -18.7287 C   0  0  2  0  0  0  0  0  0  0  0  0
   17.3896  -14.7903  -19.7729 N   0  0  0  0  0  0  0  0  0  0  0  0
   17.9005  -12.7220  -18.7477 C   0  0  0  0  0  0  0  0  0  0  0  0
   19.1109  -12.8262  -19.1350 O   0  0  0  0  0  0  0  0  0  0  0  0
   16.8630   -9.2612  -19.9357 C   0  0  0  0  0  0  0  0  0  0  0  0
   17.5070   -9.0699  -18.5719 C   0  0  1  0  0  0  0  0  0  0  0  0
   16.5170   -8.8402  -17.6265 O   0  0  0  0  0  0  0  0  0  0  0  0
   18.2850  -10.3389  -18.2826 C   0  0  2  0  0  0  0  0  0  0  0  0
   17.4056  -11.4716  -18.3269 N   0  0  0  0  0  0  0  0  0  0  0  0
   18.9686  -10.2668  -16.9630 C   0  0  0  0  0  0  0  0  0  0  0  0
   18.4748  -10.8971  -15.9972 O   0  0  0  0  0  0  0  0  0  0  0  0
   22.2250  -10.2070  -12.9101 C   0  0  0  0  0  0  0  0  0  0  0  0
   22.9205   -9.9961  -14.2014 C   0  0  2  0  0  0  0  0  0  0  0  0
   23.5364   -8.5836  -14.1943 C   0  0  0  0  0  0  0  0  0  0  0  0
   22.1253  -10.0960  -15.4439 C   0  0  0  0  0  0  0  0  0  0  0  0
   20.8279   -9.3850  -15.5159 C   0  0  2  0  0  0  0  0  0  0  0  0
   20.1633   -9.5052  -16.7660 N   0  0  0  0  0  0  0  0  0  0  0  0
   21.0374   -7.9778  -15.0892 C   0  0  0  0  0  0  0  0  0  0  0  0
   20.9199   -7.7142  -13.7317 O   0  0  0  0  0  0  0  0  0  0  0  0
   21.3056   -7.0426  -15.8568 O   0  0  0  0  0  0  0  0  0  0  0  0
  2  1  1  1
  3  2  1  0
  4  2  1  0
  4  5  2  0
  7  6  1  6
  7  9  1  0
  8  7  1  0
  9 10  1  1
 10  4  1  0
 11  9  1  0
 12 11  2  0
 14 13  1  1
 14 15  1  0
 16 14  1  0
 17 18  1  0
 17 16  1  6
 18 11  1  0
 19 17  1  0
 20 19  1  0
 21 19  2  0
M  END
$$$$
