ATL.pdb
     RDKit          3D

 21 20  0  0  1  0  0  0  0  0999 V2000
   17.1007  -14.7996  -16.0571 C   0  0  0  0  0  0  0  0  0  0  0  0
   16.1553  -13.8159  -16.7091 C   0  0  2  0  0  0  0  0  0  0  0  0
   15.5221  -14.3469  -17.8827 N   0  0  0  0  0  0  0  0  0  0  0  0
   16.8836  -12.5885  -17.0805 C   0  0  0  0  0  0  0  0  0  0  0  0
   17.7966  -12.6010  -17.9706 O   0  0  0  0  0  0  0  0  0  0  0  0
   15.4030   -9.3643  -18.1371 C   0  0  0  0  0  0  0  0  0  0  0  0
   16.2643   -9.0348  -16.9285 C   0  0  1  0  0  0  0  0  0  0  0  0
   15.4525   -8.9015  -15.8106 O   0  0  0  0  0  0  0  0  0  0  0  0
   17.2514  -10.1763  -16.7806 C   0  0  2  0  0  0  0  0  0  0  0  0
   16.5556  -11.3814  -16.4316 N   0  0  0  0  0  0  0  0  0  0  0  0
   18.2905   -9.8660  -15.7619 C   0  0  0  0  0  0  0  0  0  0  0  0
   18.3983  -10.6220  -14.7665 O   0  0  0  0  0  0  0  0  0  0  0  0
   23.5695  -10.2807  -14.2130 C   0  0  0  0  0  0  0  0  0  0  0  0
   22.4206   -9.3619  -14.0354 C   0  0  2  0  0  0  0  0  0  0  0  0
   21.9335   -9.4723  -12.5775 C   0  0  0  0  0  0  0  0  0  0  0  0
   21.2295   -9.5650  -14.8875 C   0  0  0  0  0  0  0  0  0  0  0  0
   20.2376   -8.4702  -14.9945 C   0  0  2  0  0  0  0  0  0  0  0  0
   19.1630   -8.7390  -15.8843 N   0  0  0  0  0  0  0  0  0  0  0  0
   20.9594   -7.2088  -15.3014 C   0  0  0  0  0  0  0  0  0  0  0  0
   21.4596   -6.4982  -14.2193 O   0  0  0  0  0  0  0  0  0  0  0  0
   21.1386   -6.7607  -16.4428 O   0  0  0  0  0  0  0  0  0  0  0  0
  2  1  1  6
  3  2  1  0
  4  2  1  0
  4  5  2  0
  7  6  1  6
  7  9  1  0
  8  7  1  0
  9 10  1  1
 10  4  1  0
 11  9  1  0
 12 11  2  0
 14 13  1  6
 14 15  1  0
 16 14  1  0
 17 18  1  0
 17 16  1  6
 18 11  1  0
 19 17  1  0
 20 19  1  0
 21 19  2  0
M  END
$$$$
