ATL.pdb
     RDKit          3D

 21 20  0  0  1  0  0  0  0  0999 V2000
   17.1731  -13.9612  -14.0329 C   0  0  0  0  0  0  0  0  0  0  0  0
   17.0290  -14.0658  -15.5345 C   0  0  2  0  0  0  0  0  0  0  0  0
   16.7684  -15.4063  -15.9766 N   0  0  0  0  0  0  0  0  0  0  0  0
   18.2570  -13.5823  -16.1928 C   0  0  0  0  0  0  0  0  0  0  0  0
   19.1481  -14.3915  -16.6137 O   0  0  0  0  0  0  0  0  0  0  0  0
   18.3332  -11.6013  -19.1814 C   0  0  0  0  0  0  0  0  0  0  0  0
   19.1103  -10.7610  -18.1808 C   0  0  1  0  0  0  0  0  0  0  0  0
   18.2858   -9.7604  -17.6854 O   0  0  0  0  0  0  0  0  0  0  0  0
   19.5713  -11.7087  -17.0905 C   0  0  2  0  0  0  0  0  0  0  0  0
   18.4393  -12.1945  -16.3550 N   0  0  0  0  0  0  0  0  0  0  0  0
   20.5395  -11.0497  -16.1729 C   0  0  0  0  0  0  0  0  0  0  0  0
   20.1208  -10.6113  -15.0745 O   0  0  0  0  0  0  0  0  0  0  0  0
   26.6540   -9.5867  -15.9101 C   0  0  0  0  0  0  0  0  0  0  0  0
   25.3301   -9.7678  -15.2697 C   0  0  2  0  0  0  0  0  0  0  0  0
   25.5266  -10.5759  -13.9723 C   0  0  0  0  0  0  0  0  0  0  0  0
   24.2759  -10.4648  -16.0371 C   0  0  0  0  0  0  0  0  0  0  0  0
   22.8582  -10.1940  -15.7039 C   0  0  2  0  0  0  0  0  0  0  0  0
   21.9231  -10.9029  -16.5051 N   0  0  0  0  0  0  0  0  0  0  0  0
   22.6461   -8.7239  -15.7066 C   0  0  0  0  0  0  0  0  0  0  0  0
   22.6719   -8.0884  -14.4731 O   0  0  0  0  0  0  0  0  0  0  0  0
   22.4511   -8.0432  -16.7236 O   0  0  0  0  0  0  0  0  0  0  0  0
  2  1  1  1
  3  2  1  0
  4  2  1  0
  4  5  2  0
  7  6  1  6
  7  9  1  0
  8  7  1  0
  9 10  1  1
 10  4  1  0
 11  9  1  0
 12 11  2  0
 14 13  1  6
 14 15  1  0
 16 14  1  0
 17 18  1  0
 17 16  1  6
 18 11  1  0
 19 17  1  0
 20 19  1  0
 21 19  2  0
M  END
$$$$
