ATL.pdb
     RDKit          3D

 21 20  0  0  1  0  0  0  0  0999 V2000
   20.1715  -22.5402  -14.1960 C   0  0  0  0  0  0  0  0  0  0  0  0
   21.4919  -22.2790  -14.8850 C   0  0  2  0  0  0  0  0  0  0  0  0
   21.6606  -23.0585  -16.0784 N   0  0  0  0  0  0  0  0  0  0  0  0
   22.6065  -22.5760  -13.9661 C   0  0  0  0  0  0  0  0  0  0  0  0
   22.7206  -23.7160  -13.4062 O   0  0  0  0  0  0  0  0  0  0  0  0
   26.0579  -22.2818  -14.8794 C   0  0  0  0  0  0  0  0  0  0  0  0
   25.9713  -21.4408  -13.6158 C   0  0  1  0  0  0  0  0  0  0  0  0
   25.9407  -20.0970  -13.9616 O   0  0  0  0  0  0  0  0  0  0  0  0
   24.7064  -21.8717  -12.8991 C   0  0  2  0  0  0  0  0  0  0  0  0
   23.5603  -21.5713  -13.7082 N   0  0  0  0  0  0  0  0  0  0  0  0
   24.5864  -21.2155  -11.5692 C   0  0  0  0  0  0  0  0  0  0  0  0
   23.6846  -20.3593  -11.4027 O   0  0  0  0  0  0  0  0  0  0  0  0
   28.5236  -20.5154   -6.6967 C   0  0  0  0  0  0  0  0  0  0  0  0
   27.2674  -20.2022   -7.4175 C   0  0  2  0  0  0  0  0  0  0  0  0
   26.0985  -20.3014   -6.4183 C   0  0  0  0  0  0  0  0  0  0  0  0
   26.8990  -21.0484   -8.5727 C   0  0  0  0  0  0  0  0  0  0  0  0
   25.7514  -20.6395   -9.4152 C   0  0  2  0  0  0  0  0  0  0  0  0
   25.4632  -21.5306  -10.4838 N   0  0  0  0  0  0  0  0  0  0  0  0
   25.9658  -19.2370   -9.8550 C   0  0  0  0  0  0  0  0  0  0  0  0
   25.2523  -18.2565   -9.1801 O   0  0  0  0  0  0  0  0  0  0  0  0
   26.7283  -18.8956  -10.7703 O   0  0  0  0  0  0  0  0  0  0  0  0
  2  1  1  1
  3  2  1  0
  4  2  1  0
  4  5  2  0
  7  6  1  6
  7  9  1  0
  8  7  1  0
  9 10  1  6
 10  4  1  0
 11  9  1  0
 12 11  2  0
 14 13  1  1
 14 15  1  0
 16 14  1  0
 17 18  1  0
 17 16  1  6
 18 11  1  0
 19 17  1  0
 20 19  1  0
 21 19  2  0
M  END
$$$$
