ATL.pdb
     RDKit          3D

 21 20  0  0  1  0  0  0  0  0999 V2000
   18.2131  -15.1516  -16.4196 C   0  0  0  0  0  0  0  0  0  0  0  0
   17.3000  -13.9467  -16.4527 C   0  0  2  0  0  0  0  0  0  0  0  0
   16.1561  -14.1384  -17.2984 N   0  0  0  0  0  0  0  0  0  0  0  0
   18.0437  -12.7644  -16.9259 C   0  0  0  0  0  0  0  0  0  0  0  0
   18.6607  -12.7702  -18.0419 O   0  0  0  0  0  0  0  0  0  0  0  0
   16.7779   -9.4418  -17.5498 C   0  0  0  0  0  0  0  0  0  0  0  0
   17.8569   -9.2319  -16.4995 C   0  0  1  0  0  0  0  0  0  0  0  0
   17.2624   -9.1028  -15.2520 O   0  0  0  0  0  0  0  0  0  0  0  0
   18.7679  -10.4419  -16.5720 C   0  0  2  0  0  0  0  0  0  0  0  0
   18.0666  -11.6089  -16.1197 N   0  0  0  0  0  0  0  0  0  0  0  0
   20.0042  -10.2386  -15.7695 C   0  0  0  0  0  0  0  0  0  0  0  0
   20.0604  -10.7362  -14.6191 O   0  0  0  0  0  0  0  0  0  0  0  0
   26.0400   -9.8033  -16.0917 C   0  0  0  0  0  0  0  0  0  0  0  0
   24.7891   -9.7003  -15.3039 C   0  0  2  0  0  0  0  0  0  0  0  0
   24.8510  -10.7314  -14.1604 C   0  0  0  0  0  0  0  0  0  0  0  0
   23.5065   -9.9314  -16.0023 C   0  0  0  0  0  0  0  0  0  0  0  0
   22.2956   -9.2324  -15.5133 C   0  0  2  0  0  0  0  0  0  0  0  0
   21.1216   -9.4979  -16.2684 N   0  0  0  0  0  0  0  0  0  0  0  0
   22.6050   -7.7849  -15.3887 C   0  0  0  0  0  0  0  0  0  0  0  0
   23.0008   -7.3381  -14.1358 O   0  0  0  0  0  0  0  0  0  0  0  0
   22.5328   -6.9677  -16.3175 O   0  0  0  0  0  0  0  0  0  0  0  0
  2  1  1  6
  3  2  1  0
  4  2  1  0
  4  5  2  0
  7  6  1  6
  7  9  1  0
  8  7  1  0
  9 10  1  1
 10  4  1  0
 11  9  1  0
 12 11  2  0
 14 13  1  6
 14 15  1  0
 16 14  1  0
 17 18  1  0
 17 16  1  6
 18 11  1  0
 19 17  1  0
 20 19  1  0
 21 19  2  0
M  END
$$$$
