ATL.pdb
     RDKit          3D

 21 20  0  0  1  0  0  0  0  0999 V2000
   29.0568  -21.5135  -17.3173 C   0  0  0  0  0  0  0  0  0  0  0  0
   27.9300  -20.5193  -17.4854 C   0  0  2  0  0  0  0  0  0  0  0  0
   28.1496  -19.6077  -18.5722 N   0  0  0  0  0  0  0  0  0  0  0  0
   27.7562  -19.7411  -16.2447 C   0  0  0  0  0  0  0  0  0  0  0  0
   28.5240  -18.7636  -15.9603 O   0  0  0  0  0  0  0  0  0  0  0  0
   25.3659  -17.5776  -15.5381 C   0  0  0  0  0  0  0  0  0  0  0  0
   25.1622  -18.5310  -14.3715 C   0  0  1  0  0  0  0  0  0  0  0  0
   24.1014  -19.3803  -14.6544 O   0  0  0  0  0  0  0  0  0  0  0  0
   26.4656  -19.2872  -14.2022 C   0  0  2  0  0  0  0  0  0  0  0  0
   26.7162  -20.0939  -15.3617 N   0  0  0  0  0  0  0  0  0  0  0  0
   26.4465  -20.1332  -12.9784 C   0  0  0  0  0  0  0  0  0  0  0  0
   26.2089  -21.3589  -13.1010 O   0  0  0  0  0  0  0  0  0  0  0  0
   26.5404  -19.3359   -6.7375 C   0  0  0  0  0  0  0  0  0  0  0  0
   26.6233  -20.2114   -7.9302 C   0  0  2  0  0  0  0  0  0  0  0  0
   27.7771  -21.2106   -7.7177 C   0  0  0  0  0  0  0  0  0  0  0  0
   26.8611  -19.5761   -9.2440 C   0  0  0  0  0  0  0  0  0  0  0  0
   26.4513  -20.3020  -10.4684 C   0  0  2  0  0  0  0  0  0  0  0  0
   26.6895  -19.5928  -11.6764 N   0  0  0  0  0  0  0  0  0  0  0  0
   25.0413  -20.7401  -10.3069 C   0  0  0  0  0  0  0  0  0  0  0  0
   24.8393  -22.0475   -9.8872 O   0  0  0  0  0  0  0  0  0  0  0  0
   24.0532  -20.0233  -10.5199 O   0  0  0  0  0  0  0  0  0  0  0  0
  2  1  1  1
  3  2  1  0
  4  2  1  0
  4  5  2  0
  7  6  1  6
  7  9  1  0
  8  7  1  0
  9 10  1  6
 10  4  1  0
 11  9  1  0
 12 11  2  0
 14 13  1  1
 14 15  1  0
 16 14  1  0
 17 18  1  0
 17 16  1  1
 18 11  1  0
 19 17  1  0
 20 19  1  0
 21 19  2  0
M  END
$$$$
