ATL.pdb
     RDKit          3D

 21 20  0  0  1  0  0  0  0  0999 V2000
   28.9502  -17.8879  -15.4033 C   0  0  0  0  0  0  0  0  0  0  0  0
   28.0115  -19.0438  -15.6667 C   0  0  2  0  0  0  0  0  0  0  0  0
   27.3977  -18.9782  -16.9625 N   0  0  0  0  0  0  0  0  0  0  0  0
   26.9503  -19.0737  -14.6430 C   0  0  0  0  0  0  0  0  0  0  0  0
   26.2055  -18.0613  -14.4281 O   0  0  0  0  0  0  0  0  0  0  0  0
   23.4298  -21.2393  -12.5819 C   0  0  0  0  0  0  0  0  0  0  0  0
   24.5440  -21.1639  -13.6135 C   0  0  1  0  0  0  0  0  0  0  0  0
   24.0564  -20.5743  -14.7715 O   0  0  0  0  0  0  0  0  0  0  0  0
   25.6563  -20.3469  -12.9852 C   0  0  2  0  0  0  0  0  0  0  0  0
   26.7640  -20.2514  -13.8920 N   0  0  0  0  0  0  0  0  0  0  0  0
   26.0969  -20.9353  -11.6915 C   0  0  0  0  0  0  0  0  0  0  0  0
   26.6165  -22.0772  -11.6987 O   0  0  0  0  0  0  0  0  0  0  0  0
   28.7230  -20.7730   -7.7266 C   0  0  0  0  0  0  0  0  0  0  0  0
   27.7291  -19.7045   -7.9837 C   0  0  2  0  0  0  0  0  0  0  0  0
   27.8518  -18.6504   -6.8662 C   0  0  0  0  0  0  0  0  0  0  0  0
   26.3009  -20.0827   -8.0425 C   0  0  0  0  0  0  0  0  0  0  0  0
   25.8266  -20.8891   -9.1909 C   0  0  2  0  0  0  0  0  0  0  0  0
   25.9459  -20.2413  -10.4498 N   0  0  0  0  0  0  0  0  0  0  0  0
   24.4501  -21.3635   -8.8969 C   0  0  0  0  0  0  0  0  0  0  0  0
   24.3248  -22.3524   -7.9313 O   0  0  0  0  0  0  0  0  0  0  0  0
   23.4262  -20.9383   -9.4507 O   0  0  0  0  0  0  0  0  0  0  0  0
  2  1  1  1
  3  2  1  0
  4  2  1  0
  4  5  2  0
  7  6  1  1
  7  9  1  0
  8  7  1  0
  9 10  1  6
 10  4  1  0
 11  9  1  0
 12 11  2  0
 14 13  1  1
 14 15  1  0
 16 14  1  0
 17 18  1  0
 17 16  1  1
 18 11  1  0
 19 17  1  0
 20 19  1  0
 21 19  2  0
M  END
$$$$
