ATL.pdb
     RDKit          3D

 21 20  0  0  1  0  0  0  0  0999 V2000
   15.4588  -13.8841  -19.2873 C   0  0  0  0  0  0  0  0  0  0  0  0
   16.4762  -13.7128  -18.1819 C   0  0  2  0  0  0  0  0  0  0  0  0
   15.8953  -13.8009  -16.8723 N   0  0  0  0  0  0  0  0  0  0  0  0
   17.1470  -12.4059  -18.3134 C   0  0  0  0  0  0  0  0  0  0  0  0
   17.8664  -12.1274  -19.3287 O   0  0  0  0  0  0  0  0  0  0  0  0
   15.8374   -9.2077  -18.7477 C   0  0  0  0  0  0  0  0  0  0  0  0
   16.5742   -9.0743  -17.4246 C   0  0  1  0  0  0  0  0  0  0  0  0
   15.6677   -9.1998  -16.3811 O   0  0  0  0  0  0  0  0  0  0  0  0
   17.6203  -10.1719  -17.4031 C   0  0  2  0  0  0  0  0  0  0  0  0
   16.9826  -11.4520  -17.2894 N   0  0  0  0  0  0  0  0  0  0  0  0
   18.5886   -9.9762  -16.2905 C   0  0  0  0  0  0  0  0  0  0  0  0
   18.3486  -10.5187  -15.1850 O   0  0  0  0  0  0  0  0  0  0  0  0
   24.1555  -10.4462  -14.5083 C   0  0  0  0  0  0  0  0  0  0  0  0
   22.8743   -9.7269  -14.3164 C   0  0  2  0  0  0  0  0  0  0  0  0
   22.2891  -10.1367  -12.9510 C   0  0  0  0  0  0  0  0  0  0  0  0
   21.8004   -9.9419  -15.3097 C   0  0  0  0  0  0  0  0  0  0  0  0
   20.7042   -8.9496  -15.3966 C   0  0  2  0  0  0  0  0  0  0  0  0
   19.7759   -9.1934  -16.4444 N   0  0  0  0  0  0  0  0  0  0  0  0
   21.3013   -7.5902  -15.4386 C   0  0  0  0  0  0  0  0  0  0  0  0
   21.5429   -6.9779  -14.2168 O   0  0  0  0  0  0  0  0  0  0  0  0
   21.5913   -6.9811  -16.4781 O   0  0  0  0  0  0  0  0  0  0  0  0
  2  1  1  6
  3  2  1  0
  4  2  1  0
  4  5  2  0
  7  6  1  6
  7  9  1  0
  8  7  1  0
  9 10  1  1
 10  4  1  0
 11  9  1  0
 12 11  2  0
 14 13  1  6
 14 15  1  0
 16 14  1  0
 17 18  1  0
 17 16  1  6
 18 11  1  0
 19 17  1  0
 20 19  1  0
 21 19  2  0
M  END
$$$$
