ATL.pdb
     RDKit          3D

 21 20  0  0  1  0  0  0  0  0999 V2000
   45.9311  -13.7017   -9.5474 C   0  0  0  0  0  0  0  0  0  0  0  0
   46.2120  -12.7628   -8.3959 C   0  0  2  0  0  0  0  0  0  0  0  0
   47.3258  -13.1831   -7.5940 N   0  0  0  0  0  0  0  0  0  0  0  0
   45.0218  -12.6564   -7.5314 C   0  0  0  0  0  0  0  0  0  0  0  0
   44.6450  -13.6282   -6.7969 O   0  0  0  0  0  0  0  0  0  0  0  0
   44.6212  -10.4230   -4.8750 C   0  0  0  0  0  0  0  0  0  0  0  0
   43.4057  -10.0991   -5.7288 C   0  0  1  0  0  0  0  0  0  0  0  0
   43.6516   -8.9419   -6.4548 O   0  0  0  0  0  0  0  0  0  0  0  0
   43.1819  -11.2980   -6.6298 C   0  0  2  0  0  0  0  0  0  0  0  0
   44.2929  -11.4505   -7.5246 N   0  0  0  0  0  0  0  0  0  0  0  0
   41.9139  -11.1700   -7.3976 C   0  0  0  0  0  0  0  0  0  0  0  0
   41.9769  -10.8529   -8.6098 O   0  0  0  0  0  0  0  0  0  0  0  0
   35.7512  -12.2577   -6.7105 C   0  0  0  0  0  0  0  0  0  0  0  0
   36.9437  -11.9164   -7.5212 C   0  0  2  0  0  0  0  0  0  0  0  0
   37.0029  -12.8785   -8.7235 C   0  0  0  0  0  0  0  0  0  0  0  0
   38.2695  -11.9833   -6.8703 C   0  0  0  0  0  0  0  0  0  0  0  0
   39.4012  -11.2532   -7.4870 C   0  0  2  0  0  0  0  0  0  0  0  0
   40.6353  -11.3964   -6.7975 N   0  0  0  0  0  0  0  0  0  0  0  0
   38.9956   -9.8384   -7.6880 C   0  0  0  0  0  0  0  0  0  0  0  0
   38.3962   -9.5285   -8.9007 O   0  0  0  0  0  0  0  0  0  0  0  0
   39.1568   -8.9354   -6.8549 O   0  0  0  0  0  0  0  0  0  0  0  0
  2  1  1  6
  3  2  1  0
  4  2  1  0
  4  5  2  0
  7  6  1  1
  7  9  1  0
  8  7  1  0
  9 10  1  6
 10  4  1  0
 11  9  1  0
 12 11  2  0
 14 13  1  1
 14 15  1  0
 16 14  1  0
 17 18  1  0
 17 16  1  1
 18 11  1  0
 19 17  1  0
 20 19  1  0
 21 19  2  0
M  END
$$$$
