ATL.pdb
     RDKit          3D

 21 20  0  0  1  0  0  0  0  0999 V2000
   20.8705  -18.4534  -14.1108 C   0  0  0  0  0  0  0  0  0  0  0  0
   21.7759  -19.5347  -14.6562 C   0  0  2  0  0  0  0  0  0  0  0  0
   21.0941  -20.4392  -15.5378 N   0  0  0  0  0  0  0  0  0  0  0  0
   22.3604  -20.3093  -13.5455 C   0  0  0  0  0  0  0  0  0  0  0  0
   21.6253  -20.8722  -12.6688 O   0  0  0  0  0  0  0  0  0  0  0  0
   23.9131  -23.2669  -13.7770 C   0  0  0  0  0  0  0  0  0  0  0  0
   25.0185  -22.4585  -13.1167 C   0  0  1  0  0  0  0  0  0  0  0  0
   25.9386  -22.0691  -14.0802 O   0  0  0  0  0  0  0  0  0  0  0  0
   24.3464  -21.2686  -12.4596 C   0  0  2  0  0  0  0  0  0  0  0  0
   23.7623  -20.4233  -13.4609 N   0  0  0  0  0  0  0  0  0  0  0  0
   25.3065  -20.4954  -11.6265 C   0  0  0  0  0  0  0  0  0  0  0  0
   25.6865  -19.3724  -12.0367 O   0  0  0  0  0  0  0  0  0  0  0  0
   29.0567  -20.5194   -7.3387 C   0  0  0  0  0  0  0  0  0  0  0  0
   27.8303  -19.6943   -7.4432 C   0  0  2  0  0  0  0  0  0  0  0  0
   27.2724  -19.4748   -6.0236 C   0  0  0  0  0  0  0  0  0  0  0  0
   26.7089  -20.2148   -8.2541 C   0  0  0  0  0  0  0  0  0  0  0  0
   26.9252  -20.4435   -9.7015 C   0  0  2  0  0  0  0  0  0  0  0  0
   25.8046  -20.9925  -10.3810 N   0  0  0  0  0  0  0  0  0  0  0  0
   28.1689  -21.2375   -9.8724 C   0  0  0  0  0  0  0  0  0  0  0  0
   29.3273  -20.5276  -10.1551 O   0  0  0  0  0  0  0  0  0  0  0  0
   28.2338  -22.4715   -9.7798 O   0  0  0  0  0  0  0  0  0  0  0  0
  2  1  1  1
  3  2  1  0
  4  2  1  0
  4  5  2  0
  7  6  1  6
  7  9  1  0
  8  7  1  0
  9 10  1  6
 10  4  1  0
 11  9  1  0
 12 11  2  0
 14 13  1  1
 14 15  1  0
 16 14  1  0
 17 18  1  0
 17 16  1  1
 18 11  1  0
 19 17  1  0
 20 19  1  0
 21 19  2  0
M  END
$$$$
