ATL.pdb
     RDKit          3D

 21 20  0  0  1  0  0  0  0  0999 V2000
   19.0778  -15.5501  -15.7724 C   0  0  0  0  0  0  0  0  0  0  0  0
   18.2721  -14.7887  -16.8008 C   0  0  2  0  0  0  0  0  0  0  0  0
   18.0390  -15.5464  -17.9974 N   0  0  0  0  0  0  0  0  0  0  0  0
   18.9683  -13.5396  -17.1615 C   0  0  0  0  0  0  0  0  0  0  0  0
   19.8668  -13.5170  -18.0659 O   0  0  0  0  0  0  0  0  0  0  0  0
   17.1933  -10.4160  -17.9983 C   0  0  0  0  0  0  0  0  0  0  0  0
   18.1899  -10.0152  -16.9224 C   0  0  1  0  0  0  0  0  0  0  0  0
   17.5255   -9.8776  -15.7116 O   0  0  0  0  0  0  0  0  0  0  0  0
   19.2352  -11.1127  -16.8751 C   0  0  2  0  0  0  0  0  0  0  0  0
   18.6253  -12.3515  -16.4859 N   0  0  0  0  0  0  0  0  0  0  0  0
   20.3426  -10.7668  -15.9435 C   0  0  0  0  0  0  0  0  0  0  0  0
   20.4019  -11.3570  -14.8380 O   0  0  0  0  0  0  0  0  0  0  0  0
   25.5690   -8.6598  -15.2166 C   0  0  0  0  0  0  0  0  0  0  0  0
   24.8998   -9.9602  -14.9781 C   0  0  2  0  0  0  0  0  0  0  0  0
   25.8967  -11.0863  -15.3143 C   0  0  0  0  0  0  0  0  0  0  0  0
   23.6665  -10.2572  -15.7377 C   0  0  0  0  0  0  0  0  0  0  0  0
   22.4430   -9.4777  -15.4384 C   0  0  2  0  0  0  0  0  0  0  0  0
   21.3335   -9.7881  -16.2700 N   0  0  0  0  0  0  0  0  0  0  0  0
   22.7935   -8.0344  -15.4327 C   0  0  0  0  0  0  0  0  0  0  0  0
   23.2142   -7.5002  -14.2229 O   0  0  0  0  0  0  0  0  0  0  0  0
   22.7344   -7.2922  -16.4234 O   0  0  0  0  0  0  0  0  0  0  0  0
  2  1  1  1
  3  2  1  0
  4  2  1  0
  4  5  2  0
  7  6  1  6
  7  9  1  0
  8  7  1  0
  9 10  1  1
 10  4  1  0
 11  9  1  0
 12 11  2  0
 14 13  1  6
 14 15  1  0
 16 14  1  0
 17 18  1  0
 17 16  1  6
 18 11  1  0
 19 17  1  0
 20 19  1  0
 21 19  2  0
M  END
$$$$
