ATL.pdb
     RDKit          3D

 21 20  0  0  1  0  0  0  0  0999 V2000
   15.2733  -12.1076  -14.9058 C   0  0  0  0  0  0  0  0  0  0  0  0
   15.4541  -11.9274  -16.3962 C   0  0  2  0  0  0  0  0  0  0  0  0
   15.1931  -13.1284  -17.1378 N   0  0  0  0  0  0  0  0  0  0  0  0
   16.8303  -11.4836  -16.6863 C   0  0  0  0  0  0  0  0  0  0  0  0
   17.8157  -12.2905  -16.6241 O   0  0  0  0  0  0  0  0  0  0  0  0
   18.1206  -10.1006  -19.7602 C   0  0  0  0  0  0  0  0  0  0  0  0
   18.3620   -9.0119  -18.7269 C   0  0  1  0  0  0  0  0  0  0  0  0
   17.3542   -8.0619  -18.8190 O   0  0  0  0  0  0  0  0  0  0  0  0
   18.3736   -9.6981  -17.3748 C   0  0  2  0  0  0  0  0  0  0  0  0
   17.0497  -10.1370  -17.0386 N   0  0  0  0  0  0  0  0  0  0  0  0
   18.9046   -8.7989  -16.3149 C   0  0  0  0  0  0  0  0  0  0  0  0
   18.0953   -8.0896  -15.6701 O   0  0  0  0  0  0  0  0  0  0  0  0
   23.1645  -10.1545  -13.1887 C   0  0  0  0  0  0  0  0  0  0  0  0
   22.2108   -9.0235  -13.2730 C   0  0  2  0  0  0  0  0  0  0  0  0
   20.7870   -9.5745  -13.0633 C   0  0  0  0  0  0  0  0  0  0  0  0
   22.1718   -8.2386  -14.5254 C   0  0  0  0  0  0  0  0  0  0  0  0
   20.8554   -7.8225  -15.0621 C   0  0  2  0  0  0  0  0  0  0  0  0
   20.3007   -8.7210  -16.0129 N   0  0  0  0  0  0  0  0  0  0  0  0
   20.9694   -6.4281  -15.5611 C   0  0  0  0  0  0  0  0  0  0  0  0
   21.0534   -5.4283  -14.6023 O   0  0  0  0  0  0  0  0  0  0  0  0
   20.9936   -6.1092  -16.7583 O   0  0  0  0  0  0  0  0  0  0  0  0
  2  1  1  1
  3  2  1  0
  4  2  1  0
  4  5  2  0
  7  6  1  6
  7  9  1  0
  8  7  1  0
  9 10  1  1
 10  4  1  0
 11  9  1  0
 12 11  2  0
 14 13  1  6
 14 15  1  0
 16 14  1  0
 17 18  1  0
 17 16  1  6
 18 11  1  0
 19 17  1  0
 20 19  1  0
 21 19  2  0
M  END
$$$$
