GNW.pdb
     RDKit          3D

 27 28  0  0  1  0  0  0  0  0999 V2000
   29.3431  -22.3741  -16.8602 N   0  0  0  0  0  0  0  0  0  0  0  0
   28.4875  -22.9810  -15.8560 C   0  0  0  0  0  0  0  0  0  0  0  0
   27.5072  -21.9686  -15.3251 C   0  0  0  0  0  0  0  0  0  0  0  0
   27.9424  -20.8542  -14.9452 O   0  0  0  0  0  0  0  0  0  0  0  0
   25.4298  -20.0128  -17.0687 N   0  0  0  0  0  0  0  0  0  0  0  0
   24.1754  -20.6315  -16.7937 C   0  0  0  0  0  0  0  0  0  0  0  0
   23.3057  -20.5350  -17.6942 O   0  0  0  0  0  0  0  0  0  0  0  0
   23.9592  -21.3348  -15.5075 C   0  0  0  0  0  0  0  0  0  0  0  0
   25.2067  -21.3960  -14.6601 C   0  0  2  0  0  0  0  0  0  0  0  0
   26.1365  -22.3234  -15.2795 N   0  0  0  0  0  0  0  0  0  0  0  0
   24.8837  -21.8151  -13.2664 C   0  0  0  0  0  0  0  0  0  0  0  0
   24.6256  -23.0239  -13.0482 O   0  0  0  0  0  0  0  0  0  0  0  0
   24.8892  -20.8094  -12.2666 N   0  0  0  0  0  0  0  0  0  0  0  0
   24.5590  -21.1451  -10.9024 C   0  0  1  0  0  0  0  0  0  0  0  0
   25.2463  -20.0867  -10.0394 C   0  0  0  0  0  0  0  0  0  0  0  0
   26.6453  -20.5231   -9.8162 C   0  0  0  0  0  0  0  0  0  0  0  0
   27.4639  -21.2927  -10.6284 C   0  0  0  0  0  0  0  0  0  0  0  0
   28.6579  -21.4437  -10.0324 N   0  0  0  0  0  0  0  0  0  0  0  0
   28.6106  -20.7900   -8.8689 C   0  0  0  0  0  0  0  0  0  0  0  0
   29.5575  -20.6226   -7.8695 C   0  0  0  0  0  0  0  0  0  0  0  0
   29.2791  -19.8949   -6.7390 C   0  0  0  0  0  0  0  0  0  0  0  0
   28.0482  -19.3039   -6.5555 C   0  0  0  0  0  0  0  0  0  0  0  0
   27.1004  -19.4700   -7.5531 C   0  0  0  0  0  0  0  0  0  0  0  0
   27.3840  -20.1971   -8.6785 C   0  0  0  0  0  0  0  0  0  0  0  0
   23.0947  -21.0972  -10.6905 C   0  0  0  0  0  0  0  0  0  0  0  0
   22.3171  -20.6211  -11.5445 O   0  0  0  0  0  0  0  0  0  0  0  0
   22.5747  -21.5941   -9.5133 O   0  0  0  0  0  0  0  0  0  0  0  0
  1  2  1  0
  2  3  1  0
  3 10  1  0
  3  4  2  0
  6  8  1  0
  6  5  1  0
  7  6  2  0
  9  8  1  6
 10  9  1  0
 11  9  1  0
 11 13  1  0
 12 11  2  0
 14 13  1  0
 14 15  1  1
 14 25  1  0
 16 15  1  0
 16 17  2  0
 18 17  1  0
 19 24  2  0
 19 18  1  0
 20 19  1  0
 21 22  1  0
 21 20  2  0
 22 23  2  0
 23 24  1  0
 24 16  1  0
 25 27  1  0
 26 25  2  0
M  END
$$$$
