GNW.pdb
     RDKit          3D

 27 28  0  0  1  0  0  0  0  0999 V2000
   29.5663  -21.4712  -18.5485 N   0  0  0  0  0  0  0  0  0  0  0  0
   28.5031  -22.1524  -17.8313 C   0  0  0  0  0  0  0  0  0  0  0  0
   28.3495  -21.5710  -16.4507 C   0  0  0  0  0  0  0  0  0  0  0  0
   29.0905  -22.0006  -15.5330 O   0  0  0  0  0  0  0  0  0  0  0  0
   27.5821  -16.9158  -16.7983 N   0  0  0  0  0  0  0  0  0  0  0  0
   27.8973  -17.7516  -15.6874 C   0  0  0  0  0  0  0  0  0  0  0  0
   29.0973  -17.7456  -15.3180 O   0  0  0  0  0  0  0  0  0  0  0  0
   26.8373  -18.5604  -15.0409 C   0  0  0  0  0  0  0  0  0  0  0  0
   27.2100  -20.0177  -14.9174 C   0  0  2  0  0  0  0  0  0  0  0  0
   27.3732  -20.5639  -16.2528 N   0  0  0  0  0  0  0  0  0  0  0  0
   26.1722  -20.7700  -14.1562 C   0  0  0  0  0  0  0  0  0  0  0  0
   25.1707  -21.2040  -14.7759 O   0  0  0  0  0  0  0  0  0  0  0  0
   26.3866  -20.9485  -12.7658 N   0  0  0  0  0  0  0  0  0  0  0  0
   25.4172  -21.6638  -11.9712 C   0  0  1  0  0  0  0  0  0  0  0  0
   26.1859  -22.1918  -10.7597 C   0  0  0  0  0  0  0  0  0  0  0  0
   26.3082  -21.0834   -9.7829 C   0  0  0  0  0  0  0  0  0  0  0  0
   25.4046  -20.0758   -9.4825 C   0  0  0  0  0  0  0  0  0  0  0  0
   25.9284  -19.2845   -8.5320 N   0  0  0  0  0  0  0  0  0  0  0  0
   27.1355  -19.7683   -8.2282 C   0  0  0  0  0  0  0  0  0  0  0  0
   28.0955  -19.3415   -7.3230 C   0  0  0  0  0  0  0  0  0  0  0  0
   29.2863  -20.0096   -7.1795 C   0  0  0  0  0  0  0  0  0  0  0  0
   29.5716  -21.1293   -7.9298 C   0  0  0  0  0  0  0  0  0  0  0  0
   28.6134  -21.5576   -8.8350 C   0  0  0  0  0  0  0  0  0  0  0  0
   27.4275  -20.8870   -8.9737 C   0  0  0  0  0  0  0  0  0  0  0  0
   24.3332  -20.7590  -11.5271 C   0  0  0  0  0  0  0  0  0  0  0  0
   24.4737  -19.5178  -11.5050 O   0  0  0  0  0  0  0  0  0  0  0  0
   23.1315  -21.3048  -11.1257 O   0  0  0  0  0  0  0  0  0  0  0  0
  1  2  1  0
  2  3  1  0
  3 10  1  0
  3  4  2  0
  6  8  1  0
  6  5  1  0
  7  6  2  0
  9  8  1  6
 10  9  1  0
 11  9  1  0
 11 13  1  0
 12 11  2  0
 14 13  1  0
 14 15  1  1
 14 25  1  0
 16 15  1  0
 16 17  2  0
 18 17  1  0
 19 24  2  0
 19 18  1  0
 20 19  1  0
 21 22  1  0
 21 20  2  0
 22 23  2  0
 23 24  1  0
 24 16  1  0
 25 27  1  0
 26 25  2  0
M  END
$$$$
