GNW.pdb
     RDKit          3D

 27 28  0  0  1  0  0  0  0  0999 V2000
   27.6129  -27.1740  -16.3465 N   0  0  0  0  0  0  0  0  0  0  0  0
   26.3674  -26.5841  -16.8044 C   0  0  0  0  0  0  0  0  0  0  0  0
   25.5261  -26.1636  -15.6283 C   0  0  0  0  0  0  0  0  0  0  0  0
   26.0286  -26.2229  -14.4795 O   0  0  0  0  0  0  0  0  0  0  0  0
   24.3696  -22.3354  -14.2252 N   0  0  0  0  0  0  0  0  0  0  0  0
   23.6434  -22.8615  -15.3333 C   0  0  0  0  0  0  0  0  0  0  0  0
   23.8554  -22.3100  -16.4412 O   0  0  0  0  0  0  0  0  0  0  0  0
   22.7060  -23.9924  -15.1386 C   0  0  0  0  0  0  0  0  0  0  0  0
   23.4076  -25.2701  -14.7474 C   0  0  2  0  0  0  0  0  0  0  0  0
   24.2037  -25.7198  -15.8753 N   0  0  0  0  0  0  0  0  0  0  0  0
   22.4247  -26.3136  -14.3381 C   0  0  0  0  0  0  0  0  0  0  0  0
   21.6463  -26.7777  -15.2063 O   0  0  0  0  0  0  0  0  0  0  0  0
   22.4335  -26.7184  -12.9790 N   0  0  0  0  0  0  0  0  0  0  0  0
   21.4787  -27.6935  -12.5094 C   0  0  1  0  0  0  0  0  0  0  0  0
   21.8224  -27.9323  -11.0391 C   0  0  0  0  0  0  0  0  0  0  0  0
   20.9360  -29.0086  -10.5359 C   0  0  0  0  0  0  0  0  0  0  0  0
   21.0141  -30.3772  -10.7426 C   0  0  0  0  0  0  0  0  0  0  0  0
   20.0010  -30.9780  -10.0973 N   0  0  0  0  0  0  0  0  0  0  0  0
   19.2897  -30.0237   -9.4916 C   0  0  0  0  0  0  0  0  0  0  0  0
   18.1528  -30.0873   -8.6999 C   0  0  0  0  0  0  0  0  0  0  0  0
   17.5855  -28.9524   -8.1754 C   0  0  0  0  0  0  0  0  0  0  0  0
   18.1249  -27.7078   -8.4164 C   0  0  0  0  0  0  0  0  0  0  0  0
   19.2611  -27.6420   -9.2074 C   0  0  0  0  0  0  0  0  0  0  0  0
   19.8225  -28.7776   -9.7278 C   0  0  0  0  0  0  0  0  0  0  0  0
   20.0977  -27.1739  -12.6279 C   0  0  0  0  0  0  0  0  0  0  0  0
   19.1432  -27.9025  -12.9726 O   0  0  0  0  0  0  0  0  0  0  0  0
   19.8592  -25.8441  -12.3487 O   0  0  0  0  0  0  0  0  0  0  0  0
  1  2  1  0
  2  3  1  0
  3 10  1  0
  3  4  2  0
  6  8  1  0
  6  5  1  0
  7  6  2  0
  9  8  1  6
 10  9  1  0
 11  9  1  0
 11 13  1  0
 12 11  2  0
 14 13  1  0
 14 15  1  1
 14 25  1  0
 16 15  1  0
 16 17  2  0
 18 17  1  0
 19 24  2  0
 19 18  1  0
 20 19  1  0
 21 22  1  0
 21 20  2  0
 22 23  2  0
 23 24  1  0
 24 16  1  0
 25 27  1  0
 26 25  2  0
M  END
$$$$
