GNW.pdb
     RDKit          3D

 27 28  0  0  1  0  0  0  0  0999 V2000
   28.4571  -22.1042  -17.3803 N   0  0  0  0  0  0  0  0  0  0  0  0
   29.1402  -22.0185  -16.1016 C   0  0  0  0  0  0  0  0  0  0  0  0
   28.4314  -21.0466  -15.1957 C   0  0  0  0  0  0  0  0  0  0  0  0
   28.6920  -19.8237  -15.3067 O   0  0  0  0  0  0  0  0  0  0  0  0
   25.3735  -19.2129  -16.2691 N   0  0  0  0  0  0  0  0  0  0  0  0
   25.5280  -19.0874  -14.8576 C   0  0  0  0  0  0  0  0  0  0  0  0
   25.7013  -17.9215  -14.4251 O   0  0  0  0  0  0  0  0  0  0  0  0
   25.4796  -20.2908  -13.9944 C   0  0  0  0  0  0  0  0  0  0  0  0
   26.8189  -20.6241  -13.3836 C   0  0  2  0  0  0  0  0  0  0  0  0
   27.5015  -21.5604  -14.2587 N   0  0  0  0  0  0  0  0  0  0  0  0
   26.6535  -21.1948  -12.0164 C   0  0  0  0  0  0  0  0  0  0  0  0
   27.3060  -22.2231  -11.7128 O   0  0  0  0  0  0  0  0  0  0  0  0
   25.7595  -20.5313  -11.1380 N   0  0  0  0  0  0  0  0  0  0  0  0
   25.6555  -20.9504   -9.7609 C   0  0  1  0  0  0  0  0  0  0  0  0
   26.9700  -20.5320   -9.1020 C   0  0  0  0  0  0  0  0  0  0  0  0
   26.7768  -20.5835   -7.6332 C   0  0  0  0  0  0  0  0  0  0  0  0
   25.7209  -21.1107   -6.9057 C   0  0  0  0  0  0  0  0  0  0  0  0
   25.9618  -20.9412   -5.5953 N   0  0  0  0  0  0  0  0  0  0  0  0
   27.1396  -20.3221   -5.4811 C   0  0  0  0  0  0  0  0  0  0  0  0
   27.8572  -19.9100   -4.3683 C   0  0  0  0  0  0  0  0  0  0  0  0
   29.0705  -19.2803   -4.4961 C   0  0  0  0  0  0  0  0  0  0  0  0
   29.6203  -19.0346   -5.7353 C   0  0  0  0  0  0  0  0  0  0  0  0
   28.9047  -19.4457   -6.8488 C   0  0  0  0  0  0  0  0  0  0  0  0
   27.6948  -20.0733   -6.7149 C   0  0  0  0  0  0  0  0  0  0  0  0
   24.5185  -20.2780   -9.0929 C   0  0  0  0  0  0  0  0  0  0  0  0
   23.8684  -20.8274   -8.1784 O   0  0  0  0  0  0  0  0  0  0  0  0
   24.1674  -19.0055   -9.4938 O   0  0  0  0  0  0  0  0  0  0  0  0
  1  2  1  0
  2  3  1  0
  3 10  1  0
  3  4  2  0
  6  8  1  0
  6  5  1  0
  7  6  2  0
  9  8  1  6
 10  9  1  0
 11  9  1  0
 11 13  1  0
 12 11  2  0
 14 13  1  0
 14 15  1  1
 14 25  1  0
 16 15  1  0
 16 17  2  0
 18 17  1  0
 19 24  2  0
 19 18  1  0
 20 19  1  0
 21 22  1  0
 21 20  2  0
 22 23  2  0
 23 24  1  0
 24 16  1  0
 25 27  1  0
 26 25  2  0
M  END
$$$$
