GNW.pdb
     RDKit          3D

 27 28  0  0  1  0  0  0  0  0999 V2000
   29.3270  -18.9056  -16.3105 N   0  0  0  0  0  0  0  0  0  0  0  0
   28.6383  -17.6918  -15.9089 C   0  0  0  0  0  0  0  0  0  0  0  0
   27.5106  -18.0196  -14.9661 C   0  0  0  0  0  0  0  0  0  0  0  0
   27.6723  -17.8053  -13.7399 O   0  0  0  0  0  0  0  0  0  0  0  0
   23.6612  -16.1078  -16.3681 N   0  0  0  0  0  0  0  0  0  0  0  0
   23.5255  -16.9935  -15.2595 C   0  0  0  0  0  0  0  0  0  0  0  0
   23.0612  -16.4899  -14.2072 O   0  0  0  0  0  0  0  0  0  0  0  0
   23.9225  -18.4151  -15.3905 C   0  0  0  0  0  0  0  0  0  0  0  0
   25.1815  -18.7414  -14.6248 C   0  0  2  0  0  0  0  0  0  0  0  0
   26.3175  -18.5558  -15.5098 N   0  0  0  0  0  0  0  0  0  0  0  0
   25.1379  -20.1352  -14.0974 C   0  0  0  0  0  0  0  0  0  0  0  0
   25.5714  -21.0642  -14.8215 O   0  0  0  0  0  0  0  0  0  0  0  0
   24.6034  -20.3226  -12.7973 N   0  0  0  0  0  0  0  0  0  0  0  0
   24.5413  -21.6463  -12.2257 C   0  0  1  0  0  0  0  0  0  0  0  0
   24.5767  -21.4433  -10.7108 C   0  0  0  0  0  0  0  0  0  0  0  0
   25.7404  -20.5805  -10.3967 C   0  0  0  0  0  0  0  0  0  0  0  0
   25.7660  -19.3129   -9.8359 C   0  0  0  0  0  0  0  0  0  0  0  0
   27.0411  -18.9047   -9.7296 N   0  0  0  0  0  0  0  0  0  0  0  0
   27.8158  -19.8814  -10.2084 C   0  0  0  0  0  0  0  0  0  0  0  0
   29.1930  -19.9838  -10.3347 C   0  0  0  0  0  0  0  0  0  0  0  0
   29.7781  -21.1060  -10.8670 C   0  0  0  0  0  0  0  0  0  0  0  0
   29.0183  -22.1724  -11.2954 C   0  0  0  0  0  0  0  0  0  0  0  0
   27.6416  -22.0721  -11.1700 C   0  0  0  0  0  0  0  0  0  0  0  0
   27.0637  -20.9501  -10.6383 C   0  0  0  0  0  0  0  0  0  0  0  0
   23.2860  -22.3272  -12.6154 C   0  0  0  0  0  0  0  0  0  0  0  0
   22.3413  -21.7153  -13.1576 O   0  0  0  0  0  0  0  0  0  0  0  0
   23.1571  -23.6789  -12.3715 O   0  0  0  0  0  0  0  0  0  0  0  0
  1  2  1  0
  2  3  1  0
  3 10  1  0
  3  4  2  0
  6  8  1  0
  6  5  1  0
  7  6  2  0
  9  8  1  6
 10  9  1  0
 11  9  1  0
 11 13  1  0
 12 11  2  0
 14 13  1  0
 14 15  1  1
 14 25  1  0
 16 15  1  0
 16 17  2  0
 18 17  1  0
 19 24  2  0
 19 18  1  0
 20 19  1  0
 21 22  1  0
 21 20  2  0
 22 23  2  0
 23 24  1  0
 24 16  1  0
 25 27  1  0
 26 25  2  0
M  END
$$$$
