GNW.pdb
     RDKit          3D

 27 28  0  0  1  0  0  0  0  0999 V2000
   26.7094  -16.3434  -14.8167 N   0  0  0  0  0  0  0  0  0  0  0  0
   27.1561  -17.0355  -13.6207 C   0  0  0  0  0  0  0  0  0  0  0  0
   26.6797  -18.4639  -13.6362 C   0  0  0  0  0  0  0  0  0  0  0  0
   25.5263  -18.7071  -14.0679 O   0  0  0  0  0  0  0  0  0  0  0  0
   27.9126  -20.1453  -15.5607 N   0  0  0  0  0  0  0  0  0  0  0  0
   28.3457  -21.3975  -15.0349 C   0  0  0  0  0  0  0  0  0  0  0  0
   29.0141  -22.1196  -15.8148 O   0  0  0  0  0  0  0  0  0  0  0  0
   28.0025  -21.7789  -13.6448 C   0  0  0  0  0  0  0  0  0  0  0  0
   27.0395  -20.8143  -12.9968 C   0  0  2  0  0  0  0  0  0  0  0  0
   27.5586  -19.4683  -13.1613 N   0  0  0  0  0  0  0  0  0  0  0  0
   26.8488  -21.1403  -11.5546 C   0  0  0  0  0  0  0  0  0  0  0  0
   27.7104  -21.8504  -10.9813 O   0  0  0  0  0  0  0  0  0  0  0  0
   25.6933  -20.6209  -10.9173 N   0  0  0  0  0  0  0  0  0  0  0  0
   25.3647  -21.0293   -9.5726 C   0  0  1  0  0  0  0  0  0  0  0  0
   25.9296  -19.9397   -8.6611 C   0  0  0  0  0  0  0  0  0  0  0  0
   27.2744  -20.3752   -8.2144 C   0  0  0  0  0  0  0  0  0  0  0  0
   28.2277  -21.1155   -8.8964 C   0  0  0  0  0  0  0  0  0  0  0  0
   29.3039  -21.2780   -8.1095 N   0  0  0  0  0  0  0  0  0  0  0  0
   29.0516  -20.6599   -6.9529 C   0  0  0  0  0  0  0  0  0  0  0  0
   29.8120  -20.5176   -5.8019 C   0  0  0  0  0  0  0  0  0  0  0  0
   29.3370  -19.8259   -4.7152 C   0  0  0  0  0  0  0  0  0  0  0  0
   28.0867  -19.2472   -4.7281 C   0  0  0  0  0  0  0  0  0  0  0  0
   27.3251  -19.3883   -5.8775 C   0  0  0  0  0  0  0  0  0  0  0  0
   27.8044  -20.0795   -6.9583 C   0  0  0  0  0  0  0  0  0  0  0  0
   23.8980  -21.1248   -9.3976 C   0  0  0  0  0  0  0  0  0  0  0  0
   23.3827  -21.5256   -8.3324 O   0  0  0  0  0  0  0  0  0  0  0  0
   23.0763  -20.7594  -10.4438 O   0  0  0  0  0  0  0  0  0  0  0  0
  1  2  1  0
  2  3  1  0
  3 10  1  0
  3  4  2  0
  6  8  1  0
  6  5  1  0
  7  6  2  0
  9  8  1  1
 10  9  1  0
 11  9  1  0
 11 13  1  0
 12 11  2  0
 14 13  1  0
 14 15  1  1
 14 25  1  0
 16 15  1  0
 16 17  2  0
 18 17  1  0
 19 24  2  0
 19 18  1  0
 20 19  1  0
 21 22  1  0
 21 20  2  0
 22 23  2  0
 23 24  1  0
 24 16  1  0
 25 27  1  0
 26 25  2  0
M  END
$$$$
