GNW.pdb
     RDKit          3D

 27 28  0  0  1  0  0  0  0  0999 V2000
   24.1885  -17.6206  -17.1857 N   0  0  0  0  0  0  0  0  0  0  0  0
   24.5074  -18.0830  -15.8465 C   0  0  0  0  0  0  0  0  0  0  0  0
   25.0830  -19.4736  -15.8982 C   0  0  0  0  0  0  0  0  0  0  0  0
   24.3134  -20.4325  -16.1509 O   0  0  0  0  0  0  0  0  0  0  0  0
   27.6026  -20.2087  -18.3049 N   0  0  0  0  0  0  0  0  0  0  0  0
   28.7117  -20.4970  -17.4572 C   0  0  0  0  0  0  0  0  0  0  0  0
   29.8466  -20.4036  -17.9860 O   0  0  0  0  0  0  0  0  0  0  0  0
   28.4873  -20.8796  -16.0434 C   0  0  0  0  0  0  0  0  0  0  0  0
   27.0228  -20.9759  -15.6913 C   0  0  2  0  0  0  0  0  0  0  0  0
   26.4700  -19.6337  -15.6584 N   0  0  0  0  0  0  0  0  0  0  0  0
   26.8340  -21.6631  -14.3818 C   0  0  0  0  0  0  0  0  0  0  0  0
   27.0308  -22.9012  -14.3204 O   0  0  0  0  0  0  0  0  0  0  0  0
   26.4399  -20.8642  -13.2784 N   0  0  0  0  0  0  0  0  0  0  0  0
   26.0135  -21.4893  -12.0495 C   0  0  1  0  0  0  0  0  0  0  0  0
   27.1886  -21.3423  -11.0827 C   0  0  0  0  0  0  0  0  0  0  0  0
   26.6531  -20.8512   -9.7906 C   0  0  0  0  0  0  0  0  0  0  0  0
   25.3652  -20.4500   -9.4709 C   0  0  0  0  0  0  0  0  0  0  0  0
   25.3274  -20.0802   -8.1803 N   0  0  0  0  0  0  0  0  0  0  0  0
   26.5562  -20.2384   -7.6819 C   0  0  0  0  0  0  0  0  0  0  0  0
   27.0708  -20.0088   -6.4148 C   0  0  0  0  0  0  0  0  0  0  0  0
   28.3919  -20.2484   -6.1281 C   0  0  0  0  0  0  0  0  0  0  0  0
   29.2557  -20.7262   -7.0892 C   0  0  0  0  0  0  0  0  0  0  0  0
   28.7435  -20.9565   -8.3563 C   0  0  0  0  0  0  0  0  0  0  0  0
   27.4247  -20.7154   -8.6363 C   0  0  0  0  0  0  0  0  0  0  0  0
   24.8195  -20.8074  -11.5015 C   0  0  0  0  0  0  0  0  0  0  0  0
   24.4761  -19.6672  -11.8792 O   0  0  0  0  0  0  0  0  0  0  0  0
   24.0638  -21.4524  -10.5442 O   0  0  0  0  0  0  0  0  0  0  0  0
  1  2  1  0
  2  3  1  0
  3 10  1  0
  3  4  2  0
  6  8  1  0
  6  5  1  0
  7  6  2  0
  9  8  1  1
 10  9  1  0
 11  9  1  0
 11 13  1  0
 12 11  2  0
 14 13  1  0
 14 15  1  1
 14 25  1  0
 16 15  1  0
 16 17  2  0
 18 17  1  0
 19 24  2  0
 19 18  1  0
 20 19  1  0
 21 22  1  0
 21 20  2  0
 22 23  2  0
 23 24  1  0
 24 16  1  0
 25 27  1  0
 26 25  2  0
M  END
$$$$
