GNW.pdb
     RDKit          3D

 27 28  0  0  1  0  0  0  0  0999 V2000
   26.9445  -22.4002  -16.9896 N   0  0  0  0  0  0  0  0  0  0  0  0
   28.2698  -22.3265  -16.4006 C   0  0  0  0  0  0  0  0  0  0  0  0
   28.2411  -21.4789  -15.1562 C   0  0  0  0  0  0  0  0  0  0  0  0
   29.3260  -21.2252  -14.5780 O   0  0  0  0  0  0  0  0  0  0  0  0
   27.8998  -17.1767  -14.5448 N   0  0  0  0  0  0  0  0  0  0  0  0
   26.8497  -18.0674  -14.9135 C   0  0  0  0  0  0  0  0  0  0  0  0
   26.5517  -18.0909  -16.1330 O   0  0  0  0  0  0  0  0  0  0  0  0
   26.1807  -18.8955  -13.8828 C   0  0  0  0  0  0  0  0  0  0  0  0
   26.9647  -20.1370  -13.5337 C   0  0  2  0  0  0  0  0  0  0  0  0
   26.9872  -21.0069  -14.6960 N   0  0  0  0  0  0  0  0  0  0  0  0
   26.3660  -20.8320  -12.3585 C   0  0  0  0  0  0  0  0  0  0  0  0
   25.3423  -21.5361  -12.5357 O   0  0  0  0  0  0  0  0  0  0  0  0
   26.9994  -20.6501  -11.1028 N   0  0  0  0  0  0  0  0  0  0  0  0
   26.4764  -21.3055   -9.9281 C   0  0  1  0  0  0  0  0  0  0  0  0
   27.6623  -21.4507   -8.9744 C   0  0  0  0  0  0  0  0  0  0  0  0
   27.5589  -20.3780   -7.9565 C   0  0  0  0  0  0  0  0  0  0  0  0
   26.8771  -19.1725   -8.0193 C   0  0  0  0  0  0  0  0  0  0  0  0
   27.0558  -18.5057   -6.8673 N   0  0  0  0  0  0  0  0  0  0  0  0
   27.8309  -19.2599   -6.0838 C   0  0  0  0  0  0  0  0  0  0  0  0
   28.3198  -19.0539   -4.8025 C   0  0  0  0  0  0  0  0  0  0  0  0
   29.1145  -19.9874   -4.1845 C   0  0  0  0  0  0  0  0  0  0  0  0
   29.4559  -21.1640   -4.8149 C   0  0  0  0  0  0  0  0  0  0  0  0
   28.9684  -21.3718   -6.0956 C   0  0  0  0  0  0  0  0  0  0  0  0
   28.1761  -20.4368   -6.7068 C   0  0  0  0  0  0  0  0  0  0  0  0
   25.4181  -20.4848   -9.2976 C   0  0  0  0  0  0  0  0  0  0  0  0
   25.2570  -19.2791   -9.5822 O   0  0  0  0  0  0  0  0  0  0  0  0
   24.5850  -21.0711   -8.3672 O   0  0  0  0  0  0  0  0  0  0  0  0
  1  2  1  0
  2  3  1  0
  3 10  1  0
  3  4  2  0
  6  8  1  0
  6  5  1  0
  7  6  2  0
  9  8  1  6
 10  9  1  0
 11  9  1  0
 11 13  1  0
 12 11  2  0
 14 13  1  0
 14 15  1  1
 14 25  1  0
 16 15  1  0
 16 17  2  0
 18 17  1  0
 19 24  2  0
 19 18  1  0
 20 19  1  0
 21 22  1  0
 21 20  2  0
 22 23  2  0
 23 24  1  0
 24 16  1  0
 25 27  1  0
 26 25  2  0
M  END
$$$$
