PEC.pdb
     RDKit          3D

 23 23  0  0  1  0  0  0  0  0999 V2000
    9.1077  -14.8343   18.9429 N   0  0  0  0  0  0  0  0  0  0  0  0
    8.7079  -14.4747   17.5823 C   0  0  0  0  0  0  0  0  0  0  0  0
    7.8279  -13.2671   17.7206 C   0  0  0  0  0  0  0  0  0  0  0  0
    7.1802  -13.5309   19.0889 C   0  0  0  0  0  0  0  0  0  0  0  0
    8.4555  -13.9243   19.8168 C   0  0  1  0  0  0  0  0  0  0  0  0
    8.2635  -14.3373   21.2053 C   0  0  0  0  0  0  0  0  0  0  0  0
    7.6131  -13.6344   22.0332 O   0  0  0  0  0  0  0  0  0  0  0  0
    8.8037  -15.5537   21.6896 N   0  0  0  0  0  0  0  0  0  0  0  0
    8.8014  -16.0446   23.0187 C   0  0  1  0  0  0  0  0  0  0  0  0
    9.5996  -17.2971   23.3022 C   0  0  0  0  0  0  0  0  0  0  0  0
    9.5076  -17.7569   24.7341 C   0  0  0  0  0  0  0  0  0  0  0  0
   10.3818  -18.9362   24.9656 C   0  0  0  0  0  0  0  0  0  0  0  0
   10.4550  -19.4162   26.1064 O   0  0  0  0  0  0  0  0  0  0  0  0
    8.8494  -15.0400   24.0908 C   0  0  0  0  0  0  0  0  0  0  0  0
    9.9075  -14.3324   24.2144 O   0  0  0  0  0  0  0  0  0  0  0  0
   11.1028  -19.4950   23.9395 O   0  0  0  0  0  0  0  0  0  0  0  0
    7.7804  -14.8185   24.9930 N   0  0  0  0  0  0  0  0  0  0  0  0
    7.8136  -13.7142   25.9164 C   0  0  1  0  0  0  0  0  0  0  0  0
    6.4270  -13.1231   26.1008 C   0  0  0  0  0  0  0  0  0  0  0  0
    6.6000  -11.6998   27.2436 S   0  0  0  0  0  0  0  0  0  0  0  0
    8.4021  -14.1704   27.1894 C   0  0  0  0  0  0  0  0  0  0  0  0
    8.6427  -15.5165   27.3844 O   0  0  0  0  0  0  0  0  0  0  0  0
    8.7031  -13.3811   28.1270 O   0  0  0  0  0  0  0  0  0  0  0  0
  1  2  1  0
  2  3  1  0
  4  3  1  0
  5  4  1  0
  5  1  1  0
  6  7  2  0
  5  6  1  1
  8  6  1  0
  9 14  1  0
  9  8  1  0
  9 10  1  6
 11 12  1  0
 11 10  1  0
 12 13  2  0
 14 17  1  0
 15 14  2  0
 16 12  1  0
 17 18  1  0
 18 21  1  0
 18 19  1  1
 19 20  1  0
 21 23  2  0
 21 22  1  0
M  END
$$$$
