PEC.pdb
     RDKit          3D

 23 23  0  0  1  0  0  0  0  0999 V2000
    9.2063  -14.9746   18.9747 N   0  0  0  0  0  0  0  0  0  0  0  0
    8.7854  -14.7012   17.6005 C   0  0  0  0  0  0  0  0  0  0  0  0
    7.8728  -13.5128   17.6813 C   0  0  0  0  0  0  0  0  0  0  0  0
    7.2440  -13.7193   19.0682 C   0  0  0  0  0  0  0  0  0  0  0  0
    8.5357  -14.0367   19.8041 C   0  0  1  0  0  0  0  0  0  0  0  0
    8.3668  -14.3782   21.2148 C   0  0  0  0  0  0  0  0  0  0  0  0
    7.6509  -13.6842   21.9947 O   0  0  0  0  0  0  0  0  0  0  0  0
    9.0047  -15.5114   21.7759 N   0  0  0  0  0  0  0  0  0  0  0  0
    8.9337  -15.9847   23.1096 C   0  0  1  0  0  0  0  0  0  0  0  0
    9.7682  -17.1940   23.4670 C   0  0  0  0  0  0  0  0  0  0  0  0
    9.5821  -17.6530   24.8899 C   0  0  0  0  0  0  0  0  0  0  0  0
   10.4174  -18.8497   25.1707 C   0  0  0  0  0  0  0  0  0  0  0  0
   11.5953  -18.6920   25.5239 O   0  0  0  0  0  0  0  0  0  0  0  0
    8.8608  -14.9653   24.1661 C   0  0  0  0  0  0  0  0  0  0  0  0
    9.9018  -14.2620   24.4057 O   0  0  0  0  0  0  0  0  0  0  0  0
    9.9037  -20.1166   25.0443 O   0  0  0  0  0  0  0  0  0  0  0  0
    7.6934  -14.7249   24.9310 N   0  0  0  0  0  0  0  0  0  0  0  0
    7.6414  -13.6361   25.8719 C   0  0  1  0  0  0  0  0  0  0  0  0
    6.2768  -12.9701   25.8516 C   0  0  0  0  0  0  0  0  0  0  0  0
    6.3308  -11.6030   27.0721 S   0  0  0  0  0  0  0  0  0  0  0  0
    7.9985  -14.1412   27.2108 C   0  0  0  0  0  0  0  0  0  0  0  0
    8.4866  -13.2654   28.1608 O   0  0  0  0  0  0  0  0  0  0  0  0
    7.8791  -15.3536   27.5401 O   0  0  0  0  0  0  0  0  0  0  0  0
  1  2  1  0
  2  3  1  0
  4  3  1  0
  5  4  1  0
  5  1  1  0
  6  7  2  0
  5  6  1  1
  8  6  1  0
  9 14  1  0
  9  8  1  0
  9 10  1  1
 11 12  1  0
 11 10  1  0
 12 13  2  0
 14 17  1  0
 15 14  2  0
 16 12  1  0
 17 18  1  0
 18 21  1  0
 18 19  1  1
 19 20  1  0
 21 23  2  0
 21 22  1  0
M  END
$$$$
