PEC.pdb
     RDKit          3D

 23 23  0  0  1  0  0  0  0  0999 V2000
    8.9865  -14.7115   19.4841 N   0  0  0  0  0  0  0  0  0  0  0  0
    8.4984  -14.4125   18.1377 C   0  0  0  0  0  0  0  0  0  0  0  0
    7.4520  -13.3508   18.3087 C   0  0  0  0  0  0  0  0  0  0  0  0
    6.8907  -13.7119   19.6928 C   0  0  0  0  0  0  0  0  0  0  0  0
    8.2308  -13.9117   20.3820 C   0  0  1  0  0  0  0  0  0  0  0  0
    8.1428  -14.3521   21.7725 C   0  0  0  0  0  0  0  0  0  0  0  0
    7.3792  -13.7887   22.6103 O   0  0  0  0  0  0  0  0  0  0  0  0
    8.9172  -15.4386   22.2476 N   0  0  0  0  0  0  0  0  0  0  0  0
    8.9684  -15.9689   23.5605 C   0  0  1  0  0  0  0  0  0  0  0  0
    9.7665  -17.2357   23.7717 C   0  0  0  0  0  0  0  0  0  0  0  0
    9.6975  -17.7611   25.1821 C   0  0  0  0  0  0  0  0  0  0  0  0
   10.4684  -19.0251   25.3114 C   0  0  0  0  0  0  0  0  0  0  0  0
   11.0387  -19.4869   24.3122 O   0  0  0  0  0  0  0  0  0  0  0  0
    9.0725  -14.9972   24.6586 C   0  0  0  0  0  0  0  0  0  0  0  0
   10.1674  -14.3509   24.7972 O   0  0  0  0  0  0  0  0  0  0  0  0
   10.5551  -19.6811   26.5144 O   0  0  0  0  0  0  0  0  0  0  0  0
    8.0187  -14.7426   25.5699 N   0  0  0  0  0  0  0  0  0  0  0  0
    8.1787  -13.7813   26.6300 C   0  0  1  0  0  0  0  0  0  0  0  0
    6.8322  -13.2343   27.0702 C   0  0  0  0  0  0  0  0  0  0  0  0
    6.0670  -12.4501   25.6002 S   0  0  0  0  0  0  0  0  0  0  0  0
    8.9183  -14.4098   27.7404 C   0  0  0  0  0  0  0  0  0  0  0  0
    9.2620  -13.6533   28.8437 O   0  0  0  0  0  0  0  0  0  0  0  0
    9.2596  -15.6248   27.7355 O   0  0  0  0  0  0  0  0  0  0  0  0
  1  2  1  0
  2  3  1  0
  4  3  1  0
  5  4  1  0
  5  1  1  0
  6  7  2  0
  5  6  1  1
  8  6  1  0
  9 14  1  0
  9  8  1  0
  9 10  1  6
 11 12  1  0
 11 10  1  0
 12 13  2  0
 14 17  1  0
 15 14  2  0
 16 12  1  0
 17 18  1  0
 18 21  1  0
 18 19  1  1
 19 20  1  0
 21 23  2  0
 21 22  1  0
M  END
$$$$
