PEC.pdb
     RDKit          3D

 23 23  0  0  1  0  0  0  0  0999 V2000
    7.6637  -13.6996   21.2314 N   0  0  0  0  0  0  0  0  0  0  0  0
    7.9011  -12.5224   20.3958 C   0  0  0  0  0  0  0  0  0  0  0  0
    7.9889  -13.0321   18.9872 C   0  0  0  0  0  0  0  0  0  0  0  0
    8.5827  -14.4306   19.2173 C   0  0  0  0  0  0  0  0  0  0  0  0
    7.6684  -14.8256   20.3658 C   0  0  1  0  0  0  0  0  0  0  0  0
    7.9563  -16.1318   20.9540 C   0  0  0  0  0  0  0  0  0  0  0  0
    8.1515  -17.1618   20.2445 O   0  0  0  0  0  0  0  0  0  0  0  0
    8.0288  -16.3033   22.3581 N   0  0  0  0  0  0  0  0  0  0  0  0
    9.1658  -16.6148   23.1442 C   0  0  1  0  0  0  0  0  0  0  0  0
   10.3366  -17.2726   22.4493 C   0  0  0  0  0  0  0  0  0  0  0  0
   11.5025  -17.5445   23.3640 C   0  0  0  0  0  0  0  0  0  0  0  0
   12.6324  -18.1492   22.6114 C   0  0  0  0  0  0  0  0  0  0  0  0
   13.2924  -17.4363   21.8412 O   0  0  0  0  0  0  0  0  0  0  0  0
    9.5442  -15.6333   24.1709 C   0  0  0  0  0  0  0  0  0  0  0  0
   10.1968  -14.5948   23.8085 O   0  0  0  0  0  0  0  0  0  0  0  0
   12.9505  -19.4767   22.7583 O   0  0  0  0  0  0  0  0  0  0  0  0
    9.2209  -15.7826   25.5417 N   0  0  0  0  0  0  0  0  0  0  0  0
    9.4562  -14.7111   26.4742 C   0  0  1  0  0  0  0  0  0  0  0  0
    8.1864  -13.9118   26.7094 C   0  0  0  0  0  0  0  0  0  0  0  0
    8.5977  -12.5991   27.9215 S   0  0  0  0  0  0  0  0  0  0  0  0
   10.0039  -15.2730   27.7230 C   0  0  0  0  0  0  0  0  0  0  0  0
   10.5072  -14.4232   28.6885 O   0  0  0  0  0  0  0  0  0  0  0  0
   10.0372  -16.5120   27.9601 O   0  0  0  0  0  0  0  0  0  0  0  0
  1  2  1  0
  2  3  1  0
  4  3  1  0
  5  4  1  0
  5  1  1  0
  6  7  2  0
  5  6  1  1
  8  6  1  0
  9 14  1  0
  9  8  1  0
  9 10  1  6
 11 12  1  0
 11 10  1  0
 12 13  2  0
 14 17  1  0
 15 14  2  0
 16 12  1  0
 17 18  1  0
 18 21  1  0
 18 19  1  1
 19 20  1  0
 21 23  2  0
 21 22  1  0
M  END
$$$$
