PEC.pdb
     RDKit          3D

 23 23  0  0  1  0  0  0  0  0999 V2000
    7.5194  -14.9910   18.8316 N   0  0  0  0  0  0  0  0  0  0  0  0
    7.1186  -13.8788   17.9697 C   0  0  0  0  0  0  0  0  0  0  0  0
    7.8423  -12.6736   18.4946 C   0  0  0  0  0  0  0  0  0  0  0  0
    7.9254  -13.0100   19.9917 C   0  0  0  0  0  0  0  0  0  0  0  0
    8.3784  -14.4515   19.8256 C   0  0  1  0  0  0  0  0  0  0  0  0
    8.5197  -15.1951   21.0756 C   0  0  0  0  0  0  0  0  0  0  0  0
    7.5541  -15.3517   21.8790 O   0  0  0  0  0  0  0  0  0  0  0  0
    9.7566  -15.7772   21.4462 N   0  0  0  0  0  0  0  0  0  0  0  0
   10.1054  -16.3797   22.6803 C   0  0  1  0  0  0  0  0  0  0  0  0
   11.1776  -17.4457   22.6589 C   0  0  0  0  0  0  0  0  0  0  0  0
   11.4015  -18.0995   23.9977 C   0  0  0  0  0  0  0  0  0  0  0  0
   12.4983  -19.0992   23.9187 C   0  0  0  0  0  0  0  0  0  0  0  0
   13.1483  -19.3613   24.9414 O   0  0  0  0  0  0  0  0  0  0  0  0
   10.1538  -15.4952   23.8534 C   0  0  0  0  0  0  0  0  0  0  0  0
   10.7529  -14.3707   23.7430 O   0  0  0  0  0  0  0  0  0  0  0  0
   12.7971  -19.7298   22.7364 O   0  0  0  0  0  0  0  0  0  0  0  0
    9.5691  -15.8287   25.0994 N   0  0  0  0  0  0  0  0  0  0  0  0
    9.5822  -14.8918   26.1927 C   0  0  1  0  0  0  0  0  0  0  0  0
    8.3221  -14.0442   26.1922 C   0  0  0  0  0  0  0  0  0  0  0  0
    8.4407  -12.9089   27.6270 S   0  0  0  0  0  0  0  0  0  0  0  0
    9.7596  -15.6311   27.4564 C   0  0  0  0  0  0  0  0  0  0  0  0
    9.9739  -14.9333   28.6290 O   0  0  0  0  0  0  0  0  0  0  0  0
    9.7250  -16.8908   27.5240 O   0  0  0  0  0  0  0  0  0  0  0  0
  1  2  1  0
  2  3  1  0
  4  3  1  0
  5  4  1  0
  5  1  1  0
  6  7  2  0
  5  6  1  1
  8  6  1  0
  9 14  1  0
  9  8  1  0
  9 10  1  6
 11 12  1  0
 11 10  1  0
 12 13  2  0
 14 17  1  0
 15 14  2  0
 16 12  1  0
 17 18  1  0
 18 21  1  0
 18 19  1  1
 19 20  1  0
 21 23  2  0
 21 22  1  0
M  END
$$$$
