PEC.pdb
     RDKit          3D

 23 23  0  0  1  0  0  0  0  0999 V2000
    9.0600  -14.5721   19.2013 N   0  0  0  0  0  0  0  0  0  0  0  0
    8.3419  -13.9946   18.0650 C   0  0  0  0  0  0  0  0  0  0  0  0
    7.4636  -12.9219   18.6390 C   0  0  0  0  0  0  0  0  0  0  0  0
    7.1610  -13.5027   20.0291 C   0  0  0  0  0  0  0  0  0  0  0  0
    8.5860  -13.9113   20.3656 C   0  0  1  0  0  0  0  0  0  0  0  0
    8.7377  -14.6002   21.6453 C   0  0  0  0  0  0  0  0  0  0  0  0
    8.2311  -14.1524   22.7155 O   0  0  0  0  0  0  0  0  0  0  0  0
    9.4668  -15.8104   21.7442 N   0  0  0  0  0  0  0  0  0  0  0  0
    9.7635  -16.5607   22.9090 C   0  0  1  0  0  0  0  0  0  0  0  0
   10.3760  -17.9302   22.7207 C   0  0  0  0  0  0  0  0  0  0  0  0
   10.3960  -18.7577   23.9796 C   0  0  0  0  0  0  0  0  0  0  0  0
   11.0394  -20.0746   23.7340 C   0  0  0  0  0  0  0  0  0  0  0  0
   11.0443  -20.9203   24.6406 O   0  0  0  0  0  0  0  0  0  0  0  0
   10.2965  -15.8113   24.0558 C   0  0  0  0  0  0  0  0  0  0  0  0
   10.8267  -14.6673   23.8416 O   0  0  0  0  0  0  0  0  0  0  0  0
   11.6230  -20.3626   22.5251 O   0  0  0  0  0  0  0  0  0  0  0  0
   10.2509  -16.2953   25.3860 N   0  0  0  0  0  0  0  0  0  0  0  0
   10.2657  -15.3848   26.5014 C   0  0  1  0  0  0  0  0  0  0  0  0
    9.0618  -14.4601   26.4591 C   0  0  0  0  0  0  0  0  0  0  0  0
    9.1569  -13.3902   27.9451 S   0  0  0  0  0  0  0  0  0  0  0  0
   10.3325  -16.1607   27.7537 C   0  0  0  0  0  0  0  0  0  0  0  0
   11.0241  -15.6501   28.8348 O   0  0  0  0  0  0  0  0  0  0  0  0
    9.7806  -17.2872   27.8922 O   0  0  0  0  0  0  0  0  0  0  0  0
  1  2  1  0
  2  3  1  0
  4  3  1  0
  5  4  1  0
  5  1  1  0
  6  7  2  0
  5  6  1  1
  8  6  1  0
  9 14  1  0
  9  8  1  0
  9 10  1  6
 11 12  1  0
 11 10  1  0
 12 13  2  0
 14 17  1  0
 15 14  2  0
 16 12  1  0
 17 18  1  0
 18 21  1  0
 18 19  1  1
 19 20  1  0
 21 23  2  0
 21 22  1  0
M  END
$$$$
