PEC.pdb
     RDKit          3D

 23 23  0  0  1  0  0  0  0  0999 V2000
    8.9432  -14.8946   19.4839 N   0  0  0  0  0  0  0  0  0  0  0  0
    8.5396  -14.5420   18.1225 C   0  0  0  0  0  0  0  0  0  0  0  0
    7.7022  -13.3036   18.2523 C   0  0  0  0  0  0  0  0  0  0  0  0
    7.0622  -13.5251   19.6317 C   0  0  0  0  0  0  0  0  0  0  0  0
    8.3321  -13.9503   20.3511 C   0  0  1  0  0  0  0  0  0  0  0  0
    8.1428  -14.3359   21.7478 C   0  0  0  0  0  0  0  0  0  0  0  0
    7.3877  -13.6867   22.5293 O   0  0  0  0  0  0  0  0  0  0  0  0
    8.8040  -15.4636   22.2928 N   0  0  0  0  0  0  0  0  0  0  0  0
    8.7028  -15.9877   23.6054 C   0  0  1  0  0  0  0  0  0  0  0  0
    9.2529  -17.3751   23.8480 C   0  0  0  0  0  0  0  0  0  0  0  0
    9.0734  -18.3057   22.6767 C   0  0  0  0  0  0  0  0  0  0  0  0
    9.7307  -19.6129   22.9373 C   0  0  0  0  0  0  0  0  0  0  0  0
   10.9680  -19.6625   22.9992 O   0  0  0  0  0  0  0  0  0  0  0  0
    8.9303  -15.0442   24.7095 C   0  0  0  0  0  0  0  0  0  0  0  0
   10.0909  -14.5215   24.8335 O   0  0  0  0  0  0  0  0  0  0  0  0
    8.9896  -20.7559   23.1088 O   0  0  0  0  0  0  0  0  0  0  0  0
    7.9261  -14.6867   25.6420 N   0  0  0  0  0  0  0  0  0  0  0  0
    8.2061  -13.7558   26.7042 C   0  0  1  0  0  0  0  0  0  0  0  0
    6.9490  -13.0071   27.1109 C   0  0  0  0  0  0  0  0  0  0  0  0
    6.2169  -12.3185   25.5774 S   0  0  0  0  0  0  0  0  0  0  0  0
    8.8142  -14.4842   27.8331 C   0  0  0  0  0  0  0  0  0  0  0  0
    9.2408  -13.7838   28.9445 O   0  0  0  0  0  0  0  0  0  0  0  0
    8.9680  -15.7368   27.8372 O   0  0  0  0  0  0  0  0  0  0  0  0
  1  2  1  0
  2  3  1  0
  4  3  1  0
  5  4  1  0
  5  1  1  0
  6  7  2  0
  5  6  1  1
  8  6  1  0
  9 14  1  0
  9  8  1  0
  9 10  1  6
 11 12  1  0
 11 10  1  0
 12 13  2  0
 14 17  1  0
 15 14  2  0
 16 12  1  0
 17 18  1  0
 18 21  1  0
 18 19  1  1
 19 20  1  0
 21 23  2  0
 21 22  1  0
M  END
$$$$
