PEC.pdb
     RDKit          3D

 23 23  0  0  1  0  0  0  0  0999 V2000
    9.0784  -14.8204   19.0883 N   0  0  0  0  0  0  0  0  0  0  0  0
    8.5928  -14.2758   17.8202 C   0  0  0  0  0  0  0  0  0  0  0  0
    7.9734  -12.9506   18.1550 C   0  0  0  0  0  0  0  0  0  0  0  0
    7.4557  -13.2192   19.5766 C   0  0  0  0  0  0  0  0  0  0  0  0
    8.7139  -13.8928   20.1002 C   0  0  1  0  0  0  0  0  0  0  0  0
    8.6156  -14.3889   21.4711 C   0  0  0  0  0  0  0  0  0  0  0  0
    8.1874  -13.6677   22.4193 O   0  0  0  0  0  0  0  0  0  0  0  0
    9.0005  -15.7113   21.8013 N   0  0  0  0  0  0  0  0  0  0  0  0
    8.8768  -16.3733   23.0480 C   0  0  1  0  0  0  0  0  0  0  0  0
    8.8115  -17.8839   23.0333 C   0  0  0  0  0  0  0  0  0  0  0  0
   10.0509  -18.5334   22.4746 C   0  0  0  0  0  0  0  0  0  0  0  0
    9.7000  -19.7334   21.6711 C   0  0  0  0  0  0  0  0  0  0  0  0
    9.2537  -20.7352   22.2492 O   0  0  0  0  0  0  0  0  0  0  0  0
    9.6421  -15.8109   24.1699 C   0  0  0  0  0  0  0  0  0  0  0  0
   10.8234  -15.3763   23.9432 O   0  0  0  0  0  0  0  0  0  0  0  0
    9.8631  -19.7446   20.3079 O   0  0  0  0  0  0  0  0  0  0  0  0
    9.1341  -15.7274   25.4893 N   0  0  0  0  0  0  0  0  0  0  0  0
    9.8858  -15.0707   26.5271 C   0  0  1  0  0  0  0  0  0  0  0  0
    9.0735  -13.9526   27.1565 C   0  0  0  0  0  0  0  0  0  0  0  0
   10.1299  -13.1826   28.4421 S   0  0  0  0  0  0  0  0  0  0  0  0
   10.3170  -16.0755   27.5167 C   0  0  0  0  0  0  0  0  0  0  0  0
   11.3078  -15.7555   28.4243 O   0  0  0  0  0  0  0  0  0  0  0  0
    9.8189  -17.2334   27.5793 O   0  0  0  0  0  0  0  0  0  0  0  0
  1  2  1  0
  2  3  1  0
  4  3  1  0
  5  4  1  0
  5  1  1  0
  6  7  2  0
  5  6  1  1
  8  6  1  0
  9 14  1  0
  9  8  1  0
  9 10  1  6
 11 12  1  0
 11 10  1  0
 12 13  2  0
 14 17  1  0
 15 14  2  0
 16 12  1  0
 17 18  1  0
 18 21  1  0
 18 19  1  1
 19 20  1  0
 21 23  2  0
 21 22  1  0
M  END
$$$$
