PEC.pdb
     RDKit          3D

 23 23  0  0  1  0  0  0  0  0999 V2000
    8.3623  -15.1603   19.7632 N   0  0  0  0  0  0  0  0  0  0  0  0
    8.0633  -14.5908   18.4492 C   0  0  0  0  0  0  0  0  0  0  0  0
    7.9702  -13.1078   18.6581 C   0  0  0  0  0  0  0  0  0  0  0  0
    7.4365  -13.0469   20.0979 C   0  0  0  0  0  0  0  0  0  0  0  0
    8.3865  -14.0790   20.6838 C   0  0  1  0  0  0  0  0  0  0  0  0
    8.1612  -14.3848   22.0948 C   0  0  0  0  0  0  0  0  0  0  0  0
    8.0601  -13.4783   22.9725 O   0  0  0  0  0  0  0  0  0  0  0  0
    8.0464  -15.7225   22.5456 N   0  0  0  0  0  0  0  0  0  0  0  0
    7.8332  -16.1853   23.8677 C   0  0  1  0  0  0  0  0  0  0  0  0
    7.2497  -17.5698   24.0377 C   0  0  0  0  0  0  0  0  0  0  0  0
    6.2203  -17.9201   22.9948 C   0  0  0  0  0  0  0  0  0  0  0  0
    5.6989  -19.2950   23.2105 C   0  0  0  0  0  0  0  0  0  0  0  0
    6.1103  -19.9493   24.1799 O   0  0  0  0  0  0  0  0  0  0  0  0
    8.8585  -15.8339   24.8608 C   0  0  0  0  0  0  0  0  0  0  0  0
   10.0887  -15.9203   24.5217 O   0  0  0  0  0  0  0  0  0  0  0  0
    4.7751  -19.8436   22.3558 O   0  0  0  0  0  0  0  0  0  0  0  0
    8.5494  -15.4044   26.1744 N   0  0  0  0  0  0  0  0  0  0  0  0
    9.5965  -15.0953   27.1132 C   0  0  1  0  0  0  0  0  0  0  0  0
    9.2068  -13.9163   27.9874 C   0  0  0  0  0  0  0  0  0  0  0  0
   10.6192  -13.5939   29.1112 S   0  0  0  0  0  0  0  0  0  0  0  0
    9.9039  -16.3017   27.9039 C   0  0  0  0  0  0  0  0  0  0  0  0
   11.1980  -16.5227   28.3331 O   0  0  0  0  0  0  0  0  0  0  0  0
    9.0307  -17.1580   28.2150 O   0  0  0  0  0  0  0  0  0  0  0  0
  1  2  1  0
  2  3  1  0
  4  3  1  0
  5  4  1  0
  5  1  1  0
  6  7  2  0
  5  6  1  1
  8  6  1  0
  9 14  1  0
  9  8  1  0
  9 10  1  6
 11 12  1  0
 11 10  1  0
 12 13  2  0
 14 17  1  0
 15 14  2  0
 16 12  1  0
 17 18  1  0
 18 21  1  0
 18 19  1  1
 19 20  1  0
 21 23  2  0
 21 22  1  0
M  END
$$$$
