PEC.pdb
     RDKit          3D

 23 23  0  0  1  0  0  0  0  0999 V2000
    8.8920  -15.2335   19.5016 N   0  0  0  0  0  0  0  0  0  0  0  0
    8.8081  -14.9190   18.0753 C   0  0  0  0  0  0  0  0  0  0  0  0
    8.3015  -13.5087   17.9968 C   0  0  0  0  0  0  0  0  0  0  0  0
    7.4193  -13.4433   19.2533 C   0  0  0  0  0  0  0  0  0  0  0  0
    8.4121  -14.0951   20.2022 C   0  0  1  0  0  0  0  0  0  0  0  0
    7.9160  -14.2953   21.5620 C   0  0  0  0  0  0  0  0  0  0  0  0
    7.4611  -13.3423   22.2601 O   0  0  0  0  0  0  0  0  0  0  0  0
    7.9242  -15.5774   22.1638 N   0  0  0  0  0  0  0  0  0  0  0  0
    7.5849  -15.9211   23.4959 C   0  0  1  0  0  0  0  0  0  0  0  0
    7.3343  -17.3812   23.7984 C   0  0  0  0  0  0  0  0  0  0  0  0
    7.0192  -17.6491   25.2472 C   0  0  0  0  0  0  0  0  0  0  0  0
    6.7704  -19.0968   25.4730 C   0  0  0  0  0  0  0  0  0  0  0  0
    6.8184  -19.5424   26.6289 O   0  0  0  0  0  0  0  0  0  0  0  0
    8.2881  -15.1935   24.5622 C   0  0  0  0  0  0  0  0  0  0  0  0
    9.5471  -15.3756   24.6946 O   0  0  0  0  0  0  0  0  0  0  0  0
    6.4904  -19.9385   24.4251 O   0  0  0  0  0  0  0  0  0  0  0  0
    7.6384  -14.3011   25.4494 N   0  0  0  0  0  0  0  0  0  0  0  0
    8.3944  -13.5295   26.4015 C   0  0  1  0  0  0  0  0  0  0  0  0
    7.7306  -12.1878   26.6573 C   0  0  0  0  0  0  0  0  0  0  0  0
    5.9248  -12.4926   26.7453 S   0  0  0  0  0  0  0  0  0  0  0  0
    8.5579  -14.3182   27.6369 C   0  0  0  0  0  0  0  0  0  0  0  0
    9.3985  -13.8585   28.6318 O   0  0  0  0  0  0  0  0  0  0  0  0
    7.9589  -15.4109   27.8366 O   0  0  0  0  0  0  0  0  0  0  0  0
  1  2  1  0
  2  3  1  0
  4  3  1  0
  5  4  1  0
  5  1  1  0
  6  7  2  0
  5  6  1  1
  8  6  1  0
  9 14  1  0
  9  8  1  0
  9 10  1  1
 11 12  1  0
 11 10  1  0
 12 13  2  0
 14 17  1  0
 15 14  2  0
 16 12  1  0
 17 18  1  0
 18 21  1  0
 18 19  1  1
 19 20  1  0
 21 23  2  0
 21 22  1  0
M  END
$$$$
