PEC.pdb
     RDKit          3D

 23 23  0  0  1  0  0  0  0  0999 V2000
    9.1038  -14.7309   19.2320 N   0  0  0  0  0  0  0  0  0  0  0  0
    8.4022  -14.1296   18.0977 C   0  0  0  0  0  0  0  0  0  0  0  0
    7.6694  -12.9435   18.6527 C   0  0  0  0  0  0  0  0  0  0  0  0
    7.3677  -13.4261   20.0800 C   0  0  0  0  0  0  0  0  0  0  0  0
    8.7545  -13.9717   20.3804 C   0  0  1  0  0  0  0  0  0  0  0  0
    8.8878  -14.6159   21.6852 C   0  0  0  0  0  0  0  0  0  0  0  0
    8.3630  -14.1334   22.7313 O   0  0  0  0  0  0  0  0  0  0  0  0
    9.6187  -15.8195   21.8371 N   0  0  0  0  0  0  0  0  0  0  0  0
    9.7934  -16.5952   23.0099 C   0  0  1  0  0  0  0  0  0  0  0  0
   10.4199  -17.9628   22.8560 C   0  0  0  0  0  0  0  0  0  0  0  0
    9.7957  -18.7899   21.7623 C   0  0  0  0  0  0  0  0  0  0  0  0
   10.4749  -20.1066   21.6450 C   0  0  0  0  0  0  0  0  0  0  0  0
    9.8014  -21.1423   21.7483 O   0  0  0  0  0  0  0  0  0  0  0  0
   10.2073  -15.8721   24.2209 C   0  0  0  0  0  0  0  0  0  0  0  0
   11.2631  -15.1523   24.1687 O   0  0  0  0  0  0  0  0  0  0  0  0
   11.8277  -20.1878   21.4253 O   0  0  0  0  0  0  0  0  0  0  0  0
    9.4930  -15.9345   25.4422 N   0  0  0  0  0  0  0  0  0  0  0  0
    9.8684  -15.1047   26.5575 C   0  0  1  0  0  0  0  0  0  0  0  0
    8.7161  -14.2079   26.9750 C   0  0  0  0  0  0  0  0  0  0  0  0
    9.2820  -13.2552   28.4357 S   0  0  0  0  0  0  0  0  0  0  0  0
   10.3365  -15.9653   27.6600 C   0  0  0  0  0  0  0  0  0  0  0  0
   11.1618  -15.4363   28.6331 O   0  0  0  0  0  0  0  0  0  0  0  0
   10.0165  -17.1816   27.7630 O   0  0  0  0  0  0  0  0  0  0  0  0
  1  2  1  0
  2  3  1  0
  4  3  1  0
  5  4  1  0
  5  1  1  0
  6  7  2  0
  5  6  1  1
  8  6  1  0
  9 14  1  0
  9  8  1  0
  9 10  1  6
 11 12  1  0
 11 10  1  0
 12 13  2  0
 14 17  1  0
 15 14  2  0
 16 12  1  0
 17 18  1  0
 18 21  1  0
 18 19  1  1
 19 20  1  0
 21 23  2  0
 21 22  1  0
M  END
$$$$
