PEC.pdb
     RDKit          3D

 23 23  0  0  1  0  0  0  0  0999 V2000
    7.5984  -14.9952   19.0207 N   0  0  0  0  0  0  0  0  0  0  0  0
    7.3586  -13.9805   17.9945 C   0  0  0  0  0  0  0  0  0  0  0  0
    7.9807  -12.7180   18.5149 C   0  0  0  0  0  0  0  0  0  0  0  0
    7.7970  -12.9027   20.0293 C   0  0  0  0  0  0  0  0  0  0  0  0
    8.2692  -14.3463   20.0913 C   0  0  1  0  0  0  0  0  0  0  0  0
    8.1857  -14.9598   21.4149 C   0  0  0  0  0  0  0  0  0  0  0  0
    7.0812  -15.3008   21.9307 O   0  0  0  0  0  0  0  0  0  0  0  0
    9.3492  -15.2004   22.1859 N   0  0  0  0  0  0  0  0  0  0  0  0
    9.4362  -15.7325   23.4962 C   0  0  1  0  0  0  0  0  0  0  0  0
   10.1872  -17.0328   23.6737 C   0  0  0  0  0  0  0  0  0  0  0  0
   10.1958  -17.5324   25.0951 C   0  0  0  0  0  0  0  0  0  0  0  0
   10.9318  -18.8195   25.1964 C   0  0  0  0  0  0  0  0  0  0  0  0
   12.0746  -18.8229   25.6770 O   0  0  0  0  0  0  0  0  0  0  0  0
    9.6319  -14.7663   24.5866 C   0  0  0  0  0  0  0  0  0  0  0  0
   10.4832  -15.0438   25.4998 O   0  0  0  0  0  0  0  0  0  0  0  0
   10.3652  -19.9942   24.7675 O   0  0  0  0  0  0  0  0  0  0  0  0
    8.9230  -13.5433   24.6742 N   0  0  0  0  0  0  0  0  0  0  0  0
    8.1854  -13.2038   25.8633 C   0  0  1  0  0  0  0  0  0  0  0  0
    6.6997  -13.1017   25.5660 C   0  0  0  0  0  0  0  0  0  0  0  0
    5.9104  -12.3461   27.0384 S   0  0  0  0  0  0  0  0  0  0  0  0
    8.4800  -14.1987   26.9114 C   0  0  0  0  0  0  0  0  0  0  0  0
    8.8866  -13.7716   28.1604 O   0  0  0  0  0  0  0  0  0  0  0  0
    8.3778  -15.4425   26.7237 O   0  0  0  0  0  0  0  0  0  0  0  0
  1  2  1  0
  2  3  1  0
  4  3  1  0
  5  4  1  0
  5  1  1  0
  6  7  2  0
  5  6  1  1
  8  6  1  0
  9 14  1  0
  9  8  1  0
  9 10  1  6
 11 12  1  0
 11 10  1  0
 12 13  2  0
 14 17  1  0
 15 14  2  0
 16 12  1  0
 17 18  1  0
 18 21  1  0
 18 19  1  6
 19 20  1  0
 21 23  2  0
 21 22  1  0
M  END
$$$$
