PEC.pdb
     RDKit          3D

 23 23  0  0  1  0  0  0  0  0999 V2000
    8.6718  -14.7288   18.6634 N   0  0  0  0  0  0  0  0  0  0  0  0
    7.8917  -14.0633   17.6198 C   0  0  0  0  0  0  0  0  0  0  0  0
    7.5248  -12.7196   18.1780 C   0  0  0  0  0  0  0  0  0  0  0  0
    7.4206  -13.0426   19.6767 C   0  0  0  0  0  0  0  0  0  0  0  0
    8.7072  -13.8463   19.7756 C   0  0  1  0  0  0  0  0  0  0  0  0
    8.9660  -14.4250   21.0922 C   0  0  0  0  0  0  0  0  0  0  0  0
    8.9052  -13.7379   22.1536 O   0  0  0  0  0  0  0  0  0  0  0  0
    9.3007  -15.7934   21.2383 N   0  0  0  0  0  0  0  0  0  0  0  0
    9.6748  -16.4816   22.4190 C   0  0  1  0  0  0  0  0  0  0  0  0
   10.5397  -17.7124   22.2659 C   0  0  0  0  0  0  0  0  0  0  0  0
   10.7505  -18.4627   23.5554 C   0  0  0  0  0  0  0  0  0  0  0  0
   11.6317  -19.6402   23.3415 C   0  0  0  0  0  0  0  0  0  0  0  0
   11.2427  -20.7578   23.7111 O   0  0  0  0  0  0  0  0  0  0  0  0
   10.0027  -15.6523   23.5876 C   0  0  0  0  0  0  0  0  0  0  0  0
   10.7084  -14.6008   23.4086 O   0  0  0  0  0  0  0  0  0  0  0  0
   12.8606  -19.5051   22.7445 O   0  0  0  0  0  0  0  0  0  0  0  0
    9.5747  -15.9620   24.9017 N   0  0  0  0  0  0  0  0  0  0  0  0
    9.6535  -14.9801   25.9519 C   0  0  1  0  0  0  0  0  0  0  0  0
    8.4857  -14.0124   25.8746 C   0  0  0  0  0  0  0  0  0  0  0  0
    8.6753  -12.8333   27.2658 S   0  0  0  0  0  0  0  0  0  0  0  0
    9.7223  -15.6724   27.2522 C   0  0  0  0  0  0  0  0  0  0  0  0
   10.0341  -14.9542   28.3901 O   0  0  0  0  0  0  0  0  0  0  0  0
    9.5071  -16.9091   27.3824 O   0  0  0  0  0  0  0  0  0  0  0  0
  1  2  1  0
  2  3  1  0
  4  3  1  0
  5  4  1  0
  5  1  1  0
  6  7  2  0
  5  6  1  1
  8  6  1  0
  9 14  1  0
  9  8  1  0
  9 10  1  6
 11 12  1  0
 11 10  1  0
 12 13  2  0
 14 17  1  0
 15 14  2  0
 16 12  1  0
 17 18  1  0
 18 21  1  0
 18 19  1  1
 19 20  1  0
 21 23  2  0
 21 22  1  0
M  END
$$$$
