PEC.pdb
     RDKit          3D

 23 23  0  0  1  0  0  0  0  0999 V2000
    8.8307  -14.8183   18.9521 N   0  0  0  0  0  0  0  0  0  0  0  0
    8.3275  -14.3589   17.6574 C   0  0  0  0  0  0  0  0  0  0  0  0
    7.6788  -13.0313   17.9187 C   0  0  0  0  0  0  0  0  0  0  0  0
    7.1731  -13.2294   19.3562 C   0  0  0  0  0  0  0  0  0  0  0  0
    8.4487  -13.8426   19.9109 C   0  0  1  0  0  0  0  0  0  0  0  0
    8.3674  -14.2611   21.3086 C   0  0  0  0  0  0  0  0  0  0  0  0
    7.9315  -13.4947   22.2168 O   0  0  0  0  0  0  0  0  0  0  0  0
    8.7785  -15.5553   21.7112 N   0  0  0  0  0  0  0  0  0  0  0  0
    8.8759  -16.0729   23.0266 C   0  0  1  0  0  0  0  0  0  0  0  0
    9.5620  -17.4088   23.2026 C   0  0  0  0  0  0  0  0  0  0  0  0
    9.5612  -17.9016   24.6264 C   0  0  0  0  0  0  0  0  0  0  0  0
   10.3204  -19.1738   24.7438 C   0  0  0  0  0  0  0  0  0  0  0  0
   11.4919  -19.2148   24.3400 O   0  0  0  0  0  0  0  0  0  0  0  0
    9.1543  -15.1033   24.0958 C   0  0  0  0  0  0  0  0  0  0  0  0
   10.2121  -14.3896   24.0094 O   0  0  0  0  0  0  0  0  0  0  0  0
    9.7441  -20.2940   25.2895 O   0  0  0  0  0  0  0  0  0  0  0  0
    8.3077  -14.9219   25.2165 N   0  0  0  0  0  0  0  0  0  0  0  0
    8.5960  -13.9112   26.2007 C   0  0  1  0  0  0  0  0  0  0  0  0
    7.5875  -12.7784   26.1223 C   0  0  0  0  0  0  0  0  0  0  0  0
    5.9843  -13.4483   26.7076 S   0  0  0  0  0  0  0  0  0  0  0  0
    8.6326  -14.5373   27.5354 C   0  0  0  0  0  0  0  0  0  0  0  0
    8.9895  -13.7791   28.6334 O   0  0  0  0  0  0  0  0  0  0  0  0
    8.3495  -15.7515   27.7307 O   0  0  0  0  0  0  0  0  0  0  0  0
  1  2  1  0
  2  3  1  0
  4  3  1  0
  5  4  1  0
  5  1  1  0
  6  7  2  0
  5  6  1  1
  8  6  1  0
  9 14  1  0
  9  8  1  0
  9 10  1  6
 11 12  1  0
 11 10  1  0
 12 13  2  0
 14 17  1  0
 15 14  2  0
 16 12  1  0
 17 18  1  0
 18 21  1  0
 18 19  1  1
 19 20  1  0
 21 23  2  0
 21 22  1  0
M  END
$$$$
