FYT.pdb
     RDKit          3D

 31 32  0  0  1  0  0  0  0  0999 V2000
   26.4914  -15.9133  -18.7002 N   0  0  0  0  0  0  0  0  0  0  0  0
   26.1668  -16.6053  -17.4961 C   0  0  1  0  0  0  0  0  0  0  0  0
   27.0839  -16.2815  -16.3389 C   0  0  0  0  0  0  0  0  0  0  0  0
   28.4486  -16.6996  -16.7278 C   0  0  0  0  0  0  0  0  0  0  0  0
   28.8574  -17.9909  -16.4833 C   0  0  0  0  0  0  0  0  0  0  0  0
   30.1332  -18.3918  -16.8432 C   0  0  0  0  0  0  0  0  0  0  0  0
   30.9385  -17.4660  -17.4352 C   0  0  0  0  0  0  0  0  0  0  0  0
   30.5703  -16.1627  -17.6987 C   0  0  0  0  0  0  0  0  0  0  0  0
   29.2821  -15.7684  -17.3321 C   0  0  0  0  0  0  0  0  0  0  0  0
   24.7360  -16.4924  -17.1255 C   0  0  0  0  0  0  0  0  0  0  0  0
   24.2083  -15.3343  -17.2307 O   0  0  0  0  0  0  0  0  0  0  0  0
   16.2361  -16.4264  -18.0333 O   0  0  0  0  0  0  0  0  0  0  0  0
   17.6349  -16.5545  -17.9325 C   0  0  0  0  0  0  0  0  0  0  0  0
   18.4296  -15.4567  -17.6699 C   0  0  0  0  0  0  0  0  0  0  0  0
   19.8048  -15.5557  -17.5655 C   0  0  0  0  0  0  0  0  0  0  0  0
   20.4304  -16.7739  -17.7237 C   0  0  0  0  0  0  0  0  0  0  0  0
   21.8735  -16.8974  -17.6456 C   0  0  0  0  0  0  0  0  0  0  0  0
   22.4807  -17.3534  -16.3758 C   0  0  2  0  0  0  0  0  0  0  0  0
   23.9269  -17.5496  -16.6727 N   0  0  0  0  0  0  0  0  0  0  0  0
   22.0111  -18.6462  -15.8445 C   0  0  0  0  0  0  0  0  0  0  0  0
   22.3246  -19.7385  -16.4039 O   0  0  0  0  0  0  0  0  0  0  0  0
   19.6491  -17.8743  -17.9856 C   0  0  0  0  0  0  0  0  0  0  0  0
   18.2578  -17.7716  -18.0907 C   0  0  0  0  0  0  0  0  0  0  0  0
   22.1647  -20.0529  -12.3187 C   0  0  0  0  0  0  0  0  0  0  0  0
   20.7255  -20.2299  -12.7536 C   0  0  1  0  0  0  0  0  0  0  0  0
   19.9906  -19.2232  -12.1280 O   0  0  0  0  0  0  0  0  0  0  0  0
   20.6801  -20.0579  -14.2673 C   0  0  2  0  0  0  0  0  0  0  0  0
   21.1891  -18.7909  -14.6820 N   0  0  0  0  0  0  0  0  0  0  0  0
   19.3507  -20.3764  -14.8003 C   0  0  0  0  0  0  0  0  0  0  0  0
   18.5056  -19.4564  -15.0907 O   0  0  0  0  0  0  0  0  0  0  0  0
   18.9170  -21.6627  -15.0255 O   0  0  0  0  0  0  0  0  0  0  0  0
  2  1  1  6
  3  2  1  0
  3  4  1  0
  4  9  1  0
  4  5  2  0
  5  6  1  0
  6  7  2  0
  8  7  1  0
  9  8  2  0
 10 19  1  0
 10  2  1  0
 11 10  2  0
 12 13  1  0
 13 14  2  0
 14 15  1  0
 16 17  1  0
 16 15  2  0
 18 17  1  6
 18 19  1  0
 20 18  1  0
 21 20  2  0
 22 16  1  0
 23 22  2  0
 23 13  1  0
 25 27  1  0
 25 24  1  1
 25 26  1  0
 27 28  1  1
 28 20  1  0
 29 27  1  0
 29 31  1  0
 30 29  2  0
M  END
$$$$
