FYT.pdb
     RDKit          3D

 31 32  0  0  1  0  0  0  0  0999 V2000
   24.9748  -21.5795   -8.8674 N   0  0  0  0  0  0  0  0  0  0  0  0
   25.6115  -20.7293   -9.8191 C   0  0  1  0  0  0  0  0  0  0  0  0
   27.0989  -20.5727   -9.6001 C   0  0  0  0  0  0  0  0  0  0  0  0
   27.2903  -20.0587   -8.2261 C   0  0  0  0  0  0  0  0  0  0  0  0
   28.1344  -20.7229   -7.3655 C   0  0  0  0  0  0  0  0  0  0  0  0
   28.3199  -20.2500   -6.0771 C   0  0  0  0  0  0  0  0  0  0  0  0
   27.6415  -19.1245   -5.7178 C   0  0  0  0  0  0  0  0  0  0  0  0
   26.7865  -18.4280   -6.5471 C   0  0  0  0  0  0  0  0  0  0  0  0
   26.6063  -18.9128   -7.8439 C   0  0  0  0  0  0  0  0  0  0  0  0
   25.2855  -21.0772  -11.2227 C   0  0  0  0  0  0  0  0  0  0  0  0
   25.2085  -22.3213  -11.4998 O   0  0  0  0  0  0  0  0  0  0  0  0
   18.6511  -21.4737  -11.1600 O   0  0  0  0  0  0  0  0  0  0  0  0
   19.8161  -21.0573  -11.8330 C   0  0  0  0  0  0  0  0  0  0  0  0
   20.4383  -21.8821  -12.7485 C   0  0  0  0  0  0  0  0  0  0  0  0
   21.5824  -21.4971  -13.4228 C   0  0  0  0  0  0  0  0  0  0  0  0
   22.1425  -20.2581  -13.1952 C   0  0  0  0  0  0  0  0  0  0  0  0
   23.3573  -19.8432  -13.8703 C   0  0  0  0  0  0  0  0  0  0  0  0
   24.6072  -20.5904  -13.6087 C   0  0  2  0  0  0  0  0  0  0  0  0
   25.0582  -20.1534  -12.2582 N   0  0  0  0  0  0  0  0  0  0  0  0
   25.7426  -20.3163  -14.5085 C   0  0  0  0  0  0  0  0  0  0  0  0
   26.2785  -19.1697  -14.5585 O   0  0  0  0  0  0  0  0  0  0  0  0
   21.5315  -19.4281  -12.2854 C   0  0  0  0  0  0  0  0  0  0  0  0
   20.3739  -19.8200  -11.6045 C   0  0  0  0  0  0  0  0  0  0  0  0
   29.0369  -21.5908  -14.4971 C   0  0  0  0  0  0  0  0  0  0  0  0
   28.6593  -21.8165  -15.9457 C   0  0  1  0  0  0  0  0  0  0  0  0
   28.3530  -23.1709  -16.0741 O   0  0  0  0  0  0  0  0  0  0  0  0
   27.4297  -20.9642  -16.2365 C   0  0  2  0  0  0  0  0  0  0  0  0
   26.3353  -21.2854  -15.3790 N   0  0  0  0  0  0  0  0  0  0  0  0
   27.0986  -20.9766  -17.6658 C   0  0  0  0  0  0  0  0  0  0  0  0
   25.9613  -21.3929  -18.0880 O   0  0  0  0  0  0  0  0  0  0  0  0
   27.9666  -20.5501  -18.6446 O   0  0  0  0  0  0  0  0  0  0  0  0
  2  1  1  1
  3  2  1  0
  3  4  1  0
  4  9  1  0
  4  5  2  0
  5  6  1  0
  6  7  2  0
  8  7  1  0
  9  8  2  0
 10 19  1  0
 10  2  1  0
 11 10  2  0
 12 13  1  0
 13 14  2  0
 14 15  1  0
 16 17  1  0
 16 15  2  0
 18 17  1  6
 18 19  1  0
 20 18  1  0
 21 20  2  0
 22 16  1  0
 23 22  2  0
 23 13  1  0
 25 27  1  0
 25 24  1  1
 25 26  1  0
 27 28  1  1
 28 20  1  0
 29 27  1  0
 29 31  1  0
 30 29  2  0
M  END
$$$$
