FYT.pdb
     RDKit          3D

 31 32  0  0  1  0  0  0  0  0999 V2000
   20.0630  -11.1537  -18.0579 N   0  0  0  0  0  0  0  0  0  0  0  0
   20.8843   -9.9905  -17.9756 C   0  0  1  0  0  0  0  0  0  0  0  0
   21.1006   -9.3000  -19.3028 C   0  0  0  0  0  0  0  0  0  0  0  0
   21.7720  -10.2672  -20.1986 C   0  0  0  0  0  0  0  0  0  0  0  0
   21.0492  -10.8822  -21.1954 C   0  0  0  0  0  0  0  0  0  0  0  0
   21.6684  -11.7895  -22.0388 C   0  0  0  0  0  0  0  0  0  0  0  0
   22.9931  -12.0334  -21.8347 C   0  0  0  0  0  0  0  0  0  0  0  0
   23.7551  -11.4404  -20.8490 C   0  0  0  0  0  0  0  0  0  0  0  0
   23.1216  -10.5272  -20.0040 C   0  0  0  0  0  0  0  0  0  0  0  0
   20.4550   -9.0465  -16.9164 C   0  0  0  0  0  0  0  0  0  0  0  0
   19.2007   -8.9768  -16.6875 O   0  0  0  0  0  0  0  0  0  0  0  0
   20.0723   -5.5529   -8.8514 O   0  0  0  0  0  0  0  0  0  0  0  0
   20.4288   -6.1350  -10.0833 C   0  0  0  0  0  0  0  0  0  0  0  0
   21.3069   -5.5006  -10.9388 C   0  0  0  0  0  0  0  0  0  0  0  0
   21.6733   -6.0509  -12.1532 C   0  0  0  0  0  0  0  0  0  0  0  0
   21.1629   -7.2687  -12.5495 C   0  0  0  0  0  0  0  0  0  0  0  0
   21.5115   -7.8526  -13.8306 C   0  0  0  0  0  0  0  0  0  0  0  0
   20.8010   -7.3865  -15.0417 C   0  0  2  0  0  0  0  0  0  0  0  0
   21.3128   -8.2328  -16.1553 N   0  0  0  0  0  0  0  0  0  0  0  0
   21.0504   -5.9950  -15.4608 C   0  0  0  0  0  0  0  0  0  0  0  0
   22.1685   -5.6450  -15.9421 O   0  0  0  0  0  0  0  0  0  0  0  0
   20.2872   -7.9098  -11.7056 C   0  0  0  0  0  0  0  0  0  0  0  0
   19.9181   -7.3509  -10.4773 C   0  0  0  0  0  0  0  0  0  0  0  0
   19.3533   -3.7294  -17.9437 C   0  0  0  0  0  0  0  0  0  0  0  0
   19.3377   -2.9749  -16.6313 C   0  0  1  0  0  0  0  0  0  0  0  0
   18.0698   -3.1561  -16.0794 O   0  0  0  0  0  0  0  0  0  0  0  0
   20.4013   -3.5958  -15.7335 C   0  0  2  0  0  0  0  0  0  0  0  0
   20.0866   -4.9407  -15.3747 N   0  0  0  0  0  0  0  0  0  0  0  0
   20.7111   -2.7253  -14.5938 C   0  0  0  0  0  0  0  0  0  0  0  0
   20.3650   -3.0354  -13.3984 O   0  0  0  0  0  0  0  0  0  0  0  0
   21.3846   -1.5318  -14.7178 O   0  0  0  0  0  0  0  0  0  0  0  0
  2  1  1  6
  3  2  1  0
  3  4  1  0
  4  9  1  0
  4  5  2  0
  5  6  1  0
  6  7  2  0
  8  7  1  0
  9  8  2  0
 10 19  1  0
 10  2  1  0
 11 10  2  0
 12 13  1  0
 13 14  2  0
 14 15  1  0
 16 17  1  0
 16 15  2  0
 18 17  1  1
 18 19  1  0
 20 18  1  0
 21 20  2  0
 22 16  1  0
 23 22  2  0
 23 13  1  0
 25 27  1  0
 25 24  1  6
 25 26  1  0
 27 28  1  1
 28 20  1  0
 29 27  1  0
 29 31  1  0
 30 29  2  0
M  END
$$$$
