FYT.pdb
     RDKit          3D

 31 32  0  0  1  0  0  0  0  0999 V2000
   23.4273  -10.4001  -16.9457 N   0  0  0  0  0  0  0  0  0  0  0  0
   23.8237   -9.4769  -15.9334 C   0  0  1  0  0  0  0  0  0  0  0  0
   25.0688   -8.6913  -16.2765 C   0  0  0  0  0  0  0  0  0  0  0  0
   26.1719   -9.6633  -16.4408 C   0  0  0  0  0  0  0  0  0  0  0  0
   26.4809  -10.5187  -15.4078 C   0  0  0  0  0  0  0  0  0  0  0  0
   27.5121  -11.4319  -15.5516 C   0  0  0  0  0  0  0  0  0  0  0  0
   28.1847  -11.4378  -16.7364 C   0  0  0  0  0  0  0  0  0  0  0  0
   27.9089  -10.5993  -17.7969 C   0  0  0  0  0  0  0  0  0  0  0  0
   26.8675   -9.6823  -17.6419 C   0  0  0  0  0  0  0  0  0  0  0  0
   22.7180   -8.6023  -15.4755 C   0  0  0  0  0  0  0  0  0  0  0  0
   21.6973   -8.5248  -16.2389 O   0  0  0  0  0  0  0  0  0  0  0  0
   17.1853   -4.5023   -9.7493 O   0  0  0  0  0  0  0  0  0  0  0  0
   18.1883   -5.2169  -10.4324 C   0  0  0  0  0  0  0  0  0  0  0  0
   18.0686   -5.4929  -11.7796 C   0  0  0  0  0  0  0  0  0  0  0  0
   19.0391   -6.1921  -12.4735 C   0  0  0  0  0  0  0  0  0  0  0  0
   20.1716   -6.6403  -11.8277 C   0  0  0  0  0  0  0  0  0  0  0  0
   21.1900   -7.3990  -12.5285 C   0  0  0  0  0  0  0  0  0  0  0  0
   21.5526   -6.9995  -13.9061 C   0  0  2  0  0  0  0  0  0  0  0  0
   22.7082   -7.8613  -14.2805 N   0  0  0  0  0  0  0  0  0  0  0  0
   22.0211   -5.6139  -14.0916 C   0  0  0  0  0  0  0  0  0  0  0  0
   23.1422   -5.2342  -13.6406 O   0  0  0  0  0  0  0  0  0  0  0  0
   20.3016   -6.3713  -10.4858 C   0  0  0  0  0  0  0  0  0  0  0  0
   19.3183   -5.6636   -9.7861 C   0  0  0  0  0  0  0  0  0  0  0  0
   23.2410   -3.8791  -16.8519 C   0  0  0  0  0  0  0  0  0  0  0  0
   22.1036   -2.9759  -16.4249 C   0  0  1  0  0  0  0  0  0  0  0  0
   21.0093   -3.3033  -17.2250 O   0  0  0  0  0  0  0  0  0  0  0  0
   21.8017   -3.2802  -14.9623 C   0  0  2  0  0  0  0  0  0  0  0  0
   21.2853   -4.5980  -14.7806 N   0  0  0  0  0  0  0  0  0  0  0  0
   20.9835   -2.2239  -14.3560 C   0  0  0  0  0  0  0  0  0  0  0  0
   19.7375   -2.3990  -14.1074 O   0  0  0  0  0  0  0  0  0  0  0  0
   21.4811   -0.9875  -14.0138 O   0  0  0  0  0  0  0  0  0  0  0  0
  2  1  1  6
  3  2  1  0
  3  4  1  0
  4  9  1  0
  4  5  2  0
  5  6  1  0
  6  7  2  0
  8  7  1  0
  9  8  2  0
 10 19  1  0
 10  2  1  0
 11 10  2  0
 12 13  1  0
 13 14  2  0
 14 15  1  0
 16 17  1  0
 16 15  2  0
 18 17  1  1
 18 19  1  0
 20 18  1  0
 21 20  2  0
 22 16  1  0
 23 22  2  0
 23 13  1  0
 25 27  1  0
 25 24  1  6
 25 26  1  0
 27 28  1  6
 28 20  1  0
 29 27  1  0
 29 31  1  0
 30 29  2  0
M  END
$$$$
