FYT.pdb
     RDKit          3D

 31 32  0  0  1  0  0  0  0  0999 V2000
   29.8101  -20.6684  -12.3338 N   0  0  0  0  0  0  0  0  0  0  0  0
   28.5919  -21.0611  -11.7045 C   0  0  1  0  0  0  0  0  0  0  0  0
   28.6229  -20.9605  -10.1966 C   0  0  0  0  0  0  0  0  0  0  0  0
   29.8655  -21.6183   -9.7364 C   0  0  0  0  0  0  0  0  0  0  0  0
   30.7737  -20.9039   -8.9888 C   0  0  0  0  0  0  0  0  0  0  0  0
   31.9402  -21.5106   -8.5537 C   0  0  0  0  0  0  0  0  0  0  0  0
   32.1345  -22.8150   -8.8956 C   0  0  0  0  0  0  0  0  0  0  0  0
   31.2520  -23.5680   -9.6425 C   0  0  0  0  0  0  0  0  0  0  0  0
   30.0791  -22.9472  -10.0763 C   0  0  0  0  0  0  0  0  0  0  0  0
   27.3967  -20.4043  -12.2853 C   0  0  0  0  0  0  0  0  0  0  0  0
   27.4894  -19.1523  -12.5184 O   0  0  0  0  0  0  0  0  0  0  0  0
   21.5214  -18.5165  -18.4153 O   0  0  0  0  0  0  0  0  0  0  0  0
   22.4859  -18.9939  -17.5069 C   0  0  0  0  0  0  0  0  0  0  0  0
   22.4029  -20.2722  -16.9925 C   0  0  0  0  0  0  0  0  0  0  0  0
   23.3369  -20.7650  -16.0999 C   0  0  0  0  0  0  0  0  0  0  0  0
   24.3943  -19.9798  -15.6924 C   0  0  0  0  0  0  0  0  0  0  0  0
   25.3709  -20.4656  -14.7364 C   0  0  0  0  0  0  0  0  0  0  0  0
   25.0790  -20.3335  -13.2920 C   0  0  2  0  0  0  0  0  0  0  0  0
   26.1847  -21.0470  -12.5945 N   0  0  0  0  0  0  0  0  0  0  0  0
   23.8381  -20.9652  -12.8072 C   0  0  0  0  0  0  0  0  0  0  0  0
   23.7578  -22.2196  -12.6513 O   0  0  0  0  0  0  0  0  0  0  0  0
   24.4872  -18.7048  -16.1981 C   0  0  0  0  0  0  0  0  0  0  0  0
   23.5409  -18.2086  -17.1012 C   0  0  0  0  0  0  0  0  0  0  0  0
   21.7800  -20.3076   -9.7530 C   0  0  0  0  0  0  0  0  0  0  0  0
   20.7766  -20.2793  -10.8862 C   0  0  1  0  0  0  0  0  0  0  0  0
   20.4920  -18.9373  -11.1366 O   0  0  0  0  0  0  0  0  0  0  0  0
   21.4399  -20.9171  -12.1012 C   0  0  2  0  0  0  0  0  0  0  0  0
   22.6457  -20.2491  -12.4705 N   0  0  0  0  0  0  0  0  0  0  0  0
   20.4847  -21.0877  -13.2017 C   0  0  0  0  0  0  0  0  0  0  0  0
   20.5523  -20.3753  -14.2661 O   0  0  0  0  0  0  0  0  0  0  0  0
   19.4622  -22.0082  -13.1768 O   0  0  0  0  0  0  0  0  0  0  0  0
  2  1  1  6
  3  2  1  0
  3  4  1  0
  4  9  1  0
  4  5  2  0
  5  6  1  0
  6  7  2  0
  8  7  1  0
  9  8  2  0
 10 19  1  0
 10  2  1  0
 11 10  2  0
 12 13  1  0
 13 14  2  0
 14 15  1  0
 16 17  1  0
 16 15  2  0
 18 17  1  6
 18 19  1  0
 20 18  1  0
 21 20  2  0
 22 16  1  0
 23 22  2  0
 23 13  1  0
 25 27  1  0
 25 24  1  1
 25 26  1  0
 27 28  1  6
 28 20  1  0
 29 27  1  0
 29 31  1  0
 30 29  2  0
M  END
$$$$
