FYT.pdb
     RDKit          3D

 31 32  0  0  1  0  0  0  0  0999 V2000
   24.8195   -7.9255  -18.6597 N   0  0  0  0  0  0  0  0  0  0  0  0
   24.7336   -6.7014  -17.9328 C   0  0  1  0  0  0  0  0  0  0  0  0
   24.9072   -5.4682  -18.7896 C   0  0  0  0  0  0  0  0  0  0  0  0
   26.2775   -5.5074  -19.3458 C   0  0  0  0  0  0  0  0  0  0  0  0
   26.4645   -5.8607  -20.6628 C   0  0  0  0  0  0  0  0  0  0  0  0
   27.7434   -5.9008  -21.1927 C   0  0  0  0  0  0  0  0  0  0  0  0
   28.7765   -5.5808  -20.3642 C   0  0  0  0  0  0  0  0  0  0  0  0
   28.6348   -5.2216  -19.0395 C   0  0  0  0  0  0  0  0  0  0  0  0
   27.3415   -5.1843  -18.5148 C   0  0  0  0  0  0  0  0  0  0  0  0
   23.5318   -6.6186  -17.0689 C   0  0  0  0  0  0  0  0  0  0  0  0
   22.4702   -7.1726  -17.5124 O   0  0  0  0  0  0  0  0  0  0  0  0
   18.4204   -6.7556   -9.7944 O   0  0  0  0  0  0  0  0  0  0  0  0
   19.4209   -6.7106  -10.7845 C   0  0  0  0  0  0  0  0  0  0  0  0
   19.4912   -7.6797  -11.7651 C   0  0  0  0  0  0  0  0  0  0  0  0
   20.4630   -7.6580  -12.7485 C   0  0  0  0  0  0  0  0  0  0  0  0
   21.4043   -6.6512  -12.7768 C   0  0  0  0  0  0  0  0  0  0  0  0
   22.4493   -6.6227  -13.7822 C   0  0  0  0  0  0  0  0  0  0  0  0
   22.2013   -5.8936  -15.0455 C   0  0  2  0  0  0  0  0  0  0  0  0
   23.4732   -5.9845  -15.8152 N   0  0  0  0  0  0  0  0  0  0  0  0
   21.9144   -4.4518  -14.9320 C   0  0  0  0  0  0  0  0  0  0  0  0
   22.7868   -3.6410  -14.5008 O   0  0  0  0  0  0  0  0  0  0  0  0
   21.3443   -5.6806  -11.8051 C   0  0  0  0  0  0  0  0  0  0  0  0
   20.3599   -5.7046  -10.8112 C   0  0  0  0  0  0  0  0  0  0  0  0
   21.0988   -1.8707  -17.3967 C   0  0  0  0  0  0  0  0  0  0  0  0
   19.9629   -1.7779  -16.4002 C   0  0  1  0  0  0  0  0  0  0  0  0
   18.8875   -2.4735  -16.9520 O   0  0  0  0  0  0  0  0  0  0  0  0
   20.4264   -2.4506  -15.1136 C   0  0  2  0  0  0  0  0  0  0  0  0
   20.6687   -3.8457  -15.2909 N   0  0  0  0  0  0  0  0  0  0  0  0
   19.5332   -2.1321  -13.9940 C   0  0  0  0  0  0  0  0  0  0  0  0
   18.7724   -3.0207  -13.4681 O   0  0  0  0  0  0  0  0  0  0  0  0
   19.4451   -0.8789  -13.4326 O   0  0  0  0  0  0  0  0  0  0  0  0
  2  1  1  6
  3  2  1  0
  3  4  1  0
  4  9  1  0
  4  5  2  0
  5  6  1  0
  6  7  2  0
  8  7  1  0
  9  8  2  0
 10 19  1  0
 10  2  1  0
 11 10  2  0
 12 13  1  0
 13 14  2  0
 14 15  1  0
 16 17  1  0
 16 15  2  0
 18 17  1  1
 18 19  1  0
 20 18  1  0
 21 20  2  0
 22 16  1  0
 23 22  2  0
 23 13  1  0
 25 27  1  0
 25 24  1  6
 25 26  1  0
 27 28  1  6
 28 20  1  0
 29 27  1  0
 29 31  1  0
 30 29  2  0
M  END
$$$$
