FYT.pdb
     RDKit          3D

 31 32  0  0  1  0  0  0  0  0999 V2000
   26.7140  -31.0416  -16.5751 N   0  0  0  0  0  0  0  0  0  0  0  0
   25.3048  -31.1223  -16.3708 C   0  0  1  0  0  0  0  0  0  0  0  0
   24.9083  -31.3526  -14.9304 C   0  0  0  0  0  0  0  0  0  0  0  0
   25.4165  -32.6864  -14.5413 C   0  0  0  0  0  0  0  0  0  0  0  0
   24.6027  -33.7880  -14.6777 C   0  0  0  0  0  0  0  0  0  0  0  0
   25.0688  -35.0408  -14.3158 C   0  0  0  0  0  0  0  0  0  0  0  0
   26.3397  -35.1218  -13.8315 C   0  0  0  0  0  0  0  0  0  0  0  0
   27.1888  -34.0451  -13.6781 C   0  0  0  0  0  0  0  0  0  0  0  0
   26.7093  -32.7864  -14.0459 C   0  0  0  0  0  0  0  0  0  0  0  0
   24.5607  -29.9962  -16.9834 C   0  0  0  0  0  0  0  0  0  0  0  0
   25.2574  -29.1109  -17.5847 O   0  0  0  0  0  0  0  0  0  0  0  0
   20.7556  -25.5569  -23.1193 O   0  0  0  0  0  0  0  0  0  0  0  0
   21.2821  -26.4196  -22.1386 C   0  0  0  0  0  0  0  0  0  0  0  0
   20.5893  -27.5448  -21.7394 C   0  0  0  0  0  0  0  0  0  0  0  0
   21.0843  -28.4080  -20.7792 C   0  0  0  0  0  0  0  0  0  0  0  0
   22.3038  -28.1640  -20.1841 C   0  0  0  0  0  0  0  0  0  0  0  0
   22.8306  -29.0402  -19.1553 C   0  0  0  0  0  0  0  0  0  0  0  0
   22.4874  -28.7653  -17.7427 C   0  0  2  0  0  0  0  0  0  0  0  0
   23.1646  -29.8310  -16.9527 N   0  0  0  0  0  0  0  0  0  0  0  0
   21.0613  -28.8544  -17.3788 C   0  0  0  0  0  0  0  0  0  0  0  0
   20.2069  -28.0611  -17.8736 O   0  0  0  0  0  0  0  0  0  0  0  0
   23.0027  -27.0461  -20.5736 C   0  0  0  0  0  0  0  0  0  0  0  0
   22.4997  -26.1744  -21.5455 C   0  0  0  0  0  0  0  0  0  0  0  0
   19.4284  -31.5862  -14.4546 C   0  0  0  0  0  0  0  0  0  0  0  0
   18.7152  -31.3170  -15.7626 C   0  0  1  0  0  0  0  0  0  0  0  0
   17.3481  -31.3645  -15.4912 O   0  0  0  0  0  0  0  0  0  0  0  0
   19.1168  -29.9211  -16.2242 C   0  0  2  0  0  0  0  0  0  0  0  0
   20.5189  -29.8158  -16.4680 N   0  0  0  0  0  0  0  0  0  0  0  0
   18.5822  -28.8893  -15.3285 C   0  0  0  0  0  0  0  0  0  0  0  0
   19.3535  -28.1565  -14.6122 O   0  0  0  0  0  0  0  0  0  0  0  0
   17.2372  -28.6332  -15.1911 O   0  0  0  0  0  0  0  0  0  0  0  0
  2  1  1  1
  3  2  1  0
  3  4  1  0
  4  9  1  0
  4  5  2  0
  5  6  1  0
  6  7  2  0
  8  7  1  0
  9  8  2  0
 10 19  1  0
 10  2  1  0
 11 10  2  0
 12 13  1  0
 13 14  2  0
 14 15  1  0
 16 17  1  0
 16 15  2  0
 18 17  1  6
 18 19  1  0
 20 18  1  0
 21 20  2  0
 22 16  1  0
 23 22  2  0
 23 13  1  0
 25 27  1  0
 25 24  1  1
 25 26  1  0
 27 28  1  1
 28 20  1  0
 29 27  1  0
 29 31  1  0
 30 29  2  0
M  END
$$$$
