FYT.pdb
     RDKit          3D

 31 32  0  0  1  0  0  0  0  0999 V2000
   28.6566  -21.2681  -13.7599 N   0  0  0  0  0  0  0  0  0  0  0  0
   27.7186  -20.8826  -12.7570 C   0  0  1  0  0  0  0  0  0  0  0  0
   28.3109  -20.0220  -11.6646 C   0  0  0  0  0  0  0  0  0  0  0  0
   29.3282  -20.8367  -10.9646 C   0  0  0  0  0  0  0  0  0  0  0  0
   28.9596  -21.5898   -9.8731 C   0  0  0  0  0  0  0  0  0  0  0  0
   29.9045  -22.3554   -9.2106 C   0  0  0  0  0  0  0  0  0  0  0  0
   31.1817  -22.3239   -9.6838 C   0  0  0  0  0  0  0  0  0  0  0  0
   31.5946  -21.5843  -10.7730 C   0  0  0  0  0  0  0  0  0  0  0  0
   30.6344  -20.8158  -11.4339 C   0  0  0  0  0  0  0  0  0  0  0  0
   26.4737  -20.3022  -13.3144 C   0  0  0  0  0  0  0  0  0  0  0  0
   26.5992  -19.2325  -14.0003 O   0  0  0  0  0  0  0  0  0  0  0  0
   20.1211  -18.7210  -18.8044 O   0  0  0  0  0  0  0  0  0  0  0  0
   21.1397  -19.1465  -17.9299 C   0  0  0  0  0  0  0  0  0  0  0  0
   21.1405  -20.4265  -17.4131 C   0  0  0  0  0  0  0  0  0  0  0  0
   22.1289  -20.8690  -16.5532 C   0  0  0  0  0  0  0  0  0  0  0  0
   23.1577  -20.0296  -16.1823 C   0  0  0  0  0  0  0  0  0  0  0  0
   24.1904  -20.4627  -15.2605 C   0  0  0  0  0  0  0  0  0  0  0  0
   23.9966  -20.2259  -13.8129 C   0  0  2  0  0  0  0  0  0  0  0  0
   25.1824  -20.8331  -13.1469 N   0  0  0  0  0  0  0  0  0  0  0  0
   22.8253  -20.8677  -13.1885 C   0  0  0  0  0  0  0  0  0  0  0  0
   22.8060  -22.1123  -12.9542 O   0  0  0  0  0  0  0  0  0  0  0  0
   23.1672  -18.7523  -16.6907 C   0  0  0  0  0  0  0  0  0  0  0  0
   22.1660  -18.3071  -17.5606 C   0  0  0  0  0  0  0  0  0  0  0  0
   21.4725  -20.8173  -10.0343 C   0  0  0  0  0  0  0  0  0  0  0  0
   20.2191  -20.5041  -10.8235 C   0  0  1  0  0  0  0  0  0  0  0  0
   19.9919  -19.1348  -10.6889 O   0  0  0  0  0  0  0  0  0  0  0  0
   20.4956  -20.8558  -12.2805 C   0  0  2  0  0  0  0  0  0  0  0  0
   21.6386  -20.1723  -12.7930 N   0  0  0  0  0  0  0  0  0  0  0  0
   19.2887  -20.7106  -13.1020 C   0  0  0  0  0  0  0  0  0  0  0  0
   19.2241  -19.8551  -14.0553 O   0  0  0  0  0  0  0  0  0  0  0  0
   18.1546  -21.4675  -12.9164 O   0  0  0  0  0  0  0  0  0  0  0  0
  2  1  1  6
  3  2  1  0
  3  4  1  0
  4  9  1  0
  4  5  2  0
  5  6  1  0
  6  7  2  0
  8  7  1  0
  9  8  2  0
 10 19  1  0
 10  2  1  0
 11 10  2  0
 12 13  1  0
 13 14  2  0
 14 15  1  0
 16 17  1  0
 16 15  2  0
 18 17  1  6
 18 19  1  0
 20 18  1  0
 21 20  2  0
 22 16  1  0
 23 22  2  0
 23 13  1  0
 25 27  1  0
 25 24  1  1
 25 26  1  0
 27 28  1  6
 28 20  1  0
 29 27  1  0
 29 31  1  0
 30 29  2  0
M  END
$$$$
