FYT.pdb
     RDKit          3D

 31 32  0  0  1  0  0  0  0  0999 V2000
   28.4872  -20.5322  -18.5801 N   0  0  0  0  0  0  0  0  0  0  0  0
   27.9681  -19.6002  -17.6334 C   0  0  1  0  0  0  0  0  0  0  0  0
   27.0535  -18.5598  -18.2383 C   0  0  0  0  0  0  0  0  0  0  0  0
   27.8796  -17.7057  -19.1196 C   0  0  0  0  0  0  0  0  0  0  0  0
   28.7926  -16.8397  -18.5621 C   0  0  0  0  0  0  0  0  0  0  0  0
   29.5704  -16.0356  -19.3785 C   0  0  0  0  0  0  0  0  0  0  0  0
   29.3883  -16.1448  -20.7243 C   0  0  0  0  0  0  0  0  0  0  0  0
   28.4857  -16.9981  -21.3251 C   0  0  0  0  0  0  0  0  0  0  0  0
   27.7064  -17.8045  -20.4934 C   0  0  0  0  0  0  0  0  0  0  0  0
   27.3682  -20.2496  -16.4436 C   0  0  0  0  0  0  0  0  0  0  0  0
   26.6981  -21.3164  -16.6520 O   0  0  0  0  0  0  0  0  0  0  0  0
   25.0684  -21.1617   -7.7676 O   0  0  0  0  0  0  0  0  0  0  0  0
   25.6774  -20.8866   -9.0073 C   0  0  0  0  0  0  0  0  0  0  0  0
   25.6189  -19.6232   -9.5604 C   0  0  0  0  0  0  0  0  0  0  0  0
   26.2088  -19.3271  -10.7754 C   0  0  0  0  0  0  0  0  0  0  0  0
   26.8826  -20.3021  -11.4796 C   0  0  0  0  0  0  0  0  0  0  0  0
   27.4858  -20.0219  -12.7686 C   0  0  0  0  0  0  0  0  0  0  0  0
   26.7869  -20.4696  -13.9934 C   0  0  2  0  0  0  0  0  0  0  0  0
   27.4795  -19.7859  -15.1207 N   0  0  0  0  0  0  0  0  0  0  0  0
   25.3669  -20.0932  -14.1200 C   0  0  0  0  0  0  0  0  0  0  0  0
   25.0252  -18.9070  -14.4036 O   0  0  0  0  0  0  0  0  0  0  0  0
   26.9473  -21.5643  -10.9386 C   0  0  0  0  0  0  0  0  0  0  0  0
   26.3497  -21.8614   -9.7090 C   0  0  0  0  0  0  0  0  0  0  0  0
   22.2749  -22.3918  -15.5506 C   0  0  0  0  0  0  0  0  0  0  0  0
   22.3025  -20.8857  -15.4000 C   0  0  1  0  0  0  0  0  0  0  0  0
   20.9775  -20.4534  -15.4479 O   0  0  0  0  0  0  0  0  0  0  0  0
   22.9142  -20.5727  -14.0396 C   0  0  2  0  0  0  0  0  0  0  0  0
   24.2728  -20.9995  -13.9477 N   0  0  0  0  0  0  0  0  0  0  0  0
   22.0580  -21.0497  -12.9478 C   0  0  0  0  0  0  0  0  0  0  0  0
   22.4943  -21.8658  -12.0598 O   0  0  0  0  0  0  0  0  0  0  0  0
   20.7457  -20.6648  -12.7954 O   0  0  0  0  0  0  0  0  0  0  0  0
  2  1  1  6
  3  2  1  0
  3  4  1  0
  4  9  1  0
  4  5  2  0
  5  6  1  0
  6  7  2  0
  8  7  1  0
  9  8  2  0
 10 19  1  0
 10  2  1  0
 11 10  2  0
 12 13  1  0
 13 14  2  0
 14 15  1  0
 16 17  1  0
 16 15  2  0
 18 17  1  1
 18 19  1  0
 20 18  1  0
 21 20  2  0
 22 16  1  0
 23 22  2  0
 23 13  1  0
 25 27  1  0
 25 24  1  1
 25 26  1  0
 27 28  1  6
 28 20  1  0
 29 27  1  0
 29 31  1  0
 30 29  2  0
M  END
$$$$
