FYT.pdb
     RDKit          3D

 31 32  0  0  1  0  0  0  0  0999 V2000
   21.1157  -22.8271  -19.4310 N   0  0  0  0  0  0  0  0  0  0  0  0
   20.0647  -22.2942  -18.6276 C   0  0  1  0  0  0  0  0  0  0  0  0
   18.6931  -22.8149  -18.9915 C   0  0  0  0  0  0  0  0  0  0  0  0
   18.2372  -22.0624  -20.1808 C   0  0  0  0  0  0  0  0  0  0  0  0
   17.5964  -20.8557  -20.0147 C   0  0  0  0  0  0  0  0  0  0  0  0
   17.1654  -20.1438  -21.1217 C   0  0  0  0  0  0  0  0  0  0  0  0
   17.4030  -20.6866  -22.3485 C   0  0  0  0  0  0  0  0  0  0  0  0
   18.0408  -21.8916  -22.5608 C   0  0  0  0  0  0  0  0  0  0  0  0
   18.4714  -22.6015  -21.4384 C   0  0  0  0  0  0  0  0  0  0  0  0
   20.3338  -22.3935  -17.1733 C   0  0  0  0  0  0  0  0  0  0  0  0
   21.2468  -23.2116  -16.8158 O   0  0  0  0  0  0  0  0  0  0  0  0
   21.6355  -19.7110   -8.7750 O   0  0  0  0  0  0  0  0  0  0  0  0
   21.3054  -19.9056  -10.1302 C   0  0  0  0  0  0  0  0  0  0  0  0
   22.2773  -20.2242  -11.0573 C   0  0  0  0  0  0  0  0  0  0  0  0
   21.9794  -20.4209  -12.3932 C   0  0  0  0  0  0  0  0  0  0  0  0
   20.6818  -20.3019  -12.8432 C   0  0  0  0  0  0  0  0  0  0  0  0
   20.3496  -20.4768  -14.2443 C   0  0  0  0  0  0  0  0  0  0  0  0
   20.0075  -21.8317  -14.7303 C   0  0  2  0  0  0  0  0  0  0  0  0
   19.6687  -21.6651  -16.1711 N   0  0  0  0  0  0  0  0  0  0  0  0
   18.8280  -22.4745  -14.1225 C   0  0  0  0  0  0  0  0  0  0  0  0
   17.6529  -22.1301  -14.4464 O   0  0  0  0  0  0  0  0  0  0  0  0
   19.7053  -19.9847  -11.9289 C   0  0  0  0  0  0  0  0  0  0  0  0
   20.0093  -19.7864  -10.5778 C   0  0  0  0  0  0  0  0  0  0  0  0
   18.2656  -26.2857  -13.6140 C   0  0  0  0  0  0  0  0  0  0  0  0
   17.9133  -25.6040  -12.3090 C   0  0  1  0  0  0  0  0  0  0  0  0
   18.9996  -25.7881  -11.4541 O   0  0  0  0  0  0  0  0  0  0  0  0
   17.7161  -24.1220  -12.6053 C   0  0  2  0  0  0  0  0  0  0  0  0
   18.8910  -23.5187  -13.1458 N   0  0  0  0  0  0  0  0  0  0  0  0
   17.1555  -23.4169  -11.4471 C   0  0  0  0  0  0  0  0  0  0  0  0
   17.8124  -22.5002  -10.8365 O   0  0  0  0  0  0  0  0  0  0  0  0
   15.9048  -23.6801  -10.9371 O   0  0  0  0  0  0  0  0  0  0  0  0
  2  1  1  6
  3  2  1  0
  3  4  1  0
  4  9  1  0
  4  5  2  0
  5  6  1  0
  6  7  2  0
  8  7  1  0
  9  8  2  0
 10 19  1  0
 10  2  1  0
 11 10  2  0
 12 13  1  0
 13 14  2  0
 14 15  1  0
 16 17  1  0
 16 15  2  0
 18 17  1  1
 18 19  1  0
 20 18  1  0
 21 20  2  0
 22 16  1  0
 23 22  2  0
 23 13  1  0
 25 27  1  0
 25 24  1  6
 25 26  1  0
 27 28  1  1
 28 20  1  0
 29 27  1  0
 29 31  1  0
 30 29  2  0
M  END
$$$$
