FYT.pdb
     RDKit          3D

 31 32  0  0  1  0  0  0  0  0999 V2000
   28.0565  -23.7386  -16.5771 N   0  0  0  0  0  0  0  0  0  0  0  0
   26.7533  -24.3164  -16.6212 C   0  0  1  0  0  0  0  0  0  0  0  0
   26.7519  -25.7996  -16.9127 C   0  0  0  0  0  0  0  0  0  0  0  0
   27.3210  -25.9834  -18.2658 C   0  0  0  0  0  0  0  0  0  0  0  0
   28.6332  -26.3757  -18.4016 C   0  0  0  0  0  0  0  0  0  0  0  0
   29.1754  -26.5500  -19.6640 C   0  0  0  0  0  0  0  0  0  0  0  0
   28.3633  -26.3191  -20.7333 C   0  0  0  0  0  0  0  0  0  0  0  0
   27.0440  -25.9251  -20.6432 C   0  0  0  0  0  0  0  0  0  0  0  0
   26.5069  -25.7521  -19.3661 C   0  0  0  0  0  0  0  0  0  0  0  0
   25.9239  -23.9767  -15.4406 C   0  0  0  0  0  0  0  0  0  0  0  0
   26.5478  -23.7556  -14.3486 O   0  0  0  0  0  0  0  0  0  0  0  0
   22.9699  -17.7496  -17.2211 O   0  0  0  0  0  0  0  0  0  0  0  0
   23.2952  -18.8442  -16.3969 C   0  0  0  0  0  0  0  0  0  0  0  0
   22.5949  -19.0867  -15.2324 C   0  0  0  0  0  0  0  0  0  0  0  0
   22.8940  -20.1544  -14.4062 C   0  0  0  0  0  0  0  0  0  0  0  0
   23.9173  -21.0203  -14.7283 C   0  0  0  0  0  0  0  0  0  0  0  0
   24.2669  -22.1310  -13.8635 C   0  0  0  0  0  0  0  0  0  0  0  0
   23.7734  -23.4827  -14.2071 C   0  0  2  0  0  0  0  0  0  0  0  0
   24.5210  -23.8811  -15.4321 N   0  0  0  0  0  0  0  0  0  0  0  0
   22.3474  -23.5955  -14.5645 C   0  0  0  0  0  0  0  0  0  0  0  0
   21.9860  -23.8346  -15.7547 O   0  0  0  0  0  0  0  0  0  0  0  0
   24.6220  -20.7885  -15.8857 C   0  0  0  0  0  0  0  0  0  0  0  0
   24.3173  -19.7075  -16.7201 C   0  0  0  0  0  0  0  0  0  0  0  0
   20.9269  -26.1830  -12.6417 C   0  0  0  0  0  0  0  0  0  0  0  0
   20.2980  -25.6884  -13.9269 C   0  0  1  0  0  0  0  0  0  0  0  0
   19.0878  -26.3669  -14.0683 O   0  0  0  0  0  0  0  0  0  0  0  0
   20.0527  -24.1923  -13.7705 C   0  0  2  0  0  0  0  0  0  0  0  0
   21.2684  -23.4575  -13.6345 N   0  0  0  0  0  0  0  0  0  0  0  0
   19.0645  -23.9212  -12.7204 C   0  0  0  0  0  0  0  0  0  0  0  0
   19.3651  -23.2425  -11.6745 O   0  0  0  0  0  0  0  0  0  0  0  0
   17.7635  -24.3657  -12.7764 O   0  0  0  0  0  0  0  0  0  0  0  0
  2  1  1  1
  3  2  1  0
  3  4  1  0
  4  9  1  0
  4  5  2  0
  5  6  1  0
  6  7  2  0
  8  7  1  0
  9  8  2  0
 10 19  1  0
 10  2  1  0
 11 10  2  0
 12 13  1  0
 13 14  2  0
 14 15  1  0
 16 17  1  0
 16 15  2  0
 18 17  1  6
 18 19  1  0
 20 18  1  0
 21 20  2  0
 22 16  1  0
 23 22  2  0
 23 13  1  0
 25 27  1  0
 25 24  1  1
 25 26  1  0
 27 28  1  1
 28 20  1  0
 29 27  1  0
 29 31  1  0
 30 29  2  0
M  END
$$$$
