FYT.pdb
     RDKit          3D

 31 32  0  0  1  0  0  0  0  0999 V2000
   23.6566  -11.2033  -15.9643 N   0  0  0  0  0  0  0  0  0  0  0  0
   22.5307  -10.5109  -16.5001 C   0  0  1  0  0  0  0  0  0  0  0  0
   21.2539  -11.3199  -16.4896 C   0  0  0  0  0  0  0  0  0  0  0  0
   21.4481  -12.4618  -17.4100 C   0  0  0  0  0  0  0  0  0  0  0  0
   21.7965  -13.6917  -16.8999 C   0  0  0  0  0  0  0  0  0  0  0  0
   21.9811  -14.7667  -17.7533 C   0  0  0  0  0  0  0  0  0  0  0  0
   21.8043  -14.5476  -19.0863 C   0  0  0  0  0  0  0  0  0  0  0  0
   21.4557  -13.3329  -19.6401 C   0  0  0  0  0  0  0  0  0  0  0  0
   21.2720  -12.2554  -18.7713 C   0  0  0  0  0  0  0  0  0  0  0  0
   22.3435   -9.1613  -15.9163 C   0  0  0  0  0  0  0  0  0  0  0  0
   22.7446   -8.9977  -14.7151 O   0  0  0  0  0  0  0  0  0  0  0  0
   22.8747   -0.3887  -15.3764 O   0  0  0  0  0  0  0  0  0  0  0  0
   22.8741   -1.7829  -15.5758 C   0  0  0  0  0  0  0  0  0  0  0  0
   23.1507   -2.3211  -16.8165 C   0  0  0  0  0  0  0  0  0  0  0  0
   23.1570   -3.6859  -17.0384 C   0  0  0  0  0  0  0  0  0  0  0  0
   22.8824   -4.5611  -16.0092 C   0  0  0  0  0  0  0  0  0  0  0  0
   22.8565   -5.9953  -16.2244 C   0  0  0  0  0  0  0  0  0  0  0  0
   21.6179   -6.7398  -15.9074 C   0  0  2  0  0  0  0  0  0  0  0  0
   21.7650   -8.0625  -16.5761 N   0  0  0  0  0  0  0  0  0  0  0  0
   20.3570   -6.1774  -16.4250 C   0  0  0  0  0  0  0  0  0  0  0  0
   20.0772   -6.2201  -17.6596 O   0  0  0  0  0  0  0  0  0  0  0  0
   22.6053   -4.0365  -14.7691 C   0  0  0  0  0  0  0  0  0  0  0  0
   22.5997   -2.6552  -14.5471 C   0  0  0  0  0  0  0  0  0  0  0  0
   16.8586   -6.9382  -16.1250 C   0  0  0  0  0  0  0  0  0  0  0  0
   16.9078   -5.4932  -15.6761 C   0  0  1  0  0  0  0  0  0  0  0  0
   16.8813   -5.5051  -14.2818 O   0  0  0  0  0  0  0  0  0  0  0  0
   18.2204   -4.9025  -16.1772 C   0  0  2  0  0  0  0  0  0  0  0  0
   19.3566   -5.5555  -15.6123 N   0  0  0  0  0  0  0  0  0  0  0  0
   18.2347   -3.4418  -16.0387 C   0  0  0  0  0  0  0  0  0  0  0  0
   18.8915   -2.8626  -15.1017 O   0  0  0  0  0  0  0  0  0  0  0  0
   17.5575   -2.5972  -16.8881 O   0  0  0  0  0  0  0  0  0  0  0  0
  2  1  1  1
  3  2  1  0
  3  4  1  0
  4  9  1  0
  4  5  2  0
  5  6  1  0
  6  7  2  0
  8  7  1  0
  9  8  2  0
 10 19  1  0
 10  2  1  0
 11 10  2  0
 12 13  1  0
 13 14  2  0
 14 15  1  0
 16 17  1  0
 16 15  2  0
 18 17  1  6
 18 19  1  0
 20 18  1  0
 21 20  2  0
 22 16  1  0
 23 22  2  0
 23 13  1  0
 25 27  1  0
 25 24  1  6
 25 26  1  0
 27 28  1  1
 28 20  1  0
 29 27  1  0
 29 31  1  0
 30 29  2  0
M  END
$$$$
