FYT.pdb
     RDKit          3D

 31 32  0  0  1  0  0  0  0  0999 V2000
   23.3947  -27.2264  -14.5947 N   0  0  0  0  0  0  0  0  0  0  0  0
   22.8219  -25.9404  -14.3659 C   0  0  1  0  0  0  0  0  0  0  0  0
   22.7601  -25.0704  -15.6005 C   0  0  0  0  0  0  0  0  0  0  0  0
   24.1403  -24.6287  -15.8979 C   0  0  0  0  0  0  0  0  0  0  0  0
   24.9789  -25.4574  -16.6080 C   0  0  0  0  0  0  0  0  0  0  0  0
   26.2729  -25.0532  -16.8911 C   0  0  0  0  0  0  0  0  0  0  0  0
   26.6598  -23.8266  -16.4419 C   0  0  0  0  0  0  0  0  0  0  0  0
   25.8533  -22.9647  -15.7275 C   0  0  0  0  0  0  0  0  0  0  0  0
   24.5505  -23.3815  -15.4472 C   0  0  0  0  0  0  0  0  0  0  0  0
   21.5220  -25.9984  -13.6558 C   0  0  0  0  0  0  0  0  0  0  0  0
   20.8075  -27.0377  -13.8559 O   0  0  0  0  0  0  0  0  0  0  0  0
   15.7729  -24.6575   -6.9255 O   0  0  0  0  0  0  0  0  0  0  0  0
   16.8369  -24.6669   -7.8481 C   0  0  0  0  0  0  0  0  0  0  0  0
   17.0074  -23.6299   -8.7432 C   0  0  0  0  0  0  0  0  0  0  0  0
   18.0438  -23.6149   -9.6584 C   0  0  0  0  0  0  0  0  0  0  0  0
   18.9502  -24.6526   -9.7029 C   0  0  0  0  0  0  0  0  0  0  0  0
   20.0291  -24.6717  -10.6721 C   0  0  0  0  0  0  0  0  0  0  0  0
   19.7602  -25.2061  -12.0252 C   0  0  2  0  0  0  0  0  0  0  0  0
   21.0227  -25.0089  -12.7904 N   0  0  0  0  0  0  0  0  0  0  0  0
   18.7155  -24.5237  -12.8107 C   0  0  0  0  0  0  0  0  0  0  0  0
   18.9640  -23.4563  -13.4457 O   0  0  0  0  0  0  0  0  0  0  0  0
   18.7903  -25.6910   -8.8162 C   0  0  0  0  0  0  0  0  0  0  0  0
   17.7409  -25.7039   -7.8910 C   0  0  0  0  0  0  0  0  0  0  0  0
   14.2692  -24.1668  -14.8636 C   0  0  0  0  0  0  0  0  0  0  0  0
   15.2902  -25.0885  -14.2312 C   0  0  1  0  0  0  0  0  0  0  0  0
   15.8417  -25.8454  -15.2646 O   0  0  0  0  0  0  0  0  0  0  0  0
   16.3583  -24.2142  -13.5851 C   0  0  2  0  0  0  0  0  0  0  0  0
   17.3669  -24.9862  -12.9346 N   0  0  0  0  0  0  0  0  0  0  0  0
   15.7576  -23.1750  -12.7413 C   0  0  0  0  0  0  0  0  0  0  0  0
   15.3167  -23.4364  -11.5656 O   0  0  0  0  0  0  0  0  0  0  0  0
   15.6241  -21.8645  -13.1391 O   0  0  0  0  0  0  0  0  0  0  0  0
  2  1  1  6
  3  2  1  0
  3  4  1  0
  4  9  1  0
  4  5  2  0
  5  6  1  0
  6  7  2  0
  8  7  1  0
  9  8  2  0
 10 19  1  0
 10  2  1  0
 11 10  2  0
 12 13  1  0
 13 14  2  0
 14 15  1  0
 16 17  1  0
 16 15  2  0
 18 17  1  1
 18 19  1  0
 20 18  1  0
 21 20  2  0
 22 16  1  0
 23 22  2  0
 23 13  1  0
 25 27  1  0
 25 24  1  6
 25 26  1  0
 27 28  1  1
 28 20  1  0
 29 27  1  0
 29 31  1  0
 30 29  2  0
M  END
$$$$
