FYT.pdb
     RDKit          3D

 31 32  0  0  1  0  0  0  0  0999 V2000
   22.4389  -12.2480  -20.8182 N   0  0  0  0  0  0  0  0  0  0  0  0
   22.8982  -13.3389  -20.0225 C   0  0  1  0  0  0  0  0  0  0  0  0
   24.1683  -13.0450  -19.2574 C   0  0  0  0  0  0  0  0  0  0  0  0
   25.2049  -12.6796  -20.2477 C   0  0  0  0  0  0  0  0  0  0  0  0
   25.3094  -11.3735  -20.6688 C   0  0  0  0  0  0  0  0  0  0  0  0
   26.2761  -11.0215  -21.5959 C   0  0  0  0  0  0  0  0  0  0  0  0
   27.0945  -12.0091  -22.0553 C   0  0  0  0  0  0  0  0  0  0  0  0
   27.0249  -13.3295  -21.6610 C   0  0  0  0  0  0  0  0  0  0  0  0
   26.0469  -13.6742  -20.7260 C   0  0  0  0  0  0  0  0  0  0  0  0
   21.8425  -13.9142  -19.1556 C   0  0  0  0  0  0  0  0  0  0  0  0
   21.2038  -13.0951  -18.4128 O   0  0  0  0  0  0  0  0  0  0  0  0
   14.3056  -15.9184  -15.9279 O   0  0  0  0  0  0  0  0  0  0  0  0
   15.5159  -15.6781  -16.6068 C   0  0  0  0  0  0  0  0  0  0  0  0
   16.0187  -16.5976  -17.5053 C   0  0  0  0  0  0  0  0  0  0  0  0
   17.2040  -16.3854  -18.1850 C   0  0  0  0  0  0  0  0  0  0  0  0
   17.9283  -15.2304  -17.9803 C   0  0  0  0  0  0  0  0  0  0  0  0
   19.1877  -14.9984  -18.6613 C   0  0  0  0  0  0  0  0  0  0  0  0
   20.3817  -15.7562  -18.2263 C   0  0  2  0  0  0  0  0  0  0  0  0
   21.4959  -15.2755  -19.0898 N   0  0  0  0  0  0  0  0  0  0  0  0
   20.3426  -17.2180  -18.4151 C   0  0  0  0  0  0  0  0  0  0  0  0
   19.4529  -17.9279  -17.8593 O   0  0  0  0  0  0  0  0  0  0  0  0
   17.4373  -14.3074  -17.0875 C   0  0  0  0  0  0  0  0  0  0  0  0
   16.2377  -14.5244  -16.4011 C   0  0  0  0  0  0  0  0  0  0  0  0
   22.4606  -21.4616  -19.6676 C   0  0  0  0  0  0  0  0  0  0  0  0
   22.6140  -19.9994  -19.3062 C   0  0  1  0  0  0  0  0  0  0  0  0
   23.4141  -19.4241  -20.2929 O   0  0  0  0  0  0  0  0  0  0  0  0
   21.2233  -19.3761  -19.3201 C   0  0  2  0  0  0  0  0  0  0  0  0
   21.2686  -17.9532  -19.2213 N   0  0  0  0  0  0  0  0  0  0  0  0
   20.3409  -20.0199  -18.3405 C   0  0  0  0  0  0  0  0  0  0  0  0
   20.3331  -19.6646  -17.1082 O   0  0  0  0  0  0  0  0  0  0  0  0
   19.4699  -21.0352  -18.6630 O   0  0  0  0  0  0  0  0  0  0  0  0
  2  1  1  1
  3  2  1  0
  3  4  1  0
  4  9  1  0
  4  5  2  0
  5  6  1  0
  6  7  2  0
  8  7  1  0
  9  8  2  0
 10 19  1  0
 10  2  1  0
 11 10  2  0
 12 13  1  0
 13 14  2  0
 14 15  1  0
 16 17  1  0
 16 15  2  0
 18 17  1  6
 18 19  1  0
 20 18  1  0
 21 20  2  0
 22 16  1  0
 23 22  2  0
 23 13  1  0
 25 27  1  0
 25 24  1  6
 25 26  1  0
 27 28  1  1
 28 20  1  0
 29 27  1  0
 29 31  1  0
 30 29  2  0
M  END
$$$$
