FYT.pdb
     RDKit          3D

 31 32  0  0  1  0  0  0  0  0999 V2000
   25.1409  -18.0024  -19.3032 N   0  0  0  0  0  0  0  0  0  0  0  0
   24.2004  -17.6493  -18.2908 C   0  0  1  0  0  0  0  0  0  0  0  0
   22.9567  -16.9734  -18.8209 C   0  0  0  0  0  0  0  0  0  0  0  0
   23.3702  -15.6703  -19.3863 C   0  0  0  0  0  0  0  0  0  0  0  0
   23.6084  -14.6100  -18.5418 C   0  0  0  0  0  0  0  0  0  0  0  0
   23.9954  -13.3860  -19.0613 C   0  0  0  0  0  0  0  0  0  0  0  0
   24.1240  -13.2907  -20.4143 C   0  0  0  0  0  0  0  0  0  0  0  0
   23.8955  -14.3264  -21.2968 C   0  0  0  0  0  0  0  0  0  0  0  0
   23.5057  -15.5563  -20.7631 C   0  0  0  0  0  0  0  0  0  0  0  0
   23.8816  -18.7695  -17.3738 C   0  0  0  0  0  0  0  0  0  0  0  0
   23.8126  -19.9330  -17.8957 O   0  0  0  0  0  0  0  0  0  0  0  0
   29.5874  -21.5940  -16.5780 O   0  0  0  0  0  0  0  0  0  0  0  0
   28.3637  -21.1848  -16.0136 C   0  0  0  0  0  0  0  0  0  0  0  0
   28.1447  -19.8635  -15.6793 C   0  0  0  0  0  0  0  0  0  0  0  0
   26.9524  -19.4360  -15.1246 C   0  0  0  0  0  0  0  0  0  0  0  0
   25.9328  -20.3328  -14.8861 C   0  0  0  0  0  0  0  0  0  0  0  0
   24.6839  -19.9124  -14.2801 C   0  0  0  0  0  0  0  0  0  0  0  0
   23.4705  -19.8465  -15.1241 C   0  0  2  0  0  0  0  0  0  0  0  0
   23.6523  -18.6496  -15.9917 N   0  0  0  0  0  0  0  0  0  0  0  0
   22.1896  -19.6332  -14.4258 C   0  0  0  0  0  0  0  0  0  0  0  0
   22.0584  -18.7178  -13.5604 O   0  0  0  0  0  0  0  0  0  0  0  0
   26.1398  -21.6515  -15.2149 C   0  0  0  0  0  0  0  0  0  0  0  0
   27.3470  -22.0816  -15.7762 C   0  0  0  0  0  0  0  0  0  0  0  0
   19.0496  -18.5486  -15.6282 C   0  0  0  0  0  0  0  0  0  0  0  0
   18.6445  -19.7973  -14.8741 C   0  0  1  0  0  0  0  0  0  0  0  0
   18.4546  -20.7976  -15.8270 O   0  0  0  0  0  0  0  0  0  0  0  0
   19.7942  -20.1628  -13.9426 C   0  0  2  0  0  0  0  0  0  0  0  0
   21.0075  -20.4072  -14.6529 N   0  0  0  0  0  0  0  0  0  0  0  0
   19.4107  -21.2359  -13.0184 C   0  0  0  0  0  0  0  0  0  0  0  0
   19.9526  -22.3970  -13.0757 O   0  0  0  0  0  0  0  0  0  0  0  0
   18.4583  -21.0817  -12.0374 O   0  0  0  0  0  0  0  0  0  0  0  0
  2  1  1  6
  3  2  1  0
  3  4  1  0
  4  9  1  0
  4  5  2  0
  5  6  1  0
  6  7  2  0
  8  7  1  0
  9  8  2  0
 10 19  1  0
 10  2  1  0
 11 10  2  0
 12 13  1  0
 13 14  2  0
 14 15  1  0
 16 17  1  0
 16 15  2  0
 18 17  1  1
 18 19  1  0
 20 18  1  0
 21 20  2  0
 22 16  1  0
 23 22  2  0
 23 13  1  0
 25 27  1  0
 25 24  1  6
 25 26  1  0
 27 28  1  6
 28 20  1  0
 29 27  1  0
 29 31  1  0
 30 29  2  0
M  END
$$$$
