VEM.pdb
     RDKit          3D

 25 24  0  0  1  0  0  0  0  0999 V2000
    7.3714  -12.9786   20.8588 C   0  0  0  0  0  0  0  0  0  0  0  0
    8.4082  -13.2965   19.7628 C   0  0  2  0  0  0  0  0  0  0  0  0
    7.8913  -12.5485   18.5223 C   0  0  0  0  0  0  0  0  0  0  0  0
    8.3738  -14.7717   19.5234 C   0  0  2  0  0  0  0  0  0  0  0  0
    6.9723  -15.0500   19.0679 N   0  0  0  0  0  0  0  0  0  0  0  0
    8.6066  -15.6518   20.6528 C   0  0  0  0  0  0  0  0  0  0  0  0
    7.5892  -15.9785   21.3843 O   0  0  0  0  0  0  0  0  0  0  0  0
    9.8442  -16.1959   21.0370 N   0  0  0  0  0  0  0  0  0  0  0  0
    9.9431  -17.0333   22.2539 C   0  0  1  0  0  0  0  0  0  0  0  0
   11.1417  -17.9177   22.1136 C   0  0  0  0  0  0  0  0  0  0  0  0
   11.3953  -18.8403   23.2533 C   0  0  0  0  0  0  0  0  0  0  0  0
   12.6500  -19.6129   23.1338 C   0  0  0  0  0  0  0  0  0  0  0  0
   13.5894  -19.4419   23.9131 O   0  0  0  0  0  0  0  0  0  0  0  0
    9.9695  -16.1514   23.4244 C   0  0  0  0  0  0  0  0  0  0  0  0
   10.8849  -15.2439   23.4511 O   0  0  0  0  0  0  0  0  0  0  0  0
   12.7848  -20.5713   22.1057 O   0  0  0  0  0  0  0  0  0  0  0  0
    7.0556  -10.8445   26.1149 C   0  0  0  0  0  0  0  0  0  0  0  0
    6.5872  -12.3981   26.8631 S   0  0  0  0  0  0  0  0  0  0  0  0
    7.8505  -13.6559   26.9263 C   0  0  0  0  0  0  0  0  0  0  0  0
    8.0132  -14.4348   25.6818 C   0  0  0  0  0  0  0  0  0  0  0  0
    9.1502  -15.4084   25.6243 C   0  0  2  0  0  0  0  0  0  0  0  0
    9.0494  -16.2789   24.4696 N   0  0  0  0  0  0  0  0  0  0  0  0
    9.1182  -16.3448   26.8033 C   0  0  0  0  0  0  0  0  0  0  0  0
    8.8655  -17.5551   26.7414 O   0  0  0  0  0  0  0  0  0  0  0  0
    9.3890  -15.8584   28.1047 O   0  0  0  0  0  0  0  0  0  0  0  0
  2  1  1  1
  2  3  1  0
  4  2  1  0
  4  5  1  1
  6  7  2  0
  6  4  1  0
  8  6  1  0
  9  8  1  0
  9 10  1  6
 11 10  1  0
 12 11  1  0
 13 12  2  0
 14 15  2  0
 14  9  1  0
 16 12  1  0
 18 17  1  0
 19 18  1  0
 19 20  1  0
 21 20  1  1
 21 22  1  0
 21 23  1  0
 22 14  1  0
 23 25  1  0
 24 23  2  0
M  END
$$$$
