VEM.pdb
     RDKit          3D

 25 24  0  0  1  0  0  0  0  0999 V2000
    7.9519  -14.7964   18.3549 C   0  0  0  0  0  0  0  0  0  0  0  0
    7.6648  -13.5584   19.2278 C   0  0  2  0  0  0  0  0  0  0  0  0
    7.7562  -12.3746   18.2502 C   0  0  0  0  0  0  0  0  0  0  0  0
    8.7521  -13.4648   20.2496 C   0  0  2  0  0  0  0  0  0  0  0  0
   10.0133  -13.3243   19.4503 N   0  0  0  0  0  0  0  0  0  0  0  0
    8.9626  -14.5999   21.1277 C   0  0  0  0  0  0  0  0  0  0  0  0
    8.0097  -14.9165   21.9455 O   0  0  0  0  0  0  0  0  0  0  0  0
   10.1138  -15.4046   21.1791 N   0  0  0  0  0  0  0  0  0  0  0  0
   10.1814  -16.5475   22.1177 C   0  0  1  0  0  0  0  0  0  0  0  0
   11.2004  -17.5137   21.6013 C   0  0  0  0  0  0  0  0  0  0  0  0
   11.3373  -18.7769   22.3759 C   0  0  0  0  0  0  0  0  0  0  0  0
   12.3782  -19.6899   21.8580 C   0  0  0  0  0  0  0  0  0  0  0  0
   12.9596  -20.4891   22.5944 O   0  0  0  0  0  0  0  0  0  0  0  0
   10.4571  -16.0303   23.4612 C   0  0  0  0  0  0  0  0  0  0  0  0
   11.3318  -15.0879   23.5559 O   0  0  0  0  0  0  0  0  0  0  0  0
   12.7215  -19.6527   20.4889 O   0  0  0  0  0  0  0  0  0  0  0  0
    5.9603  -12.4897   26.5889 C   0  0  0  0  0  0  0  0  0  0  0  0
    7.7287  -12.3121   26.7732 S   0  0  0  0  0  0  0  0  0  0  0  0
    8.6559  -13.8217   26.9812 C   0  0  0  0  0  0  0  0  0  0  0  0
    8.9459  -14.5491   25.7287 C   0  0  0  0  0  0  0  0  0  0  0  0
    9.8215  -15.7607   25.8248 C   0  0  2  0  0  0  0  0  0  0  0  0
    9.8074  -16.5281   24.5950 N   0  0  0  0  0  0  0  0  0  0  0  0
    9.3066  -16.7164   26.8685 C   0  0  0  0  0  0  0  0  0  0  0  0
    8.7132  -17.7762   26.6292 O   0  0  0  0  0  0  0  0  0  0  0  0
    9.4864  -16.4315   28.2433 O   0  0  0  0  0  0  0  0  0  0  0  0
  2  1  1  6
  2  3  1  0
  4  2  1  0
  4  5  1  6
  6  7  2  0
  6  4  1  0
  8  6  1  0
  9  8  1  0
  9 10  1  6
 11 10  1  0
 12 11  1  0
 13 12  2  0
 14 15  2  0
 14  9  1  0
 16 12  1  0
 18 17  1  0
 19 18  1  0
 19 20  1  0
 21 20  1  6
 21 22  1  0
 21 23  1  0
 22 14  1  0
 23 25  1  0
 24 23  2  0
M  END
$$$$
