VEM.pdb
     RDKit          3D

 25 24  0  0  1  0  0  0  0  0999 V2000
    7.6489  -12.6792   18.3351 C   0  0  0  0  0  0  0  0  0  0  0  0
    7.6704  -13.4756   19.6551 C   0  0  2  0  0  0  0  0  0  0  0  0
    8.5497  -12.6321   20.5936 C   0  0  0  0  0  0  0  0  0  0  0  0
    8.3285  -14.7892   19.3788 C   0  0  2  0  0  0  0  0  0  0  0  0
    7.3261  -15.5525   18.5652 N   0  0  0  0  0  0  0  0  0  0  0  0
    8.6543  -15.6398   20.5077 C   0  0  0  0  0  0  0  0  0  0  0  0
    7.6744  -16.1689   21.1686 O   0  0  0  0  0  0  0  0  0  0  0  0
    9.9468  -15.9543   20.9614 N   0  0  0  0  0  0  0  0  0  0  0  0
   10.1283  -16.8000   22.1629 C   0  0  1  0  0  0  0  0  0  0  0  0
   11.4954  -17.4051   22.1036 C   0  0  0  0  0  0  0  0  0  0  0  0
   11.8583  -18.2841   23.2481 C   0  0  0  0  0  0  0  0  0  0  0  0
   13.2077  -18.8789   23.1452 C   0  0  0  0  0  0  0  0  0  0  0  0
   13.7390  -19.0878   22.0529 O   0  0  0  0  0  0  0  0  0  0  0  0
    9.8753  -15.9801   23.3513 C   0  0  0  0  0  0  0  0  0  0  0  0
   10.4658  -14.8355   23.4074 O   0  0  0  0  0  0  0  0  0  0  0  0
   13.9123  -19.2194   24.3206 O   0  0  0  0  0  0  0  0  0  0  0  0
    6.9267  -11.3241   27.8580 C   0  0  0  0  0  0  0  0  0  0  0  0
    7.2551  -12.3369   26.4232 S   0  0  0  0  0  0  0  0  0  0  0  0
    7.0362  -14.0950   26.6315 C   0  0  0  0  0  0  0  0  0  0  0  0
    7.4472  -14.9130   25.4722 C   0  0  0  0  0  0  0  0  0  0  0  0
    8.8030  -15.5476   25.5253 C   0  0  2  0  0  0  0  0  0  0  0  0
    9.0340  -16.4092   24.3826 N   0  0  0  0  0  0  0  0  0  0  0  0
    8.9234  -16.4631   26.7150 C   0  0  0  0  0  0  0  0  0  0  0  0
    8.7447  -16.1242   27.8921 O   0  0  0  0  0  0  0  0  0  0  0  0
    9.2652  -17.8245   26.5322 O   0  0  0  0  0  0  0  0  0  0  0  0
  2  1  1  6
  2  3  1  0
  4  2  1  0
  4  5  1  6
  6  7  2  0
  6  4  1  0
  8  6  1  0
  9  8  1  0
  9 10  1  1
 11 10  1  0
 12 11  1  0
 13 12  2  0
 14 15  2  0
 14  9  1  0
 16 12  1  0
 18 17  1  0
 19 18  1  0
 19 20  1  0
 21 20  1  6
 21 22  1  0
 21 23  1  0
 22 14  1  0
 23 25  1  0
 24 23  2  0
M  END
$$$$
