VEM.pdb
     RDKit          3D

 25 24  0  0  1  0  0  0  0  0999 V2000
    7.5516  -12.6723   18.5590 C   0  0  0  0  0  0  0  0  0  0  0  0
    7.6772  -13.4525   19.8829 C   0  0  2  0  0  0  0  0  0  0  0  0
    8.6719  -12.6278   20.7171 C   0  0  0  0  0  0  0  0  0  0  0  0
    8.2616  -14.7911   19.5639 C   0  0  2  0  0  0  0  0  0  0  0  0
    7.1661  -15.5227   18.8470 N   0  0  0  0  0  0  0  0  0  0  0  0
    8.6529  -15.6455   20.6689 C   0  0  0  0  0  0  0  0  0  0  0  0
    7.7140  -16.2249   21.3469 O   0  0  0  0  0  0  0  0  0  0  0  0
    9.9692  -15.9137   21.0821 N   0  0  0  0  0  0  0  0  0  0  0  0
   10.2184  -16.7827   22.2545 C   0  0  1  0  0  0  0  0  0  0  0  0
   11.5682  -17.4074   22.0916 C   0  0  0  0  0  0  0  0  0  0  0  0
   11.9851  -18.3281   23.1838 C   0  0  0  0  0  0  0  0  0  0  0  0
   13.3012  -18.9644   22.9643 C   0  0  0  0  0  0  0  0  0  0  0  0
   14.2186  -18.8466   23.7788 O   0  0  0  0  0  0  0  0  0  0  0  0
   10.0607  -15.9798   23.4706 C   0  0  0  0  0  0  0  0  0  0  0  0
   10.5310  -14.7797   23.4429 O   0  0  0  0  0  0  0  0  0  0  0  0
   13.5221  -19.7270   21.7966 O   0  0  0  0  0  0  0  0  0  0  0  0
    6.6539  -11.1910   26.4934 C   0  0  0  0  0  0  0  0  0  0  0  0
    6.2352  -12.9241   26.6108 S   0  0  0  0  0  0  0  0  0  0  0  0
    7.5951  -14.0485   26.8721 C   0  0  0  0  0  0  0  0  0  0  0  0
    7.9818  -14.8404   25.6866 C   0  0  0  0  0  0  0  0  0  0  0  0
    9.2549  -15.6254   25.7702 C   0  0  2  0  0  0  0  0  0  0  0  0
    9.4307  -16.4816   24.6137 N   0  0  0  0  0  0  0  0  0  0  0  0
    9.2269  -16.5751   26.9385 C   0  0  0  0  0  0  0  0  0  0  0  0
    9.1606  -17.8080   26.8492 O   0  0  0  0  0  0  0  0  0  0  0  0
    9.2769  -16.0754   28.2619 O   0  0  0  0  0  0  0  0  0  0  0  0
  2  1  1  6
  2  3  1  0
  4  2  1  0
  4  5  1  1
  6  7  2  0
  6  4  1  0
  8  6  1  0
  9  8  1  0
  9 10  1  6
 11 10  1  0
 12 11  1  0
 13 12  2  0
 14 15  2  0
 14  9  1  0
 16 12  1  0
 18 17  1  0
 19 18  1  0
 19 20  1  0
 21 20  1  6
 21 22  1  0
 21 23  1  0
 22 14  1  0
 23 25  1  0
 24 23  2  0
M  END
$$$$
