VEM.pdb
     RDKit          3D

 25 24  0  0  1  0  0  0  0  0999 V2000
    7.8212  -12.9616   18.0839 C   0  0  0  0  0  0  0  0  0  0  0  0
    7.7539  -13.6423   19.4657 C   0  0  2  0  0  0  0  0  0  0  0  0
    8.6648  -12.7821   20.3578 C   0  0  0  0  0  0  0  0  0  0  0  0
    8.3269  -15.0154   19.3206 C   0  0  2  0  0  0  0  0  0  0  0  0
    7.3219  -15.7609   18.4938 N   0  0  0  0  0  0  0  0  0  0  0  0
    8.5176  -15.8056   20.5220 C   0  0  0  0  0  0  0  0  0  0  0  0
    7.4618  -16.2047   21.1569 O   0  0  0  0  0  0  0  0  0  0  0  0
    9.7521  -16.1896   21.0731 N   0  0  0  0  0  0  0  0  0  0  0  0
    9.7969  -16.9300   22.3543 C   0  0  1  0  0  0  0  0  0  0  0  0
   10.9362  -17.8978   22.2926 C   0  0  0  0  0  0  0  0  0  0  0  0
   12.2150  -17.3507   21.7637 C   0  0  0  0  0  0  0  0  0  0  0  0
   13.3001  -18.3494   21.6622 C   0  0  0  0  0  0  0  0  0  0  0  0
   13.4437  -19.0459   20.6555 O   0  0  0  0  0  0  0  0  0  0  0  0
    9.8798  -15.9594   23.4497 C   0  0  0  0  0  0  0  0  0  0  0  0
   10.6444  -14.9376   23.2677 O   0  0  0  0  0  0  0  0  0  0  0  0
   14.1980  -18.5169   22.7390 O   0  0  0  0  0  0  0  0  0  0  0  0
    6.0858  -10.8968   27.6403 C   0  0  0  0  0  0  0  0  0  0  0  0
    6.2540  -12.2655   26.5041 S   0  0  0  0  0  0  0  0  0  0  0  0
    7.7540  -13.2217   26.6373 C   0  0  0  0  0  0  0  0  0  0  0  0
    7.9251  -14.2556   25.5962 C   0  0  0  0  0  0  0  0  0  0  0  0
    9.1814  -15.0705   25.6371 C   0  0  2  0  0  0  0  0  0  0  0  0
    9.1668  -16.1238   24.6413 N   0  0  0  0  0  0  0  0  0  0  0  0
    9.3097  -15.7977   26.9496 C   0  0  0  0  0  0  0  0  0  0  0  0
    9.2822  -15.2600   28.0643 O   0  0  0  0  0  0  0  0  0  0  0  0
    9.4770  -17.2031   26.9699 O   0  0  0  0  0  0  0  0  0  0  0  0
  2  1  1  6
  2  3  1  0
  4  2  1  0
  4  5  1  6
  6  7  2  0
  6  4  1  0
  8  6  1  0
  9  8  1  0
  9 10  1  6
 11 10  1  0
 12 11  1  0
 13 12  2  0
 14 15  2  0
 14  9  1  0
 16 12  1  0
 18 17  1  0
 19 18  1  0
 19 20  1  0
 21 20  1  1
 21 22  1  0
 21 23  1  0
 22 14  1  0
 23 25  1  0
 24 23  2  0
M  END
$$$$
