VEM.pdb
     RDKit          3D

 25 24  0  0  1  0  0  0  0  0999 V2000
    7.5081  -12.6094   18.3706 C   0  0  0  0  0  0  0  0  0  0  0  0
    7.5249  -13.3803   19.7058 C   0  0  2  0  0  0  0  0  0  0  0  0
    8.3772  -12.5044   20.6396 C   0  0  0  0  0  0  0  0  0  0  0  0
    8.2085  -14.6875   19.4635 C   0  0  2  0  0  0  0  0  0  0  0  0
    7.2429  -15.4714   18.6254 N   0  0  0  0  0  0  0  0  0  0  0  0
    8.5086  -15.5234   20.6104 C   0  0  0  0  0  0  0  0  0  0  0  0
    7.5176  -16.0923   21.2196 O   0  0  0  0  0  0  0  0  0  0  0  0
    9.7870  -15.7838   21.1331 N   0  0  0  0  0  0  0  0  0  0  0  0
    9.9481  -16.7059   22.2801 C   0  0  1  0  0  0  0  0  0  0  0  0
   11.3119  -17.3158   22.1985 C   0  0  0  0  0  0  0  0  0  0  0  0
   11.6566  -18.2652   23.2912 C   0  0  0  0  0  0  0  0  0  0  0  0
   13.0200  -18.8277   23.1912 C   0  0  0  0  0  0  0  0  0  0  0  0
   14.0159  -18.1600   23.4764 O   0  0  0  0  0  0  0  0  0  0  0  0
    9.6857  -15.9618   23.5155 C   0  0  0  0  0  0  0  0  0  0  0  0
   10.0826  -14.7358   23.5540 O   0  0  0  0  0  0  0  0  0  0  0  0
   13.1956  -20.1605   22.7592 O   0  0  0  0  0  0  0  0  0  0  0  0
    7.5707  -11.4856   27.1547 C   0  0  0  0  0  0  0  0  0  0  0  0
    6.4657  -12.7363   26.5163 S   0  0  0  0  0  0  0  0  0  0  0  0
    7.1653  -13.8821   25.3418 C   0  0  0  0  0  0  0  0  0  0  0  0
    7.4060  -15.2410   25.8687 C   0  0  0  0  0  0  0  0  0  0  0  0
    8.8087  -15.7630   25.8077 C   0  0  2  0  0  0  0  0  0  0  0  0
    9.0356  -16.5443   24.6079 N   0  0  0  0  0  0  0  0  0  0  0  0
    9.0759  -16.7237   26.9362 C   0  0  0  0  0  0  0  0  0  0  0  0
    8.9456  -17.9529   26.8675 O   0  0  0  0  0  0  0  0  0  0  0  0
    9.5102  -16.2399   28.1936 O   0  0  0  0  0  0  0  0  0  0  0  0
  2  1  1  6
  2  3  1  0
  4  2  1  0
  4  5  1  6
  6  7  2  0
  6  4  1  0
  8  6  1  0
  9  8  1  0
  9 10  1  1
 11 10  1  0
 12 11  1  0
 13 12  2  0
 14 15  2  0
 14  9  1  0
 16 12  1  0
 18 17  1  0
 19 18  1  0
 19 20  1  0
 21 20  1  6
 21 22  1  0
 21 23  1  0
 22 14  1  0
 23 25  1  0
 24 23  2  0
M  END
$$$$
