VEM.pdb
     RDKit          3D

 25 24  0  0  1  0  0  0  0  0999 V2000
    7.1539  -13.0627   21.2135 C   0  0  0  0  0  0  0  0  0  0  0  0
    8.1835  -13.1972   20.0738 C   0  0  2  0  0  0  0  0  0  0  0  0
    7.5574  -12.4214   18.9026 C   0  0  0  0  0  0  0  0  0  0  0  0
    8.2888  -14.6482   19.7298 C   0  0  2  0  0  0  0  0  0  0  0  0
    6.9082  -15.0355   19.2901 N   0  0  0  0  0  0  0  0  0  0  0  0
    8.6440  -15.5759   20.7868 C   0  0  0  0  0  0  0  0  0  0  0  0
    7.6905  -16.0378   21.5314 O   0  0  0  0  0  0  0  0  0  0  0  0
    9.9388  -16.0328   21.0868 N   0  0  0  0  0  0  0  0  0  0  0  0
   10.1576  -16.9542   22.2247 C   0  0  1  0  0  0  0  0  0  0  0  0
   11.4820  -17.6234   22.0332 C   0  0  0  0  0  0  0  0  0  0  0  0
   11.9310  -18.4907   23.1559 C   0  0  0  0  0  0  0  0  0  0  0  0
   13.2257  -19.1627   22.9160 C   0  0  0  0  0  0  0  0  0  0  0  0
   13.3802  -19.9501   21.9806 O   0  0  0  0  0  0  0  0  0  0  0  0
   10.0339  -16.1921   23.4707 C   0  0  0  0  0  0  0  0  0  0  0  0
   10.6196  -15.0445   23.5137 O   0  0  0  0  0  0  0  0  0  0  0  0
   14.3168  -18.9029   23.7738 O   0  0  0  0  0  0  0  0  0  0  0  0
    8.1183  -11.0823   26.6849 C   0  0  0  0  0  0  0  0  0  0  0  0
    7.0405  -12.4983   26.5241 S   0  0  0  0  0  0  0  0  0  0  0  0
    7.7694  -14.0884   26.8737 C   0  0  0  0  0  0  0  0  0  0  0  0
    8.0507  -14.9170   25.6836 C   0  0  0  0  0  0  0  0  0  0  0  0
    9.2043  -15.8690   25.7664 C   0  0  2  0  0  0  0  0  0  0  0  0
    9.3160  -16.6773   24.5683 N   0  0  0  0  0  0  0  0  0  0  0  0
    9.0001  -16.8682   26.8745 C   0  0  0  0  0  0  0  0  0  0  0  0
    8.8197  -16.5804   28.0650 O   0  0  0  0  0  0  0  0  0  0  0  0
    9.0062  -18.2549   26.5910 O   0  0  0  0  0  0  0  0  0  0  0  0
  2  1  1  1
  2  3  1  0
  4  2  1  0
  4  5  1  1
  6  7  2  0
  6  4  1  0
  8  6  1  0
  9  8  1  0
  9 10  1  6
 11 10  1  0
 12 11  1  0
 13 12  2  0
 14 15  2  0
 14  9  1  0
 16 12  1  0
 18 17  1  0
 19 18  1  0
 19 20  1  0
 21 20  1  6
 21 22  1  0
 21 23  1  0
 22 14  1  0
 23 25  1  0
 24 23  2  0
M  END
$$$$
