VEM.pdb
     RDKit          3D

 25 24  0  0  1  0  0  0  0  0999 V2000
    8.1541  -12.3309   18.3012 C   0  0  0  0  0  0  0  0  0  0  0  0
    7.9895  -13.6272   19.1196 C   0  0  2  0  0  0  0  0  0  0  0  0
    6.5541  -13.5515   19.6666 C   0  0  0  0  0  0  0  0  0  0  0  0
    8.9709  -13.5772   20.2462 C   0  0  2  0  0  0  0  0  0  0  0  0
   10.3133  -13.5333   19.5789 N   0  0  0  0  0  0  0  0  0  0  0  0
    9.0183  -14.7025   21.1602 C   0  0  0  0  0  0  0  0  0  0  0  0
    7.9371  -15.0017   21.8074 O   0  0  0  0  0  0  0  0  0  0  0  0
   10.1363  -15.5149   21.4159 N   0  0  0  0  0  0  0  0  0  0  0  0
   10.0179  -16.6797   22.3221 C   0  0  1  0  0  0  0  0  0  0  0  0
   11.1338  -17.6265   22.0105 C   0  0  0  0  0  0  0  0  0  0  0  0
   11.1726  -18.8656   22.8335 C   0  0  0  0  0  0  0  0  0  0  0  0
   12.3319  -19.7386   22.5518 C   0  0  0  0  0  0  0  0  0  0  0  0
   13.3580  -19.6880   23.2327 O   0  0  0  0  0  0  0  0  0  0  0  0
    9.9989  -16.1934   23.7047 C   0  0  0  0  0  0  0  0  0  0  0  0
   10.9678  -15.4236   24.0662 O   0  0  0  0  0  0  0  0  0  0  0  0
   12.2718  -20.6549   21.4792 O   0  0  0  0  0  0  0  0  0  0  0  0
    6.2622  -11.1816   26.0983 C   0  0  0  0  0  0  0  0  0  0  0  0
    6.2529  -12.9544   26.3209 S   0  0  0  0  0  0  0  0  0  0  0  0
    7.8004  -13.7939   26.0333 C   0  0  0  0  0  0  0  0  0  0  0  0
    7.7701  -15.2507   26.2752 C   0  0  0  0  0  0  0  0  0  0  0  0
    9.0106  -16.0265   25.9538 C   0  0  2  0  0  0  0  0  0  0  0  0
    8.9818  -16.5414   24.5990 N   0  0  0  0  0  0  0  0  0  0  0  0
    9.1178  -17.2544   26.8190 C   0  0  0  0  0  0  0  0  0  0  0  0
    9.3159  -17.2463   28.0409 O   0  0  0  0  0  0  0  0  0  0  0  0
    8.9910  -18.5418   26.2444 O   0  0  0  0  0  0  0  0  0  0  0  0
  2  1  1  6
  2  3  1  0
  4  2  1  0
  4  5  1  6
  6  7  2  0
  6  4  1  0
  8  6  1  0
  9  8  1  0
  9 10  1  1
 11 10  1  0
 12 11  1  0
 13 12  2  0
 14 15  2  0
 14  9  1  0
 16 12  1  0
 18 17  1  0
 19 18  1  0
 19 20  1  0
 21 20  1  1
 21 22  1  0
 21 23  1  0
 22 14  1  0
 23 25  1  0
 24 23  2  0
M  END
$$$$
