VEM.pdb
     RDKit          3D

 25 24  0  0  1  0  0  0  0  0999 V2000
    7.4637  -12.7854   18.3609 C   0  0  0  0  0  0  0  0  0  0  0  0
    7.6461  -13.5572   19.6831 C   0  0  2  0  0  0  0  0  0  0  0  0
    8.6317  -12.6973   20.4922 C   0  0  0  0  0  0  0  0  0  0  0  0
    8.2674  -14.8763   19.3535 C   0  0  2  0  0  0  0  0  0  0  0  0
    7.1976  -15.6266   18.6174 N   0  0  0  0  0  0  0  0  0  0  0  0
    8.6704  -15.7341   20.4516 C   0  0  0  0  0  0  0  0  0  0  0  0
    7.7388  -16.3201   21.1342 O   0  0  0  0  0  0  0  0  0  0  0  0
    9.9908  -15.9991   20.8536 N   0  0  0  0  0  0  0  0  0  0  0  0
   10.2512  -16.8008   22.0708 C   0  0  1  0  0  0  0  0  0  0  0  0
   11.5563  -17.5098   21.8902 C   0  0  0  0  0  0  0  0  0  0  0  0
   12.0251  -18.2991   23.0613 C   0  0  0  0  0  0  0  0  0  0  0  0
   13.3063  -19.0022   22.8386 C   0  0  0  0  0  0  0  0  0  0  0  0
   13.3911  -20.2291   22.9187 O   0  0  0  0  0  0  0  0  0  0  0  0
   10.1964  -15.9109   23.2343 C   0  0  0  0  0  0  0  0  0  0  0  0
   10.8816  -14.8208   23.1684 O   0  0  0  0  0  0  0  0  0  0  0  0
   14.4656  -18.2591   22.5265 O   0  0  0  0  0  0  0  0  0  0  0  0
    5.9665  -11.3445   27.5280 C   0  0  0  0  0  0  0  0  0  0  0  0
    6.2640  -12.6151   26.3074 S   0  0  0  0  0  0  0  0  0  0  0  0
    7.7897  -13.5247   26.4711 C   0  0  0  0  0  0  0  0  0  0  0  0
    8.0733  -14.4642   25.3671 C   0  0  0  0  0  0  0  0  0  0  0  0
    9.3410  -15.2580   25.4490 C   0  0  2  0  0  0  0  0  0  0  0  0
    9.4392  -16.2196   24.3686 N   0  0  0  0  0  0  0  0  0  0  0  0
    9.3724  -16.0959   26.7000 C   0  0  0  0  0  0  0  0  0  0  0  0
    9.1818  -15.6676   27.8457 O   0  0  0  0  0  0  0  0  0  0  0  0
    9.6360  -17.4842   26.6190 O   0  0  0  0  0  0  0  0  0  0  0  0
  2  1  1  6
  2  3  1  0
  4  2  1  0
  4  5  1  6
  6  7  2  0
  6  4  1  0
  8  6  1  0
  9  8  1  0
  9 10  1  6
 11 10  1  0
 12 11  1  0
 13 12  2  0
 14 15  2  0
 14  9  1  0
 16 12  1  0
 18 17  1  0
 19 18  1  0
 19 20  1  0
 21 20  1  6
 21 22  1  0
 21 23  1  0
 22 14  1  0
 23 25  1  0
 24 23  2  0
M  END
$$$$
