VEM.pdb
     RDKit          3D

 25 24  0  0  1  0  0  0  0  0999 V2000
    7.3554  -13.0720   20.4859 C   0  0  0  0  0  0  0  0  0  0  0  0
    8.4474  -13.3706   19.4393 C   0  0  2  0  0  0  0  0  0  0  0  0
    7.9183  -12.7304   18.1448 C   0  0  0  0  0  0  0  0  0  0  0  0
    8.5274  -14.8551   19.2817 C   0  0  2  0  0  0  0  0  0  0  0  0
    7.1506  -15.2662   18.8521 N   0  0  0  0  0  0  0  0  0  0  0  0
    8.8312  -15.6505   20.4560 C   0  0  0  0  0  0  0  0  0  0  0  0
    7.8486  -15.9843   21.2308 O   0  0  0  0  0  0  0  0  0  0  0  0
   10.1042  -16.1043   20.8420 N   0  0  0  0  0  0  0  0  0  0  0  0
   10.2519  -16.9983   22.0128 C   0  0  1  0  0  0  0  0  0  0  0  0
   11.5015  -17.8007   21.8304 C   0  0  0  0  0  0  0  0  0  0  0  0
   11.8594  -18.6972   22.9629 C   0  0  0  0  0  0  0  0  0  0  0  0
   13.1427  -19.4088   22.7841 C   0  0  0  0  0  0  0  0  0  0  0  0
   13.8405  -19.2388   21.7825 O   0  0  0  0  0  0  0  0  0  0  0  0
   10.2244  -16.1804   23.2289 C   0  0  0  0  0  0  0  0  0  0  0  0
   10.9798  -15.1358   23.2471 O   0  0  0  0  0  0  0  0  0  0  0  0
   13.5878  -20.3067   23.7789 O   0  0  0  0  0  0  0  0  0  0  0  0
    7.1100  -11.3666   28.0717 C   0  0  0  0  0  0  0  0  0  0  0  0
    7.1849  -12.4592   26.6599 S   0  0  0  0  0  0  0  0  0  0  0  0
    8.3618  -13.7961   26.7584 C   0  0  0  0  0  0  0  0  0  0  0  0
    8.4883  -14.6031   25.5276 C   0  0  0  0  0  0  0  0  0  0  0  0
    9.4954  -15.7120   25.5337 C   0  0  2  0  0  0  0  0  0  0  0  0
    9.4197  -16.5080   24.3246 N   0  0  0  0  0  0  0  0  0  0  0  0
    9.2140  -16.6896   26.6440 C   0  0  0  0  0  0  0  0  0  0  0  0
    8.7351  -17.8206   26.4891 O   0  0  0  0  0  0  0  0  0  0  0  0
    9.4985  -16.3417   27.9862 O   0  0  0  0  0  0  0  0  0  0  0  0
  2  1  1  1
  2  3  1  0
  4  2  1  0
  4  5  1  1
  6  7  2  0
  6  4  1  0
  8  6  1  0
  9  8  1  0
  9 10  1  6
 11 10  1  0
 12 11  1  0
 13 12  2  0
 14 15  2  0
 14  9  1  0
 16 12  1  0
 18 17  1  0
 19 18  1  0
 19 20  1  0
 21 20  1  6
 21 22  1  0
 21 23  1  0
 22 14  1  0
 23 25  1  0
 24 23  2  0
M  END
$$$$
