VEM.pdb
     RDKit          3D

 25 24  0  0  1  0  0  0  0  0999 V2000
    7.6979  -14.7405   18.1753 C   0  0  0  0  0  0  0  0  0  0  0  0
    7.6429  -13.4133   18.9580 C   0  0  2  0  0  0  0  0  0  0  0  0
    8.0185  -12.3434   17.9190 C   0  0  0  0  0  0  0  0  0  0  0  0
    8.6849  -13.4771   20.0281 C   0  0  2  0  0  0  0  0  0  0  0  0
    9.9874  -13.5355   19.2868 N   0  0  0  0  0  0  0  0  0  0  0  0
    8.6815  -14.6239   20.9162 C   0  0  0  0  0  0  0  0  0  0  0  0
    7.6465  -14.7978   21.6750 O   0  0  0  0  0  0  0  0  0  0  0  0
    9.7033  -15.5814   21.0359 N   0  0  0  0  0  0  0  0  0  0  0  0
    9.5830  -16.6785   22.0226 C   0  0  1  0  0  0  0  0  0  0  0  0
   10.5816  -17.7347   21.6677 C   0  0  0  0  0  0  0  0  0  0  0  0
   10.7113  -18.8494   22.6449 C   0  0  0  0  0  0  0  0  0  0  0  0
   11.7321  -19.8541   22.2791 C   0  0  0  0  0  0  0  0  0  0  0  0
   12.5355  -19.6544   21.3660 O   0  0  0  0  0  0  0  0  0  0  0  0
    9.7427  -16.1151   23.3664 C   0  0  0  0  0  0  0  0  0  0  0  0
   10.8290  -15.4614   23.6001 O   0  0  0  0  0  0  0  0  0  0  0  0
   11.7960  -21.0744   22.9866 O   0  0  0  0  0  0  0  0  0  0  0  0
    6.6847  -10.9600   27.6958 C   0  0  0  0  0  0  0  0  0  0  0  0
    6.4542  -12.5751   26.9672 S   0  0  0  0  0  0  0  0  0  0  0  0
    7.9299  -13.5453   26.7161 C   0  0  0  0  0  0  0  0  0  0  0  0
    7.7171  -14.8284   26.0160 C   0  0  0  0  0  0  0  0  0  0  0  0
    8.9346  -15.6150   25.6379 C   0  0  2  0  0  0  0  0  0  0  0  0
    8.7683  -16.2728   24.3569 N   0  0  0  0  0  0  0  0  0  0  0  0
    9.1718  -16.7411   26.6092 C   0  0  0  0  0  0  0  0  0  0  0  0
    8.8797  -17.9268   26.4059 O   0  0  0  0  0  0  0  0  0  0  0  0
    9.7705  -16.4819   27.8653 O   0  0  0  0  0  0  0  0  0  0  0  0
  2  1  1  6
  2  3  1  0
  4  2  1  0
  4  5  1  6
  6  7  2  0
  6  4  1  0
  8  6  1  0
  9  8  1  0
  9 10  1  6
 11 10  1  0
 12 11  1  0
 13 12  2  0
 14 15  2  0
 14  9  1  0
 16 12  1  0
 18 17  1  0
 19 18  1  0
 19 20  1  0
 21 20  1  1
 21 22  1  0
 21 23  1  0
 22 14  1  0
 23 25  1  0
 24 23  2  0
M  END
$$$$
