VEM.pdb
     RDKit          3D

 25 24  0  0  1  0  0  0  0  0999 V2000
    7.3104  -12.9440   21.7991 C   0  0  0  0  0  0  0  0  0  0  0  0
    8.2750  -13.2548   20.6371 C   0  0  2  0  0  0  0  0  0  0  0  0
    7.6030  -12.6233   19.4062 C   0  0  0  0  0  0  0  0  0  0  0  0
    8.3328  -14.7408   20.4839 C   0  0  2  0  0  0  0  0  0  0  0  0
    6.9351  -15.1390   20.1135 N   0  0  0  0  0  0  0  0  0  0  0  0
    8.6764  -15.5339   21.6487 C   0  0  0  0  0  0  0  0  0  0  0  0
    7.7070  -16.0131   22.3612 O   0  0  0  0  0  0  0  0  0  0  0  0
    9.9759  -15.8414   22.0869 N   0  0  0  0  0  0  0  0  0  0  0  0
   10.1771  -16.7430   23.2438 C   0  0  1  0  0  0  0  0  0  0  0  0
   11.2823  -17.6933   22.9060 C   0  0  0  0  0  0  0  0  0  0  0  0
   10.9619  -18.7056   21.8635 C   0  0  0  0  0  0  0  0  0  0  0  0
   12.0744  -19.6313   21.5622 C   0  0  0  0  0  0  0  0  0  0  0  0
   12.1441  -20.7467   22.0818 O   0  0  0  0  0  0  0  0  0  0  0  0
   10.4198  -15.9240   24.4350 C   0  0  0  0  0  0  0  0  0  0  0  0
   11.4962  -15.2147   24.4465 O   0  0  0  0  0  0  0  0  0  0  0  0
   13.0858  -19.2370   20.6592 O   0  0  0  0  0  0  0  0  0  0  0  0
    5.3241  -13.1759   26.8288 C   0  0  0  0  0  0  0  0  0  0  0  0
    6.8758  -12.2975   26.9447 S   0  0  0  0  0  0  0  0  0  0  0  0
    8.3210  -13.1694   26.3674 C   0  0  0  0  0  0  0  0  0  0  0  0
    8.7131  -14.3327   27.1889 C   0  0  0  0  0  0  0  0  0  0  0  0
    9.8695  -15.1547   26.7084 C   0  0  2  0  0  0  0  0  0  0  0  0
    9.5316  -15.9048   25.5149 N   0  0  0  0  0  0  0  0  0  0  0  0
   10.2400  -16.2071   27.7199 C   0  0  0  0  0  0  0  0  0  0  0  0
   10.7124  -15.9786   28.8411 O   0  0  0  0  0  0  0  0  0  0  0  0
   10.0560  -17.5779   27.4189 O   0  0  0  0  0  0  0  0  0  0  0  0
  2  1  1  1
  2  3  1  0
  4  2  1  0
  4  5  1  1
  6  7  2  0
  6  4  1  0
  8  6  1  0
  9  8  1  0
  9 10  1  6
 11 10  1  0
 12 11  1  0
 13 12  2  0
 14 15  2  0
 14  9  1  0
 16 12  1  0
 18 17  1  0
 19 18  1  0
 19 20  1  0
 21 20  1  1
 21 22  1  0
 21 23  1  0
 22 14  1  0
 23 25  1  0
 24 23  2  0
M  END
$$$$
