VEM.pdb
     RDKit          3D

 25 24  0  0  1  0  0  0  0  0999 V2000
    7.2183  -12.9001   21.2015 C   0  0  0  0  0  0  0  0  0  0  0  0
    8.1948  -13.2202   20.0521 C   0  0  2  0  0  0  0  0  0  0  0  0
    7.5906  -12.5072   18.8306 C   0  0  0  0  0  0  0  0  0  0  0  0
    8.1759  -14.7004   19.8431 C   0  0  2  0  0  0  0  0  0  0  0  0
    6.7491  -15.0185   19.5080 N   0  0  0  0  0  0  0  0  0  0  0  0
    8.5199  -15.5523   20.9655 C   0  0  0  0  0  0  0  0  0  0  0  0
    7.5663  -15.9165   21.7625 O   0  0  0  0  0  0  0  0  0  0  0  0
    9.8035  -16.0316   21.2782 N   0  0  0  0  0  0  0  0  0  0  0  0
   10.0067  -16.8963   22.4626 C   0  0  1  0  0  0  0  0  0  0  0  0
   11.2541  -17.6941   22.2474 C   0  0  0  0  0  0  0  0  0  0  0  0
   11.6221  -18.6201   23.3526 C   0  0  0  0  0  0  0  0  0  0  0  0
   12.8971  -19.3365   23.1373 C   0  0  0  0  0  0  0  0  0  0  0  0
   13.8653  -19.1680   23.8811 O   0  0  0  0  0  0  0  0  0  0  0  0
   10.0230  -16.0498   23.6592 C   0  0  0  0  0  0  0  0  0  0  0  0
   10.8375  -15.0505   23.6564 O   0  0  0  0  0  0  0  0  0  0  0  0
   13.0182  -20.2371   22.0566 O   0  0  0  0  0  0  0  0  0  0  0  0
    6.4332  -11.6779   26.0540 C   0  0  0  0  0  0  0  0  0  0  0  0
    7.7408  -12.0965   27.1976 S   0  0  0  0  0  0  0  0  0  0  0  0
    8.0745  -13.8356   27.4123 C   0  0  0  0  0  0  0  0  0  0  0  0
    8.1353  -14.6149   26.1589 C   0  0  0  0  0  0  0  0  0  0  0  0
    9.3282  -15.4979   25.9561 C   0  0  2  0  0  0  0  0  0  0  0  0
    9.1975  -16.3046   24.7588 N   0  0  0  0  0  0  0  0  0  0  0  0
    9.4521  -16.5014   27.0721 C   0  0  0  0  0  0  0  0  0  0  0  0
    9.2704  -17.7202   26.9538 O   0  0  0  0  0  0  0  0  0  0  0  0
    9.7995  -16.0746   28.3762 O   0  0  0  0  0  0  0  0  0  0  0  0
  2  1  1  1
  2  3  1  0
  4  2  1  0
  4  5  1  1
  6  7  2  0
  6  4  1  0
  8  6  1  0
  9  8  1  0
  9 10  1  6
 11 10  1  0
 12 11  1  0
 13 12  2  0
 14 15  2  0
 14  9  1  0
 16 12  1  0
 18 17  1  0
 19 18  1  0
 19 20  1  0
 21 20  1  1
 21 22  1  0
 21 23  1  0
 22 14  1  0
 23 25  1  0
 24 23  2  0
M  END
$$$$
