VEM.pdb
     RDKit          3D

 25 24  0  0  1  0  0  0  0  0999 V2000
    7.9096  -14.6962   17.9061 C   0  0  0  0  0  0  0  0  0  0  0  0
    7.6144  -13.5521   18.8965 C   0  0  2  0  0  0  0  0  0  0  0  0
    7.8286  -12.2713   18.0725 C   0  0  0  0  0  0  0  0  0  0  0  0
    8.6274  -13.6319   19.9930 C   0  0  2  0  0  0  0  0  0  0  0  0
    9.9389  -13.8055   19.2864 N   0  0  0  0  0  0  0  0  0  0  0  0
    8.5324  -14.7345   20.9307 C   0  0  0  0  0  0  0  0  0  0  0  0
    7.4312  -14.8662   21.5994 O   0  0  0  0  0  0  0  0  0  0  0  0
    9.5300  -15.6904   21.1885 N   0  0  0  0  0  0  0  0  0  0  0  0
    9.2644  -16.8103   22.1197 C   0  0  1  0  0  0  0  0  0  0  0  0
   10.3305  -17.8414   21.9229 C   0  0  0  0  0  0  0  0  0  0  0  0
   10.2547  -18.6080   20.6498 C   0  0  0  0  0  0  0  0  0  0  0  0
   11.3267  -19.6130   20.4882 C   0  0  0  0  0  0  0  0  0  0  0  0
   11.1126  -20.8160   20.6489 O   0  0  0  0  0  0  0  0  0  0  0  0
    9.1792  -16.2732   23.4809 C   0  0  0  0  0  0  0  0  0  0  0  0
   10.1189  -15.4726   23.8525 O   0  0  0  0  0  0  0  0  0  0  0  0
   12.6300  -19.1943   20.1419 O   0  0  0  0  0  0  0  0  0  0  0  0
    7.7560  -11.7133   27.8738 C   0  0  0  0  0  0  0  0  0  0  0  0
    6.4705  -12.6211   27.0277 S   0  0  0  0  0  0  0  0  0  0  0  0
    6.6232  -14.3983   27.0363 C   0  0  0  0  0  0  0  0  0  0  0  0
    6.9155  -15.0022   25.7203 C   0  0  0  0  0  0  0  0  0  0  0  0
    8.0497  -15.9781   25.6489 C   0  0  2  0  0  0  0  0  0  0  0  0
    8.1316  -16.6065   24.3451 N   0  0  0  0  0  0  0  0  0  0  0  0
    7.8366  -17.1230   26.6037 C   0  0  0  0  0  0  0  0  0  0  0  0
    7.7938  -17.0201   27.8366 O   0  0  0  0  0  0  0  0  0  0  0  0
    7.6673  -18.4385   26.1092 O   0  0  0  0  0  0  0  0  0  0  0  0
  2  1  1  6
  2  3  1  0
  4  2  1  0
  4  5  1  6
  6  7  2  0
  6  4  1  0
  8  6  1  0
  9  8  1  0
  9 10  1  1
 11 10  1  0
 12 11  1  0
 13 12  2  0
 14 15  2  0
 14  9  1  0
 16 12  1  0
 18 17  1  0
 19 18  1  0
 19 20  1  0
 21 20  1  6
 21 22  1  0
 21 23  1  0
 22 14  1  0
 23 25  1  0
 24 23  2  0
M  END
$$$$
