PCA.pdb
     RDKit          3D

 19 19  0  0  1  0  0  0  0  0999 V2000
    9.4190  -13.8709   18.8112 N   0  0  0  0  0  0  0  0  0  0  0  0
    8.7697  -12.8840   17.9361 C   0  0  0  0  0  0  0  0  0  0  0  0
    7.3159  -13.1074   18.2887 C   0  0  0  0  0  0  0  0  0  0  0  0
    7.3814  -13.2788   19.7982 C   0  0  0  0  0  0  0  0  0  0  0  0
    8.8155  -13.6678   20.0965 C   0  0  1  0  0  0  0  0  0  0  0  0
    8.8845  -14.8480   20.9761 C   0  0  0  0  0  0  0  0  0  0  0  0
    8.0411  -14.8716   21.9364 O   0  0  0  0  0  0  0  0  0  0  0  0
    9.7960  -15.9104   20.8198 N   0  0  0  0  0  0  0  0  0  0  0  0
    9.7618  -17.0235   21.7230 C   0  0  1  0  0  0  0  0  0  0  0  0
   10.5276  -18.2210   21.2010 C   0  0  0  0  0  0  0  0  0  0  0  0
    9.6836  -19.0472   19.8586 S   0  0  0  0  0  0  0  0  0  0  0  0
   10.3924  -16.5516   23.0076 C   0  0  0  0  0  0  0  0  0  0  0  0
   11.4083  -15.8100   23.0295 O   0  0  0  0  0  0  0  0  0  0  0  0
    9.4478  -16.2462   26.5277 C   0  0  0  0  0  0  0  0  0  0  0  0
   10.5237  -16.5380   25.5088 C   0  0  2  0  0  0  0  0  0  0  0  0
    9.8561  -16.9316   24.2708 N   0  0  0  0  0  0  0  0  0  0  0  0
   11.4581  -17.6005   25.9698 C   0  0  0  0  0  0  0  0  0  0  0  0
   11.3499  -18.7575   25.4942 O   0  0  0  0  0  0  0  0  0  0  0  0
   12.4540  -17.3743   26.9091 O   0  0  0  0  0  0  0  0  0  0  0  0
  1  5  1  0
  1  2  1  0
  3  2  1  0
  4  3  1  0
  4  5  1  0
  6  7  2  0
  5  6  1  1
  8  6  1  0
  9 12  1  0
  9  8  1  0
  9 10  1  6
 11 10  1  0
 12 16  1  0
 13 12  2  0
 15 14  1  1
 15 17  1  0
 16 15  1  0
 17 18  2  0
 17 19  1  0
M  END
$$$$
