PCA.pdb
     RDKit          3D

 19 19  0  0  1  0  0  0  0  0999 V2000
    8.4007  -15.1329   20.2763 N   0  0  0  0  0  0  0  0  0  0  0  0
    8.2493  -14.5230   18.9473 C   0  0  0  0  0  0  0  0  0  0  0  0
    7.2468  -13.4316   19.2501 C   0  0  0  0  0  0  0  0  0  0  0  0
    7.7472  -12.9074   20.5868 C   0  0  0  0  0  0  0  0  0  0  0  0
    8.5950  -14.0231   21.1641 C   0  0  1  0  0  0  0  0  0  0  0  0
    8.2300  -14.3124   22.5621 C   0  0  0  0  0  0  0  0  0  0  0  0
    8.1214  -13.2940   23.3270 O   0  0  0  0  0  0  0  0  0  0  0  0
    8.0034  -15.6027   23.0794 N   0  0  0  0  0  0  0  0  0  0  0  0
    7.5734  -15.7656   24.4376 C   0  0  1  0  0  0  0  0  0  0  0  0
    7.0863  -17.1692   24.7301 C   0  0  0  0  0  0  0  0  0  0  0  0
    5.7436  -17.6697   23.6607 S   0  0  0  0  0  0  0  0  0  0  0  0
    8.7688  -15.4636   25.3039 C   0  0  0  0  0  0  0  0  0  0  0  0
    9.9395  -15.7883   24.9775 O   0  0  0  0  0  0  0  0  0  0  0  0
    9.4470  -13.4043   28.3186 C   0  0  0  0  0  0  0  0  0  0  0  0
    9.7750  -14.5701   27.4164 C   0  0  2  0  0  0  0  0  0  0  0  0
    8.6208  -14.7873   26.5482 N   0  0  0  0  0  0  0  0  0  0  0  0
   10.0994  -15.8009   28.1873 C   0  0  0  0  0  0  0  0  0  0  0  0
    9.2720  -16.7452   28.2070 O   0  0  0  0  0  0  0  0  0  0  0  0
   11.2833  -15.9593   28.8933 O   0  0  0  0  0  0  0  0  0  0  0  0
  1  5  1  0
  1  2  1  0
  3  2  1  0
  4  3  1  0
  4  5  1  0
  6  7  2  0
  5  6  1  1
  8  6  1  0
  9 12  1  0
  9  8  1  0
  9 10  1  6
 11 10  1  0
 12 16  1  0
 13 12  2  0
 15 14  1  1
 15 17  1  0
 16 15  1  0
 17 18  2  0
 17 19  1  0
M  END
$$$$
