PCA.pdb
     RDKit          3D

 19 19  0  0  1  0  0  0  0  0999 V2000
    6.8635  -14.8892   21.3120 N   0  0  0  0  0  0  0  0  0  0  0  0
    6.5012  -14.5933   19.9183 C   0  0  0  0  0  0  0  0  0  0  0  0
    7.0787  -13.2037   19.7654 C   0  0  0  0  0  0  0  0  0  0  0  0
    8.4082  -13.3343   20.4917 C   0  0  0  0  0  0  0  0  0  0  0  0
    8.2485  -14.5290   21.4104 C   0  0  1  0  0  0  0  0  0  0  0  0
    8.6831  -14.2178   22.7836 C   0  0  0  0  0  0  0  0  0  0  0  0
    9.9397  -14.0418   22.9390 O   0  0  0  0  0  0  0  0  0  0  0  0
    7.8196  -14.1085   23.8909 N   0  0  0  0  0  0  0  0  0  0  0  0
    8.3130  -13.6011   25.1379 C   0  0  1  0  0  0  0  0  0  0  0  0
    7.2270  -12.9616   25.9773 C   0  0  0  0  0  0  0  0  0  0  0  0
    5.8041  -14.0236   26.1888 S   0  0  0  0  0  0  0  0  0  0  0  0
    8.8875  -14.7789   25.8818 C   0  0  0  0  0  0  0  0  0  0  0  0
    8.3644  -15.9223   25.8447 O   0  0  0  0  0  0  0  0  0  0  0  0
   12.1559  -15.6485   27.2639 C   0  0  0  0  0  0  0  0  0  0  0  0
   10.6555  -15.8085   27.3266 C   0  0  2  0  0  0  0  0  0  0  0  0
   10.0655  -14.6446   26.6703 N   0  0  0  0  0  0  0  0  0  0  0  0
   10.1639  -15.9359   28.7254 C   0  0  0  0  0  0  0  0  0  0  0  0
    9.4870  -15.0025   29.2224 O   0  0  0  0  0  0  0  0  0  0  0  0
   10.4189  -17.0468   29.5167 O   0  0  0  0  0  0  0  0  0  0  0  0
  1  5  1  0
  1  2  1  0
  3  2  1  0
  4  3  1  0
  4  5  1  0
  6  7  2  0
  5  6  1  1
  8  6  1  0
  9 12  1  0
  9  8  1  0
  9 10  1  1
 11 10  1  0
 12 16  1  0
 13 12  2  0
 15 14  1  1
 15 17  1  0
 16 15  1  0
 17 18  2  0
 17 19  1  0
M  END
$$$$
