PCA.pdb
     RDKit          3D

 19 19  0  0  1  0  0  0  0  0999 V2000
    6.9427  -14.6647   20.7308 N   0  0  0  0  0  0  0  0  0  0  0  0
    6.5608  -14.0784   19.4379 C   0  0  0  0  0  0  0  0  0  0  0  0
    7.1531  -12.6929   19.5703 C   0  0  0  0  0  0  0  0  0  0  0  0
    8.4928  -12.9853   20.2274 C   0  0  0  0  0  0  0  0  0  0  0  0
    8.3335  -14.3455   20.8766 C   0  0  1  0  0  0  0  0  0  0  0  0
    8.7949  -14.3347   22.2760 C   0  0  0  0  0  0  0  0  0  0  0  0
   10.0604  -14.2592   22.4401 O   0  0  0  0  0  0  0  0  0  0  0  0
    7.9470  -14.4007   23.3987 N   0  0  0  0  0  0  0  0  0  0  0  0
    8.5015  -14.3517   24.7202 C   0  0  1  0  0  0  0  0  0  0  0  0
    7.5957  -13.6443   25.7062 C   0  0  0  0  0  0  0  0  0  0  0  0
    5.9408  -14.3209   25.7299 S   0  0  0  0  0  0  0  0  0  0  0  0
    8.6921  -15.7811   25.1574 C   0  0  0  0  0  0  0  0  0  0  0  0
    7.7646  -16.6299   25.1166 O   0  0  0  0  0  0  0  0  0  0  0  0
   11.4267  -18.1199   25.5475 C   0  0  0  0  0  0  0  0  0  0  0  0
   10.1137  -17.6162   26.0981 C   0  0  2  0  0  0  0  0  0  0  0  0
    9.9503  -16.2380   25.6428 N   0  0  0  0  0  0  0  0  0  0  0  0
   10.0622  -17.6949   27.5833 C   0  0  0  0  0  0  0  0  0  0  0  0
    9.9733  -16.6337   28.2485 O   0  0  0  0  0  0  0  0  0  0  0  0
   10.1079  -18.8954   28.2774 O   0  0  0  0  0  0  0  0  0  0  0  0
  1  5  1  0
  1  2  1  0
  3  2  1  0
  4  3  1  0
  4  5  1  0
  6  7  2  0
  5  6  1  1
  8  6  1  0
  9 12  1  0
  9  8  1  0
  9 10  1  1
 11 10  1  0
 12 16  1  0
 13 12  2  0
 15 14  1  1
 15 17  1  0
 16 15  1  0
 17 18  2  0
 17 19  1  0
M  END
$$$$
