PCA.pdb
     RDKit          3D

 19 19  0  0  1  0  0  0  0  0999 V2000
    9.2108  -15.7706   20.6800 N   0  0  0  0  0  0  0  0  0  0  0  0
    9.4249  -17.0220   19.9388 C   0  0  0  0  0  0  0  0  0  0  0  0
    9.7922  -17.9593   21.0677 C   0  0  0  0  0  0  0  0  0  0  0  0
    8.8102  -17.5450   22.1522 C   0  0  0  0  0  0  0  0  0  0  0  0
    8.3724  -16.1419   21.7830 C   0  0  1  0  0  0  0  0  0  0  0  0
    8.4665  -15.2253   22.9330 C   0  0  0  0  0  0  0  0  0  0  0  0
    9.5732  -14.5963   23.0492 O   0  0  0  0  0  0  0  0  0  0  0  0
    7.4402  -15.0143   23.8743 N   0  0  0  0  0  0  0  0  0  0  0  0
    7.6237  -14.0672   24.9352 C   0  0  1  0  0  0  0  0  0  0  0  0
    6.3144  -13.6258   25.5549 C   0  0  0  0  0  0  0  0  0  0  0  0
    6.5459  -12.5187   26.9397 S   0  0  0  0  0  0  0  0  0  0  0  0
    8.4623  -14.7543   25.9818 C   0  0  0  0  0  0  0  0  0  0  0  0
    8.4129  -15.9956   26.1798 O   0  0  0  0  0  0  0  0  0  0  0  0
   10.9296  -13.6330   28.5700 C   0  0  0  0  0  0  0  0  0  0  0  0
   10.1980  -14.6969   27.7865 C   0  0  2  0  0  0  0  0  0  0  0  0
    9.3601  -14.0152   26.8035 N   0  0  0  0  0  0  0  0  0  0  0  0
    9.3790  -15.5756   28.6650 C   0  0  0  0  0  0  0  0  0  0  0  0
    8.1640  -15.3081   28.8346 O   0  0  0  0  0  0  0  0  0  0  0  0
    9.8964  -16.6880   29.3132 O   0  0  0  0  0  0  0  0  0  0  0  0
  1  5  1  0
  1  2  1  0
  3  2  1  0
  4  3  1  0
  4  5  1  0
  6  7  2  0
  5  6  1  1
  8  6  1  0
  9 12  1  0
  9  8  1  0
  9 10  1  1
 11 10  1  0
 12 16  1  0
 13 12  2  0
 15 14  1  1
 15 17  1  0
 16 15  1  0
 17 18  2  0
 17 19  1  0
M  END
$$$$
