PCA.pdb
     RDKit          3D

 19 19  0  0  1  0  0  0  0  0999 V2000
    7.5470  -15.3203   20.8355 N   0  0  0  0  0  0  0  0  0  0  0  0
    7.3051  -15.1299   19.3980 C   0  0  0  0  0  0  0  0  0  0  0  0
    7.2037  -13.6225   19.3260 C   0  0  0  0  0  0  0  0  0  0  0  0
    8.3204  -13.1874   20.2619 C   0  0  0  0  0  0  0  0  0  0  0  0
    8.5842  -14.3826   21.1555 C   0  0  1  0  0  0  0  0  0  0  0  0
    8.6167  -13.9983   22.5778 C   0  0  0  0  0  0  0  0  0  0  0  0
    9.5723  -13.2206   22.9183 O   0  0  0  0  0  0  0  0  0  0  0  0
    7.6858  -14.4269   23.5440 N   0  0  0  0  0  0  0  0  0  0  0  0
    7.6712  -13.8217   24.8438 C   0  0  1  0  0  0  0  0  0  0  0  0
    6.3181  -13.9191   25.5166 C   0  0  0  0  0  0  0  0  0  0  0  0
    6.2322  -12.9743   27.0322 S   0  0  0  0  0  0  0  0  0  0  0  0
    8.6918  -14.5597   25.6709 C   0  0  0  0  0  0  0  0  0  0  0  0
    8.9954  -15.7614   25.4556 O   0  0  0  0  0  0  0  0  0  0  0  0
   10.9228  -13.6703   28.5497 C   0  0  0  0  0  0  0  0  0  0  0  0
   10.3672  -14.6372   27.5312 C   0  0  2  0  0  0  0  0  0  0  0  0
    9.3662  -13.9174   26.7481 N   0  0  0  0  0  0  0  0  0  0  0  0
    9.7754  -15.8442   28.1695 C   0  0  0  0  0  0  0  0  0  0  0  0
    8.5267  -15.9348   28.2647 O   0  0  0  0  0  0  0  0  0  0  0  0
   10.5429  -16.8861   28.6702 O   0  0  0  0  0  0  0  0  0  0  0  0
  1  5  1  0
  1  2  1  0
  3  2  1  0
  4  3  1  0
  4  5  1  0
  6  7  2  0
  5  6  1  1
  8  6  1  0
  9 12  1  0
  9  8  1  0
  9 10  1  1
 11 10  1  0
 12 16  1  0
 13 12  2  0
 15 14  1  1
 15 17  1  0
 16 15  1  0
 17 18  2  0
 17 19  1  0
M  END
$$$$
