PCA.pdb
     RDKit          3D

 19 19  0  0  1  0  0  0  0  0999 V2000
    9.3234  -16.6906   20.0273 N   0  0  0  0  0  0  0  0  0  0  0  0
   10.2609  -17.1149   18.9775 C   0  0  0  0  0  0  0  0  0  0  0  0
   11.5045  -16.3574   19.3866 C   0  0  0  0  0  0  0  0  0  0  0  0
   11.4887  -16.5205   20.8983 C   0  0  0  0  0  0  0  0  0  0  0  0
   10.0529  -16.8528   21.2516 C   0  0  1  0  0  0  0  0  0  0  0  0
    9.5570  -16.0083   22.3526 C   0  0  0  0  0  0  0  0  0  0  0  0
    9.5838  -14.7484   22.1379 O   0  0  0  0  0  0  0  0  0  0  0  0
    9.0739  -16.4980   23.5817 N   0  0  0  0  0  0  0  0  0  0  0  0
    8.5516  -15.5894   24.5603 C   0  0  1  0  0  0  0  0  0  0  0  0
    7.1418  -15.9403   24.9873 C   0  0  0  0  0  0  0  0  0  0  0  0
    6.9549  -17.6720   25.3915 S   0  0  0  0  0  0  0  0  0  0  0  0
    9.4677  -15.6730   25.7537 C   0  0  0  0  0  0  0  0  0  0  0  0
   10.3109  -16.5958   25.8954 O   0  0  0  0  0  0  0  0  0  0  0  0
   10.1374  -13.5235   28.7465 C   0  0  0  0  0  0  0  0  0  0  0  0
   10.3001  -14.7940   27.9464 C   0  0  2  0  0  0  0  0  0  0  0  0
    9.4165  -14.6953   26.7876 N   0  0  0  0  0  0  0  0  0  0  0  0
    9.9881  -16.0063   28.7510 C   0  0  0  0  0  0  0  0  0  0  0  0
    8.8987  -16.6013   28.5618 O   0  0  0  0  0  0  0  0  0  0  0  0
   10.8501  -16.5178   29.7104 O   0  0  0  0  0  0  0  0  0  0  0  0
  1  5  1  0
  1  2  1  0
  3  2  1  0
  4  3  1  0
  4  5  1  0
  6  7  2  0
  5  6  1  1
  8  6  1  0
  9 12  1  0
  9  8  1  0
  9 10  1  1
 11 10  1  0
 12 16  1  0
 13 12  2  0
 15 14  1  1
 15 17  1  0
 16 15  1  0
 17 18  2  0
 17 19  1  0
M  END
$$$$
