PCA.pdb
     RDKit          3D

 19 19  0  0  1  0  0  0  0  0999 V2000
    8.3312  -13.2286   17.9222 N   0  0  0  0  0  0  0  0  0  0  0  0
    7.9285  -13.6033   16.5590 C   0  0  0  0  0  0  0  0  0  0  0  0
    8.3644  -15.0513   16.5239 C   0  0  0  0  0  0  0  0  0  0  0  0
    7.9507  -15.5375   17.9039 C   0  0  0  0  0  0  0  0  0  0  0  0
    7.8312  -14.2869   18.7514 C   0  0  1  0  0  0  0  0  0  0  0  0
    8.5512  -14.4281   20.0294 C   0  0  0  0  0  0  0  0  0  0  0  0
    9.7670  -14.0336   20.0252 O   0  0  0  0  0  0  0  0  0  0  0  0
    7.9910  -14.9549   21.2095 N   0  0  0  0  0  0  0  0  0  0  0  0
    8.7396  -14.9294   22.4322 C   0  0  1  0  0  0  0  0  0  0  0  0
    7.8579  -15.0469   23.6576 C   0  0  0  0  0  0  0  0  0  0  0  0
    7.0066  -13.5225   24.0430 S   0  0  0  0  0  0  0  0  0  0  0  0
    9.6806  -16.1052   22.3823 C   0  0  0  0  0  0  0  0  0  0  0  0
    9.3374  -17.2269   21.9279 O   0  0  0  0  0  0  0  0  0  0  0  0
   13.2980  -16.6163   22.4682 C   0  0  0  0  0  0  0  0  0  0  0  0
   11.9220  -17.1409   22.8030 C   0  0  2  0  0  0  0  0  0  0  0  0
   11.0191  -15.9940   22.8550 N   0  0  0  0  0  0  0  0  0  0  0  0
   11.9056  -17.8890   24.0893 C   0  0  0  0  0  0  0  0  0  0  0  0
   11.2483  -17.4290   25.0552 O   0  0  0  0  0  0  0  0  0  0  0  0
   12.5877  -19.0826   24.2770 O   0  0  0  0  0  0  0  0  0  0  0  0
  1  5  1  0
  1  2  1  0
  3  2  1  0
  4  3  1  0
  4  5  1  0
  6  7  2  0
  5  6  1  1
  8  6  1  0
  9 12  1  0
  9  8  1  0
  9 10  1  1
 11 10  1  0
 12 16  1  0
 13 12  2  0
 15 14  1  1
 15 17  1  0
 16 15  1  0
 17 18  2  0
 17 19  1  0
M  END
$$$$
