PCA.pdb
     RDKit          3D

 19 19  0  0  1  0  0  0  0  0999 V2000
    7.4204  -15.7216   21.0319 N   0  0  0  0  0  0  0  0  0  0  0  0
    7.1818  -15.6765   19.5820 C   0  0  0  0  0  0  0  0  0  0  0  0
    7.1025  -14.1831   19.3553 C   0  0  0  0  0  0  0  0  0  0  0  0
    8.2252  -13.6705   20.2436 C   0  0  0  0  0  0  0  0  0  0  0  0
    8.4712  -14.7712   21.2558 C   0  0  1  0  0  0  0  0  0  0  0  0
    8.5089  -14.2434   22.6311 C   0  0  0  0  0  0  0  0  0  0  0  0
    9.4833  -13.4594   22.8956 O   0  0  0  0  0  0  0  0  0  0  0  0
    7.5638  -14.5460   23.6306 N   0  0  0  0  0  0  0  0  0  0  0  0
    7.6038  -13.8574   24.8877 C   0  0  1  0  0  0  0  0  0  0  0  0
    6.2560  -13.8244   25.5770 C   0  0  0  0  0  0  0  0  0  0  0  0
    6.2836  -12.8884   27.1003 S   0  0  0  0  0  0  0  0  0  0  0  0
    8.5865  -14.6033   25.7529 C   0  0  0  0  0  0  0  0  0  0  0  0
    8.8259  -15.8290   25.6018 O   0  0  0  0  0  0  0  0  0  0  0  0
   10.7921  -13.7098   28.6492 C   0  0  0  0  0  0  0  0  0  0  0  0
   10.2923  -14.6589   27.5861 C   0  0  2  0  0  0  0  0  0  0  0  0
    9.2965  -13.9412   26.7945 N   0  0  0  0  0  0  0  0  0  0  0  0
    9.7136  -15.8993   28.1700 C   0  0  0  0  0  0  0  0  0  0  0  0
    8.4658  -16.0358   28.2002 O   0  0  0  0  0  0  0  0  0  0  0  0
   10.4923  -16.9240   28.6885 O   0  0  0  0  0  0  0  0  0  0  0  0
  1  5  1  0
  1  2  1  0
  3  2  1  0
  4  3  1  0
  4  5  1  0
  6  7  2  0
  5  6  1  1
  8  6  1  0
  9 12  1  0
  9  8  1  0
  9 10  1  1
 11 10  1  0
 12 16  1  0
 13 12  2  0
 15 14  1  1
 15 17  1  0
 16 15  1  0
 17 18  2  0
 17 19  1  0
M  END
$$$$
