PCA.pdb
     RDKit          3D

 19 19  0  0  1  0  0  0  0  0999 V2000
    7.1454  -15.2770   21.0142 N   0  0  0  0  0  0  0  0  0  0  0  0
    6.7797  -15.0821   19.6037 C   0  0  0  0  0  0  0  0  0  0  0  0
    6.9411  -13.5837   19.4747 C   0  0  0  0  0  0  0  0  0  0  0  0
    8.2164  -13.3359   20.2649 C   0  0  0  0  0  0  0  0  0  0  0  0
    8.3627  -14.5362   21.1784 C   0  0  1  0  0  0  0  0  0  0  0  0
    8.6245  -14.1286   22.5701 C   0  0  0  0  0  0  0  0  0  0  0  0
    9.7870  -13.6472   22.7955 O   0  0  0  0  0  0  0  0  0  0  0  0
    7.6964  -14.2377   23.6240 N   0  0  0  0  0  0  0  0  0  0  0  0
    7.9993  -13.6746   24.9074 C   0  0  1  0  0  0  0  0  0  0  0  0
    6.7723  -13.1329   25.6101 C   0  0  0  0  0  0  0  0  0  0  0  0
    7.1280  -12.5386   27.2586 S   0  0  0  0  0  0  0  0  0  0  0  0
    8.5945  -14.7862   25.7326 C   0  0  0  0  0  0  0  0  0  0  0  0
    8.0258  -15.8987   25.8787 O   0  0  0  0  0  0  0  0  0  0  0  0
   11.8957  -15.3884   27.3608 C   0  0  0  0  0  0  0  0  0  0  0  0
   10.4392  -15.7236   27.1439 C   0  0  2  0  0  0  0  0  0  0  0  0
    9.8457  -14.6210   26.3920 N   0  0  0  0  0  0  0  0  0  0  0  0
    9.7175  -15.9410   28.4270 C   0  0  0  0  0  0  0  0  0  0  0  0
    8.9876  -15.0254   28.8802 O   0  0  0  0  0  0  0  0  0  0  0  0
    9.8117  -17.1180   29.1558 O   0  0  0  0  0  0  0  0  0  0  0  0
  1  5  1  0
  1  2  1  0
  3  2  1  0
  4  3  1  0
  4  5  1  0
  6  7  2  0
  5  6  1  1
  8  6  1  0
  9 12  1  0
  9  8  1  0
  9 10  1  1
 11 10  1  0
 12 16  1  0
 13 12  2  0
 15 14  1  1
 15 17  1  0
 16 15  1  0
 17 18  2  0
 17 19  1  0
M  END
$$$$
