PCA.pdb
     RDKit          3D

 19 19  0  0  1  0  0  0  0  0999 V2000
    7.7664  -14.1292   19.2913 N   0  0  0  0  0  0  0  0  0  0  0  0
    6.9222  -13.0585   18.7418 C   0  0  0  0  0  0  0  0  0  0  0  0
    7.8826  -12.4138   17.7672 C   0  0  0  0  0  0  0  0  0  0  0  0
    8.5639  -13.6249   17.1498 C   0  0  0  0  0  0  0  0  0  0  0  0
    8.3558  -14.7519   18.1414 C   0  0  1  0  0  0  0  0  0  0  0  0
    9.6166  -15.4575   18.4312 C   0  0  0  0  0  0  0  0  0  0  0  0
   10.1534  -16.0597   17.4397 O   0  0  0  0  0  0  0  0  0  0  0  0
   10.2369  -15.5013   19.6950 N   0  0  0  0  0  0  0  0  0  0  0  0
   11.6672  -15.5345   19.7912 C   0  0  1  0  0  0  0  0  0  0  0  0
   12.3173  -14.2834   19.2390 C   0  0  0  0  0  0  0  0  0  0  0  0
   14.1031  -14.3712   19.2525 S   0  0  0  0  0  0  0  0  0  0  0  0
   11.9946  -15.6594   21.2567 C   0  0  0  0  0  0  0  0  0  0  0  0
   13.1770  -15.6901   21.6851 O   0  0  0  0  0  0  0  0  0  0  0  0
   10.0491  -15.6078   24.4418 C   0  0  0  0  0  0  0  0  0  0  0  0
   11.2912  -15.9298   23.6454 C   0  0  2  0  0  0  0  0  0  0  0  0
   10.9626  -15.7494   22.2337 N   0  0  0  0  0  0  0  0  0  0  0  0
   11.7804  -17.3111   23.9049 C   0  0  0  0  0  0  0  0  0  0  0  0
   11.6870  -18.1729   22.9966 O   0  0  0  0  0  0  0  0  0  0  0  0
   12.3408  -17.6986   25.1136 O   0  0  0  0  0  0  0  0  0  0  0  0
  1  5  1  0
  1  2  1  0
  3  2  1  0
  4  3  1  0
  4  5  1  0
  6  7  2  0
  5  6  1  1
  8  6  1  0
  9 12  1  0
  9  8  1  0
  9 10  1  1
 11 10  1  0
 12 16  1  0
 13 12  2  0
 15 14  1  1
 15 17  1  0
 16 15  1  0
 17 18  2  0
 17 19  1  0
M  END
$$$$
