PCA.pdb
     RDKit          3D

 19 19  0  0  1  0  0  0  0  0999 V2000
    6.7217  -14.6703   20.8093 N   0  0  0  0  0  0  0  0  0  0  0  0
    6.5777  -14.1181   19.4545 C   0  0  0  0  0  0  0  0  0  0  0  0
    7.3591  -12.8301   19.5901 C   0  0  0  0  0  0  0  0  0  0  0  0
    8.5581  -13.2751   20.4125 C   0  0  0  0  0  0  0  0  0  0  0  0
    8.1210  -14.5521   21.1018 C   0  0  1  0  0  0  0  0  0  0  0  0
    8.4239  -14.5199   22.5435 C   0  0  0  0  0  0  0  0  0  0  0  0
    9.6654  -14.5258   22.8477 O   0  0  0  0  0  0  0  0  0  0  0  0
    7.4541  -14.4844   23.5644 N   0  0  0  0  0  0  0  0  0  0  0  0
    7.8568  -14.5520   24.9389 C   0  0  1  0  0  0  0  0  0  0  0  0
    7.2125  -13.4766   25.7882 C   0  0  0  0  0  0  0  0  0  0  0  0
    5.4272  -13.5005   25.6931 S   0  0  0  0  0  0  0  0  0  0  0  0
    7.4301  -15.9062   25.4436 C   0  0  0  0  0  0  0  0  0  0  0  0
    6.2222  -16.2486   25.5221 O   0  0  0  0  0  0  0  0  0  0  0  0
    7.9424  -19.1546   25.3024 C   0  0  0  0  0  0  0  0  0  0  0  0
    7.9652  -18.1468   26.4269 C   0  0  2  0  0  0  0  0  0  0  0  0
    8.3919  -16.8704   25.8593 N   0  0  0  0  0  0  0  0  0  0  0  0
    8.8672  -18.5639   27.5346 C   0  0  0  0  0  0  0  0  0  0  0  0
    9.9159  -17.9074   27.7486 O   0  0  0  0  0  0  0  0  0  0  0  0
    8.6046  -19.6540   28.3518 O   0  0  0  0  0  0  0  0  0  0  0  0
  1  5  1  0
  1  2  1  0
  3  2  1  0
  4  3  1  0
  4  5  1  0
  6  7  2  0
  5  6  1  1
  8  6  1  0
  9 12  1  0
  9  8  1  0
  9 10  1  1
 11 10  1  0
 12 16  1  0
 13 12  2  0
 15 14  1  6
 15 17  1  0
 16 15  1  0
 17 18  2  0
 17 19  1  0
M  END
$$$$
