PCA.pdb
     RDKit          3D

 19 19  0  0  1  0  0  0  0  0999 V2000
   11.0773  -20.3087   18.3040 N   0  0  0  0  0  0  0  0  0  0  0  0
   11.0373  -20.9039   16.9604 C   0  0  0  0  0  0  0  0  0  0  0  0
    9.6597  -20.4778   16.5038 C   0  0  0  0  0  0  0  0  0  0  0  0
    9.5888  -19.0466   17.0125 C   0  0  0  0  0  0  0  0  0  0  0  0
   10.6233  -18.9610   18.1168 C   0  0  1  0  0  0  0  0  0  0  0  0
   10.0646  -18.3497   19.3357 C   0  0  0  0  0  0  0  0  0  0  0  0
    9.6343  -17.1530   19.2064 O   0  0  0  0  0  0  0  0  0  0  0  0
    9.9833  -18.9907   20.5873 N   0  0  0  0  0  0  0  0  0  0  0  0
    9.4142  -18.3031   21.7095 C   0  0  1  0  0  0  0  0  0  0  0  0
    8.4172  -19.1530   22.4690 C   0  0  0  0  0  0  0  0  0  0  0  0
    9.1803  -20.5530   23.2781 S   0  0  0  0  0  0  0  0  0  0  0  0
   10.5610  -17.9486   22.6204 C   0  0  0  0  0  0  0  0  0  0  0  0
   11.6194  -18.6266   22.6700 O   0  0  0  0  0  0  0  0  0  0  0  0
   11.3728  -15.1269   24.9306 C   0  0  0  0  0  0  0  0  0  0  0  0
   11.5638  -16.5397   24.4323 C   0  0  2  0  0  0  0  0  0  0  0  0
   10.4933  -16.8131   23.4769 N   0  0  0  0  0  0  0  0  0  0  0  0
   11.5519  -17.5312   25.5419 C   0  0  0  0  0  0  0  0  0  0  0  0
   12.5182  -17.5630   26.3431 O   0  0  0  0  0  0  0  0  0  0  0  0
   10.5153  -18.4324   25.7377 O   0  0  0  0  0  0  0  0  0  0  0  0
  1  5  1  0
  1  2  1  0
  3  2  1  0
  4  3  1  0
  4  5  1  0
  6  7  2  0
  5  6  1  1
  8  6  1  0
  9 12  1  0
  9  8  1  0
  9 10  1  1
 11 10  1  0
 12 16  1  0
 13 12  2  0
 15 14  1  1
 15 17  1  0
 16 15  1  0
 17 18  2  0
 17 19  1  0
M  END
$$$$
