PCA.pdb
     RDKit          3D

 19 19  0  0  1  0  0  0  0  0999 V2000
    6.9724  -14.6820   20.5570 N   0  0  0  0  0  0  0  0  0  0  0  0
    6.6393  -13.9688   19.3154 C   0  0  0  0  0  0  0  0  0  0  0  0
    7.1698  -12.5882   19.6320 C   0  0  0  0  0  0  0  0  0  0  0  0
    8.4820  -12.9083   20.3304 C   0  0  0  0  0  0  0  0  0  0  0  0
    8.3400  -14.3363   20.8175 C   0  0  1  0  0  0  0  0  0  0  0  0
    8.7237  -14.4657   22.2344 C   0  0  0  0  0  0  0  0  0  0  0  0
    9.9652  -14.2978   22.4882 O   0  0  0  0  0  0  0  0  0  0  0  0
    7.8283  -14.7535   23.2829 N   0  0  0  0  0  0  0  0  0  0  0  0
    8.2850  -14.7328   24.6419 C   0  0  1  0  0  0  0  0  0  0  0  0
    7.1573  -14.5325   25.6325 C   0  0  0  0  0  0  0  0  0  0  0  0
    6.3701  -12.9357   25.4670 S   0  0  0  0  0  0  0  0  0  0  0  0
    8.9371  -16.0676   24.8944 C   0  0  0  0  0  0  0  0  0  0  0  0
    8.3560  -17.1588   24.6617 O   0  0  0  0  0  0  0  0  0  0  0  0
   12.3450  -17.3042   25.6427 C   0  0  0  0  0  0  0  0  0  0  0  0
   10.8453  -17.4467   25.7493 C   0  0  2  0  0  0  0  0  0  0  0  0
   10.2597  -16.1509   25.4154 N   0  0  0  0  0  0  0  0  0  0  0  0
   10.4196  -17.8887   27.1050 C   0  0  0  0  0  0  0  0  0  0  0  0
    9.7910  -17.0875   27.8395 O   0  0  0  0  0  0  0  0  0  0  0  0
   10.6855  -19.1559   27.6037 O   0  0  0  0  0  0  0  0  0  0  0  0
  1  5  1  0
  1  2  1  0
  3  2  1  0
  4  3  1  0
  4  5  1  0
  6  7  2  0
  5  6  1  1
  8  6  1  0
  9 12  1  0
  9  8  1  0
  9 10  1  1
 11 10  1  0
 12 16  1  0
 13 12  2  0
 15 14  1  1
 15 17  1  0
 16 15  1  0
 17 18  2  0
 17 19  1  0
M  END
$$$$
