SFM.pdb
     RDKit          3D

 26 26  0  0  1  0  0  0  0  0999 V2000
   21.4531  -22.7054   -8.0117 O   0  0  0  0  0  0  0  0  0  0  0  0
   22.5787  -22.3920   -7.2281 C   0  0  0  0  0  0  0  0  0  0  0  0
   22.7715  -20.8783   -7.2319 C   0  0  2  0  0  0  0  0  0  0  0  0
   21.5627  -20.2451   -7.7112 N   0  0  0  0  0  0  0  0  0  0  0  0
   23.8900  -20.5598   -8.1331 C   0  0  0  0  0  0  0  0  0  0  0  0
   23.7059  -19.9545   -9.2131 O   0  0  0  0  0  0  0  0  0  0  0  0
   25.2130  -20.9487   -7.7695 N   0  0  0  0  0  0  0  0  0  0  0  0
   26.3047  -20.5780   -8.6072 C   0  0  1  0  0  0  0  0  0  0  0  0
   27.6561  -20.8350   -7.9773 C   0  0  0  0  0  0  0  0  0  0  0  0
   27.7739  -20.2047   -6.6441 C   0  0  0  0  0  0  0  0  0  0  0  0
   27.4780  -18.8577   -6.4742 C   0  0  0  0  0  0  0  0  0  0  0  0
   27.5909  -18.2678   -5.2113 C   0  0  0  0  0  0  0  0  0  0  0  0
   27.9896  -18.9783   -4.1122 C   0  0  0  0  0  0  0  0  0  0  0  0
   28.2816  -20.3109   -4.2845 C   0  0  0  0  0  0  0  0  0  0  0  0
   28.1743  -20.9072   -5.5273 C   0  0  0  0  0  0  0  0  0  0  0  0
   26.2720  -21.3173   -9.9203 C   0  0  0  0  0  0  0  0  0  0  0  0
   25.7766  -22.4868  -10.0021 O   0  0  0  0  0  0  0  0  0  0  0  0
   22.9676  -19.9396  -16.1160 C   0  0  0  0  0  0  0  0  0  0  0  0
   24.3253  -19.8104  -14.9264 S   0  0  0  0  0  0  0  0  0  0  0  0
   23.8152  -20.3011  -13.2911 C   0  0  0  0  0  0  0  0  0  0  0  0
   24.8086  -20.2011  -12.2076 C   0  0  0  0  0  0  0  0  0  0  0  0
   26.1612  -20.7739  -12.3976 C   0  0  2  0  0  0  0  0  0  0  0  0
   26.8034  -20.6853  -11.0611 N   0  0  0  0  0  0  0  0  0  0  0  0
   27.0742  -20.0717  -13.3057 C   0  0  0  0  0  0  0  0  0  0  0  0
   27.5207  -18.7500  -13.0950 O   0  0  0  0  0  0  0  0  0  0  0  0
   27.5173  -20.6132  -14.3368 O   0  0  0  0  0  0  0  0  0  0  0  0
  2  1  1  0
  3  2  1  0
  3  5  1  0
  3  4  1  6
  5  6  2  0
  7  8  1  0
  7  5  1  0
  8  9  1  1
  9 10  1  0
 10 15  2  0
 11 10  1  0
 11 12  2  0
 12 13  1  0
 13 14  2  0
 15 14  1  0
 16  8  1  0
 16 17  2  0
 19 18  1  0
 19 20  1  0
 20 21  1  0
 22 21  1  1
 22 23  1  0
 22 24  1  0
 23 16  1  0
 24 26  2  0
 24 25  1  0
M  END
$$$$
