SFM.pdb
     RDKit          3D

 26 26  0  0  1  0  0  0  0  0999 V2000
   18.4648   -9.6674  -19.2813 O   0  0  0  0  0  0  0  0  0  0  0  0
   19.8603   -9.5194  -19.3812 C   0  0  0  0  0  0  0  0  0  0  0  0
   20.4861   -9.8588  -18.0315 C   0  0  2  0  0  0  0  0  0  0  0  0
   19.8829  -11.0687  -17.5172 N   0  0  0  0  0  0  0  0  0  0  0  0
   20.2240   -8.7425  -17.1097 C   0  0  0  0  0  0  0  0  0  0  0  0
   19.2529   -8.7622  -16.3203 O   0  0  0  0  0  0  0  0  0  0  0  0
   21.0943   -7.6127  -17.1150 N   0  0  0  0  0  0  0  0  0  0  0  0
   20.8695   -6.5539  -16.1880 C   0  0  1  0  0  0  0  0  0  0  0  0
   21.9786   -6.4047  -15.1699 C   0  0  0  0  0  0  0  0  0  0  0  0
   22.0598   -7.5723  -14.2651 C   0  0  0  0  0  0  0  0  0  0  0  0
   22.8844   -8.6468  -14.5755 C   0  0  0  0  0  0  0  0  0  0  0  0
   22.9572   -9.7475  -13.7159 C   0  0  0  0  0  0  0  0  0  0  0  0
   22.2337   -9.8108  -12.5564 C   0  0  0  0  0  0  0  0  0  0  0  0
   21.4189   -8.7456  -12.2528 C   0  0  0  0  0  0  0  0  0  0  0  0
   21.3372   -7.6510  -13.0935 C   0  0  0  0  0  0  0  0  0  0  0  0
   20.7188   -5.2273  -16.8874 C   0  0  0  0  0  0  0  0  0  0  0  0
   21.4081   -4.9486  -17.9204 O   0  0  0  0  0  0  0  0  0  0  0  0
   14.2815   -2.5124  -15.3028 C   0  0  0  0  0  0  0  0  0  0  0  0
   15.3434   -2.8642  -16.7253 S   0  0  0  0  0  0  0  0  0  0  0  0
   17.0702   -2.7702  -16.2955 C   0  0  0  0  0  0  0  0  0  0  0  0
   18.0535   -3.0595  -17.3540 C   0  0  0  0  0  0  0  0  0  0  0  0
   19.5010   -3.0054  -17.0448 C   0  0  2  0  0  0  0  0  0  0  0  0
   19.7953   -4.2970  -16.3727 N   0  0  0  0  0  0  0  0  0  0  0  0
   19.9563   -1.9752  -16.1053 C   0  0  0  0  0  0  0  0  0  0  0  0
   20.0869   -0.6121  -16.4452 O   0  0  0  0  0  0  0  0  0  0  0  0
   20.2604   -2.2501  -14.9286 O   0  0  0  0  0  0  0  0  0  0  0  0
  2  1  1  0
  3  2  1  0
  3  5  1  0
  3  4  1  1
  5  6  2  0
  7  8  1  0
  7  5  1  0
  8  9  1  1
  9 10  1  0
 10 15  2  0
 11 10  1  0
 11 12  2  0
 12 13  1  0
 13 14  2  0
 15 14  1  0
 16  8  1  0
 16 17  2  0
 19 18  1  0
 19 20  1  0
 20 21  1  0
 22 21  1  1
 22 23  1  0
 22 24  1  0
 23 16  1  0
 24 26  2  0
 24 25  1  0
M  END
$$$$
