SFM.pdb
     RDKit          3D

 26 26  0  0  1  0  0  0  0  0999 V2000
   14.2410  -13.3235  -15.7678 O   0  0  0  0  0  0  0  0  0  0  0  0
   14.9391  -12.1441  -15.4500 C   0  0  0  0  0  0  0  0  0  0  0  0
   16.4244  -12.3669  -15.7200 C   0  0  2  0  0  0  0  0  0  0  0  0
   16.7444  -13.7607  -15.5034 N   0  0  0  0  0  0  0  0  0  0  0  0
   17.1920  -11.5298  -14.7848 C   0  0  0  0  0  0  0  0  0  0  0  0
   17.2625  -11.8084  -13.5666 O   0  0  0  0  0  0  0  0  0  0  0  0
   17.8708  -10.3756  -15.2757 N   0  0  0  0  0  0  0  0  0  0  0  0
   18.5099   -9.4968  -14.3536 C   0  0  1  0  0  0  0  0  0  0  0  0
   19.7607   -8.8527  -14.9100 C   0  0  0  0  0  0  0  0  0  0  0  0
   20.3635   -7.8981  -13.9541 C   0  0  0  0  0  0  0  0  0  0  0  0
   20.2308   -6.5287  -14.1493 C   0  0  0  0  0  0  0  0  0  0  0  0
   20.8026   -5.6313  -13.2418 C   0  0  0  0  0  0  0  0  0  0  0  0
   21.5027   -6.0560  -12.1457 C   0  0  0  0  0  0  0  0  0  0  0  0
   21.6317   -7.4118  -11.9561 C   0  0  0  0  0  0  0  0  0  0  0  0
   21.0717   -8.3103  -12.8452 C   0  0  0  0  0  0  0  0  0  0  0  0
   17.5886   -8.3872  -13.9157 C   0  0  0  0  0  0  0  0  0  0  0  0
   16.8659   -7.7641  -14.7581 O   0  0  0  0  0  0  0  0  0  0  0  0
   14.1506   -5.9919   -7.1843 C   0  0  0  0  0  0  0  0  0  0  0  0
   15.0959   -7.2030   -8.1406 S   0  0  0  0  0  0  0  0  0  0  0  0
   15.5461   -6.5679   -9.7435 C   0  0  0  0  0  0  0  0  0  0  0  0
   16.2988   -7.4589  -10.6437 C   0  0  0  0  0  0  0  0  0  0  0  0
   16.6371   -7.0035  -12.0118 C   0  0  2  0  0  0  0  0  0  0  0  0
   17.5428   -8.0513  -12.5489 N   0  0  0  0  0  0  0  0  0  0  0  0
   17.3859   -5.7492  -12.1440 C   0  0  0  0  0  0  0  0  0  0  0  0
   16.7737   -4.4889  -12.3103 O   0  0  0  0  0  0  0  0  0  0  0  0
   18.6314   -5.7238  -12.1164 O   0  0  0  0  0  0  0  0  0  0  0  0
  2  1  1  0
  3  2  1  0
  3  5  1  0
  3  4  1  1
  5  6  2  0
  7  8  1  0
  7  5  1  0
  8  9  1  6
  9 10  1  0
 10 15  2  0
 11 10  1  0
 11 12  2  0
 12 13  1  0
 13 14  2  0
 15 14  1  0
 16  8  1  0
 16 17  2  0
 19 18  1  0
 19 20  1  0
 20 21  1  0
 22 21  1  1
 22 23  1  0
 22 24  1  0
 23 16  1  0
 24 26  2  0
 24 25  1  0
M  END
$$$$
