SFM.pdb
     RDKit          3D

 26 26  0  0  1  0  0  0  0  0999 V2000
   27.2209  -18.4420  -14.6148 O   0  0  0  0  0  0  0  0  0  0  0  0
   28.1862  -18.6729  -13.6177 C   0  0  0  0  0  0  0  0  0  0  0  0
   28.3655  -20.1790  -13.4498 C   0  0  2  0  0  0  0  0  0  0  0  0
   28.7415  -20.7587  -14.7205 N   0  0  0  0  0  0  0  0  0  0  0  0
   27.0839  -20.7475  -13.0042 C   0  0  0  0  0  0  0  0  0  0  0  0
   26.3436  -21.3825  -13.7887 O   0  0  0  0  0  0  0  0  0  0  0  0
   26.6748  -20.5718  -11.6493 N   0  0  0  0  0  0  0  0  0  0  0  0
   25.4191  -21.0959  -11.2257 C   0  0  1  0  0  0  0  0  0  0  0  0
   25.2651  -21.1372   -9.7211 C   0  0  0  0  0  0  0  0  0  0  0  0
   26.5311  -20.8160   -9.0264 C   0  0  0  0  0  0  0  0  0  0  0  0
   26.6070  -19.7225   -8.1724 C   0  0  0  0  0  0  0  0  0  0  0  0
   27.8065  -19.4244   -7.5182 C   0  0  0  0  0  0  0  0  0  0  0  0
   28.9329  -20.1821   -7.6885 C   0  0  0  0  0  0  0  0  0  0  0  0
   28.8537  -21.2632   -8.5343 C   0  0  0  0  0  0  0  0  0  0  0  0
   27.6743  -21.5697   -9.1876 C   0  0  0  0  0  0  0  0  0  0  0  0
   24.2688  -20.2909  -11.7742 C   0  0  0  0  0  0  0  0  0  0  0  0
   24.3858  -19.0417  -11.9880 O   0  0  0  0  0  0  0  0  0  0  0  0
   24.3257  -20.9871  -16.9767 C   0  0  0  0  0  0  0  0  0  0  0  0
   22.8215  -19.9846  -17.0604 S   0  0  0  0  0  0  0  0  0  0  0  0
   21.9698  -19.9455  -15.4957 C   0  0  0  0  0  0  0  0  0  0  0  0
   22.7171  -20.3759  -14.3010 C   0  0  0  0  0  0  0  0  0  0  0  0
   22.0401  -20.4067  -12.9841 C   0  0  2  0  0  0  0  0  0  0  0  0
   23.0554  -20.9516  -12.0467 N   0  0  0  0  0  0  0  0  0  0  0  0
   20.8768  -21.2882  -12.8394 C   0  0  0  0  0  0  0  0  0  0  0  0
   20.9734  -22.6835  -12.6538 O   0  0  0  0  0  0  0  0  0  0  0  0
   19.7121  -20.8464  -12.8727 O   0  0  0  0  0  0  0  0  0  0  0  0
  2  1  1  0
  3  2  1  0
  3  5  1  0
  3  4  1  6
  5  6  2  0
  7  8  1  0
  7  5  1  0
  8  9  1  1
  9 10  1  0
 10 15  2  0
 11 10  1  0
 11 12  2  0
 12 13  1  0
 13 14  2  0
 15 14  1  0
 16  8  1  0
 16 17  2  0
 19 18  1  0
 19 20  1  0
 20 21  1  0
 22 21  1  6
 22 23  1  0
 22 24  1  0
 23 16  1  0
 24 26  2  0
 24 25  1  0
M  END
$$$$
