SFM.pdb
     RDKit          3D

 26 26  0  0  1  0  0  0  0  0999 V2000
   32.7946  -33.7523  -16.2252 O   0  0  0  0  0  0  0  0  0  0  0  0
   34.0132  -33.4740  -16.8709 C   0  0  0  0  0  0  0  0  0  0  0  0
   34.2748  -31.9725  -16.7962 C   0  0  2  0  0  0  0  0  0  0  0  0
   33.4638  -31.2976  -17.7856 N   0  0  0  0  0  0  0  0  0  0  0  0
   35.6996  -31.7397  -17.0790 C   0  0  0  0  0  0  0  0  0  0  0  0
   36.0843  -31.3267  -18.1962 O   0  0  0  0  0  0  0  0  0  0  0  0
   36.6645  -31.9898  -16.0590 N   0  0  0  0  0  0  0  0  0  0  0  0
   38.0358  -31.6912  -16.3069 C   0  0  1  0  0  0  0  0  0  0  0  0
   38.7499  -31.1167  -15.1032 C   0  0  0  0  0  0  0  0  0  0  0  0
   38.3017  -29.7402  -14.7988 C   0  0  0  0  0  0  0  0  0  0  0  0
   38.7141  -28.6749  -15.5900 C   0  0  0  0  0  0  0  0  0  0  0  0
   38.2866  -27.3760  -15.2973 C   0  0  0  0  0  0  0  0  0  0  0  0
   37.4607  -27.1054  -14.2407 C   0  0  0  0  0  0  0  0  0  0  0  0
   37.0547  -28.1622  -13.4602 C   0  0  0  0  0  0  0  0  0  0  0  0
   37.4697  -29.4515  -13.7379 C   0  0  0  0  0  0  0  0  0  0  0  0
   38.7999  -32.9154  -16.7421 C   0  0  0  0  0  0  0  0  0  0  0  0
   38.5280  -34.0628  -16.2630 O   0  0  0  0  0  0  0  0  0  0  0  0
   38.9722  -38.2083  -21.4587 C   0  0  0  0  0  0  0  0  0  0  0  0
   38.3969  -36.8849  -20.3666 S   0  0  0  0  0  0  0  0  0  0  0  0
   39.7418  -35.8498  -19.8235 C   0  0  0  0  0  0  0  0  0  0  0  0
   39.4138  -34.7023  -18.9593 C   0  0  0  0  0  0  0  0  0  0  0  0
   40.5047  -33.9219  -18.3312 C   0  0  2  0  0  0  0  0  0  0  0  0
   39.8265  -32.7640  -17.6942 N   0  0  0  0  0  0  0  0  0  0  0  0
   41.5139  -33.3316  -19.2168 C   0  0  0  0  0  0  0  0  0  0  0  0
   42.6725  -34.0144  -19.6438 O   0  0  0  0  0  0  0  0  0  0  0  0
   41.4040  -32.1692  -19.6521 O   0  0  0  0  0  0  0  0  0  0  0  0
  2  1  1  0
  3  2  1  0
  3  5  1  0
  3  4  1  6
  5  6  2  0
  7  8  1  0
  7  5  1  0
  8  9  1  1
  9 10  1  0
 10 15  2  0
 11 10  1  0
 11 12  2  0
 12 13  1  0
 13 14  2  0
 15 14  1  0
 16  8  1  0
 16 17  2  0
 19 18  1  0
 19 20  1  0
 20 21  1  0
 22 21  1  6
 22 23  1  0
 22 24  1  0
 23 16  1  0
 24 26  2  0
 24 25  1  0
M  END
$$$$
