SFM.pdb
     RDKit          3D

 26 26  0  0  1  0  0  0  0  0999 V2000
   25.9068  -21.9323  -18.4487 O   0  0  0  0  0  0  0  0  0  0  0  0
   27.1112  -21.2833  -18.1209 C   0  0  0  0  0  0  0  0  0  0  0  0
   27.8244  -22.0918  -17.0409 C   0  0  2  0  0  0  0  0  0  0  0  0
   28.0915  -23.4227  -17.5403 N   0  0  0  0  0  0  0  0  0  0  0  0
   26.9414  -22.1696  -15.8668 C   0  0  0  0  0  0  0  0  0  0  0  0
   26.2738  -23.1991  -15.6193 O   0  0  0  0  0  0  0  0  0  0  0  0
   26.8428  -21.0485  -14.9909 N   0  0  0  0  0  0  0  0  0  0  0  0
   26.0128  -21.1359  -13.8357 C   0  0  1  0  0  0  0  0  0  0  0  0
   26.3282  -20.0871  -12.7919 C   0  0  0  0  0  0  0  0  0  0  0  0
   25.5948  -20.3250  -11.5293 C   0  0  0  0  0  0  0  0  0  0  0  0
   24.2873  -19.8787  -11.3804 C   0  0  0  0  0  0  0  0  0  0  0  0
   23.5992  -20.1071  -10.1846 C   0  0  0  0  0  0  0  0  0  0  0  0
   24.1735  -20.7666   -9.1323 C   0  0  0  0  0  0  0  0  0  0  0  0
   25.4674  -21.2066   -9.2836 C   0  0  0  0  0  0  0  0  0  0  0  0
   26.1596  -20.9877  -10.4603 C   0  0  0  0  0  0  0  0  0  0  0  0
   24.5543  -20.9954  -14.1890 C   0  0  0  0  0  0  0  0  0  0  0  0
   24.1692  -20.1522  -15.0611 O   0  0  0  0  0  0  0  0  0  0  0  0
   21.9294  -26.0787  -15.7434 C   0  0  0  0  0  0  0  0  0  0  0  0
   20.4231  -25.0797  -15.8326 S   0  0  0  0  0  0  0  0  0  0  0  0
   20.6053  -23.5366  -14.9603 C   0  0  0  0  0  0  0  0  0  0  0  0
   21.9639  -23.1412  -14.5495 C   0  0  0  0  0  0  0  0  0  0  0  0
   22.1781  -21.8353  -13.8845 C   0  0  2  0  0  0  0  0  0  0  0  0
   23.6209  -21.8198  -13.5315 N   0  0  0  0  0  0  0  0  0  0  0  0
   21.4745  -21.5938  -12.6204 C   0  0  0  0  0  0  0  0  0  0  0  0
   20.2950  -20.8262  -12.5182 O   0  0  0  0  0  0  0  0  0  0  0  0
   21.8863  -22.0623  -11.5417 O   0  0  0  0  0  0  0  0  0  0  0  0
  2  1  1  0
  3  2  1  0
  3  5  1  0
  3  4  1  6
  5  6  2  0
  7  8  1  0
  7  5  1  0
  8  9  1  1
  9 10  1  0
 10 15  2  0
 11 10  1  0
 11 12  2  0
 12 13  1  0
 13 14  2  0
 15 14  1  0
 16  8  1  0
 16 17  2  0
 19 18  1  0
 19 20  1  0
 20 21  1  0
 22 21  1  1
 22 23  1  0
 22 24  1  0
 23 16  1  0
 24 26  2  0
 24 25  1  0
M  END
$$$$
