SFM.pdb
     RDKit          3D

 26 26  0  0  1  0  0  0  0  0999 V2000
   18.4421  -10.5132  -18.7464 O   0  0  0  0  0  0  0  0  0  0  0  0
   19.1874  -10.0093  -17.6647 C   0  0  0  0  0  0  0  0  0  0  0  0
   20.5157  -10.7572  -17.5953 C   0  0  2  0  0  0  0  0  0  0  0  0
   20.2807  -12.1031  -17.1208 N   0  0  0  0  0  0  0  0  0  0  0  0
   21.3952  -10.0454  -16.6548 C   0  0  0  0  0  0  0  0  0  0  0  0
   21.2603  -10.1662  -15.4163 O   0  0  0  0  0  0  0  0  0  0  0  0
   22.4238   -9.1990  -17.1640 N   0  0  0  0  0  0  0  0  0  0  0  0
   23.2666   -8.4988  -16.2528 C   0  0  1  0  0  0  0  0  0  0  0  0
   24.7298   -8.5454  -16.6348 C   0  0  0  0  0  0  0  0  0  0  0  0
   25.2611   -9.9260  -16.6226 C   0  0  0  0  0  0  0  0  0  0  0  0
   25.0618  -10.7661  -17.7113 C   0  0  0  0  0  0  0  0  0  0  0  0
   25.5669  -12.0700  -17.6939 C   0  0  0  0  0  0  0  0  0  0  0  0
   26.2645  -12.5630  -16.6252 C   0  0  0  0  0  0  0  0  0  0  0  0
   26.4596  -11.7286  -15.5499 C   0  0  0  0  0  0  0  0  0  0  0  0
   25.9659  -10.4372  -15.5535 C   0  0  0  0  0  0  0  0  0  0  0  0
   22.8766   -7.0472  -16.1402 C   0  0  0  0  0  0  0  0  0  0  0  0
   22.7602   -6.3173  -17.1764 O   0  0  0  0  0  0  0  0  0  0  0  0
   17.6710   -2.2290  -16.0546 C   0  0  0  0  0  0  0  0  0  0  0  0
   18.5297   -3.8126  -16.2269 S   0  0  0  0  0  0  0  0  0  0  0  0
   20.0540   -3.8374  -15.3043 C   0  0  0  0  0  0  0  0  0  0  0  0
   20.9128   -5.0272  -15.4373 C   0  0  0  0  0  0  0  0  0  0  0  0
   22.1627   -5.1214  -14.6483 C   0  0  2  0  0  0  0  0  0  0  0  0
   22.6424   -6.5113  -14.8592 N   0  0  0  0  0  0  0  0  0  0  0  0
   22.0595   -4.9712  -13.1929 C   0  0  0  0  0  0  0  0  0  0  0  0
   22.0471   -6.0596  -12.2951 O   0  0  0  0  0  0  0  0  0  0  0  0
   21.9752   -3.8507  -12.6543 O   0  0  0  0  0  0  0  0  0  0  0  0
  2  1  1  0
  3  2  1  0
  3  5  1  0
  3  4  1  1
  5  6  2  0
  7  8  1  0
  7  5  1  0
  8  9  1  6
  9 10  1  0
 10 15  2  0
 11 10  1  0
 11 12  2  0
 12 13  1  0
 13 14  2  0
 15 14  1  0
 16  8  1  0
 16 17  2  0
 19 18  1  0
 19 20  1  0
 20 21  1  0
 22 21  1  6
 22 23  1  0
 22 24  1  0
 23 16  1  0
 24 26  2  0
 24 25  1  0
M  END
$$$$
