SFM.pdb
     RDKit          3D

 26 26  0  0  1  0  0  0  0  0999 V2000
   25.0992  -33.0803  -17.6030 O   0  0  0  0  0  0  0  0  0  0  0  0
   26.3750  -33.4455  -17.1359 C   0  0  0  0  0  0  0  0  0  0  0  0
   27.3609  -32.3349  -17.4867 C   0  0  2  0  0  0  0  0  0  0  0  0
   28.6775  -32.6984  -17.0106 N   0  0  0  0  0  0  0  0  0  0  0  0
   26.9164  -31.0993  -16.8231 C   0  0  0  0  0  0  0  0  0  0  0  0
   27.1978  -30.8636  -15.6265 O   0  0  0  0  0  0  0  0  0  0  0  0
   26.1479  -30.1490  -17.5580 N   0  0  0  0  0  0  0  0  0  0  0  0
   25.7383  -28.9410  -16.9224 C   0  0  1  0  0  0  0  0  0  0  0  0
   25.9252  -27.7156  -17.7899 C   0  0  0  0  0  0  0  0  0  0  0  0
   25.5953  -26.4690  -17.0648 C   0  0  0  0  0  0  0  0  0  0  0  0
   24.3356  -25.8956  -17.1884 C   0  0  0  0  0  0  0  0  0  0  0  0
   24.0298  -24.7173  -16.5000 C   0  0  0  0  0  0  0  0  0  0  0  0
   24.9402  -24.0925  -15.6922 C   0  0  0  0  0  0  0  0  0  0  0  0
   26.1855  -24.6630  -15.5726 C   0  0  0  0  0  0  0  0  0  0  0  0
   26.5016  -25.8276  -16.2473 C   0  0  0  0  0  0  0  0  0  0  0  0
   24.2866  -28.9908  -16.5199 C   0  0  0  0  0  0  0  0  0  0  0  0
   23.4059  -29.4749  -17.3009 O   0  0  0  0  0  0  0  0  0  0  0  0
   20.1298  -29.3680   -9.8331 C   0  0  0  0  0  0  0  0  0  0  0  0
   21.6895  -29.4187  -10.7494 S   0  0  0  0  0  0  0  0  0  0  0  0
   21.4881  -28.8389  -12.4223 C   0  0  0  0  0  0  0  0  0  0  0  0
   22.6807  -28.8233  -13.2874 C   0  0  0  0  0  0  0  0  0  0  0  0
   22.5317  -28.5594  -14.7371 C   0  0  2  0  0  0  0  0  0  0  0  0
   23.9217  -28.4883  -15.2560 N   0  0  0  0  0  0  0  0  0  0  0  0
   21.9114  -27.2915  -15.1359 C   0  0  0  0  0  0  0  0  0  0  0  0
   22.4668  -26.0267  -14.8486 O   0  0  0  0  0  0  0  0  0  0  0  0
   20.8360  -27.2576  -15.7645 O   0  0  0  0  0  0  0  0  0  0  0  0
  2  1  1  0
  3  2  1  0
  3  5  1  0
  3  4  1  1
  5  6  2  0
  7  8  1  0
  7  5  1  0
  8  9  1  6
  9 10  1  0
 10 15  2  0
 11 10  1  0
 11 12  2  0
 12 13  1  0
 13 14  2  0
 15 14  1  0
 16  8  1  0
 16 17  2  0
 19 18  1  0
 19 20  1  0
 20 21  1  0
 22 21  1  1
 22 23  1  0
 22 24  1  0
 23 16  1  0
 24 26  2  0
 24 25  1  0
M  END
$$$$
