SFM.pdb
     RDKit          3D

 26 26  0  0  1  0  0  0  0  0999 V2000
   18.4001  -12.4392  -19.7498 O   0  0  0  0  0  0  0  0  0  0  0  0
   19.7880  -12.2271  -19.6596 C   0  0  0  0  0  0  0  0  0  0  0  0
   20.2786  -12.7628  -18.3175 C   0  0  2  0  0  0  0  0  0  0  0  0
   19.4541  -13.8831  -17.9214 N   0  0  0  0  0  0  0  0  0  0  0  0
   20.1634  -11.6849  -17.3228 C   0  0  0  0  0  0  0  0  0  0  0  0
   19.1334  -11.5483  -16.6248 O   0  0  0  0  0  0  0  0  0  0  0  0
   21.2480  -10.7752  -17.1492 N   0  0  0  0  0  0  0  0  0  0  0  0
   21.1227   -9.7106  -16.2102 C   0  0  1  0  0  0  0  0  0  0  0  0
   22.4481   -9.2608  -15.6356 C   0  0  0  0  0  0  0  0  0  0  0  0
   22.2783   -8.2034  -14.6150 C   0  0  0  0  0  0  0  0  0  0  0  0
   21.8731   -8.5283  -13.3262 C   0  0  0  0  0  0  0  0  0  0  0  0
   21.7148   -7.5243  -12.3657 C   0  0  0  0  0  0  0  0  0  0  0  0
   21.9478   -6.2063  -12.6495 C   0  0  0  0  0  0  0  0  0  0  0  0
   22.3486   -5.8889  -13.9259 C   0  0  0  0  0  0  0  0  0  0  0  0
   22.5091   -6.8713  -14.8855 C   0  0  0  0  0  0  0  0  0  0  0  0
   20.4657   -8.5021  -16.8265 C   0  0  0  0  0  0  0  0  0  0  0  0
   20.8052   -8.0887  -17.9813 O   0  0  0  0  0  0  0  0  0  0  0  0
   13.3504   -5.4773  -17.3329 C   0  0  0  0  0  0  0  0  0  0  0  0
   14.5221   -6.7579  -16.8208 S   0  0  0  0  0  0  0  0  0  0  0  0
   16.1997   -6.1575  -16.8355 C   0  0  0  0  0  0  0  0  0  0  0  0
   17.2766   -7.1355  -16.6012 C   0  0  0  0  0  0  0  0  0  0  0  0
   18.6901   -6.6962  -16.6522 C   0  0  2  0  0  0  0  0  0  0  0  0
   19.4633   -7.8357  -16.0954 N   0  0  0  0  0  0  0  0  0  0  0  0
   19.0718   -5.5410  -15.8330 C   0  0  0  0  0  0  0  0  0  0  0  0
   19.3835   -5.6272  -14.4596 O   0  0  0  0  0  0  0  0  0  0  0  0
   19.1443   -4.3931  -16.3126 O   0  0  0  0  0  0  0  0  0  0  0  0
  2  1  1  0
  3  2  1  0
  3  5  1  0
  3  4  1  1
  5  6  2  0
  7  8  1  0
  7  5  1  0
  8  9  1  6
  9 10  1  0
 10 15  2  0
 11 10  1  0
 11 12  2  0
 12 13  1  0
 13 14  2  0
 15 14  1  0
 16  8  1  0
 16 17  2  0
 19 18  1  0
 19 20  1  0
 20 21  1  0
 22 21  1  1
 22 23  1  0
 22 24  1  0
 23 16  1  0
 24 26  2  0
 24 25  1  0
M  END
$$$$
