SFM.pdb
     RDKit          3D

 26 26  0  0  1  0  0  0  0  0999 V2000
   19.0730  -11.1084  -20.7301 O   0  0  0  0  0  0  0  0  0  0  0  0
   20.4264  -11.4114  -20.4944 C   0  0  0  0  0  0  0  0  0  0  0  0
   20.5685  -11.9405  -19.0701 C   0  0  2  0  0  0  0  0  0  0  0  0
   19.5174  -12.8997  -18.8110 N   0  0  0  0  0  0  0  0  0  0  0  0
   20.4441  -10.8047  -18.1434 C   0  0  0  0  0  0  0  0  0  0  0  0
   19.3398  -10.4835  -17.6493 O   0  0  0  0  0  0  0  0  0  0  0  0
   21.6059  -10.0523  -17.8000 N   0  0  0  0  0  0  0  0  0  0  0  0
   21.4734   -8.9061  -16.9637 C   0  0  1  0  0  0  0  0  0  0  0  0
   22.7295   -8.5868  -16.1830 C   0  0  0  0  0  0  0  0  0  0  0  0
   22.5206   -7.4754  -15.2292 C   0  0  0  0  0  0  0  0  0  0  0  0
   22.8640   -6.1750  -15.5782 C   0  0  0  0  0  0  0  0  0  0  0  0
   22.6637   -5.1286  -14.6723 C   0  0  0  0  0  0  0  0  0  0  0  0
   22.1317   -5.3377  -13.4293 C   0  0  0  0  0  0  0  0  0  0  0  0
   21.7932   -6.6259  -13.0877 C   0  0  0  0  0  0  0  0  0  0  0  0
   21.9857   -7.6700  -13.9734 C   0  0  0  0  0  0  0  0  0  0  0  0
   21.1133   -7.6777  -17.7595 C   0  0  0  0  0  0  0  0  0  0  0  0
   21.6897   -7.4202  -18.8646 O   0  0  0  0  0  0  0  0  0  0  0  0
   15.0503   -3.5200  -20.0622 C   0  0  0  0  0  0  0  0  0  0  0  0
   15.7986   -4.9450  -19.2349 S   0  0  0  0  0  0  0  0  0  0  0  0
   17.4953   -4.6307  -18.7906 C   0  0  0  0  0  0  0  0  0  0  0  0
   18.2910   -5.7651  -18.2897 C   0  0  0  0  0  0  0  0  0  0  0  0
   19.7178   -5.5653  -17.9465 C   0  0  2  0  0  0  0  0  0  0  0  0
   20.1214   -6.8157  -17.2534 N   0  0  0  0  0  0  0  0  0  0  0  0
   20.0455   -4.4871  -17.0077 C   0  0  0  0  0  0  0  0  0  0  0  0
   19.8181   -4.5670  -15.6175 O   0  0  0  0  0  0  0  0  0  0  0  0
   20.5542   -3.4164  -17.3916 O   0  0  0  0  0  0  0  0  0  0  0  0
  2  1  1  0
  3  2  1  0
  3  5  1  0
  3  4  1  1
  5  6  2  0
  7  8  1  0
  7  5  1  0
  8  9  1  6
  9 10  1  0
 10 15  2  0
 11 10  1  0
 11 12  2  0
 12 13  1  0
 13 14  2  0
 15 14  1  0
 16  8  1  0
 16 17  2  0
 19 18  1  0
 19 20  1  0
 20 21  1  0
 22 21  1  1
 22 23  1  0
 22 24  1  0
 23 16  1  0
 24 26  2  0
 24 25  1  0
M  END
$$$$
