SFM.pdb
     RDKit          3D

 26 26  0  0  1  0  0  0  0  0999 V2000
   27.0888  -18.3238  -15.4445 O   0  0  0  0  0  0  0  0  0  0  0  0
   27.8458  -18.1642  -14.2695 C   0  0  0  0  0  0  0  0  0  0  0  0
   28.4166  -19.5210  -13.8671 C   0  0  2  0  0  0  0  0  0  0  0  0
   28.9382  -20.1857  -15.0410 N   0  0  0  0  0  0  0  0  0  0  0  0
   27.3291  -20.3224  -13.2844 C   0  0  0  0  0  0  0  0  0  0  0  0
   26.9651  -21.4026  -13.8016 O   0  0  0  0  0  0  0  0  0  0  0  0
   26.6746  -19.8597  -12.1048 N   0  0  0  0  0  0  0  0  0  0  0  0
   25.6758  -20.6735  -11.4957 C   0  0  1  0  0  0  0  0  0  0  0  0
   25.2732  -20.1955  -10.1179 C   0  0  0  0  0  0  0  0  0  0  0  0
   26.3863  -20.2995   -9.1490 C   0  0  0  0  0  0  0  0  0  0  0  0
   26.6194  -19.2807   -8.2333 C   0  0  0  0  0  0  0  0  0  0  0  0
   27.6730  -19.3850   -7.3197 C   0  0  0  0  0  0  0  0  0  0  0  0
   28.5017  -20.4732   -7.2901 C   0  0  0  0  0  0  0  0  0  0  0  0
   28.2678  -21.4792   -8.1978 C   0  0  0  0  0  0  0  0  0  0  0  0
   27.2299  -21.3893   -9.1067 C   0  0  0  0  0  0  0  0  0  0  0  0
   24.4247  -20.7363  -12.3340 C   0  0  0  0  0  0  0  0  0  0  0  0
   23.9951  -19.7081  -12.9489 O   0  0  0  0  0  0  0  0  0  0  0  0
   20.9116  -26.5167  -14.5624 C   0  0  0  0  0  0  0  0  0  0  0  0
   22.6152  -25.9840  -14.8605 S   0  0  0  0  0  0  0  0  0  0  0  0
   22.7875  -24.2170  -14.7081 C   0  0  0  0  0  0  0  0  0  0  0  0
   22.3845  -23.5996  -13.4324 C   0  0  0  0  0  0  0  0  0  0  0  0
   22.5160  -22.1354  -13.2525 C   0  0  2  0  0  0  0  0  0  0  0  0
   23.7365  -21.9616  -12.4239 N   0  0  0  0  0  0  0  0  0  0  0  0
   21.4535  -21.4441  -12.5146 C   0  0  0  0  0  0  0  0  0  0  0  0
   21.4394  -21.3094  -11.1102 O   0  0  0  0  0  0  0  0  0  0  0  0
   20.4820  -20.9253  -13.0975 O   0  0  0  0  0  0  0  0  0  0  0  0
  2  1  1  0
  3  2  1  0
  3  5  1  0
  3  4  1  6
  5  6  2  0
  7  8  1  0
  7  5  1  0
  8  9  1  1
  9 10  1  0
 10 15  2  0
 11 10  1  0
 11 12  2  0
 12 13  1  0
 13 14  2  0
 15 14  1  0
 16  8  1  0
 16 17  2  0
 19 18  1  0
 19 20  1  0
 20 21  1  0
 22 21  1  1
 22 23  1  0
 22 24  1  0
 23 16  1  0
 24 26  2  0
 24 25  1  0
M  END
$$$$
