SFM.pdb
     RDKit          3D

 26 26  0  0  1  0  0  0  0  0999 V2000
   28.3697  -17.9501  -15.6608 O   0  0  0  0  0  0  0  0  0  0  0  0
   27.5544  -18.4089  -14.6101 C   0  0  0  0  0  0  0  0  0  0  0  0
   28.2035  -19.6430  -13.9901 C   0  0  2  0  0  0  0  0  0  0  0  0
   28.8447  -20.4174  -15.0299 N   0  0  0  0  0  0  0  0  0  0  0  0
   27.1484  -20.4455  -13.3520 C   0  0  0  0  0  0  0  0  0  0  0  0
   26.7519  -21.5208  -13.8552 O   0  0  0  0  0  0  0  0  0  0  0  0
   26.5639  -19.9894  -12.1337 N   0  0  0  0  0  0  0  0  0  0  0  0
   25.5449  -20.7692  -11.5135 C   0  0  1  0  0  0  0  0  0  0  0  0
   25.2975  -20.3907  -10.0697 C   0  0  0  0  0  0  0  0  0  0  0  0
   26.5081  -20.5634   -9.2372 C   0  0  0  0  0  0  0  0  0  0  0  0
   26.6439  -19.8699   -8.0407 C   0  0  0  0  0  0  0  0  0  0  0  0
   27.7906  -20.0378   -7.2580 C   0  0  0  0  0  0  0  0  0  0  0  0
   28.8063  -20.8753   -7.6304 C   0  0  0  0  0  0  0  0  0  0  0  0
   28.6682  -21.5597   -8.8149 C   0  0  0  0  0  0  0  0  0  0  0  0
   27.5400  -21.4034   -9.5988 C   0  0  0  0  0  0  0  0  0  0  0  0
   24.2315  -20.6463  -12.2427 C   0  0  0  0  0  0  0  0  0  0  0  0
   23.8293  -19.5223  -12.6840 O   0  0  0  0  0  0  0  0  0  0  0  0
   22.3647  -26.1416  -14.8847 C   0  0  0  0  0  0  0  0  0  0  0  0
   20.7640  -25.3063  -15.0077 S   0  0  0  0  0  0  0  0  0  0  0  0
   20.8576  -23.6198  -14.4401 C   0  0  0  0  0  0  0  0  0  0  0  0
   22.0510  -23.2233  -13.6723 C   0  0  0  0  0  0  0  0  0  0  0  0
   22.2117  -21.8154  -13.2416 C   0  0  2  0  0  0  0  0  0  0  0  0
   23.4538  -21.8057  -12.4270 N   0  0  0  0  0  0  0  0  0  0  0  0
   21.1785  -21.2512  -12.3667 C   0  0  0  0  0  0  0  0  0  0  0  0
   20.0602  -20.5339  -12.8417 O   0  0  0  0  0  0  0  0  0  0  0  0
   21.2299  -21.3753  -11.1279 O   0  0  0  0  0  0  0  0  0  0  0  0
  2  1  1  0
  3  2  1  0
  3  5  1  0
  3  4  1  6
  5  6  2  0
  7  8  1  0
  7  5  1  0
  8  9  1  1
  9 10  1  0
 10 15  2  0
 11 10  1  0
 11 12  2  0
 12 13  1  0
 13 14  2  0
 15 14  1  0
 16  8  1  0
 16 17  2  0
 19 18  1  0
 19 20  1  0
 20 21  1  0
 22 21  1  1
 22 23  1  0
 22 24  1  0
 23 16  1  0
 24 26  2  0
 24 25  1  0
M  END
$$$$
