SFM.pdb
     RDKit          3D

 26 26  0  0  1  0  0  0  0  0999 V2000
   27.5837  -20.7531  -16.4276 O   0  0  0  0  0  0  0  0  0  0  0  0
   27.4116  -20.3692  -15.0852 C   0  0  0  0  0  0  0  0  0  0  0  0
   27.4531  -21.6185  -14.2099 C   0  0  2  0  0  0  0  0  0  0  0  0
   27.5449  -22.7892  -15.0543 N   0  0  0  0  0  0  0  0  0  0  0  0
   26.2111  -21.6697  -13.4229 C   0  0  0  0  0  0  0  0  0  0  0  0
   25.4040  -22.6194  -13.5385 O   0  0  0  0  0  0  0  0  0  0  0  0
   25.9192  -20.6150  -12.5085 N   0  0  0  0  0  0  0  0  0  0  0  0
   24.6459  -20.5773  -11.8697 C   0  0  1  0  0  0  0  0  0  0  0  0
   24.5617  -19.5484  -10.7636 C   0  0  0  0  0  0  0  0  0  0  0  0
   25.2901  -19.9796   -9.5503 C   0  0  0  0  0  0  0  0  0  0  0  0
   25.1152  -21.2614   -9.0431 C   0  0  0  0  0  0  0  0  0  0  0  0
   25.8069  -21.6632   -7.8961 C   0  0  0  0  0  0  0  0  0  0  0  0
   26.6676  -20.8274   -7.2385 C   0  0  0  0  0  0  0  0  0  0  0  0
   26.8380  -19.5598   -7.7435 C   0  0  0  0  0  0  0  0  0  0  0  0
   26.1606  -19.1492   -8.8767 C   0  0  0  0  0  0  0  0  0  0  0  0
   23.5421  -20.2752  -12.8507 C   0  0  0  0  0  0  0  0  0  0  0  0
   23.6841  -19.3771  -13.7413 O   0  0  0  0  0  0  0  0  0  0  0  0
   20.8022  -25.1550  -15.2963 C   0  0  0  0  0  0  0  0  0  0  0  0
   19.4098  -24.0510  -15.6387 S   0  0  0  0  0  0  0  0  0  0  0  0
   19.7315  -22.3923  -15.0725 C   0  0  0  0  0  0  0  0  0  0  0  0
   20.8966  -22.1848  -14.1948 C   0  0  0  0  0  0  0  0  0  0  0  0
   21.2174  -20.8220  -13.7116 C   0  0  2  0  0  0  0  0  0  0  0  0
   22.3440  -21.0100  -12.7620 N   0  0  0  0  0  0  0  0  0  0  0  0
   20.1872  -20.1140  -12.9443 C   0  0  0  0  0  0  0  0  0  0  0  0
   19.1229  -19.4029  -13.5380 O   0  0  0  0  0  0  0  0  0  0  0  0
   20.1926  -20.0993  -11.6983 O   0  0  0  0  0  0  0  0  0  0  0  0
  2  1  1  0
  3  2  1  0
  3  5  1  0
  3  4  1  6
  5  6  2  0
  7  8  1  0
  7  5  1  0
  8  9  1  1
  9 10  1  0
 10 15  2  0
 11 10  1  0
 11 12  2  0
 12 13  1  0
 13 14  2  0
 15 14  1  0
 16  8  1  0
 16 17  2  0
 19 18  1  0
 19 20  1  0
 20 21  1  0
 22 21  1  1
 22 23  1  0
 22 24  1  0
 23 16  1  0
 24 26  2  0
 24 25  1  0
M  END
$$$$
