SFM.pdb
     RDKit          3D

 26 26  0  0  1  0  0  0  0  0999 V2000
   28.0419  -17.7208  -14.6843 O   0  0  0  0  0  0  0  0  0  0  0  0
   27.6682  -19.0282  -15.0454 C   0  0  0  0  0  0  0  0  0  0  0  0
   28.2890  -20.0064  -14.0522 C   0  0  2  0  0  0  0  0  0  0  0  0
   29.0808  -20.9790  -14.7727 N   0  0  0  0  0  0  0  0  0  0  0  0
   27.1993  -20.6863  -13.3347 C   0  0  0  0  0  0  0  0  0  0  0  0
   26.6968  -21.7484  -13.7662 O   0  0  0  0  0  0  0  0  0  0  0  0
   26.7038  -20.1241  -12.1214 N   0  0  0  0  0  0  0  0  0  0  0  0
   25.6175  -20.7576  -11.4510 C   0  0  1  0  0  0  0  0  0  0  0  0
   25.3978  -20.2400  -10.0464 C   0  0  0  0  0  0  0  0  0  0  0  0
   26.5806  -20.4582   -9.1851 C   0  0  0  0  0  0  0  0  0  0  0  0
   26.7894  -19.6658   -8.0628 C   0  0  0  0  0  0  0  0  0  0  0  0
   27.9092  -19.8773   -7.2523 C   0  0  0  0  0  0  0  0  0  0  0  0
   28.8276  -20.8540   -7.5252 C   0  0  0  0  0  0  0  0  0  0  0  0
   28.6174  -21.6359   -8.6365 C   0  0  0  0  0  0  0  0  0  0  0  0
   27.5147  -21.4379   -9.4467 C   0  0  0  0  0  0  0  0  0  0  0  0
   24.3232  -20.5817  -12.2033 C   0  0  0  0  0  0  0  0  0  0  0  0
   24.1623  -19.6136  -13.0138 O   0  0  0  0  0  0  0  0  0  0  0  0
   23.5379  -25.6035  -15.0015 C   0  0  0  0  0  0  0  0  0  0  0  0
   21.8260  -25.1093  -15.3177 S   0  0  0  0  0  0  0  0  0  0  0  0
   21.4359  -23.5551  -14.5382 C   0  0  0  0  0  0  0  0  0  0  0  0
   22.3860  -23.0354  -13.5390 C   0  0  0  0  0  0  0  0  0  0  0  0
   22.1666  -21.6964  -12.9455 C   0  0  2  0  0  0  0  0  0  0  0  0
   23.2898  -21.5144  -11.9906 N   0  0  0  0  0  0  0  0  0  0  0  0
   20.9524  -21.4986  -12.1467 C   0  0  0  0  0  0  0  0  0  0  0  0
   19.7074  -21.1289  -12.6979 O   0  0  0  0  0  0  0  0  0  0  0  0
   20.9504  -21.6489  -10.9097 O   0  0  0  0  0  0  0  0  0  0  0  0
  2  1  1  0
  3  2  1  0
  3  5  1  0
  3  4  1  6
  5  6  2  0
  7  8  1  0
  7  5  1  0
  8  9  1  1
  9 10  1  0
 10 15  2  0
 11 10  1  0
 11 12  2  0
 12 13  1  0
 13 14  2  0
 15 14  1  0
 16  8  1  0
 16 17  2  0
 19 18  1  0
 19 20  1  0
 20 21  1  0
 22 21  1  1
 22 23  1  0
 22 24  1  0
 23 16  1  0
 24 26  2  0
 24 25  1  0
M  END
$$$$
