SFM.pdb
     RDKit          3D

 26 26  0  0  1  0  0  0  0  0999 V2000
   36.8806  -32.8583  -16.8138 O   0  0  0  0  0  0  0  0  0  0  0  0
   37.6010  -31.9033  -16.0733 C   0  0  0  0  0  0  0  0  0  0  0  0
   36.6907  -31.3389  -14.9863 C   0  0  2  0  0  0  0  0  0  0  0  0
   35.9655  -32.4232  -14.3615 N   0  0  0  0  0  0  0  0  0  0  0  0
   35.7438  -30.4070  -15.6181 C   0  0  0  0  0  0  0  0  0  0  0  0
   34.5178  -30.6549  -15.6661 O   0  0  0  0  0  0  0  0  0  0  0  0
   36.2319  -29.1946  -16.1889 N   0  0  0  0  0  0  0  0  0  0  0  0
   35.3110  -28.2786  -16.7751 C   0  0  1  0  0  0  0  0  0  0  0  0
   35.6947  -26.8298  -16.5679 C   0  0  0  0  0  0  0  0  0  0  0  0
   35.5047  -26.4024  -15.1644 C   0  0  0  0  0  0  0  0  0  0  0  0
   34.2723  -25.9252  -14.7350 C   0  0  0  0  0  0  0  0  0  0  0  0
   34.0989  -25.5231  -13.4069 C   0  0  0  0  0  0  0  0  0  0  0  0
   35.1154  -25.5817  -12.4931 C   0  0  0  0  0  0  0  0  0  0  0  0
   36.3333  -26.0546  -12.9219 C   0  0  0  0  0  0  0  0  0  0  0  0
   36.5190  -26.4555  -14.2319 C   0  0  0  0  0  0  0  0  0  0  0  0
   35.1767  -28.5009  -18.2598 C   0  0  0  0  0  0  0  0  0  0  0  0
   36.1514  -28.9456  -18.9470 O   0  0  0  0  0  0  0  0  0  0  0  0
   34.2155  -33.2382  -19.4220 C   0  0  0  0  0  0  0  0  0  0  0  0
   33.4798  -32.8210  -21.0218 S   0  0  0  0  0  0  0  0  0  0  0  0
   33.3028  -31.0595  -21.2244 C   0  0  0  0  0  0  0  0  0  0  0  0
   33.7051  -30.1992  -20.0980 C   0  0  0  0  0  0  0  0  0  0  0  0
   33.5735  -28.7286  -20.2149 C   0  0  2  0  0  0  0  0  0  0  0  0
   33.9450  -28.2054  -18.8752 N   0  0  0  0  0  0  0  0  0  0  0  0
   32.2367  -28.1856  -20.4781 C   0  0  0  0  0  0  0  0  0  0  0  0
   31.2271  -28.8951  -21.1621 O   0  0  0  0  0  0  0  0  0  0  0  0
   31.9088  -27.0428  -20.1050 O   0  0  0  0  0  0  0  0  0  0  0  0
  2  1  1  0
  3  2  1  0
  3  5  1  0
  3  4  1  6
  5  6  2  0
  7  8  1  0
  7  5  1  0
  8  9  1  6
  9 10  1  0
 10 15  2  0
 11 10  1  0
 11 12  2  0
 12 13  1  0
 13 14  2  0
 15 14  1  0
 16  8  1  0
 16 17  2  0
 19 18  1  0
 19 20  1  0
 20 21  1  0
 22 21  1  1
 22 23  1  0
 22 24  1  0
 23 16  1  0
 24 26  2  0
 24 25  1  0
M  END
$$$$
