VDC.pdb
     RDKit          3D

 22 21  0  0  1  0  0  0  0  0999 V2000
   25.2541  -12.2665  -16.6354 C   0  0  0  0  0  0  0  0  0  0  0  0
   24.6787  -13.3723  -15.7705 C   0  0  2  0  0  0  0  0  0  0  0  0
   25.1485  -14.6799  -16.2976 C   0  0  0  0  0  0  0  0  0  0  0  0
   23.1739  -13.1979  -15.7614 C   0  0  2  0  0  0  0  0  0  0  0  0
   22.7458  -13.4083  -17.1520 N   0  0  0  0  0  0  0  0  0  0  0  0
   22.7298  -11.8509  -15.3813 C   0  0  0  0  0  0  0  0  0  0  0  0
   22.9375  -11.4276  -14.2210 O   0  0  0  0  0  0  0  0  0  0  0  0
   22.0673  -10.9818  -16.2774 N   0  0  0  0  0  0  0  0  0  0  0  0
   21.6402   -9.6329  -15.8319 C   0  0  1  0  0  0  0  0  0  0  0  0
   22.3599   -8.6120  -16.6927 C   0  0  0  0  0  0  0  0  0  0  0  0
   22.0707   -7.2182  -16.3933 C   0  0  0  0  0  0  0  0  0  0  0  0
   21.9553   -6.2594  -17.1774 O   0  0  0  0  0  0  0  0  0  0  0  0
   20.1821   -9.5057  -15.8440 C   0  0  0  0  0  0  0  0  0  0  0  0
   19.4335  -10.1117  -16.6679 O   0  0  0  0  0  0  0  0  0  0  0  0
   21.8960   -6.9054  -15.0260 O   0  0  0  0  0  0  0  0  0  0  0  0
   19.4734   -8.6793  -14.9159 N   0  0  0  0  0  0  0  0  0  0  0  0
   18.0288   -8.5192  -14.9919 C   0  0  1  0  0  0  0  0  0  0  0  0
   17.3315   -9.6372  -14.2499 C   0  0  0  0  0  0  0  0  0  0  0  0
   15.5608   -9.3114  -14.0594 S   0  0  0  0  0  0  0  0  0  0  0  0
   17.6438   -7.2285  -14.3719 C   0  0  0  0  0  0  0  0  0  0  0  0
   16.3683   -6.7422  -14.5122 O   0  0  0  0  0  0  0  0  0  0  0  0
   18.4654   -6.5378  -13.7010 O   0  0  0  0  0  0  0  0  0  0  0  0
  2  1  1  6
  2  3  1  0
  4  5  1  6
  4  6  1  0
  4  2  1  0
  6  7  2  0
  8  9  1  0
  8  6  1  0
  9 13  1  0
  9 10  1  6
 11 10  1  0
 12 11  2  0
 13 14  2  0
 13 16  1  0
 15 11  1  0
 16 17  1  0
 17 20  1  0
 17 18  1  1
 19 18  1  0
 20 22  2  0
 20 21  1  0
M  END
$$$$
