VDC.pdb
     RDKit          3D

 22 21  0  0  1  0  0  0  0  0999 V2000
   21.3169  -13.1089  -18.1016 C   0  0  0  0  0  0  0  0  0  0  0  0
   22.7290  -12.5895  -18.2968 C   0  0  2  0  0  0  0  0  0  0  0  0
   23.6744  -13.7301  -18.1798 C   0  0  0  0  0  0  0  0  0  0  0  0
   22.9442  -11.4833  -17.2845 C   0  0  2  0  0  0  0  0  0  0  0  0
   22.8603  -12.1333  -15.9686 N   0  0  0  0  0  0  0  0  0  0  0  0
   21.9102  -10.4409  -17.3081 C   0  0  0  0  0  0  0  0  0  0  0  0
   21.9253   -9.5645  -18.2027 O   0  0  0  0  0  0  0  0  0  0  0  0
   20.8696  -10.3731  -16.3543 N   0  0  0  0  0  0  0  0  0  0  0  0
   19.9242   -9.2299  -16.3599 C   0  0  1  0  0  0  0  0  0  0  0  0
   18.5165   -9.7937  -16.3193 C   0  0  0  0  0  0  0  0  0  0  0  0
   17.4447   -8.8115  -16.2701 C   0  0  0  0  0  0  0  0  0  0  0  0
   16.3519   -8.8779  -15.6794 O   0  0  0  0  0  0  0  0  0  0  0  0
   20.2236   -8.2870  -15.2813 C   0  0  0  0  0  0  0  0  0  0  0  0
   20.6600   -8.6392  -14.1447 O   0  0  0  0  0  0  0  0  0  0  0  0
   17.6709   -7.6164  -16.9902 O   0  0  0  0  0  0  0  0  0  0  0  0
   20.0479   -6.8743  -15.4225 N   0  0  0  0  0  0  0  0  0  0  0  0
   20.5758   -5.9417  -14.4376 C   0  0  1  0  0  0  0  0  0  0  0  0
   22.0825   -6.0467  -14.3621 C   0  0  0  0  0  0  0  0  0  0  0  0
   22.7915   -4.7527  -13.3128 S   0  0  0  0  0  0  0  0  0  0  0  0
   20.2176   -4.5573  -14.8298 C   0  0  0  0  0  0  0  0  0  0  0  0
   19.9728   -3.6044  -13.8732 O   0  0  0  0  0  0  0  0  0  0  0  0
   20.1251   -4.2090  -16.0432 O   0  0  0  0  0  0  0  0  0  0  0  0
  2  1  1  1
  2  3  1  0
  4  5  1  1
  4  6  1  0
  4  2  1  0
  6  7  2  0
  8  9  1  0
  8  6  1  0
  9 13  1  0
  9 10  1  1
 11 10  1  0
 12 11  2  0
 13 14  2  0
 13 16  1  0
 15 11  1  0
 16 17  1  0
 17 20  1  0
 17 18  1  6
 19 18  1  0
 20 22  2  0
 20 21  1  0
M  END
$$$$
