VDC.pdb
     RDKit          3D

 22 21  0  0  1  0  0  0  0  0999 V2000
   28.1642  -18.6069  -15.1896 C   0  0  0  0  0  0  0  0  0  0  0  0
   27.1811  -17.8057  -16.0223 C   0  0  2  0  0  0  0  0  0  0  0  0
   27.0592  -16.4462  -15.4349 C   0  0  0  0  0  0  0  0  0  0  0  0
   25.8874  -18.5924  -16.0696 C   0  0  2  0  0  0  0  0  0  0  0  0
   24.9940  -17.8265  -16.9507 N   0  0  0  0  0  0  0  0  0  0  0  0
   25.2078  -18.7053  -14.7729 C   0  0  0  0  0  0  0  0  0  0  0  0
   24.5734  -17.7287  -14.3117 O   0  0  0  0  0  0  0  0  0  0  0  0
   25.2271  -19.8873  -13.9986 N   0  0  0  0  0  0  0  0  0  0  0  0
   24.4666  -19.9602  -12.7271 C   0  0  1  0  0  0  0  0  0  0  0  0
   23.2495  -20.8338  -12.9654 C   0  0  0  0  0  0  0  0  0  0  0  0
   22.3585  -20.9986  -11.8275 C   0  0  0  0  0  0  0  0  0  0  0  0
   22.2723  -20.3065  -10.7974 O   0  0  0  0  0  0  0  0  0  0  0  0
   25.3177  -20.4065  -11.6231 C   0  0  0  0  0  0  0  0  0  0  0  0
   26.1235  -21.3809  -11.7104 O   0  0  0  0  0  0  0  0  0  0  0  0
   21.4668  -22.0931  -11.8970 O   0  0  0  0  0  0  0  0  0  0  0  0
   25.3117  -19.7722  -10.3410 N   0  0  0  0  0  0  0  0  0  0  0  0
   26.0862  -20.3022   -9.2284 C   0  0  1  0  0  0  0  0  0  0  0  0
   26.6846  -19.1765   -8.4150 C   0  0  0  0  0  0  0  0  0  0  0  0
   27.4817  -19.7896   -6.9095 S   0  0  0  0  0  0  0  0  0  0  0  0
   25.1996  -21.1014   -8.3487 C   0  0  0  0  0  0  0  0  0  0  0  0
   25.7311  -21.9827   -7.4410 O   0  0  0  0  0  0  0  0  0  0  0  0
   23.9389  -21.0021   -8.4023 O   0  0  0  0  0  0  0  0  0  0  0  0
  2  1  1  1
  2  3  1  0
  4  5  1  6
  4  6  1  0
  4  2  1  0
  6  7  2  0
  8  9  1  0
  8  6  1  0
  9 13  1  0
  9 10  1  6
 11 10  1  0
 12 11  2  0
 13 14  2  0
 13 16  1  0
 15 11  1  0
 16 17  1  0
 17 20  1  0
 17 18  1  1
 19 18  1  0
 20 22  2  0
 20 21  1  0
M  END
$$$$
