VDC.pdb
     RDKit          3D

 22 21  0  0  1  0  0  0  0  0999 V2000
   17.2692  -10.4529  -17.0219 C   0  0  0  0  0  0  0  0  0  0  0  0
   17.9222  -10.8753  -18.3247 C   0  0  2  0  0  0  0  0  0  0  0  0
   16.9701  -11.7340  -19.0759 C   0  0  0  0  0  0  0  0  0  0  0  0
   19.2349  -11.5443  -17.9725 C   0  0  2  0  0  0  0  0  0  0  0  0
   18.8706  -12.8557  -17.4168 N   0  0  0  0  0  0  0  0  0  0  0  0
   20.0041  -10.8446  -16.9358 C   0  0  0  0  0  0  0  0  0  0  0  0
   19.5623  -10.7794  -15.7656 O   0  0  0  0  0  0  0  0  0  0  0  0
   21.2499  -10.2284  -17.1916 N   0  0  0  0  0  0  0  0  0  0  0  0
   21.9447   -9.4744  -16.1195 C   0  0  1  0  0  0  0  0  0  0  0  0
   23.4189   -9.8253  -16.1882 C   0  0  0  0  0  0  0  0  0  0  0  0
   23.7703  -11.1642  -15.7411 C   0  0  0  0  0  0  0  0  0  0  0  0
   23.0378  -12.0381  -15.2439 O   0  0  0  0  0  0  0  0  0  0  0  0
   21.6651   -8.0406  -16.2107 C   0  0  0  0  0  0  0  0  0  0  0  0
   21.5393   -7.4205  -17.3090 O   0  0  0  0  0  0  0  0  0  0  0  0
   25.1284  -11.5266  -15.8898 O   0  0  0  0  0  0  0  0  0  0  0  0
   21.5073   -7.2117  -15.0556 N   0  0  0  0  0  0  0  0  0  0  0  0
   21.3339   -5.7714  -15.1730 C   0  0  1  0  0  0  0  0  0  0  0  0
   19.8748   -5.3996  -15.0323 C   0  0  0  0  0  0  0  0  0  0  0  0
   19.6582   -3.6176  -14.7970 S   0  0  0  0  0  0  0  0  0  0  0  0
   22.0996   -5.0947  -14.0985 C   0  0  0  0  0  0  0  0  0  0  0  0
   22.6036   -5.8142  -13.0443 O   0  0  0  0  0  0  0  0  0  0  0  0
   22.3128   -3.8471  -14.1136 O   0  0  0  0  0  0  0  0  0  0  0  0
  2  1  1  1
  2  3  1  0
  4  5  1  1
  4  6  1  0
  4  2  1  0
  6  7  2  0
  8  9  1  0
  8  6  1  0
  9 13  1  0
  9 10  1  6
 11 10  1  0
 12 11  2  0
 13 14  2  0
 13 16  1  0
 15 11  1  0
 16 17  1  0
 17 20  1  0
 17 18  1  1
 19 18  1  0
 20 22  2  0
 20 21  1  0
M  END
$$$$
