VDC.pdb
     RDKit          3D

 22 21  0  0  1  0  0  0  0  0999 V2000
   19.9560   -9.3890  -16.8903 C   0  0  0  0  0  0  0  0  0  0  0  0
   20.0577  -10.7472  -16.2219 C   0  0  2  0  0  0  0  0  0  0  0  0
   19.8059  -11.7980  -17.2421 C   0  0  0  0  0  0  0  0  0  0  0  0
   19.0866  -10.7490  -15.0592 C   0  0  2  0  0  0  0  0  0  0  0  0
   17.7483  -10.6942  -15.6651 N   0  0  0  0  0  0  0  0  0  0  0  0
   19.2017   -9.5776  -14.1814 C   0  0  0  0  0  0  0  0  0  0  0  0
   20.2260   -9.4209  -13.4778 O   0  0  0  0  0  0  0  0  0  0  0  0
   18.1959   -8.5893  -14.0876 N   0  0  0  0  0  0  0  0  0  0  0  0
   18.3782   -7.4202  -13.1928 C   0  0  1  0  0  0  0  0  0  0  0  0
   18.5862   -6.1974  -14.0661 C   0  0  0  0  0  0  0  0  0  0  0  0
   19.9629   -5.9194  -14.4448 C   0  0  0  0  0  0  0  0  0  0  0  0
   21.0011   -6.0654  -13.7752 O   0  0  0  0  0  0  0  0  0  0  0  0
   17.2697   -7.2981  -12.2449 C   0  0  0  0  0  0  0  0  0  0  0  0
   16.1119   -7.7680  -12.4575 O   0  0  0  0  0  0  0  0  0  0  0  0
   20.1523   -5.4143  -15.7513 O   0  0  0  0  0  0  0  0  0  0  0  0
   17.4029   -6.6324  -10.9857 N   0  0  0  0  0  0  0  0  0  0  0  0
   16.2545   -6.4098  -10.1197 C   0  0  1  0  0  0  0  0  0  0  0  0
   15.6601   -7.7281   -9.6778 C   0  0  0  0  0  0  0  0  0  0  0  0
   14.3945   -7.4978   -8.4037 S   0  0  0  0  0  0  0  0  0  0  0  0
   16.6847   -5.6582   -8.9160 C   0  0  0  0  0  0  0  0  0  0  0  0
   15.7864   -4.8929   -8.2157 O   0  0  0  0  0  0  0  0  0  0  0  0
   17.8785   -5.6939   -8.4969 O   0  0  0  0  0  0  0  0  0  0  0  0
  2  1  1  6
  2  3  1  0
  4  5  1  6
  4  6  1  0
  4  2  1  0
  6  7  2  0
  8  9  1  0
  8  6  1  0
  9 13  1  0
  9 10  1  6
 11 10  1  0
 12 11  2  0
 13 14  2  0
 13 16  1  0
 15 11  1  0
 16 17  1  0
 17 20  1  0
 17 18  1  1
 19 18  1  0
 20 22  2  0
 20 21  1  0
M  END
$$$$
