VDC.pdb
     RDKit          3D

 22 21  0  0  1  0  0  0  0  0999 V2000
   14.5978  -12.0225  -13.8082 C   0  0  0  0  0  0  0  0  0  0  0  0
   14.7986  -11.3880  -15.1716 C   0  0  2  0  0  0  0  0  0  0  0  0
   14.0315  -12.1694  -16.1762 C   0  0  0  0  0  0  0  0  0  0  0  0
   16.2913  -11.3276  -15.4230 C   0  0  2  0  0  0  0  0  0  0  0  0
   16.7380  -12.7272  -15.4735 N   0  0  0  0  0  0  0  0  0  0  0  0
   17.0534  -10.6788  -14.3486 C   0  0  0  0  0  0  0  0  0  0  0  0
   18.2132  -11.0685  -14.0807 O   0  0  0  0  0  0  0  0  0  0  0  0
   16.5383   -9.6084  -13.5831 N   0  0  0  0  0  0  0  0  0  0  0  0
   17.4164   -8.8742  -12.6394 C   0  0  1  0  0  0  0  0  0  0  0  0
   18.5912   -8.3293  -13.4294 C   0  0  0  0  0  0  0  0  0  0  0  0
   19.5748   -7.5812  -12.6621 C   0  0  0  0  0  0  0  0  0  0  0  0
   19.7227   -7.5239  -11.4283 O   0  0  0  0  0  0  0  0  0  0  0  0
   16.6686   -7.8570  -11.8990 C   0  0  0  0  0  0  0  0  0  0  0  0
   16.0107   -6.9279  -12.4561 O   0  0  0  0  0  0  0  0  0  0  0  0
   20.4901   -6.8128  -13.4170 O   0  0  0  0  0  0  0  0  0  0  0  0
   16.6165   -7.8275  -10.4697 N   0  0  0  0  0  0  0  0  0  0  0  0
   15.8432   -6.8199   -9.7591 C   0  0  1  0  0  0  0  0  0  0  0  0
   15.0263   -7.4576   -8.6577 C   0  0  0  0  0  0  0  0  0  0  0  0
   14.1713   -6.2163   -7.6546 S   0  0  0  0  0  0  0  0  0  0  0  0
   16.7653   -5.8306   -9.1511 C   0  0  0  0  0  0  0  0  0  0  0  0
   16.4623   -4.4924   -9.1722 O   0  0  0  0  0  0  0  0  0  0  0  0
   17.8500   -6.1788   -8.5993 O   0  0  0  0  0  0  0  0  0  0  0  0
  2  1  1  1
  2  3  1  0
  4  5  1  1
  4  6  1  0
  4  2  1  0
  6  7  2  0
  8  9  1  0
  8  6  1  0
  9 13  1  0
  9 10  1  6
 11 10  1  0
 12 11  2  0
 13 14  2  0
 13 16  1  0
 15 11  1  0
 16 17  1  0
 17 20  1  0
 17 18  1  1
 19 18  1  0
 20 22  2  0
 20 21  1  0
M  END
$$$$
