VDC.pdb
     RDKit          3D

 22 21  0  0  1  0  0  0  0  0999 V2000
   15.9704  -11.2459  -16.0595 C   0  0  0  0  0  0  0  0  0  0  0  0
   16.8140  -11.2135  -17.3201 C   0  0  2  0  0  0  0  0  0  0  0  0
   16.8346  -12.5763  -17.9124 C   0  0  0  0  0  0  0  0  0  0  0  0
   18.1749  -10.6705  -16.9355 C   0  0  2  0  0  0  0  0  0  0  0  0
   18.8081  -11.7286  -16.1352 N   0  0  0  0  0  0  0  0  0  0  0  0
   18.1236   -9.4725  -16.0879 C   0  0  0  0  0  0  0  0  0  0  0  0
   17.6552   -8.4037  -16.5427 O   0  0  0  0  0  0  0  0  0  0  0  0
   18.5817   -9.4603  -14.7511 N   0  0  0  0  0  0  0  0  0  0  0  0
   18.6271   -8.1888  -13.9883 C   0  0  1  0  0  0  0  0  0  0  0  0
   18.0201   -8.4471  -12.6222 C   0  0  0  0  0  0  0  0  0  0  0  0
   17.9571   -7.2981  -11.7324 C   0  0  0  0  0  0  0  0  0  0  0  0
   18.2273   -6.1081  -11.9742 O   0  0  0  0  0  0  0  0  0  0  0  0
   19.9838   -7.6411  -13.9475 C   0  0  0  0  0  0  0  0  0  0  0  0
   20.9841   -8.2817  -13.5055 O   0  0  0  0  0  0  0  0  0  0  0  0
   17.5311   -7.5649  -10.4112 O   0  0  0  0  0  0  0  0  0  0  0  0
   20.2968   -6.3239  -14.4093 N   0  0  0  0  0  0  0  0  0  0  0  0
   21.6641   -5.8252  -14.4107 C   0  0  1  0  0  0  0  0  0  0  0  0
   22.2027   -5.7579  -15.8222 C   0  0  0  0  0  0  0  0  0  0  0  0
   22.2852   -7.3975  -16.5856 S   0  0  0  0  0  0  0  0  0  0  0  0
   21.6907   -4.4613  -13.8293 C   0  0  0  0  0  0  0  0  0  0  0  0
   22.8849   -3.8583  -13.5238 O   0  0  0  0  0  0  0  0  0  0  0  0
   20.6287   -3.8132  -13.5963 O   0  0  0  0  0  0  0  0  0  0  0  0
  2  1  1  1
  2  3  1  0
  4  5  1  1
  4  6  1  0
  4  2  1  0
  6  7  2  0
  8  9  1  0
  8  6  1  0
  9 13  1  0
  9 10  1  1
 11 10  1  0
 12 11  2  0
 13 14  2  0
 13 16  1  0
 15 11  1  0
 16 17  1  0
 17 20  1  0
 17 18  1  6
 19 18  1  0
 20 22  2  0
 20 21  1  0
M  END
$$$$
