VDC.pdb
     RDKit          3D

 22 21  0  0  1  0  0  0  0  0999 V2000
   12.9556  -10.1935   -9.4751 C   0  0  0  0  0  0  0  0  0  0  0  0
   13.0063  -10.9567  -10.7854 C   0  0  2  0  0  0  0  0  0  0  0  0
   12.5244  -12.3419  -10.5466 C   0  0  0  0  0  0  0  0  0  0  0  0
   14.4260  -10.8618  -11.3054 C   0  0  2  0  0  0  0  0  0  0  0  0
   15.2405  -11.6507  -10.3698 N   0  0  0  0  0  0  0  0  0  0  0  0
   14.9755   -9.5001  -11.3002 C   0  0  0  0  0  0  0  0  0  0  0  0
   14.5793   -8.6620  -12.1424 O   0  0  0  0  0  0  0  0  0  0  0  0
   15.9492   -9.0709  -10.3701 N   0  0  0  0  0  0  0  0  0  0  0  0
   16.5071   -7.6989  -10.4520 C   0  0  1  0  0  0  0  0  0  0  0  0
   16.1940   -6.9936   -9.1459 C   0  0  0  0  0  0  0  0  0  0  0  0
   16.5783   -5.5923   -9.0776 C   0  0  0  0  0  0  0  0  0  0  0  0
   16.4521   -4.7938   -8.1321 O   0  0  0  0  0  0  0  0  0  0  0  0
   17.9301   -7.7228  -10.7939 C   0  0  0  0  0  0  0  0  0  0  0  0
   18.7369   -8.6040  -10.3707 O   0  0  0  0  0  0  0  0  0  0  0  0
   17.1774   -5.0605  -10.2422 O   0  0  0  0  0  0  0  0  0  0  0  0
   18.5344   -6.7441  -11.6444 N   0  0  0  0  0  0  0  0  0  0  0  0
   19.9018   -6.8926  -12.1201 C   0  0  1  0  0  0  0  0  0  0  0  0
   20.0265   -8.1140  -13.0030 C   0  0  0  0  0  0  0  0  0  0  0  0
   21.6867   -8.2618  -13.7100 S   0  0  0  0  0  0  0  0  0  0  0  0
   20.2798   -5.6969  -12.9115 C   0  0  0  0  0  0  0  0  0  0  0  0
   21.5676   -5.2239  -12.8855 O   0  0  0  0  0  0  0  0  0  0  0  0
   19.4407   -5.0775  -13.6287 O   0  0  0  0  0  0  0  0  0  0  0  0
  2  1  1  1
  2  3  1  0
  4  5  1  1
  4  6  1  0
  4  2  1  0
  6  7  2  0
  8  9  1  0
  8  6  1  0
  9 13  1  0
  9 10  1  1
 11 10  1  0
 12 11  2  0
 13 14  2  0
 13 16  1  0
 15 11  1  0
 16 17  1  0
 17 20  1  0
 17 18  1  6
 19 18  1  0
 20 22  2  0
 20 21  1  0
M  END
$$$$
