VDC.pdb
     RDKit          3D

 22 21  0  0  1  0  0  0  0  0999 V2000
   14.8491  -11.1480  -13.0373 C   0  0  0  0  0  0  0  0  0  0  0  0
   15.3263  -10.8163  -14.4388 C   0  0  2  0  0  0  0  0  0  0  0  0
   15.6383  -12.0852  -15.1465 C   0  0  0  0  0  0  0  0  0  0  0  0
   16.4969   -9.8648  -14.3008 C   0  0  2  0  0  0  0  0  0  0  0  0
   17.5406  -10.6254  -13.5986 N   0  0  0  0  0  0  0  0  0  0  0  0
   16.2123   -8.6806  -13.4805 C   0  0  0  0  0  0  0  0  0  0  0  0
   15.3537   -7.8501  -13.8571 O   0  0  0  0  0  0  0  0  0  0  0  0
   16.8678   -8.4222  -12.2555 N   0  0  0  0  0  0  0  0  0  0  0  0
   16.5461   -7.1998  -11.4792 C   0  0  1  0  0  0  0  0  0  0  0  0
   16.9534   -7.4461  -10.0388 C   0  0  0  0  0  0  0  0  0  0  0  0
   16.5854   -6.4047   -9.0922 C   0  0  0  0  0  0  0  0  0  0  0  0
   16.8473   -6.3253   -7.8787 O   0  0  0  0  0  0  0  0  0  0  0  0
   17.1559   -6.0125  -12.0798 C   0  0  0  0  0  0  0  0  0  0  0  0
   18.4043   -5.8782  -12.2525 O   0  0  0  0  0  0  0  0  0  0  0  0
   15.8266   -5.3344   -9.6182 O   0  0  0  0  0  0  0  0  0  0  0  0
   16.3850   -4.8938  -12.5278 N   0  0  0  0  0  0  0  0  0  0  0  0
   17.0158   -3.7339  -13.1402 C   0  0  1  0  0  0  0  0  0  0  0  0
   16.4286   -3.4717  -14.5089 C   0  0  0  0  0  0  0  0  0  0  0  0
   17.0253   -4.6651  -15.7327 S   0  0  0  0  0  0  0  0  0  0  0  0
   16.7833   -2.5415  -12.2899 C   0  0  0  0  0  0  0  0  0  0  0  0
   17.4297   -1.3607  -12.5558 O   0  0  0  0  0  0  0  0  0  0  0  0
   15.9925   -2.5689  -11.3020 O   0  0  0  0  0  0  0  0  0  0  0  0
  2  1  1  1
  2  3  1  0
  4  5  1  1
  4  6  1  0
  4  2  1  0
  6  7  2  0
  8  9  1  0
  8  6  1  0
  9 13  1  0
  9 10  1  1
 11 10  1  0
 12 11  2  0
 13 14  2  0
 13 16  1  0
 15 11  1  0
 16 17  1  0
 17 20  1  0
 17 18  1  6
 19 18  1  0
 20 22  2  0
 20 21  1  0
M  END
$$$$
