VDC.pdb
     RDKit          3D

 22 21  0  0  1  0  0  0  0  0999 V2000
   17.3568  -12.8897  -17.4561 C   0  0  0  0  0  0  0  0  0  0  0  0
   18.7387  -13.3168  -17.9141 C   0  0  2  0  0  0  0  0  0  0  0  0
   18.8747  -14.7823  -17.7088 C   0  0  0  0  0  0  0  0  0  0  0  0
   19.7433  -12.4757  -17.1538 C   0  0  2  0  0  0  0  0  0  0  0  0
   19.7222  -12.9885  -15.7762 N   0  0  0  0  0  0  0  0  0  0  0  0
   19.3970  -11.0507  -17.0801 C   0  0  0  0  0  0  0  0  0  0  0  0
   19.4120  -10.3484  -18.1171 O   0  0  0  0  0  0  0  0  0  0  0  0
   19.0341  -10.4124  -15.8725 N   0  0  0  0  0  0  0  0  0  0  0  0
   18.7558   -8.9555  -15.8517 C   0  0  1  0  0  0  0  0  0  0  0  0
   17.3152   -8.7660  -15.4159 C   0  0  0  0  0  0  0  0  0  0  0  0
   16.3159   -8.9010  -16.4642 C   0  0  0  0  0  0  0  0  0  0  0  0
   16.4207   -8.6528  -17.6787 O   0  0  0  0  0  0  0  0  0  0  0  0
   19.7305   -8.2396  -15.0273 C   0  0  0  0  0  0  0  0  0  0  0  0
   19.9567   -8.5168  -13.8114 O   0  0  0  0  0  0  0  0  0  0  0  0
   15.0513   -9.3792  -16.0518 O   0  0  0  0  0  0  0  0  0  0  0  0
   20.5181   -7.1569  -15.5313 N   0  0  0  0  0  0  0  0  0  0  0  0
   21.5584   -6.5357  -14.7250 C   0  0  1  0  0  0  0  0  0  0  0  0
   22.8852   -6.5745  -15.4496 C   0  0  0  0  0  0  0  0  0  0  0  0
   23.4908   -8.2694  -15.6459 S   0  0  0  0  0  0  0  0  0  0  0  0
   21.2016   -5.1195  -14.4681 C   0  0  0  0  0  0  0  0  0  0  0  0
   21.8492   -4.4049  -13.4919 O   0  0  0  0  0  0  0  0  0  0  0  0
   20.2996   -4.5269  -15.1294 O   0  0  0  0  0  0  0  0  0  0  0  0
  2  1  1  1
  2  3  1  0
  4  5  1  1
  4  6  1  0
  4  2  1  0
  6  7  2  0
  8  9  1  0
  8  6  1  0
  9 13  1  0
  9 10  1  1
 11 10  1  0
 12 11  2  0
 13 14  2  0
 13 16  1  0
 15 11  1  0
 16 17  1  0
 17 20  1  0
 17 18  1  6
 19 18  1  0
 20 22  2  0
 20 21  1  0
M  END
$$$$
