VDC.pdb
     RDKit          3D

 22 21  0  0  1  0  0  0  0  0999 V2000
   21.8191   -8.9303  -16.8652 C   0  0  0  0  0  0  0  0  0  0  0  0
   21.0821  -10.2238  -16.5728 C   0  0  2  0  0  0  0  0  0  0  0  0
   20.8393  -10.9321  -17.8564 C   0  0  0  0  0  0  0  0  0  0  0  0
   19.8284   -9.8619  -15.8032 C   0  0  2  0  0  0  0  0  0  0  0  0
   18.9814   -9.1284  -16.7549 N   0  0  0  0  0  0  0  0  0  0  0  0
   20.0628   -8.9632  -14.6658 C   0  0  0  0  0  0  0  0  0  0  0  0
   20.6912   -9.3735  -13.6631 O   0  0  0  0  0  0  0  0  0  0  0  0
   19.6102   -7.6247  -14.6417 N   0  0  0  0  0  0  0  0  0  0  0  0
   19.8730   -6.7682  -13.4594 C   0  0  1  0  0  0  0  0  0  0  0  0
   20.7271   -5.6002  -13.9150 C   0  0  0  0  0  0  0  0  0  0  0  0
   21.1019   -4.6506  -12.8788 C   0  0  0  0  0  0  0  0  0  0  0  0
   22.2117   -4.4768  -12.3442 O   0  0  0  0  0  0  0  0  0  0  0  0
   18.6271   -6.3775  -12.7981 C   0  0  0  0  0  0  0  0  0  0  0  0
   17.5715   -6.0614  -13.4245 O   0  0  0  0  0  0  0  0  0  0  0  0
   20.0674   -3.8079  -12.4122 O   0  0  0  0  0  0  0  0  0  0  0  0
   18.4955   -6.3210  -11.3748 N   0  0  0  0  0  0  0  0  0  0  0  0
   17.2642   -5.8691  -10.7438 C   0  0  1  0  0  0  0  0  0  0  0  0
   17.0998   -6.5085   -9.3833 C   0  0  0  0  0  0  0  0  0  0  0  0
   15.6929   -5.8112   -8.4821 S   0  0  0  0  0  0  0  0  0  0  0  0
   17.3114   -4.3971  -10.5716 C   0  0  0  0  0  0  0  0  0  0  0  0
   16.1549   -3.6585  -10.5762 O   0  0  0  0  0  0  0  0  0  0  0  0
   18.4040   -3.7769  -10.4169 O   0  0  0  0  0  0  0  0  0  0  0  0
  2  1  1  6
  2  3  1  0
  4  5  1  6
  4  6  1  0
  4  2  1  0
  6  7  2  0
  8  9  1  0
  8  6  1  0
  9 13  1  0
  9 10  1  6
 11 10  1  0
 12 11  2  0
 13 14  2  0
 13 16  1  0
 15 11  1  0
 16 17  1  0
 17 20  1  0
 17 18  1  1
 19 18  1  0
 20 22  2  0
 20 21  1  0
M  END
$$$$
