VDC.pdb
     RDKit          3D

 22 21  0  0  1  0  0  0  0  0999 V2000
   20.1096  -11.7657  -18.8479 C   0  0  0  0  0  0  0  0  0  0  0  0
   21.3011  -10.9968  -19.3874 C   0  0  2  0  0  0  0  0  0  0  0  0
   22.3081  -11.9700  -19.8844 C   0  0  0  0  0  0  0  0  0  0  0  0
   21.7913  -10.0913  -18.2762 C   0  0  2  0  0  0  0  0  0  0  0  0
   22.3740  -10.9878  -17.2673 N   0  0  0  0  0  0  0  0  0  0  0  0
   20.7256   -9.3359  -17.6056 C   0  0  0  0  0  0  0  0  0  0  0  0
   20.1086   -8.4394  -18.2256 O   0  0  0  0  0  0  0  0  0  0  0  0
   20.3450   -9.5740  -16.2656 N   0  0  0  0  0  0  0  0  0  0  0  0
   19.3234   -8.7172  -15.6155 C   0  0  1  0  0  0  0  0  0  0  0  0
   18.4319   -9.6148  -14.7783 C   0  0  0  0  0  0  0  0  0  0  0  0
   17.2035  -10.0584  -15.4187 C   0  0  0  0  0  0  0  0  0  0  0  0
   16.7685   -9.7789  -16.5501 O   0  0  0  0  0  0  0  0  0  0  0  0
   19.9446   -7.6235  -14.8672 C   0  0  0  0  0  0  0  0  0  0  0  0
   20.7477   -7.8025  -13.9031 O   0  0  0  0  0  0  0  0  0  0  0  0
   16.3895  -10.9260  -14.6553 O   0  0  0  0  0  0  0  0  0  0  0  0
   19.6954   -6.2469  -15.1660 N   0  0  0  0  0  0  0  0  0  0  0  0
   20.3315   -5.1787  -14.4092 C   0  0  1  0  0  0  0  0  0  0  0  0
   21.6922   -4.8580  -14.9857 C   0  0  0  0  0  0  0  0  0  0  0  0
   23.0225   -5.2634  -13.8264 S   0  0  0  0  0  0  0  0  0  0  0  0
   19.4903   -3.9596  -14.4770 C   0  0  0  0  0  0  0  0  0  0  0  0
   19.5854   -2.9937  -13.5070 O   0  0  0  0  0  0  0  0  0  0  0  0
   18.6653   -3.7682  -15.4178 O   0  0  0  0  0  0  0  0  0  0  0  0
  2  1  1  1
  2  3  1  0
  4  5  1  1
  4  6  1  0
  4  2  1  0
  6  7  2  0
  8  9  1  0
  8  6  1  0
  9 13  1  0
  9 10  1  1
 11 10  1  0
 12 11  2  0
 13 14  2  0
 13 16  1  0
 15 11  1  0
 16 17  1  0
 17 20  1  0
 17 18  1  6
 19 18  1  0
 20 22  2  0
 20 21  1  0
M  END
$$$$
