MYL.pdb
     RDKit          3D

 29 29  0  0  1  0  0  0  0  0999 V2000
   21.5539  -25.8750  -13.4305 C   0  0  0  0  0  0  0  0  0  0  0  0
   20.8268  -25.2702  -11.9097 S   0  0  0  0  0  0  0  0  0  0  0  0
   19.7393  -23.8625  -12.1468 C   0  0  0  0  0  0  0  0  0  0  0  0
   19.0159  -23.4704  -10.8790 C   0  0  0  0  0  0  0  0  0  0  0  0
   18.2475  -24.5868  -10.2680 C   0  0  2  0  0  0  0  0  0  0  0  0
   17.1218  -24.9112  -11.1224 N   0  0  0  0  0  0  0  0  0  0  0  0
   17.7565  -24.3060   -8.9052 C   0  0  0  0  0  0  0  0  0  0  0  0
   17.2916  -23.1610   -8.6200 O   0  0  0  0  0  0  0  0  0  0  0  0
   12.9260  -23.2556   -2.0371 O   0  0  0  0  0  0  0  0  0  0  0  0
   13.6219  -23.6382   -3.1766 C   0  0  0  0  0  0  0  0  0  0  0  0
   13.6347  -24.9472   -3.6186 C   0  0  0  0  0  0  0  0  0  0  0  0
   14.3445  -25.2892   -4.7654 C   0  0  0  0  0  0  0  0  0  0  0  0
   15.0413  -24.3508   -5.4792 C   0  0  0  0  0  0  0  0  0  0  0  0
   15.7849  -24.7082   -6.6728 C   0  0  0  0  0  0  0  0  0  0  0  0
   17.2398  -24.9812   -6.5114 C   0  0  2  0  0  0  0  0  0  0  0  0
   17.7614  -25.2469   -7.8452 N   0  0  0  0  0  0  0  0  0  0  0  0
   17.4581  -26.1211   -5.6003 C   0  0  0  0  0  0  0  0  0  0  0  0
   16.9592  -27.2432   -5.8698 O   0  0  0  0  0  0  0  0  0  0  0  0
   15.0273  -23.0467   -5.0366 C   0  0  0  0  0  0  0  0  0  0  0  0
   14.3184  -22.6834   -3.8844 C   0  0  0  0  0  0  0  0  0  0  0  0
   20.8952  -28.9117   -1.8324 C   0  0  0  0  0  0  0  0  0  0  0  0
   19.7404  -28.0171   -1.5260 C   0  0  1  0  0  0  0  0  0  0  0  0
   20.0497  -27.3609   -0.1741 C   0  0  0  0  0  0  0  0  0  0  0  0
   19.5039  -26.9142   -2.5161 C   0  0  0  0  0  0  0  0  0  0  0  0
   18.4248  -27.1727   -3.5158 C   0  0  2  0  0  0  0  0  0  0  0  0
   18.2154  -26.0358   -4.4041 N   0  0  0  0  0  0  0  0  0  0  0  0
   17.1188  -27.5489   -2.9421 C   0  0  0  0  0  0  0  0  0  0  0  0
   16.3177  -26.6170   -2.2995 O   0  0  0  0  0  0  0  0  0  0  0  0
   16.6729  -28.7227   -3.0085 O   0  0  0  0  0  0  0  0  0  0  0  0
  2  1  1  0
  3  2  1  0
  4  3  1  0
  4  5  1  0
  5  6  1  6
  7  5  1  0
  7  8  2  0
  9 10  1  0
 10 20  2  0
 10 11  1  0
 11 12  2  0
 12 13  1  0
 13 14  1  0
 15 14  1  6
 15 16  1  0
 16  7  1  0
 17 15  1  0
 18 17  2  0
 19 13  2  0
 20 19  1  0
 22 21  1  6
 22 24  1  0
 23 22  1  0
 25 24  1  1
 25 26  1  0
 25 27  1  0
 26 17  1  0
 27 28  1  0
 29 27  2  0
M  END
$$$$
