MYL.pdb
     RDKit          3D

 29 29  0  0  1  0  0  0  0  0999 V2000
   31.3641  -24.3527  -15.2003 C   0  0  0  0  0  0  0  0  0  0  0  0
   32.0530  -23.9355  -16.7999 S   0  0  0  0  0  0  0  0  0  0  0  0
   30.8099  -23.5564  -18.0374 C   0  0  0  0  0  0  0  0  0  0  0  0
   29.8494  -22.4818  -17.5821 C   0  0  0  0  0  0  0  0  0  0  0  0
   28.7428  -22.9991  -16.7348 C   0  0  2  0  0  0  0  0  0  0  0  0
   28.1255  -24.1303  -17.3994 N   0  0  0  0  0  0  0  0  0  0  0  0
   27.7062  -21.9975  -16.4191 C   0  0  0  0  0  0  0  0  0  0  0  0
   28.0370  -20.8644  -15.9552 O   0  0  0  0  0  0  0  0  0  0  0  0
   19.6287  -18.1471  -16.5920 O   0  0  0  0  0  0  0  0  0  0  0  0
   20.7873  -18.8921  -16.7702 C   0  0  0  0  0  0  0  0  0  0  0  0
   22.0172  -18.2934  -16.9641 C   0  0  0  0  0  0  0  0  0  0  0  0
   23.1542  -19.0762  -17.1387 C   0  0  0  0  0  0  0  0  0  0  0  0
   23.0875  -20.4440  -17.1235 C   0  0  0  0  0  0  0  0  0  0  0  0
   24.2726  -21.2603  -17.3097 C   0  0  0  0  0  0  0  0  0  0  0  0
   25.2890  -21.2418  -16.2216 C   0  0  2  0  0  0  0  0  0  0  0  0
   26.3155  -22.2043  -16.5979 N   0  0  0  0  0  0  0  0  0  0  0  0
   24.6703  -21.5789  -14.9251 C   0  0  0  0  0  0  0  0  0  0  0  0
   24.2579  -22.7474  -14.7124 O   0  0  0  0  0  0  0  0  0  0  0  0
   21.8604  -21.0386  -16.9303 C   0  0  0  0  0  0  0  0  0  0  0  0
   20.7049  -20.2672  -16.7527 C   0  0  0  0  0  0  0  0  0  0  0  0
   26.5664  -20.0240  -10.0174 C   0  0  0  0  0  0  0  0  0  0  0  0
   25.8932  -20.7608  -11.1272 C   0  0  1  0  0  0  0  0  0  0  0  0
   25.8081  -22.2267  -10.6826 C   0  0  0  0  0  0  0  0  0  0  0  0
   24.4982  -20.3067  -11.4443 C   0  0  0  0  0  0  0  0  0  0  0  0
   23.8540  -20.9849  -12.6085 C   0  0  2  0  0  0  0  0  0  0  0  0
   24.5034  -20.6468  -13.8692 N   0  0  0  0  0  0  0  0  0  0  0  0
   22.4086  -20.7307  -12.7584 C   0  0  0  0  0  0  0  0  0  0  0  0
   21.4743  -21.3981  -11.9807 O   0  0  0  0  0  0  0  0  0  0  0  0
   21.9584  -19.9032  -13.5911 O   0  0  0  0  0  0  0  0  0  0  0  0
  2  1  1  0
  3  2  1  0
  4  3  1  0
  4  5  1  0
  5  6  1  6
  7  5  1  0
  7  8  2  0
  9 10  1  0
 10 20  2  0
 10 11  1  0
 11 12  2  0
 12 13  1  0
 13 14  1  0
 15 14  1  6
 15 16  1  0
 16  7  1  0
 17 15  1  0
 18 17  2  0
 19 13  2  0
 20 19  1  0
 22 21  1  1
 22 24  1  0
 23 22  1  0
 25 24  1  1
 25 26  1  0
 25 27  1  0
 26 17  1  0
 27 28  1  0
 29 27  2  0
M  END
$$$$
