MYL.pdb
     RDKit          3D

 29 29  0  0  1  0  0  0  0  0999 V2000
   28.1116  -14.9156  -15.4953 C   0  0  0  0  0  0  0  0  0  0  0  0
   26.7440  -13.8339  -15.9035 S   0  0  0  0  0  0  0  0  0  0  0  0
   26.8253  -13.1760  -17.5711 C   0  0  0  0  0  0  0  0  0  0  0  0
   25.7037  -12.2067  -17.8659 C   0  0  0  0  0  0  0  0  0  0  0  0
   24.3946  -12.6288  -17.3016 C   0  0  2  0  0  0  0  0  0  0  0  0
   23.9312  -13.8069  -18.0086 N   0  0  0  0  0  0  0  0  0  0  0  0
   23.3501  -11.5880  -17.3572 C   0  0  0  0  0  0  0  0  0  0  0  0
   22.8267  -11.2710  -18.4681 O   0  0  0  0  0  0  0  0  0  0  0  0
   17.4290  -14.5122  -17.4902 O   0  0  0  0  0  0  0  0  0  0  0  0
   18.2201  -13.4886  -16.9847 C   0  0  0  0  0  0  0  0  0  0  0  0
   17.9599  -12.1604  -17.2624 C   0  0  0  0  0  0  0  0  0  0  0  0
   18.7771  -11.1649  -16.7360 C   0  0  0  0  0  0  0  0  0  0  0  0
   19.8480  -11.4689  -15.9383 C   0  0  0  0  0  0  0  0  0  0  0  0
   20.7025  -10.4309  -15.3927 C   0  0  0  0  0  0  0  0  0  0  0  0
   21.7837   -9.9077  -16.2729 C   0  0  2  0  0  0  0  0  0  0  0  0
   22.8634  -10.8843  -16.2273 N   0  0  0  0  0  0  0  0  0  0  0  0
   22.2286   -8.5768  -15.8167 C   0  0  0  0  0  0  0  0  0  0  0  0
   22.9706   -8.4764  -14.8067 O   0  0  0  0  0  0  0  0  0  0  0  0
   20.1055  -12.7936  -15.6630 C   0  0  0  0  0  0  0  0  0  0  0  0
   19.2941  -13.8096  -16.1838 C   0  0  0  0  0  0  0  0  0  0  0  0
   24.0526   -3.4654  -16.7165 C   0  0  0  0  0  0  0  0  0  0  0  0
   22.5691   -3.6243  -16.6749 C   0  0  1  0  0  0  0  0  0  0  0  0
   22.0008   -2.6431  -17.7085 C   0  0  0  0  0  0  0  0  0  0  0  0
   22.0609   -4.9917  -17.0279 C   0  0  0  0  0  0  0  0  0  0  0  0
   22.3607   -6.0624  -16.0308 C   0  0  2  0  0  0  0  0  0  0  0  0
   21.8658   -7.3653  -16.4586 N   0  0  0  0  0  0  0  0  0  0  0  0
   21.8540   -5.8077  -14.6690 C   0  0  0  0  0  0  0  0  0  0  0  0
   20.6601   -6.3590  -14.2287 O   0  0  0  0  0  0  0  0  0  0  0  0
   22.4755   -5.0851  -13.8489 O   0  0  0  0  0  0  0  0  0  0  0  0
  2  1  1  0
  3  2  1  0
  4  3  1  0
  4  5  1  0
  5  6  1  6
  7  5  1  0
  7  8  2  0
  9 10  1  0
 10 20  2  0
 10 11  1  0
 11 12  2  0
 12 13  1  0
 13 14  1  0
 15 14  1  1
 15 16  1  0
 16  7  1  0
 17 15  1  0
 18 17  2  0
 19 13  2  0
 20 19  1  0
 22 21  1  6
 22 24  1  0
 23 22  1  0
 25 24  1  6
 25 26  1  0
 25 27  1  0
 26 17  1  0
 27 28  1  0
 29 27  2  0
M  END
$$$$
