MYL.pdb
     RDKit          3D

 29 29  0  0  1  0  0  0  0  0999 V2000
   28.8995  -13.4883  -15.6775 C   0  0  0  0  0  0  0  0  0  0  0  0
   27.1884  -13.7107  -16.1572 S   0  0  0  0  0  0  0  0  0  0  0  0
   26.9857  -14.6703  -17.6600 C   0  0  0  0  0  0  0  0  0  0  0  0
   25.5353  -14.9638  -17.9675 C   0  0  0  0  0  0  0  0  0  0  0  0
   24.9824  -16.0976  -17.1808 C   0  0  2  0  0  0  0  0  0  0  0  0
   25.6213  -17.3273  -17.6075 N   0  0  0  0  0  0  0  0  0  0  0  0
   23.5186  -16.2493  -17.2885 C   0  0  0  0  0  0  0  0  0  0  0  0
   23.0219  -17.0215  -18.1635 O   0  0  0  0  0  0  0  0  0  0  0  0
   20.7384  -21.9157  -15.2058 O   0  0  0  0  0  0  0  0  0  0  0  0
   20.7229  -20.5275  -15.2449 C   0  0  0  0  0  0  0  0  0  0  0  0
   21.6760  -19.7685  -14.5932 C   0  0  0  0  0  0  0  0  0  0  0  0
   21.6249  -18.3796  -14.6575 C   0  0  0  0  0  0  0  0  0  0  0  0
   20.6419  -17.7337  -15.3591 C   0  0  0  0  0  0  0  0  0  0  0  0
   20.5863  -16.2852  -15.4227 C   0  0  0  0  0  0  0  0  0  0  0  0
   21.1392  -15.6364  -16.6436 C   0  0  2  0  0  0  0  0  0  0  0  0
   22.5833  -15.5769  -16.4627 N   0  0  0  0  0  0  0  0  0  0  0  0
   20.5545  -14.2946  -16.8308 C   0  0  0  0  0  0  0  0  0  0  0  0
   20.8675  -13.3601  -16.0500 O   0  0  0  0  0  0  0  0  0  0  0  0
   19.6929  -18.4923  -16.0078 C   0  0  0  0  0  0  0  0  0  0  0  0
   19.7280  -19.8915  -15.9546 C   0  0  0  0  0  0  0  0  0  0  0  0
   19.7340  -11.9459  -21.7848 C   0  0  0  0  0  0  0  0  0  0  0  0
   20.0086  -12.1589  -20.3332 C   0  0  1  0  0  0  0  0  0  0  0  0
   20.7438  -10.9041  -19.8445 C   0  0  0  0  0  0  0  0  0  0  0  0
   18.7933  -12.3315  -19.4697 C   0  0  0  0  0  0  0  0  0  0  0  0
   19.0672  -12.6445  -18.0353 C   0  0  2  0  0  0  0  0  0  0  0  0
   19.6349  -13.9762  -17.8626 N   0  0  0  0  0  0  0  0  0  0  0  0
   17.9034  -12.5257  -17.1365 C   0  0  0  0  0  0  0  0  0  0  0  0
   17.4892  -11.2943  -16.6516 O   0  0  0  0  0  0  0  0  0  0  0  0
   17.2366  -13.5269  -16.7707 O   0  0  0  0  0  0  0  0  0  0  0  0
  2  1  1  0
  3  2  1  0
  4  3  1  0
  4  5  1  0
  5  6  1  6
  7  5  1  0
  7  8  2  0
  9 10  1  0
 10 20  2  0
 10 11  1  0
 11 12  2  0
 12 13  1  0
 13 14  1  0
 15 14  1  1
 15 16  1  0
 16  7  1  0
 17 15  1  0
 18 17  2  0
 19 13  2  0
 20 19  1  0
 22 21  1  6
 22 24  1  0
 23 22  1  0
 25 24  1  6
 25 26  1  0
 25 27  1  0
 26 17  1  0
 27 28  1  0
 29 27  2  0
M  END
$$$$
