MYL.pdb
     RDKit          3D

 29 29  0  0  1  0  0  0  0  0999 V2000
   31.8747  -22.2141   -9.5352 C   0  0  0  0  0  0  0  0  0  0  0  0
   31.9129  -22.8509  -11.2086 S   0  0  0  0  0  0  0  0  0  0  0  0
   32.2896  -21.6020  -12.4409 C   0  0  0  0  0  0  0  0  0  0  0  0
   31.1801  -20.5871  -12.5939 C   0  0  0  0  0  0  0  0  0  0  0  0
   29.9870  -21.1188  -13.3039 C   0  0  2  0  0  0  0  0  0  0  0  0
   30.1229  -20.8546  -14.7231 N   0  0  0  0  0  0  0  0  0  0  0  0
   28.7052  -20.5640  -12.8281 C   0  0  0  0  0  0  0  0  0  0  0  0
   28.4888  -19.3160  -12.8940 O   0  0  0  0  0  0  0  0  0  0  0  0
   20.0670  -19.5859  -11.6054 O   0  0  0  0  0  0  0  0  0  0  0  0
   21.3565  -20.0385  -11.8535 C   0  0  0  0  0  0  0  0  0  0  0  0
   21.7831  -21.2869  -11.4431 C   0  0  0  0  0  0  0  0  0  0  0  0
   23.0835  -21.7026  -11.7118 C   0  0  0  0  0  0  0  0  0  0  0  0
   23.9657  -20.8973  -12.3817 C   0  0  0  0  0  0  0  0  0  0  0  0
   25.3230  -21.3292  -12.6582 C   0  0  0  0  0  0  0  0  0  0  0  0
   26.4002  -20.7882  -11.7840 C   0  0  2  0  0  0  0  0  0  0  0  0
   27.6531  -21.3404  -12.2813 N   0  0  0  0  0  0  0  0  0  0  0  0
   26.1608  -21.1545  -10.3748 C   0  0  0  0  0  0  0  0  0  0  0  0
   26.1924  -22.3623  -10.0272 O   0  0  0  0  0  0  0  0  0  0  0  0
   23.5382  -19.6532  -12.7897 C   0  0  0  0  0  0  0  0  0  0  0  0
   22.2329  -19.2174  -12.5284 C   0  0  0  0  0  0  0  0  0  0  0  0
   28.1120  -18.4593   -5.8967 C   0  0  0  0  0  0  0  0  0  0  0  0
   27.6136  -19.5239   -6.8163 C   0  0  1  0  0  0  0  0  0  0  0  0
   28.0341  -20.8623   -6.1951 C   0  0  0  0  0  0  0  0  0  0  0  0
   26.1249  -19.5642   -7.0030 C   0  0  0  0  0  0  0  0  0  0  0  0
   25.6291  -20.5885   -7.9701 C   0  0  2  0  0  0  0  0  0  0  0  0
   25.8889  -20.2087   -9.3535 N   0  0  0  0  0  0  0  0  0  0  0  0
   24.1964  -20.9194   -7.8502 C   0  0  0  0  0  0  0  0  0  0  0  0
   23.7405  -21.8151   -6.8948 O   0  0  0  0  0  0  0  0  0  0  0  0
   23.3274  -20.4088   -8.6019 O   0  0  0  0  0  0  0  0  0  0  0  0
  2  1  1  0
  3  2  1  0
  4  3  1  0
  4  5  1  0
  5  6  1  6
  7  5  1  0
  7  8  2  0
  9 10  1  0
 10 20  2  0
 10 11  1  0
 11 12  2  0
 12 13  1  0
 13 14  1  0
 15 14  1  6
 15 16  1  0
 16  7  1  0
 17 15  1  0
 18 17  2  0
 19 13  2  0
 20 19  1  0
 22 21  1  1
 22 24  1  0
 23 22  1  0
 25 24  1  1
 25 26  1  0
 25 27  1  0
 26 17  1  0
 27 28  1  0
 29 27  2  0
M  END
$$$$
