MYL.pdb
     RDKit          3D

 29 29  0  0  1  0  0  0  0  0999 V2000
   26.2234  -16.3846  -14.5968 C   0  0  0  0  0  0  0  0  0  0  0  0
   27.1680  -17.9013  -14.4763 S   0  0  0  0  0  0  0  0  0  0  0  0
   27.2455  -18.8201  -16.0158 C   0  0  0  0  0  0  0  0  0  0  0  0
   27.9845  -20.1305  -15.8708 C   0  0  0  0  0  0  0  0  0  0  0  0
   28.0037  -20.9391  -17.1182 C   0  0  2  0  0  0  0  0  0  0  0  0
   26.6398  -21.2159  -17.5250 N   0  0  0  0  0  0  0  0  0  0  0  0
   28.7423  -22.2111  -17.0011 C   0  0  0  0  0  0  0  0  0  0  0  0
   29.9681  -22.2072  -16.6759 O   0  0  0  0  0  0  0  0  0  0  0  0
   29.5881  -31.1400  -16.5721 O   0  0  0  0  0  0  0  0  0  0  0  0
   29.1577  -29.8208  -16.6319 C   0  0  0  0  0  0  0  0  0  0  0  0
   28.6190  -29.2806  -17.7838 C   0  0  0  0  0  0  0  0  0  0  0  0
   28.1996  -27.9540  -17.8020 C   0  0  0  0  0  0  0  0  0  0  0  0
   28.3073  -27.1567  -16.6937 C   0  0  0  0  0  0  0  0  0  0  0  0
   27.8737  -25.7722  -16.7140 C   0  0  0  0  0  0  0  0  0  0  0  0
   28.8915  -24.7460  -17.0726 C   0  0  2  0  0  0  0  0  0  0  0  0
   28.1733  -23.4887  -17.2311 N   0  0  0  0  0  0  0  0  0  0  0  0
   29.6053  -25.1289  -18.3059 C   0  0  0  0  0  0  0  0  0  0  0  0
   29.0616  -24.9514  -19.4255 O   0  0  0  0  0  0  0  0  0  0  0  0
   28.8448  -27.6973  -15.5467 C   0  0  0  0  0  0  0  0  0  0  0  0
   29.2724  -29.0306  -15.5092 C   0  0  0  0  0  0  0  0  0  0  0  0
   34.4727  -23.4446  -19.5987 C   0  0  0  0  0  0  0  0  0  0  0  0
   33.0881  -23.9995  -19.6509 C   0  0  1  0  0  0  0  0  0  0  0  0
   32.5030  -23.5726  -21.0035 C   0  0  0  0  0  0  0  0  0  0  0  0
   32.9939  -25.4954  -19.5736 C   0  0  0  0  0  0  0  0  0  0  0  0
   31.6068  -26.0482  -19.5447 C   0  0  2  0  0  0  0  0  0  0  0  0
   30.9029  -25.7014  -18.3160 N   0  0  0  0  0  0  0  0  0  0  0  0
   31.5124  -27.5091  -19.7266 C   0  0  0  0  0  0  0  0  0  0  0  0
   31.6190  -28.3783  -18.6514 O   0  0  0  0  0  0  0  0  0  0  0  0
   31.3316  -28.0317  -20.8559 O   0  0  0  0  0  0  0  0  0  0  0  0
  2  1  1  0
  3  2  1  0
  4  3  1  0
  4  5  1  0
  5  6  1  1
  7  5  1  0
  7  8  2  0
  9 10  1  0
 10 20  2  0
 10 11  1  0
 11 12  2  0
 12 13  1  0
 13 14  1  0
 15 14  1  6
 15 16  1  0
 16  7  1  0
 17 15  1  0
 18 17  2  0
 19 13  2  0
 20 19  1  0
 22 21  1  6
 22 24  1  0
 23 22  1  0
 25 24  1  1
 25 26  1  0
 25 27  1  0
 26 17  1  0
 27 28  1  0
 29 27  2  0
M  END
$$$$
