MYL.pdb
     RDKit          3D

 29 29  0  0  1  0  0  0  0  0999 V2000
   19.8548  -18.6017  -14.7763 C   0  0  0  0  0  0  0  0  0  0  0  0
   19.7487  -18.3485  -16.5460 S   0  0  0  0  0  0  0  0  0  0  0  0
   21.1552  -19.0030  -17.4480 C   0  0  0  0  0  0  0  0  0  0  0  0
   22.1661  -19.6664  -16.5410 C   0  0  0  0  0  0  0  0  0  0  0  0
   23.5598  -19.5873  -17.0522 C   0  0  2  0  0  0  0  0  0  0  0  0
   23.6486  -20.3161  -18.3025 N   0  0  0  0  0  0  0  0  0  0  0  0
   24.5759  -20.1053  -16.1160 C   0  0  0  0  0  0  0  0  0  0  0  0
   24.7039  -21.3553  -15.9442 O   0  0  0  0  0  0  0  0  0  0  0  0
   29.8738  -21.4429  -19.5649 O   0  0  0  0  0  0  0  0  0  0  0  0
   29.3584  -20.9400  -18.3772 C   0  0  0  0  0  0  0  0  0  0  0  0
   29.4293  -21.6485  -17.1932 C   0  0  0  0  0  0  0  0  0  0  0  0
   28.9006  -21.1088  -16.0248 C   0  0  0  0  0  0  0  0  0  0  0  0
   28.3031  -19.8765  -16.0151 C   0  0  0  0  0  0  0  0  0  0  0  0
   27.7481  -19.3155  -14.7975 C   0  0  0  0  0  0  0  0  0  0  0  0
   26.4029  -19.7974  -14.3781 C   0  0  2  0  0  0  0  0  0  0  0  0
   25.4564  -19.2898  -15.3620 N   0  0  0  0  0  0  0  0  0  0  0  0
   26.0827  -19.3282  -13.0163 C   0  0  0  0  0  0  0  0  0  0  0  0
   25.4036  -18.2821  -12.8574 O   0  0  0  0  0  0  0  0  0  0  0  0
   28.2334  -19.1722  -17.1966 C   0  0  0  0  0  0  0  0  0  0  0  0
   28.7600  -19.6991  -18.3827 C   0  0  0  0  0  0  0  0  0  0  0  0
   22.9115  -19.4313   -9.2075 C   0  0  0  0  0  0  0  0  0  0  0  0
   23.4250  -20.7392   -9.7107 C   0  0  1  0  0  0  0  0  0  0  0  0
   22.1943  -21.5520  -10.1337 C   0  0  0  0  0  0  0  0  0  0  0  0
   24.3370  -20.6550  -10.8997 C   0  0  0  0  0  0  0  0  0  0  0  0
   25.6830  -20.0656  -10.6326 C   0  0  2  0  0  0  0  0  0  0  0  0
   26.5011  -19.9965  -11.8374 N   0  0  0  0  0  0  0  0  0  0  0  0
   26.4685  -20.7494   -9.5877 C   0  0  0  0  0  0  0  0  0  0  0  0
   26.5899  -20.2178   -8.3126 O   0  0  0  0  0  0  0  0  0  0  0  0
   27.0598  -21.8382   -9.8012 O   0  0  0  0  0  0  0  0  0  0  0  0
  2  1  1  0
  3  2  1  0
  4  3  1  0
  4  5  1  0
  5  6  1  6
  7  5  1  0
  7  8  2  0
  9 10  1  0
 10 20  2  0
 10 11  1  0
 11 12  2  0
 12 13  1  0
 13 14  1  0
 15 14  1  6
 15 16  1  0
 16  7  1  0
 17 15  1  0
 18 17  2  0
 19 13  2  0
 20 19  1  0
 22 21  1  6
 22 24  1  0
 23 22  1  0
 25 24  1  6
 25 26  1  0
 25 27  1  0
 26 17  1  0
 27 28  1  0
 29 27  2  0
M  END
$$$$
