MYL.pdb
     RDKit          3D

 29 29  0  0  1  0  0  0  0  0999 V2000
   29.4243  -16.4897  -16.4406 C   0  0  0  0  0  0  0  0  0  0  0  0
   28.1442  -17.4810  -15.6751 S   0  0  0  0  0  0  0  0  0  0  0  0
   27.7829  -18.9956  -16.5671 C   0  0  0  0  0  0  0  0  0  0  0  0
   26.7611  -19.8546  -15.8583 C   0  0  0  0  0  0  0  0  0  0  0  0
   27.2014  -20.3069  -14.5122 C   0  0  2  0  0  0  0  0  0  0  0  0
   28.2350  -21.3123  -14.6643 N   0  0  0  0  0  0  0  0  0  0  0  0
   26.1158  -20.8507  -13.6738 C   0  0  0  0  0  0  0  0  0  0  0  0
   25.8661  -22.0941  -13.6844 O   0  0  0  0  0  0  0  0  0  0  0  0
   27.9116  -20.5224   -6.8510 O   0  0  0  0  0  0  0  0  0  0  0  0
   26.9420  -20.3569   -7.8316 C   0  0  0  0  0  0  0  0  0  0  0  0
   25.9552  -21.2993   -8.0483 C   0  0  0  0  0  0  0  0  0  0  0  0
   25.0021  -21.0953   -9.0412 C   0  0  0  0  0  0  0  0  0  0  0  0
   25.0145  -19.9698   -9.8214 C   0  0  0  0  0  0  0  0  0  0  0  0
   24.0229  -19.7591  -10.8595 C   0  0  0  0  0  0  0  0  0  0  0  0
   24.1448  -20.5833  -12.0937 C   0  0  2  0  0  0  0  0  0  0  0  0
   25.2954  -20.0681  -12.8233 N   0  0  0  0  0  0  0  0  0  0  0  0
   22.9083  -20.5069  -12.8954 C   0  0  0  0  0  0  0  0  0  0  0  0
   22.9364  -19.9954  -14.0435 O   0  0  0  0  0  0  0  0  0  0  0  0
   25.9991  -19.0318   -9.6036 C   0  0  0  0  0  0  0  0  0  0  0  0
   26.9671  -19.2197   -8.6088 C   0  0  0  0  0  0  0  0  0  0  0  0
   19.8457  -21.7468  -16.5282 C   0  0  0  0  0  0  0  0  0  0  0  0
   20.0101  -22.7259  -15.4137 C   0  0  1  0  0  0  0  0  0  0  0  0
   20.4669  -24.0410  -16.0586 C   0  0  0  0  0  0  0  0  0  0  0  0
   21.0330  -22.3544  -14.3800 C   0  0  0  0  0  0  0  0  0  0  0  0
   20.5775  -21.3679  -13.3554 C   0  0  2  0  0  0  0  0  0  0  0  0
   21.6510  -20.9854  -12.4462 N   0  0  0  0  0  0  0  0  0  0  0  0
   19.4242  -21.7986  -12.5426 C   0  0  0  0  0  0  0  0  0  0  0  0
   19.5577  -22.7629  -11.5550 O   0  0  0  0  0  0  0  0  0  0  0  0
   18.2748  -21.3154  -12.7046 O   0  0  0  0  0  0  0  0  0  0  0  0
  2  1  1  0
  3  2  1  0
  4  3  1  0
  4  5  1  0
  5  6  1  6
  7  5  1  0
  7  8  2  0
  9 10  1  0
 10 20  2  0
 10 11  1  0
 11 12  2  0
 12 13  1  0
 13 14  1  0
 15 14  1  1
 15 16  1  0
 16  7  1  0
 17 15  1  0
 18 17  2  0
 19 13  2  0
 20 19  1  0
 22 21  1  6
 22 24  1  0
 23 22  1  0
 25 24  1  6
 25 26  1  0
 25 27  1  0
 26 17  1  0
 27 28  1  0
 29 27  2  0
M  END
$$$$
