MYL.pdb
     RDKit          3D

 29 29  0  0  1  0  0  0  0  0999 V2000
   26.6992  -17.2164  -14.1796 C   0  0  0  0  0  0  0  0  0  0  0  0
   25.5584  -17.0359  -15.5483 S   0  0  0  0  0  0  0  0  0  0  0  0
   26.1640  -15.9555  -16.8468 C   0  0  0  0  0  0  0  0  0  0  0  0
   26.3842  -14.5397  -16.3656 C   0  0  0  0  0  0  0  0  0  0  0  0
   26.8512  -13.6183  -17.4347 C   0  0  2  0  0  0  0  0  0  0  0  0
   28.2203  -13.9479  -17.7802 N   0  0  0  0  0  0  0  0  0  0  0  0
   26.7724  -12.1892  -17.0761 C   0  0  0  0  0  0  0  0  0  0  0  0
   27.5677  -11.7047  -16.2151 O   0  0  0  0  0  0  0  0  0  0  0  0
   31.8687   -9.6810  -19.1678 O   0  0  0  0  0  0  0  0  0  0  0  0
   30.4999   -9.5484  -18.9725 C   0  0  0  0  0  0  0  0  0  0  0  0
   29.5854  -10.3057  -19.6788 C   0  0  0  0  0  0  0  0  0  0  0  0
   28.2222  -10.1423  -19.4531 C   0  0  0  0  0  0  0  0  0  0  0  0
   27.7543   -9.2385  -18.5368 C   0  0  0  0  0  0  0  0  0  0  0  0
   26.3326   -9.0652  -18.3044 C   0  0  0  0  0  0  0  0  0  0  0  0
   25.7151   -9.8841  -17.2248 C   0  0  2  0  0  0  0  0  0  0  0  0
   25.8445  -11.2756  -17.6357 N   0  0  0  0  0  0  0  0  0  0  0  0
   24.3046   -9.5012  -17.0225 C   0  0  0  0  0  0  0  0  0  0  0  0
   23.4050  -10.0290  -17.7244 O   0  0  0  0  0  0  0  0  0  0  0  0
   28.6678   -8.4845  -17.8340 C   0  0  0  0  0  0  0  0  0  0  0  0
   30.0439   -8.6350  -18.0474 C   0  0  0  0  0  0  0  0  0  0  0  0
   19.4175   -9.5024  -16.0209 C   0  0  0  0  0  0  0  0  0  0  0  0
   20.2742   -8.9945  -14.9093 C   0  0  1  0  0  0  0  0  0  0  0  0
   19.8269   -9.7396  -13.6448 C   0  0  0  0  0  0  0  0  0  0  0  0
   21.7466   -9.2346  -15.0740 C   0  0  0  0  0  0  0  0  0  0  0  0
   22.4800   -8.1968  -15.8585 C   0  0  2  0  0  0  0  0  0  0  0  0
   23.8801   -8.5489  -16.0609 N   0  0  0  0  0  0  0  0  0  0  0  0
   22.4302   -6.8351  -15.2931 C   0  0  0  0  0  0  0  0  0  0  0  0
   21.4098   -5.9549  -15.6204 O   0  0  0  0  0  0  0  0  0  0  0  0
   23.3030   -6.4112  -14.4934 O   0  0  0  0  0  0  0  0  0  0  0  0
  2  1  1  0
  3  2  1  0
  4  3  1  0
  4  5  1  0
  5  6  1  1
  7  5  1  0
  7  8  2  0
  9 10  1  0
 10 20  2  0
 10 11  1  0
 11 12  2  0
 12 13  1  0
 13 14  1  0
 15 14  1  6
 15 16  1  0
 16  7  1  0
 17 15  1  0
 18 17  2  0
 19 13  2  0
 20 19  1  0
 22 21  1  6
 22 24  1  0
 23 22  1  0
 25 24  1  1
 25 26  1  0
 25 27  1  0
 26 17  1  0
 27 28  1  0
 29 27  2  0
M  END
$$$$
