MYL.pdb
     RDKit          3D

 29 29  0  0  1  0  0  0  0  0999 V2000
   32.3115  -24.4066  -15.2816 C   0  0  0  0  0  0  0  0  0  0  0  0
   32.2543  -25.6528  -16.5665 S   0  0  0  0  0  0  0  0  0  0  0  0
   32.0131  -24.9749  -18.2104 C   0  0  0  0  0  0  0  0  0  0  0  0
   30.8645  -23.9941  -18.2689 C   0  0  0  0  0  0  0  0  0  0  0  0
   29.6605  -24.5346  -18.9534 C   0  0  2  0  0  0  0  0  0  0  0  0
   29.8383  -24.4186  -20.3877 N   0  0  0  0  0  0  0  0  0  0  0  0
   28.3992  -23.8740  -18.5663 C   0  0  0  0  0  0  0  0  0  0  0  0
   28.1541  -22.6925  -18.9569 O   0  0  0  0  0  0  0  0  0  0  0  0
   20.3945  -22.9821  -14.6332 O   0  0  0  0  0  0  0  0  0  0  0  0
   21.5749  -23.4292  -15.2128 C   0  0  0  0  0  0  0  0  0  0  0  0
   22.5182  -24.1377  -14.4936 C   0  0  0  0  0  0  0  0  0  0  0  0
   23.6880  -24.5679  -15.1120 C   0  0  0  0  0  0  0  0  0  0  0  0
   23.9345  -24.3051  -16.4333 C   0  0  0  0  0  0  0  0  0  0  0  0
   25.1563  -24.7502  -17.0770 C   0  0  0  0  0  0  0  0  0  0  0  0
   26.2597  -23.7580  -17.2017 C   0  0  2  0  0  0  0  0  0  0  0  0
   27.3982  -24.4735  -17.7616 N   0  0  0  0  0  0  0  0  0  0  0  0
   26.5772  -23.1643  -15.8887 C   0  0  0  0  0  0  0  0  0  0  0  0
   26.9954  -23.8951  -14.9551 O   0  0  0  0  0  0  0  0  0  0  0  0
   22.9929  -23.5985  -17.1481 C   0  0  0  0  0  0  0  0  0  0  0  0
   21.8093  -23.1573  -16.5428 C   0  0  0  0  0  0  0  0  0  0  0  0
   28.7514  -19.8055  -12.2787 C   0  0  0  0  0  0  0  0  0  0  0  0
   27.6814  -19.1773  -13.1082 C   0  0  1  0  0  0  0  0  0  0  0  0
   28.1668  -17.7595  -13.4370 C   0  0  0  0  0  0  0  0  0  0  0  0
   27.3927  -19.8658  -14.4103 C   0  0  0  0  0  0  0  0  0  0  0  0
   26.7559  -21.2117  -14.2946 C   0  0  2  0  0  0  0  0  0  0  0  0
   26.4389  -21.7830  -15.5979 N   0  0  0  0  0  0  0  0  0  0  0  0
   25.5344  -21.2561  -13.4687 C   0  0  0  0  0  0  0  0  0  0  0  0
   25.5374  -21.8307  -12.2066 O   0  0  0  0  0  0  0  0  0  0  0  0
   24.4413  -20.7785  -13.8661 O   0  0  0  0  0  0  0  0  0  0  0  0
  2  1  1  0
  3  2  1  0
  4  3  1  0
  4  5  1  0
  5  6  1  6
  7  5  1  0
  7  8  2  0
  9 10  1  0
 10 20  2  0
 10 11  1  0
 11 12  2  0
 12 13  1  0
 13 14  1  0
 15 14  1  1
 15 16  1  0
 16  7  1  0
 17 15  1  0
 18 17  2  0
 19 13  2  0
 20 19  1  0
 22 21  1  6
 22 24  1  0
 23 22  1  0
 25 24  1  6
 25 26  1  0
 25 27  1  0
 26 17  1  0
 27 28  1  0
 29 27  2  0
M  END
$$$$
