MYL.pdb
     RDKit          3D

 29 29  0  0  1  0  0  0  0  0999 V2000
   26.3102  -18.2001  -19.4817 C   0  0  0  0  0  0  0  0  0  0  0  0
   27.7749  -17.7828  -18.5395 S   0  0  0  0  0  0  0  0  0  0  0  0
   28.2079  -19.0136  -17.3075 C   0  0  0  0  0  0  0  0  0  0  0  0
   26.9997  -19.5448  -16.5711 C   0  0  0  0  0  0  0  0  0  0  0  0
   27.3326  -20.5861  -15.5636 C   0  0  2  0  0  0  0  0  0  0  0  0
   27.8498  -21.7570  -16.2448 N   0  0  0  0  0  0  0  0  0  0  0  0
   26.1969  -20.9843  -14.7099 C   0  0  0  0  0  0  0  0  0  0  0  0
   25.5492  -22.0441  -14.9665 O   0  0  0  0  0  0  0  0  0  0  0  0
   21.3740  -21.6149   -7.2831 O   0  0  0  0  0  0  0  0  0  0  0  0
   22.2241  -21.2085   -8.3035 C   0  0  0  0  0  0  0  0  0  0  0  0
   23.5820  -21.4609   -8.2659 C   0  0  0  0  0  0  0  0  0  0  0  0
   24.3993  -21.0368   -9.3090 C   0  0  0  0  0  0  0  0  0  0  0  0
   23.8882  -20.3661  -10.3882 C   0  0  0  0  0  0  0  0  0  0  0  0
   24.7412  -19.9202  -11.4739 C   0  0  0  0  0  0  0  0  0  0  0  0
   24.5797  -20.6002  -12.7889 C   0  0  2  0  0  0  0  0  0  0  0  0
   25.7511  -20.2517  -13.5815 N   0  0  0  0  0  0  0  0  0  0  0  0
   23.3280  -20.1756  -13.4447 C   0  0  0  0  0  0  0  0  0  0  0  0
   23.2509  -19.0358  -13.9697 O   0  0  0  0  0  0  0  0  0  0  0  0
   22.5344  -20.1155  -10.4234 C   0  0  0  0  0  0  0  0  0  0  0  0
   21.6957  -20.5347   -9.3828 C   0  0  0  0  0  0  0  0  0  0  0  0
   19.8289  -18.9496  -16.7387 C   0  0  0  0  0  0  0  0  0  0  0  0
   19.8912  -20.4260  -16.5291 C   0  0  1  0  0  0  0  0  0  0  0  0
   20.0328  -21.0539  -17.9218 C   0  0  0  0  0  0  0  0  0  0  0  0
   21.0464  -20.9075  -15.7006 C   0  0  0  0  0  0  0  0  0  0  0  0
   20.9663  -20.5867  -14.2442 C   0  0  2  0  0  0  0  0  0  0  0  0
   22.1694  -20.9897  -13.5262 N   0  0  0  0  0  0  0  0  0  0  0  0
   19.8030  -21.1601  -13.5410 C   0  0  0  0  0  0  0  0  0  0  0  0
   19.9591  -21.9384  -12.4040 O   0  0  0  0  0  0  0  0  0  0  0  0
   18.6242  -20.9716  -13.9355 O   0  0  0  0  0  0  0  0  0  0  0  0
  2  1  1  0
  3  2  1  0
  4  3  1  0
  4  5  1  0
  5  6  1  6
  7  5  1  0
  7  8  2  0
  9 10  1  0
 10 20  2  0
 10 11  1  0
 11 12  2  0
 12 13  1  0
 13 14  1  0
 15 14  1  1
 15 16  1  0
 16  7  1  0
 17 15  1  0
 18 17  2  0
 19 13  2  0
 20 19  1  0
 22 21  1  6
 22 24  1  0
 23 22  1  0
 25 24  1  6
 25 26  1  0
 25 27  1  0
 26 17  1  0
 27 28  1  0
 29 27  2  0
M  END
$$$$
