MYL.pdb
     RDKit          3D

 29 29  0  0  1  0  0  0  0  0999 V2000
   11.3578  -13.8611  -14.9809 C   0  0  0  0  0  0  0  0  0  0  0  0
   12.4716  -13.1701  -13.7606 S   0  0  0  0  0  0  0  0  0  0  0  0
   13.8894  -12.3355  -14.4773 C   0  0  0  0  0  0  0  0  0  0  0  0
   14.8370  -11.8007  -13.4283 C   0  0  0  0  0  0  0  0  0  0  0  0
   16.0094  -11.0873  -14.0000 C   0  0  2  0  0  0  0  0  0  0  0  0
   16.9696  -12.0618  -14.4803 N   0  0  0  0  0  0  0  0  0  0  0  0
   16.6784  -10.1726  -13.0549 C   0  0  0  0  0  0  0  0  0  0  0  0
   17.4176  -10.6376  -12.1353 O   0  0  0  0  0  0  0  0  0  0  0  0
   22.5293   -9.3495  -15.3507 O   0  0  0  0  0  0  0  0  0  0  0  0
   21.4180   -8.7639  -14.7582 C   0  0  0  0  0  0  0  0  0  0  0  0
   20.2625   -8.5057  -15.4704 C   0  0  0  0  0  0  0  0  0  0  0  0
   19.1710   -7.9176  -14.8390 C   0  0  0  0  0  0  0  0  0  0  0  0
   19.2100   -7.5826  -13.5117 C   0  0  0  0  0  0  0  0  0  0  0  0
   18.0731   -6.9656  -12.8544 C   0  0  0  0  0  0  0  0  0  0  0  0
   17.1501   -7.8636  -12.1068 C   0  0  2  0  0  0  0  0  0  0  0  0
   16.5589   -8.7608  -13.0903 N   0  0  0  0  0  0  0  0  0  0  0  0
   16.1238   -7.0790  -11.3938 C   0  0  0  0  0  0  0  0  0  0  0  0
   15.1634   -6.5773  -12.0313 O   0  0  0  0  0  0  0  0  0  0  0  0
   20.3629   -7.8408  -12.8039 C   0  0  0  0  0  0  0  0  0  0  0  0
   21.4719   -8.4323  -13.4222 C   0  0  0  0  0  0  0  0  0  0  0  0
   12.6512   -6.4352   -7.0333 C   0  0  0  0  0  0  0  0  0  0  0  0
   13.9921   -5.7796   -7.0353 C   0  0  1  0  0  0  0  0  0  0  0  0
   14.4635   -5.7570   -5.5754 C   0  0  0  0  0  0  0  0  0  0  0  0
   15.0482   -6.4831   -7.8367 C   0  0  0  0  0  0  0  0  0  0  0  0
   15.0783   -6.1453   -9.2912 C   0  0  2  0  0  0  0  0  0  0  0  0
   16.1467   -6.8442   -9.9952 N   0  0  0  0  0  0  0  0  0  0  0  0
   15.1970   -4.7069   -9.5963 C   0  0  0  0  0  0  0  0  0  0  0  0
   14.0778   -3.9290   -9.8522 O   0  0  0  0  0  0  0  0  0  0  0  0
   16.3093   -4.1221   -9.6379 O   0  0  0  0  0  0  0  0  0  0  0  0
  2  1  1  0
  3  2  1  0
  4  3  1  0
  4  5  1  0
  5  6  1  1
  7  5  1  0
  7  8  2  0
  9 10  1  0
 10 20  2  0
 10 11  1  0
 11 12  2  0
 12 13  1  0
 13 14  1  0
 15 14  1  6
 15 16  1  0
 16  7  1  0
 17 15  1  0
 18 17  2  0
 19 13  2  0
 20 19  1  0
 22 21  1  1
 22 24  1  0
 23 22  1  0
 25 24  1  1
 25 26  1  0
 25 27  1  0
 26 17  1  0
 27 28  1  0
 29 27  2  0
M  END
$$$$
