GGQ.pdb
     RDKit          3D

 18 17  0  0  1  0  0  0  0  0999 V2000
    6.7957  -18.7512   20.1400 N   0  0  0  0  0  0  0  0  0  0  0  0
    6.2915  -18.4913   21.4526 C   0  0  0  0  0  0  0  0  0  0  0  0
    6.2432  -17.0285   21.7568 C   0  0  0  0  0  0  0  0  0  0  0  0
    5.7716  -16.6911   22.8809 O   0  0  0  0  0  0  0  0  0  0  0  0
    6.6990  -16.0557   20.8427 N   0  0  0  0  0  0  0  0  0  0  0  0
    6.7042  -14.6669   21.1904 C   0  0  0  0  0  0  0  0  0  0  0  0
    7.7095  -14.3903   22.2407 C   0  0  0  0  0  0  0  0  0  0  0  0
    8.7986  -13.8590   21.9076 O   0  0  0  0  0  0  0  0  0  0  0  0
    6.9535  -11.1595   26.9956 N   0  0  0  0  0  0  0  0  0  0  0  0
    6.1297  -12.2889   26.7798 C   0  0  0  0  0  0  0  0  0  0  0  0
    4.9817  -12.2991   27.2695 O   0  0  0  0  0  0  0  0  0  0  0  0
    6.6249  -13.4164   25.9966 C   0  0  0  0  0  0  0  0  0  0  0  0
    7.9771  -13.2213   25.4014 C   0  0  0  0  0  0  0  0  0  0  0  0
    8.5156  -14.3776   24.6248 C   0  0  2  0  0  0  0  0  0  0  0  0
    7.5025  -14.6966   23.6068 N   0  0  0  0  0  0  0  0  0  0  0  0
    8.6714  -15.5919   25.4986 C   0  0  0  0  0  0  0  0  0  0  0  0
    7.8661  -16.5514   25.4082 O   0  0  0  0  0  0  0  0  0  0  0  0
    9.7041  -15.6690   26.4144 O   0  0  0  0  0  0  0  0  0  0  0  0
  2  1  1  0
  3  2  1  0
  4  3  2  0
  5  3  1  0
  6  5  1  0
  7  6  1  0
  7  8  2  0
 10  9  1  0
 10 12  1  0
 11 10  2  0
 13 12  1  0
 14 13  1  1
 14 15  1  0
 15  7  1  0
 16 18  1  0
 16 14  1  0
 17 16  2  0
M  END
$$$$
