GGQ.pdb
     RDKit          3D

 18 17  0  0  1  0  0  0  0  0999 V2000
    8.2403  -13.3789   16.7674 N   0  0  0  0  0  0  0  0  0  0  0  0
    8.3204  -13.0199   18.1493 C   0  0  0  0  0  0  0  0  0  0  0  0
    8.0422  -14.1810   19.0488 C   0  0  0  0  0  0  0  0  0  0  0  0
    8.5295  -15.2984   18.7115 O   0  0  0  0  0  0  0  0  0  0  0  0
    7.2728  -14.0532   20.2242 N   0  0  0  0  0  0  0  0  0  0  0  0
    7.2114  -15.1167   21.1807 C   0  0  0  0  0  0  0  0  0  0  0  0
    8.0559  -14.8158   22.3582 C   0  0  0  0  0  0  0  0  0  0  0  0
    9.2362  -14.4276   22.1699 O   0  0  0  0  0  0  0  0  0  0  0  0
    6.2379  -10.7163   26.8519 N   0  0  0  0  0  0  0  0  0  0  0  0
    6.2133  -12.1098   26.6108 C   0  0  0  0  0  0  0  0  0  0  0  0
    5.4584  -12.8267   27.2992 O   0  0  0  0  0  0  0  0  0  0  0  0
    7.0607  -12.6875   25.5724 C   0  0  0  0  0  0  0  0  0  0  0  0
    7.5987  -14.0421   25.8831 C   0  0  0  0  0  0  0  0  0  0  0  0
    8.4726  -14.6477   24.8344 C   0  0  2  0  0  0  0  0  0  0  0  0
    7.5965  -14.9448   23.6905 N   0  0  0  0  0  0  0  0  0  0  0  0
    9.0567  -15.9522   25.3029 C   0  0  0  0  0  0  0  0  0  0  0  0
    8.5565  -17.0443   24.9363 O   0  0  0  0  0  0  0  0  0  0  0  0
   10.1535  -15.9676   26.1444 O   0  0  0  0  0  0  0  0  0  0  0  0
  2  1  1  0
  3  2  1  0
  4  3  2  0
  5  3  1  0
  6  5  1  0
  7  6  1  0
  7  8  2  0
 10  9  1  0
 10 12  1  0
 11 10  2  0
 13 12  1  0
 14 13  1  1
 14 15  1  0
 15  7  1  0
 16 18  1  0
 16 14  1  0
 17 16  2  0
M  END
$$$$
