GGQ.pdb
     RDKit          3D

 18 17  0  0  1  0  0  0  0  0999 V2000
    7.0798  -12.7550   18.4417 N   0  0  0  0  0  0  0  0  0  0  0  0
    8.3146  -13.4395   18.6687 C   0  0  0  0  0  0  0  0  0  0  0  0
    8.1877  -14.4943   19.7203 C   0  0  0  0  0  0  0  0  0  0  0  0
    7.1825  -14.4248   20.4848 O   0  0  0  0  0  0  0  0  0  0  0  0
    9.1371  -15.5272   19.8667 N   0  0  0  0  0  0  0  0  0  0  0  0
    9.0282  -16.4791   20.9305 C   0  0  0  0  0  0  0  0  0  0  0  0
    9.5241  -15.9072   22.2022 C   0  0  0  0  0  0  0  0  0  0  0  0
   10.7015  -15.4703   22.2480 O   0  0  0  0  0  0  0  0  0  0  0  0
    5.8135  -12.2173   26.3014 N   0  0  0  0  0  0  0  0  0  0  0  0
    6.1614  -13.5473   25.9687 C   0  0  0  0  0  0  0  0  0  0  0  0
    5.4577  -14.4810   26.4053 O   0  0  0  0  0  0  0  0  0  0  0  0
    7.3258  -13.8104   25.1289 C   0  0  0  0  0  0  0  0  0  0  0  0
    8.1175  -15.0133   25.5129 C   0  0  0  0  0  0  0  0  0  0  0  0
    9.2878  -15.3240   24.6390 C   0  0  2  0  0  0  0  0  0  0  0  0
    8.7332  -15.8285   23.3732 N   0  0  0  0  0  0  0  0  0  0  0  0
   10.1288  -16.4222   25.2297 C   0  0  0  0  0  0  0  0  0  0  0  0
    9.9747  -17.6130   24.8616 O   0  0  0  0  0  0  0  0  0  0  0  0
   11.0843  -16.1361   26.1871 O   0  0  0  0  0  0  0  0  0  0  0  0
  2  1  1  0
  3  2  1  0
  4  3  2  0
  5  3  1  0
  6  5  1  0
  7  6  1  0
  7  8  2  0
 10  9  1  0
 10 12  1  0
 11 10  2  0
 13 12  1  0
 14 13  1  1
 14 15  1  0
 15  7  1  0
 16 18  1  0
 16 14  1  0
 17 16  2  0
M  END
$$$$
