GGQ.pdb
     RDKit          3D

 18 17  0  0  1  0  0  0  0  0999 V2000
    0.6182  -26.6369   25.3199 N   0  0  0  0  0  0  0  0  0  0  0  0
   -0.3074  -25.5694   25.5402 C   0  0  0  0  0  0  0  0  0  0  0  0
   -1.3434  -25.9246   26.5576 C   0  0  0  0  0  0  0  0  0  0  0  0
   -0.9289  -26.3231   27.6842 O   0  0  0  0  0  0  0  0  0  0  0  0
   -2.7247  -25.8255   26.2894 N   0  0  0  0  0  0  0  0  0  0  0  0
   -3.6924  -26.1273   27.3004 C   0  0  0  0  0  0  0  0  0  0  0  0
   -4.3264  -24.8905   27.8090 C   0  0  0  0  0  0  0  0  0  0  0  0
   -3.9137  -23.7826   27.3830 O   0  0  0  0  0  0  0  0  0  0  0  0
  -10.6125  -22.1202   30.4657 N   0  0  0  0  0  0  0  0  0  0  0  0
   -9.7148  -23.1177   30.0189 C   0  0  0  0  0  0  0  0  0  0  0  0
  -10.1560  -24.2595   29.7755 O   0  0  0  0  0  0  0  0  0  0  0  0
   -8.2993  -22.8051   29.8495 C   0  0  0  0  0  0  0  0  0  0  0  0
   -7.4599  -23.9378   29.3663 C   0  0  0  0  0  0  0  0  0  0  0  0
   -6.0038  -23.6446   29.2118 C   0  0  2  0  0  0  0  0  0  0  0  0
   -5.3788  -24.8957   28.7552 N   0  0  0  0  0  0  0  0  0  0  0  0
   -5.3798  -23.2874   30.5329 C   0  0  0  0  0  0  0  0  0  0  0  0
   -5.5540  -22.1494   31.0347 O   0  0  0  0  0  0  0  0  0  0  0  0
   -4.6049  -24.2076   31.2142 O   0  0  0  0  0  0  0  0  0  0  0  0
  2  1  1  0
  3  2  1  0
  4  3  2  0
  5  3  1  0
  6  5  1  0
  7  6  1  0
  7  8  2  0
 10  9  1  0
 10 12  1  0
 11 10  2  0
 13 12  1  0
 14 13  1  1
 14 15  1  0
 15  7  1  0
 16 18  1  0
 16 14  1  0
 17 16  2  0
M  END
$$$$
