GGQ.pdb
     RDKit          3D

 18 17  0  0  1  0  0  0  0  0999 V2000
    8.1037  -18.7856   17.7266 N   0  0  0  0  0  0  0  0  0  0  0  0
    8.4664  -18.6326   19.1014 C   0  0  0  0  0  0  0  0  0  0  0  0
    7.8874  -17.3916   19.7007 C   0  0  0  0  0  0  0  0  0  0  0  0
    6.8836  -16.8875   19.1193 O   0  0  0  0  0  0  0  0  0  0  0  0
    8.4242  -16.7970   20.8618 N   0  0  0  0  0  0  0  0  0  0  0  0
    7.8316  -15.6223   21.4261 C   0  0  0  0  0  0  0  0  0  0  0  0
    8.6098  -15.1477   22.5921 C   0  0  0  0  0  0  0  0  0  0  0  0
    9.7207  -14.5957   22.3910 O   0  0  0  0  0  0  0  0  0  0  0  0
    7.1268  -11.3839   26.8728 N   0  0  0  0  0  0  0  0  0  0  0  0
    6.2836  -12.4378   26.4499 C   0  0  0  0  0  0  0  0  0  0  0  0
    5.0551  -12.3428   26.6485 O   0  0  0  0  0  0  0  0  0  0  0  0
    6.8523  -13.6111   25.7939 C   0  0  0  0  0  0  0  0  0  0  0  0
    8.3117  -13.5229   25.5054 C   0  0  0  0  0  0  0  0  0  0  0  0
    8.9610  -14.7914   25.0586 C   0  0  2  0  0  0  0  0  0  0  0  0
    8.1613  -15.2862   23.9272 N   0  0  0  0  0  0  0  0  0  0  0  0
    8.9067  -15.8374   26.1380 C   0  0  0  0  0  0  0  0  0  0  0  0
    9.5163  -15.6680   27.2228 O   0  0  0  0  0  0  0  0  0  0  0  0
    8.1843  -17.0013   25.9510 O   0  0  0  0  0  0  0  0  0  0  0  0
  2  1  1  0
  3  2  1  0
  4  3  2  0
  5  3  1  0
  6  5  1  0
  7  6  1  0
  7  8  2  0
 10  9  1  0
 10 12  1  0
 11 10  2  0
 13 12  1  0
 14 13  1  1
 14 15  1  0
 15  7  1  0
 16 18  1  0
 16 14  1  0
 17 16  2  0
M  END
$$$$
