GGQ.pdb
     RDKit          3D

 18 17  0  0  1  0  0  0  0  0999 V2000
    8.8583  -13.9445   17.4697 N   0  0  0  0  0  0  0  0  0  0  0  0
    8.1206  -13.1225   18.3780 C   0  0  0  0  0  0  0  0  0  0  0  0
    7.8277  -13.8276   19.6632 C   0  0  0  0  0  0  0  0  0  0  0  0
    7.2379  -13.1614   20.5622 O   0  0  0  0  0  0  0  0  0  0  0  0
    8.1859  -15.1746   19.8796 N   0  0  0  0  0  0  0  0  0  0  0  0
    7.7764  -15.8616   21.0670 C   0  0  0  0  0  0  0  0  0  0  0  0
    8.5331  -15.3778   22.2433 C   0  0  0  0  0  0  0  0  0  0  0  0
    9.5790  -14.7076   22.0531 O   0  0  0  0  0  0  0  0  0  0  0  0
    5.5077  -12.5557   26.4073 N   0  0  0  0  0  0  0  0  0  0  0  0
    6.8174  -12.3523   26.9014 C   0  0  0  0  0  0  0  0  0  0  0  0
    6.9981  -11.5003   27.7953 O   0  0  0  0  0  0  0  0  0  0  0  0
    7.9299  -13.1312   26.3668 C   0  0  0  0  0  0  0  0  0  0  0  0
    7.5752  -14.0410   25.2411 C   0  0  0  0  0  0  0  0  0  0  0  0
    8.6934  -14.8720   24.7034 C   0  0  2  0  0  0  0  0  0  0  0  0
    8.1339  -15.6346   23.5765 N   0  0  0  0  0  0  0  0  0  0  0  0
    9.1695  -15.8669   25.7260 C   0  0  0  0  0  0  0  0  0  0  0  0
    8.6025  -16.9811   25.8454 O   0  0  0  0  0  0  0  0  0  0  0  0
   10.2390  -15.5687   26.5498 O   0  0  0  0  0  0  0  0  0  0  0  0
  2  1  1  0
  3  2  1  0
  4  3  2  0
  5  3  1  0
  6  5  1  0
  7  6  1  0
  7  8  2  0
 10  9  1  0
 10 12  1  0
 11 10  2  0
 13 12  1  0
 14 13  1  1
 14 15  1  0
 15  7  1  0
 16 18  1  0
 16 14  1  0
 17 16  2  0
M  END
$$$$
