GGQ.pdb
     RDKit          3D

 18 17  0  0  1  0  0  0  0  0999 V2000
    4.7849  -21.9893   23.2488 N   0  0  0  0  0  0  0  0  0  0  0  0
    5.1484  -20.6196   23.4406 C   0  0  0  0  0  0  0  0  0  0  0  0
    6.4977  -20.3117   22.8755 C   0  0  0  0  0  0  0  0  0  0  0  0
    7.5011  -20.6849   23.5491 O   0  0  0  0  0  0  0  0  0  0  0  0
    6.6618  -19.6364   21.6481 N   0  0  0  0  0  0  0  0  0  0  0  0
    7.9366  -19.5942   20.9980 C   0  0  0  0  0  0  0  0  0  0  0  0
    8.4088  -18.1990   20.8540 C   0  0  0  0  0  0  0  0  0  0  0  0
    9.3571  -17.9622   20.0641 O   0  0  0  0  0  0  0  0  0  0  0  0
    8.7439  -11.8378   19.5149 N   0  0  0  0  0  0  0  0  0  0  0  0
    8.1723  -13.0995   19.8015 C   0  0  0  0  0  0  0  0  0  0  0  0
    8.0992  -13.9486   18.8897 O   0  0  0  0  0  0  0  0  0  0  0  0
    7.6799  -13.3914   21.1441 C   0  0  0  0  0  0  0  0  0  0  0  0
    7.3018  -14.8138   21.3783 C   0  0  0  0  0  0  0  0  0  0  0  0
    8.4392  -15.7715   21.5174 C   0  0  2  0  0  0  0  0  0  0  0  0
    7.8417  -17.1150   21.5655 N   0  0  0  0  0  0  0  0  0  0  0  0
    9.1709  -15.5591   22.8142 C   0  0  0  0  0  0  0  0  0  0  0  0
    8.6664  -15.9349   23.9012 O   0  0  0  0  0  0  0  0  0  0  0  0
   10.4103  -14.9468   22.8280 O   0  0  0  0  0  0  0  0  0  0  0  0
  2  1  1  0
  3  2  1  0
  4  3  2  0
  5  3  1  0
  6  5  1  0
  7  6  1  0
  7  8  2  0
 10  9  1  0
 10 12  1  0
 11 10  2  0
 13 12  1  0
 14 13  1  1
 14 15  1  0
 15  7  1  0
 16 18  1  0
 16 14  1  0
 17 16  2  0
M  END
$$$$
