GGQ.pdb
     RDKit          3D

 18 17  0  0  1  0  0  0  0  0999 V2000
    7.0875  -20.3930   18.4955 N   0  0  0  0  0  0  0  0  0  0  0  0
    5.8243  -20.2180   19.1424 C   0  0  0  0  0  0  0  0  0  0  0  0
    5.7339  -18.9065   19.8539 C   0  0  0  0  0  0  0  0  0  0  0  0
    5.6471  -17.8686   19.1362 O   0  0  0  0  0  0  0  0  0  0  0  0
    5.7437  -18.8131   21.2614 N   0  0  0  0  0  0  0  0  0  0  0  0
    5.5553  -17.5534   21.9150 C   0  0  0  0  0  0  0  0  0  0  0  0
    6.8292  -16.8040   21.9921 C   0  0  0  0  0  0  0  0  0  0  0  0
    7.9044  -17.4199   21.7826 O   0  0  0  0  0  0  0  0  0  0  0  0
    6.4114  -13.2806   19.1007 N   0  0  0  0  0  0  0  0  0  0  0  0
    7.6154  -13.3572   19.8390 C   0  0  0  0  0  0  0  0  0  0  0  0
    8.4997  -14.1558   19.4676 O   0  0  0  0  0  0  0  0  0  0  0  0
    7.8084  -12.5121   21.0132 C   0  0  0  0  0  0  0  0  0  0  0  0
    7.8182  -13.2386   22.3144 C   0  0  0  0  0  0  0  0  0  0  0  0
    8.1689  -14.6884   22.2437 C   0  0  2  0  0  0  0  0  0  0  0  0
    6.8948  -15.4224   22.2916 N   0  0  0  0  0  0  0  0  0  0  0  0
    8.9749  -15.1101   23.4415 C   0  0  0  0  0  0  0  0  0  0  0  0
   10.2177  -14.9318   23.4700 O   0  0  0  0  0  0  0  0  0  0  0  0
    8.3585  -15.7003   24.5292 O   0  0  0  0  0  0  0  0  0  0  0  0
  2  1  1  0
  3  2  1  0
  4  3  2  0
  5  3  1  0
  6  5  1  0
  7  6  1  0
  7  8  2  0
 10  9  1  0
 10 12  1  0
 11 10  2  0
 13 12  1  0
 14 13  1  1
 14 15  1  0
 15  7  1  0
 16 18  1  0
 16 14  1  0
 17 16  2  0
M  END
$$$$
