GGQ.pdb
     RDKit          3D

 18 17  0  0  1  0  0  0  0  0999 V2000
    8.6038  -12.4413   17.9483 N   0  0  0  0  0  0  0  0  0  0  0  0
    8.5413  -13.8037   18.3782 C   0  0  0  0  0  0  0  0  0  0  0  0
    7.9384  -13.9365   19.7397 C   0  0  0  0  0  0  0  0  0  0  0  0
    7.7815  -12.8720   20.4045 O   0  0  0  0  0  0  0  0  0  0  0  0
    7.5564  -15.1850   20.2736 N   0  0  0  0  0  0  0  0  0  0  0  0
    6.8902  -15.2700   21.5379 C   0  0  0  0  0  0  0  0  0  0  0  0
    7.8423  -15.0569   22.6507 C   0  0  0  0  0  0  0  0  0  0  0  0
    9.0357  -14.7737   22.3769 O   0  0  0  0  0  0  0  0  0  0  0  0
    6.2949  -10.6406   26.9103 N   0  0  0  0  0  0  0  0  0  0  0  0
    6.1529  -12.0259   26.6625 C   0  0  0  0  0  0  0  0  0  0  0  0
    5.2901  -12.6659   27.2978 O   0  0  0  0  0  0  0  0  0  0  0  0
    7.0067  -12.6843   25.6788 C   0  0  0  0  0  0  0  0  0  0  0  0
    7.5268  -14.0184   26.0920 C   0  0  0  0  0  0  0  0  0  0  0  0
    8.3785  -14.7210   25.0866 C   0  0  2  0  0  0  0  0  0  0  0  0
    7.4721  -15.1570   24.0129 N   0  0  0  0  0  0  0  0  0  0  0  0
    9.0043  -15.9558   25.6747 C   0  0  0  0  0  0  0  0  0  0  0  0
    8.4190  -17.0646   25.6027 O   0  0  0  0  0  0  0  0  0  0  0  0
   10.2336  -15.8876   26.3034 O   0  0  0  0  0  0  0  0  0  0  0  0
  2  1  1  0
  3  2  1  0
  4  3  2  0
  5  3  1  0
  6  5  1  0
  7  6  1  0
  7  8  2  0
 10  9  1  0
 10 12  1  0
 11 10  2  0
 13 12  1  0
 14 13  1  1
 14 15  1  0
 15  7  1  0
 16 18  1  0
 16 14  1  0
 17 16  2  0
M  END
$$$$
