GGQ.pdb
     RDKit          3D

 18 17  0  0  1  0  0  0  0  0999 V2000
    8.4144  -14.1766   16.0035 N   0  0  0  0  0  0  0  0  0  0  0  0
    8.4639  -13.3832   17.1922 C   0  0  0  0  0  0  0  0  0  0  0  0
    7.8131  -14.0664   18.3516 C   0  0  0  0  0  0  0  0  0  0  0  0
    6.7990  -14.7799   18.1023 O   0  0  0  0  0  0  0  0  0  0  0  0
    8.2957  -13.9319   19.6702 N   0  0  0  0  0  0  0  0  0  0  0  0
    7.7080  -14.6713   20.7461 C   0  0  0  0  0  0  0  0  0  0  0  0
    8.4207  -14.4097   22.0165 C   0  0  0  0  0  0  0  0  0  0  0  0
    9.5534  -13.8673   21.9715 O   0  0  0  0  0  0  0  0  0  0  0  0
    5.7291  -10.9751   26.7227 N   0  0  0  0  0  0  0  0  0  0  0  0
    6.0588  -12.3246   26.4564 C   0  0  0  0  0  0  0  0  0  0  0  0
    5.4172  -13.2263   27.0333 O   0  0  0  0  0  0  0  0  0  0  0  0
    7.1328  -12.6442   25.5212 C   0  0  0  0  0  0  0  0  0  0  0  0
    7.5744  -14.0675   25.5357 C   0  0  0  0  0  0  0  0  0  0  0  0
    8.6118  -14.4337   24.5258 C   0  0  2  0  0  0  0  0  0  0  0  0
    7.8859  -14.7420   23.2839 N   0  0  0  0  0  0  0  0  0  0  0  0
    9.3505  -15.6786   24.9346 C   0  0  0  0  0  0  0  0  0  0  0  0
   10.2427  -15.6311   25.8171 O   0  0  0  0  0  0  0  0  0  0  0  0
    9.0573  -16.8937   24.3441 O   0  0  0  0  0  0  0  0  0  0  0  0
  2  1  1  0
  3  2  1  0
  4  3  2  0
  5  3  1  0
  6  5  1  0
  7  6  1  0
  7  8  2  0
 10  9  1  0
 10 12  1  0
 11 10  2  0
 13 12  1  0
 14 13  1  1
 14 15  1  0
 15  7  1  0
 16 18  1  0
 16 14  1  0
 17 16  2  0
M  END
$$$$
