AVY.pdb
     RDKit          3D

 25 25  0  0  1  0  0  0  0  0999 V2000
    7.7774  -12.2949   20.6224 C   0  0  0  0  0  0  0  0  0  0  0  0
    7.9195  -13.6374   19.9803 C   0  0  2  0  0  0  0  0  0  0  0  0
    6.8289  -13.8711   19.0911 N   0  0  0  0  0  0  0  0  0  0  0  0
    8.0497  -14.7429   20.9541 C   0  0  0  0  0  0  0  0  0  0  0  0
    7.0343  -15.3840   21.3077 O   0  0  0  0  0  0  0  0  0  0  0  0
   10.6436  -18.4538   22.7024 C   0  0  0  0  0  0  0  0  0  0  0  0
   10.4696  -17.2530   21.8006 C   0  0  1  0  0  0  0  0  0  0  0  0
   10.1412  -17.7210   20.4227 C   0  0  0  0  0  0  0  0  0  0  0  0
    9.4508  -16.2844   22.3540 C   0  0  2  0  0  0  0  0  0  0  0  0
    9.2980  -15.1169   21.5167 N   0  0  0  0  0  0  0  0  0  0  0  0
    9.8342  -15.9320   23.7425 C   0  0  0  0  0  0  0  0  0  0  0  0
   10.8429  -15.1907   23.9821 O   0  0  0  0  0  0  0  0  0  0  0  0
    5.8679  -10.7532   25.9250 O   0  0  0  0  0  0  0  0  0  0  0  0
    6.4563  -11.9698   26.1870 C   0  0  0  0  0  0  0  0  0  0  0  0
    5.7781  -13.1270   25.8074 C   0  0  0  0  0  0  0  0  0  0  0  0
    6.3566  -14.3582   26.0638 C   0  0  0  0  0  0  0  0  0  0  0  0
    7.5862  -14.4757   26.6847 C   0  0  0  0  0  0  0  0  0  0  0  0
    8.1825  -15.7743   26.9561 C   0  0  0  0  0  0  0  0  0  0  0  0
    9.4295  -16.1133   26.2297 C   0  0  2  0  0  0  0  0  0  0  0  0
    9.0718  -16.4229   24.8362 N   0  0  0  0  0  0  0  0  0  0  0  0
   10.1299  -17.2317   26.8614 C   0  0  0  0  0  0  0  0  0  0  0  0
   10.7002  -17.1088   27.9722 O   0  0  0  0  0  0  0  0  0  0  0  0
    8.2578  -13.3335   27.0608 C   0  0  0  0  0  0  0  0  0  0  0  0
    7.6832  -12.0878   26.8067 C   0  0  0  0  0  0  0  0  0  0  0  0
   10.1659  -18.4669   26.2145 O   0  0  0  0  0  0  0  0  0  0  0  0
  2  4  1  0
  2  1  1  1
  3  2  1  0
  4  5  2  0
  7  9  1  0
  7  6  1  1
  8  7  1  0
  9 10  1  6
 10  4  1  0
 11  9  1  0
 12 11  2  0
 13 14  1  0
 14 15  2  0
 15 16  1  0
 17 16  2  0
 17 18  1  0
 19 18  1  1
 19 21  1  0
 19 20  1  0
 20 11  1  0
 21 25  1  0
 22 21  2  0
 23 17  1  0
 24 14  1  0
 24 23  2  0
M  END
$$$$
