AVY.pdb
     RDKit          3D

 25 25  0  0  1  0  0  0  0  0999 V2000
    7.6050  -19.6465   21.2752 C   0  0  0  0  0  0  0  0  0  0  0  0
    7.6709  -18.6532   20.1599 C   0  0  2  0  0  0  0  0  0  0  0  0
    8.2328  -19.2606   18.9979 N   0  0  0  0  0  0  0  0  0  0  0  0
    8.4053  -17.4196   20.5152 C   0  0  0  0  0  0  0  0  0  0  0  0
    9.6212  -17.3166   20.2362 O   0  0  0  0  0  0  0  0  0  0  0  0
    8.1819  -12.5960   21.6694 C   0  0  0  0  0  0  0  0  0  0  0  0
    7.5077  -13.8910   21.2772 C   0  0  1  0  0  0  0  0  0  0  0  0
    6.9137  -13.7397   19.9171 C   0  0  0  0  0  0  0  0  0  0  0  0
    8.4534  -15.0646   21.3816 C   0  0  2  0  0  0  0  0  0  0  0  0
    7.7815  -16.3262   21.1710 N   0  0  0  0  0  0  0  0  0  0  0  0
    9.1397  -15.0075   22.6949 C   0  0  0  0  0  0  0  0  0  0  0  0
   10.0587  -14.1547   22.9243 O   0  0  0  0  0  0  0  0  0  0  0  0
    5.8661  -10.7291   26.6888 O   0  0  0  0  0  0  0  0  0  0  0  0
    6.4398  -11.9707   26.5337 C   0  0  0  0  0  0  0  0  0  0  0  0
    7.8268  -12.0738   26.6262 C   0  0  0  0  0  0  0  0  0  0  0  0
    8.4190  -13.3156   26.4726 C   0  0  0  0  0  0  0  0  0  0  0  0
    7.6773  -14.4568   26.2304 C   0  0  0  0  0  0  0  0  0  0  0  0
    8.3095  -15.7561   26.0635 C   0  0  0  0  0  0  0  0  0  0  0  0
    9.3958  -15.8582   25.0600 C   0  0  2  0  0  0  0  0  0  0  0  0
    8.7762  -15.9143   23.7263 N   0  0  0  0  0  0  0  0  0  0  0  0
   10.2423  -17.0262   25.3042 C   0  0  0  0  0  0  0  0  0  0  0  0
   10.2916  -17.9845   24.4960 O   0  0  0  0  0  0  0  0  0  0  0  0
    6.3067  -14.3571   26.1385 C   0  0  0  0  0  0  0  0  0  0  0  0
    5.7003  -13.1100   26.2919 C   0  0  0  0  0  0  0  0  0  0  0  0
   11.0150  -17.0781   26.4644 O   0  0  0  0  0  0  0  0  0  0  0  0
  2  4  1  0
  2  1  1  1
  3  2  1  0
  4  5  2  0
  7  9  1  0
  7  6  1  6
  8  7  1  0
  9 10  1  1
 10  4  1  0
 11  9  1  0
 12 11  2  0
 13 14  1  0
 14 15  2  0
 15 16  1  0
 17 16  2  0
 17 18  1  0
 19 18  1  1
 19 21  1  0
 19 20  1  0
 20 11  1  0
 21 25  1  0
 22 21  2  0
 23 17  1  0
 24 14  1  0
 24 23  2  0
M  END
$$$$
