AVY.pdb
     RDKit          3D

 25 25  0  0  1  0  0  0  0  0999 V2000
    5.6573  -18.9229   21.9884 C   0  0  0  0  0  0  0  0  0  0  0  0
    6.1389  -18.2700   20.7328 C   0  0  2  0  0  0  0  0  0  0  0  0
    6.6307  -19.2564   19.8274 N   0  0  0  0  0  0  0  0  0  0  0  0
    7.1541  -17.2208   20.9690 C   0  0  0  0  0  0  0  0  0  0  0  0
    8.3657  -17.5294   21.0310 O   0  0  0  0  0  0  0  0  0  0  0  0
    8.3609  -12.3975   21.0806 C   0  0  0  0  0  0  0  0  0  0  0  0
    7.3296  -13.4748   20.8333 C   0  0  1  0  0  0  0  0  0  0  0  0
    6.9623  -13.4762   19.3875 C   0  0  0  0  0  0  0  0  0  0  0  0
    7.8043  -14.8228   21.3236 C   0  0  2  0  0  0  0  0  0  0  0  0
    6.8101  -15.8534   21.1316 N   0  0  0  0  0  0  0  0  0  0  0  0
    8.2131  -14.6959   22.7433 C   0  0  0  0  0  0  0  0  0  0  0  0
    7.6099  -13.9016   23.5368 O   0  0  0  0  0  0  0  0  0  0  0  0
    5.9130  -10.9164   27.2975 O   0  0  0  0  0  0  0  0  0  0  0  0
    6.5963  -12.0303   26.8647 C   0  0  0  0  0  0  0  0  0  0  0  0
    5.8679  -13.1859   26.5874 C   0  0  0  0  0  0  0  0  0  0  0  0
    6.5406  -14.3144   26.1513 C   0  0  0  0  0  0  0  0  0  0  0  0
    7.9125  -14.3309   25.9821 C   0  0  0  0  0  0  0  0  0  0  0  0
    8.6110  -15.5238   25.5300 C   0  0  0  0  0  0  0  0  0  0  0  0
    9.7715  -15.3298   24.6282 C   0  0  2  0  0  0  0  0  0  0  0  0
    9.2960  -15.4683   23.2424 N   0  0  0  0  0  0  0  0  0  0  0  0
   10.8429  -16.2817   24.9220 C   0  0  0  0  0  0  0  0  0  0  0  0
   11.5155  -16.2110   25.9788 O   0  0  0  0  0  0  0  0  0  0  0  0
    8.6342  -13.1901   26.2557 C   0  0  0  0  0  0  0  0  0  0  0  0
    7.9655  -12.0473   26.6958 C   0  0  0  0  0  0  0  0  0  0  0  0
   11.1258  -17.2945   24.0056 O   0  0  0  0  0  0  0  0  0  0  0  0
  2  4  1  0
  2  1  1  1
  3  2  1  0
  4  5  2  0
  7  9  1  0
  7  6  1  6
  8  7  1  0
  9 10  1  1
 10  4  1  0
 11  9  1  0
 12 11  2  0
 13 14  1  0
 14 15  2  0
 15 16  1  0
 17 16  2  0
 17 18  1  0
 19 18  1  1
 19 21  1  0
 19 20  1  0
 20 11  1  0
 21 25  1  0
 22 21  2  0
 23 17  1  0
 24 14  1  0
 24 23  2  0
M  END
$$$$
