AVY.pdb
     RDKit          3D

 25 25  0  0  1  0  0  0  0  0999 V2000
    7.6579  -19.4373   21.3147 C   0  0  0  0  0  0  0  0  0  0  0  0
    7.5886  -18.5007   20.1515 C   0  0  2  0  0  0  0  0  0  0  0  0
    8.0014  -19.1694   18.9611 N   0  0  0  0  0  0  0  0  0  0  0  0
    8.3643  -17.2576   20.3519 C   0  0  0  0  0  0  0  0  0  0  0  0
    9.5467  -17.1893   19.9464 O   0  0  0  0  0  0  0  0  0  0  0  0
    8.5515  -12.4477   21.5761 C   0  0  0  0  0  0  0  0  0  0  0  0
    7.7581  -13.6713   21.1778 C   0  0  1  0  0  0  0  0  0  0  0  0
    7.1604  -13.4478   19.8294 C   0  0  0  0  0  0  0  0  0  0  0  0
    8.5960  -14.9263   21.2520 C   0  0  2  0  0  0  0  0  0  0  0  0
    7.8182  -16.1166   20.9957 N   0  0  0  0  0  0  0  0  0  0  0  0
    9.2706  -14.9709   22.5718 C   0  0  0  0  0  0  0  0  0  0  0  0
   10.1871  -14.1385   22.8745 O   0  0  0  0  0  0  0  0  0  0  0  0
    5.8807  -10.9077   26.7126 O   0  0  0  0  0  0  0  0  0  0  0  0
    6.4991  -12.1191   26.5006 C   0  0  0  0  0  0  0  0  0  0  0  0
    5.7000  -13.2360   26.2618 C   0  0  0  0  0  0  0  0  0  0  0  0
    6.3069  -14.4614   26.0467 C   0  0  0  0  0  0  0  0  0  0  0  0
    7.6810  -14.6120   26.0613 C   0  0  0  0  0  0  0  0  0  0  0  0
    8.3090  -15.9053   25.8410 C   0  0  0  0  0  0  0  0  0  0  0  0
    9.4470  -15.9541   24.8924 C   0  0  2  0  0  0  0  0  0  0  0  0
    8.8984  -15.9546   23.5268 N   0  0  0  0  0  0  0  0  0  0  0  0
   10.2908  -17.1257   25.1284 C   0  0  0  0  0  0  0  0  0  0  0  0
   10.3679  -18.0607   24.2952 O   0  0  0  0  0  0  0  0  0  0  0  0
    8.4724  -13.5097   26.2972 C   0  0  0  0  0  0  0  0  0  0  0  0
    7.8704  -12.2700   26.5152 C   0  0  0  0  0  0  0  0  0  0  0  0
   11.0295  -17.2078   26.3088 O   0  0  0  0  0  0  0  0  0  0  0  0
  2  4  1  0
  2  1  1  1
  3  2  1  0
  4  5  2  0
  7  9  1  0
  7  6  1  6
  8  7  1  0
  9 10  1  1
 10  4  1  0
 11  9  1  0
 12 11  2  0
 13 14  1  0
 14 15  2  0
 15 16  1  0
 17 16  2  0
 17 18  1  0
 19 18  1  1
 19 21  1  0
 19 20  1  0
 20 11  1  0
 21 25  1  0
 22 21  2  0
 23 17  1  0
 24 14  1  0
 24 23  2  0
M  END
$$$$
