AVY.pdb
     RDKit          3D

 25 25  0  0  1  0  0  0  0  0999 V2000
   10.0985  -19.1440   19.0452 C   0  0  0  0  0  0  0  0  0  0  0  0
   10.1355  -17.7089   18.6279 C   0  0  2  0  0  0  0  0  0  0  0  0
   11.3745  -17.4199   17.9830 N   0  0  0  0  0  0  0  0  0  0  0  0
    9.8907  -16.7673   19.7418 C   0  0  0  0  0  0  0  0  0  0  0  0
   10.8318  -16.4421   20.5004 O   0  0  0  0  0  0  0  0  0  0  0  0
    6.8643  -13.5829   22.0972 C   0  0  0  0  0  0  0  0  0  0  0  0
    7.1062  -14.5078   20.9262 C   0  0  1  0  0  0  0  0  0  0  0  0
    7.1184  -13.7080   19.6669 C   0  0  0  0  0  0  0  0  0  0  0  0
    8.3594  -15.3301   21.1160 C   0  0  2  0  0  0  0  0  0  0  0  0
    8.6121  -16.2048   19.9942 N   0  0  0  0  0  0  0  0  0  0  0  0
    8.2512  -16.0744   22.3940 C   0  0  0  0  0  0  0  0  0  0  0  0
    7.7666  -17.2525   22.4341 O   0  0  0  0  0  0  0  0  0  0  0  0
    5.7651  -10.7463   26.7274 O   0  0  0  0  0  0  0  0  0  0  0  0
    6.5488  -11.8593   26.5223 C   0  0  0  0  0  0  0  0  0  0  0  0
    7.7448  -11.9648   27.2304 C   0  0  0  0  0  0  0  0  0  0  0  0
    8.5440  -13.0781   27.0352 C   0  0  0  0  0  0  0  0  0  0  0  0
    8.1927  -14.0887   26.1598 C   0  0  0  0  0  0  0  0  0  0  0  0
    9.0427  -15.2514   25.9565 C   0  0  0  0  0  0  0  0  0  0  0  0
    8.6516  -16.1987   24.8854 C   0  0  2  0  0  0  0  0  0  0  0  0
    8.6923  -15.4755   23.6043 N   0  0  0  0  0  0  0  0  0  0  0  0
    7.3278  -16.7701   25.1332 C   0  0  0  0  0  0  0  0  0  0  0  0
    6.2910  -16.2723   24.6316 O   0  0  0  0  0  0  0  0  0  0  0  0
    7.0114  -13.9864   25.4591 C   0  0  0  0  0  0  0  0  0  0  0  0
    6.1988  -12.8682   25.6488 C   0  0  0  0  0  0  0  0  0  0  0  0
    7.2125  -17.8968   25.9473 O   0  0  0  0  0  0  0  0  0  0  0  0
  2  4  1  0
  2  1  1  1
  3  2  1  0
  4  5  2  0
  7  9  1  0
  7  6  1  1
  8  7  1  0
  9 10  1  6
 10  4  1  0
 11  9  1  0
 12 11  2  0
 13 14  1  0
 14 15  2  0
 15 16  1  0
 17 16  2  0
 17 18  1  0
 19 18  1  1
 19 21  1  0
 19 20  1  0
 20 11  1  0
 21 25  1  0
 22 21  2  0
 23 17  1  0
 24 14  1  0
 24 23  2  0
M  END
$$$$
