AVY.pdb
     RDKit          3D

 25 25  0  0  1  0  0  0  0  0999 V2000
   10.7649  -18.2105   19.0682 C   0  0  0  0  0  0  0  0  0  0  0  0
    9.8092  -18.1492   20.2161 C   0  0  2  0  0  0  0  0  0  0  0  0
    8.5340  -18.6483   19.8167 N   0  0  0  0  0  0  0  0  0  0  0  0
    9.6839  -16.7979   20.8039 C   0  0  0  0  0  0  0  0  0  0  0  0
   10.6630  -16.2787   21.3859 O   0  0  0  0  0  0  0  0  0  0  0  0
    7.0738  -12.6255   21.5447 C   0  0  0  0  0  0  0  0  0  0  0  0
    7.2939  -13.9020   20.7652 C   0  0  1  0  0  0  0  0  0  0  0  0
    7.6611  -13.5590   19.3606 C   0  0  0  0  0  0  0  0  0  0  0  0
    8.3070  -14.7978   21.4387 C   0  0  2  0  0  0  0  0  0  0  0  0
    8.4802  -16.0486   20.7367 N   0  0  0  0  0  0  0  0  0  0  0  0
    7.9004  -14.9990   22.8505 C   0  0  0  0  0  0  0  0  0  0  0  0
    7.4825  -16.1300   23.2636 O   0  0  0  0  0  0  0  0  0  0  0  0
   10.8887  -16.0346   30.7228 O   0  0  0  0  0  0  0  0  0  0  0  0
   10.5031  -15.7417   29.4342 C   0  0  0  0  0  0  0  0  0  0  0  0
   11.2280  -16.3024   28.3840 C   0  0  0  0  0  0  0  0  0  0  0  0
   10.8527  -16.0176   27.0824 C   0  0  0  0  0  0  0  0  0  0  0  0
    9.7810  -15.1941   26.7917 C   0  0  0  0  0  0  0  0  0  0  0  0
    9.3987  -14.8952   25.4205 C   0  0  0  0  0  0  0  0  0  0  0  0
    8.1368  -14.1446   25.2163 C   0  0  2  0  0  0  0  0  0  0  0  0
    7.9727  -13.9195   23.7713 N   0  0  0  0  0  0  0  0  0  0  0  0
    8.1391  -12.8822   25.9557 C   0  0  0  0  0  0  0  0  0  0  0  0
    7.3716  -12.6873   26.9289 O   0  0  0  0  0  0  0  0  0  0  0  0
    9.0634  -14.6389   27.8279 C   0  0  0  0  0  0  0  0  0  0  0  0
    9.4338  -14.9199   29.1434 C   0  0  0  0  0  0  0  0  0  0  0  0
    9.0159  -11.8679   25.5709 O   0  0  0  0  0  0  0  0  0  0  0  0
  2  4  1  0
  2  1  1  6
  3  2  1  0
  4  5  2  0
  7  9  1  0
  7  6  1  1
  8  7  1  0
  9 10  1  6
 10  4  1  0
 11  9  1  0
 12 11  2  0
 13 14  1  0
 14 15  2  0
 15 16  1  0
 17 16  2  0
 17 18  1  0
 19 18  1  6
 19 21  1  0
 19 20  1  0
 20 11  1  0
 21 25  1  0
 22 21  2  0
 23 17  1  0
 24 14  1  0
 24 23  2  0
M  END
$$$$
