AVY.pdb
     RDKit          3D

 25 25  0  0  1  0  0  0  0  0999 V2000
   10.6781  -18.7180   19.2761 C   0  0  0  0  0  0  0  0  0  0  0  0
   10.7850  -17.2890   18.8499 C   0  0  2  0  0  0  0  0  0  0  0  0
   12.1180  -17.0035   18.4299 N   0  0  0  0  0  0  0  0  0  0  0  0
   10.3450  -16.3323   19.8884 C   0  0  0  0  0  0  0  0  0  0  0  0
   11.1729  -15.8849   20.7138 O   0  0  0  0  0  0  0  0  0  0  0  0
    6.7472  -13.6059   22.0064 C   0  0  0  0  0  0  0  0  0  0  0  0
    7.2831  -14.3322   20.7937 C   0  0  1  0  0  0  0  0  0  0  0  0
    7.5014  -13.3493   19.6929 C   0  0  0  0  0  0  0  0  0  0  0  0
    8.5213  -15.1317   21.1259 C   0  0  2  0  0  0  0  0  0  0  0  0
    9.0003  -15.8901   19.9933 N   0  0  0  0  0  0  0  0  0  0  0  0
    8.2307  -15.9950   22.2961 C   0  0  0  0  0  0  0  0  0  0  0  0
    7.8238  -17.1938   22.1486 O   0  0  0  0  0  0  0  0  0  0  0  0
    5.7732  -10.8035   26.9871 O   0  0  0  0  0  0  0  0  0  0  0  0
    6.4910  -11.9512   26.7367 C   0  0  0  0  0  0  0  0  0  0  0  0
    5.8337  -13.1764   26.8359 C   0  0  0  0  0  0  0  0  0  0  0  0
    6.5417  -14.3396   26.5871 C   0  0  0  0  0  0  0  0  0  0  0  0
    7.8806  -14.3238   26.2433 C   0  0  0  0  0  0  0  0  0  0  0  0
    8.6177  -15.5520   25.9906 C   0  0  0  0  0  0  0  0  0  0  0  0
    8.2297  -16.3430   24.7984 C   0  0  2  0  0  0  0  0  0  0  0  0
    8.4046  -15.4896   23.6123 N   0  0  0  0  0  0  0  0  0  0  0  0
    6.8551  -16.8326   24.9049 C   0  0  0  0  0  0  0  0  0  0  0  0
    6.5405  -17.7428   25.7091 O   0  0  0  0  0  0  0  0  0  0  0  0
    8.5320  -13.1143   26.1449 C   0  0  0  0  0  0  0  0  0  0  0  0
    7.8271  -11.9361   26.3937 C   0  0  0  0  0  0  0  0  0  0  0  0
    5.8675  -16.2750   24.0929 O   0  0  0  0  0  0  0  0  0  0  0  0
  2  4  1  0
  2  1  1  1
  3  2  1  0
  4  5  2  0
  7  9  1  0
  7  6  1  1
  8  7  1  0
  9 10  1  6
 10  4  1  0
 11  9  1  0
 12 11  2  0
 13 14  1  0
 14 15  2  0
 15 16  1  0
 17 16  2  0
 17 18  1  0
 19 18  1  1
 19 21  1  0
 19 20  1  0
 20 11  1  0
 21 25  1  0
 22 21  2  0
 23 17  1  0
 24 14  1  0
 24 23  2  0
M  END
$$$$
