AVY.pdb
     RDKit          3D

 25 25  0  0  1  0  0  0  0  0999 V2000
    7.6041  -19.4360   19.6777 C   0  0  0  0  0  0  0  0  0  0  0  0
    8.0855  -18.2748   18.8686 C   0  0  2  0  0  0  0  0  0  0  0  0
    9.0414  -18.7141   17.9053 N   0  0  0  0  0  0  0  0  0  0  0  0
    8.6350  -17.1746   19.6900 C   0  0  0  0  0  0  0  0  0  0  0  0
    9.8258  -17.2184   20.0733 O   0  0  0  0  0  0  0  0  0  0  0  0
    8.2955  -12.5481   21.4435 C   0  0  0  0  0  0  0  0  0  0  0  0
    7.6495  -13.6832   20.6822 C   0  0  1  0  0  0  0  0  0  0  0  0
    7.5330  -13.3027   19.2445 C   0  0  0  0  0  0  0  0  0  0  0  0
    8.3880  -14.9846   20.8909 C   0  0  2  0  0  0  0  0  0  0  0  0
    7.8579  -16.0494   20.0708 N   0  0  0  0  0  0  0  0  0  0  0  0
    8.3593  -15.3219   22.3347 C   0  0  0  0  0  0  0  0  0  0  0  0
    7.3386  -15.8703   22.8656 O   0  0  0  0  0  0  0  0  0  0  0  0
    5.8475  -10.6605   27.1649 O   0  0  0  0  0  0  0  0  0  0  0  0
    6.3672  -11.8207   26.6368 C   0  0  0  0  0  0  0  0  0  0  0  0
    7.7011  -12.1273   26.9010 C   0  0  0  0  0  0  0  0  0  0  0  0
    8.2385  -13.2905   26.3771 C   0  0  0  0  0  0  0  0  0  0  0  0
    7.4933  -14.1575   25.5999 C   0  0  0  0  0  0  0  0  0  0  0  0
    8.0691  -15.3739   25.0481 C   0  0  0  0  0  0  0  0  0  0  0  0
    9.4804  -15.3131   24.5988 C   0  0  2  0  0  0  0  0  0  0  0  0
    9.4839  -15.0341   23.1538 N   0  0  0  0  0  0  0  0  0  0  0  0
   10.1933  -16.5538   24.9039 C   0  0  0  0  0  0  0  0  0  0  0  0
   10.0699  -17.5774   24.1889 O   0  0  0  0  0  0  0  0  0  0  0  0
    6.1751  -13.8563   25.3376 C   0  0  0  0  0  0  0  0  0  0  0  0
    5.6241  -12.6863   25.8611 C   0  0  0  0  0  0  0  0  0  0  0  0
   11.0320  -16.6025   26.0174 O   0  0  0  0  0  0  0  0  0  0  0  0
  2  4  1  0
  2  1  1  1
  3  2  1  0
  4  5  2  0
  7  9  1  0
  7  6  1  1
  8  7  1  0
  9 10  1  6
 10  4  1  0
 11  9  1  0
 12 11  2  0
 13 14  1  0
 14 15  2  0
 15 16  1  0
 17 16  2  0
 17 18  1  0
 19 18  1  6
 19 21  1  0
 19 20  1  0
 20 11  1  0
 21 25  1  0
 22 21  2  0
 23 17  1  0
 24 14  1  0
 24 23  2  0
M  END
$$$$
