AVY.pdb
     RDKit          3D

 25 25  0  0  1  0  0  0  0  0999 V2000
    8.6285  -19.4876   19.6143 C   0  0  0  0  0  0  0  0  0  0  0  0
    8.6123  -18.3403   18.6560 C   0  0  2  0  0  0  0  0  0  0  0  0
    9.4169  -18.6437   17.5179 N   0  0  0  0  0  0  0  0  0  0  0  0
    9.0280  -17.0593   19.2671 C   0  0  0  0  0  0  0  0  0  0  0  0
   10.2346  -16.7260   19.2544 O   0  0  0  0  0  0  0  0  0  0  0  0
    7.8972  -12.7596   21.5064 C   0  0  0  0  0  0  0  0  0  0  0  0
    7.4777  -13.9291   20.6451 C   0  0  1  0  0  0  0  0  0  0  0  0
    7.1439  -13.4336   19.2782 C   0  0  0  0  0  0  0  0  0  0  0  0
    8.5235  -15.0194   20.6393 C   0  0  2  0  0  0  0  0  0  0  0  0
    8.1029  -16.1737   19.8790 N   0  0  0  0  0  0  0  0  0  0  0  0
    8.8595  -15.3641   22.0419 C   0  0  0  0  0  0  0  0  0  0  0  0
    8.0582  -16.0400   22.7669 O   0  0  0  0  0  0  0  0  0  0  0  0
   10.5319  -15.1887   30.4153 O   0  0  0  0  0  0  0  0  0  0  0  0
   10.3397  -15.0307   29.0614 C   0  0  0  0  0  0  0  0  0  0  0  0
    9.6046  -13.9307   28.6225 C   0  0  0  0  0  0  0  0  0  0  0  0
    9.4025  -13.7577   27.2640 C   0  0  0  0  0  0  0  0  0  0  0  0
    9.9072  -14.6421   26.3290 C   0  0  0  0  0  0  0  0  0  0  0  0
    9.6835  -14.4555   24.9040 C   0  0  0  0  0  0  0  0  0  0  0  0
   10.4826  -15.2916   23.9766 C   0  0  2  0  0  0  0  0  0  0  0  0
   10.0945  -14.9397   22.6013 N   0  0  0  0  0  0  0  0  0  0  0  0
   10.2866  -16.7177   24.2376 C   0  0  0  0  0  0  0  0  0  0  0  0
    9.1401  -17.2203   24.3226 O   0  0  0  0  0  0  0  0  0  0  0  0
   10.6337  -15.7298   26.7606 C   0  0  0  0  0  0  0  0  0  0  0  0
   10.8430  -15.9130   28.1279 C   0  0  0  0  0  0  0  0  0  0  0  0
   11.4008  -17.5417   24.3964 O   0  0  0  0  0  0  0  0  0  0  0  0
  2  4  1  0
  2  1  1  1
  3  2  1  0
  4  5  2  0
  7  9  1  0
  7  6  1  1
  8  7  1  0
  9 10  1  1
 10  4  1  0
 11  9  1  0
 12 11  2  0
 13 14  1  0
 14 15  2  0
 15 16  1  0
 17 16  2  0
 17 18  1  0
 19 18  1  1
 19 21  1  0
 19 20  1  0
 20 11  1  0
 21 25  1  0
 22 21  2  0
 23 17  1  0
 24 14  1  0
 24 23  2  0
M  END
$$$$
