AVY.pdb
     RDKit          3D

 25 25  0  0  1  0  0  0  0  0999 V2000
    5.4636  -18.7609   22.3505 C   0  0  0  0  0  0  0  0  0  0  0  0
    5.7300  -18.1681   21.0042 C   0  0  2  0  0  0  0  0  0  0  0  0
    5.9428  -19.2048   20.0478 N   0  0  0  0  0  0  0  0  0  0  0  0
    6.8550  -17.2081   20.9977 C   0  0  0  0  0  0  0  0  0  0  0  0
    8.0336  -17.6300   21.0098 O   0  0  0  0  0  0  0  0  0  0  0  0
    8.5611  -12.5368   20.7748 C   0  0  0  0  0  0  0  0  0  0  0  0
    7.3888  -13.4843   20.6600 C   0  0  1  0  0  0  0  0  0  0  0  0
    6.8988  -13.4862   19.2510 C   0  0  0  0  0  0  0  0  0  0  0  0
    7.7371  -14.8645   21.1662 C   0  0  2  0  0  0  0  0  0  0  0  0
    6.6549  -15.8030   20.9781 N   0  0  0  0  0  0  0  0  0  0  0  0
    8.1483  -14.7607   22.5871 C   0  0  0  0  0  0  0  0  0  0  0  0
    7.4779  -14.0676   23.4206 O   0  0  0  0  0  0  0  0  0  0  0  0
    5.5731  -11.4200   27.3416 O   0  0  0  0  0  0  0  0  0  0  0  0
    6.3168  -12.4689   26.8498 C   0  0  0  0  0  0  0  0  0  0  0  0
    7.7030  -12.3309   26.8023 C   0  0  0  0  0  0  0  0  0  0  0  0
    8.4648  -13.3769   26.3105 C   0  0  0  0  0  0  0  0  0  0  0  0
    7.8934  -14.5542   25.8649 C   0  0  0  0  0  0  0  0  0  0  0  0
    8.7020  -15.6448   25.3433 C   0  0  0  0  0  0  0  0  0  0  0  0
    9.8055  -15.2896   24.4194 C   0  0  2  0  0  0  0  0  0  0  0  0
    9.3094  -15.4413   23.0422 N   0  0  0  0  0  0  0  0  0  0  0  0
   10.9882  -16.1181   24.6543 C   0  0  0  0  0  0  0  0  0  0  0  0
   11.7763  -15.8874   25.6030 O   0  0  0  0  0  0  0  0  0  0  0  0
    6.5238  -14.6925   25.9109 C   0  0  0  0  0  0  0  0  0  0  0  0
    5.7471  -13.6440   26.4050 C   0  0  0  0  0  0  0  0  0  0  0  0
   11.2486  -17.1923   23.8035 O   0  0  0  0  0  0  0  0  0  0  0  0
  2  4  1  0
  2  1  1  1
  3  2  1  0
  4  5  2  0
  7  9  1  0
  7  6  1  6
  8  7  1  0
  9 10  1  1
 10  4  1  0
 11  9  1  0
 12 11  2  0
 13 14  1  0
 14 15  2  0
 15 16  1  0
 17 16  2  0
 17 18  1  0
 19 18  1  1
 19 21  1  0
 19 20  1  0
 20 11  1  0
 21 25  1  0
 22 21  2  0
 23 17  1  0
 24 14  1  0
 24 23  2  0
M  END
$$$$
