AVY.pdb
     RDKit          3D

 25 25  0  0  1  0  0  0  0  0999 V2000
    7.5114  -19.1917   21.1296 C   0  0  0  0  0  0  0  0  0  0  0  0
    7.6483  -18.4189   19.8573 C   0  0  2  0  0  0  0  0  0  0  0  0
    8.2769  -19.2247   18.8621 N   0  0  0  0  0  0  0  0  0  0  0  0
    8.3647  -17.1359   20.0241 C   0  0  0  0  0  0  0  0  0  0  0  0
    9.6130  -17.1037   19.9363 O   0  0  0  0  0  0  0  0  0  0  0  0
    8.4052  -12.2199   20.7030 C   0  0  0  0  0  0  0  0  0  0  0  0
    7.6978  -13.4640   20.2160 C   0  0  1  0  0  0  0  0  0  0  0  0
    7.5751  -13.4058   18.7304 C   0  0  0  0  0  0  0  0  0  0  0  0
    8.3815  -14.7199   20.7036 C   0  0  2  0  0  0  0  0  0  0  0  0
    7.6877  -15.9158   20.2844 N   0  0  0  0  0  0  0  0  0  0  0  0
    8.5245  -14.6424   22.1776 C   0  0  0  0  0  0  0  0  0  0  0  0
    7.8192  -13.8368   22.8690 O   0  0  0  0  0  0  0  0  0  0  0  0
    6.0137  -11.0562   27.3419 O   0  0  0  0  0  0  0  0  0  0  0  0
    6.5980  -12.1500   26.7442 C   0  0  0  0  0  0  0  0  0  0  0  0
    5.9560  -13.3827   26.8509 C   0  0  0  0  0  0  0  0  0  0  0  0
    6.5308  -14.4922   26.2552 C   0  0  0  0  0  0  0  0  0  0  0  0
    7.7219  -14.4157   25.5577 C   0  0  0  0  0  0  0  0  0  0  0  0
    8.3215  -15.5887   24.9413 C   0  0  0  0  0  0  0  0  0  0  0  0
    9.6486  -15.4164   24.3036 C   0  0  2  0  0  0  0  0  0  0  0  0
    9.4613  -15.4760   22.8452 N   0  0  0  0  0  0  0  0  0  0  0  0
   10.5981  -16.4311   24.7611 C   0  0  0  0  0  0  0  0  0  0  0  0
   11.0639  -16.4198   25.9261 O   0  0  0  0  0  0  0  0  0  0  0  0
    8.3580  -13.1987   25.4513 C   0  0  0  0  0  0  0  0  0  0  0  0
    7.7867  -12.0743   26.0481 C   0  0  0  0  0  0  0  0  0  0  0  0
   10.9973  -17.4377   23.8818 O   0  0  0  0  0  0  0  0  0  0  0  0
  2  4  1  0
  2  1  1  1
  3  2  1  0
  4  5  2  0
  7  9  1  0
  7  6  1  6
  8  7  1  0
  9 10  1  1
 10  4  1  0
 11  9  1  0
 12 11  2  0
 13 14  1  0
 14 15  2  0
 15 16  1  0
 17 16  2  0
 17 18  1  0
 19 18  1  1
 19 21  1  0
 19 20  1  0
 20 11  1  0
 21 25  1  0
 22 21  2  0
 23 17  1  0
 24 14  1  0
 24 23  2  0
M  END
$$$$
