AVY.pdb
     RDKit          3D

 25 25  0  0  1  0  0  0  0  0999 V2000
    7.8871  -17.6025   22.3907 C   0  0  0  0  0  0  0  0  0  0  0  0
    7.9065  -16.1510   22.0336 C   0  0  2  0  0  0  0  0  0  0  0  0
    8.7010  -15.9460   20.8667 N   0  0  0  0  0  0  0  0  0  0  0  0
    8.3621  -15.2806   23.1390 C   0  0  0  0  0  0  0  0  0  0  0  0
    9.5735  -14.9803   23.2363 O   0  0  0  0  0  0  0  0  0  0  0  0
    7.3445  -12.4395   27.1044 C   0  0  0  0  0  0  0  0  0  0  0  0
    6.8713  -13.1311   25.8461 C   0  0  1  0  0  0  0  0  0  0  0  0
    6.4082  -12.1034   24.8690 C   0  0  0  0  0  0  0  0  0  0  0  0
    7.9322  -14.0470   25.2820 C   0  0  2  0  0  0  0  0  0  0  0  0
    7.4707  -14.7604   24.1134 N   0  0  0  0  0  0  0  0  0  0  0  0
    8.3888  -14.9638   26.3544 C   0  0  0  0  0  0  0  0  0  0  0  0
    7.6778  -15.9549   26.7243 O   0  0  0  0  0  0  0  0  0  0  0  0
   12.2458  -19.5843   23.3933 O   0  0  0  0  0  0  0  0  0  0  0  0
   12.0650  -18.7338   24.4605 C   0  0  0  0  0  0  0  0  0  0  0  0
   12.1892  -17.3629   24.2411 C   0  0  0  0  0  0  0  0  0  0  0  0
   12.0102  -16.4945   25.3042 C   0  0  0  0  0  0  0  0  0  0  0  0
   11.7121  -16.9447   26.5768 C   0  0  0  0  0  0  0  0  0  0  0  0
   11.5328  -16.0246   27.6888 C   0  0  0  0  0  0  0  0  0  0  0  0
   10.1428  -15.6469   28.0395 C   0  0  2  0  0  0  0  0  0  0  0  0
    9.6402  -14.7455   26.9903 N   0  0  0  0  0  0  0  0  0  0  0  0
   10.0754  -15.0189   29.3591 C   0  0  0  0  0  0  0  0  0  0  0  0
    9.8273  -13.7965   29.4951 O   0  0  0  0  0  0  0  0  0  0  0  0
   11.5891  -18.2990   26.7957 C   0  0  0  0  0  0  0  0  0  0  0  0
   11.7675  -19.1825   25.7307 C   0  0  0  0  0  0  0  0  0  0  0  0
   10.2921  -15.7966   30.4966 O   0  0  0  0  0  0  0  0  0  0  0  0
  2  4  1  0
  2  1  1  1
  3  2  1  0
  4  5  2  0
  7  9  1  0
  7  6  1  1
  8  7  1  0
  9 10  1  6
 10  4  1  0
 11  9  1  0
 12 11  2  0
 13 14  1  0
 14 15  2  0
 15 16  1  0
 17 16  2  0
 17 18  1  0
 19 18  1  6
 19 21  1  0
 19 20  1  0
 20 11  1  0
 21 25  1  0
 22 21  2  0
 23 17  1  0
 24 14  1  0
 24 23  2  0
M  END
$$$$
