RRG.pdb
     RDKit          3D

 27 26  0  0  1  0  0  0  0  0999 V2000
    6.3151  -16.4983   12.4676 N   0  0  0  0  0  0  0  0  0  0  0  0
    7.3271  -15.6548   12.9803 C   0  0  0  0  0  0  0  0  0  0  0  0
    7.2288  -14.3830   12.7328 N   0  0  0  0  0  0  0  0  0  0  0  0
    8.4231  -16.0967   13.7333 N   0  0  0  0  0  0  0  0  0  0  0  0
    8.3478  -16.4732   15.1520 C   0  0  0  0  0  0  0  0  0  0  0  0
    8.2368  -15.1886   15.9356 C   0  0  0  0  0  0  0  0  0  0  0  0
    8.2090  -15.4176   17.4194 C   0  0  0  0  0  0  0  0  0  0  0  0
    7.6223  -14.2313   18.1362 C   0  0  2  0  0  0  0  0  0  0  0  0
    7.8956  -13.0275   17.3812 N   0  0  0  0  0  0  0  0  0  0  0  0
    8.3088  -14.1423   19.4684 C   0  0  0  0  0  0  0  0  0  0  0  0
    9.4727  -13.6325   19.5188 O   0  0  0  0  0  0  0  0  0  0  0  0
    7.9357  -13.6787   13.0371 N   0  0  0  0  0  0  0  0  0  0  0  0
    7.7507  -12.1627   28.3596 C   0  0  0  0  0  0  0  0  0  0  0  0
    6.6167  -12.2235   27.4744 N   0  0  0  0  0  0  0  0  0  0  0  0
    5.6259  -11.4419   27.7668 N   0  0  0  0  0  0  0  0  0  0  0  0
    6.6221  -13.0886   26.3655 C   0  0  0  0  0  0  0  0  0  0  0  0
    6.9611  -12.5824   25.0641 C   0  0  0  0  0  0  0  0  0  0  0  0
    7.7601  -13.5127   24.2365 C   0  0  0  0  0  0  0  0  0  0  0  0
    7.3749  -13.7549   22.8419 C   0  0  2  0  0  0  0  0  0  0  0  0
    8.2411  -14.5211   21.9387 N   0  0  0  0  0  0  0  0  0  0  0  0
    7.6432  -14.6236   20.6055 C   0  0  0  0  0  0  0  0  0  0  0  0
    8.7894  -15.8164   22.3694 O   0  0  0  0  0  0  0  0  0  0  0  0
    8.1267  -16.8788   22.2664 N   0  0  0  0  0  0  0  0  0  0  0  0
    4.8023  -11.2573   27.1872 C   0  0  0  0  0  0  0  0  0  0  0  0
   10.0952  -15.9300   22.9381 C   0  0  0  0  0  0  0  0  0  0  0  0
   10.6021  -17.1529   23.4581 O   0  0  0  0  0  0  0  0  0  0  0  0
   11.9366  -17.1551   24.0661 O   0  0  0  0  0  0  0  0  0  0  0  0
  2  1  1  0
  3  2  2  0
  4  2  1  0
  5  4  1  0
  6  5  1  0
  7  8  1  0
  7  6  1  0
  8 10  1  0
  8  9  1  6
 10 11  2  0
 13 12  1  0
 13 14  2  0
 15 16  1  0
 15 13  1  0
 17 16  1  0
 18 17  1  0
 19 18  1  6
 19 21  1  0
 20 10  1  0
 20 19  1  0
 21 22  2  0
 23 24  1  0
 23 21  1  0
 25 26  1  0
 25 24  1  0
 27 25  2  0
M  END
$$$$
