RRG.pdb
     RDKit          3D

 27 26  0  0  1  0  0  0  0  0999 V2000
    8.4167  -13.1848   16.1365 N   0  0  0  0  0  0  0  0  0  0  0  0
    8.3403  -13.3791   17.5346 C   0  0  0  0  0  0  0  0  0  0  0  0
    9.2762  -14.0868   18.0928 N   0  0  0  0  0  0  0  0  0  0  0  0
    7.3279  -12.8623   18.3539 N   0  0  0  0  0  0  0  0  0  0  0  0
    7.2747  -13.0473   19.8111 C   0  0  0  0  0  0  0  0  0  0  0  0
    6.9060  -14.4906   20.0511 C   0  0  0  0  0  0  0  0  0  0  0  0
    6.6494  -14.7880   21.5004 C   0  0  0  0  0  0  0  0  0  0  0  0
    6.3190  -16.2426   21.7010 C   0  0  2  0  0  0  0  0  0  0  0  0
    4.9136  -16.4598   21.4335 N   0  0  0  0  0  0  0  0  0  0  0  0
    6.5997  -16.5598   23.1414 C   0  0  0  0  0  0  0  0  0  0  0  0
    5.8418  -16.0603   24.0319 O   0  0  0  0  0  0  0  0  0  0  0  0
    9.3265  -14.2727   19.1181 N   0  0  0  0  0  0  0  0  0  0  0  0
    7.9628  -22.0993   28.4080 C   0  0  0  0  0  0  0  0  0  0  0  0
    8.6495  -20.9964   29.0287 N   0  0  0  0  0  0  0  0  0  0  0  0
    9.7544  -21.2870   29.6393 N   0  0  0  0  0  0  0  0  0  0  0  0
    8.1242  -19.6940   28.9518 C   0  0  0  0  0  0  0  0  0  0  0  0
    7.5517  -19.2244   27.7203 C   0  0  0  0  0  0  0  0  0  0  0  0
    8.3565  -19.5306   26.5172 C   0  0  0  0  0  0  0  0  0  0  0  0
    7.9212  -19.0316   25.2083 C   0  0  1  0  0  0  0  0  0  0  0  0
    8.0975  -17.6228   24.8377 N   0  0  0  0  0  0  0  0  0  0  0  0
    7.6849  -17.3931   23.4511 C   0  0  0  0  0  0  0  0  0  0  0  0
    9.3678  -16.9400   25.1274 O   0  0  0  0  0  0  0  0  0  0  0  0
    9.7528  -16.7381   26.3062 N   0  0  0  0  0  0  0  0  0  0  0  0
   10.3864  -20.6290   30.1041 C   0  0  0  0  0  0  0  0  0  0  0  0
   10.2199  -16.4603   24.0856 C   0  0  0  0  0  0  0  0  0  0  0  0
   11.4846  -15.8627   24.3426 O   0  0  0  0  0  0  0  0  0  0  0  0
   12.6347  -16.7381   24.5908 O   0  0  0  0  0  0  0  0  0  0  0  0
  2  1  1  0
  3  2  2  0
  4  2  1  0
  5  4  1  0
  6  5  1  0
  7  8  1  0
  7  6  1  0
  8 10  1  0
  8  9  1  1
 10 11  2  0
 13 12  1  0
 13 14  2  0
 15 16  1  0
 15 13  1  0
 17 16  1  0
 18 17  1  0
 19 18  1  1
 19 21  1  0
 20 10  1  0
 20 19  1  0
 21 22  2  0
 23 24  1  0
 23 21  1  0
 25 26  1  0
 25 24  1  0
 27 25  2  0
M  END
$$$$
