RRG.pdb
     RDKit          3D

 27 26  0  0  1  0  0  0  0  0999 V2000
    8.8987  -15.3596   16.5507 N   0  0  0  0  0  0  0  0  0  0  0  0
    8.3103  -14.1934   17.0911 C   0  0  0  0  0  0  0  0  0  0  0  0
    8.8182  -13.0495   16.7418 N   0  0  0  0  0  0  0  0  0  0  0  0
    7.2219  -14.1890   17.9735 N   0  0  0  0  0  0  0  0  0  0  0  0
    7.1093  -13.2963   19.1358 C   0  0  0  0  0  0  0  0  0  0  0  0
    7.9140  -13.9267   20.2455 C   0  0  0  0  0  0  0  0  0  0  0  0
    7.4282  -15.3021   20.6018 C   0  0  0  0  0  0  0  0  0  0  0  0
    7.0345  -15.3748   22.0528 C   0  0  2  0  0  0  0  0  0  0  0  0
    6.1085  -14.3049   22.3559 N   0  0  0  0  0  0  0  0  0  0  0  0
    8.2882  -15.1818   22.8559 C   0  0  0  0  0  0  0  0  0  0  0  0
    8.4804  -14.0589   23.4210 O   0  0  0  0  0  0  0  0  0  0  0  0
    8.5030  -12.1343   17.1308 N   0  0  0  0  0  0  0  0  0  0  0  0
   12.2902  -17.2519   30.2596 C   0  0  0  0  0  0  0  0  0  0  0  0
   12.3942  -17.7147   28.9001 N   0  0  0  0  0  0  0  0  0  0  0  0
   13.5966  -17.8826   28.4481 N   0  0  0  0  0  0  0  0  0  0  0  0
   11.2372  -17.9640   28.1403 C   0  0  0  0  0  0  0  0  0  0  0  0
   11.3556  -18.4711   26.8010 C   0  0  0  0  0  0  0  0  0  0  0  0
   11.4549  -17.4255   25.7590 C   0  0  0  0  0  0  0  0  0  0  0  0
   10.2926  -17.1331   24.9132 C   0  0  1  0  0  0  0  0  0  0  0  0
   10.3781  -16.1600   23.8182 N   0  0  0  0  0  0  0  0  0  0  0  0
    9.1992  -16.2441   22.9530 C   0  0  0  0  0  0  0  0  0  0  0  0
   11.6093  -16.0584   23.0197 O   0  0  0  0  0  0  0  0  0  0  0  0
   11.8557  -16.8606   22.0847 N   0  0  0  0  0  0  0  0  0  0  0  0
   13.8573  -18.2384   27.5241 C   0  0  0  0  0  0  0  0  0  0  0  0
   12.5920  -15.0530   23.2750 C   0  0  0  0  0  0  0  0  0  0  0  0
   13.7799  -14.9273   22.5032 O   0  0  0  0  0  0  0  0  0  0  0  0
   14.8924  -15.8427   22.7769 O   0  0  0  0  0  0  0  0  0  0  0  0
  2  1  1  0
  3  2  2  0
  4  2  1  0
  5  4  1  0
  6  5  1  0
  7  8  1  0
  7  6  1  0
  8 10  1  0
  8  9  1  1
 10 11  2  0
 13 12  1  0
 13 14  2  0
 15 16  1  0
 15 13  1  0
 17 16  1  0
 18 17  1  0
 19 18  1  1
 19 21  1  0
 20 10  1  0
 20 19  1  0
 21 22  2  0
 23 24  1  0
 23 21  1  0
 25 26  1  0
 25 24  1  0
 27 25  2  0
M  END
$$$$
