RRG.pdb
     RDKit          3D

 27 26  0  0  1  0  0  0  0  0999 V2000
    8.1663  -12.5569   15.9143 N   0  0  0  0  0  0  0  0  0  0  0  0
    7.6286  -13.6870   15.2571 C   0  0  0  0  0  0  0  0  0  0  0  0
    8.0453  -13.9329   14.0511 N   0  0  0  0  0  0  0  0  0  0  0  0
    6.6812  -14.5548   15.8164 N   0  0  0  0  0  0  0  0  0  0  0  0
    6.7298  -15.0422   17.2023 C   0  0  0  0  0  0  0  0  0  0  0  0
    8.0544  -15.7454   17.3677 C   0  0  0  0  0  0  0  0  0  0  0  0
    8.4441  -15.9118   18.8083 C   0  0  0  0  0  0  0  0  0  0  0  0
    8.3799  -14.5972   19.5385 C   0  0  2  0  0  0  0  0  0  0  0  0
    9.0557  -13.5802   18.7620 N   0  0  0  0  0  0  0  0  0  0  0  0
    9.1048  -14.7843   20.8398 C   0  0  0  0  0  0  0  0  0  0  0  0
   10.3756  -14.8279   20.8261 O   0  0  0  0  0  0  0  0  0  0  0  0
    7.6483  -14.6827   13.4441 N   0  0  0  0  0  0  0  0  0  0  0  0
   10.2637  -15.3200   29.4380 C   0  0  0  0  0  0  0  0  0  0  0  0
    9.6943  -14.2451   28.6676 N   0  0  0  0  0  0  0  0  0  0  0  0
   10.4129  -13.1713   28.5739 N   0  0  0  0  0  0  0  0  0  0  0  0
    8.4327  -14.3902   28.0632 C   0  0  0  0  0  0  0  0  0  0  0  0
    8.2931  -15.1964   26.8819 C   0  0  0  0  0  0  0  0  0  0  0  0
    9.1066  -14.7415   25.7329 C   0  0  0  0  0  0  0  0  0  0  0  0
    8.4828  -14.6061   24.4121 C   0  0  2  0  0  0  0  0  0  0  0  0
    8.9647  -15.3817   23.2635 N   0  0  0  0  0  0  0  0  0  0  0  0
    8.3558  -14.9043   22.0198 C   0  0  0  0  0  0  0  0  0  0  0  0
    8.9651  -16.8517   23.3174 O   0  0  0  0  0  0  0  0  0  0  0  0
    7.8963  -17.5083   23.3877 N   0  0  0  0  0  0  0  0  0  0  0  0
   10.1295  -12.2819   28.1531 C   0  0  0  0  0  0  0  0  0  0  0  0
   10.1789  -17.6055   23.3065 C   0  0  0  0  0  0  0  0  0  0  0  0
   11.3662  -17.1578   23.9488 O   0  0  0  0  0  0  0  0  0  0  0  0
   11.7521  -17.7807   25.2191 O   0  0  0  0  0  0  0  0  0  0  0  0
  2  1  1  0
  3  2  2  0
  4  2  1  0
  5  4  1  0
  6  5  1  0
  7  8  1  0
  7  6  1  0
  8 10  1  0
  8  9  1  6
 10 11  2  0
 13 12  1  0
 13 14  2  0
 15 16  1  0
 15 13  1  0
 17 16  1  0
 18 17  1  0
 19 18  1  6
 19 21  1  0
 20 10  1  0
 20 19  1  0
 21 22  2  0
 23 24  1  0
 23 21  1  0
 25 26  1  0
 25 24  1  0
 27 25  2  0
M  END
$$$$
