RRG.pdb
     RDKit          3D

 27 26  0  0  1  0  0  0  0  0999 V2000
    8.2969  -14.7599   15.7053 N   0  0  0  0  0  0  0  0  0  0  0  0
    9.3483  -15.6820   15.9117 C   0  0  0  0  0  0  0  0  0  0  0  0
    9.5956  -16.5310   14.9597 N   0  0  0  0  0  0  0  0  0  0  0  0
   10.1369  -15.7411   17.0685 N   0  0  0  0  0  0  0  0  0  0  0  0
   10.1354  -14.7120   18.1180 C   0  0  0  0  0  0  0  0  0  0  0  0
    8.7049  -14.2603   18.2795 C   0  0  0  0  0  0  0  0  0  0  0  0
    8.5346  -13.2686   19.3940 C   0  0  0  0  0  0  0  0  0  0  0  0
    7.4261  -13.6871   20.3222 C   0  0  2  0  0  0  0  0  0  0  0  0
    6.4226  -12.6460   20.3761 N   0  0  0  0  0  0  0  0  0  0  0  0
    8.0357  -13.8530   21.6841 C   0  0  0  0  0  0  0  0  0  0  0  0
    8.3209  -12.8097   22.3528 O   0  0  0  0  0  0  0  0  0  0  0  0
   10.4343  -17.1512   14.9419 N   0  0  0  0  0  0  0  0  0  0  0  0
    7.3845  -19.6950   27.8210 C   0  0  0  0  0  0  0  0  0  0  0  0
    6.8004  -19.9250   26.5252 N   0  0  0  0  0  0  0  0  0  0  0  0
    6.4634  -21.1481   26.2635 N   0  0  0  0  0  0  0  0  0  0  0  0
    6.6176  -18.8598   25.6252 C   0  0  0  0  0  0  0  0  0  0  0  0
    7.5234  -17.7443   25.6425 C   0  0  0  0  0  0  0  0  0  0  0  0
    7.1993  -16.6798   24.6675 C   0  0  0  0  0  0  0  0  0  0  0  0
    8.0825  -15.5148   24.5467 C   0  0  1  0  0  0  0  0  0  0  0  0
    9.0042  -15.3771   23.4133 N   0  0  0  0  0  0  0  0  0  0  0  0
    8.2680  -15.1492   22.1676 C   0  0  0  0  0  0  0  0  0  0  0  0
   10.0783  -16.3624   23.2156 O   0  0  0  0  0  0  0  0  0  0  0  0
    9.9691  -17.2976   22.3837 N   0  0  0  0  0  0  0  0  0  0  0  0
    5.9953  -21.4847   25.4173 C   0  0  0  0  0  0  0  0  0  0  0  0
   11.2923  -16.3144   23.9676 C   0  0  0  0  0  0  0  0  0  0  0  0
   12.3805  -15.4692   23.6152 O   0  0  0  0  0  0  0  0  0  0  0  0
   13.5208  -16.0562   22.9040 O   0  0  0  0  0  0  0  0  0  0  0  0
  2  1  1  0
  3  2  2  0
  4  2  1  0
  5  4  1  0
  6  5  1  0
  7  8  1  0
  7  6  1  0
  8 10  1  0
  8  9  1  1
 10 11  2  0
 13 12  1  0
 13 14  2  0
 15 16  1  0
 15 13  1  0
 17 16  1  0
 18 17  1  0
 19 18  1  1
 19 21  1  0
 20 10  1  0
 20 19  1  0
 21 22  2  0
 23 24  1  0
 23 21  1  0
 25 26  1  0
 25 24  1  0
 27 25  2  0
M  END
$$$$
