RRG.pdb
     RDKit          3D

 27 26  0  0  1  0  0  0  0  0999 V2000
    9.4147  -11.8840   19.3644 N   0  0  0  0  0  0  0  0  0  0  0  0
    8.9756  -13.0652   18.7237 C   0  0  0  0  0  0  0  0  0  0  0  0
    8.6592  -12.9820   17.4662 N   0  0  0  0  0  0  0  0  0  0  0  0
    8.8594  -14.3126   19.3512 N   0  0  0  0  0  0  0  0  0  0  0  0
    8.3061  -14.5066   20.6991 C   0  0  0  0  0  0  0  0  0  0  0  0
    6.8227  -14.7251   20.5309 C   0  0  0  0  0  0  0  0  0  0  0  0
    6.1385  -15.0644   21.8237 C   0  0  0  0  0  0  0  0  0  0  0  0
    6.5210  -16.4437   22.2892 C   0  0  2  0  0  0  0  0  0  0  0  0
    5.5392  -17.3997   21.8244 N   0  0  0  0  0  0  0  0  0  0  0  0
    6.5089  -16.4173   23.7903 C   0  0  0  0  0  0  0  0  0  0  0  0
    5.3867  -16.3991   24.3881 O   0  0  0  0  0  0  0  0  0  0  0  0
    8.3689  -13.8004   16.8880 N   0  0  0  0  0  0  0  0  0  0  0  0
    6.8548  -22.5768   28.1283 C   0  0  0  0  0  0  0  0  0  0  0  0
    8.1913  -22.0413   28.1200 N   0  0  0  0  0  0  0  0  0  0  0  0
    8.9583  -22.4142   29.0951 N   0  0  0  0  0  0  0  0  0  0  0  0
    8.6057  -21.1717   27.0952 C   0  0  0  0  0  0  0  0  0  0  0  0
    7.6859  -20.2062   26.5598 C   0  0  0  0  0  0  0  0  0  0  0  0
    7.9434  -18.8141   26.9896 C   0  0  0  0  0  0  0  0  0  0  0  0
    7.1480  -17.7212   26.4197 C   0  0  1  0  0  0  0  0  0  0  0  0
    7.7864  -16.4909   25.9382 N   0  0  0  0  0  0  0  0  0  0  0  0
    7.7324  -16.4135   24.4764 C   0  0  0  0  0  0  0  0  0  0  0  0
    9.1175  -16.1103   26.4353 O   0  0  0  0  0  0  0  0  0  0  0  0
   10.1273  -16.8291   26.2299 N   0  0  0  0  0  0  0  0  0  0  0  0
    9.9198  -22.1072   29.2674 C   0  0  0  0  0  0  0  0  0  0  0  0
    9.3269  -14.9135   27.1872 C   0  0  0  0  0  0  0  0  0  0  0  0
    9.0118  -14.8110   28.5703 O   0  0  0  0  0  0  0  0  0  0  0  0
    9.9095  -15.4448   29.5415 O   0  0  0  0  0  0  0  0  0  0  0  0
  2  1  1  0
  3  2  2  0
  4  2  1  0
  5  4  1  0
  6  5  1  0
  7  8  1  0
  7  6  1  0
  8 10  1  0
  8  9  1  6
 10 11  2  0
 13 12  1  0
 13 14  2  0
 15 16  1  0
 15 13  1  0
 17 16  1  0
 18 17  1  0
 19 18  1  1
 19 21  1  0
 20 10  1  0
 20 19  1  0
 21 22  2  0
 23 24  1  0
 23 21  1  0
 25 26  1  0
 25 24  1  0
 27 25  2  0
M  END
$$$$
