RRG.pdb
     RDKit          3D

 27 26  0  0  1  0  0  0  0  0999 V2000
    6.9708  -15.9889   13.9725 N   0  0  0  0  0  0  0  0  0  0  0  0
    7.4976  -17.1552   14.5730 C   0  0  0  0  0  0  0  0  0  0  0  0
    7.0106  -18.2976   14.1909 N   0  0  0  0  0  0  0  0  0  0  0  0
    8.5043  -17.1610   15.5477 N   0  0  0  0  0  0  0  0  0  0  0  0
    9.1335  -15.9471   16.0871 C   0  0  0  0  0  0  0  0  0  0  0  0
    8.2986  -15.5143   17.2669 C   0  0  0  0  0  0  0  0  0  0  0  0
    8.8337  -14.2784   17.9310 C   0  0  0  0  0  0  0  0  0  0  0  0
    8.0515  -13.9546   19.1755 C   0  0  2  0  0  0  0  0  0  0  0  0
    7.6081  -12.5781   19.1225 N   0  0  0  0  0  0  0  0  0  0  0  0
    8.9878  -14.1248   20.3367 C   0  0  0  0  0  0  0  0  0  0  0  0
    9.9652  -13.3195   20.4516 O   0  0  0  0  0  0  0  0  0  0  0  0
    7.3848  -19.2195   14.5048 N   0  0  0  0  0  0  0  0  0  0  0  0
    4.8584  -12.9547   26.4790 C   0  0  0  0  0  0  0  0  0  0  0  0
    6.2498  -12.6292   26.3018 N   0  0  0  0  0  0  0  0  0  0  0  0
    6.5246  -11.3714   26.1576 N   0  0  0  0  0  0  0  0  0  0  0  0
    7.2250  -13.6426   26.2960 C   0  0  0  0  0  0  0  0  0  0  0  0
    7.3063  -14.5517   25.1862 C   0  0  0  0  0  0  0  0  0  0  0  0
    8.6300  -14.5930   24.5267 C   0  0  0  0  0  0  0  0  0  0  0  0
    8.9434  -15.6851   23.5988 C   0  0  2  0  0  0  0  0  0  0  0  0
    9.6760  -15.4337   22.3526 N   0  0  0  0  0  0  0  0  0  0  0  0
    8.7509  -15.1632   21.2497 C   0  0  0  0  0  0  0  0  0  0  0  0
   10.7433  -16.3532   21.9291 O   0  0  0  0  0  0  0  0  0  0  0  0
   10.5044  -17.3478   21.1995 N   0  0  0  0  0  0  0  0  0  0  0  0
    7.4558  -10.9574   26.0592 C   0  0  0  0  0  0  0  0  0  0  0  0
   12.1006  -16.1704   22.3364 C   0  0  0  0  0  0  0  0  0  0  0  0
   13.1138  -17.1365   22.0859 O   0  0  0  0  0  0  0  0  0  0  0  0
   14.4940  -16.8177   22.4656 O   0  0  0  0  0  0  0  0  0  0  0  0
  2  1  1  0
  3  2  2  0
  4  2  1  0
  5  4  1  0
  6  5  1  0
  7  8  1  0
  7  6  1  0
  8 10  1  0
  8  9  1  6
 10 11  2  0
 13 12  1  0
 13 14  2  0
 15 16  1  0
 15 13  1  0
 17 16  1  0
 18 17  1  0
 19 18  1  1
 19 21  1  0
 20 10  1  0
 20 19  1  0
 21 22  2  0
 23 24  1  0
 23 21  1  0
 25 26  1  0
 25 24  1  0
 27 25  2  0
M  END
$$$$
