RRG.pdb
     RDKit          3D

 27 26  0  0  1  0  0  0  0  0999 V2000
   15.4104  -21.6410   15.1052 N   0  0  0  0  0  0  0  0  0  0  0  0
   15.4275  -20.6854   16.1468 C   0  0  0  0  0  0  0  0  0  0  0  0
   16.4954  -19.9559   16.2725 N   0  0  0  0  0  0  0  0  0  0  0  0
   14.3754  -20.4739   17.0478 N   0  0  0  0  0  0  0  0  0  0  0  0
   13.1215  -21.2409   17.0423 C   0  0  0  0  0  0  0  0  0  0  0  0
   12.0004  -20.2386   17.1655 C   0  0  0  0  0  0  0  0  0  0  0  0
   11.3848  -20.2260   18.5350 C   0  0  0  0  0  0  0  0  0  0  0  0
    9.9824  -19.6814   18.4897 C   0  0  2  0  0  0  0  0  0  0  0  0
    9.6288  -19.3717   17.1211 N   0  0  0  0  0  0  0  0  0  0  0  0
    9.9790  -18.4153   19.2966 C   0  0  0  0  0  0  0  0  0  0  0  0
   10.8386  -17.5189   19.0234 O   0  0  0  0  0  0  0  0  0  0  0  0
   16.5825  -19.1717   16.9551 N   0  0  0  0  0  0  0  0  0  0  0  0
    7.6282  -10.9597   20.1059 C   0  0  0  0  0  0  0  0  0  0  0  0
    8.3219  -12.2144   19.9733 N   0  0  0  0  0  0  0  0  0  0  0  0
    9.5297  -12.1489   19.5095 N   0  0  0  0  0  0  0  0  0  0  0  0
    7.6953  -13.4190   20.3400 C   0  0  0  0  0  0  0  0  0  0  0  0
    8.0927  -14.0952   21.5440 C   0  0  0  0  0  0  0  0  0  0  0  0
    7.2757  -15.2835   21.8746 C   0  0  0  0  0  0  0  0  0  0  0  0
    7.5826  -16.5719   21.2438 C   0  0  2  0  0  0  0  0  0  0  0  0
    8.9655  -17.0487   21.1285 N   0  0  0  0  0  0  0  0  0  0  0  0
    9.0305  -18.2681   20.3197 C   0  0  0  0  0  0  0  0  0  0  0  0
    9.8034  -17.1711   22.3312 O   0  0  0  0  0  0  0  0  0  0  0  0
    9.6108  -18.0788   23.1784 N   0  0  0  0  0  0  0  0  0  0  0  0
   10.1805  -12.9302   19.3887 C   0  0  0  0  0  0  0  0  0  0  0  0
   10.8679  -16.2577   22.6038 C   0  0  0  0  0  0  0  0  0  0  0  0
   11.6696  -16.3411   23.7756 O   0  0  0  0  0  0  0  0  0  0  0  0
   12.9500  -17.0518   23.6984 O   0  0  0  0  0  0  0  0  0  0  0  0
  2  1  1  0
  3  2  2  0
  4  2  1  0
  5  4  1  0
  6  5  1  0
  7  8  1  0
  7  6  1  0
  8 10  1  0
  8  9  1  6
 10 11  2  0
 13 12  1  0
 13 14  2  0
 15 16  1  0
 15 13  1  0
 17 16  1  0
 18 17  1  0
 19 18  1  6
 19 21  1  0
 20 10  1  0
 20 19  1  0
 21 22  2  0
 23 24  1  0
 23 21  1  0
 25 26  1  0
 25 24  1  0
 27 25  2  0
M  END
$$$$
