RRG.pdb
     RDKit          3D

 27 26  0  0  1  0  0  0  0  0999 V2000
    7.1437  -24.5936   19.6141 N   0  0  0  0  0  0  0  0  0  0  0  0
    6.3621  -24.5995   20.7920 C   0  0  0  0  0  0  0  0  0  0  0  0
    5.2443  -25.2615   20.7654 N   0  0  0  0  0  0  0  0  0  0  0  0
    6.7106  -23.9424   21.9795 N   0  0  0  0  0  0  0  0  0  0  0  0
    7.9115  -23.1096   22.1364 C   0  0  0  0  0  0  0  0  0  0  0  0
    7.7739  -21.9639   21.1642 C   0  0  0  0  0  0  0  0  0  0  0  0
    8.1568  -20.6440   21.7690 C   0  0  0  0  0  0  0  0  0  0  0  0
    8.0944  -19.5438   20.7436 C   0  0  2  0  0  0  0  0  0  0  0  0
    8.8007  -19.9559   19.5499 N   0  0  0  0  0  0  0  0  0  0  0  0
    8.7879  -18.3524   21.3383 C   0  0  0  0  0  0  0  0  0  0  0  0
   10.0447  -18.4109   21.5226 O   0  0  0  0  0  0  0  0  0  0  0  0
    4.5368  -25.2319   21.5316 N   0  0  0  0  0  0  0  0  0  0  0  0
    6.2708  -13.8833   17.9037 C   0  0  0  0  0  0  0  0  0  0  0  0
    7.5988  -13.4940   17.5064 N   0  0  0  0  0  0  0  0  0  0  0  0
    7.6911  -12.8566   16.3824 N   0  0  0  0  0  0  0  0  0  0  0  0
    8.7056  -13.8004   18.3183 C   0  0  0  0  0  0  0  0  0  0  0  0
    8.5483  -14.6861   19.4389 C   0  0  0  0  0  0  0  0  0  0  0  0
    8.1378  -14.0169   20.6929 C   0  0  0  0  0  0  0  0  0  0  0  0
    7.8525  -14.8235   21.8845 C   0  0  2  0  0  0  0  0  0  0  0  0
    8.6525  -16.0112   22.2048 N   0  0  0  0  0  0  0  0  0  0  0  0
    8.0261  -17.2216   21.6681 C   0  0  0  0  0  0  0  0  0  0  0  0
    9.1246  -16.2302   23.5806 O   0  0  0  0  0  0  0  0  0  0  0  0
    8.3248  -16.3117   24.5461 N   0  0  0  0  0  0  0  0  0  0  0  0
    8.5462  -12.4834   15.9606 C   0  0  0  0  0  0  0  0  0  0  0  0
   10.5146  -16.3472   23.8904 C   0  0  0  0  0  0  0  0  0  0  0  0
   10.9932  -16.5182   25.2187 O   0  0  0  0  0  0  0  0  0  0  0  0
   12.4256  -16.7587   25.4209 O   0  0  0  0  0  0  0  0  0  0  0  0
  2  1  1  0
  3  2  2  0
  4  2  1  0
  5  4  1  0
  6  5  1  0
  7  8  1  0
  7  6  1  0
  8 10  1  0
  8  9  1  6
 10 11  2  0
 13 12  1  0
 13 14  2  0
 15 16  1  0
 15 13  1  0
 17 16  1  0
 18 17  1  0
 19 18  1  6
 19 21  1  0
 20 10  1  0
 20 19  1  0
 21 22  2  0
 23 24  1  0
 23 21  1  0
 25 26  1  0
 25 24  1  0
 27 25  2  0
M  END
$$$$
