RRG.pdb
     RDKit          3D

 27 26  0  0  1  0  0  0  0  0999 V2000
   11.1105  -14.8674   27.7950 N   0  0  0  0  0  0  0  0  0  0  0  0
   10.4723  -14.5024   29.0024 C   0  0  0  0  0  0  0  0  0  0  0  0
   11.1395  -14.6657   30.1054 N   0  0  0  0  0  0  0  0  0  0  0  0
    9.1752  -13.9794   29.0883 N   0  0  0  0  0  0  0  0  0  0  0  0
    8.2485  -13.8881   27.9511 C   0  0  0  0  0  0  0  0  0  0  0  0
    8.0820  -15.2885   27.4147 C   0  0  0  0  0  0  0  0  0  0  0  0
    7.0888  -15.3625   26.2910 C   0  0  0  0  0  0  0  0  0  0  0  0
    6.9835  -16.7659   25.7573 C   0  0  2  0  0  0  0  0  0  0  0  0
    7.2612  -17.7085   26.8195 N   0  0  0  0  0  0  0  0  0  0  0  0
    8.0295  -16.9068   24.6894 C   0  0  0  0  0  0  0  0  0  0  0  0
    9.0948  -17.5447   24.9636 O   0  0  0  0  0  0  0  0  0  0  0  0
   10.7468  -14.4722   31.0523 N   0  0  0  0  0  0  0  0  0  0  0  0
    7.7569  -13.3392   16.0228 C   0  0  0  0  0  0  0  0  0  0  0  0
    7.8233  -13.6382   17.4297 N   0  0  0  0  0  0  0  0  0  0  0  0
    6.9698  -13.0193   18.1824 N   0  0  0  0  0  0  0  0  0  0  0  0
    8.7686  -14.5567   17.9206 C   0  0  0  0  0  0  0  0  0  0  0  0
    8.3274  -15.7727   18.5464 C   0  0  0  0  0  0  0  0  0  0  0  0
    8.9870  -16.0690   19.8371 C   0  0  0  0  0  0  0  0  0  0  0  0
    8.2176  -15.9735   21.0825 C   0  0  2  0  0  0  0  0  0  0  0  0
    8.7926  -16.4014   22.3629 N   0  0  0  0  0  0  0  0  0  0  0  0
    7.7939  -16.3312   23.4321 C   0  0  0  0  0  0  0  0  0  0  0  0
   10.0809  -15.8505   22.8108 O   0  0  0  0  0  0  0  0  0  0  0  0
   10.1411  -14.8785   23.6046 N   0  0  0  0  0  0  0  0  0  0  0  0
    6.8002  -13.1865   19.1783 C   0  0  0  0  0  0  0  0  0  0  0  0
   11.3266  -16.3826   22.3561 C   0  0  0  0  0  0  0  0  0  0  0  0
   12.5770  -15.7785   22.6631 O   0  0  0  0  0  0  0  0  0  0  0  0
   13.7867  -16.3127   22.0292 O   0  0  0  0  0  0  0  0  0  0  0  0
  2  1  1  0
  3  2  2  0
  4  2  1  0
  5  4  1  0
  6  5  1  0
  7  8  1  0
  7  6  1  0
  8 10  1  0
  8  9  1  1
 10 11  2  0
 13 12  1  0
 13 14  2  0
 15 16  1  0
 15 13  1  0
 17 16  1  0
 18 17  1  0
 19 18  1  6
 19 21  1  0
 20 10  1  0
 20 19  1  0
 21 22  2  0
 23 24  1  0
 23 21  1  0
 25 26  1  0
 25 24  1  0
 27 25  2  0
M  END
$$$$
