RRG.pdb
     RDKit          3D

 27 26  0  0  1  0  0  0  0  0999 V2000
    7.9694  -18.1484   15.1342 N   0  0  0  0  0  0  0  0  0  0  0  0
    9.3297  -17.9107   14.8320 C   0  0  0  0  0  0  0  0  0  0  0  0
   10.1010  -18.9465   14.6884 N   0  0  0  0  0  0  0  0  0  0  0  0
    9.8984  -16.6394   14.6780 N   0  0  0  0  0  0  0  0  0  0  0  0
    9.1325  -15.3855   14.7192 C   0  0  0  0  0  0  0  0  0  0  0  0
    8.6301  -15.2314   16.1335 C   0  0  0  0  0  0  0  0  0  0  0  0
    7.8519  -13.9631   16.3351 C   0  0  0  0  0  0  0  0  0  0  0  0
    7.2602  -13.9088   17.7180 C   0  0  2  0  0  0  0  0  0  0  0  0
    6.4353  -12.7266   17.8440 N   0  0  0  0  0  0  0  0  0  0  0  0
    8.4081  -13.8118   18.6809 C   0  0  0  0  0  0  0  0  0  0  0  0
    9.0210  -12.7025   18.7853 O   0  0  0  0  0  0  0  0  0  0  0  0
   11.1146  -18.8836   14.4496 N   0  0  0  0  0  0  0  0  0  0  0  0
   12.7683  -17.4632   23.4586 C   0  0  0  0  0  0  0  0  0  0  0  0
   11.9749  -17.2869   24.6471 N   0  0  0  0  0  0  0  0  0  0  0  0
   11.8837  -18.3175   25.4268 N   0  0  0  0  0  0  0  0  0  0  0  0
   11.3546  -16.0534   24.9150 C   0  0  0  0  0  0  0  0  0  0  0  0
   10.2525  -15.6150   24.1038 C   0  0  0  0  0  0  0  0  0  0  0  0
   10.6244  -15.2337   22.7235 C   0  0  0  0  0  0  0  0  0  0  0  0
    9.6135  -15.2813   21.6615 C   0  0  2  0  0  0  0  0  0  0  0  0
    9.9584  -14.9585   20.2723 N   0  0  0  0  0  0  0  0  0  0  0  0
    8.7616  -14.9454   19.4278 C   0  0  0  0  0  0  0  0  0  0  0  0
   11.0633  -15.6648   19.6061 O   0  0  0  0  0  0  0  0  0  0  0  0
   11.1760  -16.9148   19.6645 N   0  0  0  0  0  0  0  0  0  0  0  0
   11.3326  -18.3853   26.2870 C   0  0  0  0  0  0  0  0  0  0  0  0
   12.0703  -14.9659   18.8718 C   0  0  0  0  0  0  0  0  0  0  0  0
   13.2333  -14.4259   19.4871 O   0  0  0  0  0  0  0  0  0  0  0  0
   14.3410  -15.3323   19.8062 O   0  0  0  0  0  0  0  0  0  0  0  0
  2  1  1  0
  3  2  2  0
  4  2  1  0
  5  4  1  0
  6  5  1  0
  7  8  1  0
  7  6  1  0
  8 10  1  0
  8  9  1  6
 10 11  2  0
 13 12  1  0
 13 14  2  0
 15 16  1  0
 15 13  1  0
 17 16  1  0
 18 17  1  0
 19 18  1  1
 19 21  1  0
 20 10  1  0
 20 19  1  0
 21 22  2  0
 23 24  1  0
 23 21  1  0
 25 26  1  0
 25 24  1  0
 27 25  2  0
M  END
$$$$
