RRG.pdb
     RDKit          3D

 27 26  0  0  1  0  0  0  0  0999 V2000
    8.6062  -14.0459   14.8794 N   0  0  0  0  0  0  0  0  0  0  0  0
    9.0939  -15.0221   15.7780 C   0  0  0  0  0  0  0  0  0  0  0  0
    9.9648  -15.8725   15.3235 N   0  0  0  0  0  0  0  0  0  0  0  0
    8.7025  -15.1331   17.1189 N   0  0  0  0  0  0  0  0  0  0  0  0
    7.6916  -14.2757   17.7540 C   0  0  0  0  0  0  0  0  0  0  0  0
    8.3886  -13.5393   18.8714 C   0  0  0  0  0  0  0  0  0  0  0  0
    7.5084  -13.3447   20.0722 C   0  0  0  0  0  0  0  0  0  0  0  0
    7.1085  -14.6684   20.6666 C   0  0  2  0  0  0  0  0  0  0  0  0
    5.6992  -14.6446   20.9940 N   0  0  0  0  0  0  0  0  0  0  0  0
    7.9034  -14.8385   21.9289 C   0  0  0  0  0  0  0  0  0  0  0  0
    7.8514  -13.9206   22.8074 O   0  0  0  0  0  0  0  0  0  0  0  0
   10.5078  -16.5241   15.9309 N   0  0  0  0  0  0  0  0  0  0  0  0
    9.0469  -13.5727   28.0156 C   0  0  0  0  0  0  0  0  0  0  0  0
    9.7929  -14.7685   28.3098 N   0  0  0  0  0  0  0  0  0  0  0  0
   10.8089  -14.6235   29.1003 N   0  0  0  0  0  0  0  0  0  0  0  0
    9.4089  -16.0037   27.7576 C   0  0  0  0  0  0  0  0  0  0  0  0
    8.9226  -16.0639   26.4067 C   0  0  0  0  0  0  0  0  0  0  0  0
    9.6256  -17.0423   25.5481 C   0  0  0  0  0  0  0  0  0  0  0  0
    9.2669  -17.1507   24.1298 C   0  0  2  0  0  0  0  0  0  0  0  0
    9.6603  -16.1151   23.1676 N   0  0  0  0  0  0  0  0  0  0  0  0
    8.6723  -16.0004   22.0923 C   0  0  0  0  0  0  0  0  0  0  0  0
   11.0285  -16.0949   22.6278 O   0  0  0  0  0  0  0  0  0  0  0  0
   11.2494  -15.9557   21.3988 N   0  0  0  0  0  0  0  0  0  0  0  0
   11.4485  -15.3591   29.4137 C   0  0  0  0  0  0  0  0  0  0  0  0
   12.1728  -16.2462   23.4699 C   0  0  0  0  0  0  0  0  0  0  0  0
   13.5031  -16.2320   22.9670 O   0  0  0  0  0  0  0  0  0  0  0  0
   14.6127  -16.3389   23.9199 O   0  0  0  0  0  0  0  0  0  0  0  0
  2  1  1  0
  3  2  2  0
  4  2  1  0
  5  4  1  0
  6  5  1  0
  7  8  1  0
  7  6  1  0
  8 10  1  0
  8  9  1  1
 10 11  2  0
 13 12  1  0
 13 14  2  0
 15 16  1  0
 15 13  1  0
 17 16  1  0
 18 17  1  0
 19 18  1  1
 19 21  1  0
 20 10  1  0
 20 19  1  0
 21 22  2  0
 23 24  1  0
 23 21  1  0
 25 26  1  0
 25 24  1  0
 27 25  2  0
M  END
$$$$
