RRG.pdb
     RDKit          3D

 27 26  0  0  1  0  0  0  0  0999 V2000
   12.4623  -24.4258   23.2678 N   0  0  0  0  0  0  0  0  0  0  0  0
   12.8467  -23.3383   24.0850 C   0  0  0  0  0  0  0  0  0  0  0  0
   13.3427  -22.2921   23.4952 N   0  0  0  0  0  0  0  0  0  0  0  0
   12.7294  -23.3138   25.4811 N   0  0  0  0  0  0  0  0  0  0  0  0
   12.2632  -24.4512   26.2871 C   0  0  0  0  0  0  0  0  0  0  0  0
   10.9546  -24.0325   26.9106 C   0  0  0  0  0  0  0  0  0  0  0  0
   10.3895  -25.0802   27.8258 C   0  0  0  0  0  0  0  0  0  0  0  0
    9.0730  -24.6359   28.4045 C   0  0  2  0  0  0  0  0  0  0  0  0
    8.2708  -24.0253   27.3664 N   0  0  0  0  0  0  0  0  0  0  0  0
    9.3818  -23.6087   29.4550 C   0  0  0  0  0  0  0  0  0  0  0  0
    9.3324  -22.3791   29.1348 O   0  0  0  0  0  0  0  0  0  0  0  0
   13.6336  -21.4272   24.0008 N   0  0  0  0  0  0  0  0  0  0  0  0
    6.8927  -25.9503   37.0488 C   0  0  0  0  0  0  0  0  0  0  0  0
    6.2247  -26.2234   35.8029 N   0  0  0  0  0  0  0  0  0  0  0  0
    5.1248  -26.9027   35.8856 N   0  0  0  0  0  0  0  0  0  0  0  0
    6.7616  -25.7600   34.5884 C   0  0  0  0  0  0  0  0  0  0  0  0
    7.9103  -24.8968   34.5963 C   0  0  0  0  0  0  0  0  0  0  0  0
    8.3778  -24.4905   33.2527 C   0  0  0  0  0  0  0  0  0  0  0  0
    9.5722  -23.6485   33.1252 C   0  0  2  0  0  0  0  0  0  0  0  0
    9.9687  -23.0873   31.8287 N   0  0  0  0  0  0  0  0  0  0  0  0
    9.7129  -24.0418   30.7475 C   0  0  0  0  0  0  0  0  0  0  0  0
   11.2894  -22.4588   31.6727 O   0  0  0  0  0  0  0  0  0  0  0  0
   12.3183  -23.1392   31.4335 N   0  0  0  0  0  0  0  0  0  0  0  0
    4.5108  -27.1672   35.1100 C   0  0  0  0  0  0  0  0  0  0  0  0
   11.4716  -21.0472   31.7988 C   0  0  0  0  0  0  0  0  0  0  0  0
   11.3368  -20.1548   30.6996 O   0  0  0  0  0  0  0  0  0  0  0  0
   12.3459  -20.1968   29.6363 O   0  0  0  0  0  0  0  0  0  0  0  0
  2  1  1  0
  3  2  2  0
  4  2  1  0
  5  4  1  0
  6  5  1  0
  7  8  1  0
  7  6  1  0
  8 10  1  0
  8  9  1  6
 10 11  2  0
 13 12  1  0
 13 14  2  0
 15 16  1  0
 15 13  1  0
 17 16  1  0
 18 17  1  0
 19 18  1  6
 19 21  1  0
 20 10  1  0
 20 19  1  0
 21 22  2  0
 23 24  1  0
 23 21  1  0
 25 26  1  0
 25 24  1  0
 27 25  2  0
M  END
$$$$
