RRG.pdb
     RDKit          3D

 27 26  0  0  1  0  0  0  0  0999 V2000
    8.1439  -12.7796   18.3181 N   0  0  0  0  0  0  0  0  0  0  0  0
    7.5660  -12.3620   19.5388 C   0  0  0  0  0  0  0  0  0  0  0  0
    7.9348  -11.2096   20.0124 N   0  0  0  0  0  0  0  0  0  0  0  0
    6.6274  -13.1042   20.2679 N   0  0  0  0  0  0  0  0  0  0  0  0
    6.9727  -14.2332   21.1433 C   0  0  0  0  0  0  0  0  0  0  0  0
    7.5749  -15.2978   20.2597 C   0  0  0  0  0  0  0  0  0  0  0  0
    7.9118  -16.5518   21.0138 C   0  0  0  0  0  0  0  0  0  0  0  0
    8.7252  -17.4896   20.1626 C   0  0  2  0  0  0  0  0  0  0  0  0
    8.3644  -18.8567   20.4704 N   0  0  0  0  0  0  0  0  0  0  0  0
   10.1658  -17.2685   20.5231 C   0  0  0  0  0  0  0  0  0  0  0  0
   10.6163  -17.8086   21.5826 O   0  0  0  0  0  0  0  0  0  0  0  0
    7.5740  -10.8098   20.9059 N   0  0  0  0  0  0  0  0  0  0  0  0
   16.8287  -13.3198   19.9603 C   0  0  0  0  0  0  0  0  0  0  0  0
   17.2978  -14.0292   18.7985 N   0  0  0  0  0  0  0  0  0  0  0  0
   18.5689  -14.2755   18.7587 N   0  0  0  0  0  0  0  0  0  0  0  0
   16.3993  -14.4197   17.7894 C   0  0  0  0  0  0  0  0  0  0  0  0
   14.9921  -14.1771   17.9504 C   0  0  0  0  0  0  0  0  0  0  0  0
   14.3694  -14.9168   19.0701 C   0  0  0  0  0  0  0  0  0  0  0  0
   12.9831  -15.3811   18.9496 C   0  0  1  0  0  0  0  0  0  0  0  0
   12.3470  -16.1539   20.0226 N   0  0  0  0  0  0  0  0  0  0  0  0
   10.9598  -16.4764   19.6805 C   0  0  0  0  0  0  0  0  0  0  0  0
   12.4516  -15.6989   21.4175 O   0  0  0  0  0  0  0  0  0  0  0  0
   11.6161  -14.9033   21.9150 N   0  0  0  0  0  0  0  0  0  0  0  0
   19.0644  -14.8132   18.0419 C   0  0  0  0  0  0  0  0  0  0  0  0
   13.5142  -16.1267   22.2717 C   0  0  0  0  0  0  0  0  0  0  0  0
   13.6124  -15.7276   23.6332 O   0  0  0  0  0  0  0  0  0  0  0  0
   14.7315  -16.2366   24.4327 O   0  0  0  0  0  0  0  0  0  0  0  0
  2  1  1  0
  3  2  2  0
  4  2  1  0
  5  4  1  0
  6  5  1  0
  7  8  1  0
  7  6  1  0
  8 10  1  0
  8  9  1  1
 10 11  2  0
 13 12  1  0
 13 14  2  0
 15 16  1  0
 15 13  1  0
 17 16  1  0
 18 17  1  0
 19 18  1  6
 19 21  1  0
 20 10  1  0
 20 19  1  0
 21 22  2  0
 23 24  1  0
 23 21  1  0
 25 26  1  0
 25 24  1  0
 27 25  2  0
M  END
$$$$
