RRG.pdb
     RDKit          3D

 27 26  0  0  1  0  0  0  0  0999 V2000
    8.5464  -17.4953   12.8061 N   0  0  0  0  0  0  0  0  0  0  0  0
    7.7629  -16.3190   12.7765 C   0  0  0  0  0  0  0  0  0  0  0  0
    7.9817  -15.4781   11.8103 N   0  0  0  0  0  0  0  0  0  0  0  0
    6.7719  -16.0012   13.7147 N   0  0  0  0  0  0  0  0  0  0  0  0
    6.8670  -14.8834   14.6645 C   0  0  0  0  0  0  0  0  0  0  0  0
    8.1653  -15.0602   15.4126 C   0  0  0  0  0  0  0  0  0  0  0  0
    8.4962  -13.8814   16.2819 C   0  0  0  0  0  0  0  0  0  0  0  0
    7.9215  -14.0525   17.6624 C   0  0  2  0  0  0  0  0  0  0  0  0
    6.8869  -13.0646   17.8804 N   0  0  0  0  0  0  0  0  0  0  0  0
    9.0407  -13.8145   18.6343 C   0  0  0  0  0  0  0  0  0  0  0  0
    9.5699  -12.6591   18.6798 O   0  0  0  0  0  0  0  0  0  0  0  0
    7.5928  -14.5103   11.7873 N   0  0  0  0  0  0  0  0  0  0  0  0
   13.5679  -18.2602   22.5390 C   0  0  0  0  0  0  0  0  0  0  0  0
   13.7209  -17.6962   23.8549 N   0  0  0  0  0  0  0  0  0  0  0  0
   14.7258  -18.1327   24.5462 N   0  0  0  0  0  0  0  0  0  0  0  0
   12.8166  -16.7275   24.3261 C   0  0  0  0  0  0  0  0  0  0  0  0
   11.5885  -16.4903   23.6187 C   0  0  0  0  0  0  0  0  0  0  0  0
   11.7480  -15.7403   22.3534 C   0  0  0  0  0  0  0  0  0  0  0  0
   10.5806  -15.5106   21.4954 C   0  0  1  0  0  0  0  0  0  0  0  0
   10.7061  -14.7937   20.2213 N   0  0  0  0  0  0  0  0  0  0  0  0
    9.4608  -14.8725   19.4541 C   0  0  0  0  0  0  0  0  0  0  0  0
   11.8717  -15.0312   19.3560 O   0  0  0  0  0  0  0  0  0  0  0  0
   11.9282  -16.0211   18.5844 N   0  0  0  0  0  0  0  0  0  0  0  0
   14.9644  -17.8728   25.5074 C   0  0  0  0  0  0  0  0  0  0  0  0
   13.0026  -14.1578   19.3591 C   0  0  0  0  0  0  0  0  0  0  0  0
   14.1401  -14.3721   18.5327 O   0  0  0  0  0  0  0  0  0  0  0  0
   15.3416  -14.9592   19.1345 O   0  0  0  0  0  0  0  0  0  0  0  0
  2  1  1  0
  3  2  2  0
  4  2  1  0
  5  4  1  0
  6  5  1  0
  7  8  1  0
  7  6  1  0
  8 10  1  0
  8  9  1  1
 10 11  2  0
 13 12  1  0
 13 14  2  0
 15 16  1  0
 15 13  1  0
 17 16  1  0
 18 17  1  0
 19 18  1  1
 19 21  1  0
 20 10  1  0
 20 19  1  0
 21 22  2  0
 23 24  1  0
 23 21  1  0
 25 26  1  0
 25 24  1  0
 27 25  2  0
M  END
$$$$
