RRG.pdb
     RDKit          3D

 27 26  0  0  1  0  0  0  0  0999 V2000
    6.5514  -12.3641   19.1398 N   0  0  0  0  0  0  0  0  0  0  0  0
    7.8928  -12.7220   18.8736 C   0  0  0  0  0  0  0  0  0  0  0  0
    8.8190  -11.8873   19.2395 N   0  0  0  0  0  0  0  0  0  0  0  0
    8.2878  -13.9102   18.2448 N   0  0  0  0  0  0  0  0  0  0  0  0
    8.1391  -15.2451   18.8417 C   0  0  0  0  0  0  0  0  0  0  0  0
    7.0082  -15.1512   19.8360 C   0  0  0  0  0  0  0  0  0  0  0  0
    7.3257  -15.8290   21.1377 C   0  0  0  0  0  0  0  0  0  0  0  0
    7.2709  -17.3261   20.9924 C   0  0  2  0  0  0  0  0  0  0  0  0
    6.0801  -17.8309   21.6413 N   0  0  0  0  0  0  0  0  0  0  0  0
    8.4813  -17.8774   21.6890 C   0  0  0  0  0  0  0  0  0  0  0  0
    8.3138  -18.5565   22.7510 O   0  0  0  0  0  0  0  0  0  0  0  0
    9.8277  -12.0016   18.9991 N   0  0  0  0  0  0  0  0  0  0  0  0
   15.2931  -22.5408   19.6944 C   0  0  0  0  0  0  0  0  0  0  0  0
   15.1389  -21.8647   20.9563 N   0  0  0  0  0  0  0  0  0  0  0  0
   16.2125  -21.3351   21.4513 N   0  0  0  0  0  0  0  0  0  0  0  0
   13.8811  -21.7991   21.5822 C   0  0  0  0  0  0  0  0  0  0  0  0
   13.0108  -20.6848   21.3255 C   0  0  0  0  0  0  0  0  0  0  0  0
   11.6819  -20.7878   21.9675 C   0  0  0  0  0  0  0  0  0  0  0  0
   10.6368  -19.8155   21.6296 C   0  0  1  0  0  0  0  0  0  0  0  0
   10.9281  -18.3783   21.5753 N   0  0  0  0  0  0  0  0  0  0  0  0
    9.7489  -17.6235   21.1446 C   0  0  0  0  0  0  0  0  0  0  0  0
   12.1377  -17.8990   20.8893 O   0  0  0  0  0  0  0  0  0  0  0  0
   12.2636  -17.9812   19.6419 N   0  0  0  0  0  0  0  0  0  0  0  0
   16.2926  -20.8368   22.3422 C   0  0  0  0  0  0  0  0  0  0  0  0
   13.2346  -17.3293   21.6063 C   0  0  0  0  0  0  0  0  0  0  0  0
   13.6576  -15.9843   21.4201 O   0  0  0  0  0  0  0  0  0  0  0  0
   15.0583  -15.7339   21.0654 O   0  0  0  0  0  0  0  0  0  0  0  0
  2  1  1  0
  3  2  2  0
  4  2  1  0
  5  4  1  0
  6  5  1  0
  7  8  1  0
  7  6  1  0
  8 10  1  0
  8  9  1  1
 10 11  2  0
 13 12  1  0
 13 14  2  0
 15 16  1  0
 15 13  1  0
 17 16  1  0
 18 17  1  0
 19 18  1  1
 19 21  1  0
 20 10  1  0
 20 19  1  0
 21 22  2  0
 23 24  1  0
 23 21  1  0
 25 26  1  0
 25 24  1  0
 27 25  2  0
M  END
$$$$
