FDG.pdb
     RDKit          3D

 24 24  0  0  1  0  0  0  0  0999 V2000
   23.5096  -13.3915  -16.3691 N   0  0  0  0  0  0  0  0  0  0  0  0
   24.4019  -12.5451  -15.6021 C   0  0  1  0  0  0  0  0  0  0  0  0
   25.7952  -12.7883  -16.1488 C   0  0  0  0  0  0  0  0  0  0  0  0
   26.0887  -14.2491  -15.9953 C   0  0  0  0  0  0  0  0  0  0  0  0
   26.2158  -14.8171  -14.7478 C   0  0  0  0  0  0  0  0  0  0  0  0
   26.4862  -16.1552  -14.5859 C   0  0  0  0  0  0  0  0  0  0  0  0
   26.6351  -16.9539  -15.7001 C   0  0  0  0  0  0  0  0  0  0  0  0
   26.5163  -16.4262  -16.9498 C   0  0  0  0  0  0  0  0  0  0  0  0
   26.2445  -15.0820  -17.0928 C   0  0  0  0  0  0  0  0  0  0  0  0
   23.9952  -11.1294  -15.7706 C   0  0  0  0  0  0  0  0  0  0  0  0
   24.7537  -10.2375  -15.3425 O   0  0  0  0  0  0  0  0  0  0  0  0
   22.7734  -10.8276  -16.4041 N   0  0  0  0  0  0  0  0  0  0  0  0
   22.1833   -9.5309  -16.6117 C   0  0  1  0  0  0  0  0  0  0  0  0
   21.1571   -9.5608  -17.7031 C   0  0  0  0  0  0  0  0  0  0  0  0
   21.5609  -10.3398  -18.8736 C   0  0  0  0  0  0  0  0  0  0  0  0
   22.5070   -9.9583  -19.5974 O   0  0  0  0  0  0  0  0  0  0  0  0
   21.8485   -8.7612  -15.4215 C   0  0  0  0  0  0  0  0  0  0  0  0
   21.2890   -9.2756  -14.4346 O   0  0  0  0  0  0  0  0  0  0  0  0
   20.9042  -11.5111  -19.2053 O   0  0  0  0  0  0  0  0  0  0  0  0
   22.1560   -7.3703  -15.3483 N   0  0  0  0  0  0  0  0  0  0  0  0
   21.8654   -6.5697  -14.1811 C   0  0  0  0  0  0  0  0  0  0  0  0
   22.2338   -5.1410  -14.3874 C   0  0  0  0  0  0  0  0  0  0  0  0
   22.7714   -4.8266  -15.4753 O   0  0  0  0  0  0  0  0  0  0  0  0
   22.0081   -4.1785  -13.4437 O   0  0  0  0  0  0  0  0  0  0  0  0
  2  1  1  6
  2 10  1  0
  3  2  1  0
  4  3  1  0
  5  4  2  0
  6  5  1  0
  7  6  2  0
  7  8  1  0
  8  9  2  0
  9  4  1  0
 10 11  2  0
 10 12  1  0
 12 13  1  0
 13 17  1  0
 14 15  1  0
 13 14  1  1
 15 16  2  0
 17 18  2  0
 17 20  1  0
 19 15  1  0
 20 21  1  0
 21 22  1  0
 22 24  1  0
 23 22  2  0
M  END
$$$$
