FDG.pdb
     RDKit          3D

 24 24  0  0  1  0  0  0  0  0999 V2000
   24.6020  -18.8678  -16.6763 N   0  0  0  0  0  0  0  0  0  0  0  0
   23.5888  -18.6508  -15.6627 C   0  0  1  0  0  0  0  0  0  0  0  0
   22.2785  -18.4641  -16.4026 C   0  0  0  0  0  0  0  0  0  0  0  0
   22.4200  -17.2482  -17.2657 C   0  0  0  0  0  0  0  0  0  0  0  0
   22.5940  -17.3638  -18.6264 C   0  0  0  0  0  0  0  0  0  0  0  0
   22.7272  -16.2604  -19.4354 C   0  0  0  0  0  0  0  0  0  0  0  0
   22.6861  -15.0018  -18.8734 C   0  0  0  0  0  0  0  0  0  0  0  0
   22.5155  -14.8494  -17.5311 C   0  0  0  0  0  0  0  0  0  0  0  0
   22.3834  -15.9677  -16.7353 C   0  0  0  0  0  0  0  0  0  0  0  0
   23.5386  -19.8290  -14.7642 C   0  0  0  0  0  0  0  0  0  0  0  0
   24.3447  -20.7600  -14.9583 O   0  0  0  0  0  0  0  0  0  0  0  0
   22.5908  -19.8693  -13.7224 N   0  0  0  0  0  0  0  0  0  0  0  0
   22.6473  -20.6383  -12.5067 C   0  0  1  0  0  0  0  0  0  0  0  0
   24.0132  -20.5982  -11.8921 C   0  0  0  0  0  0  0  0  0  0  0  0
   24.7283  -21.8729  -11.9561 C   0  0  0  0  0  0  0  0  0  0  0  0
   24.1828  -22.8855  -12.4475 O   0  0  0  0  0  0  0  0  0  0  0  0
   21.5176  -20.5147  -11.5958 C   0  0  0  0  0  0  0  0  0  0  0  0
   21.2748  -19.4598  -10.9795 O   0  0  0  0  0  0  0  0  0  0  0  0
   26.0196  -21.9851  -11.4730 O   0  0  0  0  0  0  0  0  0  0  0  0
   20.6394  -21.6173  -11.3774 N   0  0  0  0  0  0  0  0  0  0  0  0
   20.0752  -22.3889  -12.4610 C   0  0  0  0  0  0  0  0  0  0  0  0
   18.8069  -21.7891  -12.9623 C   0  0  0  0  0  0  0  0  0  0  0  0
   18.8270  -20.5853  -13.3114 O   0  0  0  0  0  0  0  0  0  0  0  0
   17.6419  -22.4980  -13.0520 O   0  0  0  0  0  0  0  0  0  0  0  0
  2  1  1  6
  2 10  1  0
  3  2  1  0
  4  3  1  0
  5  4  2  0
  6  5  1  0
  7  6  2  0
  7  8  1  0
  8  9  2  0
  9  4  1  0
 10 11  2  0
 10 12  1  0
 12 13  1  0
 13 17  1  0
 14 15  1  0
 13 14  1  1
 15 16  2  0
 17 18  2  0
 17 20  1  0
 19 15  1  0
 20 21  1  0
 21 22  1  0
 22 24  1  0
 23 22  2  0
M  END
$$$$
