FDG.pdb
     RDKit          3D

 24 24  0  0  1  0  0  0  0  0999 V2000
   26.7334  -20.4011  -11.1241 N   0  0  0  0  0  0  0  0  0  0  0  0
   25.6400  -20.8795  -10.3014 C   0  0  1  0  0  0  0  0  0  0  0  0
   25.5855  -19.9669   -9.0917 C   0  0  0  0  0  0  0  0  0  0  0  0
   26.9127  -20.0551   -8.4030 C   0  0  0  0  0  0  0  0  0  0  0  0
   27.1868  -19.2847   -7.2957 C   0  0  0  0  0  0  0  0  0  0  0  0
   28.3990  -19.3500   -6.6505 C   0  0  0  0  0  0  0  0  0  0  0  0
   29.3696  -20.2088   -7.1217 C   0  0  0  0  0  0  0  0  0  0  0  0
   29.1335  -20.9858   -8.2147 C   0  0  0  0  0  0  0  0  0  0  0  0
   27.9116  -20.9071   -8.8488 C   0  0  0  0  0  0  0  0  0  0  0  0
   24.3807  -20.8182  -11.0814 C   0  0  0  0  0  0  0  0  0  0  0  0
   23.2998  -20.7626  -10.4627 O   0  0  0  0  0  0  0  0  0  0  0  0
   24.4337  -20.8241  -12.4894 N   0  0  0  0  0  0  0  0  0  0  0  0
   23.3308  -20.8028  -13.4145 C   0  0  1  0  0  0  0  0  0  0  0  0
   23.8009  -20.6533  -14.8292 C   0  0  0  0  0  0  0  0  0  0  0  0
   24.3458  -19.3305  -15.1349 C   0  0  0  0  0  0  0  0  0  0  0  0
   25.4866  -19.2111  -15.6339 O   0  0  0  0  0  0  0  0  0  0  0  0
   22.2564  -21.7579  -13.1809 C   0  0  0  0  0  0  0  0  0  0  0  0
   22.4253  -22.9869  -13.2937 O   0  0  0  0  0  0  0  0  0  0  0  0
   23.6130  -18.1861  -14.8768 O   0  0  0  0  0  0  0  0  0  0  0  0
   20.9549  -21.3074  -12.8097 N   0  0  0  0  0  0  0  0  0  0  0  0
   19.9003  -22.2140  -12.4176 C   0  0  0  0  0  0  0  0  0  0  0  0
   19.1478  -22.7268  -13.5967 C   0  0  0  0  0  0  0  0  0  0  0  0
   18.1413  -23.4425  -13.3822 O   0  0  0  0  0  0  0  0  0  0  0  0
   19.5141  -22.4463  -14.8831 O   0  0  0  0  0  0  0  0  0  0  0  0
  2  1  1  6
  2 10  1  0
  3  2  1  0
  4  3  1  0
  5  4  2  0
  6  5  1  0
  7  6  2  0
  7  8  1  0
  8  9  2  0
  9  4  1  0
 10 11  2  0
 10 12  1  0
 12 13  1  0
 13 17  1  0
 14 15  1  0
 13 14  1  6
 15 16  2  0
 17 18  2  0
 17 20  1  0
 19 15  1  0
 20 21  1  0
 21 22  1  0
 22 24  1  0
 23 22  2  0
M  END
$$$$
