FDG.pdb
     RDKit          3D

 24 24  0  0  1  0  0  0  0  0999 V2000
   28.6890  -20.9649   -8.8376 N   0  0  0  0  0  0  0  0  0  0  0  0
   27.2612  -20.7562   -8.7001 C   0  0  1  0  0  0  0  0  0  0  0  0
   27.0920  -19.4877   -7.8867 C   0  0  0  0  0  0  0  0  0  0  0  0
   27.7254  -19.7240   -6.5501 C   0  0  0  0  0  0  0  0  0  0  0  0
   27.1517  -20.5803   -5.6378 C   0  0  0  0  0  0  0  0  0  0  0  0
   27.7166  -20.8095   -4.4056 C   0  0  0  0  0  0  0  0  0  0  0  0
   28.8894  -20.1665   -4.0700 C   0  0  0  0  0  0  0  0  0  0  0  0
   29.4849  -19.3123   -4.9476 C   0  0  0  0  0  0  0  0  0  0  0  0
   28.9040  -19.0950   -6.1790 C   0  0  0  0  0  0  0  0  0  0  0  0
   26.6572  -20.6186  -10.0471 C   0  0  0  0  0  0  0  0  0  0  0  0
   27.1841  -19.8315  -10.8578 O   0  0  0  0  0  0  0  0  0  0  0  0
   25.5135  -21.3725  -10.3767 N   0  0  0  0  0  0  0  0  0  0  0  0
   24.7225  -21.2975  -11.5773 C   0  0  1  0  0  0  0  0  0  0  0  0
   24.9050  -22.5128  -12.4344 C   0  0  0  0  0  0  0  0  0  0  0  0
   24.2512  -22.4195  -13.7399 C   0  0  0  0  0  0  0  0  0  0  0  0
   23.3957  -23.2639  -14.0857 O   0  0  0  0  0  0  0  0  0  0  0  0
   23.3629  -20.7935  -11.4401 C   0  0  0  0  0  0  0  0  0  0  0  0
   22.6180  -21.1411  -10.5041 O   0  0  0  0  0  0  0  0  0  0  0  0
   24.5668  -21.3988  -14.6183 O   0  0  0  0  0  0  0  0  0  0  0  0
   22.8333  -19.8706  -12.3900 N   0  0  0  0  0  0  0  0  0  0  0  0
   21.4979  -19.3284  -12.2869 C   0  0  0  0  0  0  0  0  0  0  0  0
   20.4698  -20.3059  -12.7419 C   0  0  0  0  0  0  0  0  0  0  0  0
   20.8496  -21.4677  -13.0197 O   0  0  0  0  0  0  0  0  0  0  0  0
   19.1479  -19.9811  -12.8642 O   0  0  0  0  0  0  0  0  0  0  0  0
  2  1  1  6
  2 10  1  0
  3  2  1  0
  4  3  1  0
  5  4  2  0
  6  5  1  0
  7  6  2  0
  7  8  1  0
  8  9  2  0
  9  4  1  0
 10 11  2  0
 10 12  1  0
 12 13  1  0
 13 17  1  0
 14 15  1  0
 13 14  1  1
 15 16  2  0
 17 18  2  0
 17 20  1  0
 19 15  1  0
 20 21  1  0
 21 22  1  0
 22 24  1  0
 23 22  2  0
M  END
$$$$
