FDG.pdb
     RDKit          3D

 24 24  0  0  1  0  0  0  0  0999 V2000
   24.5850  -11.5431  -17.8130 N   0  0  0  0  0  0  0  0  0  0  0  0
   24.6706  -10.1709  -17.3540 C   0  0  1  0  0  0  0  0  0  0  0  0
   25.3910   -9.4008  -18.4436 C   0  0  0  0  0  0  0  0  0  0  0  0
   26.8406   -9.7706  -18.3709 C   0  0  0  0  0  0  0  0  0  0  0  0
   27.4188  -10.5573  -19.3413 C   0  0  0  0  0  0  0  0  0  0  0  0
   28.7469  -10.9088  -19.2919 C   0  0  0  0  0  0  0  0  0  0  0  0
   29.5249  -10.4639  -18.2439 C   0  0  0  0  0  0  0  0  0  0  0  0
   28.9866   -9.6841  -17.2659 C   0  0  0  0  0  0  0  0  0  0  0  0
   27.6526   -9.3413  -17.3322 C   0  0  0  0  0  0  0  0  0  0  0  0
   23.3020   -9.6443  -17.1350 C   0  0  0  0  0  0  0  0  0  0  0  0
   22.3652  -10.1274  -17.8007 O   0  0  0  0  0  0  0  0  0  0  0  0
   23.0937   -8.6206  -16.1896 N   0  0  0  0  0  0  0  0  0  0  0  0
   21.8595   -7.9519  -15.8699 C   0  0  1  0  0  0  0  0  0  0  0  0
   21.5545   -8.0287  -14.4050 C   0  0  0  0  0  0  0  0  0  0  0  0
   21.5943   -9.3869  -13.8628 C   0  0  0  0  0  0  0  0  0  0  0  0
   20.9160  -10.3004  -14.3823 O   0  0  0  0  0  0  0  0  0  0  0  0
   21.6154   -6.6724  -16.5215 C   0  0  0  0  0  0  0  0  0  0  0  0
   22.4700   -5.7665  -16.5452 O   0  0  0  0  0  0  0  0  0  0  0  0
   22.3798   -9.6880  -12.7648 O   0  0  0  0  0  0  0  0  0  0  0  0
   20.3683   -6.4129  -17.1633 N   0  0  0  0  0  0  0  0  0  0  0  0
   20.0806   -5.1622  -17.8272 C   0  0  0  0  0  0  0  0  0  0  0  0
   19.8122   -4.0692  -16.8511 C   0  0  0  0  0  0  0  0  0  0  0  0
   19.4592   -2.9546  -17.3033 O   0  0  0  0  0  0  0  0  0  0  0  0
   19.9369   -4.2404  -15.5009 O   0  0  0  0  0  0  0  0  0  0  0  0
  2  1  1  6
  2 10  1  0
  3  2  1  0
  4  3  1  0
  5  4  2  0
  6  5  1  0
  7  6  2  0
  7  8  1  0
  8  9  2  0
  9  4  1  0
 10 11  2  0
 10 12  1  0
 12 13  1  0
 13 17  1  0
 14 15  1  0
 13 14  1  1
 15 16  2  0
 17 18  2  0
 17 20  1  0
 19 15  1  0
 20 21  1  0
 21 22  1  0
 22 24  1  0
 23 22  2  0
M  END
$$$$
