FDG.pdb
     RDKit          3D

 24 24  0  0  1  0  0  0  0  0999 V2000
   17.9879  -10.3757  -15.0239 N   0  0  0  0  0  0  0  0  0  0  0  0
   18.2293   -9.1555  -15.7680 C   0  0  1  0  0  0  0  0  0  0  0  0
   16.8683   -8.6380  -16.1915 C   0  0  0  0  0  0  0  0  0  0  0  0
   16.3423   -9.5670  -17.2421 C   0  0  0  0  0  0  0  0  0  0  0  0
   15.3865  -10.5097  -16.9375 C   0  0  0  0  0  0  0  0  0  0  0  0
   14.8921  -11.3721  -17.8869 C   0  0  0  0  0  0  0  0  0  0  0  0
   15.3632  -11.2948  -19.1806 C   0  0  0  0  0  0  0  0  0  0  0  0
   16.3087  -10.3748  -19.5181 C   0  0  0  0  0  0  0  0  0  0  0  0
   16.7928   -9.5177  -18.5525 C   0  0  0  0  0  0  0  0  0  0  0  0
   18.9290   -8.1829  -14.8947 C   0  0  0  0  0  0  0  0  0  0  0  0
   18.5540   -8.0688  -13.7112 O   0  0  0  0  0  0  0  0  0  0  0  0
   19.9907   -7.4177  -15.4168 N   0  0  0  0  0  0  0  0  0  0  0  0
   20.8074   -6.4540  -14.7263 C   0  0  1  0  0  0  0  0  0  0  0  0
   22.1946   -6.9711  -14.4962 C   0  0  0  0  0  0  0  0  0  0  0  0
   22.2391   -8.2521  -13.7910 C   0  0  0  0  0  0  0  0  0  0  0  0
   22.5099   -9.3080  -14.4045 O   0  0  0  0  0  0  0  0  0  0  0  0
   20.6901   -5.0658  -15.1512 C   0  0  0  0  0  0  0  0  0  0  0  0
   21.5273   -4.5288  -15.9012 O   0  0  0  0  0  0  0  0  0  0  0  0
   21.9806   -8.3225  -12.4340 O   0  0  0  0  0  0  0  0  0  0  0  0
   19.5941   -4.2647  -14.7138 N   0  0  0  0  0  0  0  0  0  0  0  0
   19.4164   -2.8936  -15.1337 C   0  0  0  0  0  0  0  0  0  0  0  0
   18.2378   -2.2639  -14.4748 C   0  0  0  0  0  0  0  0  0  0  0  0
   18.0554   -1.0364  -14.6515 O   0  0  0  0  0  0  0  0  0  0  0  0
   17.3641   -2.9705  -13.6968 O   0  0  0  0  0  0  0  0  0  0  0  0
  2  1  1  1
  2 10  1  0
  3  2  1  0
  4  3  1  0
  5  4  2  0
  6  5  1  0
  7  6  2  0
  7  8  1  0
  8  9  2  0
  9  4  1  0
 10 11  2  0
 10 12  1  0
 12 13  1  0
 13 17  1  0
 14 15  1  0
 13 14  1  6
 15 16  2  0
 17 18  2  0
 17 20  1  0
 19 15  1  0
 20 21  1  0
 21 22  1  0
 22 24  1  0
 23 22  2  0
M  END
$$$$
