FDG.pdb
     RDKit          3D

 24 24  0  0  1  0  0  0  0  0999 V2000
   23.0161  -12.0986  -15.7873 N   0  0  0  0  0  0  0  0  0  0  0  0
   23.2871  -10.6911  -15.5715 C   0  0  1  0  0  0  0  0  0  0  0  0
   24.3979  -10.3182  -16.5341 C   0  0  0  0  0  0  0  0  0  0  0  0
   25.5983  -11.1382  -16.1731 C   0  0  0  0  0  0  0  0  0  0  0  0
   26.5388  -10.6623  -15.2877 C   0  0  0  0  0  0  0  0  0  0  0  0
   27.6478  -11.3986  -14.9447 C   0  0  0  0  0  0  0  0  0  0  0  0
   27.8273  -12.6481  -15.4999 C   0  0  0  0  0  0  0  0  0  0  0  0
   26.9175  -13.1507  -16.3795 C   0  0  0  0  0  0  0  0  0  0  0  0
   25.8110  -12.3980  -16.7116 C   0  0  0  0  0  0  0  0  0  0  0  0
   22.0551   -9.9112  -15.8402 C   0  0  0  0  0  0  0  0  0  0  0  0
   21.1232  -10.4645  -16.4563 O   0  0  0  0  0  0  0  0  0  0  0  0
   21.9667   -8.5764  -15.3979 N   0  0  0  0  0  0  0  0  0  0  0  0
   20.8249   -7.7014  -15.4545 C   0  0  1  0  0  0  0  0  0  0  0  0
   19.5702   -8.4046  -15.0348 C   0  0  0  0  0  0  0  0  0  0  0  0
   18.3750   -7.5626  -15.0855 C   0  0  0  0  0  0  0  0  0  0  0  0
   17.9643   -7.1042  -16.1745 O   0  0  0  0  0  0  0  0  0  0  0  0
   21.0097   -6.3442  -14.9592 C   0  0  0  0  0  0  0  0  0  0  0  0
   21.2972   -6.1053  -13.7709 O   0  0  0  0  0  0  0  0  0  0  0  0
   17.6766   -7.2545  -13.9320 O   0  0  0  0  0  0  0  0  0  0  0  0
   20.8642   -5.2276  -15.8347 N   0  0  0  0  0  0  0  0  0  0  0  0
   21.0148   -3.8624  -15.3860 C   0  0  0  0  0  0  0  0  0  0  0  0
   22.4420   -3.4351  -15.3912 C   0  0  0  0  0  0  0  0  0  0  0  0
   22.6931   -2.2313  -15.1477 O   0  0  0  0  0  0  0  0  0  0  0  0
   23.4688   -4.2994  -15.6489 O   0  0  0  0  0  0  0  0  0  0  0  0
  2  1  1  6
  2 10  1  0
  3  2  1  0
  4  3  1  0
  5  4  2  0
  6  5  1  0
  7  6  2  0
  7  8  1  0
  8  9  2  0
  9  4  1  0
 10 11  2  0
 10 12  1  0
 12 13  1  0
 13 17  1  0
 14 15  1  0
 13 14  1  1
 15 16  2  0
 17 18  2  0
 17 20  1  0
 19 15  1  0
 20 21  1  0
 21 22  1  0
 22 24  1  0
 23 22  2  0
M  END
$$$$
