FDG.pdb
     RDKit          3D

 24 24  0  0  1  0  0  0  0  0999 V2000
   28.5322  -21.3437   -8.5831 N   0  0  0  0  0  0  0  0  0  0  0  0
   27.2242  -20.7210   -8.6324 C   0  0  1  0  0  0  0  0  0  0  0  0
   27.3929  -19.3285   -8.0564 C   0  0  0  0  0  0  0  0  0  0  0  0
   27.7897  -19.4822   -6.6202 C   0  0  0  0  0  0  0  0  0  0  0  0
   29.0695  -19.1904   -6.2057 C   0  0  0  0  0  0  0  0  0  0  0  0
   29.4537  -19.3262   -4.8928 C   0  0  0  0  0  0  0  0  0  0  0  0
   28.5360  -19.7664   -3.9624 C   0  0  0  0  0  0  0  0  0  0  0  0
   27.2611  -20.0646   -4.3366 C   0  0  0  0  0  0  0  0  0  0  0  0
   26.8936  -19.9220   -5.6580 C   0  0  0  0  0  0  0  0  0  0  0  0
   26.7615  -20.6708  -10.0401 C   0  0  0  0  0  0  0  0  0  0  0  0
   27.6130  -20.5464  -10.9421 O   0  0  0  0  0  0  0  0  0  0  0  0
   25.3845  -20.7637  -10.3232 N   0  0  0  0  0  0  0  0  0  0  0  0
   24.7531  -20.8616  -11.6133 C   0  0  1  0  0  0  0  0  0  0  0  0
   25.4797  -21.8155  -12.5117 C   0  0  0  0  0  0  0  0  0  0  0  0
   25.8453  -21.2451  -13.8083 C   0  0  0  0  0  0  0  0  0  0  0  0
   26.7103  -20.3450  -13.8873 O   0  0  0  0  0  0  0  0  0  0  0  0
   23.2982  -20.9272  -11.6315 C   0  0  0  0  0  0  0  0  0  0  0  0
   22.6531  -21.5812  -10.7901 O   0  0  0  0  0  0  0  0  0  0  0  0
   25.2412  -21.6868  -14.9716 O   0  0  0  0  0  0  0  0  0  0  0  0
   22.5544  -20.2327  -12.6310 N   0  0  0  0  0  0  0  0  0  0  0  0
   21.1895  -19.8041  -12.4277 C   0  0  0  0  0  0  0  0  0  0  0  0
   20.2186  -20.8894  -12.7422 C   0  0  0  0  0  0  0  0  0  0  0  0
   20.6653  -21.9450  -13.2495 O   0  0  0  0  0  0  0  0  0  0  0  0
   18.8787  -20.7721  -12.4995 O   0  0  0  0  0  0  0  0  0  0  0  0
  2  1  1  6
  2 10  1  0
  3  2  1  0
  4  3  1  0
  5  4  2  0
  6  5  1  0
  7  6  2  0
  7  8  1  0
  8  9  2  0
  9  4  1  0
 10 11  2  0
 10 12  1  0
 12 13  1  0
 13 17  1  0
 14 15  1  0
 13 14  1  1
 15 16  2  0
 17 18  2  0
 17 20  1  0
 19 15  1  0
 20 21  1  0
 21 22  1  0
 22 24  1  0
 23 22  2  0
M  END
$$$$
