FDG.pdb
     RDKit          3D

 24 24  0  0  1  0  0  0  0  0999 V2000
   26.5314  -21.6703   -8.5135 N   0  0  0  0  0  0  0  0  0  0  0  0
   26.7670  -20.2691   -8.8001 C   0  0  1  0  0  0  0  0  0  0  0  0
   28.2182  -20.0007   -8.4516 C   0  0  0  0  0  0  0  0  0  0  0  0
   28.3070  -19.8814   -6.9612 C   0  0  0  0  0  0  0  0  0  0  0  0
   29.0842  -20.7494   -6.2279 C   0  0  0  0  0  0  0  0  0  0  0  0
   29.1778  -20.6574   -4.8595 C   0  0  0  0  0  0  0  0  0  0  0  0
   28.4761  -19.6709   -4.1992 C   0  0  0  0  0  0  0  0  0  0  0  0
   27.6972  -18.7949   -4.8921 C   0  0  0  0  0  0  0  0  0  0  0  0
   27.6157  -18.9022   -6.2644 C   0  0  0  0  0  0  0  0  0  0  0  0
   26.5004  -20.0141  -10.2360 C   0  0  0  0  0  0  0  0  0  0  0  0
   27.2606  -19.2437  -10.8546 O   0  0  0  0  0  0  0  0  0  0  0  0
   25.4052  -20.6416  -10.8621 N   0  0  0  0  0  0  0  0  0  0  0  0
   25.0637  -20.6326  -12.2606 C   0  0  1  0  0  0  0  0  0  0  0  0
   26.0910  -21.3485  -13.0835 C   0  0  0  0  0  0  0  0  0  0  0  0
   27.3390  -20.6037  -13.2507 C   0  0  0  0  0  0  0  0  0  0  0  0
   27.3270  -19.3584  -13.3675 O   0  0  0  0  0  0  0  0  0  0  0  0
   23.6687  -20.8779  -12.5998 C   0  0  0  0  0  0  0  0  0  0  0  0
   23.1987  -20.5964  -13.7186 O   0  0  0  0  0  0  0  0  0  0  0  0
   28.5559  -21.2602  -13.2853 O   0  0  0  0  0  0  0  0  0  0  0  0
   22.7823  -21.4578  -11.6446 N   0  0  0  0  0  0  0  0  0  0  0  0
   21.4237  -20.9998  -11.4656 C   0  0  0  0  0  0  0  0  0  0  0  0
   20.4994  -21.6153  -12.4589 C   0  0  0  0  0  0  0  0  0  0  0  0
   19.2724  -21.3914  -12.3333 O   0  0  0  0  0  0  0  0  0  0  0  0
   20.9397  -22.4032  -13.4851 O   0  0  0  0  0  0  0  0  0  0  0  0
  2  1  1  6
  2 10  1  0
  3  2  1  0
  4  3  1  0
  5  4  2  0
  6  5  1  0
  7  6  2  0
  7  8  1  0
  8  9  2  0
  9  4  1  0
 10 11  2  0
 10 12  1  0
 12 13  1  0
 13 17  1  0
 14 15  1  0
 13 14  1  6
 15 16  2  0
 17 18  2  0
 17 20  1  0
 19 15  1  0
 20 21  1  0
 21 22  1  0
 22 24  1  0
 23 22  2  0
M  END
$$$$
