FDG.pdb
     RDKit          3D

 24 24  0  0  1  0  0  0  0  0999 V2000
   15.9740  -14.3807    6.8470 N   0  0  0  0  0  0  0  0  0  0  0  0
   16.6882  -15.4085    6.1159 C   0  0  1  0  0  0  0  0  0  0  0  0
   18.1619  -15.0732    6.2386 C   0  0  0  0  0  0  0  0  0  0  0  0
   18.5223  -14.2025    5.0743 C   0  0  0  0  0  0  0  0  0  0  0  0
   18.5109  -14.6990    3.7904 C   0  0  0  0  0  0  0  0  0  0  0  0
   18.8397  -13.9167    2.7089 C   0  0  0  0  0  0  0  0  0  0  0  0
   19.1910  -12.5986    2.9105 C   0  0  0  0  0  0  0  0  0  0  0  0
   19.2134  -12.0736    4.1668 C   0  0  0  0  0  0  0  0  0  0  0  0
   18.8803  -12.8733    5.2395 C   0  0  0  0  0  0  0  0  0  0  0  0
   16.3838  -16.7312    6.7126 C   0  0  0  0  0  0  0  0  0  0  0  0
   16.2242  -16.8045    7.9469 O   0  0  0  0  0  0  0  0  0  0  0  0
   16.2831  -17.8633    5.8799 N   0  0  0  0  0  0  0  0  0  0  0  0
   16.1311  -19.2392    6.2750 C   0  0  1  0  0  0  0  0  0  0  0  0
   15.1946  -19.9738    5.3650 C   0  0  0  0  0  0  0  0  0  0  0  0
   15.7901  -20.3521    4.0834 C   0  0  0  0  0  0  0  0  0  0  0  0
   16.8490  -19.8151    3.6898 O   0  0  0  0  0  0  0  0  0  0  0  0
   17.3390  -19.9464    6.6778 C   0  0  0  0  0  0  0  0  0  0  0  0
   18.4449  -19.7244    6.1491 O   0  0  0  0  0  0  0  0  0  0  0  0
   15.1944  -21.3080    3.2806 O   0  0  0  0  0  0  0  0  0  0  0  0
   17.2918  -20.9322    7.7075 N   0  0  0  0  0  0  0  0  0  0  0  0
   18.4670  -21.6395    8.1618 C   0  0  0  0  0  0  0  0  0  0  0  0
   18.7210  -22.8635    7.3515 C   0  0  0  0  0  0  0  0  0  0  0  0
   17.9210  -23.1268    6.4230 O   0  0  0  0  0  0  0  0  0  0  0  0
   19.7808  -23.6944    7.5846 O   0  0  0  0  0  0  0  0  0  0  0  0
  2  1  1  1
  2 10  1  0
  3  2  1  0
  4  3  1  0
  5  4  2  0
  6  5  1  0
  7  6  2  0
  7  8  1  0
  8  9  2  0
  9  4  1  0
 10 11  2  0
 10 12  1  0
 12 13  1  0
 13 17  1  0
 14 15  1  0
 13 14  1  6
 15 16  2  0
 17 18  2  0
 17 20  1  0
 19 15  1  0
 20 21  1  0
 21 22  1  0
 22 24  1  0
 23 22  2  0
M  END
$$$$
