FDG.pdb
     RDKit          3D

 24 24  0  0  1  0  0  0  0  0999 V2000
   22.4296  -34.5646  -12.0394 N   0  0  0  0  0  0  0  0  0  0  0  0
   23.4828  -34.3747  -11.0617 C   0  0  1  0  0  0  0  0  0  0  0  0
   23.9793  -32.9531  -11.2405 C   0  0  0  0  0  0  0  0  0  0  0  0
   24.6493  -32.8768  -12.5780 C   0  0  0  0  0  0  0  0  0  0  0  0
   23.9566  -32.4612  -13.6926 C   0  0  0  0  0  0  0  0  0  0  0  0
   24.5529  -32.3856  -14.9289 C   0  0  0  0  0  0  0  0  0  0  0  0
   25.8804  -32.7347  -15.0611 C   0  0  0  0  0  0  0  0  0  0  0  0
   26.5967  -33.1505  -13.9802 C   0  0  0  0  0  0  0  0  0  0  0  0
   25.9819  -33.2197  -12.7479 C   0  0  0  0  0  0  0  0  0  0  0  0
   22.9297  -34.5867   -9.7026 C   0  0  0  0  0  0  0  0  0  0  0  0
   21.6934  -34.5381   -9.5492 O   0  0  0  0  0  0  0  0  0  0  0  0
   23.8047  -34.8354   -8.6267 N   0  0  0  0  0  0  0  0  0  0  0  0
   23.4625  -35.1999   -7.2766 C   0  0  1  0  0  0  0  0  0  0  0  0
   23.5173  -36.6836   -7.0755 C   0  0  0  0  0  0  0  0  0  0  0  0
   22.5574  -37.1830   -6.0909 C   0  0  0  0  0  0  0  0  0  0  0  0
   21.7334  -36.4093   -5.5552 O   0  0  0  0  0  0  0  0  0  0  0  0
   24.0164  -34.3757   -6.2111 C   0  0  0  0  0  0  0  0  0  0  0  0
   23.6937  -34.5293   -5.0178 O   0  0  0  0  0  0  0  0  0  0  0  0
   22.5426  -38.5184   -5.7308 O   0  0  0  0  0  0  0  0  0  0  0  0
   24.9616  -33.3492   -6.5067 N   0  0  0  0  0  0  0  0  0  0  0  0
   25.4955  -32.4681   -5.4935 C   0  0  0  0  0  0  0  0  0  0  0  0
   26.6312  -33.0951   -4.7610 C   0  0  0  0  0  0  0  0  0  0  0  0
   27.2851  -32.3760   -3.9694 O   0  0  0  0  0  0  0  0  0  0  0  0
   26.9771  -34.4075   -4.9224 O   0  0  0  0  0  0  0  0  0  0  0  0
  2  1  1  6
  2 10  1  0
  3  2  1  0
  4  3  1  0
  5  4  2  0
  6  5  1  0
  7  6  2  0
  7  8  1  0
  8  9  2  0
  9  4  1  0
 10 11  2  0
 10 12  1  0
 12 13  1  0
 13 17  1  0
 14 15  1  0
 13 14  1  1
 15 16  2  0
 17 18  2  0
 17 20  1  0
 19 15  1  0
 20 21  1  0
 21 22  1  0
 22 24  1  0
 23 22  2  0
M  END
$$$$
