FDG.pdb
     RDKit          3D

 24 24  0  0  1  0  0  0  0  0999 V2000
   22.7871  -14.9430  -18.3443 N   0  0  0  0  0  0  0  0  0  0  0  0
   21.4863  -15.0984  -18.9647 C   0  0  1  0  0  0  0  0  0  0  0  0
   21.6215  -16.2344  -19.9600 C   0  0  0  0  0  0  0  0  0  0  0  0
   22.4049  -15.7173  -21.1272 C   0  0  0  0  0  0  0  0  0  0  0  0
   21.7883  -15.0108  -22.1349 C   0  0  0  0  0  0  0  0  0  0  0  0
   22.4893  -14.5291  -23.2149 C   0  0  0  0  0  0  0  0  0  0  0  0
   23.8469  -14.7574  -23.2954 C   0  0  0  0  0  0  0  0  0  0  0  0
   24.4901  -15.4526  -22.3170 C   0  0  0  0  0  0  0  0  0  0  0  0
   23.7706  -15.9279  -21.2410 C   0  0  0  0  0  0  0  0  0  0  0  0
   20.4828  -15.4126  -17.9195 C   0  0  0  0  0  0  0  0  0  0  0  0
   20.8853  -15.6928  -16.7734 O   0  0  0  0  0  0  0  0  0  0  0  0
   19.1115  -15.3878  -18.2422 N   0  0  0  0  0  0  0  0  0  0  0  0
   17.9957  -15.6679  -17.3767 C   0  0  1  0  0  0  0  0  0  0  0  0
   16.8589  -14.7226  -17.6195 C   0  0  0  0  0  0  0  0  0  0  0  0
   15.7411  -14.8907  -16.6908 C   0  0  0  0  0  0  0  0  0  0  0  0
   14.5905  -15.1354  -17.1162 O   0  0  0  0  0  0  0  0  0  0  0  0
   17.6493  -17.0690  -17.1808 C   0  0  0  0  0  0  0  0  0  0  0  0
   16.6770  -17.4210  -16.4863 O   0  0  0  0  0  0  0  0  0  0  0  0
   15.9325  -14.7804  -15.3253 O   0  0  0  0  0  0  0  0  0  0  0  0
   18.4266  -18.0990  -17.7886 N   0  0  0  0  0  0  0  0  0  0  0  0
   18.1065  -19.5009  -17.6478 C   0  0  0  0  0  0  0  0  0  0  0  0
   18.7211  -20.0861  -16.4233 C   0  0  0  0  0  0  0  0  0  0  0  0
   19.3446  -19.3153  -15.6561 O   0  0  0  0  0  0  0  0  0  0  0  0
   18.6284  -21.4144  -16.1153 O   0  0  0  0  0  0  0  0  0  0  0  0
  2  1  1  1
  2 10  1  0
  3  2  1  0
  4  3  1  0
  5  4  2  0
  6  5  1  0
  7  6  2  0
  7  8  1  0
  8  9  2  0
  9  4  1  0
 10 11  2  0
 10 12  1  0
 12 13  1  0
 13 17  1  0
 14 15  1  0
 13 14  1  6
 15 16  2  0
 17 18  2  0
 17 20  1  0
 19 15  1  0
 20 21  1  0
 21 22  1  0
 22 24  1  0
 23 22  2  0
M  END
$$$$
