FDG.pdb
     RDKit          3D

 24 24  0  0  1  0  0  0  0  0999 V2000
   27.9693  -20.3768   -9.3482 N   0  0  0  0  0  0  0  0  0  0  0  0
   26.5511  -20.6509   -9.2275 C   0  0  1  0  0  0  0  0  0  0  0  0
   26.0260  -19.7166   -8.1548 C   0  0  0  0  0  0  0  0  0  0  0  0
   26.8907  -19.8923   -6.9444 C   0  0  0  0  0  0  0  0  0  0  0  0
   27.6388  -18.8466   -6.4528 C   0  0  0  0  0  0  0  0  0  0  0  0
   28.4395  -18.9878   -5.3442 C   0  0  0  0  0  0  0  0  0  0  0  0
   28.4982  -20.2080   -4.7043 C   0  0  0  0  0  0  0  0  0  0  0  0
   27.7718  -21.2646   -5.1629 C   0  0  0  0  0  0  0  0  0  0  0  0
   26.9740  -21.1041   -6.2760 C   0  0  0  0  0  0  0  0  0  0  0  0
   25.8937  -20.3989  -10.5323 C   0  0  0  0  0  0  0  0  0  0  0  0
   25.8775  -19.2337  -10.9751 O   0  0  0  0  0  0  0  0  0  0  0  0
   25.3082  -21.4710  -11.2345 N   0  0  0  0  0  0  0  0  0  0  0  0
   24.5511  -21.4165  -12.4578 C   0  0  1  0  0  0  0  0  0  0  0  0
   25.2147  -22.1959  -13.5519 C   0  0  0  0  0  0  0  0  0  0  0  0
   26.4494  -21.5871  -14.0469 C   0  0  0  0  0  0  0  0  0  0  0  0
   26.4923  -20.3680  -14.3235 O   0  0  0  0  0  0  0  0  0  0  0  0
   23.1053  -21.5514  -12.3444 C   0  0  0  0  0  0  0  0  0  0  0  0
   22.5657  -22.6064  -11.9603 O   0  0  0  0  0  0  0  0  0  0  0  0
   27.5925  -22.3462  -14.2213 O   0  0  0  0  0  0  0  0  0  0  0  0
   22.2480  -20.4607  -12.6759 N   0  0  0  0  0  0  0  0  0  0  0  0
   20.9669  -20.6455  -13.3180 C   0  0  0  0  0  0  0  0  0  0  0  0
   19.9567  -21.2104  -12.3799 C   0  0  0  0  0  0  0  0  0  0  0  0
   19.2722  -20.4066  -11.7040 O   0  0  0  0  0  0  0  0  0  0  0  0
   19.7564  -22.5545  -12.2351 O   0  0  0  0  0  0  0  0  0  0  0  0
  2  1  1  6
  2 10  1  0
  3  2  1  0
  4  3  1  0
  5  4  2  0
  6  5  1  0
  7  6  2  0
  7  8  1  0
  8  9  2  0
  9  4  1  0
 10 11  2  0
 10 12  1  0
 12 13  1  0
 13 17  1  0
 14 15  1  0
 13 14  1  6
 15 16  2  0
 17 18  2  0
 17 20  1  0
 19 15  1  0
 20 21  1  0
 21 22  1  0
 22 24  1  0
 23 22  2  0
M  END
$$$$
