EIL.pdb
     RDKit          3D

 26 25  0  0  1  0  0  0  0  0999 V2000
   20.3547  -28.8932  -11.3490 N   0  0  0  0  0  0  0  0  0  0  0  0
   19.0545  -28.4980  -10.8918 C   0  0  1  0  0  0  0  0  0  0  0  0
   18.2230  -29.6652  -10.5103 C   0  0  0  0  0  0  0  0  0  0  0  0
   17.7706  -30.5462  -11.6068 C   0  0  0  0  0  0  0  0  0  0  0  0
   16.4369  -30.3706  -12.1572 C   0  0  0  0  0  0  0  0  0  0  0  0
   15.8631  -30.9885  -13.0588 O   0  0  0  0  0  0  0  0  0  0  0  0
   19.1613  -27.5578   -9.7258 C   0  0  0  0  0  0  0  0  0  0  0  0
   20.1884  -27.6964   -8.9888 O   0  0  0  0  0  0  0  0  0  0  0  0
   15.6594  -29.3302  -11.5784 O   0  0  0  0  0  0  0  0  0  0  0  0
   18.5847  -22.5358  -10.7764 C   0  0  0  0  0  0  0  0  0  0  0  0
   18.9940  -23.9188  -10.2368 C   0  0  0  0  0  0  0  0  0  0  0  0
   18.2014  -24.2713   -9.0272 C   0  0  2  0  0  0  0  0  0  0  0  0
   18.1605  -23.1523   -8.0029 C   0  0  0  0  0  0  0  0  0  0  0  0
   18.4533  -25.5976   -8.4138 C   0  0  2  0  0  0  0  0  0  0  0  0
   18.1740  -26.5821   -9.4745 N   0  0  0  0  0  0  0  0  0  0  0  0
   17.7051  -25.9155   -7.1910 C   0  0  0  0  0  0  0  0  0  0  0  0
   16.5213  -26.3622   -7.3511 O   0  0  0  0  0  0  0  0  0  0  0  0
   18.5399  -27.4749   -1.3022 C   0  0  0  0  0  0  0  0  0  0  0  0
   17.6293  -26.9724   -2.3533 C   0  0  1  0  0  0  0  0  0  0  0  0
   16.7166  -25.9136   -1.7202 C   0  0  0  0  0  0  0  0  0  0  0  0
   18.1889  -26.5718   -3.6258 C   0  0  0  0  0  0  0  0  0  0  0  0
   17.3302  -26.1362   -4.7334 C   0  0  2  0  0  0  0  0  0  0  0  0
   18.1687  -25.7777   -5.8946 N   0  0  0  0  0  0  0  0  0  0  0  0
   16.4934  -24.9782   -4.4792 C   0  0  0  0  0  0  0  0  0  0  0  0
   16.8982  -23.8051   -4.5733 O   0  0  0  0  0  0  0  0  0  0  0  0
   15.1620  -25.1329   -4.1092 O   0  0  0  0  0  0  0  0  0  0  0  0
  2  1  1  1
  3  2  1  0
  4  3  1  0
  5  4  1  0
  6  5  2  0
  7  2  1  0
  7  8  2  0
  9  5  1  0
 11 10  1  0
 12 13  1  1
 12 14  1  0
 12 11  1  0
 14 15  1  6
 15  7  1  0
 16 14  1  0
 17 16  2  0
 19 18  1  1
 19 21  1  0
 20 19  1  0
 22 21  1  1
 22 24  1  0
 22 23  1  0
 23 16  1  0
 24 26  1  0
 25 24  2  0
M  END
$$$$
