EIL.pdb
     RDKit          3D

 26 25  0  0  1  0  0  0  0  0999 V2000
   19.4609  -23.7948   -8.6448 N   0  0  0  0  0  0  0  0  0  0  0  0
   20.0562  -22.8054   -7.7951 C   0  0  1  0  0  0  0  0  0  0  0  0
   19.8719  -23.1253   -6.3587 C   0  0  0  0  0  0  0  0  0  0  0  0
   18.5093  -22.9636   -5.8110 C   0  0  0  0  0  0  0  0  0  0  0  0
   17.3975  -23.6427   -6.4553 C   0  0  0  0  0  0  0  0  0  0  0  0
   16.4432  -23.1794   -7.0867 O   0  0  0  0  0  0  0  0  0  0  0  0
   21.5212  -22.6590   -8.0907 C   0  0  0  0  0  0  0  0  0  0  0  0
   22.2422  -23.6809   -7.8604 O   0  0  0  0  0  0  0  0  0  0  0  0
   17.3934  -25.0609   -6.3518 O   0  0  0  0  0  0  0  0  0  0  0  0
   25.2511  -22.4534  -11.5544 C   0  0  0  0  0  0  0  0  0  0  0  0
   24.7417  -21.0493  -11.1796 C   0  0  0  0  0  0  0  0  0  0  0  0
   23.4335  -21.1312  -10.4741 C   0  0  2  0  0  0  0  0  0  0  0  0
   22.5233  -19.9567  -10.7823 C   0  0  0  0  0  0  0  0  0  0  0  0
   23.4613  -21.4682   -9.0303 C   0  0  2  0  0  0  0  0  0  0  0  0
   22.0533  -21.4538   -8.5948 N   0  0  0  0  0  0  0  0  0  0  0  0
   24.2877  -20.6158   -8.1662 C   0  0  0  0  0  0  0  0  0  0  0  0
   23.8050  -19.4735   -7.8686 O   0  0  0  0  0  0  0  0  0  0  0  0
   27.8824  -18.9462   -4.3495 C   0  0  0  0  0  0  0  0  0  0  0  0
   28.3695  -19.8502   -5.4134 C   0  0  1  0  0  0  0  0  0  0  0  0
   29.4942  -20.7111   -4.8229 C   0  0  0  0  0  0  0  0  0  0  0  0
   27.4035  -20.6037   -6.1829 C   0  0  0  0  0  0  0  0  0  0  0  0
   26.3808  -19.9306   -6.9921 C   0  0  2  0  0  0  0  0  0  0  0  0
   25.5292  -20.9419   -7.6495 N   0  0  0  0  0  0  0  0  0  0  0  0
   26.8672  -19.0729   -8.0568 C   0  0  0  0  0  0  0  0  0  0  0  0
   27.2554  -19.5006   -9.1592 O   0  0  0  0  0  0  0  0  0  0  0  0
   26.9215  -17.6939   -7.8875 O   0  0  0  0  0  0  0  0  0  0  0  0
  2  1  1  6
  3  2  1  0
  4  3  1  0
  5  4  1  0
  6  5  2  0
  7  2  1  0
  7  8  2  0
  9  5  1  0
 11 10  1  0
 12 13  1  1
 12 14  1  0
 12 11  1  0
 14 15  1  1
 15  7  1  0
 16 14  1  0
 17 16  2  0
 19 18  1  1
 19 21  1  0
 20 19  1  0
 22 21  1  6
 22 24  1  0
 22 23  1  0
 23 16  1  0
 24 26  1  0
 25 24  2  0
M  END
$$$$
