EIL.pdb
     RDKit          3D

 26 25  0  0  1  0  0  0  0  0999 V2000
   21.9416  -15.2744  -17.5616 N   0  0  0  0  0  0  0  0  0  0  0  0
   21.9919  -13.9527  -18.1146 C   0  0  1  0  0  0  0  0  0  0  0  0
   20.6881  -13.5431  -18.6907 C   0  0  0  0  0  0  0  0  0  0  0  0
   20.1732  -14.3536  -19.8135 C   0  0  0  0  0  0  0  0  0  0  0  0
   18.8963  -14.0072  -20.4151 C   0  0  0  0  0  0  0  0  0  0  0  0
   18.6506  -13.3733  -21.4455 O   0  0  0  0  0  0  0  0  0  0  0  0
   22.4149  -12.9546  -17.0754 C   0  0  0  0  0  0  0  0  0  0  0  0
   21.8563  -13.0620  -15.9380 O   0  0  0  0  0  0  0  0  0  0  0  0
   17.7408  -14.4614  -19.7218 O   0  0  0  0  0  0  0  0  0  0  0  0
   27.3517  -12.0811  -15.8743 C   0  0  0  0  0  0  0  0  0  0  0  0
   25.8219  -12.2575  -15.8959 C   0  0  0  0  0  0  0  0  0  0  0  0
   25.1429  -10.9606  -16.1655 C   0  0  2  0  0  0  0  0  0  0  0  0
   25.6345   -9.8403  -15.2676 C   0  0  0  0  0  0  0  0  0  0  0  0
   23.6658  -10.9822  -16.2945 C   0  0  2  0  0  0  0  0  0  0  0  0
   23.3770  -11.9621  -17.3568 N   0  0  0  0  0  0  0  0  0  0  0  0
   23.0053   -9.6997  -16.5683 C   0  0  0  0  0  0  0  0  0  0  0  0
   23.2215   -9.1844  -17.7146 O   0  0  0  0  0  0  0  0  0  0  0  0
   18.0208   -6.8525  -16.9295 C   0  0  0  0  0  0  0  0  0  0  0  0
   19.4302   -7.0122  -17.3474 C   0  0  1  0  0  0  0  0  0  0  0  0
   20.0917   -5.6280  -17.3153 C   0  0  0  0  0  0  0  0  0  0  0  0
   20.2257   -8.0512  -16.7304 C   0  0  0  0  0  0  0  0  0  0  0  0
   21.5174   -7.7510  -16.1018 C   0  0  2  0  0  0  0  0  0  0  0  0
   22.1748   -9.0110  -15.7018 N   0  0  0  0  0  0  0  0  0  0  0  0
   21.4733   -6.9323  -14.9044 C   0  0  0  0  0  0  0  0  0  0  0  0
   21.3477   -7.3998  -13.7579 O   0  0  0  0  0  0  0  0  0  0  0  0
   21.5734   -5.5480  -14.9878 O   0  0  0  0  0  0  0  0  0  0  0  0
  2  1  1  1
  3  2  1  0
  4  3  1  0
  5  4  1  0
  6  5  2  0
  7  2  1  0
  7  8  2  0
  9  5  1  0
 11 10  1  0
 12 13  1  1
 12 14  1  0
 12 11  1  0
 14 15  1  6
 15  7  1  0
 16 14  1  0
 17 16  2  0
 19 18  1  1
 19 21  1  0
 20 19  1  0
 22 21  1  1
 22 24  1  0
 22 23  1  0
 23 16  1  0
 24 26  1  0
 25 24  2  0
M  END
$$$$
