EIL.pdb
     RDKit          3D

 26 25  0  0  1  0  0  0  0  0999 V2000
   26.6590  -25.6093  -16.3984 N   0  0  0  0  0  0  0  0  0  0  0  0
   26.3166  -24.2989  -16.8686 C   0  0  1  0  0  0  0  0  0  0  0  0
   24.9036  -24.2210  -17.3120 C   0  0  0  0  0  0  0  0  0  0  0  0
   24.0314  -25.3594  -16.9568 C   0  0  0  0  0  0  0  0  0  0  0  0
   22.9543  -25.1604  -16.0015 C   0  0  0  0  0  0  0  0  0  0  0  0
   22.8938  -25.4485  -14.8026 O   0  0  0  0  0  0  0  0  0  0  0  0
   26.5644  -23.2681  -15.8050 C   0  0  0  0  0  0  0  0  0  0  0  0
   27.1846  -23.6710  -14.7705 O   0  0  0  0  0  0  0  0  0  0  0  0
   21.7813  -24.5384  -16.5105 O   0  0  0  0  0  0  0  0  0  0  0  0
   27.4768  -17.3139  -15.6927 C   0  0  0  0  0  0  0  0  0  0  0  0
   27.2905  -18.5643  -14.8133 C   0  0  0  0  0  0  0  0  0  0  0  0
   26.6800  -19.6749  -15.5940 C   0  0  2  0  0  0  0  0  0  0  0  0
   25.4346  -19.2489  -16.3494 C   0  0  0  0  0  0  0  0  0  0  0  0
   26.5118  -20.9766  -14.9042 C   0  0  2  0  0  0  0  0  0  0  0  0
   26.1303  -21.9346  -15.9574 N   0  0  0  0  0  0  0  0  0  0  0  0
   25.5599  -21.0169  -13.7869 C   0  0  0  0  0  0  0  0  0  0  0  0
   24.4852  -21.6755  -13.9815 O   0  0  0  0  0  0  0  0  0  0  0  0
   26.4847  -20.0324   -8.1440 C   0  0  0  0  0  0  0  0  0  0  0  0
   25.7916  -20.6871   -9.2743 C   0  0  1  0  0  0  0  0  0  0  0  0
   24.8612  -21.7628   -8.6980 C   0  0  0  0  0  0  0  0  0  0  0  0
   25.1676  -19.8580  -10.2824 C   0  0  0  0  0  0  0  0  0  0  0  0
   24.6593  -20.4316  -11.5340 C   0  0  2  0  0  0  0  0  0  0  0  0
   25.7271  -20.4122  -12.5536 N   0  0  0  0  0  0  0  0  0  0  0  0
   23.5267  -19.7537  -12.1368 C   0  0  0  0  0  0  0  0  0  0  0  0
   23.6400  -18.8150  -12.9460 O   0  0  0  0  0  0  0  0  0  0  0  0
   22.2256  -20.1355  -11.8286 O   0  0  0  0  0  0  0  0  0  0  0  0
  2  1  1  1
  3  2  1  0
  4  3  1  0
  5  4  1  0
  6  5  2  0
  7  2  1  0
  7  8  2  0
  9  5  1  0
 11 10  1  0
 12 13  1  1
 12 14  1  0
 12 11  1  0
 14 15  1  6
 15  7  1  0
 16 14  1  0
 17 16  2  0
 19 18  1  1
 19 21  1  0
 20 19  1  0
 22 21  1  1
 22 24  1  0
 22 23  1  0
 23 16  1  0
 24 26  1  0
 25 24  2  0
M  END
$$$$
