EIL.pdb
     RDKit          3D

 26 25  0  0  1  0  0  0  0  0999 V2000
   18.7841  -13.0446  -17.9349 N   0  0  0  0  0  0  0  0  0  0  0  0
   19.0686  -11.6846  -18.2885 C   0  0  1  0  0  0  0  0  0  0  0  0
   17.9192  -11.0360  -18.9649 C   0  0  0  0  0  0  0  0  0  0  0  0
   17.5026  -11.6068  -20.2624 C   0  0  0  0  0  0  0  0  0  0  0  0
   16.4431  -10.9595  -21.0179 C   0  0  0  0  0  0  0  0  0  0  0  0
   15.7757   -9.9565  -20.7489 O   0  0  0  0  0  0  0  0  0  0  0  0
   19.4505  -10.8860  -17.0755 C   0  0  0  0  0  0  0  0  0  0  0  0
   18.7089  -11.0341  -16.0531 O   0  0  0  0  0  0  0  0  0  0  0  0
   16.1118  -11.5624  -22.2624 O   0  0  0  0  0  0  0  0  0  0  0  0
   23.8326  -10.0123  -13.5204 C   0  0  0  0  0  0  0  0  0  0  0  0
   22.5101   -9.3480  -13.9464 C   0  0  0  0  0  0  0  0  0  0  0  0
   22.0520   -9.8750  -15.2609 C   0  0  2  0  0  0  0  0  0  0  0  0
   23.1817  -10.0198  -16.2638 C   0  0  0  0  0  0  0  0  0  0  0  0
   20.8390   -9.2607  -15.8525 C   0  0  2  0  0  0  0  0  0  0  0  0
   20.5690  -10.0265  -17.0826 N   0  0  0  0  0  0  0  0  0  0  0  0
   20.8939   -7.8201  -16.1314 C   0  0  0  0  0  0  0  0  0  0  0  0
   21.6154   -7.4614  -17.1199 O   0  0  0  0  0  0  0  0  0  0  0  0
   16.8710   -4.5468  -17.2217 C   0  0  0  0  0  0  0  0  0  0  0  0
   18.2254   -5.1319  -17.1225 C   0  0  1  0  0  0  0  0  0  0  0  0
   18.9399   -4.8973  -18.4601 C   0  0  0  0  0  0  0  0  0  0  0  0
   19.0368   -4.8170  -15.9669 C   0  0  0  0  0  0  0  0  0  0  0  0
   20.3698   -5.4042  -15.7879 C   0  0  2  0  0  0  0  0  0  0  0  0
   20.2352   -6.8291  -15.4251 N   0  0  0  0  0  0  0  0  0  0  0  0
   21.1985   -4.8112  -14.7548 C   0  0  0  0  0  0  0  0  0  0  0  0
   21.3690   -5.3237  -13.6336 O   0  0  0  0  0  0  0  0  0  0  0  0
   21.8596   -3.6087  -14.9793 O   0  0  0  0  0  0  0  0  0  0  0  0
  2  1  1  1
  3  2  1  0
  4  3  1  0
  5  4  1  0
  6  5  2  0
  7  2  1  0
  7  8  2  0
  9  5  1  0
 11 10  1  0
 12 13  1  6
 12 14  1  0
 12 11  1  0
 14 15  1  6
 15  7  1  0
 16 14  1  0
 17 16  2  0
 19 18  1  6
 19 21  1  0
 20 19  1  0
 22 21  1  1
 22 24  1  0
 22 23  1  0
 23 16  1  0
 24 26  1  0
 25 24  2  0
M  END
$$$$
