EIL.pdb
     RDKit          3D

 26 25  0  0  1  0  0  0  0  0999 V2000
   22.7037  -21.8743  -17.1409 N   0  0  0  0  0  0  0  0  0  0  0  0
   22.9771  -21.0045  -16.0345 C   0  0  1  0  0  0  0  0  0  0  0  0
   21.9727  -21.1509  -14.9532 C   0  0  0  0  0  0  0  0  0  0  0  0
   20.5764  -20.8062  -15.2915 C   0  0  0  0  0  0  0  0  0  0  0  0
   20.1575  -19.4150  -15.2553 C   0  0  0  0  0  0  0  0  0  0  0  0
   20.0986  -18.6286  -14.3056 O   0  0  0  0  0  0  0  0  0  0  0  0
   24.3492  -21.2603  -15.4803 C   0  0  0  0  0  0  0  0  0  0  0  0
   24.7312  -22.4732  -15.4727 O   0  0  0  0  0  0  0  0  0  0  0  0
   19.7493  -18.8580  -16.4984 O   0  0  0  0  0  0  0  0  0  0  0  0
   28.4398  -17.8339  -16.2849 C   0  0  0  0  0  0  0  0  0  0  0  0
   27.5572  -19.0878  -16.1427 C   0  0  0  0  0  0  0  0  0  0  0  0
   27.3624  -19.4388  -14.7094 C   0  0  2  0  0  0  0  0  0  0  0  0
   28.6674  -19.5123  -13.9382 C   0  0  0  0  0  0  0  0  0  0  0  0
   26.4554  -20.5719  -14.4056 C   0  0  2  0  0  0  0  0  0  0  0  0
   25.1569  -20.2080  -15.0005 N   0  0  0  0  0  0  0  0  0  0  0  0
   26.3020  -20.9379  -12.9919 C   0  0  0  0  0  0  0  0  0  0  0  0
   27.1187  -21.8068  -12.5397 O   0  0  0  0  0  0  0  0  0  0  0  0
   26.6331  -21.3412   -7.8396 C   0  0  0  0  0  0  0  0  0  0  0  0
   26.1222  -20.0879   -8.4350 C   0  0  1  0  0  0  0  0  0  0  0  0
   26.8077  -18.9137   -7.7235 C   0  0  0  0  0  0  0  0  0  0  0  0
   26.0986  -19.9608   -9.8760 C   0  0  0  0  0  0  0  0  0  0  0  0
   25.2971  -20.8654  -10.7084 C   0  0  2  0  0  0  0  0  0  0  0  0
   25.3612  -20.4251  -12.1163 N   0  0  0  0  0  0  0  0  0  0  0  0
   23.8848  -20.9510  -10.3864 C   0  0  0  0  0  0  0  0  0  0  0  0
   23.4553  -21.2629   -9.2607 O   0  0  0  0  0  0  0  0  0  0  0  0
   22.9199  -20.6791  -11.3500 O   0  0  0  0  0  0  0  0  0  0  0  0
  2  1  1  6
  3  2  1  0
  4  3  1  0
  5  4  1  0
  6  5  2  0
  7  2  1  0
  7  8  2  0
  9  5  1  0
 11 10  1  0
 12 13  1  6
 12 14  1  0
 12 11  1  0
 14 15  1  1
 15  7  1  0
 16 14  1  0
 17 16  2  0
 19 18  1  6
 19 21  1  0
 20 19  1  0
 22 21  1  1
 22 24  1  0
 22 23  1  0
 23 16  1  0
 24 26  1  0
 25 24  2  0
M  END
$$$$
