EIL.pdb
     RDKit          3D

 26 25  0  0  1  0  0  0  0  0999 V2000
   24.4493  -17.0060  -17.0111 N   0  0  0  0  0  0  0  0  0  0  0  0
   25.1050  -16.8511  -15.7456 C   0  0  1  0  0  0  0  0  0  0  0  0
   24.6207  -15.6559  -15.0132 C   0  0  0  0  0  0  0  0  0  0  0  0
   24.6543  -14.3709  -15.7416 C   0  0  0  0  0  0  0  0  0  0  0  0
   23.4253  -13.6125  -15.9050 C   0  0  0  0  0  0  0  0  0  0  0  0
   22.6746  -13.1254  -15.0546 O   0  0  0  0  0  0  0  0  0  0  0  0
   24.9139  -18.0718  -14.8921 C   0  0  0  0  0  0  0  0  0  0  0  0
   23.7154  -18.4729  -14.7515 O   0  0  0  0  0  0  0  0  0  0  0  0
   23.0091  -13.3879  -17.2460 O   0  0  0  0  0  0  0  0  0  0  0  0
   26.6280  -21.0146  -16.9131 C   0  0  0  0  0  0  0  0  0  0  0  0
   25.6014  -21.2186  -15.7834 C   0  0  0  0  0  0  0  0  0  0  0  0
   26.2435  -21.0627  -14.4496 C   0  0  2  0  0  0  0  0  0  0  0  0
   26.4096  -22.3818  -13.7179 C   0  0  0  0  0  0  0  0  0  0  0  0
   25.7301  -19.9837  -13.5716 C   0  0  2  0  0  0  0  0  0  0  0  0
   26.0081  -18.7262  -14.2883 N   0  0  0  0  0  0  0  0  0  0  0  0
   26.2576  -19.9359  -12.2020 C   0  0  0  0  0  0  0  0  0  0  0  0
   27.5256  -19.8660  -12.0853 O   0  0  0  0  0  0  0  0  0  0  0  0
   28.5161  -20.3022   -7.5407 C   0  0  0  0  0  0  0  0  0  0  0  0
   27.2476  -19.5627   -7.7153 C   0  0  1  0  0  0  0  0  0  0  0  0
   27.3433  -18.2635   -6.9044 C   0  0  0  0  0  0  0  0  0  0  0  0
   26.7290  -19.3764   -9.0530 C   0  0  0  0  0  0  0  0  0  0  0  0
   26.0622  -20.4685   -9.7715 C   0  0  2  0  0  0  0  0  0  0  0  0
   25.5066  -19.9562  -11.0399 N   0  0  0  0  0  0  0  0  0  0  0  0
   24.9539  -21.1056   -9.0849 C   0  0  0  0  0  0  0  0  0  0  0  0
   23.7660  -20.9777   -9.4333 O   0  0  0  0  0  0  0  0  0  0  0  0
   25.1771  -21.9124   -7.9745 O   0  0  0  0  0  0  0  0  0  0  0  0
  2  1  1  6
  3  2  1  0
  4  3  1  0
  5  4  1  0
  6  5  2  0
  7  2  1  0
  7  8  2  0
  9  5  1  0
 11 10  1  0
 12 13  1  1
 12 14  1  0
 12 11  1  0
 14 15  1  6
 15  7  1  0
 16 14  1  0
 17 16  2  0
 19 18  1  6
 19 21  1  0
 20 19  1  0
 22 21  1  1
 22 24  1  0
 22 23  1  0
 23 16  1  0
 24 26  1  0
 25 24  2  0
M  END
$$$$
