EIL.pdb
     RDKit          3D

 26 25  0  0  1  0  0  0  0  0999 V2000
   23.6628  -20.6501  -16.1134 N   0  0  0  0  0  0  0  0  0  0  0  0
   23.5568  -20.2155  -14.7513 C   0  0  1  0  0  0  0  0  0  0  0  0
   22.1900  -20.4138  -14.2112 C   0  0  0  0  0  0  0  0  0  0  0  0
   21.4927  -19.2121  -13.7087 C   0  0  0  0  0  0  0  0  0  0  0  0
   20.1572  -19.3448  -13.1508 C   0  0  0  0  0  0  0  0  0  0  0  0
   19.0629  -19.4090  -13.7186 O   0  0  0  0  0  0  0  0  0  0  0  0
   24.5472  -20.9358  -13.8822 C   0  0  0  0  0  0  0  0  0  0  0  0
   24.4985  -22.2061  -13.9146 O   0  0  0  0  0  0  0  0  0  0  0  0
   20.0818  -19.4127  -11.7324 O   0  0  0  0  0  0  0  0  0  0  0  0
   30.2062  -21.1779  -12.9437 C   0  0  0  0  0  0  0  0  0  0  0  0
   28.8799  -21.5633  -12.2624 C   0  0  0  0  0  0  0  0  0  0  0  0
   27.7480  -20.7760  -12.8230 C   0  0  2  0  0  0  0  0  0  0  0  0
   28.0603  -19.2954  -12.9385 C   0  0  0  0  0  0  0  0  0  0  0  0
   26.3996  -21.0327  -12.2621 C   0  0  2  0  0  0  0  0  0  0  0  0
   25.4724  -20.2328  -13.0824 N   0  0  0  0  0  0  0  0  0  0  0  0
   26.2117  -20.7536  -10.8328 C   0  0  0  0  0  0  0  0  0  0  0  0
   25.7572  -19.5997  -10.5358 O   0  0  0  0  0  0  0  0  0  0  0  0
   27.7620  -20.6201   -5.6421 C   0  0  0  0  0  0  0  0  0  0  0  0
   27.3016  -19.6678   -6.6753 C   0  0  1  0  0  0  0  0  0  0  0  0
   28.1329  -18.3852   -6.5390 C   0  0  0  0  0  0  0  0  0  0  0  0
   27.1676  -20.1316   -8.0392 C   0  0  0  0  0  0  0  0  0  0  0  0
   26.2633  -21.2347   -8.3843 C   0  0  2  0  0  0  0  0  0  0  0  0
   26.4784  -21.6254   -9.7919 N   0  0  0  0  0  0  0  0  0  0  0  0
   24.8432  -20.9616   -8.2639 C   0  0  0  0  0  0  0  0  0  0  0  0
   24.1046  -21.5223   -7.4339 O   0  0  0  0  0  0  0  0  0  0  0  0
   24.2268  -20.0326   -9.0949 O   0  0  0  0  0  0  0  0  0  0  0  0
  2  1  1  6
  3  2  1  0
  4  3  1  0
  5  4  1  0
  6  5  2  0
  7  2  1  0
  7  8  2  0
  9  5  1  0
 11 10  1  0
 12 13  1  1
 12 14  1  0
 12 11  1  0
 14 15  1  6
 15  7  1  0
 16 14  1  0
 17 16  2  0
 19 18  1  1
 19 21  1  0
 20 19  1  0
 22 21  1  6
 22 24  1  0
 22 23  1  0
 23 16  1  0
 24 26  1  0
 25 24  2  0
M  END
$$$$
