EIL.pdb
     RDKit          3D

 26 25  0  0  1  0  0  0  0  0999 V2000
   28.1634  -22.0937  -16.6663 N   0  0  0  0  0  0  0  0  0  0  0  0
   27.5803  -20.9158  -16.0937 C   0  0  1  0  0  0  0  0  0  0  0  0
   26.8680  -20.1011  -17.1078 C   0  0  0  0  0  0  0  0  0  0  0  0
   27.1330  -20.4231  -18.5252 C   0  0  0  0  0  0  0  0  0  0  0  0
   28.2014  -19.7297  -19.2253 C   0  0  0  0  0  0  0  0  0  0  0  0
   29.2228  -20.1761  -19.7557 O   0  0  0  0  0  0  0  0  0  0  0  0
   26.6330  -21.2737  -14.9848 C   0  0  0  0  0  0  0  0  0  0  0  0
   26.0239  -22.3833  -15.1070 O   0  0  0  0  0  0  0  0  0  0  0  0
   28.0640  -18.3178  -19.3234 O   0  0  0  0  0  0  0  0  0  0  0  0
   25.4107  -22.0251   -9.8619 C   0  0  0  0  0  0  0  0  0  0  0  0
   25.3607  -20.5468  -10.2906 C   0  0  0  0  0  0  0  0  0  0  0  0
   26.1313  -20.3329  -11.5459 C   0  0  2  0  0  0  0  0  0  0  0  0
   26.5846  -18.8952  -11.7213 C   0  0  0  0  0  0  0  0  0  0  0  0
   25.5725  -20.9111  -12.7918 C   0  0  2  0  0  0  0  0  0  0  0  0
   26.4401  -20.4209  -13.8778 N   0  0  0  0  0  0  0  0  0  0  0  0
   24.1605  -20.6286  -13.0789 C   0  0  0  0  0  0  0  0  0  0  0  0
   23.9041  -19.4923  -13.5979 O   0  0  0  0  0  0  0  0  0  0  0  0
   19.5727  -20.8796  -15.5914 C   0  0  0  0  0  0  0  0  0  0  0  0
   19.8499  -22.0205  -14.6926 C   0  0  1  0  0  0  0  0  0  0  0  0
   19.3526  -23.2972  -15.3835 C   0  0  0  0  0  0  0  0  0  0  0  0
   21.1709  -22.1479  -14.1167 C   0  0  0  0  0  0  0  0  0  0  0  0
   21.7174  -21.1174  -13.2261 C   0  0  2  0  0  0  0  0  0  0  0  0
   23.0959  -21.4801  -12.8413 N   0  0  0  0  0  0  0  0  0  0  0  0
   21.0044  -20.9021  -11.9807 C   0  0  0  0  0  0  0  0  0  0  0  0
   21.0822  -21.6694  -11.0040 O   0  0  0  0  0  0  0  0  0  0  0  0
   20.1789  -19.7949  -11.8185 O   0  0  0  0  0  0  0  0  0  0  0  0
  2  1  1  6
  3  2  1  0
  4  3  1  0
  5  4  1  0
  6  5  2  0
  7  2  1  0
  7  8  2  0
  9  5  1  0
 11 10  1  0
 12 13  1  6
 12 14  1  0
 12 11  1  0
 14 15  1  6
 15  7  1  0
 16 14  1  0
 17 16  2  0
 19 18  1  6
 19 21  1  0
 20 19  1  0
 22 21  1  1
 22 24  1  0
 22 23  1  0
 23 16  1  0
 24 26  1  0
 25 24  2  0
M  END
$$$$
