EIL.pdb
     RDKit          3D

 26 25  0  0  1  0  0  0  0  0999 V2000
   27.3191  -22.2343  -16.5811 N   0  0  0  0  0  0  0  0  0  0  0  0
   26.5241  -21.1659  -16.0503 C   0  0  1  0  0  0  0  0  0  0  0  0
   25.5596  -20.6440  -17.0487 C   0  0  0  0  0  0  0  0  0  0  0  0
   26.1294  -20.0002  -18.2503 C   0  0  0  0  0  0  0  0  0  0  0  0
   26.9801  -18.8319  -18.0966 C   0  0  0  0  0  0  0  0  0  0  0  0
   26.6924  -17.6797  -17.7595 O   0  0  0  0  0  0  0  0  0  0  0  0
   25.7816  -21.6112  -14.8233 C   0  0  0  0  0  0  0  0  0  0  0  0
   25.2290  -22.7546  -14.8891 O   0  0  0  0  0  0  0  0  0  0  0  0
   28.3608  -19.0297  -18.3733 O   0  0  0  0  0  0  0  0  0  0  0  0
   27.8608  -20.6833  -10.0314 C   0  0  0  0  0  0  0  0  0  0  0  0
   27.1470  -21.3690  -11.2112 C   0  0  0  0  0  0  0  0  0  0  0  0
   25.7374  -20.9038  -11.3203 C   0  0  2  0  0  0  0  0  0  0  0  0
   24.9573  -21.0801  -10.0305 C   0  0  0  0  0  0  0  0  0  0  0  0
   24.9710  -21.3352  -12.5142 C   0  0  2  0  0  0  0  0  0  0  0  0
   25.7098  -20.7997  -13.6717 N   0  0  0  0  0  0  0  0  0  0  0  0
   23.5556  -20.9483  -12.5691 C   0  0  0  0  0  0  0  0  0  0  0  0
   23.3135  -19.7093  -12.7499 O   0  0  0  0  0  0  0  0  0  0  0  0
   18.5815  -21.0965  -14.6700 C   0  0  0  0  0  0  0  0  0  0  0  0
   18.9185  -22.1369  -13.6748 C   0  0  1  0  0  0  0  0  0  0  0  0
   18.1740  -23.4210  -14.0639 C   0  0  0  0  0  0  0  0  0  0  0  0
   20.3084  -22.3509  -13.3350 C   0  0  0  0  0  0  0  0  0  0  0  0
   21.0892  -21.3245  -12.6347 C   0  0  2  0  0  0  0  0  0  0  0  0
   22.4736  -21.8021  -12.4467 N   0  0  0  0  0  0  0  0  0  0  0  0
   20.6187  -20.9507  -11.3138 C   0  0  0  0  0  0  0  0  0  0  0  0
   20.9522  -21.5456  -10.2728 O   0  0  0  0  0  0  0  0  0  0  0  0
   19.7492  -19.8783  -11.1479 O   0  0  0  0  0  0  0  0  0  0  0  0
  2  1  1  6
  3  2  1  0
  4  3  1  0
  5  4  1  0
  6  5  2  0
  7  2  1  0
  7  8  2  0
  9  5  1  0
 11 10  1  0
 12 13  1  1
 12 14  1  0
 12 11  1  0
 14 15  1  6
 15  7  1  0
 16 14  1  0
 17 16  2  0
 19 18  1  6
 19 21  1  0
 20 19  1  0
 22 21  1  1
 22 24  1  0
 22 23  1  0
 23 16  1  0
 24 26  1  0
 25 24  2  0
M  END
$$$$
