EIL.pdb
     RDKit          3D

 26 25  0  0  1  0  0  0  0  0999 V2000
   21.3384  -10.8147  -18.0041 N   0  0  0  0  0  0  0  0  0  0  0  0
   21.8850   -9.4895  -17.9808 C   0  0  1  0  0  0  0  0  0  0  0  0
   21.6150   -8.7565  -19.2414 C   0  0  0  0  0  0  0  0  0  0  0  0
   22.3682   -9.1890  -20.4366 C   0  0  0  0  0  0  0  0  0  0  0  0
   22.5037  -10.6084  -20.7179 C   0  0  0  0  0  0  0  0  0  0  0  0
   23.4088  -11.3934  -20.4203 O   0  0  0  0  0  0  0  0  0  0  0  0
   21.3397   -8.7071  -16.8208 C   0  0  0  0  0  0  0  0  0  0  0  0
   20.0768   -8.7340  -16.6735 O   0  0  0  0  0  0  0  0  0  0  0  0
   21.4368  -11.2002  -21.4484 O   0  0  0  0  0  0  0  0  0  0  0  0
   22.9421  -10.0089  -12.3389 C   0  0  0  0  0  0  0  0  0  0  0  0
   22.1285   -9.4821  -13.5356 C   0  0  0  0  0  0  0  0  0  0  0  0
   22.1812   -7.9959  -13.5989 C   0  0  2  0  0  0  0  0  0  0  0  0
   21.7762   -7.3359  -12.2937 C   0  0  0  0  0  0  0  0  0  0  0  0
   21.5680   -7.3450  -14.7818 C   0  0  2  0  0  0  0  0  0  0  0  0
   22.1891   -7.9897  -15.9527 N   0  0  0  0  0  0  0  0  0  0  0  0
   21.6786   -5.8833  -14.8661 C   0  0  0  0  0  0  0  0  0  0  0  0
   22.8461   -5.3935  -14.7130 O   0  0  0  0  0  0  0  0  0  0  0  0
   21.0321   -0.8059  -16.7054 C   0  0  0  0  0  0  0  0  0  0  0  0
   19.8381   -1.4559  -16.1237 C   0  0  1  0  0  0  0  0  0  0  0  0
   18.6056   -0.9425  -16.8801 C   0  0  0  0  0  0  0  0  0  0  0  0
   19.8488   -2.8903  -15.9352 C   0  0  0  0  0  0  0  0  0  0  0  0
   20.8475   -3.5394  -15.0778 C   0  0  2  0  0  0  0  0  0  0  0  0
   20.6383   -5.0009  -15.0982 N   0  0  0  0  0  0  0  0  0  0  0  0
   20.8351   -3.1592  -13.6774 C   0  0  0  0  0  0  0  0  0  0  0  0
   19.9680   -3.5410  -12.8704 O   0  0  0  0  0  0  0  0  0  0  0  0
   21.8217   -2.3273  -13.1598 O   0  0  0  0  0  0  0  0  0  0  0  0
  2  1  1  6
  3  2  1  0
  4  3  1  0
  5  4  1  0
  6  5  2  0
  7  2  1  0
  7  8  2  0
  9  5  1  0
 11 10  1  0
 12 13  1  1
 12 14  1  0
 12 11  1  0
 14 15  1  6
 15  7  1  0
 16 14  1  0
 17 16  2  0
 19 18  1  6
 19 21  1  0
 20 19  1  0
 22 21  1  6
 22 24  1  0
 22 23  1  0
 23 16  1  0
 24 26  1  0
 25 24  2  0
M  END
$$$$
