EIL.pdb
     RDKit          3D

 26 25  0  0  1  0  0  0  0  0999 V2000
   18.6397  -12.4724  -16.2340 N   0  0  0  0  0  0  0  0  0  0  0  0
   19.0751  -11.2425  -16.8283 C   0  0  1  0  0  0  0  0  0  0  0  0
   17.9446  -10.4752  -17.4052 C   0  0  0  0  0  0  0  0  0  0  0  0
   17.2871  -11.0535  -18.5953 C   0  0  0  0  0  0  0  0  0  0  0  0
   17.9977  -11.0719  -19.8630 C   0  0  0  0  0  0  0  0  0  0  0  0
   19.1131  -10.6301  -20.1538 O   0  0  0  0  0  0  0  0  0  0  0  0
   19.7970  -10.3903  -15.8245 C   0  0  0  0  0  0  0  0  0  0  0  0
   19.2786  -10.3331  -14.6647 O   0  0  0  0  0  0  0  0  0  0  0  0
   17.3165  -11.6915  -20.9466 O   0  0  0  0  0  0  0  0  0  0  0  0
   25.2811  -10.0884  -15.6820 C   0  0  0  0  0  0  0  0  0  0  0  0
   23.8958   -9.5420  -16.0747 C   0  0  0  0  0  0  0  0  0  0  0  0
   22.9693   -9.5607  -14.9099 C   0  0  2  0  0  0  0  0  0  0  0  0
   22.8845  -10.9228  -14.2463 C   0  0  0  0  0  0  0  0  0  0  0  0
   21.6395   -8.9302  -15.0907 C   0  0  2  0  0  0  0  0  0  0  0  0
   20.9803   -9.6999  -16.1609 N   0  0  0  0  0  0  0  0  0  0  0  0
   21.6222   -7.4927  -15.3898 C   0  0  0  0  0  0  0  0  0  0  0  0
   21.7009   -7.1691  -16.6208 O   0  0  0  0  0  0  0  0  0  0  0  0
   20.4172   -2.6897  -16.6731 C   0  0  0  0  0  0  0  0  0  0  0  0
   19.8676   -3.2102  -15.4028 C   0  0  1  0  0  0  0  0  0  0  0  0
   18.3746   -2.8588  -15.3555 C   0  0  0  0  0  0  0  0  0  0  0  0
   20.1553   -4.5777  -15.0284 C   0  0  0  0  0  0  0  0  0  0  0  0
   21.5355   -5.0521  -14.8746 C   0  0  2  0  0  0  0  0  0  0  0  0
   21.5255   -6.4700  -14.4627 N   0  0  0  0  0  0  0  0  0  0  0  0
   22.3453   -4.3611  -13.8885 C   0  0  0  0  0  0  0  0  0  0  0  0
   22.4685   -4.7449  -12.7110 O   0  0  0  0  0  0  0  0  0  0  0  0
   23.0410   -3.2055  -14.2261 O   0  0  0  0  0  0  0  0  0  0  0  0
  2  1  1  1
  3  2  1  0
  4  3  1  0
  5  4  1  0
  6  5  2  0
  7  2  1  0
  7  8  2  0
  9  5  1  0
 11 10  1  0
 12 13  1  6
 12 14  1  0
 12 11  1  0
 14 15  1  6
 15  7  1  0
 16 14  1  0
 17 16  2  0
 19 18  1  6
 19 21  1  0
 20 19  1  0
 22 21  1  1
 22 24  1  0
 22 23  1  0
 23 16  1  0
 24 26  1  0
 25 24  2  0
M  END
$$$$
