TFS.pdb
     RDKit          3D

 25 25  0  0  1  0  0  0  0  0999 V2000
   29.2626  -18.5869  -14.3831 C   0  0  0  0  0  0  0  0  0  0  0  0
   28.1418  -19.2721  -13.6728 C   0  0  1  0  0  0  0  0  0  0  0  0
   27.2747  -19.7875  -14.6295 O   0  0  0  0  0  0  0  0  0  0  0  0
   28.5797  -20.3373  -12.7121 C   0  0  2  0  0  0  0  0  0  0  0  0
   29.2405  -21.4185  -13.3772 N   0  0  0  0  0  0  0  0  0  0  0  0
   27.4487  -20.7867  -11.8739 C   0  0  0  0  0  0  0  0  0  0  0  0
   26.9316  -21.9144  -12.1205 O   0  0  0  0  0  0  0  0  0  0  0  0
   26.9082  -20.0222  -10.8046 N   0  0  0  0  0  0  0  0  0  0  0  0
   25.6710  -20.3636  -10.1249 C   0  0  1  0  0  0  0  0  0  0  0  0
   25.5740  -19.5406   -8.8689 C   0  0  0  0  0  0  0  0  0  0  0  0
   26.5498  -19.9053   -7.8387 C   0  0  0  0  0  0  0  0  0  0  0  0
   27.0333  -21.1886   -7.6892 C   0  0  0  0  0  0  0  0  0  0  0  0
   27.9549  -21.5147   -6.7096 C   0  0  0  0  0  0  0  0  0  0  0  0
   28.4306  -20.5637   -5.8370 C   0  0  0  0  0  0  0  0  0  0  0  0
   27.9583  -19.2765   -5.9720 C   0  0  0  0  0  0  0  0  0  0  0  0
   27.0314  -18.9593   -6.9609 C   0  0  0  0  0  0  0  0  0  0  0  0
   24.5476  -20.2127  -11.0498 C   0  0  0  0  0  0  0  0  0  0  0  0
   24.4192  -19.1467  -11.7457 O   0  0  0  0  0  0  0  0  0  0  0  0
   22.5293  -23.2755  -12.6105 O   0  0  0  0  0  0  0  0  0  0  0  0
   22.6190  -22.0477  -13.2743 C   0  0  0  0  0  0  0  0  0  0  0  0
   22.4244  -20.9719  -12.1931 C   0  0  2  0  0  0  0  0  0  0  0  0
   23.5376  -21.1877  -11.2568 N   0  0  0  0  0  0  0  0  0  0  0  0
   21.1253  -21.1163  -11.5415 C   0  0  0  0  0  0  0  0  0  0  0  0
   21.0567  -21.4365  -10.2010 O   0  0  0  0  0  0  0  0  0  0  0  0
   20.0568  -20.9564  -12.1697 O   0  0  0  0  0  0  0  0  0  0  0  0
  2  1  1  6
  3  2  1  0
  4  5  1  6
  4  2  1  0
  4  6  1  0
  6  7  2  0
  8  6  1  0
  8  9  1  0
  9 17  1  0
 10 11  1  0
  9 10  1  1
 11 12  2  0
 11 16  1  0
 12 13  1  0
 13 14  2  0
 15 14  1  0
 16 15  2  0
 17 18  2  0
 19 20  1  0
 21 20  1  6
 21 23  1  0
 22 17  1  0
 22 21  1  0
 23 25  2  0
 23 24  1  0
M  END
$$$$
