TFS.pdb
     RDKit          3D

 25 25  0  0  1  0  0  0  0  0999 V2000
   19.8807   -6.9498  -18.2384 C   0  0  0  0  0  0  0  0  0  0  0  0
   19.6248   -6.2595  -16.9390 C   0  0  1  0  0  0  0  0  0  0  0  0
   18.2635   -5.9906  -16.8532 O   0  0  0  0  0  0  0  0  0  0  0  0
   20.1024   -7.0146  -15.7345 C   0  0  2  0  0  0  0  0  0  0  0  0
   19.7055   -6.3811  -14.5142 N   0  0  0  0  0  0  0  0  0  0  0  0
   21.5588   -7.2544  -15.8074 C   0  0  0  0  0  0  0  0  0  0  0  0
   22.3377   -6.2918  -15.5494 O   0  0  0  0  0  0  0  0  0  0  0  0
   22.1345   -8.5074  -16.1516 N   0  0  0  0  0  0  0  0  0  0  0  0
   23.5662   -8.7507  -16.1667 C   0  0  1  0  0  0  0  0  0  0  0  0
   23.8113  -10.1801  -15.7656 C   0  0  0  0  0  0  0  0  0  0  0  0
   25.1999  -10.6173  -15.9305 C   0  0  0  0  0  0  0  0  0  0  0  0
   25.6534  -11.2493  -17.0697 C   0  0  0  0  0  0  0  0  0  0  0  0
   26.9691  -11.6558  -17.2075 C   0  0  0  0  0  0  0  0  0  0  0  0
   27.8867  -11.4441  -16.2048 C   0  0  0  0  0  0  0  0  0  0  0  0
   27.4509  -10.8141  -15.0596 C   0  0  0  0  0  0  0  0  0  0  0  0
   26.1252  -10.4094  -14.9314 C   0  0  0  0  0  0  0  0  0  0  0  0
   24.1123   -8.3734  -17.4704 C   0  0  0  0  0  0  0  0  0  0  0  0
   23.5270   -8.7369  -18.5485 O   0  0  0  0  0  0  0  0  0  0  0  0
   25.0436   -5.0455  -18.8419 O   0  0  0  0  0  0  0  0  0  0  0  0
   26.2267   -5.7906  -18.8793 C   0  0  0  0  0  0  0  0  0  0  0  0
   25.7920   -7.2607  -18.9976 C   0  0  2  0  0  0  0  0  0  0  0  0
   25.2891   -7.6031  -17.6588 N   0  0  0  0  0  0  0  0  0  0  0  0
   26.9151   -8.1065  -19.3931 C   0  0  0  0  0  0  0  0  0  0  0  0
   27.1303   -8.3899  -20.7264 O   0  0  0  0  0  0  0  0  0  0  0  0
   27.6998   -8.5894  -18.5487 O   0  0  0  0  0  0  0  0  0  0  0  0
  2  1  1  6
  3  2  1  0
  4  5  1  1
  4  2  1  0
  4  6  1  0
  6  7  2  0
  8  6  1  0
  8  9  1  0
  9 17  1  0
 10 11  1  0
  9 10  1  6
 11 12  2  0
 11 16  1  0
 12 13  1  0
 13 14  2  0
 15 14  1  0
 16 15  2  0
 17 18  2  0
 19 20  1  0
 21 20  1  1
 21 23  1  0
 22 17  1  0
 22 21  1  0
 23 25  2  0
 23 24  1  0
M  END
$$$$
