TFS.pdb
     RDKit          3D

 25 25  0  0  1  0  0  0  0  0999 V2000
   21.6742   -9.3854  -21.3910 C   0  0  0  0  0  0  0  0  0  0  0  0
   21.2179  -10.7973  -21.2212 C   0  0  1  0  0  0  0  0  0  0  0  0
   21.5822  -11.5089  -22.3586 O   0  0  0  0  0  0  0  0  0  0  0  0
   21.7290  -11.4660  -19.9799 C   0  0  2  0  0  0  0  0  0  0  0  0
   21.3720  -12.8510  -19.9331 N   0  0  0  0  0  0  0  0  0  0  0  0
   21.3084  -10.7254  -18.7723 C   0  0  0  0  0  0  0  0  0  0  0  0
   20.1609  -10.9605  -18.2951 O   0  0  0  0  0  0  0  0  0  0  0  0
   22.1217   -9.7623  -18.1158 N   0  0  0  0  0  0  0  0  0  0  0  0
   21.6903   -9.0176  -16.9460 C   0  0  1  0  0  0  0  0  0  0  0  0
   22.8572   -8.8903  -16.0045 C   0  0  0  0  0  0  0  0  0  0  0  0
   22.5804   -8.0796  -14.8160 C   0  0  0  0  0  0  0  0  0  0  0  0
   22.7520   -6.7110  -14.7892 C   0  0  0  0  0  0  0  0  0  0  0  0
   22.4857   -5.9614  -13.6568 C   0  0  0  0  0  0  0  0  0  0  0  0
   22.0349   -6.5558  -12.5012 C   0  0  0  0  0  0  0  0  0  0  0  0
   21.8579   -7.9221  -12.5101 C   0  0  0  0  0  0  0  0  0  0  0  0
   22.1287   -8.6667  -13.6546 C   0  0  0  0  0  0  0  0  0  0  0  0
   21.0955   -7.7489  -17.3664 C   0  0  0  0  0  0  0  0  0  0  0  0
   21.7084   -6.9873  -18.1919 O   0  0  0  0  0  0  0  0  0  0  0  0
   17.5984   -7.2089  -18.4018 O   0  0  0  0  0  0  0  0  0  0  0  0
   17.7812   -6.1964  -17.4543 C   0  0  0  0  0  0  0  0  0  0  0  0
   19.2996   -5.9694  -17.3717 C   0  0  2  0  0  0  0  0  0  0  0  0
   19.8394   -7.2610  -16.9216 N   0  0  0  0  0  0  0  0  0  0  0  0
   19.6157   -4.8896  -16.4404 C   0  0  0  0  0  0  0  0  0  0  0  0
   20.2465   -5.1704  -15.2457 O   0  0  0  0  0  0  0  0  0  0  0  0
   19.3284   -3.7004  -16.6956 O   0  0  0  0  0  0  0  0  0  0  0  0
  2  1  1  6
  3  2  1  0
  4  5  1  1
  4  2  1  0
  4  6  1  0
  6  7  2  0
  8  6  1  0
  8  9  1  0
  9 17  1  0
 10 11  1  0
  9 10  1  1
 11 12  2  0
 11 16  1  0
 12 13  1  0
 13 14  2  0
 15 14  1  0
 16 15  2  0
 17 18  2  0
 19 20  1  0
 21 20  1  1
 21 23  1  0
 22 17  1  0
 22 21  1  0
 23 25  2  0
 23 24  1  0
M  END
$$$$
