TFS.pdb
     RDKit          3D

 25 25  0  0  1  0  0  0  0  0999 V2000
   22.0143  -22.0218  -13.9698 C   0  0  0  0  0  0  0  0  0  0  0  0
   21.2325  -20.9952  -13.2180 C   0  0  1  0  0  0  0  0  0  0  0  0
   19.8869  -21.3368  -13.2922 O   0  0  0  0  0  0  0  0  0  0  0  0
   21.6645  -20.8117  -11.7936 C   0  0  2  0  0  0  0  0  0  0  0  0
   20.8082  -19.9084  -11.0873 N   0  0  0  0  0  0  0  0  0  0  0  0
   23.0888  -20.4244  -11.7217 C   0  0  0  0  0  0  0  0  0  0  0  0
   23.3982  -19.2277  -11.9901 O   0  0  0  0  0  0  0  0  0  0  0  0
   24.1322  -21.3220  -11.3675 N   0  0  0  0  0  0  0  0  0  0  0  0
   25.5271  -20.9282  -11.2763 C   0  0  1  0  0  0  0  0  0  0  0  0
   26.2177  -21.8414  -10.2999 C   0  0  0  0  0  0  0  0  0  0  0  0
   26.9032  -21.1422   -9.2100 C   0  0  0  0  0  0  0  0  0  0  0  0
   28.2731  -21.1699   -9.0503 C   0  0  0  0  0  0  0  0  0  0  0  0
   28.9035  -20.5035   -8.0140 C   0  0  0  0  0  0  0  0  0  0  0  0
   28.1829  -19.7797   -7.0926 C   0  0  0  0  0  0  0  0  0  0  0  0
   26.8133  -19.7412   -7.2369 C   0  0  0  0  0  0  0  0  0  0  0  0
   26.1894  -20.4152   -8.2829 C   0  0  0  0  0  0  0  0  0  0  0  0
   26.1152  -20.8989  -12.6155 C   0  0  0  0  0  0  0  0  0  0  0  0
   25.9313  -21.8718  -13.4260 O   0  0  0  0  0  0  0  0  0  0  0  0
   28.7928  -18.5392  -15.8909 O   0  0  0  0  0  0  0  0  0  0  0  0
   28.1869  -18.5149  -14.6305 C   0  0  0  0  0  0  0  0  0  0  0  0
   27.4947  -19.8787  -14.4724 C   0  0  2  0  0  0  0  0  0  0  0  0
   26.9096  -19.8387  -13.1239 N   0  0  0  0  0  0  0  0  0  0  0  0
   28.4534  -20.9706  -14.6208 C   0  0  0  0  0  0  0  0  0  0  0  0
   28.6379  -21.5651  -15.8524 O   0  0  0  0  0  0  0  0  0  0  0  0
   29.1224  -21.3901  -13.6522 O   0  0  0  0  0  0  0  0  0  0  0  0
  2  1  1  1
  3  2  1  0
  4  5  1  6
  4  2  1  0
  4  6  1  0
  6  7  2  0
  8  6  1  0
  8  9  1  0
  9 17  1  0
 10 11  1  0
  9 10  1  1
 11 12  2  0
 11 16  1  0
 12 13  1  0
 13 14  2  0
 15 14  1  0
 16 15  2  0
 17 18  2  0
 19 20  1  0
 21 20  1  1
 21 23  1  0
 22 17  1  0
 22 21  1  0
 23 25  2  0
 23 24  1  0
M  END
$$$$
