TFS.pdb
     RDKit          3D

 25 25  0  0  1  0  0  0  0  0999 V2000
   19.1612   -8.0436  -19.2598 C   0  0  0  0  0  0  0  0  0  0  0  0
   19.2321   -9.4420  -18.7405 C   0  0  1  0  0  0  0  0  0  0  0  0
   19.4685  -10.2909  -19.8158 O   0  0  0  0  0  0  0  0  0  0  0  0
   20.2492   -9.6474  -17.6576 C   0  0  2  0  0  0  0  0  0  0  0  0
   20.3083  -11.0123  -17.2314 N   0  0  0  0  0  0  0  0  0  0  0  0
   20.0238   -8.7080  -16.5394 C   0  0  0  0  0  0  0  0  0  0  0  0
   19.1114   -8.9772  -15.7058 O   0  0  0  0  0  0  0  0  0  0  0  0
   20.7755   -7.5171  -16.3474 N   0  0  0  0  0  0  0  0  0  0  0  0
   20.5555   -6.6043  -15.2395 C   0  0  1  0  0  0  0  0  0  0  0  0
   21.7904   -6.5914  -14.3797 C   0  0  0  0  0  0  0  0  0  0  0  0
   21.9971   -7.8222  -13.6123 C   0  0  0  0  0  0  0  0  0  0  0  0
   21.3677   -8.0665  -12.4092 C   0  0  0  0  0  0  0  0  0  0  0  0
   21.5756   -9.2352  -11.6978 C   0  0  0  0  0  0  0  0  0  0  0  0
   22.4260  -10.2099  -12.1656 C   0  0  0  0  0  0  0  0  0  0  0  0
   23.0632   -9.9825  -13.3658 C   0  0  0  0  0  0  0  0  0  0  0  0
   22.8470   -8.8034  -14.0734 C   0  0  0  0  0  0  0  0  0  0  0  0
   20.1498   -5.2972  -15.7563 C   0  0  0  0  0  0  0  0  0  0  0  0
   20.5806   -4.8854  -16.8885 O   0  0  0  0  0  0  0  0  0  0  0  0
   16.6830   -3.5589  -17.4181 O   0  0  0  0  0  0  0  0  0  0  0  0
   17.5301   -4.4051  -16.6953 C   0  0  0  0  0  0  0  0  0  0  0  0
   18.3890   -3.4840  -15.8133 C   0  0  2  0  0  0  0  0  0  0  0  0
   19.2795   -4.3999  -15.0848 N   0  0  0  0  0  0  0  0  0  0  0  0
   17.5525   -2.6993  -14.9089 C   0  0  0  0  0  0  0  0  0  0  0  0
   17.5061   -1.3254  -15.0286 O   0  0  0  0  0  0  0  0  0  0  0  0
   16.8667   -3.2416  -14.0160 O   0  0  0  0  0  0  0  0  0  0  0  0
  2  1  1  6
  3  2  1  0
  4  5  1  1
  4  2  1  0
  4  6  1  0
  6  7  2  0
  8  6  1  0
  8  9  1  0
  9 17  1  0
 10 11  1  0
  9 10  1  6
 11 12  2  0
 11 16  1  0
 12 13  1  0
 13 14  2  0
 15 14  1  0
 16 15  2  0
 17 18  2  0
 19 20  1  0
 21 20  1  6
 21 23  1  0
 22 17  1  0
 22 21  1  0
 23 25  2  0
 23 24  1  0
M  END
$$$$
