TFS.pdb
     RDKit          3D

 25 25  0  0  1  0  0  0  0  0999 V2000
   24.4728    6.1433   -9.3741 C   0  0  0  0  0  0  0  0  0  0  0  0
   24.2819    5.1975  -10.5140 C   0  0  1  0  0  0  0  0  0  0  0  0
   24.7399    5.8172  -11.6712 O   0  0  0  0  0  0  0  0  0  0  0  0
   24.9354    3.8611  -10.3232 C   0  0  2  0  0  0  0  0  0  0  0  0
   24.7036    2.9891  -11.4340 N   0  0  0  0  0  0  0  0  0  0  0  0
   24.5387    3.2613   -9.0323 C   0  0  0  0  0  0  0  0  0  0  0  0
   23.4711    2.5842   -8.9895 O   0  0  0  0  0  0  0  0  0  0  0  0
   25.2901    3.4023   -7.8342 N   0  0  0  0  0  0  0  0  0  0  0  0
   25.0205    2.6389   -6.6285 C   0  0  1  0  0  0  0  0  0  0  0  0
   26.2006    1.7461   -6.3555 C   0  0  0  0  0  0  0  0  0  0  0  0
   26.2477    0.5450   -7.1932 C   0  0  0  0  0  0  0  0  0  0  0  0
   26.8394    0.5266   -8.4392 C   0  0  0  0  0  0  0  0  0  0  0  0
   26.8740   -0.6176   -9.2169 C   0  0  0  0  0  0  0  0  0  0  0  0
   26.3146   -1.7940   -8.7751 C   0  0  0  0  0  0  0  0  0  0  0  0
   25.7192   -1.7936   -7.5326 C   0  0  0  0  0  0  0  0  0  0  0  0
   25.6899   -0.6371   -6.7585 C   0  0  0  0  0  0  0  0  0  0  0  0
   24.6726    3.5518   -5.5396 C   0  0  0  0  0  0  0  0  0  0  0  0
   25.4119    4.5635   -5.2802 O   0  0  0  0  0  0  0  0  0  0  0  0
   21.5049    4.8701   -2.1257 O   0  0  0  0  0  0  0  0  0  0  0  0
   21.8536    3.9342   -3.1049 C   0  0  0  0  0  0  0  0  0  0  0  0
   23.2271    4.3761   -3.6362 C   0  0  2  0  0  0  0  0  0  0  0  0
   23.5346    3.4124   -4.7035 N   0  0  0  0  0  0  0  0  0  0  0  0
   24.2290    4.3543   -2.5738 C   0  0  0  0  0  0  0  0  0  0  0  0
   24.5383    5.5135   -1.8921 O   0  0  0  0  0  0  0  0  0  0  0  0
   24.8246    3.3021   -2.2576 O   0  0  0  0  0  0  0  0  0  0  0  0
  2  1  1  1
  3  2  1  0
  4  5  1  6
  4  2  1  0
  4  6  1  0
  6  7  2  0
  8  6  1  0
  8  9  1  0
  9 17  1  0
 10 11  1  0
  9 10  1  1
 11 12  2  0
 11 16  1  0
 12 13  1  0
 13 14  2  0
 15 14  1  0
 16 15  2  0
 17 18  2  0
 19 20  1  0
 21 20  1  1
 21 23  1  0
 22 17  1  0
 22 21  1  0
 23 25  2  0
 23 24  1  0
M  END
$$$$
