TFS.pdb
     RDKit          3D

 25 25  0  0  1  0  0  0  0  0999 V2000
   27.0930  -19.9308  -18.9940 C   0  0  0  0  0  0  0  0  0  0  0  0
   26.4352  -20.4030  -17.7392 C   0  0  1  0  0  0  0  0  0  0  0  0
   25.1614  -20.8561  -18.0631 O   0  0  0  0  0  0  0  0  0  0  0  0
   27.2073  -21.4510  -16.9944 C   0  0  2  0  0  0  0  0  0  0  0  0
   27.3994  -22.6323  -17.7792 N   0  0  0  0  0  0  0  0  0  0  0  0
   26.5855  -21.7299  -15.6832 C   0  0  0  0  0  0  0  0  0  0  0  0
   25.7680  -22.6916  -15.6006 O   0  0  0  0  0  0  0  0  0  0  0  0
   26.8544  -20.9775  -14.5079 N   0  0  0  0  0  0  0  0  0  0  0  0
   26.1351  -21.1623  -13.2599 C   0  0  1  0  0  0  0  0  0  0  0  0
   26.9237  -20.5140  -12.1544 C   0  0  0  0  0  0  0  0  0  0  0  0
   26.2633  -20.5527  -10.8472 C   0  0  0  0  0  0  0  0  0  0  0  0
   25.4834  -19.5180  -10.3738 C   0  0  0  0  0  0  0  0  0  0  0  0
   24.8673  -19.5720   -9.1357 C   0  0  0  0  0  0  0  0  0  0  0  0
   25.0089  -20.6699   -8.3192 C   0  0  0  0  0  0  0  0  0  0  0  0
   25.7846  -21.7128   -8.7762 C   0  0  0  0  0  0  0  0  0  0  0  0
   26.3998  -21.6481  -10.0232 C   0  0  0  0  0  0  0  0  0  0  0  0
   24.7644  -20.6732  -13.4087 C   0  0  0  0  0  0  0  0  0  0  0  0
   24.5385  -19.5217  -13.9188 O   0  0  0  0  0  0  0  0  0  0  0  0
   21.7435  -21.8506  -15.1766 O   0  0  0  0  0  0  0  0  0  0  0  0
   21.4277  -21.9231  -13.8160 C   0  0  0  0  0  0  0  0  0  0  0  0
   22.2555  -20.8210  -13.1348 C   0  0  2  0  0  0  0  0  0  0  0  0
   23.6051  -21.3936  -13.0207 N   0  0  0  0  0  0  0  0  0  0  0  0
   21.6944  -20.4780  -11.8306 C   0  0  0  0  0  0  0  0  0  0  0  0
   20.7345  -19.4919  -11.7293 O   0  0  0  0  0  0  0  0  0  0  0  0
   22.0622  -21.0588  -10.7869 O   0  0  0  0  0  0  0  0  0  0  0  0
  2  1  1  6
  3  2  1  0
  4  5  1  6
  4  2  1  0
  4  6  1  0
  6  7  2  0
  8  6  1  0
  8  9  1  0
  9 17  1  0
 10 11  1  0
  9 10  1  1
 11 12  2  0
 11 16  1  0
 12 13  1  0
 13 14  2  0
 15 14  1  0
 16 15  2  0
 17 18  2  0
 19 20  1  0
 21 20  1  1
 21 23  1  0
 22 17  1  0
 22 21  1  0
 23 25  2  0
 23 24  1  0
M  END
$$$$
