TFS.pdb
     RDKit          3D

 25 25  0  0  1  0  0  0  0  0999 V2000
   18.9153  -12.4817  -20.9883 C   0  0  0  0  0  0  0  0  0  0  0  0
   18.8545  -11.6162  -19.7728 C   0  0  1  0  0  0  0  0  0  0  0  0
   17.5246  -11.5145  -19.3807 O   0  0  0  0  0  0  0  0  0  0  0  0
   19.7170  -12.0839  -18.6385 C   0  0  2  0  0  0  0  0  0  0  0  0
   19.4128  -13.4286  -18.2547 N   0  0  0  0  0  0  0  0  0  0  0  0
   19.6545  -11.1374  -17.5054 C   0  0  0  0  0  0  0  0  0  0  0  0
   18.7915  -11.3396  -16.6031 O   0  0  0  0  0  0  0  0  0  0  0  0
   20.5107  -10.0108  -17.3721 N   0  0  0  0  0  0  0  0  0  0  0  0
   20.4226   -9.0671  -16.2717 C   0  0  1  0  0  0  0  0  0  0  0  0
   21.7945   -8.8984  -15.6770 C   0  0  0  0  0  0  0  0  0  0  0  0
   21.8755   -7.8601  -14.6466 C   0  0  0  0  0  0  0  0  0  0  0  0
   21.5842   -8.1005  -13.3198 C   0  0  0  0  0  0  0  0  0  0  0  0
   21.6660   -7.1067  -12.3601 C   0  0  0  0  0  0  0  0  0  0  0  0
   22.0445   -5.8270  -12.6932 C   0  0  0  0  0  0  0  0  0  0  0  0
   22.3392   -5.5690  -14.0141 C   0  0  0  0  0  0  0  0  0  0  0  0
   22.2537   -6.5759  -14.9714 C   0  0  0  0  0  0  0  0  0  0  0  0
   19.7957   -7.8301  -16.7377 C   0  0  0  0  0  0  0  0  0  0  0  0
   20.2429   -7.2268  -17.7736 O   0  0  0  0  0  0  0  0  0  0  0  0
   16.3696   -6.6111  -15.2368 O   0  0  0  0  0  0  0  0  0  0  0  0
   16.6393   -6.0492  -16.4889 C   0  0  0  0  0  0  0  0  0  0  0  0
   18.1682   -5.9035  -16.5620 C   0  0  2  0  0  0  0  0  0  0  0  0
   18.6824   -7.2072  -16.1164 N   0  0  0  0  0  0  0  0  0  0  0  0
   18.6296   -4.8122  -15.7079 C   0  0  0  0  0  0  0  0  0  0  0  0
   19.3353   -5.0887  -14.5548 O   0  0  0  0  0  0  0  0  0  0  0  0
   18.4019   -3.6170  -15.9932 O   0  0  0  0  0  0  0  0  0  0  0  0
  2  1  1  6
  3  2  1  0
  4  5  1  1
  4  2  1  0
  4  6  1  0
  6  7  2  0
  8  6  1  0
  8  9  1  0
  9 17  1  0
 10 11  1  0
  9 10  1  6
 11 12  2  0
 11 16  1  0
 12 13  1  0
 13 14  2  0
 15 14  1  0
 16 15  2  0
 17 18  2  0
 19 20  1  0
 21 20  1  1
 21 23  1  0
 22 17  1  0
 22 21  1  0
 23 25  2  0
 23 24  1  0
M  END
$$$$
