TFS.pdb
     RDKit          3D

 25 25  0  0  1  0  0  0  0  0999 V2000
   26.0084  -20.4997  -17.8077 C   0  0  0  0  0  0  0  0  0  0  0  0
   27.0836  -21.5358  -17.8329 C   0  0  1  0  0  0  0  0  0  0  0  0
   27.8772  -21.3080  -18.9514 O   0  0  0  0  0  0  0  0  0  0  0  0
   27.9139  -21.5939  -16.5853 C   0  0  2  0  0  0  0  0  0  0  0  0
   28.8832  -22.6455  -16.6366 N   0  0  0  0  0  0  0  0  0  0  0  0
   27.0551  -21.6652  -15.3848 C   0  0  0  0  0  0  0  0  0  0  0  0
   26.6759  -22.8043  -14.9867 O   0  0  0  0  0  0  0  0  0  0  0  0
   26.6305  -20.5245  -14.6512 N   0  0  0  0  0  0  0  0  0  0  0  0
   25.8090  -20.6043  -13.4562 C   0  0  1  0  0  0  0  0  0  0  0  0
   26.3451  -19.6296  -12.4429 C   0  0  0  0  0  0  0  0  0  0  0  0
   26.6825  -20.2348  -11.1519 C   0  0  0  0  0  0  0  0  0  0  0  0
   25.8262  -20.2127  -10.0705 C   0  0  0  0  0  0  0  0  0  0  0  0
   26.1623  -20.7894   -8.8582 C   0  0  0  0  0  0  0  0  0  0  0  0
   27.3749  -21.4140   -8.6806 C   0  0  0  0  0  0  0  0  0  0  0  0
   28.2425  -21.4454   -9.7503 C   0  0  0  0  0  0  0  0  0  0  0  0
   27.8945  -20.8621  -10.9654 C   0  0  0  0  0  0  0  0  0  0  0  0
   24.4041  -20.4109  -13.8151 C   0  0  0  0  0  0  0  0  0  0  0  0
   24.0293  -19.3462  -14.4178 O   0  0  0  0  0  0  0  0  0  0  0  0
   21.7176  -23.3480  -13.3752 O   0  0  0  0  0  0  0  0  0  0  0  0
   21.4427  -22.4409  -14.4037 C   0  0  0  0  0  0  0  0  0  0  0  0
   21.9684  -21.0813  -13.9145 C   0  0  2  0  0  0  0  0  0  0  0  0
   23.3675  -21.3411  -13.5436 N   0  0  0  0  0  0  0  0  0  0  0  0
   21.1835  -20.5950  -12.7828 C   0  0  0  0  0  0  0  0  0  0  0  0
   19.8555  -20.2623  -12.9555 O   0  0  0  0  0  0  0  0  0  0  0  0
   21.6847  -20.4688  -11.6450 O   0  0  0  0  0  0  0  0  0  0  0  0
  2  1  1  1
  3  2  1  0
  4  5  1  6
  4  2  1  0
  4  6  1  0
  6  7  2  0
  8  6  1  0
  8  9  1  0
  9 17  1  0
 10 11  1  0
  9 10  1  1
 11 12  2  0
 11 16  1  0
 12 13  1  0
 13 14  2  0
 15 14  1  0
 16 15  2  0
 17 18  2  0
 19 20  1  0
 21 20  1  1
 21 23  1  0
 22 17  1  0
 22 21  1  0
 23 25  2  0
 23 24  1  0
M  END
$$$$
