TFS.pdb
     RDKit          3D

 25 25  0  0  1  0  0  0  0  0999 V2000
   27.1284  -23.3348  -15.8761 C   0  0  0  0  0  0  0  0  0  0  0  0
   25.7461  -23.9001  -15.8673 C   0  0  1  0  0  0  0  0  0  0  0  0
   25.0326  -23.3134  -16.9063 O   0  0  0  0  0  0  0  0  0  0  0  0
   25.6908  -25.3964  -15.9527 C   0  0  2  0  0  0  0  0  0  0  0  0
   26.2312  -25.8819  -17.1858 N   0  0  0  0  0  0  0  0  0  0  0  0
   24.3211  -25.8876  -15.6954 C   0  0  0  0  0  0  0  0  0  0  0  0
   23.7068  -26.4688  -16.6360 O   0  0  0  0  0  0  0  0  0  0  0  0
   23.6539  -25.7436  -14.4488 N   0  0  0  0  0  0  0  0  0  0  0  0
   22.2966  -26.2030  -14.2122 C   0  0  1  0  0  0  0  0  0  0  0  0
   22.2611  -26.9267  -12.8934 C   0  0  0  0  0  0  0  0  0  0  0  0
   20.9245  -27.3734  -12.4927 C   0  0  0  0  0  0  0  0  0  0  0  0
   20.1123  -26.6390  -11.6537 C   0  0  0  0  0  0  0  0  0  0  0  0
   18.8522  -27.0772  -11.2855 C   0  0  0  0  0  0  0  0  0  0  0  0
   18.3538  -28.2739  -11.7455 C   0  0  0  0  0  0  0  0  0  0  0  0
   19.1518  -29.0205  -12.5847 C   0  0  0  0  0  0  0  0  0  0  0  0
   20.4177  -28.5704  -12.9487 C   0  0  0  0  0  0  0  0  0  0  0  0
   21.3725  -25.0742  -14.3216 C   0  0  0  0  0  0  0  0  0  0  0  0
   21.6035  -23.9837  -13.6933 O   0  0  0  0  0  0  0  0  0  0  0  0
   17.4134  -23.1849  -16.3694 O   0  0  0  0  0  0  0  0  0  0  0  0
   18.1929  -24.3268  -16.1577 C   0  0  0  0  0  0  0  0  0  0  0  0
   19.3146  -23.8961  -15.1985 C   0  0  2  0  0  0  0  0  0  0  0  0
   20.1854  -25.0769  -15.0989 N   0  0  0  0  0  0  0  0  0  0  0  0
   18.7701  -23.5066  -13.9004 C   0  0  0  0  0  0  0  0  0  0  0  0
   18.6884  -22.1724  -13.5578 O   0  0  0  0  0  0  0  0  0  0  0  0
   18.3693  -24.3572  -13.0771 O   0  0  0  0  0  0  0  0  0  0  0  0
  2  1  1  6
  3  2  1  0
  4  5  1  6
  4  2  1  0
  4  6  1  0
  6  7  2  0
  8  6  1  0
  8  9  1  0
  9 17  1  0
 10 11  1  0
  9 10  1  1
 11 12  2  0
 11 16  1  0
 12 13  1  0
 13 14  2  0
 15 14  1  0
 16 15  2  0
 17 18  2  0
 19 20  1  0
 21 20  1  6
 21 23  1  0
 22 17  1  0
 22 21  1  0
 23 25  2  0
 23 24  1  0
M  END
$$$$
