TFS.pdb
     RDKit          3D

 25 25  0  0  1  0  0  0  0  0999 V2000
   28.3441  -25.4979  -16.5941 C   0  0  0  0  0  0  0  0  0  0  0  0
   28.0729  -26.7465  -17.3673 C   0  0  1  0  0  0  0  0  0  0  0  0
   27.5029  -26.3868  -18.5832 O   0  0  0  0  0  0  0  0  0  0  0  0
   29.2755  -27.6188  -17.5724 C   0  0  2  0  0  0  0  0  0  0  0  0
   30.1578  -27.0880  -18.5664 N   0  0  0  0  0  0  0  0  0  0  0  0
   28.8726  -29.0130  -17.8508 C   0  0  0  0  0  0  0  0  0  0  0  0
   28.6338  -29.3395  -19.0492 O   0  0  0  0  0  0  0  0  0  0  0  0
   28.7380  -30.0095  -16.8463 N   0  0  0  0  0  0  0  0  0  0  0  0
   28.3521  -31.3807  -17.1290 C   0  0  1  0  0  0  0  0  0  0  0  0
   29.5910  -32.2346  -17.1288 C   0  0  0  0  0  0  0  0  0  0  0  0
   30.2007  -32.4033  -18.4504 C   0  0  0  0  0  0  0  0  0  0  0  0
   29.6730  -33.2363  -19.4151 C   0  0  0  0  0  0  0  0  0  0  0  0
   30.2631  -33.3834  -20.6583 C   0  0  0  0  0  0  0  0  0  0  0  0
   31.4104  -32.6987  -20.9855 C   0  0  0  0  0  0  0  0  0  0  0  0
   31.9512  -31.8622  -20.0337 C   0  0  0  0  0  0  0  0  0  0  0  0
   31.3495  -31.7216  -18.7863 C   0  0  0  0  0  0  0  0  0  0  0  0
   27.3136  -31.8001  -16.1878 C   0  0  0  0  0  0  0  0  0  0  0  0
   27.5418  -31.8018  -14.9288 O   0  0  0  0  0  0  0  0  0  0  0  0
   22.6675  -32.7481  -15.3703 O   0  0  0  0  0  0  0  0  0  0  0  0
   23.6643  -32.5169  -16.3238 C   0  0  0  0  0  0  0  0  0  0  0  0
   24.9982  -32.6011  -15.5639 C   0  0  2  0  0  0  0  0  0  0  0  0
   26.0122  -32.2256  -16.5605 N   0  0  0  0  0  0  0  0  0  0  0  0
   25.2167  -33.9473  -15.0412 C   0  0  0  0  0  0  0  0  0  0  0  0
   25.0052  -34.2115  -13.7034 O   0  0  0  0  0  0  0  0  0  0  0  0
   25.5952  -34.8822  -15.7791 O   0  0  0  0  0  0  0  0  0  0  0  0
  2  1  1  6
  3  2  1  0
  4  5  1  6
  4  2  1  0
  4  6  1  0
  6  7  2  0
  8  6  1  0
  8  9  1  0
  9 17  1  0
 10 11  1  0
  9 10  1  1
 11 12  2  0
 11 16  1  0
 12 13  1  0
 13 14  2  0
 15 14  1  0
 16 15  2  0
 17 18  2  0
 19 20  1  0
 21 20  1  6
 21 23  1  0
 22 17  1  0
 22 21  1  0
 23 25  2  0
 23 24  1  0
M  END
$$$$
