TFS.pdb
     RDKit          3D

 25 25  0  0  1  0  0  0  0  0999 V2000
   27.2125  -19.0395  -14.8442 C   0  0  0  0  0  0  0  0  0  0  0  0
   26.8549  -19.6471  -13.5277 C   0  0  1  0  0  0  0  0  0  0  0  0
   25.5571  -20.1376  -13.6163 O   0  0  0  0  0  0  0  0  0  0  0  0
   27.8030  -20.7114  -13.0613 C   0  0  2  0  0  0  0  0  0  0  0  0
   27.8066  -21.8446  -13.9354 N   0  0  0  0  0  0  0  0  0  0  0  0
   27.5349  -21.0748  -11.6543 C   0  0  0  0  0  0  0  0  0  0  0  0
   26.7839  -22.0663  -11.4246 O   0  0  0  0  0  0  0  0  0  0  0  0
   28.0741  -20.3721  -10.5428 N   0  0  0  0  0  0  0  0  0  0  0  0
   27.6956  -20.6432   -9.1672 C   0  0  1  0  0  0  0  0  0  0  0  0
   28.7018  -19.9908   -8.2582 C   0  0  0  0  0  0  0  0  0  0  0  0
   28.3168  -19.9881   -6.8446 C   0  0  0  0  0  0  0  0  0  0  0  0
   28.6577  -21.0041   -5.9760 C   0  0  0  0  0  0  0  0  0  0  0  0
   28.2847  -20.9848   -4.6434 C   0  0  0  0  0  0  0  0  0  0  0  0
   27.5519  -19.9419   -4.1261 C   0  0  0  0  0  0  0  0  0  0  0  0
   27.2025  -18.9184   -4.9797 C   0  0  0  0  0  0  0  0  0  0  0  0
   27.5830  -18.9479   -6.3183 C   0  0  0  0  0  0  0  0  0  0  0  0
   26.3093  -20.2292   -8.9510 C   0  0  0  0  0  0  0  0  0  0  0  0
   25.9440  -19.0292   -9.2034 O   0  0  0  0  0  0  0  0  0  0  0  0
   21.8344  -20.7885   -9.4256 O   0  0  0  0  0  0  0  0  0  0  0  0
   23.1742  -21.1662   -9.5617 C   0  0  0  0  0  0  0  0  0  0  0  0
   23.8925  -20.6170   -8.3181 C   0  0  2  0  0  0  0  0  0  0  0  0
   25.2814  -21.0776   -8.4637 N   0  0  0  0  0  0  0  0  0  0  0  0
   23.2746  -21.1201   -7.0941 C   0  0  0  0  0  0  0  0  0  0  0  0
   22.0425  -20.6431   -6.6959 O   0  0  0  0  0  0  0  0  0  0  0  0
   23.8356  -21.9827   -6.3847 O   0  0  0  0  0  0  0  0  0  0  0  0
  2  1  1  6
  3  2  1  0
  4  5  1  6
  4  2  1  0
  4  6  1  0
  6  7  2  0
  8  6  1  0
  8  9  1  0
  9 17  1  0
 10 11  1  0
  9 10  1  1
 11 12  2  0
 11 16  1  0
 12 13  1  0
 13 14  2  0
 15 14  1  0
 16 15  2  0
 17 18  2  0
 19 20  1  0
 21 20  1  6
 21 23  1  0
 22 17  1  0
 22 21  1  0
 23 25  2  0
 23 24  1  0
M  END
$$$$
