TFS.pdb
     RDKit          3D

 25 25  0  0  1  0  0  0  0  0999 V2000
   20.2040   -8.8564  -19.7371 C   0  0  0  0  0  0  0  0  0  0  0  0
   20.8721  -10.1604  -19.4485 C   0  0  1  0  0  0  0  0  0  0  0  0
   21.0962  -10.8083  -20.6579 O   0  0  0  0  0  0  0  0  0  0  0  0
   22.1405  -10.0420  -18.6570 C   0  0  2  0  0  0  0  0  0  0  0  0
   22.7378  -11.3189  -18.4099 N   0  0  0  0  0  0  0  0  0  0  0  0
   21.9178   -9.2654  -17.4197 C   0  0  0  0  0  0  0  0  0  0  0  0
   21.4403   -9.8654  -16.4138 O   0  0  0  0  0  0  0  0  0  0  0  0
   22.2102   -7.8800  -17.2958 N   0  0  0  0  0  0  0  0  0  0  0  0
   21.9668   -7.1182  -16.0837 C   0  0  1  0  0  0  0  0  0  0  0  0
   23.2928   -6.6929  -15.5134 C   0  0  0  0  0  0  0  0  0  0  0  0
   24.2220   -7.7996  -15.2717 C   0  0  0  0  0  0  0  0  0  0  0  0
   24.0343   -8.7262  -14.2672 C   0  0  0  0  0  0  0  0  0  0  0  0
   24.9233   -9.7651  -14.0535 C   0  0  0  0  0  0  0  0  0  0  0  0
   26.0404   -9.9175  -14.8414 C   0  0  0  0  0  0  0  0  0  0  0  0
   26.2436   -9.0008  -15.8497 C   0  0  0  0  0  0  0  0  0  0  0  0
   25.3431   -7.9595  -16.0559 C   0  0  0  0  0  0  0  0  0  0  0  0
   21.0397   -6.0239  -16.3720 C   0  0  0  0  0  0  0  0  0  0  0  0
   21.2918   -5.1903  -17.3094 O   0  0  0  0  0  0  0  0  0  0  0  0
   17.4669   -5.8829  -14.6206 O   0  0  0  0  0  0  0  0  0  0  0  0
   17.5052   -5.3295  -15.9045 C   0  0  0  0  0  0  0  0  0  0  0  0
   18.9043   -4.7089  -16.0514 C   0  0  2  0  0  0  0  0  0  0  0  0
   19.8265   -5.7904  -15.6739 N   0  0  0  0  0  0  0  0  0  0  0  0
   19.0495   -3.5396  -15.1884 C   0  0  0  0  0  0  0  0  0  0  0  0
   18.2975   -2.4075  -15.4269 O   0  0  0  0  0  0  0  0  0  0  0  0
   19.8461   -3.5320  -14.2254 O   0  0  0  0  0  0  0  0  0  0  0  0
  2  1  1  6
  3  2  1  0
  4  5  1  1
  4  2  1  0
  4  6  1  0
  6  7  2  0
  8  6  1  0
  8  9  1  0
  9 17  1  0
 10 11  1  0
  9 10  1  6
 11 12  2  0
 11 16  1  0
 12 13  1  0
 13 14  2  0
 15 14  1  0
 16 15  2  0
 17 18  2  0
 19 20  1  0
 21 20  1  1
 21 23  1  0
 22 17  1  0
 22 21  1  0
 23 25  2  0
 23 24  1  0
M  END
$$$$
