TFS.pdb
     RDKit          3D

 25 25  0  0  1  0  0  0  0  0999 V2000
   25.2331  -21.8716  -18.0145 C   0  0  0  0  0  0  0  0  0  0  0  0
   26.5194  -22.6305  -18.0145 C   0  0  1  0  0  0  0  0  0  0  0  0
   27.1725  -22.3740  -19.2147 O   0  0  0  0  0  0  0  0  0  0  0  0
   27.4088  -22.3374  -16.8431 C   0  0  2  0  0  0  0  0  0  0  0  0
   28.4912  -23.2688  -16.7474 N   0  0  0  0  0  0  0  0  0  0  0  0
   26.6221  -22.2442  -15.5957 C   0  0  0  0  0  0  0  0  0  0  0  0
   26.4098  -23.3053  -14.9409 O   0  0  0  0  0  0  0  0  0  0  0  0
   26.0896  -21.0276  -15.0894 N   0  0  0  0  0  0  0  0  0  0  0  0
   25.4078  -20.9256  -13.8112 C   0  0  1  0  0  0  0  0  0  0  0  0
   26.0860  -19.8606  -12.9925 C   0  0  0  0  0  0  0  0  0  0  0  0
   27.3047  -20.3122  -12.3164 C   0  0  0  0  0  0  0  0  0  0  0  0
   28.5684  -20.0651  -12.8115 C   0  0  0  0  0  0  0  0  0  0  0  0
   29.7088  -20.5000  -12.1590 C   0  0  0  0  0  0  0  0  0  0  0  0
   29.6278  -21.2028  -10.9793 C   0  0  0  0  0  0  0  0  0  0  0  0
   28.3733  -21.4586  -10.4703 C   0  0  0  0  0  0  0  0  0  0  0  0
   27.2328  -21.0166  -11.1348 C   0  0  0  0  0  0  0  0  0  0  0  0
   23.9777  -20.7142  -14.0356 C   0  0  0  0  0  0  0  0  0  0  0  0
   23.5751  -19.8060  -14.8420 O   0  0  0  0  0  0  0  0  0  0  0  0
   19.4128  -21.9778  -13.0341 O   0  0  0  0  0  0  0  0  0  0  0  0
   20.7726  -22.2252  -12.8196 C   0  0  0  0  0  0  0  0  0  0  0  0
   21.5243  -21.1205  -13.5803 C   0  0  2  0  0  0  0  0  0  0  0  0
   22.9449  -21.4604  -13.4110 N   0  0  0  0  0  0  0  0  0  0  0  0
   21.2078  -19.8033  -13.0346 C   0  0  0  0  0  0  0  0  0  0  0  0
   20.2673  -19.0064  -13.6548 O   0  0  0  0  0  0  0  0  0  0  0  0
   21.7709  -19.3682  -12.0072 O   0  0  0  0  0  0  0  0  0  0  0  0
  2  1  1  1
  3  2  1  0
  4  5  1  1
  4  2  1  0
  4  6  1  0
  6  7  2  0
  8  6  1  0
  8  9  1  0
  9 17  1  0
 10 11  1  0
  9 10  1  6
 11 12  2  0
 11 16  1  0
 12 13  1  0
 13 14  2  0
 15 14  1  0
 16 15  2  0
 17 18  2  0
 19 20  1  0
 21 20  1  1
 21 23  1  0
 22 17  1  0
 22 21  1  0
 23 25  2  0
 23 24  1  0
M  END
$$$$
