MNN.pdb
     RDKit          3D

 25 24  0  0  1  0  0  0  0  0999 V2000
    7.3815  -11.5092   27.2157 C   0  0  0  0  0  0  0  0  0  0  0  0
    6.0498  -12.1725   26.1934 S   0  0  0  0  0  0  0  0  0  0  0  0
    6.5887  -13.2913   24.9409 C   0  0  0  0  0  0  0  0  0  0  0  0
    8.0032  -13.3413   24.5489 C   0  0  0  0  0  0  0  0  0  0  0  0
    8.4497  -14.2094   23.4429 C   0  0  2  0  0  0  0  0  0  0  0  0
    7.4267  -14.3756   22.4061 N   0  0  0  0  0  0  0  0  0  0  0  0
    8.7203  -15.5974   24.0311 C   0  0  0  0  0  0  0  0  0  0  0  0
    8.0517  -15.9791   25.0000 O   0  0  0  0  0  0  0  0  0  0  0  0
    8.6273  -18.1527   20.8450 N   0  0  0  0  0  0  0  0  0  0  0  0
    9.9183  -17.9718   21.3608 C   0  0  0  0  0  0  0  0  0  0  0  0
   10.7222  -17.2092   20.7739 O   0  0  0  0  0  0  0  0  0  0  0  0
   10.3482  -18.6682   22.5910 C   0  0  0  0  0  0  0  0  0  0  0  0
   10.0470  -17.7689   23.7808 C   0  0  2  0  0  0  0  0  0  0  0  0
    9.7183  -16.4231   23.4701 N   0  0  0  0  0  0  0  0  0  0  0  0
   10.9204  -17.9947   24.9331 C   0  0  0  0  0  0  0  0  0  0  0  0
   11.1087  -19.1989   25.2952 O   0  0  0  0  0  0  0  0  0  0  0  0
    9.9233  -14.2691   28.9648 N   0  0  0  0  0  0  0  0  0  0  0  0
   10.4100  -14.8125   27.7262 C   0  0  0  0  0  0  0  0  0  0  0  0
   10.9397  -14.0696   26.8772 O   0  0  0  0  0  0  0  0  0  0  0  0
   10.2584  -16.2583   27.5102 C   0  0  0  0  0  0  0  0  0  0  0  0
   11.5684  -16.9348   27.1287 C   0  0  2  0  0  0  0  0  0  0  0  0
   11.5859  -17.0159   25.6973 N   0  0  0  0  0  0  0  0  0  0  0  0
   11.6255  -18.2323   27.8118 C   0  0  0  0  0  0  0  0  0  0  0  0
   10.5177  -19.0732   27.7924 O   0  0  0  0  0  0  0  0  0  0  0  0
   12.6282  -18.6470   28.4294 O   0  0  0  0  0  0  0  0  0  0  0  0
  1  2  1  0
  2  3  1  0
  3  4  1  0
  5  4  1  0
  5  7  1  0
  5  6  1  6
  7  8  2  0
  9 10  1  0
 10 11  2  0
 12 10  1  0
 13 12  1  6
 14 13  1  0
 14  7  1  0
 15 13  1  0
 15 16  2  0
 17 18  1  0
 18 20  1  0
 19 18  2  0
 21 20  1  6
 21 22  1  0
 21 23  1  0
 22 15  1  0
 23 24  1  0
 25 23  2  0
M  END
$$$$
