MNN.pdb
     RDKit          3D

 25 24  0  0  1  0  0  0  0  0999 V2000
    8.2081  -11.8578   20.5356 C   0  0  0  0  0  0  0  0  0  0  0  0
    7.0725  -12.3341   19.2157 S   0  0  0  0  0  0  0  0  0  0  0  0
    7.0791  -14.0582   18.8435 C   0  0  0  0  0  0  0  0  0  0  0  0
    7.5951  -15.0264   19.8198 C   0  0  0  0  0  0  0  0  0  0  0  0
    8.3274  -16.2278   19.3768 C   0  0  2  0  0  0  0  0  0  0  0  0
    7.4999  -17.1286   18.5686 N   0  0  0  0  0  0  0  0  0  0  0  0
    8.7375  -17.0029   20.6325 C   0  0  0  0  0  0  0  0  0  0  0  0
    7.9286  -17.7876   21.1440 O   0  0  0  0  0  0  0  0  0  0  0  0
   13.3895  -20.0759   20.1870 N   0  0  0  0  0  0  0  0  0  0  0  0
   12.1831  -19.8469   20.8633 C   0  0  0  0  0  0  0  0  0  0  0  0
   11.9190  -20.4963   21.9030 O   0  0  0  0  0  0  0  0  0  0  0  0
   11.2139  -18.8475   20.3685 C   0  0  0  0  0  0  0  0  0  0  0  0
   11.0352  -17.7819   21.4399 C   0  0  2  0  0  0  0  0  0  0  0  0
   10.0208  -16.8202   21.1912 N   0  0  0  0  0  0  0  0  0  0  0  0
   12.2920  -17.2955   22.0103 C   0  0  0  0  0  0  0  0  0  0  0  0
   13.1740  -16.8689   21.1998 O   0  0  0  0  0  0  0  0  0  0  0  0
   13.3032  -19.8699   26.0785 N   0  0  0  0  0  0  0  0  0  0  0  0
   13.5630  -18.4845   25.7967 C   0  0  0  0  0  0  0  0  0  0  0  0
   13.0740  -17.5925   26.5168 O   0  0  0  0  0  0  0  0  0  0  0  0
   14.4171  -18.1726   24.6420 C   0  0  0  0  0  0  0  0  0  0  0  0
   13.9469  -16.9401   23.8809 C   0  0  2  0  0  0  0  0  0  0  0  0
   12.6407  -17.2450   23.3744 N   0  0  0  0  0  0  0  0  0  0  0  0
   14.9438  -16.6364   22.8477 C   0  0  0  0  0  0  0  0  0  0  0  0
   15.7999  -15.5521   23.0104 O   0  0  0  0  0  0  0  0  0  0  0  0
   15.0813  -17.3017   21.8002 O   0  0  0  0  0  0  0  0  0  0  0  0
  1  2  1  0
  2  3  1  0
  3  4  1  0
  5  4  1  0
  5  7  1  0
  5  6  1  6
  7  8  2  0
  9 10  1  0
 10 11  2  0
 12 10  1  0
 13 12  1  6
 14 13  1  0
 14  7  1  0
 15 13  1  0
 15 16  2  0
 17 18  1  0
 18 20  1  0
 19 18  2  0
 21 20  1  6
 21 22  1  0
 21 23  1  0
 22 15  1  0
 23 24  1  0
 25 23  2  0
M  END
$$$$
