MNN.pdb
     RDKit          3D

 25 24  0  0  1  0  0  0  0  0999 V2000
    5.3513  -11.5242   26.3659 C   0  0  0  0  0  0  0  0  0  0  0  0
    7.0881  -11.9321   26.6411 S   0  0  0  0  0  0  0  0  0  0  0  0
    7.3990  -13.6532   26.8694 C   0  0  0  0  0  0  0  0  0  0  0  0
    7.9259  -14.4653   25.7649 C   0  0  0  0  0  0  0  0  0  0  0  0
    7.0149  -15.1983   24.8655 C   0  0  2  0  0  0  0  0  0  0  0  0
    6.4252  -16.3813   25.4995 N   0  0  0  0  0  0  0  0  0  0  0  0
    7.8451  -15.6940   23.6779 C   0  0  0  0  0  0  0  0  0  0  0  0
    8.2658  -16.8579   23.6841 O   0  0  0  0  0  0  0  0  0  0  0  0
    6.7416  -12.8464   19.6619 N   0  0  0  0  0  0  0  0  0  0  0  0
    7.4826  -14.0278   19.8049 C   0  0  0  0  0  0  0  0  0  0  0  0
    6.9816  -15.1232   19.4565 O   0  0  0  0  0  0  0  0  0  0  0  0
    8.8510  -14.0024   20.3617 C   0  0  0  0  0  0  0  0  0  0  0  0
    8.9416  -15.0529   21.4586 C   0  0  2  0  0  0  0  0  0  0  0  0
    8.1212  -14.8306   22.5958 N   0  0  0  0  0  0  0  0  0  0  0  0
   10.2982  -15.5459   21.6994 C   0  0  0  0  0  0  0  0  0  0  0  0
   10.9304  -16.0234   20.7049 O   0  0  0  0  0  0  0  0  0  0  0  0
   15.2579  -15.7368   23.4605 N   0  0  0  0  0  0  0  0  0  0  0  0
   14.3170  -15.6980   24.5465 C   0  0  0  0  0  0  0  0  0  0  0  0
   14.6701  -16.0186   25.6979 O   0  0  0  0  0  0  0  0  0  0  0  0
   12.9440  -15.2701   24.2435 C   0  0  0  0  0  0  0  0  0  0  0  0
   12.3095  -16.0844   23.1238 C   0  0  2  0  0  0  0  0  0  0  0  0
   10.9934  -15.5515   22.9248 N   0  0  0  0  0  0  0  0  0  0  0  0
   12.3400  -17.4980   23.5165 C   0  0  0  0  0  0  0  0  0  0  0  0
   11.3843  -17.9911   24.3989 O   0  0  0  0  0  0  0  0  0  0  0  0
   13.1897  -18.3141   23.1033 O   0  0  0  0  0  0  0  0  0  0  0  0
  1  2  1  0
  2  3  1  0
  3  4  1  0
  5  4  1  0
  5  7  1  0
  5  6  1  1
  7  8  2  0
  9 10  1  0
 10 11  2  0
 12 10  1  0
 13 12  1  1
 14 13  1  0
 14  7  1  0
 15 13  1  0
 15 16  2  0
 17 18  1  0
 18 20  1  0
 19 18  2  0
 21 20  1  1
 21 22  1  0
 21 23  1  0
 22 15  1  0
 23 24  1  0
 25 23  2  0
M  END
$$$$
