MNN.pdb
     RDKit          3D

 25 24  0  0  1  0  0  0  0  0999 V2000
    4.5978  -11.5908   27.2883 C   0  0  0  0  0  0  0  0  0  0  0  0
    6.3128  -11.0721   27.0688 S   0  0  0  0  0  0  0  0  0  0  0  0
    7.3984  -12.3635   26.5544 C   0  0  0  0  0  0  0  0  0  0  0  0
    6.9608  -13.3474   25.5558 C   0  0  0  0  0  0  0  0  0  0  0  0
    7.7791  -14.5389   25.2610 C   0  0  2  0  0  0  0  0  0  0  0  0
    9.2126  -14.3030   25.4571 N   0  0  0  0  0  0  0  0  0  0  0  0
    7.5796  -14.8763   23.7805 C   0  0  0  0  0  0  0  0  0  0  0  0
    6.5126  -15.3901   23.4207 O   0  0  0  0  0  0  0  0  0  0  0  0
    7.8172  -12.5629   20.3165 N   0  0  0  0  0  0  0  0  0  0  0  0
    7.8547  -13.9607   20.2161 C   0  0  0  0  0  0  0  0  0  0  0  0
    6.8044  -14.5949   19.9573 O   0  0  0  0  0  0  0  0  0  0  0  0
    9.1182  -14.7016   20.4106 C   0  0  0  0  0  0  0  0  0  0  0  0
    9.0635  -15.3952   21.7638 C   0  0  2  0  0  0  0  0  0  0  0  0
    8.6015  -14.6013   22.8464 N   0  0  0  0  0  0  0  0  0  0  0  0
   10.1967  -16.2842   22.0227 C   0  0  0  0  0  0  0  0  0  0  0  0
   10.5786  -17.0350   21.0702 O   0  0  0  0  0  0  0  0  0  0  0  0
   13.4078  -16.4031   21.4208 N   0  0  0  0  0  0  0  0  0  0  0  0
   13.9613  -16.1738   22.7274 C   0  0  0  0  0  0  0  0  0  0  0  0
   15.0592  -15.5977   22.8545 O   0  0  0  0  0  0  0  0  0  0  0  0
   13.1876  -16.6402   23.8866 C   0  0  0  0  0  0  0  0  0  0  0  0
   11.9267  -17.3942   23.4852 C   0  0  2  0  0  0  0  0  0  0  0  0
   10.9231  -16.4042   23.2239 N   0  0  0  0  0  0  0  0  0  0  0  0
   11.5922  -18.3284   24.5664 C   0  0  0  0  0  0  0  0  0  0  0  0
   12.4816  -19.3436   24.9027 O   0  0  0  0  0  0  0  0  0  0  0  0
   10.5328  -18.2758   25.2248 O   0  0  0  0  0  0  0  0  0  0  0  0
  1  2  1  0
  2  3  1  0
  3  4  1  0
  5  4  1  0
  5  7  1  0
  5  6  1  6
  7  8  2  0
  9 10  1  0
 10 11  2  0
 12 10  1  0
 13 12  1  6
 14 13  1  0
 14  7  1  0
 15 13  1  0
 15 16  2  0
 17 18  1  0
 18 20  1  0
 19 18  2  0
 21 20  1  1
 21 22  1  0
 21 23  1  0
 22 15  1  0
 23 24  1  0
 25 23  2  0
M  END
$$$$
