MNN.pdb
     RDKit          3D

 25 24  0  0  1  0  0  0  0  0999 V2000
    8.5523  -12.0671   27.1679 C   0  0  0  0  0  0  0  0  0  0  0  0
    6.8126  -12.5153   27.3436 S   0  0  0  0  0  0  0  0  0  0  0  0
    6.3009  -13.8472   26.3067 C   0  0  0  0  0  0  0  0  0  0  0  0
    7.2837  -14.5739   25.4926 C   0  0  0  0  0  0  0  0  0  0  0  0
    6.8570  -15.6435   24.5705 C   0  0  2  0  0  0  0  0  0  0  0  0
    6.2649  -16.7888   25.2684 N   0  0  0  0  0  0  0  0  0  0  0  0
    8.1093  -16.1555   23.8527 C   0  0  0  0  0  0  0  0  0  0  0  0
    8.6961  -17.1474   24.3039 O   0  0  0  0  0  0  0  0  0  0  0  0
   12.2019  -14.1442   19.7055 N   0  0  0  0  0  0  0  0  0  0  0  0
   11.3109  -15.1192   20.1756 C   0  0  0  0  0  0  0  0  0  0  0  0
   11.5919  -16.3342   20.0456 O   0  0  0  0  0  0  0  0  0  0  0  0
   10.0406  -14.7357   20.8255 C   0  0  0  0  0  0  0  0  0  0  0  0
    9.8306  -15.6346   22.0350 C   0  0  2  0  0  0  0  0  0  0  0  0
    8.5802  -15.5010   22.6941 N   0  0  0  0  0  0  0  0  0  0  0  0
   11.0176  -15.7846   22.8777 C   0  0  0  0  0  0  0  0  0  0  0  0
   11.3840  -14.7727   23.5549 O   0  0  0  0  0  0  0  0  0  0  0  0
   11.0613  -19.3231   26.1271 N   0  0  0  0  0  0  0  0  0  0  0  0
   12.1490  -18.4140   25.8890 C   0  0  0  0  0  0  0  0  0  0  0  0
   12.5215  -17.6293   26.7828 O   0  0  0  0  0  0  0  0  0  0  0  0
   12.7914  -18.4512   24.5677 C   0  0  0  0  0  0  0  0  0  0  0  0
   12.9125  -17.0710   23.9354 C   0  0  2  0  0  0  0  0  0  0  0  0
   11.8116  -16.9389   23.0263 N   0  0  0  0  0  0  0  0  0  0  0  0
   14.2349  -16.9736   23.3068 C   0  0  0  0  0  0  0  0  0  0  0  0
   14.3349  -16.7289   21.9411 O   0  0  0  0  0  0  0  0  0  0  0  0
   15.3095  -17.1003   23.9296 O   0  0  0  0  0  0  0  0  0  0  0  0
  1  2  1  0
  2  3  1  0
  3  4  1  0
  5  4  1  0
  5  7  1  0
  5  6  1  1
  7  8  2  0
  9 10  1  0
 10 11  2  0
 12 10  1  0
 13 12  1  1
 14 13  1  0
 14  7  1  0
 15 13  1  0
 15 16  2  0
 17 18  1  0
 18 20  1  0
 19 18  2  0
 21 20  1  6
 21 22  1  0
 21 23  1  0
 22 15  1  0
 23 24  1  0
 25 23  2  0
M  END
$$$$
