MNN.pdb
     RDKit          3D

 25 24  0  0  1  0  0  0  0  0999 V2000
    7.2738  -11.6366   26.5887 C   0  0  0  0  0  0  0  0  0  0  0  0
    5.7418  -12.5845   26.7024 S   0  0  0  0  0  0  0  0  0  0  0  0
    5.6717  -13.9771   25.6223 C   0  0  0  0  0  0  0  0  0  0  0  0
    6.8803  -14.7646   25.3470 C   0  0  0  0  0  0  0  0  0  0  0  0
    6.8586  -15.8607   24.3599 C   0  0  2  0  0  0  0  0  0  0  0  0
    5.9036  -16.9169   24.7086 N   0  0  0  0  0  0  0  0  0  0  0  0
    8.2504  -16.4997   24.3547 C   0  0  0  0  0  0  0  0  0  0  0  0
    8.4395  -17.5310   25.0123 O   0  0  0  0  0  0  0  0  0  0  0  0
   12.9282  -17.4754   21.5442 N   0  0  0  0  0  0  0  0  0  0  0  0
   12.7676  -16.2932   22.2804 C   0  0  0  0  0  0  0  0  0  0  0  0
   13.7544  -15.7825   22.8614 O   0  0  0  0  0  0  0  0  0  0  0  0
   11.4480  -15.6364   22.3823 C   0  0  0  0  0  0  0  0  0  0  0  0
   10.6398  -16.3489   23.4567 C   0  0  2  0  0  0  0  0  0  0  0  0
    9.2962  -15.9157   23.6079 N   0  0  0  0  0  0  0  0  0  0  0  0
   11.3931  -16.6297   24.6795 C   0  0  0  0  0  0  0  0  0  0  0  0
   12.4963  -17.2496   24.5556 O   0  0  0  0  0  0  0  0  0  0  0  0
    9.3658  -14.1735   28.0818 N   0  0  0  0  0  0  0  0  0  0  0  0
   10.7506  -14.5552   28.0287 C   0  0  0  0  0  0  0  0  0  0  0  0
   11.6236  -13.7189   27.7254 O   0  0  0  0  0  0  0  0  0  0  0  0
   11.0852  -15.9512   28.3436 C   0  0  0  0  0  0  0  0  0  0  0  0
   11.7464  -16.6732   27.1770 C   0  0  2  0  0  0  0  0  0  0  0  0
   11.0302  -16.2861   25.9967 N   0  0  0  0  0  0  0  0  0  0  0  0
   11.7193  -18.1130   27.4595 C   0  0  0  0  0  0  0  0  0  0  0  0
   12.4177  -18.6164   28.5521 O   0  0  0  0  0  0  0  0  0  0  0  0
   11.0961  -18.9438   26.7666 O   0  0  0  0  0  0  0  0  0  0  0  0
  1  2  1  0
  2  3  1  0
  3  4  1  0
  5  4  1  0
  5  7  1  0
  5  6  1  1
  7  8  2  0
  9 10  1  0
 10 11  2  0
 12 10  1  0
 13 12  1  1
 14 13  1  0
 14  7  1  0
 15 13  1  0
 15 16  2  0
 17 18  1  0
 18 20  1  0
 19 18  2  0
 21 20  1  1
 21 22  1  0
 21 23  1  0
 22 15  1  0
 23 24  1  0
 25 23  2  0
M  END
$$$$
