MNN.pdb
     RDKit          3D

 25 24  0  0  1  0  0  0  0  0999 V2000
    6.2967  -10.4632   26.5236 C   0  0  0  0  0  0  0  0  0  0  0  0
    6.9674  -12.0385   27.0954 S   0  0  0  0  0  0  0  0  0  0  0  0
    5.9713  -13.4373   26.6924 C   0  0  0  0  0  0  0  0  0  0  0  0
    6.3219  -14.2946   25.5526 C   0  0  0  0  0  0  0  0  0  0  0  0
    7.6681  -14.8871   25.4397 C   0  0  2  0  0  0  0  0  0  0  0  0
    8.7357  -13.8864   25.5299 N   0  0  0  0  0  0  0  0  0  0  0  0
    7.7713  -15.5277   24.0524 C   0  0  0  0  0  0  0  0  0  0  0  0
    6.9711  -16.4195   23.7424 O   0  0  0  0  0  0  0  0  0  0  0  0
    7.5328  -12.9521   20.6165 N   0  0  0  0  0  0  0  0  0  0  0  0
    7.7282  -14.3401   20.6412 C   0  0  0  0  0  0  0  0  0  0  0  0
    6.7376  -15.1088   20.6275 O   0  0  0  0  0  0  0  0  0  0  0  0
    9.0891  -14.9141   20.6825 C   0  0  0  0  0  0  0  0  0  0  0  0
    9.2265  -15.7298   21.9596 C   0  0  2  0  0  0  0  0  0  0  0  0
    8.7662  -15.1011   23.1465 N   0  0  0  0  0  0  0  0  0  0  0  0
   10.4725  -16.4922   22.0472 C   0  0  0  0  0  0  0  0  0  0  0  0
   10.7628  -17.2499   21.0683 O   0  0  0  0  0  0  0  0  0  0  0  0
   13.6347  -15.8748   21.4376 N   0  0  0  0  0  0  0  0  0  0  0  0
   14.2761  -15.8822   22.7240 C   0  0  0  0  0  0  0  0  0  0  0  0
   15.3146  -15.2199   22.9141 O   0  0  0  0  0  0  0  0  0  0  0  0
   13.6625  -16.6911   23.7866 C   0  0  0  0  0  0  0  0  0  0  0  0
   12.4346  -17.4542   23.3078 C   0  0  2  0  0  0  0  0  0  0  0  0
   11.4003  -16.4817   23.1075 N   0  0  0  0  0  0  0  0  0  0  0  0
   12.1186  -18.4804   24.3081 C   0  0  0  0  0  0  0  0  0  0  0  0
   11.6784  -18.1014   25.5720 O   0  0  0  0  0  0  0  0  0  0  0  0
   12.2215  -19.7069   24.0992 O   0  0  0  0  0  0  0  0  0  0  0  0
  1  2  1  0
  2  3  1  0
  3  4  1  0
  5  4  1  0
  5  7  1  0
  5  6  1  6
  7  8  2  0
  9 10  1  0
 10 11  2  0
 12 10  1  0
 13 12  1  6
 14 13  1  0
 14  7  1  0
 15 13  1  0
 15 16  2  0
 17 18  1  0
 18 20  1  0
 19 18  2  0
 21 20  1  1
 21 22  1  0
 21 23  1  0
 22 15  1  0
 23 24  1  0
 25 23  2  0
M  END
$$$$
