MNN.pdb
     RDKit          3D

 25 24  0  0  1  0  0  0  0  0999 V2000
    8.6620  -11.7304   19.3307 C   0  0  0  0  0  0  0  0  0  0  0  0
    7.4598  -12.7874   20.1650 S   0  0  0  0  0  0  0  0  0  0  0  0
    7.3935  -14.4369   19.5437 C   0  0  0  0  0  0  0  0  0  0  0  0
    8.6087  -15.0896   19.0397 C   0  0  0  0  0  0  0  0  0  0  0  0
    9.4736  -15.8740   19.9413 C   0  0  2  0  0  0  0  0  0  0  0  0
    9.6498  -15.2383   21.2505 N   0  0  0  0  0  0  0  0  0  0  0  0
   10.8586  -15.9535   19.2924 C   0  0  0  0  0  0  0  0  0  0  0  0
   11.0060  -16.6436   18.2757 O   0  0  0  0  0  0  0  0  0  0  0  0
   13.7251  -14.9615   17.1001 N   0  0  0  0  0  0  0  0  0  0  0  0
   14.2721  -14.0347   17.9986 C   0  0  0  0  0  0  0  0  0  0  0  0
   14.8316  -13.0006   17.5630 O   0  0  0  0  0  0  0  0  0  0  0  0
   14.1986  -14.2581   19.4573 C   0  0  0  0  0  0  0  0  0  0  0  0
   13.3375  -15.4866   19.7112 C   0  0  2  0  0  0  0  0  0  0  0  0
   11.9452  -15.2465   19.8510 N   0  0  0  0  0  0  0  0  0  0  0  0
   13.9427  -16.4593   20.6216 C   0  0  0  0  0  0  0  0  0  0  0  0
   14.9182  -17.1442   20.1789 O   0  0  0  0  0  0  0  0  0  0  0  0
   16.0505  -14.6996   22.8367 N   0  0  0  0  0  0  0  0  0  0  0  0
   16.1764  -16.1263   22.9579 C   0  0  0  0  0  0  0  0  0  0  0  0
   17.1369  -16.7211   22.4315 O   0  0  0  0  0  0  0  0  0  0  0  0
   15.1403  -16.8397   23.7179 C   0  0  0  0  0  0  0  0  0  0  0  0
   14.2162  -17.6570   22.8250 C   0  0  2  0  0  0  0  0  0  0  0  0
   13.5624  -16.7268   21.9515 N   0  0  0  0  0  0  0  0  0  0  0  0
   13.3085  -18.4211   23.6886 C   0  0  0  0  0  0  0  0  0  0  0  0
   11.9344  -18.2301   23.5880 O   0  0  0  0  0  0  0  0  0  0  0  0
   13.6941  -19.2547   24.5342 O   0  0  0  0  0  0  0  0  0  0  0  0
  1  2  1  0
  2  3  1  0
  3  4  1  0
  5  4  1  0
  5  7  1  0
  5  6  1  1
  7  8  2  0
  9 10  1  0
 10 11  2  0
 12 10  1  0
 13 12  1  1
 14 13  1  0
 14  7  1  0
 15 13  1  0
 15 16  2  0
 17 18  1  0
 18 20  1  0
 19 18  2  0
 21 20  1  1
 21 22  1  0
 21 23  1  0
 22 15  1  0
 23 24  1  0
 25 23  2  0
M  END
$$$$
