MNN.pdb
     RDKit          3D

 25 24  0  0  1  0  0  0  0  0999 V2000
    5.9473  -11.8499   28.3515 C   0  0  0  0  0  0  0  0  0  0  0  0
    7.1584  -12.0321   27.0254 S   0  0  0  0  0  0  0  0  0  0  0  0
    6.4683  -12.5251   25.4789 C   0  0  0  0  0  0  0  0  0  0  0  0
    6.4034  -13.9463   25.1144 C   0  0  0  0  0  0  0  0  0  0  0  0
    7.6232  -14.6855   24.7379 C   0  0  2  0  0  0  0  0  0  0  0  0
    8.8398  -13.8807   24.8837 N   0  0  0  0  0  0  0  0  0  0  0  0
    7.5003  -15.0461   23.2545 C   0  0  0  0  0  0  0  0  0  0  0  0
    6.6051  -15.8228   22.8980 O   0  0  0  0  0  0  0  0  0  0  0  0
    7.2955  -12.5739   19.4602 N   0  0  0  0  0  0  0  0  0  0  0  0
    7.6355  -13.9251   19.6147 C   0  0  0  0  0  0  0  0  0  0  0  0
    6.7510  -14.8067   19.5023 O   0  0  0  0  0  0  0  0  0  0  0  0
    9.0262  -14.3286   19.9085 C   0  0  0  0  0  0  0  0  0  0  0  0
    9.0311  -15.1206   21.2076 C   0  0  2  0  0  0  0  0  0  0  0  0
    8.3977  -14.4958   22.3141 N   0  0  0  0  0  0  0  0  0  0  0  0
   10.2849  -15.8289   21.4677 C   0  0  0  0  0  0  0  0  0  0  0  0
   10.7759  -16.5144   20.5160 O   0  0  0  0  0  0  0  0  0  0  0  0
   15.3154  -16.7240   22.7978 N   0  0  0  0  0  0  0  0  0  0  0  0
   14.4765  -16.3324   23.8974 C   0  0  0  0  0  0  0  0  0  0  0  0
   14.8322  -16.5535   25.0712 O   0  0  0  0  0  0  0  0  0  0  0  0
   13.2031  -15.6704   23.5809 C   0  0  0  0  0  0  0  0  0  0  0  0
   12.2093  -16.6043   22.9029 C   0  0  2  0  0  0  0  0  0  0  0  0
   11.0204  -15.8376   22.6694 N   0  0  0  0  0  0  0  0  0  0  0  0
   12.0186  -17.7723   23.7706 C   0  0  0  0  0  0  0  0  0  0  0  0
   12.7871  -18.9145   23.5712 O   0  0  0  0  0  0  0  0  0  0  0  0
   11.1891  -17.8154   24.7027 O   0  0  0  0  0  0  0  0  0  0  0  0
  1  2  1  0
  2  3  1  0
  3  4  1  0
  5  4  1  0
  5  7  1  0
  5  6  1  6
  7  8  2  0
  9 10  1  0
 10 11  2  0
 12 10  1  0
 13 12  1  6
 14 13  1  0
 14  7  1  0
 15 13  1  0
 15 16  2  0
 17 18  1  0
 18 20  1  0
 19 18  2  0
 21 20  1  1
 21 22  1  0
 21 23  1  0
 22 15  1  0
 23 24  1  0
 25 23  2  0
M  END
$$$$
