MNN.pdb
     RDKit          3D

 25 24  0  0  1  0  0  0  0  0999 V2000
    7.1001  -11.2667   27.5845 C   0  0  0  0  0  0  0  0  0  0  0  0
    7.2323  -12.5412   26.3131 S   0  0  0  0  0  0  0  0  0  0  0  0
    7.7270  -14.1210   26.9218 C   0  0  0  0  0  0  0  0  0  0  0  0
    7.9060  -15.2493   25.9989 C   0  0  0  0  0  0  0  0  0  0  0  0
    6.8021  -15.6942   25.1274 C   0  0  2  0  0  0  0  0  0  0  0  0
    6.2484  -16.9897   25.5328 N   0  0  0  0  0  0  0  0  0  0  0  0
    7.3751  -15.8736   23.7185 C   0  0  0  0  0  0  0  0  0  0  0  0
    7.8678  -16.9650   23.4057 O   0  0  0  0  0  0  0  0  0  0  0  0
    8.4071  -12.7242   18.4682 N   0  0  0  0  0  0  0  0  0  0  0  0
    7.8926  -13.7482   19.2757 C   0  0  0  0  0  0  0  0  0  0  0  0
    7.7338  -14.8970   18.7989 O   0  0  0  0  0  0  0  0  0  0  0  0
    7.5337  -13.4942   20.6863 C   0  0  0  0  0  0  0  0  0  0  0  0
    7.9267  -14.7131   21.5078 C   0  0  2  0  0  0  0  0  0  0  0  0
    7.3372  -14.8059   22.7960 N   0  0  0  0  0  0  0  0  0  0  0  0
    9.3389  -15.0787   21.3911 C   0  0  0  0  0  0  0  0  0  0  0  0
    9.7934  -15.2847   20.2217 O   0  0  0  0  0  0  0  0  0  0  0  0
   14.2896  -16.2393   22.3392 N   0  0  0  0  0  0  0  0  0  0  0  0
   13.8063  -15.5050   23.4765 C   0  0  0  0  0  0  0  0  0  0  0  0
   14.5946  -15.1313   24.3666 O   0  0  0  0  0  0  0  0  0  0  0  0
   12.3662  -15.2190   23.5411 C   0  0  0  0  0  0  0  0  0  0  0  0
   11.6234  -15.6627   22.2878 C   0  0  2  0  0  0  0  0  0  0  0  0
   10.2651  -15.2303   22.4419 N   0  0  0  0  0  0  0  0  0  0  0  0
   11.7874  -17.1147   22.1524 C   0  0  0  0  0  0  0  0  0  0  0  0
   10.8792  -17.9729   22.7636 O   0  0  0  0  0  0  0  0  0  0  0  0
   12.7135  -17.6507   21.5093 O   0  0  0  0  0  0  0  0  0  0  0  0
  1  2  1  0
  2  3  1  0
  3  4  1  0
  5  4  1  0
  5  7  1  0
  5  6  1  1
  7  8  2  0
  9 10  1  0
 10 11  2  0
 12 10  1  0
 13 12  1  1
 14 13  1  0
 14  7  1  0
 15 13  1  0
 15 16  2  0
 17 18  1  0
 18 20  1  0
 19 18  2  0
 21 20  1  1
 21 22  1  0
 21 23  1  0
 22 15  1  0
 23 24  1  0
 25 23  2  0
M  END
$$$$
