MNN.pdb
     RDKit          3D

 25 24  0  0  1  0  0  0  0  0999 V2000
    7.6300  -11.8581   20.9625 C   0  0  0  0  0  0  0  0  0  0  0  0
    7.1076  -12.2562   19.2811 S   0  0  0  0  0  0  0  0  0  0  0  0
    7.4164  -13.9261   18.8045 C   0  0  0  0  0  0  0  0  0  0  0  0
    8.7570  -14.5059   18.9577 C   0  0  0  0  0  0  0  0  0  0  0  0
    9.5549  -14.8852   17.7764 C   0  0  2  0  0  0  0  0  0  0  0  0
    8.9206  -15.9405   16.9806 N   0  0  0  0  0  0  0  0  0  0  0  0
   10.8861  -15.4469   18.2843 C   0  0  0  0  0  0  0  0  0  0  0  0
   10.9125  -16.5882   18.7622 O   0  0  0  0  0  0  0  0  0  0  0  0
   16.4105  -15.5376   18.4780 N   0  0  0  0  0  0  0  0  0  0  0  0
   15.6886  -14.4724   19.0344 C   0  0  0  0  0  0  0  0  0  0  0  0
   16.0970  -13.9253   20.0861 O   0  0  0  0  0  0  0  0  0  0  0  0
   14.4487  -13.9818   18.3978 C   0  0  0  0  0  0  0  0  0  0  0  0
   13.2845  -14.8177   18.9089 C   0  0  2  0  0  0  0  0  0  0  0  0
   12.0611  -14.6687   18.2041 N   0  0  0  0  0  0  0  0  0  0  0  0
   13.2093  -14.9034   20.3678 C   0  0  0  0  0  0  0  0  0  0  0  0
   12.2097  -14.3579   20.9334 O   0  0  0  0  0  0  0  0  0  0  0  0
   10.8725  -15.4062   23.1288 N   0  0  0  0  0  0  0  0  0  0  0  0
   11.5941  -16.6233   23.3818 C   0  0  0  0  0  0  0  0  0  0  0  0
   11.2726  -17.3602   24.3342 O   0  0  0  0  0  0  0  0  0  0  0  0
   12.7081  -16.9545   22.4822 C   0  0  0  0  0  0  0  0  0  0  0  0
   13.8512  -15.9521   22.5706 C   0  0  2  0  0  0  0  0  0  0  0  0
   14.1311  -15.5306   21.2290 N   0  0  0  0  0  0  0  0  0  0  0  0
   14.9764  -16.6048   23.2499 C   0  0  0  0  0  0  0  0  0  0  0  0
   15.4254  -16.1137   24.4714 O   0  0  0  0  0  0  0  0  0  0  0  0
   15.5787  -17.5991   22.7945 O   0  0  0  0  0  0  0  0  0  0  0  0
  1  2  1  0
  2  3  1  0
  3  4  1  0
  5  4  1  0
  5  7  1  0
  5  6  1  1
  7  8  2  0
  9 10  1  0
 10 11  2  0
 12 10  1  0
 13 12  1  1
 14 13  1  0
 14  7  1  0
 15 13  1  0
 15 16  2  0
 17 18  1  0
 18 20  1  0
 19 18  2  0
 21 20  1  6
 21 22  1  0
 21 23  1  0
 22 15  1  0
 23 24  1  0
 25 23  2  0
M  END
$$$$
