MNN.pdb
     RDKit          3D

 25 24  0  0  1  0  0  0  0  0999 V2000
    8.4431  -11.3380   20.0324 C   0  0  0  0  0  0  0  0  0  0  0  0
    7.2857  -12.5923   19.4447 S   0  0  0  0  0  0  0  0  0  0  0  0
    8.0248  -13.8503   18.4536 C   0  0  0  0  0  0  0  0  0  0  0  0
    9.3165  -14.4344   18.8373 C   0  0  0  0  0  0  0  0  0  0  0  0
    9.9558  -15.4678   18.0009 C   0  0  2  0  0  0  0  0  0  0  0  0
    9.0927  -16.6326   17.7829 N   0  0  0  0  0  0  0  0  0  0  0  0
   11.1946  -15.9634   18.7529 C   0  0  0  0  0  0  0  0  0  0  0  0
   11.1598  -17.0723   19.3013 O   0  0  0  0  0  0  0  0  0  0  0  0
   14.7752  -13.7968   16.6328 N   0  0  0  0  0  0  0  0  0  0  0  0
   14.9455  -14.8363   17.5579 C   0  0  0  0  0  0  0  0  0  0  0  0
   15.2474  -15.9849   17.1554 O   0  0  0  0  0  0  0  0  0  0  0  0
   14.7748  -14.5985   19.0061 C   0  0  0  0  0  0  0  0  0  0  0  0
   13.5803  -15.4091   19.4872 C   0  0  2  0  0  0  0  0  0  0  0  0
   12.3549  -15.1619   18.8142 N   0  0  0  0  0  0  0  0  0  0  0  0
   13.5228  -15.5786   20.9396 C   0  0  0  0  0  0  0  0  0  0  0  0
   13.1776  -14.5693   21.6315 O   0  0  0  0  0  0  0  0  0  0  0  0
   16.5146  -17.5284   23.1859 N   0  0  0  0  0  0  0  0  0  0  0  0
   16.2336  -16.1736   23.5754 C   0  0  0  0  0  0  0  0  0  0  0  0
   17.1587  -15.4111   23.9163 O   0  0  0  0  0  0  0  0  0  0  0  0
   14.8310  -15.7352   23.5533 C   0  0  0  0  0  0  0  0  0  0  0  0
   13.8802  -16.8344   23.0982 C   0  0  2  0  0  0  0  0  0  0  0  0
   13.8101  -16.7495   21.6687 N   0  0  0  0  0  0  0  0  0  0  0  0
   12.5970  -16.6373   23.7825 C   0  0  0  0  0  0  0  0  0  0  0  0
   11.4570  -16.3418   23.0422 O   0  0  0  0  0  0  0  0  0  0  0  0
   12.4519  -16.7170   25.0199 O   0  0  0  0  0  0  0  0  0  0  0  0
  1  2  1  0
  2  3  1  0
  3  4  1  0
  5  4  1  0
  5  7  1  0
  5  6  1  1
  7  8  2  0
  9 10  1  0
 10 11  2  0
 12 10  1  0
 13 12  1  1
 14 13  1  0
 14  7  1  0
 15 13  1  0
 15 16  2  0
 17 18  1  0
 18 20  1  0
 19 18  2  0
 21 20  1  1
 21 22  1  0
 21 23  1  0
 22 15  1  0
 23 24  1  0
 25 23  2  0
M  END
$$$$
