MNN.pdb
     RDKit          3D

 25 24  0  0  1  0  0  0  0  0999 V2000
    7.2500  -11.2000   20.3677 C   0  0  0  0  0  0  0  0  0  0  0  0
    6.6551  -12.4707   19.2321 S   0  0  0  0  0  0  0  0  0  0  0  0
    7.4575  -14.0314   19.4091 C   0  0  0  0  0  0  0  0  0  0  0  0
    8.2518  -14.3259   20.6088 C   0  0  0  0  0  0  0  0  0  0  0  0
    8.8457  -15.6609   20.8120 C   0  0  2  0  0  0  0  0  0  0  0  0
    8.0770  -16.7267   20.1620 N   0  0  0  0  0  0  0  0  0  0  0  0
    8.8242  -15.9473   22.3163 C   0  0  0  0  0  0  0  0  0  0  0  0
    9.1922  -15.0635   23.1006 O   0  0  0  0  0  0  0  0  0  0  0  0
    6.8863  -17.8313   26.9526 N   0  0  0  0  0  0  0  0  0  0  0  0
    7.0770  -18.7653   25.9247 C   0  0  0  0  0  0  0  0  0  0  0  0
    7.3185  -19.9627   26.2081 O   0  0  0  0  0  0  0  0  0  0  0  0
    6.9969  -18.3593   24.5063 C   0  0  0  0  0  0  0  0  0  0  0  0
    8.3013  -17.6720   24.1302 C   0  0  2  0  0  0  0  0  0  0  0  0
    8.3888  -17.2025   22.7932 N   0  0  0  0  0  0  0  0  0  0  0  0
    9.4926  -18.3073   24.6948 C   0  0  0  0  0  0  0  0  0  0  0  0
    9.4823  -19.5742   24.8031 O   0  0  0  0  0  0  0  0  0  0  0  0
   12.4453  -16.0363   23.6105 N   0  0  0  0  0  0  0  0  0  0  0  0
   13.2760  -17.0181   24.2525 C   0  0  0  0  0  0  0  0  0  0  0  0
   14.2239  -17.5419   23.6356 O   0  0  0  0  0  0  0  0  0  0  0  0
   12.9636  -17.3697   25.6448 C   0  0  0  0  0  0  0  0  0  0  0  0
   11.7803  -18.3218   25.7579 C   0  0  2  0  0  0  0  0  0  0  0  0
   10.6662  -17.6661   25.1379 N   0  0  0  0  0  0  0  0  0  0  0  0
   11.5861  -18.6388   27.1775 C   0  0  0  0  0  0  0  0  0  0  0  0
   12.5807  -19.3137   27.8775 O   0  0  0  0  0  0  0  0  0  0  0  0
   10.5593  -18.3378   27.8207 O   0  0  0  0  0  0  0  0  0  0  0  0
  1  2  1  0
  2  3  1  0
  3  4  1  0
  5  4  1  0
  5  7  1  0
  5  6  1  6
  7  8  2  0
  9 10  1  0
 10 11  2  0
 12 10  1  0
 13 12  1  6
 14 13  1  0
 14  7  1  0
 15 13  1  0
 15 16  2  0
 17 18  1  0
 18 20  1  0
 19 18  2  0
 21 20  1  1
 21 22  1  0
 21 23  1  0
 22 15  1  0
 23 24  1  0
 25 23  2  0
M  END
$$$$
