MNN.pdb
     RDKit          3D

 25 24  0  0  1  0  0  0  0  0999 V2000
    7.2877  -10.9761   26.3880 C   0  0  0  0  0  0  0  0  0  0  0  0
    6.8090  -12.3534   27.4521 S   0  0  0  0  0  0  0  0  0  0  0  0
    6.2130  -13.7666   26.5812 C   0  0  0  0  0  0  0  0  0  0  0  0
    7.0188  -14.3760   25.5153 C   0  0  0  0  0  0  0  0  0  0  0  0
    6.5496  -15.5845   24.8113 C   0  0  2  0  0  0  0  0  0  0  0  0
    6.3729  -16.7294   25.7097 N   0  0  0  0  0  0  0  0  0  0  0  0
    7.6308  -15.9730   23.7986 C   0  0  0  0  0  0  0  0  0  0  0  0
    8.3653  -16.9379   24.0457 O   0  0  0  0  0  0  0  0  0  0  0  0
    7.6047  -12.2009   20.3340 N   0  0  0  0  0  0  0  0  0  0  0  0
    7.8751  -13.5710   20.2104 C   0  0  0  0  0  0  0  0  0  0  0  0
    7.0677  -14.3127   19.6020 O   0  0  0  0  0  0  0  0  0  0  0  0
    9.1023  -14.1571   20.7880 C   0  0  0  0  0  0  0  0  0  0  0  0
    8.7184  -15.4153   21.5526 C   0  0  2  0  0  0  0  0  0  0  0  0
    7.7801  -15.2374   22.6032 N   0  0  0  0  0  0  0  0  0  0  0  0
    9.8379  -16.3238   21.8032 C   0  0  0  0  0  0  0  0  0  0  0  0
    9.9051  -17.3765   21.0932 O   0  0  0  0  0  0  0  0  0  0  0  0
   12.6855  -18.9197   21.0446 N   0  0  0  0  0  0  0  0  0  0  0  0
   13.1036  -17.6181   20.6002 C   0  0  0  0  0  0  0  0  0  0  0  0
   13.6624  -17.4791   19.4949 O   0  0  0  0  0  0  0  0  0  0  0  0
   12.8463  -16.4785   21.4918 C   0  0  0  0  0  0  0  0  0  0  0  0
   12.1048  -16.8815   22.7596 C   0  0  2  0  0  0  0  0  0  0  0  0
   10.8643  -16.1624   22.7547 N   0  0  0  0  0  0  0  0  0  0  0  0
   12.9726  -16.5887   23.9062 C   0  0  0  0  0  0  0  0  0  0  0  0
   13.4695  -17.6315   24.6811 O   0  0  0  0  0  0  0  0  0  0  0  0
   13.3055  -15.4346   24.2467 O   0  0  0  0  0  0  0  0  0  0  0  0
  1  2  1  0
  2  3  1  0
  3  4  1  0
  5  4  1  0
  5  7  1  0
  5  6  1  1
  7  8  2  0
  9 10  1  0
 10 11  2  0
 12 10  1  0
 13 12  1  1
 14 13  1  0
 14  7  1  0
 15 13  1  0
 15 16  2  0
 17 18  1  0
 18 20  1  0
 19 18  2  0
 21 20  1  6
 21 22  1  0
 21 23  1  0
 22 15  1  0
 23 24  1  0
 25 23  2  0
M  END
$$$$
