CKF.pdb
     RDKit          3D

 27 27  0  0  1  0  0  0  0  0999 V2000
    7.1577  -13.8270   18.5304 N   0  0  0  0  0  0  0  0  0  0  0  0
    8.4783  -14.2653   18.8999 C   0  0  1  0  0  0  0  0  0  0  0  0
    9.3944  -13.1073   19.2354 C   0  0  0  0  0  0  0  0  0  0  0  0
    8.4775  -11.5800   19.5142 S   0  0  0  0  0  0  0  0  0  0  0  0
    8.3652  -15.1144   20.1243 C   0  0  0  0  0  0  0  0  0  0  0  0
    7.3912  -14.9705   20.9329 O   0  0  0  0  0  0  0  0  0  0  0  0
    9.3504  -16.0881   20.3874 N   0  0  0  0  0  0  0  0  0  0  0  0
    9.2333  -17.0946   21.4474 C   0  0  1  0  0  0  0  0  0  0  0  0
    9.9377  -18.2987   20.9115 C   0  0  0  0  0  0  0  0  0  0  0  0
    9.2666  -19.0353   19.8142 C   0  0  0  0  0  0  0  0  0  0  0  0
   10.1468  -20.2463   19.4855 C   0  0  0  0  0  0  0  0  0  0  0  0
    9.4687  -21.1216   18.4487 C   0  0  0  0  0  0  0  0  0  0  0  0
   10.3504  -22.2512   18.1806 N   0  0  0  0  0  0  0  0  0  0  0  0
    9.8038  -16.5049   22.6586 C   0  0  0  0  0  0  0  0  0  0  0  0
   10.8835  -15.8145   22.6275 O   0  0  0  0  0  0  0  0  0  0  0  0
    9.2333  -16.6322   23.9539 N   0  0  0  0  0  0  0  0  0  0  0  0
    9.9161  -16.0801   25.1430 C   0  0  1  0  0  0  0  0  0  0  0  0
    8.8332  -15.6902   26.0933 C   0  0  0  0  0  0  0  0  0  0  0  0
    9.4323  -15.1905   27.3473 C   0  0  0  0  0  0  0  0  0  0  0  0
    9.5731  -13.8386   27.5930 C   0  0  0  0  0  0  0  0  0  0  0  0
   10.1312  -13.3780   28.7675 C   0  0  0  0  0  0  0  0  0  0  0  0
   10.5627  -14.2696   29.7262 C   0  0  0  0  0  0  0  0  0  0  0  0
   10.4259  -15.6161   29.4888 C   0  0  0  0  0  0  0  0  0  0  0  0
    9.8726  -16.0879   28.3251 C   0  0  0  0  0  0  0  0  0  0  0  0
   10.8922  -17.0337   25.6693 C   0  0  0  0  0  0  0  0  0  0  0  0
   12.0877  -16.6437   25.8523 O   0  0  0  0  0  0  0  0  0  0  0  0
   10.6293  -18.3452   25.9933 O   0  0  0  0  0  0  0  0  0  0  0  0
  2  3  1  0
  2  5  1  0
  2  1  1  1
  4  3  1  0
  5  6  2  0
  7  8  1  0
  7  5  1  0
  8 14  1  0
  9 10  1  0
  8  9  1  6
 10 11  1  0
 12 11  1  0
 12 13  1  0
 14 15  2  0
 16 14  1  0
 16 17  1  0
 17 25  1  0
 17 18  1  1
 19 18  1  0
 20 19  2  0
 21 20  1  0
 22 21  2  0
 22 23  1  0
 23 24  2  0
 24 19  1  0
 25 26  2  0
 25 27  1  0
M  END
$$$$
