CKF.pdb
     RDKit          3D

 27 27  0  0  1  0  0  0  0  0999 V2000
    6.9252  -14.6231   18.7901 N   0  0  0  0  0  0  0  0  0  0  0  0
    8.1002  -14.4581   19.6056 C   0  0  1  0  0  0  0  0  0  0  0  0
    8.3187  -13.0160   20.0121 C   0  0  0  0  0  0  0  0  0  0  0  0
    8.8647  -11.9994   18.6267 S   0  0  0  0  0  0  0  0  0  0  0  0
    7.9172  -15.2524   20.8579 C   0  0  0  0  0  0  0  0  0  0  0  0
    6.8781  -15.1052   21.5804 O   0  0  0  0  0  0  0  0  0  0  0  0
    8.9087  -16.1773   21.2446 N   0  0  0  0  0  0  0  0  0  0  0  0
    8.8119  -17.0163   22.4435 C   0  0  1  0  0  0  0  0  0  0  0  0
    9.2198  -18.3805   21.9900 C   0  0  0  0  0  0  0  0  0  0  0  0
    9.3365  -19.4271   23.0332 C   0  0  0  0  0  0  0  0  0  0  0  0
    9.8366  -20.6977   22.3371 C   0  0  0  0  0  0  0  0  0  0  0  0
    9.9425  -21.8353   23.3349 C   0  0  0  0  0  0  0  0  0  0  0  0
   10.5194  -22.9795   22.6396 N   0  0  0  0  0  0  0  0  0  0  0  0
    9.6604  -16.3999   23.4634 C   0  0  0  0  0  0  0  0  0  0  0  0
   10.9151  -16.2166   23.2749 O   0  0  0  0  0  0  0  0  0  0  0  0
    9.1920  -15.9526   24.7283 N   0  0  0  0  0  0  0  0  0  0  0  0
   10.1381  -15.5900   25.8046 C   0  0  1  0  0  0  0  0  0  0  0  0
   10.1593  -14.0982   25.8461 C   0  0  0  0  0  0  0  0  0  0  0  0
    8.7968  -13.5915   26.1074 C   0  0  0  0  0  0  0  0  0  0  0  0
    8.4448  -13.0628   27.3340 C   0  0  0  0  0  0  0  0  0  0  0  0
    7.1712  -12.5888   27.5711 C   0  0  0  0  0  0  0  0  0  0  0  0
    6.2179  -12.6357   26.5766 C   0  0  0  0  0  0  0  0  0  0  0  0
    6.5607  -13.1605   25.3537 C   0  0  0  0  0  0  0  0  0  0  0  0
    7.8236  -13.6353   25.1043 C   0  0  0  0  0  0  0  0  0  0  0  0
    9.7688  -16.2422   27.0605 C   0  0  0  0  0  0  0  0  0  0  0  0
   10.4790  -16.0252   28.0917 O   0  0  0  0  0  0  0  0  0  0  0  0
    8.6975  -17.0886   27.2332 O   0  0  0  0  0  0  0  0  0  0  0  0
  2  3  1  0
  2  5  1  0
  2  1  1  6
  4  3  1  0
  5  6  2  0
  7  8  1  0
  7  5  1  0
  8 14  1  0
  9 10  1  0
  8  9  1  6
 10 11  1  0
 12 11  1  0
 12 13  1  0
 14 15  2  0
 16 14  1  0
 16 17  1  0
 17 25  1  0
 17 18  1  1
 19 18  1  0
 20 19  2  0
 21 20  1  0
 22 21  2  0
 22 23  1  0
 23 24  2  0
 24 19  1  0
 25 26  2  0
 25 27  1  0
M  END
$$$$
