CKF.pdb
     RDKit          3D

 27 27  0  0  1  0  0  0  0  0999 V2000
    6.5713  -13.7096   18.5724 N   0  0  0  0  0  0  0  0  0  0  0  0
    7.7880  -14.4441   18.8023 C   0  0  1  0  0  0  0  0  0  0  0  0
    9.0049  -13.5436   18.8325 C   0  0  0  0  0  0  0  0  0  0  0  0
    8.7603  -12.1138   19.9034 S   0  0  0  0  0  0  0  0  0  0  0  0
    7.6901  -15.1075   20.1376 C   0  0  0  0  0  0  0  0  0  0  0  0
    6.8191  -14.7368   20.9904 O   0  0  0  0  0  0  0  0  0  0  0  0
    8.5743  -16.1583   20.4572 N   0  0  0  0  0  0  0  0  0  0  0  0
    8.5257  -16.9035   21.7193 C   0  0  1  0  0  0  0  0  0  0  0  0
    8.9106  -18.3005   21.3540 C   0  0  0  0  0  0  0  0  0  0  0  0
    8.9104  -19.3035   22.4455 C   0  0  0  0  0  0  0  0  0  0  0  0
    9.3325  -20.6396   21.8243 C   0  0  0  0  0  0  0  0  0  0  0  0
    9.4613  -21.7008   22.9005 C   0  0  0  0  0  0  0  0  0  0  0  0
    8.7714  -22.8948   22.4271 N   0  0  0  0  0  0  0  0  0  0  0  0
    9.4178  -16.2167   22.6533 C   0  0  0  0  0  0  0  0  0  0  0  0
   10.1948  -15.2714   22.2710 O   0  0  0  0  0  0  0  0  0  0  0  0
    9.5083  -16.5177   24.0392 N   0  0  0  0  0  0  0  0  0  0  0  0
    9.2902  -15.4714   25.0603 C   0  0  1  0  0  0  0  0  0  0  0  0
    7.9715  -14.8516   24.7368 C   0  0  0  0  0  0  0  0  0  0  0  0
    7.6527  -13.8160   25.7403 C   0  0  0  0  0  0  0  0  0  0  0  0
    7.1011  -12.6028   25.3773 C   0  0  0  0  0  0  0  0  0  0  0  0
    6.8032  -11.6404   26.3197 C   0  0  0  0  0  0  0  0  0  0  0  0
    7.0539  -11.8763   27.6545 C   0  0  0  0  0  0  0  0  0  0  0  0
    7.6025  -13.0810   28.0232 C   0  0  0  0  0  0  0  0  0  0  0  0
    7.9037  -14.0470   27.0964 C   0  0  0  0  0  0  0  0  0  0  0  0
    9.4011  -16.0308   26.4071 C   0  0  0  0  0  0  0  0  0  0  0  0
   10.0581  -15.3855   27.2828 O   0  0  0  0  0  0  0  0  0  0  0  0
    8.8459  -17.2190   26.8241 O   0  0  0  0  0  0  0  0  0  0  0  0
  2  3  1  0
  2  5  1  0
  2  1  1  1
  4  3  1  0
  5  6  2  0
  7  8  1  0
  7  5  1  0
  8 14  1  0
  9 10  1  0
  8  9  1  6
 10 11  1  0
 12 11  1  0
 12 13  1  0
 14 15  2  0
 16 14  1  0
 16 17  1  0
 17 25  1  0
 17 18  1  6
 19 18  1  0
 20 19  2  0
 21 20  1  0
 22 21  2  0
 22 23  1  0
 23 24  2  0
 24 19  1  0
 25 26  2  0
 25 27  1  0
M  END
$$$$
