CKF.pdb
     RDKit          3D

 27 27  0  0  1  0  0  0  0  0999 V2000
    7.5218  -14.3282   18.6194 N   0  0  0  0  0  0  0  0  0  0  0  0
    8.4176  -14.1865   19.7375 C   0  0  1  0  0  0  0  0  0  0  0  0
    8.3142  -12.8224   20.3864 C   0  0  0  0  0  0  0  0  0  0  0  0
    8.9612  -11.5181   19.3227 S   0  0  0  0  0  0  0  0  0  0  0  0
    8.0443  -15.2012   20.7689 C   0  0  0  0  0  0  0  0  0  0  0  0
    6.8231  -15.4256   21.0544 O   0  0  0  0  0  0  0  0  0  0  0  0
    9.0583  -15.9197   21.4349 N   0  0  0  0  0  0  0  0  0  0  0  0
    8.7930  -16.9998   22.3907 C   0  0  1  0  0  0  0  0  0  0  0  0
    9.5741  -18.1657   21.8772 C   0  0  0  0  0  0  0  0  0  0  0  0
    9.0431  -18.8518   20.6752 C   0  0  0  0  0  0  0  0  0  0  0  0
   10.0047  -20.0019   20.3561 C   0  0  0  0  0  0  0  0  0  0  0  0
    9.5622  -20.7210   19.0959 C   0  0  0  0  0  0  0  0  0  0  0  0
    9.7304  -19.7985   17.9796 N   0  0  0  0  0  0  0  0  0  0  0  0
    9.1779  -16.5028   23.7117 C   0  0  0  0  0  0  0  0  0  0  0  0
   10.2841  -15.8836   23.9024 O   0  0  0  0  0  0  0  0  0  0  0  0
    8.3856  -16.6497   24.8822 N   0  0  0  0  0  0  0  0  0  0  0  0
    8.8585  -16.1450   26.1886 C   0  0  1  0  0  0  0  0  0  0  0  0
    7.6363  -15.7102   26.9267 C   0  0  0  0  0  0  0  0  0  0  0  0
    7.2736  -14.3382   26.5175 C   0  0  0  0  0  0  0  0  0  0  0  0
    8.1396  -13.2773   26.6970 C   0  0  0  0  0  0  0  0  0  0  0  0
    7.7960  -11.9984   26.3104 C   0  0  0  0  0  0  0  0  0  0  0  0
    6.5686  -11.7555   25.7320 C   0  0  0  0  0  0  0  0  0  0  0  0
    5.7016  -12.8060   25.5503 C   0  0  0  0  0  0  0  0  0  0  0  0
    6.0305  -14.0828   25.9301 C   0  0  0  0  0  0  0  0  0  0  0  0
    9.6714  -17.1522   26.8697 C   0  0  0  0  0  0  0  0  0  0  0  0
    9.5791  -18.3635   26.4970 O   0  0  0  0  0  0  0  0  0  0  0  0
   10.5485  -16.9034   27.9006 O   0  0  0  0  0  0  0  0  0  0  0  0
  2  3  1  0
  2  5  1  0
  2  1  1  6
  4  3  1  0
  5  6  2  0
  7  8  1  0
  7  5  1  0
  8 14  1  0
  9 10  1  0
  8  9  1  6
 10 11  1  0
 12 11  1  0
 12 13  1  0
 14 15  2  0
 16 14  1  0
 16 17  1  0
 17 25  1  0
 17 18  1  1
 19 18  1  0
 20 19  2  0
 21 20  1  0
 22 21  2  0
 22 23  1  0
 23 24  2  0
 24 19  1  0
 25 26  2  0
 25 27  1  0
M  END
$$$$
