CKF.pdb
     RDKit          3D

 27 27  0  0  1  0  0  0  0  0999 V2000
    7.2520  -15.7505   18.5953 N   0  0  0  0  0  0  0  0  0  0  0  0
    7.9013  -15.1595   19.7363 C   0  0  1  0  0  0  0  0  0  0  0  0
    7.6868  -13.6623   19.8070 C   0  0  0  0  0  0  0  0  0  0  0  0
    8.5930  -12.9143   21.1747 S   0  0  0  0  0  0  0  0  0  0  0  0
    7.3095  -15.7543   20.9728 C   0  0  0  0  0  0  0  0  0  0  0  0
    6.0467  -15.8097   21.1328 O   0  0  0  0  0  0  0  0  0  0  0  0
    8.1612  -16.2610   21.9757 N   0  0  0  0  0  0  0  0  0  0  0  0
    7.6802  -16.9647   23.1689 C   0  0  1  0  0  0  0  0  0  0  0  0
    7.8423  -18.4154   22.8491 C   0  0  0  0  0  0  0  0  0  0  0  0
    6.9032  -19.3559   23.5056 C   0  0  0  0  0  0  0  0  0  0  0  0
    6.1991  -20.1357   22.3896 C   0  0  0  0  0  0  0  0  0  0  0  0
    5.1208  -21.0286   22.9735 C   0  0  0  0  0  0  0  0  0  0  0  0
    5.7752  -22.0000   23.8417 N   0  0  0  0  0  0  0  0  0  0  0  0
    8.4624  -16.4669   24.3005 C   0  0  0  0  0  0  0  0  0  0  0  0
    9.7216  -16.2465   24.2039 O   0  0  0  0  0  0  0  0  0  0  0  0
    7.9202  -16.1830   25.5830 N   0  0  0  0  0  0  0  0  0  0  0  0
    8.7908  -15.7583   26.6996 C   0  0  1  0  0  0  0  0  0  0  0  0
    7.9104  -15.0094   27.6438 C   0  0  0  0  0  0  0  0  0  0  0  0
    7.4441  -13.7636   27.0022 C   0  0  0  0  0  0  0  0  0  0  0  0
    6.0999  -13.5038   26.8188 C   0  0  0  0  0  0  0  0  0  0  0  0
    5.6705  -12.3371   26.2211 C   0  0  0  0  0  0  0  0  0  0  0  0
    6.5863  -11.4004   25.7920 C   0  0  0  0  0  0  0  0  0  0  0  0
    7.9254  -11.6519   25.9710 C   0  0  0  0  0  0  0  0  0  0  0  0
    8.3662  -12.8081   26.5639 C   0  0  0  0  0  0  0  0  0  0  0  0
    9.4891  -16.9062   27.2775 C   0  0  0  0  0  0  0  0  0  0  0  0
    9.0080  -18.0679   27.0937 O   0  0  0  0  0  0  0  0  0  0  0  0
   10.6469  -16.8432   28.0188 O   0  0  0  0  0  0  0  0  0  0  0  0
  2  3  1  0
  2  5  1  0
  2  1  1  6
  4  3  1  0
  5  6  2  0
  7  8  1  0
  7  5  1  0
  8 14  1  0
  9 10  1  0
  8  9  1  6
 10 11  1  0
 12 11  1  0
 12 13  1  0
 14 15  2  0
 16 14  1  0
 16 17  1  0
 17 25  1  0
 17 18  1  1
 19 18  1  0
 20 19  2  0
 21 20  1  0
 22 21  2  0
 22 23  1  0
 23 24  2  0
 24 19  1  0
 25 26  2  0
 25 27  1  0
M  END
$$$$
