CKF.pdb
     RDKit          3D

 27 27  0  0  1  0  0  0  0  0999 V2000
    6.5249  -13.9874   19.5545 N   0  0  0  0  0  0  0  0  0  0  0  0
    7.8683  -14.2695   19.9886 C   0  0  1  0  0  0  0  0  0  0  0  0
    8.5916  -13.0262   20.4616 C   0  0  0  0  0  0  0  0  0  0  0  0
    7.5683  -12.0263   21.5590 S   0  0  0  0  0  0  0  0  0  0  0  0
    7.7990  -15.2131   21.1451 C   0  0  0  0  0  0  0  0  0  0  0  0
    6.7198  -15.3604   21.8060 O   0  0  0  0  0  0  0  0  0  0  0  0
    8.9445  -15.9503   21.5093 N   0  0  0  0  0  0  0  0  0  0  0  0
    8.9397  -17.0065   22.5266 C   0  0  1  0  0  0  0  0  0  0  0  0
    9.9536  -17.9975   22.0543 C   0  0  0  0  0  0  0  0  0  0  0  0
   10.2250  -19.1539   22.9411 C   0  0  0  0  0  0  0  0  0  0  0  0
   10.1897  -20.4088   22.0619 C   0  0  0  0  0  0  0  0  0  0  0  0
   10.4174  -21.6478   22.9069 C   0  0  0  0  0  0  0  0  0  0  0  0
   10.4386  -22.7962   22.0090 N   0  0  0  0  0  0  0  0  0  0  0  0
    9.2223  -16.3626   23.8094 C   0  0  0  0  0  0  0  0  0  0  0  0
   10.1302  -15.4652   23.9270 O   0  0  0  0  0  0  0  0  0  0  0  0
    8.5367  -16.6567   25.0189 N   0  0  0  0  0  0  0  0  0  0  0  0
    9.0128  -16.1221   26.3121 C   0  0  1  0  0  0  0  0  0  0  0  0
    7.8083  -15.5619   26.9925 C   0  0  0  0  0  0  0  0  0  0  0  0
    7.6163  -14.1568   26.5801 C   0  0  0  0  0  0  0  0  0  0  0  0
    8.4750  -13.1576   26.9949 C   0  0  0  0  0  0  0  0  0  0  0  0
    8.2919  -11.8474   26.6042 C   0  0  0  0  0  0  0  0  0  0  0  0
    7.2367  -11.5097   25.7840 C   0  0  0  0  0  0  0  0  0  0  0  0
    6.3781  -12.4984   25.3673 C   0  0  0  0  0  0  0  0  0  0  0  0
    6.5486  -13.8055   25.7483 C   0  0  0  0  0  0  0  0  0  0  0  0
    9.7309  -17.1501   27.0648 C   0  0  0  0  0  0  0  0  0  0  0  0
   10.1890  -16.8563   28.2132 O   0  0  0  0  0  0  0  0  0  0  0  0
    9.9611  -18.4370   26.6348 O   0  0  0  0  0  0  0  0  0  0  0  0
  2  3  1  0
  2  5  1  0
  2  1  1  1
  4  3  1  0
  5  6  2  0
  7  8  1  0
  7  5  1  0
  8 14  1  0
  9 10  1  0
  8  9  1  6
 10 11  1  0
 12 11  1  0
 12 13  1  0
 14 15  2  0
 16 14  1  0
 16 17  1  0
 17 25  1  0
 17 18  1  1
 19 18  1  0
 20 19  2  0
 21 20  1  0
 22 21  2  0
 22 23  1  0
 23 24  2  0
 24 19  1  0
 25 26  2  0
 25 27  1  0
M  END
$$$$
