CKF.pdb
     RDKit          3D

 27 27  0  0  1  0  0  0  0  0999 V2000
    4.8453  -13.8960   26.1113 N   0  0  0  0  0  0  0  0  0  0  0  0
    6.0559  -13.3106   25.5971 C   0  0  1  0  0  0  0  0  0  0  0  0
    6.9649  -12.8103   26.6999 C   0  0  0  0  0  0  0  0  0  0  0  0
    8.2049  -11.6566   26.0814 S   0  0  0  0  0  0  0  0  0  0  0  0
    6.8035  -14.3635   24.8453 C   0  0  0  0  0  0  0  0  0  0  0  0
    6.8198  -15.5709   25.2517 O   0  0  0  0  0  0  0  0  0  0  0  0
    7.5001  -14.0150   23.6699 N   0  0  0  0  0  0  0  0  0  0  0  0
    8.3503  -14.9485   22.9241 C   0  0  1  0  0  0  0  0  0  0  0  0
    8.6998  -14.2249   21.6642 C   0  0  0  0  0  0  0  0  0  0  0  0
    7.6529  -14.1576   20.6169 C   0  0  0  0  0  0  0  0  0  0  0  0
    8.3355  -13.6708   19.3338 C   0  0  0  0  0  0  0  0  0  0  0  0
    7.3151  -13.5209   18.2214 C   0  0  0  0  0  0  0  0  0  0  0  0
    8.0214  -13.0512   17.0356 N   0  0  0  0  0  0  0  0  0  0  0  0
    9.4723  -15.2924   23.7976 C   0  0  0  0  0  0  0  0  0  0  0  0
   10.3916  -14.4443   24.0788 O   0  0  0  0  0  0  0  0  0  0  0  0
    9.6495  -16.5639   24.4071 N   0  0  0  0  0  0  0  0  0  0  0  0
   10.8790  -16.8793   25.1643 C   0  0  1  0  0  0  0  0  0  0  0  0
   10.4363  -17.1813   26.5573 C   0  0  0  0  0  0  0  0  0  0  0  0
   10.2185  -15.9184   27.2915 C   0  0  0  0  0  0  0  0  0  0  0  0
    9.1069  -15.1312   27.0622 C   0  0  0  0  0  0  0  0  0  0  0  0
    8.9078  -13.9538   27.7530 C   0  0  0  0  0  0  0  0  0  0  0  0
    9.8254  -13.5388   28.6942 C   0  0  0  0  0  0  0  0  0  0  0  0
   10.9338  -14.3167   28.9277 C   0  0  0  0  0  0  0  0  0  0  0  0
   11.1442  -15.4899   28.2479 C   0  0  0  0  0  0  0  0  0  0  0  0
   11.6335  -17.9456   24.5063 C   0  0  0  0  0  0  0  0  0  0  0  0
   12.7538  -18.2913   24.9965 O   0  0  0  0  0  0  0  0  0  0  0  0
   11.2326  -18.6259   23.3792 O   0  0  0  0  0  0  0  0  0  0  0  0
  2  3  1  0
  2  5  1  0
  2  1  1  1
  4  3  1  0
  5  6  2  0
  7  8  1  0
  7  5  1  0
  8 14  1  0
  9 10  1  0
  8  9  1  6
 10 11  1  0
 12 11  1  0
 12 13  1  0
 14 15  2  0
 16 14  1  0
 16 17  1  0
 17 25  1  0
 17 18  1  1
 19 18  1  0
 20 19  2  0
 21 20  1  0
 22 21  2  0
 22 23  1  0
 23 24  2  0
 24 19  1  0
 25 26  2  0
 25 27  1  0
M  END
$$$$
