CKF.pdb
     RDKit          3D

 27 27  0  0  1  0  0  0  0  0999 V2000
    7.2370  -13.2271   19.1710 N   0  0  0  0  0  0  0  0  0  0  0  0
    7.9282  -14.4200   19.5856 C   0  0  1  0  0  0  0  0  0  0  0  0
    9.4079  -14.1808   19.7997 C   0  0  0  0  0  0  0  0  0  0  0  0
    9.7166  -12.7128   20.8001 S   0  0  0  0  0  0  0  0  0  0  0  0
    7.3541  -14.8648   20.8915 C   0  0  0  0  0  0  0  0  0  0  0  0
    6.7062  -14.0548   21.6314 O   0  0  0  0  0  0  0  0  0  0  0  0
    7.5324  -16.1994   21.3098 N   0  0  0  0  0  0  0  0  0  0  0  0
    6.8753  -16.7749   22.4877 C   0  0  1  0  0  0  0  0  0  0  0  0
    6.6764  -18.2167   22.1490 C   0  0  0  0  0  0  0  0  0  0  0  0
    6.0758  -19.0753   23.1975 C   0  0  0  0  0  0  0  0  0  0  0  0
    5.9148  -20.4738   22.5913 C   0  0  0  0  0  0  0  0  0  0  0  0
    5.1233  -21.3644   23.5302 C   0  0  0  0  0  0  0  0  0  0  0  0
    4.9342  -22.6481   22.8655 N   0  0  0  0  0  0  0  0  0  0  0  0
    7.7411  -16.4997   23.6344 C   0  0  0  0  0  0  0  0  0  0  0  0
    9.0113  -16.3830   23.5067 O   0  0  0  0  0  0  0  0  0  0  0  0
    7.2742  -16.3361   24.9666 N   0  0  0  0  0  0  0  0  0  0  0  0
    8.2202  -16.1350   26.0844 C   0  0  1  0  0  0  0  0  0  0  0  0
    7.4378  -15.4727   27.1693 C   0  0  0  0  0  0  0  0  0  0  0  0
    7.1767  -14.0662   26.8022 C   0  0  0  0  0  0  0  0  0  0  0  0
    5.8927  -13.5969   26.6043 C   0  0  0  0  0  0  0  0  0  0  0  0
    5.6551  -12.2813   26.2641 C   0  0  0  0  0  0  0  0  0  0  0  0
    6.7071  -11.4033   26.1142 C   0  0  0  0  0  0  0  0  0  0  0  0
    7.9873  -11.8629   26.3094 C   0  0  0  0  0  0  0  0  0  0  0  0
    8.2379  -13.1688   26.6481 C   0  0  0  0  0  0  0  0  0  0  0  0
    8.8565  -17.3978   26.4582 C   0  0  0  0  0  0  0  0  0  0  0  0
    8.3030  -18.4865   26.1070 O   0  0  0  0  0  0  0  0  0  0  0  0
   10.0273  -17.5191   27.1712 O   0  0  0  0  0  0  0  0  0  0  0  0
  2  3  1  0
  2  5  1  0
  2  1  1  1
  4  3  1  0
  5  6  2  0
  7  8  1  0
  7  5  1  0
  8 14  1  0
  9 10  1  0
  8  9  1  6
 10 11  1  0
 12 11  1  0
 12 13  1  0
 14 15  2  0
 16 14  1  0
 16 17  1  0
 17 25  1  0
 17 18  1  1
 19 18  1  0
 20 19  2  0
 21 20  1  0
 22 21  2  0
 22 23  1  0
 23 24  2  0
 24 19  1  0
 25 26  2  0
 25 27  1  0
M  END
$$$$
