CKF.pdb
     RDKit          3D

 27 27  0  0  1  0  0  0  0  0999 V2000
    8.5034  -15.5355   17.6992 N   0  0  0  0  0  0  0  0  0  0  0  0
    9.1883  -15.6945   18.9555 C   0  0  1  0  0  0  0  0  0  0  0  0
   10.2136  -14.6057   19.1919 C   0  0  0  0  0  0  0  0  0  0  0  0
   11.0854  -14.8271   20.7546 S   0  0  0  0  0  0  0  0  0  0  0  0
    8.1797  -15.6044   20.0543 C   0  0  0  0  0  0  0  0  0  0  0  0
    7.1973  -14.7969   19.9764 O   0  0  0  0  0  0  0  0  0  0  0  0
    8.3179  -16.4249   21.1926 N   0  0  0  0  0  0  0  0  0  0  0  0
    7.3332  -16.4789   22.2779 C   0  0  1  0  0  0  0  0  0  0  0  0
    7.0274  -17.9320   22.4453 C   0  0  0  0  0  0  0  0  0  0  0  0
    6.0748  -18.2974   23.5207 C   0  0  0  0  0  0  0  0  0  0  0  0
    5.9305  -19.8230   23.4900 C   0  0  0  0  0  0  0  0  0  0  0  0
    6.6688  -20.4433   24.6610 C   0  0  0  0  0  0  0  0  0  0  0  0
    6.0225  -19.9825   25.8838 N   0  0  0  0  0  0  0  0  0  0  0  0
    7.9364  -15.8139   23.4329 C   0  0  0  0  0  0  0  0  0  0  0  0
    7.5641  -14.6460   23.8081 O   0  0  0  0  0  0  0  0  0  0  0  0
    8.9644  -16.3807   24.2339 N   0  0  0  0  0  0  0  0  0  0  0  0
    9.3860  -15.7379   25.4964 C   0  0  1  0  0  0  0  0  0  0  0  0
    8.1513  -15.6144   26.3258 C   0  0  0  0  0  0  0  0  0  0  0  0
    7.6432  -14.2296   26.2526 C   0  0  0  0  0  0  0  0  0  0  0  0
    8.4988  -13.1453   26.2368 C   0  0  0  0  0  0  0  0  0  0  0  0
    8.0181  -11.8542   26.1658 C   0  0  0  0  0  0  0  0  0  0  0  0
    6.6605  -11.6222   26.1088 C   0  0  0  0  0  0  0  0  0  0  0  0
    5.8031  -12.6960   26.1242 C   0  0  0  0  0  0  0  0  0  0  0  0
    6.2676  -13.9852   26.1946 C   0  0  0  0  0  0  0  0  0  0  0  0
   10.4805  -16.4837   26.1171 C   0  0  0  0  0  0  0  0  0  0  0  0
   10.6609  -17.6954   25.7791 O   0  0  0  0  0  0  0  0  0  0  0  0
   11.3543  -15.9826   27.0547 O   0  0  0  0  0  0  0  0  0  0  0  0
  2  3  1  0
  2  5  1  0
  2  1  1  6
  4  3  1  0
  5  6  2  0
  7  8  1  0
  7  5  1  0
  8 14  1  0
  9 10  1  0
  8  9  1  1
 10 11  1  0
 12 11  1  0
 12 13  1  0
 14 15  2  0
 16 14  1  0
 16 17  1  0
 17 25  1  0
 17 18  1  1
 19 18  1  0
 20 19  2  0
 21 20  1  0
 22 21  2  0
 22 23  1  0
 23 24  2  0
 24 19  1  0
 25 26  2  0
 25 27  1  0
M  END
$$$$
