CKF.pdb
     RDKit          3D

 27 27  0  0  1  0  0  0  0  0999 V2000
    5.7007  -19.0010   20.9249 N   0  0  0  0  0  0  0  0  0  0  0  0
    5.7287  -18.0486   22.0042 C   0  0  1  0  0  0  0  0  0  0  0  0
    5.7148  -18.7191   23.3618 C   0  0  0  0  0  0  0  0  0  0  0  0
    5.4966  -17.5302   24.6997 S   0  0  0  0  0  0  0  0  0  0  0  0
    6.9975  -17.2655   21.9059 C   0  0  0  0  0  0  0  0  0  0  0  0
    8.0745  -17.8125   21.5010 O   0  0  0  0  0  0  0  0  0  0  0  0
    7.0016  -15.9023   22.2663 N   0  0  0  0  0  0  0  0  0  0  0  0
    8.1900  -15.0467   22.1890 C   0  0  1  0  0  0  0  0  0  0  0  0
    7.7481  -13.8468   21.4156 C   0  0  0  0  0  0  0  0  0  0  0  0
    7.2879  -14.0769   20.0254 C   0  0  0  0  0  0  0  0  0  0  0  0
    8.2746  -13.3528   19.1027 C   0  0  0  0  0  0  0  0  0  0  0  0
    7.8656  -13.5327   17.6531 C   0  0  0  0  0  0  0  0  0  0  0  0
    8.8289  -12.8110   16.8304 N   0  0  0  0  0  0  0  0  0  0  0  0
    8.6253  -14.7983   23.5634 C   0  0  0  0  0  0  0  0  0  0  0  0
    8.4353  -13.6672   24.1361 O   0  0  0  0  0  0  0  0  0  0  0  0
    9.2813  -15.7591   24.3794 N   0  0  0  0  0  0  0  0  0  0  0  0
    9.2661  -15.6427   25.8528 C   0  0  1  0  0  0  0  0  0  0  0  0
    7.8290  -15.6910   26.2529 C   0  0  0  0  0  0  0  0  0  0  0  0
    7.3208  -14.3166   26.4372 C   0  0  0  0  0  0  0  0  0  0  0  0
    8.1387  -13.2969   26.8834 C   0  0  0  0  0  0  0  0  0  0  0  0
    7.6587  -12.0145   27.0511 C   0  0  0  0  0  0  0  0  0  0  0  0
    6.3397  -11.7263   26.7731 C   0  0  0  0  0  0  0  0  0  0  0  0
    5.5198  -12.7357   26.3289 C   0  0  0  0  0  0  0  0  0  0  0  0
    5.9842  -14.0154   26.1576 C   0  0  0  0  0  0  0  0  0  0  0  0
   10.1163  -16.6650   26.4621 C   0  0  0  0  0  0  0  0  0  0  0  0
   10.3027  -16.6328   27.7187 O   0  0  0  0  0  0  0  0  0  0  0  0
   10.7473  -17.6832   25.7846 O   0  0  0  0  0  0  0  0  0  0  0  0
  2  3  1  0
  2  5  1  0
  2  1  1  6
  4  3  1  0
  5  6  2  0
  7  8  1  0
  7  5  1  0
  8 14  1  0
  9 10  1  0
  8  9  1  1
 10 11  1  0
 12 11  1  0
 12 13  1  0
 14 15  2  0
 16 14  1  0
 16 17  1  0
 17 25  1  0
 17 18  1  1
 19 18  1  0
 20 19  2  0
 21 20  1  0
 22 21  2  0
 22 23  1  0
 23 24  2  0
 24 19  1  0
 25 26  2  0
 25 27  1  0
M  END
$$$$
