CKF.pdb
     RDKit          3D

 27 27  0  0  1  0  0  0  0  0999 V2000
    7.6930  -14.1059   17.8740 N   0  0  0  0  0  0  0  0  0  0  0  0
    8.6443  -14.0925   18.9545 C   0  0  1  0  0  0  0  0  0  0  0  0
    8.5879  -12.8073   19.7530 C   0  0  0  0  0  0  0  0  0  0  0  0
    9.1032  -11.3823   18.7758 S   0  0  0  0  0  0  0  0  0  0  0  0
    8.3114  -15.2122   19.8863 C   0  0  0  0  0  0  0  0  0  0  0  0
    7.3142  -15.9736   19.6647 O   0  0  0  0  0  0  0  0  0  0  0  0
    9.1126  -15.4283   21.0262 N   0  0  0  0  0  0  0  0  0  0  0  0
    9.0287  -16.6315   21.8602 C   0  0  1  0  0  0  0  0  0  0  0  0
    9.2788  -17.7666   20.9209 C   0  0  0  0  0  0  0  0  0  0  0  0
    9.1854  -19.1352   21.4827 C   0  0  0  0  0  0  0  0  0  0  0  0
    9.4197  -20.1105   20.3239 C   0  0  0  0  0  0  0  0  0  0  0  0
    9.3328  -21.5422   20.8177 C   0  0  0  0  0  0  0  0  0  0  0  0
    9.5938  -22.4172   19.6812 N   0  0  0  0  0  0  0  0  0  0  0  0
   10.0010  -16.4684   22.9411 C   0  0  0  0  0  0  0  0  0  0  0  0
   11.1982  -16.0690   22.7156 O   0  0  0  0  0  0  0  0  0  0  0  0
    9.7235  -16.7262   24.3107 N   0  0  0  0  0  0  0  0  0  0  0  0
    9.3739  -15.6273   25.2355 C   0  0  1  0  0  0  0  0  0  0  0  0
    8.2932  -14.8509   24.5596 C   0  0  0  0  0  0  0  0  0  0  0  0
    7.8035  -13.7930   25.4664 C   0  0  0  0  0  0  0  0  0  0  0  0
    8.5841  -13.3045   26.4959 C   0  0  0  0  0  0  0  0  0  0  0  0
    8.1221  -12.3145   27.3381 C   0  0  0  0  0  0  0  0  0  0  0  0
    6.8590  -11.7903   27.1641 C   0  0  0  0  0  0  0  0  0  0  0  0
    6.0765  -12.2713   26.1420 C   0  0  0  0  0  0  0  0  0  0  0  0
    6.5236  -13.2557   25.2972 C   0  0  0  0  0  0  0  0  0  0  0  0
    9.0301  -16.1518   26.5569 C   0  0  0  0  0  0  0  0  0  0  0  0
    9.7589  -15.8327   27.5477 O   0  0  0  0  0  0  0  0  0  0  0  0
    7.9646  -16.9778   26.8331 O   0  0  0  0  0  0  0  0  0  0  0  0
  2  3  1  0
  2  5  1  0
  2  1  1  6
  4  3  1  0
  5  6  2  0
  7  8  1  0
  7  5  1  0
  8 14  1  0
  9 10  1  0
  8  9  1  6
 10 11  1  0
 12 11  1  0
 12 13  1  0
 14 15  2  0
 16 14  1  0
 16 17  1  0
 17 25  1  0
 17 18  1  6
 19 18  1  0
 20 19  2  0
 21 20  1  0
 22 21  2  0
 22 23  1  0
 23 24  2  0
 24 19  1  0
 25 26  2  0
 25 27  1  0
M  END
$$$$
