CKF.pdb
     RDKit          3D

 27 27  0  0  1  0  0  0  0  0999 V2000
    7.2145  -14.4613   17.6232 N   0  0  0  0  0  0  0  0  0  0  0  0
    8.3011  -14.2169   18.5355 C   0  0  1  0  0  0  0  0  0  0  0  0
    8.3135  -12.7908   19.0443 C   0  0  0  0  0  0  0  0  0  0  0  0
    9.6937  -12.4855   20.1636 S   0  0  0  0  0  0  0  0  0  0  0  0
    8.1295  -15.1121   19.7196 C   0  0  0  0  0  0  0  0  0  0  0  0
    6.9835  -15.2853   20.2486 O   0  0  0  0  0  0  0  0  0  0  0  0
    9.2521  -15.7737   20.2582 N   0  0  0  0  0  0  0  0  0  0  0  0
    9.1874  -16.6660   21.4201 C   0  0  1  0  0  0  0  0  0  0  0  0
   10.0304  -17.8421   21.0470 C   0  0  0  0  0  0  0  0  0  0  0  0
    9.3214  -19.1128   20.7641 C   0  0  0  0  0  0  0  0  0  0  0  0
   10.3768  -20.1161   20.2859 C   0  0  0  0  0  0  0  0  0  0  0  0
    9.7076  -21.3796   19.7791 C   0  0  0  0  0  0  0  0  0  0  0  0
   10.7545  -22.2641   19.2821 N   0  0  0  0  0  0  0  0  0  0  0  0
    9.6421  -15.8928   22.5759 C   0  0  0  0  0  0  0  0  0  0  0  0
   10.3392  -14.8256   22.4402 O   0  0  0  0  0  0  0  0  0  0  0  0
    9.3623  -16.2357   23.9263 N   0  0  0  0  0  0  0  0  0  0  0  0
    8.9894  -15.1995   24.9122 C   0  0  1  0  0  0  0  0  0  0  0  0
    7.9192  -14.3846   24.2655 C   0  0  0  0  0  0  0  0  0  0  0  0
    7.4680  -13.3318   25.1978 C   0  0  0  0  0  0  0  0  0  0  0  0
    6.7782  -13.6375   26.3548 C   0  0  0  0  0  0  0  0  0  0  0  0
    6.3617  -12.6497   27.2230 C   0  0  0  0  0  0  0  0  0  0  0  0
    6.6300  -11.3260   26.9470 C   0  0  0  0  0  0  0  0  0  0  0  0
    7.3158  -11.0142   25.7977 C   0  0  0  0  0  0  0  0  0  0  0  0
    7.7359  -11.9866   24.9256 C   0  0  0  0  0  0  0  0  0  0  0  0
    8.6212  -15.8086   26.1899 C   0  0  0  0  0  0  0  0  0  0  0  0
    9.0792  -15.3014   27.2613 O   0  0  0  0  0  0  0  0  0  0  0  0
    7.8046  -16.9057   26.3430 O   0  0  0  0  0  0  0  0  0  0  0  0
  2  3  1  0
  2  5  1  0
  2  1  1  6
  4  3  1  0
  5  6  2  0
  7  8  1  0
  7  5  1  0
  8 14  1  0
  9 10  1  0
  8  9  1  6
 10 11  1  0
 12 11  1  0
 12 13  1  0
 14 15  2  0
 16 14  1  0
 16 17  1  0
 17 25  1  0
 17 18  1  6
 19 18  1  0
 20 19  2  0
 21 20  1  0
 22 21  2  0
 22 23  1  0
 23 24  2  0
 24 19  1  0
 25 26  2  0
 25 27  1  0
M  END
$$$$
