CKF.pdb
     RDKit          3D

 27 27  0  0  1  0  0  0  0  0999 V2000
    7.9468  -15.3814   16.7132 N   0  0  0  0  0  0  0  0  0  0  0  0
    8.6317  -14.8096   17.8432 C   0  0  1  0  0  0  0  0  0  0  0  0
    8.2254  -13.3726   18.0935 C   0  0  0  0  0  0  0  0  0  0  0  0
    9.0293  -12.6886   19.5553 S   0  0  0  0  0  0  0  0  0  0  0  0
    8.2659  -15.5957   19.0602 C   0  0  0  0  0  0  0  0  0  0  0  0
    7.0459  -15.8081   19.3599 O   0  0  0  0  0  0  0  0  0  0  0  0
    9.2857  -16.1090   19.8876 N   0  0  0  0  0  0  0  0  0  0  0  0
    9.0286  -16.8859   21.1045 C   0  0  1  0  0  0  0  0  0  0  0  0
   10.0555  -17.9715   21.0896 C   0  0  0  0  0  0  0  0  0  0  0  0
   10.0892  -18.8790   22.2611 C   0  0  0  0  0  0  0  0  0  0  0  0
   11.1151  -19.9740   21.9485 C   0  0  0  0  0  0  0  0  0  0  0  0
   11.2648  -20.9067   23.1353 C   0  0  0  0  0  0  0  0  0  0  0  0
   12.1025  -22.0236   22.7155 N   0  0  0  0  0  0  0  0  0  0  0  0
    9.0999  -15.9520   22.2283 C   0  0  0  0  0  0  0  0  0  0  0  0
   10.0808  -15.1382   22.3665 O   0  0  0  0  0  0  0  0  0  0  0  0
    8.1160  -15.8539   23.2489 N   0  0  0  0  0  0  0  0  0  0  0  0
    8.2046  -14.8110   24.2926 C   0  0  1  0  0  0  0  0  0  0  0  0
    6.8002  -14.3891   24.5706 C   0  0  0  0  0  0  0  0  0  0  0  0
    6.7904  -13.3889   25.6573 C   0  0  0  0  0  0  0  0  0  0  0  0
    7.0983  -13.7326   26.9592 C   0  0  0  0  0  0  0  0  0  0  0  0
    7.0899  -12.7933   27.9694 C   0  0  0  0  0  0  0  0  0  0  0  0
    6.7704  -11.4811   27.6931 C   0  0  0  0  0  0  0  0  0  0  0  0
    6.4628  -11.1317   26.4002 C   0  0  0  0  0  0  0  0  0  0  0  0
    6.4674  -12.0558   25.3859 C   0  0  0  0  0  0  0  0  0  0  0  0
    8.9483  -15.3009   25.4528 C   0  0  0  0  0  0  0  0  0  0  0  0
    9.8413  -14.5549   25.9636 O   0  0  0  0  0  0  0  0  0  0  0  0
    8.7656  -16.5236   26.0575 O   0  0  0  0  0  0  0  0  0  0  0  0
  2  3  1  0
  2  5  1  0
  2  1  1  6
  4  3  1  0
  5  6  2  0
  7  8  1  0
  7  5  1  0
  8 14  1  0
  9 10  1  0
  8  9  1  1
 10 11  1  0
 12 11  1  0
 12 13  1  0
 14 15  2  0
 16 14  1  0
 16 17  1  0
 17 25  1  0
 17 18  1  1
 19 18  1  0
 20 19  2  0
 21 20  1  0
 22 21  2  0
 22 23  1  0
 23 24  2  0
 24 19  1  0
 25 26  2  0
 25 27  1  0
M  END
$$$$
