ALR.pdb
     RDKit          3D

 25 24  0  0  1  0  0  0  0  0999 V2000
   27.7833  -20.9805  -20.4390 C   0  0  0  0  0  0  0  0  0  0  0  0
   28.2579  -19.6194  -20.0266 C   0  0  2  0  0  0  0  0  0  0  0  0
   29.6981  -19.4817  -20.0715 N   0  0  0  0  0  0  0  0  0  0  0  0
   27.8245  -19.3093  -18.6349 C   0  0  0  0  0  0  0  0  0  0  0  0
   28.3233  -19.9836  -17.6813 O   0  0  0  0  0  0  0  0  0  0  0  0
   26.4299  -15.9540  -14.3344 C   0  0  0  0  0  0  0  0  0  0  0  0
   25.4907  -16.1938  -15.4529 C   0  0  1  0  0  0  0  0  0  0  0  0
   24.7554  -14.8604  -15.6862 C   0  0  0  0  0  0  0  0  0  0  0  0
   26.0409  -16.5969  -16.7579 C   0  0  0  0  0  0  0  0  0  0  0  0
   26.4652  -17.9913  -16.9713 C   0  0  2  0  0  0  0  0  0  0  0  0
   26.8817  -18.2988  -18.3138 N   0  0  0  0  0  0  0  0  0  0  0  0
   25.4864  -18.9491  -16.4381 C   0  0  0  0  0  0  0  0  0  0  0  0
   24.4105  -19.1108  -17.0838 O   0  0  0  0  0  0  0  0  0  0  0  0
   26.7309  -20.0226   -8.8217 N   0  0  0  0  0  0  0  0  0  0  0  0
   25.5271  -20.7589   -8.9325 C   0  0  0  0  0  0  0  0  0  0  0  0
   24.6516  -20.8102   -8.0008 N   0  0  0  0  0  0  0  0  0  0  0  0
   25.2767  -21.4871  -10.1639 N   0  0  0  0  0  0  0  0  0  0  0  0
   26.1576  -21.2395  -11.2548 C   0  0  0  0  0  0  0  0  0  0  0  0
   25.6630  -20.5521  -12.4514 C   0  0  0  0  0  0  0  0  0  0  0  0
   25.0242  -21.3223  -13.5447 C   0  0  0  0  0  0  0  0  0  0  0  0
   24.5524  -20.5436  -14.6922 C   0  0  2  0  0  0  0  0  0  0  0  0
   25.6404  -19.7042  -15.2652 N   0  0  0  0  0  0  0  0  0  0  0  0
   23.5119  -19.5822  -14.2968 C   0  0  0  0  0  0  0  0  0  0  0  0
   22.3239  -20.0071  -14.0261 O   0  0  0  0  0  0  0  0  0  0  0  0
   23.6635  -18.2302  -14.1784 O   0  0  0  0  0  0  0  0  0  0  0  0
  2  1  1  1
  2  4  1  0
  2  3  1  0
  4  5  2  0
  7  6  1  1
  7  8  1  0
  9  7  1  0
 10  9  1  6
 10 12  1  0
 11 10  1  0
 11  4  1  0
 12 13  2  0
 14 15  1  0
 15 16  2  0
 17 18  1  0
 17 15  1  0
 19 20  1  0
 19 18  1  0
 21 20  1  1
 21 23  1  0
 22 21  1  0
 22 12  1  0
 23 24  2  0
 23 25  1  0
M  END
$$$$
