ALR.pdb
     RDKit          3D

 25 24  0  0  1  0  0  0  0  0999 V2000
   27.7313  -17.9658  -16.1582 C   0  0  0  0  0  0  0  0  0  0  0  0
   28.7841  -19.0064  -15.9203 C   0  0  2  0  0  0  0  0  0  0  0  0
   29.0003  -19.8681  -17.0631 N   0  0  0  0  0  0  0  0  0  0  0  0
   28.4135  -19.8779  -14.7699 C   0  0  0  0  0  0  0  0  0  0  0  0
   27.5857  -20.8207  -14.9668 O   0  0  0  0  0  0  0  0  0  0  0  0
   31.8916  -20.8613  -10.4259 C   0  0  0  0  0  0  0  0  0  0  0  0
   30.8850  -20.9950  -11.5026 C   0  0  1  0  0  0  0  0  0  0  0  0
   30.8126  -22.4974  -11.8351 C   0  0  0  0  0  0  0  0  0  0  0  0
   29.5035  -20.5643  -11.2300 C   0  0  0  0  0  0  0  0  0  0  0  0
   28.5271  -20.5055  -12.3314 C   0  0  2  0  0  0  0  0  0  0  0  0
   28.9354  -19.7129  -13.4608 N   0  0  0  0  0  0  0  0  0  0  0  0
   27.1790  -20.1721  -11.8508 C   0  0  0  0  0  0  0  0  0  0  0  0
   26.9252  -18.9565  -11.6090 O   0  0  0  0  0  0  0  0  0  0  0  0
   18.5118  -21.3598  -11.5953 N   0  0  0  0  0  0  0  0  0  0  0  0
   19.0795  -20.9564  -12.8276 C   0  0  0  0  0  0  0  0  0  0  0  0
   18.4025  -20.3981  -13.7589 N   0  0  0  0  0  0  0  0  0  0  0  0
   20.4977  -21.1865  -13.0401 N   0  0  0  0  0  0  0  0  0  0  0  0
   21.2134  -21.8366  -11.9948 C   0  0  0  0  0  0  0  0  0  0  0  0
   22.3483  -21.1623  -11.3576 C   0  0  0  0  0  0  0  0  0  0  0  0
   23.7343  -21.4686  -11.7842 C   0  0  0  0  0  0  0  0  0  0  0  0
   24.7948  -20.6918  -11.1379 C   0  0  2  0  0  0  0  0  0  0  0  0
   26.1411  -21.0912  -11.6324 N   0  0  0  0  0  0  0  0  0  0  0  0
   24.8409  -20.9475   -9.6902 C   0  0  0  0  0  0  0  0  0  0  0  0
   25.4710  -21.9829   -9.2475 O   0  0  0  0  0  0  0  0  0  0  0  0
   24.2673  -20.1821   -8.7155 O   0  0  0  0  0  0  0  0  0  0  0  0
  2  1  1  6
  2  4  1  0
  2  3  1  0
  4  5  2  0
  7  6  1  1
  7  8  1  0
  9  7  1  0
 10  9  1  1
 10 12  1  0
 11 10  1  0
 11  4  1  0
 12 13  2  0
 14 15  1  0
 15 16  2  0
 17 18  1  0
 17 15  1  0
 19 20  1  0
 19 18  1  0
 21 20  1  6
 21 23  1  0
 22 21  1  0
 22 12  1  0
 23 24  2  0
 23 25  1  0
M  END
$$$$
