ALR.pdb
     RDKit          3D

 25 24  0  0  1  0  0  0  0  0999 V2000
   16.8246  -11.1955  -19.5606 C   0  0  0  0  0  0  0  0  0  0  0  0
   17.7957  -12.1455  -18.9261 C   0  0  2  0  0  0  0  0  0  0  0  0
   17.1641  -13.3370  -18.4001 N   0  0  0  0  0  0  0  0  0  0  0  0
   18.5153  -11.4888  -17.7985 C   0  0  0  0  0  0  0  0  0  0  0  0
   17.8348  -11.0484  -16.8208 O   0  0  0  0  0  0  0  0  0  0  0  0
   22.3204  -11.3398  -13.8882 C   0  0  0  0  0  0  0  0  0  0  0  0
   22.7692  -10.9425  -15.2415 C   0  0  1  0  0  0  0  0  0  0  0  0
   24.1685  -11.5598  -15.4255 C   0  0  0  0  0  0  0  0  0  0  0  0
   21.9707  -11.3740  -16.4011 C   0  0  0  0  0  0  0  0  0  0  0  0
   20.6338  -10.7961  -16.6217 C   0  0  2  0  0  0  0  0  0  0  0  0
   19.9242  -11.3270  -17.7553 N   0  0  0  0  0  0  0  0  0  0  0  0
   20.6612   -9.3270  -16.5956 C   0  0  0  0  0  0  0  0  0  0  0  0
   21.2420   -8.7330  -17.5498 O   0  0  0  0  0  0  0  0  0  0  0  0
   14.0779   -8.3885  -15.3370 N   0  0  0  0  0  0  0  0  0  0  0  0
   14.2350   -7.8987  -16.6556 C   0  0  0  0  0  0  0  0  0  0  0  0
   13.3300   -8.0078  -17.5536 N   0  0  0  0  0  0  0  0  0  0  0  0
   15.4824   -7.2398  -17.0009 N   0  0  0  0  0  0  0  0  0  0  0  0
   16.4586   -7.1180  -15.9715 C   0  0  0  0  0  0  0  0  0  0  0  0
   17.7442   -6.4741  -16.2566 C   0  0  0  0  0  0  0  0  0  0  0  0
   18.8199   -6.4703  -15.2370 C   0  0  0  0  0  0  0  0  0  0  0  0
   20.1069   -7.0312  -15.6549 C   0  0  2  0  0  0  0  0  0  0  0  0
   20.0975   -8.5189  -15.5963 N   0  0  0  0  0  0  0  0  0  0  0  0
   21.1884   -6.6313  -14.7418 C   0  0  0  0  0  0  0  0  0  0  0  0
   21.6870   -7.5000  -13.9282 O   0  0  0  0  0  0  0  0  0  0  0  0
   21.7513   -5.3905  -14.6500 O   0  0  0  0  0  0  0  0  0  0  0  0
  2  1  1  1
  2  4  1  0
  2  3  1  0
  4  5  2  0
  7  6  1  1
  7  8  1  0
  9  7  1  0
 10  9  1  6
 10 12  1  0
 11 10  1  0
 11  4  1  0
 12 13  2  0
 14 15  1  0
 15 16  2  0
 17 18  1  0
 17 15  1  0
 19 20  1  0
 19 18  1  0
 21 20  1  1
 21 23  1  0
 22 21  1  0
 22 12  1  0
 23 24  2  0
 23 25  1  0
M  END
$$$$
