ALR.pdb
     RDKit          3D

 25 24  0  0  1  0  0  0  0  0999 V2000
   20.8737  -19.0195  -12.1245 C   0  0  0  0  0  0  0  0  0  0  0  0
   21.5936  -20.3333  -12.0652 C   0  0  2  0  0  0  0  0  0  0  0  0
   21.1856  -21.1552  -10.9457 N   0  0  0  0  0  0  0  0  0  0  0  0
   23.0644  -20.1237  -11.9504 C   0  0  0  0  0  0  0  0  0  0  0  0
   23.6298  -19.3378  -12.7723 O   0  0  0  0  0  0  0  0  0  0  0  0
   25.7898  -20.6437   -7.0359 C   0  0  0  0  0  0  0  0  0  0  0  0
   25.2470  -20.2840   -8.3651 C   0  0  1  0  0  0  0  0  0  0  0  0
   25.4001  -18.7562   -8.4895 C   0  0  0  0  0  0  0  0  0  0  0  0
   25.8802  -20.8623   -9.5622 C   0  0  0  0  0  0  0  0  0  0  0  0
   25.3011  -20.6019  -10.8914 C   0  0  2  0  0  0  0  0  0  0  0  0
   23.8726  -20.7555  -10.9701 N   0  0  0  0  0  0  0  0  0  0  0  0
   26.0175  -21.3243  -11.9518 C   0  0  0  0  0  0  0  0  0  0  0  0
   26.2500  -22.5547  -11.7711 O   0  0  0  0  0  0  0  0  0  0  0  0
   26.3601  -26.0664  -16.6693 N   0  0  0  0  0  0  0  0  0  0  0  0
   25.0226  -26.2181  -16.2317 C   0  0  0  0  0  0  0  0  0  0  0  0
   24.5108  -27.3513  -15.9296 N   0  0  0  0  0  0  0  0  0  0  0  0
   24.1963  -25.0290  -16.1193 N   0  0  0  0  0  0  0  0  0  0  0  0
   24.7088  -23.8268  -16.6845 C   0  0  0  0  0  0  0  0  0  0  0  0
   25.8433  -23.1479  -16.0516 C   0  0  0  0  0  0  0  0  0  0  0  0
   25.6383  -22.3281  -14.8339 C   0  0  0  0  0  0  0  0  0  0  0  0
   26.8037  -21.5805  -14.3558 C   0  0  2  0  0  0  0  0  0  0  0  0
   26.4723  -20.7642  -13.1556 N   0  0  0  0  0  0  0  0  0  0  0  0
   27.2603  -20.6023  -15.3547 C   0  0  0  0  0  0  0  0  0  0  0  0
   28.0757  -20.9752  -16.2828 O   0  0  0  0  0  0  0  0  0  0  0  0
   26.9063  -19.2848  -15.4165 O   0  0  0  0  0  0  0  0  0  0  0  0
  2  1  1  1
  2  4  1  0
  2  3  1  0
  4  5  2  0
  7  6  1  1
  7  8  1  0
  9  7  1  0
 10  9  1  1
 10 12  1  0
 11 10  1  0
 11  4  1  0
 12 13  2  0
 14 15  1  0
 15 16  2  0
 17 18  1  0
 17 15  1  0
 19 20  1  0
 19 18  1  0
 21 20  1  6
 21 23  1  0
 22 21  1  0
 22 12  1  0
 23 24  2  0
 23 25  1  0
M  END
$$$$
