ALR.pdb
     RDKit          3D

 25 24  0  0  1  0  0  0  0  0999 V2000
   27.9151  -17.7850  -15.5789 C   0  0  0  0  0  0  0  0  0  0  0  0
   28.7904  -18.9996  -15.4972 C   0  0  2  0  0  0  0  0  0  0  0  0
   28.7956  -19.7798  -16.7164 N   0  0  0  0  0  0  0  0  0  0  0  0
   28.3435  -19.8983  -14.3958 C   0  0  0  0  0  0  0  0  0  0  0  0
   27.3830  -20.6985  -14.6196 O   0  0  0  0  0  0  0  0  0  0  0  0
   31.8224  -21.1938  -10.1269 C   0  0  0  0  0  0  0  0  0  0  0  0
   30.8311  -21.2424  -11.2248 C   0  0  1  0  0  0  0  0  0  0  0  0
   30.8325  -22.6952  -11.7373 C   0  0  0  0  0  0  0  0  0  0  0  0
   29.4288  -20.9123  -10.9202 C   0  0  0  0  0  0  0  0  0  0  0  0
   28.4662  -20.7326  -12.0206 C   0  0  2  0  0  0  0  0  0  0  0  0
   28.9331  -19.9105  -13.1053 N   0  0  0  0  0  0  0  0  0  0  0  0
   27.1391  -20.3375  -11.5282 C   0  0  0  0  0  0  0  0  0  0  0  0
   26.9478  -19.1134  -11.2720 O   0  0  0  0  0  0  0  0  0  0  0  0
   21.0380  -18.7236  -15.2433 N   0  0  0  0  0  0  0  0  0  0  0  0
   20.5207  -19.9601  -14.7884 C   0  0  0  0  0  0  0  0  0  0  0  0
   19.8371  -20.7467  -15.5308 N   0  0  0  0  0  0  0  0  0  0  0  0
   20.7825  -20.3518  -13.4146 N   0  0  0  0  0  0  0  0  0  0  0  0
   21.9370  -19.7991  -12.7909 C   0  0  0  0  0  0  0  0  0  0  0  0
   23.2057  -20.5326  -12.8219 C   0  0  0  0  0  0  0  0  0  0  0  0
   23.6421  -21.3200  -11.6445 C   0  0  0  0  0  0  0  0  0  0  0  0
   24.7236  -20.7394  -10.8450 C   0  0  2  0  0  0  0  0  0  0  0  0
   26.0578  -21.2059  -11.3131 N   0  0  0  0  0  0  0  0  0  0  0  0
   24.6489  -21.1773   -9.4429 C   0  0  0  0  0  0  0  0  0  0  0  0
   25.5039  -22.0358   -8.9989 O   0  0  0  0  0  0  0  0  0  0  0  0
   23.7377  -20.7628   -8.5141 O   0  0  0  0  0  0  0  0  0  0  0  0
  2  1  1  6
  2  4  1  0
  2  3  1  0
  4  5  2  0
  7  6  1  1
  7  8  1  0
  9  7  1  0
 10  9  1  1
 10 12  1  0
 11 10  1  0
 11  4  1  0
 12 13  2  0
 14 15  1  0
 15 16  2  0
 17 18  1  0
 17 15  1  0
 19 20  1  0
 19 18  1  0
 21 20  1  6
 21 23  1  0
 22 21  1  0
 22 12  1  0
 23 24  2  0
 23 25  1  0
M  END
$$$$
