ALR.pdb
     RDKit          3D

 25 24  0  0  1  0  0  0  0  0999 V2000
   23.8307  -23.9509   -9.6067 C   0  0  0  0  0  0  0  0  0  0  0  0
   24.7676  -23.1175   -8.7847 C   0  0  2  0  0  0  0  0  0  0  0  0
   24.1334  -22.5235   -7.6271 N   0  0  0  0  0  0  0  0  0  0  0  0
   25.3373  -22.0069   -9.5986 C   0  0  0  0  0  0  0  0  0  0  0  0
   24.6638  -20.9369   -9.7183 O   0  0  0  0  0  0  0  0  0  0  0  0
   30.8946  -21.0304  -10.0159 C   0  0  0  0  0  0  0  0  0  0  0  0
   29.4200  -20.9846   -9.8984 C   0  0  1  0  0  0  0  0  0  0  0  0
   29.0897  -19.6613   -9.1821 C   0  0  0  0  0  0  0  0  0  0  0  0
   28.6163  -20.9991  -11.1323 C   0  0  0  0  0  0  0  0  0  0  0  0
   27.1459  -21.0115  -11.0448 C   0  0  2  0  0  0  0  0  0  0  0  0
   26.5956  -22.0778  -10.2505 N   0  0  0  0  0  0  0  0  0  0  0  0
   26.5177  -20.8957  -12.3682 C   0  0  0  0  0  0  0  0  0  0  0  0
   26.4512  -21.9391  -13.0806 O   0  0  0  0  0  0  0  0  0  0  0  0
   19.8092  -18.9599  -15.7366 N   0  0  0  0  0  0  0  0  0  0  0  0
   20.4478  -19.0943  -16.9927 C   0  0  0  0  0  0  0  0  0  0  0  0
   19.8639  -18.8441  -18.1034 N   0  0  0  0  0  0  0  0  0  0  0  0
   21.8315  -19.5349  -17.0175 N   0  0  0  0  0  0  0  0  0  0  0  0
   22.5426  -19.5103  -15.7841 C   0  0  0  0  0  0  0  0  0  0  0  0
   23.5315  -18.4580  -15.5321 C   0  0  0  0  0  0  0  0  0  0  0  0
   24.3963  -18.5183  -14.3299 C   0  0  0  0  0  0  0  0  0  0  0  0
   25.2785  -19.6833  -14.2276 C   0  0  2  0  0  0  0  0  0  0  0  0
   25.9830  -19.7196  -12.9165 N   0  0  0  0  0  0  0  0  0  0  0  0
   26.3569  -19.6289  -15.2263 C   0  0  0  0  0  0  0  0  0  0  0  0
   27.4507  -19.0037  -14.9470 O   0  0  0  0  0  0  0  0  0  0  0  0
   26.3339  -20.1878  -16.4720 O   0  0  0  0  0  0  0  0  0  0  0  0
  2  1  1  6
  2  4  1  0
  2  3  1  0
  4  5  2  0
  7  6  1  6
  7  8  1  0
  9  7  1  0
 10  9  1  6
 10 12  1  0
 11 10  1  0
 11  4  1  0
 12 13  2  0
 14 15  1  0
 15 16  2  0
 17 18  1  0
 17 15  1  0
 19 20  1  0
 19 18  1  0
 21 20  1  1
 21 23  1  0
 22 21  1  0
 22 12  1  0
 23 24  2  0
 23 25  1  0
M  END
$$$$
