ALR.pdb
     RDKit          3D

 25 24  0  0  1  0  0  0  0  0999 V2000
   24.6316  -22.7495  -20.0157 C   0  0  0  0  0  0  0  0  0  0  0  0
   25.6585  -21.9750  -19.2452 C   0  0  2  0  0  0  0  0  0  0  0  0
   26.9784  -22.5663  -19.3037 N   0  0  0  0  0  0  0  0  0  0  0  0
   25.2773  -21.8790  -17.8079 C   0  0  0  0  0  0  0  0  0  0  0  0
   24.9577  -22.9439  -17.1941 O   0  0  0  0  0  0  0  0  0  0  0  0
   27.5104  -17.7866  -14.6726 C   0  0  0  0  0  0  0  0  0  0  0  0
   26.9813  -19.0341  -15.2678 C   0  0  1  0  0  0  0  0  0  0  0  0
   27.8420  -20.1775  -14.6977 C   0  0  0  0  0  0  0  0  0  0  0  0
   25.5796  -19.3994  -15.0026 C   0  0  0  0  0  0  0  0  0  0  0  0
   24.9934  -20.5745  -15.6700 C   0  0  2  0  0  0  0  0  0  0  0  0
   25.2511  -20.6595  -17.0831 N   0  0  0  0  0  0  0  0  0  0  0  0
   23.5734  -20.7443  -15.3322 C   0  0  0  0  0  0  0  0  0  0  0  0
   22.7405  -19.9708  -15.8877 O   0  0  0  0  0  0  0  0  0  0  0  0
   18.2335  -22.7965  -10.5964 N   0  0  0  0  0  0  0  0  0  0  0  0
   17.4185  -23.7498  -11.2523 C   0  0  0  0  0  0  0  0  0  0  0  0
   16.1500  -23.8101  -11.0956 N   0  0  0  0  0  0  0  0  0  0  0  0
   18.0555  -24.7010  -12.1461 N   0  0  0  0  0  0  0  0  0  0  0  0
   19.4341  -24.4956  -12.4367 C   0  0  0  0  0  0  0  0  0  0  0  0
   19.8760  -23.2264  -13.0222 C   0  0  0  0  0  0  0  0  0  0  0  0
   21.2863  -23.0485  -13.4419 C   0  0  0  0  0  0  0  0  0  0  0  0
   21.6126  -21.7723  -14.0826 C   0  0  2  0  0  0  0  0  0  0  0  0
   23.0562  -21.6949  -14.4386 N   0  0  0  0  0  0  0  0  0  0  0  0
   21.3956  -20.6416  -13.1673 C   0  0  0  0  0  0  0  0  0  0  0  0
   20.2147  -20.1339  -13.0533 O   0  0  0  0  0  0  0  0  0  0  0  0
   22.3419  -20.0384  -12.3891 O   0  0  0  0  0  0  0  0  0  0  0  0
  2  1  1  6
  2  4  1  0
  2  3  1  0
  4  5  2  0
  7  6  1  1
  7  8  1  0
  9  7  1  0
 10  9  1  6
 10 12  1  0
 11 10  1  0
 11  4  1  0
 12 13  2  0
 14 15  1  0
 15 16  2  0
 17 18  1  0
 17 15  1  0
 19 20  1  0
 19 18  1  0
 21 20  1  1
 21 23  1  0
 22 21  1  0
 22 12  1  0
 23 24  2  0
 23 25  1  0
M  END
$$$$
