ALR.pdb
     RDKit          3D

 25 24  0  0  1  0  0  0  0  0999 V2000
   25.4596  -23.8194  -19.1499 C   0  0  0  0  0  0  0  0  0  0  0  0
   26.5441  -23.2362  -18.2945 C   0  0  2  0  0  0  0  0  0  0  0  0
   27.6013  -24.1787  -17.9957 N   0  0  0  0  0  0  0  0  0  0  0  0
   25.9919  -22.7604  -16.9949 C   0  0  0  0  0  0  0  0  0  0  0  0
   25.6800  -23.6238  -16.1173 O   0  0  0  0  0  0  0  0  0  0  0  0
   27.5586  -17.7304  -15.0236 C   0  0  0  0  0  0  0  0  0  0  0  0
   27.1991  -19.1571  -15.1839 C   0  0  1  0  0  0  0  0  0  0  0  0
   27.9466  -19.9136  -14.0694 C   0  0  0  0  0  0  0  0  0  0  0  0
   25.7825  -19.5419  -15.0670 C   0  0  0  0  0  0  0  0  0  0  0  0
   25.3720  -20.9195  -15.3887 C   0  0  2  0  0  0  0  0  0  0  0  0
   25.7939  -21.3909  -16.6811 N   0  0  0  0  0  0  0  0  0  0  0  0
   23.9411  -21.1379  -15.1347 C   0  0  0  0  0  0  0  0  0  0  0  0
   23.1185  -20.6953  -15.9879 O   0  0  0  0  0  0  0  0  0  0  0  0
   18.6684  -24.5987  -10.2304 N   0  0  0  0  0  0  0  0  0  0  0  0
   17.6550  -23.9730  -10.9952 C   0  0  0  0  0  0  0  0  0  0  0  0
   16.5246  -23.6263  -10.5063 N   0  0  0  0  0  0  0  0  0  0  0  0
   17.9154  -23.7120  -12.4000 N   0  0  0  0  0  0  0  0  0  0  0  0
   19.2765  -23.7088  -12.8181 C   0  0  0  0  0  0  0  0  0  0  0  0
   20.2359  -22.8061  -12.1751 C   0  0  0  0  0  0  0  0  0  0  0  0
   21.6461  -22.7684  -12.6298 C   0  0  0  0  0  0  0  0  0  0  0  0
   21.9411  -21.8628  -13.7427 C   0  0  2  0  0  0  0  0  0  0  0  0
   23.4027  -21.7972  -14.0189 N   0  0  0  0  0  0  0  0  0  0  0  0
   21.5621  -20.4782  -13.4225 C   0  0  0  0  0  0  0  0  0  0  0  0
   20.4108  -20.0317  -13.7972 O   0  0  0  0  0  0  0  0  0  0  0  0
   22.3219  -19.5683  -12.7447 O   0  0  0  0  0  0  0  0  0  0  0  0
  2  1  1  6
  2  4  1  0
  2  3  1  0
  4  5  2  0
  7  6  1  1
  7  8  1  0
  9  7  1  0
 10  9  1  6
 10 12  1  0
 11 10  1  0
 11  4  1  0
 12 13  2  0
 14 15  1  0
 15 16  2  0
 17 18  1  0
 17 15  1  0
 19 20  1  0
 19 18  1  0
 21 20  1  1
 21 23  1  0
 22 21  1  0
 22 12  1  0
 23 24  2  0
 23 25  1  0
M  END
$$$$
