ALR.pdb
     RDKit          3D

 25 24  0  0  1  0  0  0  0  0999 V2000
   27.3972  -16.6765  -15.8953 C   0  0  0  0  0  0  0  0  0  0  0  0
   26.5758  -15.8217  -16.8132 C   0  0  2  0  0  0  0  0  0  0  0  0
   26.8360  -16.0783  -18.2138 N   0  0  0  0  0  0  0  0  0  0  0  0
   26.8441  -14.3765  -16.5685 C   0  0  0  0  0  0  0  0  0  0  0  0
   26.6430  -13.9123  -15.4036 O   0  0  0  0  0  0  0  0  0  0  0  0
   29.4367   -9.4959  -16.7796 C   0  0  0  0  0  0  0  0  0  0  0  0
   28.9227  -10.0602  -18.0477 C   0  0  1  0  0  0  0  0  0  0  0  0
   29.9959   -9.7645  -19.1125 C   0  0  0  0  0  0  0  0  0  0  0  0
   28.6588  -11.5073  -18.1166 C   0  0  0  0  0  0  0  0  0  0  0  0
   27.5441  -12.0829  -17.3448 C   0  0  2  0  0  0  0  0  0  0  0  0
   27.3138  -13.4857  -17.5680 N   0  0  0  0  0  0  0  0  0  0  0  0
   26.3230  -11.2733  -17.4595 C   0  0  0  0  0  0  0  0  0  0  0  0
   25.6305  -11.3998  -18.5107 O   0  0  0  0  0  0  0  0  0  0  0  0
   20.0852   -8.9974  -11.9182 N   0  0  0  0  0  0  0  0  0  0  0  0
   19.5274   -8.4191  -13.0835 C   0  0  0  0  0  0  0  0  0  0  0  0
   18.3284   -7.9757  -13.1379 N   0  0  0  0  0  0  0  0  0  0  0  0
   20.3591   -8.3243  -14.2704 N   0  0  0  0  0  0  0  0  0  0  0  0
   21.6144   -8.9957  -14.2385 C   0  0  0  0  0  0  0  0  0  0  0  0
   22.4852   -8.9726  -15.4174 C   0  0  0  0  0  0  0  0  0  0  0  0
   23.7626   -9.7243  -15.4172 C   0  0  0  0  0  0  0  0  0  0  0  0
   24.5678   -9.6284  -16.6370 C   0  0  2  0  0  0  0  0  0  0  0  0
   25.8554  -10.3632  -16.4990 N   0  0  0  0  0  0  0  0  0  0  0  0
   24.9621   -8.2383  -16.9117 C   0  0  0  0  0  0  0  0  0  0  0  0
   26.0372   -7.7653  -16.3773 O   0  0  0  0  0  0  0  0  0  0  0  0
   24.2915   -7.3490  -17.7018 O   0  0  0  0  0  0  0  0  0  0  0  0
  2  1  1  1
  2  4  1  0
  2  3  1  0
  4  5  2  0
  7  6  1  1
  7  8  1  0
  9  7  1  0
 10  9  1  6
 10 12  1  0
 11 10  1  0
 11  4  1  0
 12 13  2  0
 14 15  1  0
 15 16  2  0
 17 18  1  0
 17 15  1  0
 19 20  1  0
 19 18  1  0
 21 20  1  1
 21 23  1  0
 22 21  1  0
 22 12  1  0
 23 24  2  0
 23 25  1  0
M  END
$$$$
