ALR.pdb
     RDKit          3D

 25 24  0  0  1  0  0  0  0  0999 V2000
   27.1969  -18.9779  -16.8615 C   0  0  0  0  0  0  0  0  0  0  0  0
   28.2578  -19.7833  -16.1730 C   0  0  2  0  0  0  0  0  0  0  0  0
   28.8071  -20.8311  -17.0070 N   0  0  0  0  0  0  0  0  0  0  0  0
   27.7148  -20.4305  -14.9455 C   0  0  0  0  0  0  0  0  0  0  0  0
   26.9451  -21.4318  -15.0792 O   0  0  0  0  0  0  0  0  0  0  0  0
   28.6121  -20.7953   -8.7445 C   0  0  0  0  0  0  0  0  0  0  0  0
   27.7630  -20.9534   -9.9464 C   0  0  1  0  0  0  0  0  0  0  0  0
   26.4155  -20.2881   -9.6076 C   0  0  0  0  0  0  0  0  0  0  0  0
   28.2162  -20.3501  -11.2109 C   0  0  0  0  0  0  0  0  0  0  0  0
   27.4416  -20.5726  -12.4439 C   0  0  2  0  0  0  0  0  0  0  0  0
   28.0104  -19.9891  -13.6299 N   0  0  0  0  0  0  0  0  0  0  0  0
   26.0206  -20.2437  -12.2647 C   0  0  0  0  0  0  0  0  0  0  0  0
   25.7220  -19.0375  -12.0268 O   0  0  0  0  0  0  0  0  0  0  0  0
   19.5871  -20.3628  -16.2515 N   0  0  0  0  0  0  0  0  0  0  0  0
   18.6015  -20.8440  -15.3568 C   0  0  0  0  0  0  0  0  0  0  0  0
   17.3615  -20.5447  -15.4570 N   0  0  0  0  0  0  0  0  0  0  0  0
   19.0211  -21.7201  -14.2771 N   0  0  0  0  0  0  0  0  0  0  0  0
   20.4070  -22.0377  -14.2005 C   0  0  0  0  0  0  0  0  0  0  0  0
   21.2846  -21.2684  -13.3134 C   0  0  0  0  0  0  0  0  0  0  0  0
   22.7314  -21.5817  -13.2390 C   0  0  0  0  0  0  0  0  0  0  0  0
   23.5286  -20.7400  -12.3436 C   0  0  2  0  0  0  0  0  0  0  0  0
   24.9576  -21.1575  -12.3323 N   0  0  0  0  0  0  0  0  0  0  0  0
   23.0910  -20.8786  -10.9462 C   0  0  0  0  0  0  0  0  0  0  0  0
   22.0597  -20.2209  -10.5350 O   0  0  0  0  0  0  0  0  0  0  0  0
   23.6765  -21.6573   -9.9893 O   0  0  0  0  0  0  0  0  0  0  0  0
  2  1  1  6
  2  4  1  0
  2  3  1  0
  4  5  2  0
  7  6  1  1
  7  8  1  0
  9  7  1  0
 10  9  1  1
 10 12  1  0
 11 10  1  0
 11  4  1  0
 12 13  2  0
 14 15  1  0
 15 16  2  0
 17 18  1  0
 17 15  1  0
 19 20  1  0
 19 18  1  0
 21 20  1  6
 21 23  1  0
 22 21  1  0
 22 12  1  0
 23 24  2  0
 23 25  1  0
M  END
$$$$
