ALR.pdb
     RDKit          3D

 25 24  0  0  1  0  0  0  0  0999 V2000
   27.7684  -19.6671  -16.4663 C   0  0  0  0  0  0  0  0  0  0  0  0
   28.2627  -20.7468  -15.5510 C   0  0  2  0  0  0  0  0  0  0  0  0
   28.6089  -21.9678  -16.2470 N   0  0  0  0  0  0  0  0  0  0  0  0
   27.2281  -21.0917  -14.5356 C   0  0  0  0  0  0  0  0  0  0  0  0
   26.3098  -21.9069  -14.8599 O   0  0  0  0  0  0  0  0  0  0  0  0
   25.2041  -21.9718   -9.3497 C   0  0  0  0  0  0  0  0  0  0  0  0
   25.4991  -20.5970   -9.8116 C   0  0  1  0  0  0  0  0  0  0  0  0
   26.0317  -19.8384   -8.5812 C   0  0  0  0  0  0  0  0  0  0  0  0
   26.4996  -20.4132  -10.8763 C   0  0  0  0  0  0  0  0  0  0  0  0
   26.2014  -20.8709  -12.2443 C   0  0  2  0  0  0  0  0  0  0  0  0
   27.2108  -20.5584  -13.2209 N   0  0  0  0  0  0  0  0  0  0  0  0
   24.8492  -20.4828  -12.6689 C   0  0  0  0  0  0  0  0  0  0  0  0
   24.6690  -19.2850  -13.0343 O   0  0  0  0  0  0  0  0  0  0  0  0
   17.8555  -23.2381  -14.9516 N   0  0  0  0  0  0  0  0  0  0  0  0
   17.7916  -22.4258  -16.1091 C   0  0  0  0  0  0  0  0  0  0  0  0
   16.6935  -21.9722  -16.5842 N   0  0  0  0  0  0  0  0  0  0  0  0
   19.0331  -22.0918  -16.7847 N   0  0  0  0  0  0  0  0  0  0  0  0
   20.2455  -22.4188  -16.1136 C   0  0  0  0  0  0  0  0  0  0  0  0
   20.7162  -21.5813  -15.0064 C   0  0  0  0  0  0  0  0  0  0  0  0
   22.0406  -21.8329  -14.3904 C   0  0  0  0  0  0  0  0  0  0  0  0
   22.4285  -20.9306  -13.3036 C   0  0  2  0  0  0  0  0  0  0  0  0
   23.7308  -21.3300  -12.7026 N   0  0  0  0  0  0  0  0  0  0  0  0
   21.4715  -20.9916  -12.1884 C   0  0  0  0  0  0  0  0  0  0  0  0
   21.7379  -21.7269  -11.1620 O   0  0  0  0  0  0  0  0  0  0  0  0
   20.2789  -20.3310  -12.1096 O   0  0  0  0  0  0  0  0  0  0  0  0
  2  1  1  6
  2  4  1  0
  2  3  1  0
  4  5  2  0
  7  6  1  1
  7  8  1  0
  9  7  1  0
 10  9  1  1
 10 12  1  0
 11 10  1  0
 11  4  1  0
 12 13  2  0
 14 15  1  0
 15 16  2  0
 17 18  1  0
 17 15  1  0
 19 20  1  0
 19 18  1  0
 21 20  1  6
 21 23  1  0
 22 21  1  0
 22 12  1  0
 23 24  2  0
 23 25  1  0
M  END
$$$$
