LYS.pdb
     RDKit          3D

 27 27  0  0  1  0  0  0  0  0999 V2000
   28.5330  -19.9449  -19.3716 C   0  0  0  0  0  0  0  0  0  0  0  0
   27.7732  -21.2168  -19.6664 C   0  0  2  0  0  0  0  0  0  0  0  0
   26.7271  -20.8563  -20.7332 C   0  0  0  0  0  0  0  0  0  0  0  0
   27.0133  -21.7685  -18.5171 C   0  0  0  0  0  0  0  0  0  0  0  0
   27.7963  -22.0871  -17.2860 C   0  0  2  0  0  0  0  0  0  0  0  0
   28.8408  -23.0473  -17.4459 N   0  0  0  0  0  0  0  0  0  0  0  0
   26.9527  -22.4116  -16.1217 C   0  0  0  0  0  0  0  0  0  0  0  0
   26.6399  -23.6002  -15.9080 O   0  0  0  0  0  0  0  0  0  0  0  0
   23.8715  -20.5637   -7.9255 O   0  0  0  0  0  0  0  0  0  0  0  0
   24.4532  -20.5832   -9.2002 C   0  0  0  0  0  0  0  0  0  0  0  0
   23.7758  -20.1634  -10.3094 C   0  0  0  0  0  0  0  0  0  0  0  0
   24.3712  -20.1926  -11.5539 C   0  0  0  0  0  0  0  0  0  0  0  0
   25.6579  -20.6375  -11.7480 C   0  0  0  0  0  0  0  0  0  0  0  0
   26.2783  -20.6626  -13.0655 C   0  0  0  0  0  0  0  0  0  0  0  0
   25.7256  -21.6552  -14.0521 C   0  0  2  0  0  0  0  0  0  0  0  0
   26.5190  -21.3851  -15.2807 N   0  0  0  0  0  0  0  0  0  0  0  0
   24.3299  -21.4277  -14.4565 C   0  0  0  0  0  0  0  0  0  0  0  0
   23.9832  -20.4282  -15.1833 O   0  0  0  0  0  0  0  0  0  0  0  0
   26.3418  -21.0626  -10.6199 C   0  0  0  0  0  0  0  0  0  0  0  0
   25.7488  -21.0362   -9.3635 C   0  0  0  0  0  0  0  0  0  0  0  0
   21.0757  -24.1674  -13.8307 O   0  0  0  0  0  0  0  0  0  0  0  0
   21.1007  -23.2509  -14.8538 C   0  0  0  0  0  0  0  0  0  0  0  0
   21.8784  -21.9952  -14.5118 C   0  0  2  0  0  0  0  0  0  0  0  0
   23.2179  -22.2679  -14.1064 N   0  0  0  0  0  0  0  0  0  0  0  0
   21.0725  -21.1929  -13.5827 C   0  0  0  0  0  0  0  0  0  0  0  0
   19.7981  -20.7617  -13.9716 O   0  0  0  0  0  0  0  0  0  0  0  0
   21.5448  -20.9101  -12.4566 O   0  0  0  0  0  0  0  0  0  0  0  0
  2  1  1  1
  3  2  1  0
  4  2  1  0
  4  5  1  0
  5  6  1  6
  7  5  1  0
  7  8  2  0
  9 10  1  0
 10 11  2  0
 11 12  1  0
 13 14  1  0
 13 12  2  0
 15 14  1  1
 15 16  1  0
 16  7  1  0
 17 15  1  0
 18 17  2  0
 19 13  1  0
 20 19  2  0
 20 10  1  0
 21 22  1  0
 23 22  1  1
 23 25  1  0
 23 24  1  0
 24 17  1  0
 25 26  1  0
 27 25  2  0
M  END
$$$$
