LYS.pdb
     RDKit          3D

 27 27  0  0  1  0  0  0  0  0999 V2000
   20.5923  -14.9586  -16.6797 C   0  0  0  0  0  0  0  0  0  0  0  0
   21.8914  -14.5969  -17.3606 C   0  0  2  0  0  0  0  0  0  0  0  0
   22.3433  -15.8535  -18.1217 C   0  0  0  0  0  0  0  0  0  0  0  0
   23.0028  -14.2539  -16.4389 C   0  0  0  0  0  0  0  0  0  0  0  0
   24.2717  -13.7776  -17.0660 C   0  0  2  0  0  0  0  0  0  0  0  0
   25.3688  -14.6899  -17.0168 N   0  0  0  0  0  0  0  0  0  0  0  0
   24.6798  -12.4343  -16.6171 C   0  0  0  0  0  0  0  0  0  0  0  0
   25.3575  -12.3192  -15.5762 O   0  0  0  0  0  0  0  0  0  0  0  0
   30.8552  -11.6035  -17.6197 O   0  0  0  0  0  0  0  0  0  0  0  0
   29.5637  -11.0650  -17.6951 C   0  0  0  0  0  0  0  0  0  0  0  0
   29.2296   -9.8993  -17.0667 C   0  0  0  0  0  0  0  0  0  0  0  0
   27.9504   -9.3898  -17.1565 C   0  0  0  0  0  0  0  0  0  0  0  0
   26.9543  -10.0134  -17.8707 C   0  0  0  0  0  0  0  0  0  0  0  0
   25.6074   -9.4666  -17.9610 C   0  0  0  0  0  0  0  0  0  0  0  0
   24.6201   -9.9317  -16.9250 C   0  0  2  0  0  0  0  0  0  0  0  0
   24.3009  -11.3166  -17.3631 N   0  0  0  0  0  0  0  0  0  0  0  0
   23.3254   -9.2340  -16.9340 C   0  0  0  0  0  0  0  0  0  0  0  0
   22.4954   -9.3459  -17.9066 O   0  0  0  0  0  0  0  0  0  0  0  0
   27.2973  -11.1961  -18.5069 C   0  0  0  0  0  0  0  0  0  0  0  0
   28.5835  -11.7152  -18.4210 C   0  0  0  0  0  0  0  0  0  0  0  0
   21.4484   -7.1126  -13.6136 O   0  0  0  0  0  0  0  0  0  0  0  0
   20.8198   -7.7844  -14.6339 C   0  0  0  0  0  0  0  0  0  0  0  0
   21.5751   -7.7184  -15.9469 C   0  0  2  0  0  0  0  0  0  0  0  0
   22.8403   -8.3735  -15.8903 N   0  0  0  0  0  0  0  0  0  0  0  0
   21.5902   -6.3216  -16.3999 C   0  0  0  0  0  0  0  0  0  0  0  0
   20.3800   -5.6756  -16.6815 O   0  0  0  0  0  0  0  0  0  0  0  0
   22.6909   -5.7352  -16.5252 O   0  0  0  0  0  0  0  0  0  0  0  0
  2  1  1  1
  3  2  1  0
  4  2  1  0
  4  5  1  0
  5  6  1  1
  7  5  1  0
  7  8  2  0
  9 10  1  0
 10 11  2  0
 11 12  1  0
 13 14  1  0
 13 12  2  0
 15 14  1  6
 15 16  1  0
 16  7  1  0
 17 15  1  0
 18 17  2  0
 19 13  1  0
 20 19  2  0
 20 10  1  0
 21 22  1  0
 23 22  1  1
 23 25  1  0
 23 24  1  0
 24 17  1  0
 25 26  1  0
 27 25  2  0
M  END
$$$$
