LYS.pdb
     RDKit          3D

 27 27  0  0  1  0  0  0  0  0999 V2000
   14.9198  -11.7251  -19.4922 C   0  0  0  0  0  0  0  0  0  0  0  0
   14.4463  -12.1414  -18.1194 C   0  0  2  0  0  0  0  0  0  0  0  0
   12.9353  -11.8620  -18.0818 C   0  0  0  0  0  0  0  0  0  0  0  0
   15.0342  -11.3684  -16.9973 C   0  0  0  0  0  0  0  0  0  0  0  0
   16.5189  -11.4269  -16.8475 C   0  0  2  0  0  0  0  0  0  0  0  0
   17.0700  -12.7258  -16.6297 N   0  0  0  0  0  0  0  0  0  0  0  0
   17.0490  -10.4567  -15.8727 C   0  0  0  0  0  0  0  0  0  0  0  0
   17.0325  -10.7418  -14.6584 O   0  0  0  0  0  0  0  0  0  0  0  0
   22.8407   -4.0105  -13.8685 O   0  0  0  0  0  0  0  0  0  0  0  0
   22.0431   -5.0594  -14.3450 C   0  0  0  0  0  0  0  0  0  0  0  0
   21.4060   -4.9915  -15.5512 C   0  0  0  0  0  0  0  0  0  0  0  0
   20.6259   -6.0384  -15.9980 C   0  0  0  0  0  0  0  0  0  0  0  0
   20.4468   -7.1909  -15.2694 C   0  0  0  0  0  0  0  0  0  0  0  0
   19.6228   -8.2913  -15.7505 C   0  0  0  0  0  0  0  0  0  0  0  0
   18.1609   -8.2433  -15.3974 C   0  0  2  0  0  0  0  0  0  0  0  0
   17.5586   -9.2380  -16.3246 N   0  0  0  0  0  0  0  0  0  0  0  0
   17.4791   -6.9801  -15.7174 C   0  0  0  0  0  0  0  0  0  0  0  0
   17.2684   -6.6043  -16.9266 O   0  0  0  0  0  0  0  0  0  0  0  0
   21.0950   -7.2558  -14.0459 C   0  0  0  0  0  0  0  0  0  0  0  0
   21.8821   -6.2056  -13.5894 C   0  0  0  0  0  0  0  0  0  0  0  0
   15.0339   -2.9560  -14.3558 O   0  0  0  0  0  0  0  0  0  0  0  0
   15.5977   -4.1583  -14.0035 C   0  0  0  0  0  0  0  0  0  0  0  0
   16.4328   -4.7731  -15.1096 C   0  0  2  0  0  0  0  0  0  0  0  0
   16.9754   -6.0422  -14.7521 N   0  0  0  0  0  0  0  0  0  0  0  0
   17.3955   -3.7660  -15.5739 C   0  0  0  0  0  0  0  0  0  0  0  0
   17.1898   -3.1327  -16.8058 O   0  0  0  0  0  0  0  0  0  0  0  0
   18.3850   -3.4939  -14.8541 O   0  0  0  0  0  0  0  0  0  0  0  0
  2  1  1  6
  3  2  1  0
  4  2  1  0
  4  5  1  0
  5  6  1  1
  7  5  1  0
  7  8  2  0
  9 10  1  0
 10 11  2  0
 11 12  1  0
 13 14  1  0
 13 12  2  0
 15 14  1  6
 15 16  1  0
 16  7  1  0
 17 15  1  0
 18 17  2  0
 19 13  1  0
 20 19  2  0
 20 10  1  0
 21 22  1  0
 23 22  1  1
 23 25  1  0
 23 24  1  0
 24 17  1  0
 25 26  1  0
 27 25  2  0
M  END
$$$$
