LYS.pdb
     RDKit          3D

 27 27  0  0  1  0  0  0  0  0999 V2000
   25.3943  -34.1537  -14.6973 C   0  0  0  0  0  0  0  0  0  0  0  0
   24.1215  -34.0069  -13.8970 C   0  0  2  0  0  0  0  0  0  0  0  0
   23.2930  -32.9202  -14.6006 C   0  0  0  0  0  0  0  0  0  0  0  0
   24.3138  -33.5372  -12.5024 C   0  0  0  0  0  0  0  0  0  0  0  0
   25.1708  -34.3851  -11.6210 C   0  0  2  0  0  0  0  0  0  0  0  0
   24.7400  -35.7354  -11.4497 N   0  0  0  0  0  0  0  0  0  0  0  0
   25.4777  -33.7586  -10.3226 C   0  0  0  0  0  0  0  0  0  0  0  0
   25.8991  -32.5848  -10.2967 O   0  0  0  0  0  0  0  0  0  0  0  0
   23.3246  -33.1257   -1.7278 O   0  0  0  0  0  0  0  0  0  0  0  0
   23.5147  -33.2429   -3.1113 C   0  0  0  0  0  0  0  0  0  0  0  0
   24.0942  -32.2490   -3.8472 C   0  0  0  0  0  0  0  0  0  0  0  0
   24.2701  -32.3890   -5.2087 C   0  0  0  0  0  0  0  0  0  0  0  0
   23.8798  -33.5163   -5.8929 C   0  0  0  0  0  0  0  0  0  0  0  0
   24.0715  -33.6553   -7.3300 C   0  0  0  0  0  0  0  0  0  0  0  0
   25.4820  -33.8802   -7.8034 C   0  0  2  0  0  0  0  0  0  0  0  0
   25.2923  -34.4887   -9.1471 N   0  0  0  0  0  0  0  0  0  0  0  0
   26.2450  -34.8850   -7.0475 C   0  0  0  0  0  0  0  0  0  0  0  0
   25.9402  -36.1316   -7.0671 O   0  0  0  0  0  0  0  0  0  0  0  0
   23.2921  -34.5225   -5.1424 C   0  0  0  0  0  0  0  0  0  0  0  0
   23.1116  -34.3887   -3.7711 C   0  0  0  0  0  0  0  0  0  0  0  0
   29.7423  -36.0101   -3.7857 O   0  0  0  0  0  0  0  0  0  0  0  0
   29.2080  -35.0862   -4.6507 C   0  0  0  0  0  0  0  0  0  0  0  0
   27.8830  -35.5213   -5.2455 C   0  0  2  0  0  0  0  0  0  0  0  0
   27.3906  -34.6094   -6.2249 N   0  0  0  0  0  0  0  0  0  0  0  0
   26.9670  -35.8432   -4.1437 C   0  0  0  0  0  0  0  0  0  0  0  0
   26.5456  -37.1663   -3.9623 O   0  0  0  0  0  0  0  0  0  0  0  0
   26.5806  -34.9225   -3.3860 O   0  0  0  0  0  0  0  0  0  0  0  0
  2  1  1  6
  3  2  1  0
  4  2  1  0
  4  5  1  0
  5  6  1  1
  7  5  1  0
  7  8  2  0
  9 10  1  0
 10 11  2  0
 11 12  1  0
 13 14  1  0
 13 12  2  0
 15 14  1  1
 15 16  1  0
 16  7  1  0
 17 15  1  0
 18 17  2  0
 19 13  1  0
 20 19  2  0
 20 10  1  0
 21 22  1  0
 23 22  1  1
 23 25  1  0
 23 24  1  0
 24 17  1  0
 25 26  1  0
 27 25  2  0
M  END
$$$$
