LYS.pdb
     RDKit          3D

 27 27  0  0  1  0  0  0  0  0999 V2000
   28.1923  -21.4570  -20.6578 C   0  0  0  0  0  0  0  0  0  0  0  0
   29.2122  -22.0731  -19.7292 C   0  0  2  0  0  0  0  0  0  0  0  0
   29.7174  -23.3458  -20.4275 C   0  0  0  0  0  0  0  0  0  0  0  0
   28.6748  -22.5112  -18.4170 C   0  0  0  0  0  0  0  0  0  0  0  0
   28.0298  -21.4623  -17.5721 C   0  0  2  0  0  0  0  0  0  0  0  0
   28.8588  -20.3558  -17.2161 N   0  0  0  0  0  0  0  0  0  0  0  0
   27.3357  -22.0054  -16.3907 C   0  0  0  0  0  0  0  0  0  0  0  0
   27.4845  -23.2083  -16.0959 O   0  0  0  0  0  0  0  0  0  0  0  0
   23.5745  -20.6894   -8.3747 O   0  0  0  0  0  0  0  0  0  0  0  0
   24.2310  -20.6619   -9.6124 C   0  0  0  0  0  0  0  0  0  0  0  0
   23.6530  -20.1187  -10.7243 C   0  0  0  0  0  0  0  0  0  0  0  0
   24.3206  -20.1040  -11.9319 C   0  0  0  0  0  0  0  0  0  0  0  0
   25.5839  -20.6253  -12.0850 C   0  0  0  0  0  0  0  0  0  0  0  0
   26.2812  -20.6033  -13.3636 C   0  0  0  0  0  0  0  0  0  0  0  0
   25.8625  -21.6331  -14.3776 C   0  0  2  0  0  0  0  0  0  0  0  0
   26.5252  -21.1658  -15.6243 N   0  0  0  0  0  0  0  0  0  0  0  0
   24.4285  -21.6457  -14.7042 C   0  0  0  0  0  0  0  0  0  0  0  0
   23.8510  -20.6572  -15.2845 O   0  0  0  0  0  0  0  0  0  0  0  0
   26.1670  -21.1756  -10.9543 C   0  0  0  0  0  0  0  0  0  0  0  0
   25.5008  -21.1941   -9.7350 C   0  0  0  0  0  0  0  0  0  0  0  0
   20.0768  -23.9180  -14.8116 O   0  0  0  0  0  0  0  0  0  0  0  0
   21.4271  -23.9886  -14.5685 C   0  0  0  0  0  0  0  0  0  0  0  0
   22.1175  -22.6405  -14.6373 C   0  0  2  0  0  0  0  0  0  0  0  0
   23.5254  -22.7293  -14.4298 N   0  0  0  0  0  0  0  0  0  0  0  0
   21.3932  -21.7070  -13.7651 C   0  0  0  0  0  0  0  0  0  0  0  0
   20.5428  -20.7511  -14.3344 O   0  0  0  0  0  0  0  0  0  0  0  0
   21.5525  -21.7866  -12.5244 O   0  0  0  0  0  0  0  0  0  0  0  0
  2  1  1  6
  3  2  1  0
  4  2  1  0
  4  5  1  0
  5  6  1  1
  7  5  1  0
  7  8  2  0
  9 10  1  0
 10 11  2  0
 11 12  1  0
 13 14  1  0
 13 12  2  0
 15 14  1  1
 15 16  1  0
 16  7  1  0
 17 15  1  0
 18 17  2  0
 19 13  1  0
 20 19  2  0
 20 10  1  0
 21 22  1  0
 23 22  1  1
 23 25  1  0
 23 24  1  0
 24 17  1  0
 25 26  1  0
 27 25  2  0
M  END
$$$$
