LYS.pdb
     RDKit          3D

 27 27  0  0  1  0  0  0  0  0999 V2000
   20.1091  -33.2014   -2.1266 C   0  0  0  0  0  0  0  0  0  0  0  0
   20.3043  -34.6411   -2.5402 C   0  0  2  0  0  0  0  0  0  0  0  0
   19.7616  -35.4984   -1.3857 C   0  0  0  0  0  0  0  0  0  0  0  0
   21.7191  -35.0495   -2.7243 C   0  0  0  0  0  0  0  0  0  0  0  0
   22.5139  -34.2816   -3.7286 C   0  0  2  0  0  0  0  0  0  0  0  0
   22.0155  -34.3083   -5.0662 N   0  0  0  0  0  0  0  0  0  0  0  0
   23.9553  -34.5879   -3.6946 C   0  0  0  0  0  0  0  0  0  0  0  0
   24.4477  -35.3035   -4.5899 O   0  0  0  0  0  0  0  0  0  0  0  0
   26.5758  -31.9167   -8.6255 O   0  0  0  0  0  0  0  0  0  0  0  0
   26.6378  -32.1918   -7.2529 C   0  0  0  0  0  0  0  0  0  0  0  0
   27.5535  -33.0607   -6.7314 C   0  0  0  0  0  0  0  0  0  0  0  0
   27.5940  -33.3147   -5.3756 C   0  0  0  0  0  0  0  0  0  0  0  0
   26.7312  -32.7194   -4.4855 C   0  0  0  0  0  0  0  0  0  0  0  0
   26.7832  -32.9926   -3.0558 C   0  0  0  0  0  0  0  0  0  0  0  0
   26.2098  -34.3068   -2.5993 C   0  0  2  0  0  0  0  0  0  0  0  0
   24.7424  -34.0732   -2.6627 N   0  0  0  0  0  0  0  0  0  0  0  0
   26.4686  -34.6498   -1.1928 C   0  0  0  0  0  0  0  0  0  0  0  0
   26.0402  -33.9265   -0.2229 O   0  0  0  0  0  0  0  0  0  0  0  0
   25.8035  -31.8383   -5.0187 C   0  0  0  0  0  0  0  0  0  0  0  0
   25.7567  -31.5776   -6.3829 C   0  0  0  0  0  0  0  0  0  0  0  0
   27.9630  -38.4266    0.2917 O   0  0  0  0  0  0  0  0  0  0  0  0
   27.1336  -37.5605    0.9621 C   0  0  0  0  0  0  0  0  0  0  0  0
   27.4023  -36.1042    0.6370 C   0  0  2  0  0  0  0  0  0  0  0  0
   27.2030  -35.7997   -0.7416 N   0  0  0  0  0  0  0  0  0  0  0  0
   28.7105  -35.7411    1.1967 C   0  0  0  0  0  0  0  0  0  0  0  0
   28.9484  -35.9209    2.5649 O   0  0  0  0  0  0  0  0  0  0  0  0
   29.5898  -35.2760    0.4340 O   0  0  0  0  0  0  0  0  0  0  0  0
  2  1  1  1
  3  2  1  0
  4  2  1  0
  4  5  1  0
  5  6  1  6
  7  5  1  0
  7  8  2  0
  9 10  1  0
 10 11  2  0
 11 12  1  0
 13 14  1  0
 13 12  2  0
 15 14  1  1
 15 16  1  0
 16  7  1  0
 17 15  1  0
 18 17  2  0
 19 13  1  0
 20 19  2  0
 20 10  1  0
 21 22  1  0
 23 22  1  6
 23 25  1  0
 23 24  1  0
 24 17  1  0
 25 26  1  0
 27 25  2  0
M  END
$$$$
