LYS.pdb
     RDKit          3D

 27 27  0  0  1  0  0  0  0  0999 V2000
   27.0983  -14.5899  -15.2698 C   0  0  0  0  0  0  0  0  0  0  0  0
   26.3219  -14.7025  -16.5607 C   0  0  2  0  0  0  0  0  0  0  0  0
   27.3102  -15.2293  -17.6134 C   0  0  0  0  0  0  0  0  0  0  0  0
   25.8055  -13.4160  -17.0907 C   0  0  0  0  0  0  0  0  0  0  0  0
   24.8276  -12.6815  -16.2338 C   0  0  2  0  0  0  0  0  0  0  0  0
   23.8096  -13.4798  -15.6298 N   0  0  0  0  0  0  0  0  0  0  0  0
   24.2502  -11.4938  -16.8883 C   0  0  0  0  0  0  0  0  0  0  0  0
   25.0020  -10.7102  -17.5022 O   0  0  0  0  0  0  0  0  0  0  0  0
   17.2170   -6.9969  -20.1635 O   0  0  0  0  0  0  0  0  0  0  0  0
   18.1572   -7.9059  -19.6599 C   0  0  0  0  0  0  0  0  0  0  0  0
   17.8799   -8.7166  -18.5964 C   0  0  0  0  0  0  0  0  0  0  0  0
   18.8233   -9.6036  -18.1194 C   0  0  0  0  0  0  0  0  0  0  0  0
   20.0752   -9.7220  -18.6759 C   0  0  0  0  0  0  0  0  0  0  0  0
   21.0636  -10.6627  -18.1663 C   0  0  0  0  0  0  0  0  0  0  0  0
   22.2360  -10.0751  -17.4287 C   0  0  2  0  0  0  0  0  0  0  0  0
   22.8748  -11.2668  -16.8094 N   0  0  0  0  0  0  0  0  0  0  0  0
   21.8917   -9.2081  -16.2916 C   0  0  0  0  0  0  0  0  0  0  0  0
   21.4662   -9.6801  -15.1765 O   0  0  0  0  0  0  0  0  0  0  0  0
   20.3527   -8.8975  -19.7549 C   0  0  0  0  0  0  0  0  0  0  0  0
   19.4078   -8.0019  -20.2408 C   0  0  0  0  0  0  0  0  0  0  0  0
   21.7743   -4.8103  -14.1352 O   0  0  0  0  0  0  0  0  0  0  0  0
   22.1169   -5.5640  -15.2315 C   0  0  0  0  0  0  0  0  0  0  0  0
   21.5542   -6.9712  -15.1883 C   0  0  2  0  0  0  0  0  0  0  0  0
   21.9895   -7.7744  -16.2830 N   0  0  0  0  0  0  0  0  0  0  0  0
   20.1019   -6.8807  -14.9901 C   0  0  0  0  0  0  0  0  0  0  0  0
   19.5608   -7.1504  -13.7270 O   0  0  0  0  0  0  0  0  0  0  0  0
   19.3749   -6.5625  -15.9604 O   0  0  0  0  0  0  0  0  0  0  0  0
  2  1  1  1
  3  2  1  0
  4  2  1  0
  4  5  1  0
  5  6  1  6
  7  5  1  0
  7  8  2  0
  9 10  1  0
 10 11  2  0
 11 12  1  0
 13 14  1  0
 13 12  2  0
 15 14  1  1
 15 16  1  0
 16  7  1  0
 17 15  1  0
 18 17  2  0
 19 13  1  0
 20 19  2  0
 20 10  1  0
 21 22  1  0
 23 22  1  6
 23 25  1  0
 23 24  1  0
 24 17  1  0
 25 26  1  0
 27 25  2  0
M  END
$$$$
