LYS.pdb
     RDKit          3D

 27 27  0  0  1  0  0  0  0  0999 V2000
   23.6125  -11.7051  -20.8711 C   0  0  0  0  0  0  0  0  0  0  0  0
   22.5432  -12.4374  -20.0948 C   0  0  2  0  0  0  0  0  0  0  0  0
   21.6277  -13.0962  -21.1389 C   0  0  0  0  0  0  0  0  0  0  0  0
   21.6666  -11.5682  -19.2710 C   0  0  0  0  0  0  0  0  0  0  0  0
   22.3408  -10.7047  -18.2561 C   0  0  2  0  0  0  0  0  0  0  0  0
   23.1657  -11.3863  -17.3110 N   0  0  0  0  0  0  0  0  0  0  0  0
   21.4244   -9.7685  -17.5806 C   0  0  0  0  0  0  0  0  0  0  0  0
   20.6276   -9.0953  -18.2647 O   0  0  0  0  0  0  0  0  0  0  0  0
   15.6362  -13.0877  -16.1771 O   0  0  0  0  0  0  0  0  0  0  0  0
   16.7030  -12.2881  -15.7455 C   0  0  0  0  0  0  0  0  0  0  0  0
   17.9370  -12.8110  -15.4824 C   0  0  0  0  0  0  0  0  0  0  0  0
   18.9714  -12.0020  -15.0584 C   0  0  0  0  0  0  0  0  0  0  0  0
   18.8243  -10.6466  -14.8789 C   0  0  0  0  0  0  0  0  0  0  0  0
   19.9229   -9.8007  -14.4327 C   0  0  0  0  0  0  0  0  0  0  0  0
   20.4780   -8.8298  -15.4394 C   0  0  2  0  0  0  0  0  0  0  0  0
   21.4646   -9.6515  -16.1900 N   0  0  0  0  0  0  0  0  0  0  0  0
   21.2696   -7.7256  -14.8762 C   0  0  0  0  0  0  0  0  0  0  0  0
   22.2734   -7.9294  -14.1027 O   0  0  0  0  0  0  0  0  0  0  0  0
   17.5706  -10.1198  -15.1469 C   0  0  0  0  0  0  0  0  0  0  0  0
   16.5242  -10.9282  -15.5742 C   0  0  0  0  0  0  0  0  0  0  0  0
   22.1180   -4.2104  -16.7465 O   0  0  0  0  0  0  0  0  0  0  0  0
   22.7920   -4.7121  -15.6596 C   0  0  0  0  0  0  0  0  0  0  0  0
   21.8731   -5.2972  -14.6051 C   0  0  2  0  0  0  0  0  0  0  0  0
   21.0318   -6.3288  -15.1158 N   0  0  0  0  0  0  0  0  0  0  0  0
   21.1947   -4.1898  -13.9196 C   0  0  0  0  0  0  0  0  0  0  0  0
   21.9531   -3.2522  -13.2078 O   0  0  0  0  0  0  0  0  0  0  0  0
   19.9457   -4.1074  -13.9869 O   0  0  0  0  0  0  0  0  0  0  0  0
  2  1  1  6
  3  2  1  0
  4  2  1  0
  4  5  1  0
  5  6  1  1
  7  5  1  0
  7  8  2  0
  9 10  1  0
 10 11  2  0
 11 12  1  0
 13 14  1  0
 13 12  2  0
 15 14  1  1
 15 16  1  0
 16  7  1  0
 17 15  1  0
 18 17  2  0
 19 13  1  0
 20 19  2  0
 20 10  1  0
 21 22  1  0
 23 22  1  6
 23 25  1  0
 23 24  1  0
 24 17  1  0
 25 26  1  0
 27 25  2  0
M  END
$$$$
