LYS.pdb
     RDKit          3D

 27 27  0  0  1  0  0  0  0  0999 V2000
   26.2180  -10.6173  -20.7613 C   0  0  0  0  0  0  0  0  0  0  0  0
   24.9264  -10.5375  -21.5407 C   0  0  2  0  0  0  0  0  0  0  0  0
   25.1493   -9.4840  -22.6374 C   0  0  0  0  0  0  0  0  0  0  0  0
   23.7546  -10.0724  -20.7575 C   0  0  0  0  0  0  0  0  0  0  0  0
   23.4052  -10.8627  -19.5396 C   0  0  2  0  0  0  0  0  0  0  0  0
   23.1073  -12.2417  -19.7589 N   0  0  0  0  0  0  0  0  0  0  0  0
   22.3732  -10.2249  -18.7024 C   0  0  0  0  0  0  0  0  0  0  0  0
   21.1998  -10.1650  -19.1214 O   0  0  0  0  0  0  0  0  0  0  0  0
   17.8021  -14.3493  -16.6543 O   0  0  0  0  0  0  0  0  0  0  0  0
   18.7465  -13.3539  -16.3698 C   0  0  0  0  0  0  0  0  0  0  0  0
   20.0878  -13.6112  -16.3655 C   0  0  0  0  0  0  0  0  0  0  0  0
   20.9977  -12.6133  -16.0821 C   0  0  0  0  0  0  0  0  0  0  0  0
   20.6156  -11.3244  -15.7927 C   0  0  0  0  0  0  0  0  0  0  0  0
   21.5839  -10.2774  -15.4966 C   0  0  0  0  0  0  0  0  0  0  0  0
   21.7113   -9.1712  -16.5086 C   0  0  2  0  0  0  0  0  0  0  0  0
   22.7267   -9.6997  -17.4580 N   0  0  0  0  0  0  0  0  0  0  0  0
   22.2958   -7.9206  -16.0013 C   0  0  0  0  0  0  0  0  0  0  0  0
   23.5260   -7.8364  -15.6449 O   0  0  0  0  0  0  0  0  0  0  0  0
   19.2536  -11.0673  -15.7981 C   0  0  0  0  0  0  0  0  0  0  0  0
   18.3314  -12.0671  -16.0825 C   0  0  0  0  0  0  0  0  0  0  0  0
   20.3129   -4.0987  -15.9628 O   0  0  0  0  0  0  0  0  0  0  0  0
   21.6716   -4.2411  -16.1074 C   0  0  0  0  0  0  0  0  0  0  0  0
   22.2199   -5.4739  -15.4157 C   0  0  2  0  0  0  0  0  0  0  0  0
   21.5910   -6.6774  -15.8505 N   0  0  0  0  0  0  0  0  0  0  0  0
   22.2165   -5.2294  -13.9677 C   0  0  0  0  0  0  0  0  0  0  0  0
   22.9526   -4.1572  -13.4483 O   0  0  0  0  0  0  0  0  0  0  0  0
   21.5518   -5.9891  -13.2246 O   0  0  0  0  0  0  0  0  0  0  0  0
  2  1  1  1
  3  2  1  0
  4  2  1  0
  4  5  1  0
  5  6  1  6
  7  5  1  0
  7  8  2  0
  9 10  1  0
 10 11  2  0
 11 12  1  0
 13 14  1  0
 13 12  2  0
 15 14  1  1
 15 16  1  0
 16  7  1  0
 17 15  1  0
 18 17  2  0
 19 13  1  0
 20 19  2  0
 20 10  1  0
 21 22  1  0
 23 22  1  6
 23 25  1  0
 23 24  1  0
 24 17  1  0
 25 26  1  0
 27 25  2  0
M  END
$$$$
