LYS.pdb
     RDKit          3D

 27 27  0  0  1  0  0  0  0  0999 V2000
   27.2098  -20.2927  -20.0818 C   0  0  0  0  0  0  0  0  0  0  0  0
   27.3765  -21.7914  -19.9903 C   0  0  2  0  0  0  0  0  0  0  0  0
   26.5026  -22.3908  -21.1037 C   0  0  0  0  0  0  0  0  0  0  0  0
   26.8962  -22.3949  -18.7224 C   0  0  0  0  0  0  0  0  0  0  0  0
   27.5120  -21.8849  -17.4611 C   0  0  2  0  0  0  0  0  0  0  0  0
   28.9123  -22.1213  -17.3144 N   0  0  0  0  0  0  0  0  0  0  0  0
   26.7778  -22.2835  -16.2468 C   0  0  0  0  0  0  0  0  0  0  0  0
   26.7285  -23.4898  -15.9328 O   0  0  0  0  0  0  0  0  0  0  0  0
   23.6506  -20.7379   -8.0444 O   0  0  0  0  0  0  0  0  0  0  0  0
   24.2317  -20.7234   -9.3195 C   0  0  0  0  0  0  0  0  0  0  0  0
   25.4510  -21.2884   -9.5637 C   0  0  0  0  0  0  0  0  0  0  0  0
   26.0018  -21.2608  -10.8286 C   0  0  0  0  0  0  0  0  0  0  0  0
   25.3679  -20.6740  -11.8987 C   0  0  0  0  0  0  0  0  0  0  0  0
   25.9567  -20.6517  -13.2307 C   0  0  0  0  0  0  0  0  0  0  0  0
   25.4137  -21.6425  -14.2245 C   0  0  2  0  0  0  0  0  0  0  0  0
   26.1513  -21.3061  -15.4714 N   0  0  0  0  0  0  0  0  0  0  0  0
   23.9962  -21.4671  -14.5753 C   0  0  0  0  0  0  0  0  0  0  0  0
   23.5855  -20.4825  -15.2889 O   0  0  0  0  0  0  0  0  0  0  0  0
   24.1308  -20.1018  -11.6467 C   0  0  0  0  0  0  0  0  0  0  0  0
   23.5699  -20.1257  -10.3755 C   0  0  0  0  0  0  0  0  0  0  0  0
   21.5808  -24.4575  -15.0111 O   0  0  0  0  0  0  0  0  0  0  0  0
   20.7788  -23.3714  -14.7569 C   0  0  0  0  0  0  0  0  0  0  0  0
   21.5613  -22.0993  -14.4957 C   0  0  2  0  0  0  0  0  0  0  0  0
   22.9301  -22.3468  -14.1823 N   0  0  0  0  0  0  0  0  0  0  0  0
   20.8126  -21.2887  -13.5267 C   0  0  0  0  0  0  0  0  0  0  0  0
   19.5399  -20.8123  -13.8645 O   0  0  0  0  0  0  0  0  0  0  0  0
   21.3314  -21.0398  -12.4131 O   0  0  0  0  0  0  0  0  0  0  0  0
  2  1  1  1
  3  2  1  0
  4  2  1  0
  4  5  1  0
  5  6  1  1
  7  5  1  0
  7  8  2  0
  9 10  1  0
 10 11  2  0
 11 12  1  0
 13 14  1  0
 13 12  2  0
 15 14  1  1
 15 16  1  0
 16  7  1  0
 17 15  1  0
 18 17  2  0
 19 13  1  0
 20 19  2  0
 20 10  1  0
 21 22  1  0
 23 22  1  1
 23 25  1  0
 23 24  1  0
 24 17  1  0
 25 26  1  0
 27 25  2  0
M  END
$$$$
