LYS.pdb
     RDKit          3D

 27 27  0  0  1  0  0  0  0  0999 V2000
   28.2211  -24.2987  -18.5347 C   0  0  0  0  0  0  0  0  0  0  0  0
   28.7746  -23.6223  -17.3025 C   0  0  2  0  0  0  0  0  0  0  0  0
   29.9245  -24.5113  -16.8028 C   0  0  0  0  0  0  0  0  0  0  0  0
   27.8203  -23.5118  -16.1713 C   0  0  0  0  0  0  0  0  0  0  0  0
   26.6508  -22.6039  -16.3664 C   0  0  2  0  0  0  0  0  0  0  0  0
   26.9608  -21.2720  -16.7766 N   0  0  0  0  0  0  0  0  0  0  0  0
   25.7129  -22.6027  -15.2294 C   0  0  0  0  0  0  0  0  0  0  0  0
   25.3985  -23.6865  -14.6975 O   0  0  0  0  0  0  0  0  0  0  0  0
   24.0707  -20.8766   -7.1806 O   0  0  0  0  0  0  0  0  0  0  0  0
   24.2558  -20.7213   -8.5609 C   0  0  0  0  0  0  0  0  0  0  0  0
   25.4696  -20.9226   -9.1537 C   0  0  0  0  0  0  0  0  0  0  0  0
   25.6259  -20.7631  -10.5154 C   0  0  0  0  0  0  0  0  0  0  0  0
   24.5884  -20.3989  -11.3413 C   0  0  0  0  0  0  0  0  0  0  0  0
   24.7630  -20.2348  -12.7780 C   0  0  0  0  0  0  0  0  0  0  0  0
   24.2123  -21.3279  -13.6532 C   0  0  2  0  0  0  0  0  0  0  0  0
   25.1936  -21.3913  -14.7689 N   0  0  0  0  0  0  0  0  0  0  0  0
   22.9301  -21.0232  -14.3060 C   0  0  0  0  0  0  0  0  0  0  0  0
   22.8275  -20.1406  -15.2323 O   0  0  0  0  0  0  0  0  0  0  0  0
   23.3583  -20.1955  -10.7358 C   0  0  0  0  0  0  0  0  0  0  0  0
   23.1934  -20.3542   -9.3652 C   0  0  0  0  0  0  0  0  0  0  0  0
   19.2655  -23.3617  -14.1185 O   0  0  0  0  0  0  0  0  0  0  0  0
   19.7172  -22.5794  -15.1536 C   0  0  0  0  0  0  0  0  0  0  0  0
   20.4631  -21.3445  -14.6873 C   0  0  2  0  0  0  0  0  0  0  0  0
   21.6755  -21.6558  -14.0046 N   0  0  0  0  0  0  0  0  0  0  0  0
   19.5189  -20.4808  -13.9668 C   0  0  0  0  0  0  0  0  0  0  0  0
   18.3891  -19.9892  -14.6323 O   0  0  0  0  0  0  0  0  0  0  0  0
   19.7458  -20.2011  -12.7661 O   0  0  0  0  0  0  0  0  0  0  0  0
  2  1  1  6
  3  2  1  0
  4  2  1  0
  4  5  1  0
  5  6  1  1
  7  5  1  0
  7  8  2  0
  9 10  1  0
 10 11  2  0
 11 12  1  0
 13 14  1  0
 13 12  2  0
 15 14  1  1
 15 16  1  0
 16  7  1  0
 17 15  1  0
 18 17  2  0
 19 13  1  0
 20 19  2  0
 20 10  1  0
 21 22  1  0
 23 22  1  1
 23 25  1  0
 23 24  1  0
 24 17  1  0
 25 26  1  0
 27 25  2  0
M  END
$$$$
