LYS.pdb
     RDKit          3D

 27 27  0  0  1  0  0  0  0  0999 V2000
   28.4777  -22.3059  -15.1902 C   0  0  0  0  0  0  0  0  0  0  0  0
   27.1263  -21.9843  -15.7837 C   0  0  2  0  0  0  0  0  0  0  0  0
   27.3771  -21.6254  -17.2570 C   0  0  0  0  0  0  0  0  0  0  0  0
   26.4475  -20.8081  -15.1850 C   0  0  0  0  0  0  0  0  0  0  0  0
   25.0781  -20.4942  -15.6913 C   0  0  2  0  0  0  0  0  0  0  0  0
   25.0208  -19.8165  -16.9466 N   0  0  0  0  0  0  0  0  0  0  0  0
   24.2209  -19.8312  -14.6922 C   0  0  0  0  0  0  0  0  0  0  0  0
   24.3770  -18.6142  -14.4667 O   0  0  0  0  0  0  0  0  0  0  0  0
   19.9230  -15.9026  -17.4730 O   0  0  0  0  0  0  0  0  0  0  0  0
   20.1864  -16.9062  -16.5311 C   0  0  0  0  0  0  0  0  0  0  0  0
   20.0603  -16.6877  -15.1888 C   0  0  0  0  0  0  0  0  0  0  0  0
   20.3259  -17.6928  -14.2814 C   0  0  0  0  0  0  0  0  0  0  0  0
   20.7256  -18.9508  -14.6671 C   0  0  0  0  0  0  0  0  0  0  0  0
   21.0017  -20.0058  -13.7016 C   0  0  0  0  0  0  0  0  0  0  0  0
   22.3404  -19.9590  -13.0163 C   0  0  2  0  0  0  0  0  0  0  0  0
   23.2518  -20.5754  -14.0169 N   0  0  0  0  0  0  0  0  0  0  0  0
   22.4665  -20.8137  -11.8261 C   0  0  0  0  0  0  0  0  0  0  0  0
   22.2994  -22.0853  -11.8770 O   0  0  0  0  0  0  0  0  0  0  0  0
   20.8524  -19.1685  -16.0301 C   0  0  0  0  0  0  0  0  0  0  0  0
   20.5868  -18.1612  -16.9498 C   0  0  0  0  0  0  0  0  0  0  0  0
   24.9419  -20.4322   -8.5860 O   0  0  0  0  0  0  0  0  0  0  0  0
   23.6363  -20.6617   -8.2256 C   0  0  0  0  0  0  0  0  0  0  0  0
   22.7899  -21.2038   -9.3607 C   0  0  2  0  0  0  0  0  0  0  0  0
   22.7865  -20.3514  -10.5036 N   0  0  0  0  0  0  0  0  0  0  0  0
   21.4732  -21.5666   -8.8208 C   0  0  0  0  0  0  0  0  0  0  0  0
   21.3827  -22.5501   -7.8282 O   0  0  0  0  0  0  0  0  0  0  0  0
   20.4542  -20.9852   -9.2624 O   0  0  0  0  0  0  0  0  0  0  0  0
  2  1  1  1
  3  2  1  0
  4  2  1  0
  4  5  1  0
  5  6  1  6
  7  5  1  0
  7  8  2  0
  9 10  1  0
 10 11  2  0
 11 12  1  0
 13 14  1  0
 13 12  2  0
 15 14  1  6
 15 16  1  0
 16  7  1  0
 17 15  1  0
 18 17  2  0
 19 13  1  0
 20 19  2  0
 20 10  1  0
 21 22  1  0
 23 22  1  1
 23 25  1  0
 23 24  1  0
 24 17  1  0
 25 26  1  0
 27 25  2  0
M  END
$$$$
