LYS.pdb
     RDKit          3D

 27 27  0  0  1  0  0  0  0  0999 V2000
   29.1012  -21.9955  -20.0182 C   0  0  0  0  0  0  0  0  0  0  0  0
   29.8811  -22.0191  -18.7246 C   0  0  2  0  0  0  0  0  0  0  0  0
   30.9670  -23.0933  -18.8958 C   0  0  0  0  0  0  0  0  0  0  0  0
   29.0946  -22.4178  -17.5308 C   0  0  0  0  0  0  0  0  0  0  0  0
   27.9383  -21.5455  -17.1673 C   0  0  2  0  0  0  0  0  0  0  0  0
   28.2198  -20.1490  -17.0732 N   0  0  0  0  0  0  0  0  0  0  0  0
   27.1971  -22.0170  -15.9837 C   0  0  0  0  0  0  0  0  0  0  0  0
   26.9891  -23.2387  -15.8415 O   0  0  0  0  0  0  0  0  0  0  0  0
   23.6216  -20.6733   -7.8581 O   0  0  0  0  0  0  0  0  0  0  0  0
   24.3407  -20.6718   -9.0608 C   0  0  0  0  0  0  0  0  0  0  0  0
   25.6417  -21.0824   -9.1246 C   0  0  0  0  0  0  0  0  0  0  0  0
   26.3281  -21.0713  -10.3217 C   0  0  0  0  0  0  0  0  0  0  0  0
   25.7540  -20.6540  -11.4996 C   0  0  0  0  0  0  0  0  0  0  0  0
   26.4864  -20.6478  -12.7585 C   0  0  0  0  0  0  0  0  0  0  0  0
   25.9259  -21.4947  -13.8688 C   0  0  2  0  0  0  0  0  0  0  0  0
   26.7413  -21.0896  -15.0447 N   0  0  0  0  0  0  0  0  0  0  0  0
   24.5410  -21.1860  -14.2558 C   0  0  0  0  0  0  0  0  0  0  0  0
   24.2213  -20.0830  -14.8293 O   0  0  0  0  0  0  0  0  0  0  0  0
   24.4337  -20.2380  -11.4305 C   0  0  0  0  0  0  0  0  0  0  0  0
   23.7361  -20.2464  -10.2287 C   0  0  0  0  0  0  0  0  0  0  0  0
   21.5520  -23.8062  -15.4182 O   0  0  0  0  0  0  0  0  0  0  0  0
   21.5491  -22.4442  -15.5977 C   0  0  0  0  0  0  0  0  0  0  0  0
   22.0776  -21.6825  -14.3980 C   0  0  2  0  0  0  0  0  0  0  0  0
   23.4113  -22.0507  -14.0533 N   0  0  0  0  0  0  0  0  0  0  0  0
   21.0833  -21.7721  -13.3210 C   0  0  0  0  0  0  0  0  0  0  0  0
   19.7823  -21.3046  -13.5438 O   0  0  0  0  0  0  0  0  0  0  0  0
   21.4224  -22.2675  -12.2206 O   0  0  0  0  0  0  0  0  0  0  0  0
  2  1  1  6
  3  2  1  0
  4  2  1  0
  4  5  1  0
  5  6  1  1
  7  5  1  0
  7  8  2  0
  9 10  1  0
 10 11  2  0
 11 12  1  0
 13 14  1  0
 13 12  2  0
 15 14  1  1
 15 16  1  0
 16  7  1  0
 17 15  1  0
 18 17  2  0
 19 13  1  0
 20 19  2  0
 20 10  1  0
 21 22  1  0
 23 22  1  6
 23 25  1  0
 23 24  1  0
 24 17  1  0
 25 26  1  0
 27 25  2  0
M  END
$$$$
