LYS.pdb
     RDKit          3D

 27 27  0  0  1  0  0  0  0  0999 V2000
   20.8493  -11.4452    4.9747 C   0  0  0  0  0  0  0  0  0  0  0  0
   20.0006  -11.3578    6.2214 C   0  0  2  0  0  0  0  0  0  0  0  0
   20.9757  -11.3849    7.4092 C   0  0  0  0  0  0  0  0  0  0  0  0
   19.0744  -12.4994    6.4252 C   0  0  0  0  0  0  0  0  0  0  0  0
   18.1043  -12.7809    5.3252 C   0  0  2  0  0  0  0  0  0  0  0  0
   17.1696  -11.7399    5.0406 N   0  0  0  0  0  0  0  0  0  0  0  0
   17.4234  -14.0810    5.4620 C   0  0  0  0  0  0  0  0  0  0  0  0
   16.3497  -14.1431    6.0939 O   0  0  0  0  0  0  0  0  0  0  0  0
   15.2074  -22.2223    2.6554 O   0  0  0  0  0  0  0  0  0  0  0  0
   15.7598  -20.9543    2.8804 C   0  0  0  0  0  0  0  0  0  0  0  0
   17.1083  -20.7393    2.8542 C   0  0  0  0  0  0  0  0  0  0  0  0
   17.6275  -19.4807    3.0791 C   0  0  0  0  0  0  0  0  0  0  0  0
   16.8332  -18.3884    3.3379 C   0  0  0  0  0  0  0  0  0  0  0  0
   17.3907  -17.0634    3.5721 C   0  0  0  0  0  0  0  0  0  0  0  0
   17.3542  -16.5574    4.9887 C   0  0  2  0  0  0  0  0  0  0  0  0
   17.9913  -15.2176    4.8834 N   0  0  0  0  0  0  0  0  0  0  0  0
   18.1995  -17.2943    5.9404 C   0  0  0  0  0  0  0  0  0  0  0  0
   19.4757  -17.1604    5.9668 O   0  0  0  0  0  0  0  0  0  0  0  0
   15.4653  -18.6108    3.3637 C   0  0  0  0  0  0  0  0  0  0  0  0
   14.9352  -19.8754    3.1383 C   0  0  0  0  0  0  0  0  0  0  0  0
   18.1092  -17.6878    9.7622 O   0  0  0  0  0  0  0  0  0  0  0  0
   18.1542  -18.9528    9.2281 C   0  0  0  0  0  0  0  0  0  0  0  0
   18.5877  -18.9726    7.7754 C   0  0  2  0  0  0  0  0  0  0  0  0
   17.7208  -18.2204    6.9295 N   0  0  0  0  0  0  0  0  0  0  0  0
   18.8219  -20.3684    7.3837 C   0  0  0  0  0  0  0  0  0  0  0  0
   19.7096  -21.1537    8.1297 O   0  0  0  0  0  0  0  0  0  0  0  0
   18.2194  -20.8288    6.3855 O   0  0  0  0  0  0  0  0  0  0  0  0
  2  1  1  6
  3  2  1  0
  4  2  1  0
  4  5  1  0
  5  6  1  1
  7  5  1  0
  7  8  2  0
  9 10  1  0
 10 11  2  0
 11 12  1  0
 13 14  1  0
 13 12  2  0
 15 14  1  6
 15 16  1  0
 16  7  1  0
 17 15  1  0
 18 17  2  0
 19 13  1  0
 20 19  2  0
 20 10  1  0
 21 22  1  0
 23 22  1  1
 23 25  1  0
 23 24  1  0
 24 17  1  0
 25 26  1  0
 27 25  2  0
M  END
$$$$
