KPQ.pdb
     RDKit          3D

 26 26  0  0  1  0  0  0  0  0999 V2000
    8.4291  -17.0793   16.2646 N   0  0  0  0  0  0  0  0  0  0  0  0
    7.5367  -16.6851   17.4124 C   0  0  1  0  0  0  0  0  0  0  0  0
    6.7737  -17.9097   17.7157 C   0  0  0  0  0  0  0  0  0  0  0  0
    5.9011  -18.0069   18.8911 C   0  0  0  0  0  0  0  0  0  0  0  0
    5.1063  -19.2367   19.1180 C   0  0  0  0  0  0  0  0  0  0  0  0
    4.2044  -19.1338   20.3411 C   0  0  0  0  0  0  0  0  0  0  0  0
    3.4951  -20.3444   20.5969 N   0  0  0  0  0  0  0  0  0  0  0  0
    8.4202  -16.1065   18.3903 C   0  0  0  0  0  0  0  0  0  0  0  0
    9.6000  -16.5535   18.5281 O   0  0  0  0  0  0  0  0  0  0  0  0
    8.0922  -15.0053   19.2815 N   0  0  0  0  0  0  0  0  0  0  0  0
    6.8508  -14.2732   19.2382 C   0  0  0  0  0  0  0  0  0  0  0  0
    7.0809  -13.0213   20.0519 C   0  0  0  0  0  0  0  0  0  0  0  0
    8.5741  -12.9896   20.3170 C   0  0  0  0  0  0  0  0  0  0  0  0
    8.8992  -14.4561   20.3121 C   0  0  1  0  0  0  0  0  0  0  0  0
    8.8350  -15.1159   21.6156 C   0  0  0  0  0  0  0  0  0  0  0  0
    7.7346  -15.5705   22.0128 O   0  0  0  0  0  0  0  0  0  0  0  0
   13.4027  -19.1912   22.4700 N   0  0  0  0  0  0  0  0  0  0  0  0
   13.0323  -18.8102   23.8156 C   0  0  0  0  0  0  0  0  0  0  0  0
   13.8947  -19.0841   24.6874 O   0  0  0  0  0  0  0  0  0  0  0  0
   11.7323  -18.1581   24.0674 C   0  0  0  0  0  0  0  0  0  0  0  0
   11.4686  -17.0243   23.1409 C   0  0  0  0  0  0  0  0  0  0  0  0
   10.1801  -16.3387   23.4021 C   0  0  2  0  0  0  0  0  0  0  0  0
    9.9755  -15.2542   22.4300 N   0  0  0  0  0  0  0  0  0  0  0  0
   10.1005  -15.8389   24.7721 C   0  0  0  0  0  0  0  0  0  0  0  0
    9.7839  -16.6767   25.8642 O   0  0  0  0  0  0  0  0  0  0  0  0
   10.3031  -14.6360   25.1093 O   0  0  0  0  0  0  0  0  0  0  0  0
  2  1  1  6
  3  2  1  0
  4  3  1  0
  4  5  1  0
  6  5  1  0
  6  7  1  0
  8  2  1  0
  9  8  2  0
 10  8  1  0
 11 10  1  0
 11 12  1  0
 13 12  1  0
 14 10  1  0
 14 13  1  0
 14 15  1  1
 16 15  2  0
 17 18  1  0
 18 19  2  0
 20 18  1  0
 20 21  1  0
 22 21  1  6
 22 23  1  0
 23 15  1  0
 24 22  1  0
 24 25  1  0
 26 24  2  0
M  END
$$$$
