KPQ.pdb
     RDKit          3D

 26 26  0  0  1  0  0  0  0  0999 V2000
   10.7134  -17.1518   18.2855 N   0  0  0  0  0  0  0  0  0  0  0  0
    9.4558  -17.3886   19.0804 C   0  0  1  0  0  0  0  0  0  0  0  0
    9.3762  -18.8555   19.2050 C   0  0  0  0  0  0  0  0  0  0  0  0
    8.1038  -19.5751   19.0806 C   0  0  0  0  0  0  0  0  0  0  0  0
    7.5276  -20.2610   20.2609 C   0  0  0  0  0  0  0  0  0  0  0  0
    6.2008  -20.9425   19.9525 C   0  0  0  0  0  0  0  0  0  0  0  0
    5.6190  -21.5467   21.1060 N   0  0  0  0  0  0  0  0  0  0  0  0
    9.5898  -16.5564   20.2472 C   0  0  0  0  0  0  0  0  0  0  0  0
   10.7286  -16.3821   20.7794 O   0  0  0  0  0  0  0  0  0  0  0  0
    8.5059  -15.8537   20.9151 N   0  0  0  0  0  0  0  0  0  0  0  0
    7.1374  -15.8611   20.4611 C   0  0  0  0  0  0  0  0  0  0  0  0
    6.4506  -14.7372   21.2012 C   0  0  0  0  0  0  0  0  0  0  0  0
    7.5687  -13.9654   21.8759 C   0  0  0  0  0  0  0  0  0  0  0  0
    8.5848  -15.0519   22.0838 C   0  0  1  0  0  0  0  0  0  0  0  0
    8.4996  -15.7518   23.3649 C   0  0  0  0  0  0  0  0  0  0  0  0
    7.7075  -16.7190   23.4772 O   0  0  0  0  0  0  0  0  0  0  0  0
   10.7969  -15.2053   30.4391 N   0  0  0  0  0  0  0  0  0  0  0  0
   10.1621  -14.7152   29.2350 C   0  0  0  0  0  0  0  0  0  0  0  0
   10.0552  -13.4646   29.1782 O   0  0  0  0  0  0  0  0  0  0  0  0
    9.7032  -15.6650   28.2026 C   0  0  0  0  0  0  0  0  0  0  0  0
    9.6956  -15.0720   26.8381 C   0  0  0  0  0  0  0  0  0  0  0  0
    9.2412  -16.0162   25.7890 C   0  0  2  0  0  0  0  0  0  0  0  0
    9.2847  -15.3685   24.4693 N   0  0  0  0  0  0  0  0  0  0  0  0
    7.9085  -16.5413   26.0734 C   0  0  0  0  0  0  0  0  0  0  0  0
    7.7076  -17.7635   26.7523 O   0  0  0  0  0  0  0  0  0  0  0  0
    6.8277  -15.9681   25.7492 O   0  0  0  0  0  0  0  0  0  0  0  0
  2  1  1  6
  3  2  1  0
  4  3  1  0
  4  5  1  0
  6  5  1  0
  6  7  1  0
  8  2  1  0
  9  8  2  0
 10  8  1  0
 11 10  1  0
 11 12  1  0
 13 12  1  0
 14 10  1  0
 14 13  1  0
 14 15  1  1
 16 15  2  0
 17 18  1  0
 18 19  2  0
 20 18  1  0
 20 21  1  0
 22 21  1  1
 22 23  1  0
 23 15  1  0
 24 22  1  0
 24 25  1  0
 26 24  2  0
M  END
$$$$
