KPQ.pdb
     RDKit          3D

 26 26  0  0  1  0  0  0  0  0999 V2000
   10.8314  -15.3311   15.9466 N   0  0  0  0  0  0  0  0  0  0  0  0
    9.4972  -15.1442   16.6207 C   0  0  1  0  0  0  0  0  0  0  0  0
    8.7449  -16.3658   16.2811 C   0  0  0  0  0  0  0  0  0  0  0  0
    9.2010  -17.6968   16.6970 C   0  0  0  0  0  0  0  0  0  0  0  0
    8.3804  -18.8888   16.3789 C   0  0  0  0  0  0  0  0  0  0  0  0
    8.9976  -20.1805   16.8987 C   0  0  0  0  0  0  0  0  0  0  0  0
    8.2045  -21.3249   16.5896 N   0  0  0  0  0  0  0  0  0  0  0  0
    9.8118  -14.8296   17.9896 C   0  0  0  0  0  0  0  0  0  0  0  0
   10.9729  -15.0606   18.4469 O   0  0  0  0  0  0  0  0  0  0  0  0
    8.8972  -14.2414   18.9551 N   0  0  0  0  0  0  0  0  0  0  0  0
    7.5414  -13.8553   18.6522 C   0  0  0  0  0  0  0  0  0  0  0  0
    7.0979  -12.9729   19.7955 C   0  0  0  0  0  0  0  0  0  0  0  0
    8.3580  -12.6939   20.5928 C   0  0  0  0  0  0  0  0  0  0  0  0
    9.1549  -13.9371   20.3174 C   0  0  1  0  0  0  0  0  0  0  0  0
    8.9699  -15.0246   21.2773 C   0  0  0  0  0  0  0  0  0  0  0  0
    8.3492  -16.0543   20.9167 O   0  0  0  0  0  0  0  0  0  0  0  0
   13.7335  -17.6893   23.0818 N   0  0  0  0  0  0  0  0  0  0  0  0
   13.6452  -16.3032   22.6769 C   0  0  0  0  0  0  0  0  0  0  0  0
   14.7560  -15.7341   22.5326 O   0  0  0  0  0  0  0  0  0  0  0  0
   12.3248  -15.6767   22.4700 C   0  0  0  0  0  0  0  0  0  0  0  0
   11.2013  -16.6406   22.6182 C   0  0  0  0  0  0  0  0  0  0  0  0
   10.0347  -16.0777   23.3398 C   0  0  2  0  0  0  0  0  0  0  0  0
    9.4726  -14.9439   22.5903 N   0  0  0  0  0  0  0  0  0  0  0  0
   10.3787  -15.6873   24.7043 C   0  0  0  0  0  0  0  0  0  0  0  0
   10.7423  -16.6307   25.6906 O   0  0  0  0  0  0  0  0  0  0  0  0
   10.3863  -14.4950   25.1287 O   0  0  0  0  0  0  0  0  0  0  0  0
  2  1  1  6
  3  2  1  0
  4  3  1  0
  4  5  1  0
  6  5  1  0
  6  7  1  0
  8  2  1  0
  9  8  2  0
 10  8  1  0
 11 10  1  0
 11 12  1  0
 13 12  1  0
 14 10  1  0
 14 13  1  0
 14 15  1  1
 16 15  2  0
 17 18  1  0
 18 19  2  0
 20 18  1  0
 20 21  1  0
 22 21  1  6
 22 23  1  0
 23 15  1  0
 24 22  1  0
 24 25  1  0
 26 24  2  0
M  END
$$$$
