KPQ.pdb
     RDKit          3D

 26 26  0  0  1  0  0  0  0  0999 V2000
    8.3588  -17.3721   16.5060 N   0  0  0  0  0  0  0  0  0  0  0  0
    7.5611  -16.7585   17.6269 C   0  0  1  0  0  0  0  0  0  0  0  0
    6.7058  -17.8588   18.1081 C   0  0  0  0  0  0  0  0  0  0  0  0
    7.2712  -19.0819   18.6884 C   0  0  0  0  0  0  0  0  0  0  0  0
    6.3688  -20.1260   19.2279 C   0  0  0  0  0  0  0  0  0  0  0  0
    7.1271  -21.2876   19.8569 C   0  0  0  0  0  0  0  0  0  0  0  0
    6.2598  -22.2151   20.5061 N   0  0  0  0  0  0  0  0  0  0  0  0
    8.5387  -16.1528   18.4924 C   0  0  0  0  0  0  0  0  0  0  0  0
    9.7483  -16.5347   18.4545 O   0  0  0  0  0  0  0  0  0  0  0  0
    8.2781  -15.0928   19.4532 N   0  0  0  0  0  0  0  0  0  0  0  0
    6.9813  -14.5018   19.6722 C   0  0  0  0  0  0  0  0  0  0  0  0
    7.2325  -13.2307   20.4491 C   0  0  0  0  0  0  0  0  0  0  0  0
    8.7363  -13.0345   20.4128 C   0  0  0  0  0  0  0  0  0  0  0  0
    9.2105  -14.4564   20.3137 C   0  0  1  0  0  0  0  0  0  0  0  0
    9.4796  -15.1168   21.5904 C   0  0  0  0  0  0  0  0  0  0  0  0
    8.5509  -15.7409   22.1591 O   0  0  0  0  0  0  0  0  0  0  0  0
   10.0202  -19.0049   23.3965 N   0  0  0  0  0  0  0  0  0  0  0  0
   11.4248  -19.3230   23.2598 C   0  0  0  0  0  0  0  0  0  0  0  0
   11.8002  -20.3120   23.9378 O   0  0  0  0  0  0  0  0  0  0  0  0
   12.2846  -18.5083   22.3790 C   0  0  0  0  0  0  0  0  0  0  0  0
   11.5811  -17.3180   21.8297 C   0  0  0  0  0  0  0  0  0  0  0  0
   11.4225  -16.2217   22.8154 C   0  0  2  0  0  0  0  0  0  0  0  0
   10.7522  -15.0708   22.1916 N   0  0  0  0  0  0  0  0  0  0  0  0
   12.7019  -15.8311   23.4014 C   0  0  0  0  0  0  0  0  0  0  0  0
   13.7416  -15.2616   22.6336 O   0  0  0  0  0  0  0  0  0  0  0  0
   12.9991  -15.9595   24.6249 O   0  0  0  0  0  0  0  0  0  0  0  0
  2  1  1  6
  3  2  1  0
  4  3  1  0
  4  5  1  0
  6  5  1  0
  6  7  1  0
  8  2  1  0
  9  8  2  0
 10  8  1  0
 11 10  1  0
 11 12  1  0
 13 12  1  0
 14 10  1  0
 14 13  1  0
 14 15  1  1
 16 15  2  0
 17 18  1  0
 18 19  2  0
 20 18  1  0
 20 21  1  0
 22 21  1  6
 22 23  1  0
 23 15  1  0
 24 22  1  0
 24 25  1  0
 26 24  2  0
M  END
$$$$
