KPQ.pdb
     RDKit          3D

 26 26  0  0  1  0  0  0  0  0999 V2000
    9.4650  -17.2795   17.1567 N   0  0  0  0  0  0  0  0  0  0  0  0
    8.4062  -16.3889   17.7525 C   0  0  1  0  0  0  0  0  0  0  0  0
    7.1822  -17.2101   17.7222 C   0  0  0  0  0  0  0  0  0  0  0  0
    7.1671  -18.5560   17.1384 C   0  0  0  0  0  0  0  0  0  0  0  0
    7.0943  -19.7417   18.0239 C   0  0  0  0  0  0  0  0  0  0  0  0
    6.9140  -21.0409   17.2496 C   0  0  0  0  0  0  0  0  0  0  0  0
    7.0773  -22.1926   18.0747 N   0  0  0  0  0  0  0  0  0  0  0  0
    8.9591  -15.9366   19.0021 C   0  0  0  0  0  0  0  0  0  0  0  0
   10.0562  -16.4145   19.4247 O   0  0  0  0  0  0  0  0  0  0  0  0
    8.3684  -14.9364   19.8769 N   0  0  0  0  0  0  0  0  0  0  0  0
    7.1059  -14.2871   19.6249 C   0  0  0  0  0  0  0  0  0  0  0  0
    7.0632  -13.0937   20.5503 C   0  0  0  0  0  0  0  0  0  0  0  0
    8.4641  -12.9850   21.1221 C   0  0  0  0  0  0  0  0  0  0  0  0
    8.9022  -14.4214   21.0872 C   0  0  1  0  0  0  0  0  0  0  0  0
    8.6293  -15.1887   22.3018 C   0  0  0  0  0  0  0  0  0  0  0  0
    7.5680  -15.8549   22.3738 O   0  0  0  0  0  0  0  0  0  0  0  0
   13.2924  -19.3001   22.5937 N   0  0  0  0  0  0  0  0  0  0  0  0
   12.3996  -18.3090   22.0335 C   0  0  0  0  0  0  0  0  0  0  0  0
   12.1535  -18.4655   20.8114 O   0  0  0  0  0  0  0  0  0  0  0  0
   11.8622  -17.2319   22.8877 C   0  0  0  0  0  0  0  0  0  0  0  0
   10.4336  -17.4413   23.2466 C   0  0  0  0  0  0  0  0  0  0  0  0
    9.8960  -16.3985   24.1533 C   0  0  2  0  0  0  0  0  0  0  0  0
    9.5278  -15.1990   23.3861 N   0  0  0  0  0  0  0  0  0  0  0  0
   10.8373  -16.0714   25.2210 C   0  0  0  0  0  0  0  0  0  0  0  0
   10.9957  -16.8863   26.3636 O   0  0  0  0  0  0  0  0  0  0  0  0
   11.5868  -15.0517   25.2285 O   0  0  0  0  0  0  0  0  0  0  0  0
  2  1  1  1
  3  2  1  0
  4  3  1  0
  4  5  1  0
  6  5  1  0
  6  7  1  0
  8  2  1  0
  9  8  2  0
 10  8  1  0
 11 10  1  0
 11 12  1  0
 13 12  1  0
 14 10  1  0
 14 13  1  0
 14 15  1  1
 16 15  2  0
 17 18  1  0
 18 19  2  0
 20 18  1  0
 20 21  1  0
 22 21  1  6
 22 23  1  0
 23 15  1  0
 24 22  1  0
 24 25  1  0
 26 24  2  0
M  END
$$$$
