KPQ.pdb
     RDKit          3D

 26 26  0  0  1  0  0  0  0  0999 V2000
    8.9331  -17.8018   17.4254 N   0  0  0  0  0  0  0  0  0  0  0  0
    7.9516  -16.8243   18.0173 C   0  0  1  0  0  0  0  0  0  0  0  0
    6.7560  -17.6384   18.3027 C   0  0  0  0  0  0  0  0  0  0  0  0
    6.8486  -18.9442   18.9652 C   0  0  0  0  0  0  0  0  0  0  0  0
    5.9813  -19.2421   20.1290 C   0  0  0  0  0  0  0  0  0  0  0  0
    6.2102  -20.6406   20.6873 C   0  0  0  0  0  0  0  0  0  0  0  0
    5.4609  -20.8805   21.8768 N   0  0  0  0  0  0  0  0  0  0  0  0
    8.6698  -16.1723   19.0808 C   0  0  0  0  0  0  0  0  0  0  0  0
    9.8407  -16.5536   19.3875 O   0  0  0  0  0  0  0  0  0  0  0  0
    8.1752  -15.0636   19.8813 N   0  0  0  0  0  0  0  0  0  0  0  0
    6.8722  -14.4680   19.7188 C   0  0  0  0  0  0  0  0  0  0  0  0
    6.9217  -13.1559   20.4661 C   0  0  0  0  0  0  0  0  0  0  0  0
    8.3836  -12.9547   20.8175 C   0  0  0  0  0  0  0  0  0  0  0  0
    8.8536  -14.3775   20.9224 C   0  0  1  0  0  0  0  0  0  0  0  0
    8.7704  -14.9674   22.2579 C   0  0  0  0  0  0  0  0  0  0  0  0
    7.6438  -15.2788   22.7153 O   0  0  0  0  0  0  0  0  0  0  0  0
   13.0749  -19.4551   22.8640 N   0  0  0  0  0  0  0  0  0  0  0  0
   12.8499  -18.1897   23.5282 C   0  0  0  0  0  0  0  0  0  0  0  0
   13.8081  -17.8022   24.2425 O   0  0  0  0  0  0  0  0  0  0  0  0
   11.5753  -17.4707   23.3357 C   0  0  0  0  0  0  0  0  0  0  0  0
   11.2074  -16.6291   24.5060 C   0  0  0  0  0  0  0  0  0  0  0  0
    9.9282  -15.9007   24.3278 C   0  0  2  0  0  0  0  0  0  0  0  0
    9.9209  -15.1952   23.0373 N   0  0  0  0  0  0  0  0  0  0  0  0
    9.6707  -14.9801   25.4319 C   0  0  0  0  0  0  0  0  0  0  0  0
    9.6200  -13.5802   25.2515 O   0  0  0  0  0  0  0  0  0  0  0  0
    9.4715  -15.3355   26.6301 O   0  0  0  0  0  0  0  0  0  0  0  0
  2  1  1  1
  3  2  1  0
  4  3  1  0
  4  5  1  0
  6  5  1  0
  6  7  1  0
  8  2  1  0
  9  8  2  0
 10  8  1  0
 11 10  1  0
 11 12  1  0
 13 12  1  0
 14 10  1  0
 14 13  1  0
 14 15  1  1
 16 15  2  0
 17 18  1  0
 18 19  2  0
 20 18  1  0
 20 21  1  0
 22 21  1  1
 22 23  1  0
 23 15  1  0
 24 22  1  0
 24 25  1  0
 26 24  2  0
M  END
$$$$
