KPQ.pdb
     RDKit          3D

 26 26  0  0  1  0  0  0  0  0999 V2000
    6.8985  -18.0897   18.1040 N   0  0  0  0  0  0  0  0  0  0  0  0
    6.4999  -16.7378   18.6357 C   0  0  1  0  0  0  0  0  0  0  0  0
    5.1254  -16.9340   19.1317 C   0  0  0  0  0  0  0  0  0  0  0  0
    4.8466  -17.6720   20.3687 C   0  0  0  0  0  0  0  0  0  0  0  0
    4.0571  -18.9248   20.3162 C   0  0  0  0  0  0  0  0  0  0  0  0
    2.5948  -18.7114   20.6850 C   0  0  0  0  0  0  0  0  0  0  0  0
    1.8223  -19.9034   20.5570 N   0  0  0  0  0  0  0  0  0  0  0  0
    7.5604  -16.3626   19.5337 C   0  0  0  0  0  0  0  0  0  0  0  0
    8.5398  -17.1461   19.7272 O   0  0  0  0  0  0  0  0  0  0  0  0
    7.6377  -15.1165   20.2792 N   0  0  0  0  0  0  0  0  0  0  0  0
    6.5672  -14.1537   20.3566 C   0  0  0  0  0  0  0  0  0  0  0  0
    7.1893  -12.8866   20.8950 C   0  0  0  0  0  0  0  0  0  0  0  0
    8.6856  -13.1333   20.8589 C   0  0  0  0  0  0  0  0  0  0  0  0
    8.7365  -14.6246   21.0312 C   0  0  1  0  0  0  0  0  0  0  0  0
    8.8457  -15.0917   22.4126 C   0  0  0  0  0  0  0  0  0  0  0  0
    7.8145  -15.1203   23.1276 O   0  0  0  0  0  0  0  0  0  0  0  0
   12.6787  -20.0845   26.2777 N   0  0  0  0  0  0  0  0  0  0  0  0
   12.4597  -19.1388   25.2050 C   0  0  0  0  0  0  0  0  0  0  0  0
   13.1940  -19.3155   24.2009 O   0  0  0  0  0  0  0  0  0  0  0  0
   11.4411  -18.0803   25.3496 C   0  0  0  0  0  0  0  0  0  0  0  0
   11.2548  -17.2876   24.1045 C   0  0  0  0  0  0  0  0  0  0  0  0
   10.2242  -16.2290   24.2300 C   0  0  2  0  0  0  0  0  0  0  0  0
   10.0759  -15.5108   22.9552 N   0  0  0  0  0  0  0  0  0  0  0  0
   10.5255  -15.3065   25.3214 C   0  0  0  0  0  0  0  0  0  0  0  0
   10.3021  -15.6403   26.6755 O   0  0  0  0  0  0  0  0  0  0  0  0
   11.0056  -14.1457   25.1671 O   0  0  0  0  0  0  0  0  0  0  0  0
  2  1  1  1
  3  2  1  0
  4  3  1  0
  4  5  1  0
  6  5  1  0
  6  7  1  0
  8  2  1  0
  9  8  2  0
 10  8  1  0
 11 10  1  0
 11 12  1  0
 13 12  1  0
 14 10  1  0
 14 13  1  0
 14 15  1  1
 16 15  2  0
 17 18  1  0
 18 19  2  0
 20 18  1  0
 20 21  1  0
 22 21  1  6
 22 23  1  0
 23 15  1  0
 24 22  1  0
 24 25  1  0
 26 24  2  0
M  END
$$$$
