KPQ.pdb
     RDKit          3D

 26 26  0  0  1  0  0  0  0  0999 V2000
    8.6736  -18.0101   17.9025 N   0  0  0  0  0  0  0  0  0  0  0  0
    7.6819  -17.0734   18.5416 C   0  0  1  0  0  0  0  0  0  0  0  0
    6.5692  -17.9487   18.9530 C   0  0  0  0  0  0  0  0  0  0  0  0
    6.6384  -18.7703   20.1666 C   0  0  0  0  0  0  0  0  0  0  0  0
    5.5066  -19.6594   20.5190 C   0  0  0  0  0  0  0  0  0  0  0  0
    5.7041  -20.3555   21.8593 C   0  0  0  0  0  0  0  0  0  0  0  0
    4.5806  -21.1527   22.2285 N   0  0  0  0  0  0  0  0  0  0  0  0
    8.4402  -16.3374   19.5189 C   0  0  0  0  0  0  0  0  0  0  0  0
    9.5677  -16.7696   19.9094 O   0  0  0  0  0  0  0  0  0  0  0  0
    8.0355  -15.0848   20.1369 N   0  0  0  0  0  0  0  0  0  0  0  0
    6.7912  -14.4116   19.8585 C   0  0  0  0  0  0  0  0  0  0  0  0
    6.9468  -13.0125   20.4070 C   0  0  0  0  0  0  0  0  0  0  0  0
    8.4168  -12.8861   20.7595 C   0  0  0  0  0  0  0  0  0  0  0  0
    8.7599  -14.3124   21.0822 C   0  0  1  0  0  0  0  0  0  0  0  0
    8.6109  -14.6895   22.4873 C   0  0  0  0  0  0  0  0  0  0  0  0
    7.4771  -15.0228   22.9099 O   0  0  0  0  0  0  0  0  0  0  0  0
   10.2984  -20.7165   24.0039 N   0  0  0  0  0  0  0  0  0  0  0  0
   10.7998  -19.4535   23.5073 C   0  0  0  0  0  0  0  0  0  0  0  0
   11.3670  -19.5254   22.3886 O   0  0  0  0  0  0  0  0  0  0  0  0
   10.6233  -18.2238   24.3044 C   0  0  0  0  0  0  0  0  0  0  0  0
   10.2595  -17.0459   23.4716 C   0  0  0  0  0  0  0  0  0  0  0  0
   10.0616  -15.8062   24.2607 C   0  0  2  0  0  0  0  0  0  0  0  0
    9.7068  -14.6895   23.3718 N   0  0  0  0  0  0  0  0  0  0  0  0
   11.2359  -15.4841   25.0668 C   0  0  0  0  0  0  0  0  0  0  0  0
   12.2010  -14.5402   24.6515 O   0  0  0  0  0  0  0  0  0  0  0  0
   11.4992  -16.0044   26.1901 O   0  0  0  0  0  0  0  0  0  0  0  0
  2  1  1  1
  3  2  1  0
  4  3  1  0
  4  5  1  0
  6  5  1  0
  6  7  1  0
  8  2  1  0
  9  8  2  0
 10  8  1  0
 11 10  1  0
 11 12  1  0
 13 12  1  0
 14 10  1  0
 14 13  1  0
 14 15  1  1
 16 15  2  0
 17 18  1  0
 18 19  2  0
 20 18  1  0
 20 21  1  0
 22 21  1  6
 22 23  1  0
 23 15  1  0
 24 22  1  0
 24 25  1  0
 26 24  2  0
M  END
$$$$
