KPQ.pdb
     RDKit          3D

 26 26  0  0  1  0  0  0  0  0999 V2000
   11.4610  -14.3448   15.5215 N   0  0  0  0  0  0  0  0  0  0  0  0
   10.1590  -14.8574   16.0795 C   0  0  1  0  0  0  0  0  0  0  0  0
   10.0512  -16.2283   15.5479 C   0  0  0  0  0  0  0  0  0  0  0  0
    8.8754  -17.0677   15.8037 C   0  0  0  0  0  0  0  0  0  0  0  0
    8.9054  -18.5053   15.4459 C   0  0  0  0  0  0  0  0  0  0  0  0
    7.5695  -19.1965   15.6856 C   0  0  0  0  0  0  0  0  0  0  0  0
    7.5948  -20.5727   15.3124 N   0  0  0  0  0  0  0  0  0  0  0  0
   10.2419  -14.6214   17.4970 C   0  0  0  0  0  0  0  0  0  0  0  0
   11.3591  -14.7038   18.0933 O   0  0  0  0  0  0  0  0  0  0  0  0
    9.1270  -14.2770   18.3647 N   0  0  0  0  0  0  0  0  0  0  0  0
    7.7705  -14.1049   17.9074 C   0  0  0  0  0  0  0  0  0  0  0  0
    7.0415  -13.4054   19.0307 C   0  0  0  0  0  0  0  0  0  0  0  0
    8.1256  -12.9802   20.0027 C   0  0  0  0  0  0  0  0  0  0  0  0
    9.1599  -14.0431   19.7644 C   0  0  1  0  0  0  0  0  0  0  0  0
    9.0587  -15.2195   20.6272 C   0  0  0  0  0  0  0  0  0  0  0  0
    8.4629  -16.2377   20.1987 O   0  0  0  0  0  0  0  0  0  0  0  0
   14.0466  -14.4632   19.7563 N   0  0  0  0  0  0  0  0  0  0  0  0
   14.3963  -15.2779   20.8996 C   0  0  0  0  0  0  0  0  0  0  0  0
   15.6293  -15.4770   21.0358 O   0  0  0  0  0  0  0  0  0  0  0  0
   13.3382  -15.7976   21.7879 C   0  0  0  0  0  0  0  0  0  0  0  0
   11.9907  -15.2652   21.4498 C   0  0  0  0  0  0  0  0  0  0  0  0
   10.9033  -15.8548   22.2674 C   0  0  2  0  0  0  0  0  0  0  0  0
    9.6147  -15.2362   21.9209 N   0  0  0  0  0  0  0  0  0  0  0  0
   11.1758  -15.7365   23.6973 C   0  0  0  0  0  0  0  0  0  0  0  0
   10.3203  -15.0324   24.5732 O   0  0  0  0  0  0  0  0  0  0  0  0
   12.1796  -16.2410   24.2800 O   0  0  0  0  0  0  0  0  0  0  0  0
  2  1  1  6
  3  2  1  0
  4  3  1  0
  4  5  1  0
  6  5  1  0
  6  7  1  0
  8  2  1  0
  9  8  2  0
 10  8  1  0
 11 10  1  0
 11 12  1  0
 13 12  1  0
 14 10  1  0
 14 13  1  0
 14 15  1  1
 16 15  2  0
 17 18  1  0
 18 19  2  0
 20 18  1  0
 20 21  1  0
 22 21  1  6
 22 23  1  0
 23 15  1  0
 24 22  1  0
 24 25  1  0
 26 24  2  0
M  END
$$$$
