KPQ.pdb
     RDKit          3D

 26 26  0  0  1  0  0  0  0  0999 V2000
   10.4229  -13.8435   17.1279 N   0  0  0  0  0  0  0  0  0  0  0  0
    9.1418  -14.0683   17.8878 C   0  0  1  0  0  0  0  0  0  0  0  0
    8.4936  -15.1891   17.1826 C   0  0  0  0  0  0  0  0  0  0  0  0
    9.1277  -16.5080   17.0772 C   0  0  0  0  0  0  0  0  0  0  0  0
    8.4114  -17.7100   17.5645 C   0  0  0  0  0  0  0  0  0  0  0  0
    9.2201  -18.9878   17.3822 C   0  0  0  0  0  0  0  0  0  0  0  0
    8.5456  -20.1356   17.8935 N   0  0  0  0  0  0  0  0  0  0  0  0
    9.5422  -14.1971   19.2644 C   0  0  0  0  0  0  0  0  0  0  0  0
   10.7688  -14.3280   19.5626 O   0  0  0  0  0  0  0  0  0  0  0  0
    8.6477  -14.1893   20.4108 N   0  0  0  0  0  0  0  0  0  0  0  0
    7.2265  -13.9617   20.3251 C   0  0  0  0  0  0  0  0  0  0  0  0
    6.7688  -13.6713   21.7353 C   0  0  0  0  0  0  0  0  0  0  0  0
    8.0441  -13.4988   22.5384 C   0  0  0  0  0  0  0  0  0  0  0  0
    8.9877  -14.3840   21.7752 C   0  0  1  0  0  0  0  0  0  0  0  0
    9.0615  -15.7684   22.2402 C   0  0  0  0  0  0  0  0  0  0  0  0
    8.5746  -16.6767   21.5237 O   0  0  0  0  0  0  0  0  0  0  0  0
   13.5913  -17.9834   21.0343 N   0  0  0  0  0  0  0  0  0  0  0  0
   13.3004  -19.0229   21.9976 C   0  0  0  0  0  0  0  0  0  0  0  0
   14.0491  -20.0286   21.9161 O   0  0  0  0  0  0  0  0  0  0  0  0
   12.1996  -18.8467   22.9649 C   0  0  0  0  0  0  0  0  0  0  0  0
   11.5019  -17.5418   22.8107 C   0  0  0  0  0  0  0  0  0  0  0  0
   10.3564  -17.3742   23.7372 C   0  0  2  0  0  0  0  0  0  0  0  0
    9.6662  -16.1039   23.4670 N   0  0  0  0  0  0  0  0  0  0  0  0
   10.7730  -17.4595   25.1344 C   0  0  0  0  0  0  0  0  0  0  0  0
   11.1293  -18.6834   25.7426 O   0  0  0  0  0  0  0  0  0  0  0  0
   10.8553  -16.4704   25.9197 O   0  0  0  0  0  0  0  0  0  0  0  0
  2  1  1  6
  3  2  1  0
  4  3  1  0
  4  5  1  0
  6  5  1  0
  6  7  1  0
  8  2  1  0
  9  8  2  0
 10  8  1  0
 11 10  1  0
 11 12  1  0
 13 12  1  0
 14 10  1  0
 14 13  1  0
 14 15  1  1
 16 15  2  0
 17 18  1  0
 18 19  2  0
 20 18  1  0
 20 21  1  0
 22 21  1  6
 22 23  1  0
 23 15  1  0
 24 22  1  0
 24 25  1  0
 26 24  2  0
M  END
$$$$
