KPQ.pdb
     RDKit          3D

 26 26  0  0  1  0  0  0  0  0999 V2000
    8.1831  -13.0171   20.0356 N   0  0  0  0  0  0  0  0  0  0  0  0
    7.2043  -13.5271   21.0608 C   0  0  1  0  0  0  0  0  0  0  0  0
    6.5949  -14.7090   20.4241 C   0  0  0  0  0  0  0  0  0  0  0  0
    7.3906  -15.8835   20.0499 C   0  0  0  0  0  0  0  0  0  0  0  0
    6.7113  -17.1124   19.5768 C   0  0  0  0  0  0  0  0  0  0  0  0
    7.6924  -18.1994   19.1574 C   0  0  0  0  0  0  0  0  0  0  0  0
    7.0354  -19.4037   18.7676 N   0  0  0  0  0  0  0  0  0  0  0  0
    7.9680  -13.6557   22.2741 C   0  0  0  0  0  0  0  0  0  0  0  0
    9.2276  -13.8013   22.2228 O   0  0  0  0  0  0  0  0  0  0  0  0
    7.4252  -13.6316   23.6230 N   0  0  0  0  0  0  0  0  0  0  0  0
    6.0289  -13.4421   23.9287 C   0  0  0  0  0  0  0  0  0  0  0  0
    5.9693  -13.1161   25.4027 C   0  0  0  0  0  0  0  0  0  0  0  0
    7.4104  -12.8856   25.8163 C   0  0  0  0  0  0  0  0  0  0  0  0
    8.1351  -13.7722   24.8442 C   0  0  1  0  0  0  0  0  0  0  0  0
    8.3799  -15.1382   25.3054 C   0  0  0  0  0  0  0  0  0  0  0  0
    7.5149  -16.0194   25.0808 O   0  0  0  0  0  0  0  0  0  0  0  0
   14.1025  -15.7862   23.9469 N   0  0  0  0  0  0  0  0  0  0  0  0
   13.8534  -17.1515   24.3555 C   0  0  0  0  0  0  0  0  0  0  0  0
   14.8183  -17.9333   24.1647 O   0  0  0  0  0  0  0  0  0  0  0  0
   12.5495  -17.5216   24.9399 C   0  0  0  0  0  0  0  0  0  0  0  0
   11.6427  -16.3543   25.1084 C   0  0  0  0  0  0  0  0  0  0  0  0
   10.3451  -16.7032   25.7354 C   0  0  2  0  0  0  0  0  0  0  0  0
    9.5604  -15.4857   25.9902 N   0  0  0  0  0  0  0  0  0  0  0  0
   10.5264  -17.4779   26.9601 C   0  0  0  0  0  0  0  0  0  0  0  0
   10.9133  -18.8362   26.9439 O   0  0  0  0  0  0  0  0  0  0  0  0
   10.3601  -17.0212   28.1286 O   0  0  0  0  0  0  0  0  0  0  0  0
  2  1  1  6
  3  2  1  0
  4  3  1  0
  4  5  1  0
  6  5  1  0
  6  7  1  0
  8  2  1  0
  9  8  2  0
 10  8  1  0
 11 10  1  0
 11 12  1  0
 13 12  1  0
 14 10  1  0
 14 13  1  0
 14 15  1  1
 16 15  2  0
 17 18  1  0
 18 19  2  0
 20 18  1  0
 20 21  1  0
 22 21  1  1
 22 23  1  0
 23 15  1  0
 24 22  1  0
 24 25  1  0
 26 24  2  0
M  END
$$$$
