KPQ.pdb
     RDKit          3D

 26 26  0  0  1  0  0  0  0  0999 V2000
    9.1281  -16.8307   16.4868 N   0  0  0  0  0  0  0  0  0  0  0  0
    8.0908  -16.2614   17.4192 C   0  0  1  0  0  0  0  0  0  0  0  0
    7.1377  -17.3680   17.6207 C   0  0  0  0  0  0  0  0  0  0  0  0
    7.1842  -18.5878   16.8067 C   0  0  0  0  0  0  0  0  0  0  0  0
    6.2179  -19.6813   17.0635 C   0  0  0  0  0  0  0  0  0  0  0  0
    6.4510  -20.8912   16.1680 C   0  0  0  0  0  0  0  0  0  0  0  0
    5.6166  -21.9941   16.5163 N   0  0  0  0  0  0  0  0  0  0  0  0
    8.8385  -15.7227   18.5249 C   0  0  0  0  0  0  0  0  0  0  0  0
   10.0534  -16.0489   18.6929 O   0  0  0  0  0  0  0  0  0  0  0  0
    8.3276  -14.7937   19.5201 N   0  0  0  0  0  0  0  0  0  0  0  0
    7.0303  -14.1683   19.4508 C   0  0  0  0  0  0  0  0  0  0  0  0
    7.0651  -13.0333   20.4473 C   0  0  0  0  0  0  0  0  0  0  0  0
    8.5187  -12.9171   20.8652 C   0  0  0  0  0  0  0  0  0  0  0  0
    8.9827  -14.3353   20.6930 C   0  0  1  0  0  0  0  0  0  0  0  0
    8.8662  -15.1806   21.8806 C   0  0  0  0  0  0  0  0  0  0  0  0
    7.7943  -15.8021   22.0812 O   0  0  0  0  0  0  0  0  0  0  0  0
   11.6994  -20.0317   21.7837 N   0  0  0  0  0  0  0  0  0  0  0  0
   12.4574  -18.8156   21.5844 C   0  0  0  0  0  0  0  0  0  0  0  0
   13.5769  -18.9864   21.0402 O   0  0  0  0  0  0  0  0  0  0  0  0
   11.8979  -17.5180   22.0110 C   0  0  0  0  0  0  0  0  0  0  0  0
   10.5524  -17.6483   22.6325 C   0  0  0  0  0  0  0  0  0  0  0  0
   10.2222  -16.5382   23.5583 C   0  0  2  0  0  0  0  0  0  0  0  0
    9.9258  -15.3143   22.7985 N   0  0  0  0  0  0  0  0  0  0  0  0
   11.2876  -16.3086   24.5305 C   0  0  0  0  0  0  0  0  0  0  0  0
   11.5494  -17.2057   25.5895 O   0  0  0  0  0  0  0  0  0  0  0  0
   12.0637  -15.3089   24.5210 O   0  0  0  0  0  0  0  0  0  0  0  0
  2  1  1  6
  3  2  1  0
  4  3  1  0
  4  5  1  0
  6  5  1  0
  6  7  1  0
  8  2  1  0
  9  8  2  0
 10  8  1  0
 11 10  1  0
 11 12  1  0
 13 12  1  0
 14 10  1  0
 14 13  1  0
 14 15  1  1
 16 15  2  0
 17 18  1  0
 18 19  2  0
 20 18  1  0
 20 21  1  0
 22 21  1  6
 22 23  1  0
 23 15  1  0
 24 22  1  0
 24 25  1  0
 26 24  2  0
M  END
$$$$
