KPQ.pdb
     RDKit          3D

 26 26  0  0  1  0  0  0  0  0999 V2000
   10.0145  -17.1349   16.9604 N   0  0  0  0  0  0  0  0  0  0  0  0
    8.8500  -16.2892   17.4054 C   0  0  1  0  0  0  0  0  0  0  0  0
    7.6878  -17.1910   17.3060 C   0  0  0  0  0  0  0  0  0  0  0  0
    7.6614  -18.4965   17.9750 C   0  0  0  0  0  0  0  0  0  0  0  0
    6.4294  -19.3187   17.9359 C   0  0  0  0  0  0  0  0  0  0  0  0
    6.5746  -20.6280   18.7006 C   0  0  0  0  0  0  0  0  0  0  0  0
    5.9241  -20.5916   19.9692 N   0  0  0  0  0  0  0  0  0  0  0  0
    9.2505  -15.7410   18.6746 C   0  0  0  0  0  0  0  0  0  0  0  0
   10.3107  -16.1494   19.2401 O   0  0  0  0  0  0  0  0  0  0  0  0
    8.5372  -14.7135   19.4163 N   0  0  0  0  0  0  0  0  0  0  0  0
    7.3142  -14.0954   18.9677 C   0  0  0  0  0  0  0  0  0  0  0  0
    7.1352  -12.8642   19.8248 C   0  0  0  0  0  0  0  0  0  0  0  0
    8.4446  -12.7093   20.5747 C   0  0  0  0  0  0  0  0  0  0  0  0
    8.8973  -14.1389   20.6633 C   0  0  1  0  0  0  0  0  0  0  0  0
    8.4699  -14.8576   21.8630 C   0  0  0  0  0  0  0  0  0  0  0  0
    7.3421  -15.4084   21.8717 O   0  0  0  0  0  0  0  0  0  0  0  0
   11.3191  -19.5942   22.2369 N   0  0  0  0  0  0  0  0  0  0  0  0
   12.1208  -18.3982   22.3779 C   0  0  0  0  0  0  0  0  0  0  0  0
   13.3469  -18.5683   22.1631 O   0  0  0  0  0  0  0  0  0  0  0  0
   11.4818  -17.1197   22.7466 C   0  0  0  0  0  0  0  0  0  0  0  0
   10.0215  -17.2574   22.9955 C   0  0  0  0  0  0  0  0  0  0  0  0
    9.4590  -16.1595   23.8182 C   0  0  2  0  0  0  0  0  0  0  0  0
    9.2928  -14.9472   23.0023 N   0  0  0  0  0  0  0  0  0  0  0  0
   10.2783  -15.8918   24.9972 C   0  0  0  0  0  0  0  0  0  0  0  0
   10.9766  -14.6764   25.1711 O   0  0  0  0  0  0  0  0  0  0  0  0
   10.4397  -16.7008   25.9569 O   0  0  0  0  0  0  0  0  0  0  0  0
  2  1  1  1
  3  2  1  0
  4  3  1  0
  4  5  1  0
  6  5  1  0
  6  7  1  0
  8  2  1  0
  9  8  2  0
 10  8  1  0
 11 10  1  0
 11 12  1  0
 13 12  1  0
 14 10  1  0
 14 13  1  0
 14 15  1  1
 16 15  2  0
 17 18  1  0
 18 19  2  0
 20 18  1  0
 20 21  1  0
 22 21  1  6
 22 23  1  0
 23 15  1  0
 24 22  1  0
 24 25  1  0
 26 24  2  0
M  END
$$$$
