KPQ.pdb
     RDKit          3D

 26 26  0  0  1  0  0  0  0  0999 V2000
    8.4364  -14.4998   21.1270 N   0  0  0  0  0  0  0  0  0  0  0  0
    7.3986  -14.2215   22.1829 C   0  0  1  0  0  0  0  0  0  0  0  0
    6.4485  -15.3424   22.0621 C   0  0  0  0  0  0  0  0  0  0  0  0
    6.9024  -16.7316   21.9332 C   0  0  0  0  0  0  0  0  0  0  0  0
    6.5272  -17.7272   22.9644 C   0  0  0  0  0  0  0  0  0  0  0  0
    7.0328  -19.1266   22.6389 C   0  0  0  0  0  0  0  0  0  0  0  0
    6.6339  -20.0890   23.6130 N   0  0  0  0  0  0  0  0  0  0  0  0
    8.1460  -14.0169   23.3959 C   0  0  0  0  0  0  0  0  0  0  0  0
    9.3830  -14.2971   23.4381 O   0  0  0  0  0  0  0  0  0  0  0  0
    7.6107  -13.4930   24.6423 N   0  0  0  0  0  0  0  0  0  0  0  0
    6.2555  -13.0294   24.8078 C   0  0  0  0  0  0  0  0  0  0  0  0
    6.2413  -12.2477   26.1006 C   0  0  0  0  0  0  0  0  0  0  0  0
    7.7001  -12.0950   26.4875 C   0  0  0  0  0  0  0  0  0  0  0  0
    8.2917  -13.3336   25.8775 C   0  0  1  0  0  0  0  0  0  0  0  0
    8.3382  -14.5026   26.7549 C   0  0  0  0  0  0  0  0  0  0  0  0
    7.3143  -15.2201   26.8657 O   0  0  0  0  0  0  0  0  0  0  0  0
   13.4279  -16.2668   24.7457 N   0  0  0  0  0  0  0  0  0  0  0  0
   13.0923  -17.4796   25.4594 C   0  0  0  0  0  0  0  0  0  0  0  0
   13.8296  -18.4604   25.1890 O   0  0  0  0  0  0  0  0  0  0  0  0
   11.9635  -17.4889   26.4105 C   0  0  0  0  0  0  0  0  0  0  0  0
   11.2785  -16.1715   26.5028 C   0  0  0  0  0  0  0  0  0  0  0  0
   10.1390  -16.1664   27.4515 C   0  0  2  0  0  0  0  0  0  0  0  0
    9.5015  -14.8411   27.4726 N   0  0  0  0  0  0  0  0  0  0  0  0
   10.5489  -16.5742   28.7926 C   0  0  0  0  0  0  0  0  0  0  0  0
   10.4640  -15.7072   29.9044 O   0  0  0  0  0  0  0  0  0  0  0  0
   11.0086  -17.7164   29.0856 O   0  0  0  0  0  0  0  0  0  0  0  0
  2  1  1  6
  3  2  1  0
  4  3  1  0
  4  5  1  0
  6  5  1  0
  6  7  1  0
  8  2  1  0
  9  8  2  0
 10  8  1  0
 11 10  1  0
 11 12  1  0
 13 12  1  0
 14 10  1  0
 14 13  1  0
 14 15  1  1
 16 15  2  0
 17 18  1  0
 18 19  2  0
 20 18  1  0
 20 21  1  0
 22 21  1  6
 22 23  1  0
 23 15  1  0
 24 22  1  0
 24 25  1  0
 26 24  2  0
M  END
$$$$
