KPQ.pdb
     RDKit          3D

 26 26  0  0  1  0  0  0  0  0999 V2000
    8.1500  -14.4473   21.0464 N   0  0  0  0  0  0  0  0  0  0  0  0
    7.1969  -14.2115   22.1889 C   0  0  1  0  0  0  0  0  0  0  0  0
    6.2830  -15.3675   22.1435 C   0  0  0  0  0  0  0  0  0  0  0  0
    6.7721  -16.7329   21.9218 C   0  0  0  0  0  0  0  0  0  0  0  0
    6.4544  -17.7968   22.9029 C   0  0  0  0  0  0  0  0  0  0  0  0
    6.9806  -19.1615   22.4779 C   0  0  0  0  0  0  0  0  0  0  0  0
    6.6549  -20.1858   23.4153 N   0  0  0  0  0  0  0  0  0  0  0  0
    8.0374  -13.9815   23.3345 C   0  0  0  0  0  0  0  0  0  0  0  0
    9.2811  -14.2262   23.2729 O   0  0  0  0  0  0  0  0  0  0  0  0
    7.5939  -13.4688   24.6210 N   0  0  0  0  0  0  0  0  0  0  0  0
    6.2490  -13.0265   24.8942 C   0  0  0  0  0  0  0  0  0  0  0  0
    6.3247  -12.2482   26.1869 C   0  0  0  0  0  0  0  0  0  0  0  0
    7.8069  -12.0739   26.4584 C   0  0  0  0  0  0  0  0  0  0  0  0
    8.3674  -13.3018   25.7994 C   0  0  1  0  0  0  0  0  0  0  0  0
    8.5005  -14.4720   26.6663 C   0  0  0  0  0  0  0  0  0  0  0  0
    7.4737  -15.1327   26.9569 O   0  0  0  0  0  0  0  0  0  0  0  0
   13.3199  -17.9284   25.4821 N   0  0  0  0  0  0  0  0  0  0  0  0
   12.8322  -18.6309   26.6490 C   0  0  0  0  0  0  0  0  0  0  0  0
   13.4692  -19.6776   26.9271 O   0  0  0  0  0  0  0  0  0  0  0  0
   11.6769  -18.1023   27.4003 C   0  0  0  0  0  0  0  0  0  0  0  0
   11.2282  -16.7731   26.9051 C   0  0  0  0  0  0  0  0  0  0  0  0
   10.0621  -16.2329   27.6446 C   0  0  2  0  0  0  0  0  0  0  0  0
    9.7497  -14.8737   27.1776 N   0  0  0  0  0  0  0  0  0  0  0  0
   10.2786  -16.2560   29.0887 C   0  0  0  0  0  0  0  0  0  0  0  0
   10.3511  -17.4609   29.8221 O   0  0  0  0  0  0  0  0  0  0  0  0
   10.4203  -15.2250   29.8090 O   0  0  0  0  0  0  0  0  0  0  0  0
  2  1  1  6
  3  2  1  0
  4  3  1  0
  4  5  1  0
  6  5  1  0
  6  7  1  0
  8  2  1  0
  9  8  2  0
 10  8  1  0
 11 10  1  0
 11 12  1  0
 13 12  1  0
 14 10  1  0
 14 13  1  0
 14 15  1  1
 16 15  2  0
 17 18  1  0
 18 19  2  0
 20 18  1  0
 20 21  1  0
 22 21  1  6
 22 23  1  0
 23 15  1  0
 24 22  1  0
 24 25  1  0
 26 24  2  0
M  END
$$$$
