KPQ.pdb
     RDKit          3D

 26 26  0  0  1  0  0  0  0  0999 V2000
    9.4281  -16.0575   15.7191 N   0  0  0  0  0  0  0  0  0  0  0  0
    8.3408  -15.6581   16.6823 C   0  0  1  0  0  0  0  0  0  0  0  0
    7.4330  -16.8195   16.7063 C   0  0  0  0  0  0  0  0  0  0  0  0
    7.8373  -18.1065   17.2831 C   0  0  0  0  0  0  0  0  0  0  0  0
    6.8920  -19.2474   17.2723 C   0  0  0  0  0  0  0  0  0  0  0  0
    7.4887  -20.5082   17.8840 C   0  0  0  0  0  0  0  0  0  0  0  0
    6.7735  -20.9430   19.0388 N   0  0  0  0  0  0  0  0  0  0  0  0
    9.0326  -15.2391   17.8729 C   0  0  0  0  0  0  0  0  0  0  0  0
   10.2626  -15.5115   18.0256 O   0  0  0  0  0  0  0  0  0  0  0  0
    8.4455  -14.4953   18.9760 N   0  0  0  0  0  0  0  0  0  0  0  0
    7.0521  -14.1333   19.0553 C   0  0  0  0  0  0  0  0  0  0  0  0
    6.9596  -13.0809   20.1353 C   0  0  0  0  0  0  0  0  0  0  0  0
    8.3960  -12.7095   20.4511 C   0  0  0  0  0  0  0  0  0  0  0  0
    9.1038  -13.9948   20.1298 C   0  0  1  0  0  0  0  0  0  0  0  0
    9.2565  -14.9222   21.2501 C   0  0  0  0  0  0  0  0  0  0  0  0
    8.3160  -15.7079   21.5210 O   0  0  0  0  0  0  0  0  0  0  0  0
   15.4123  -16.7752   21.7196 N   0  0  0  0  0  0  0  0  0  0  0  0
   14.4483  -16.1924   22.6274 C   0  0  0  0  0  0  0  0  0  0  0  0
   14.9453  -15.7349   23.6867 O   0  0  0  0  0  0  0  0  0  0  0  0
   13.0160  -16.1729   22.2713 C   0  0  0  0  0  0  0  0  0  0  0  0
   12.1348  -15.9308   23.4453 C   0  0  0  0  0  0  0  0  0  0  0  0
   10.6916  -15.9201   23.1051 C   0  0  2  0  0  0  0  0  0  0  0  0
   10.4311  -14.9550   22.0264 N   0  0  0  0  0  0  0  0  0  0  0  0
    9.8618  -15.6395   24.2737 C   0  0  0  0  0  0  0  0  0  0  0  0
    9.7078  -16.5644   25.3300 O   0  0  0  0  0  0  0  0  0  0  0  0
    9.2149  -14.5666   24.4527 O   0  0  0  0  0  0  0  0  0  0  0  0
  2  1  1  6
  3  2  1  0
  4  3  1  0
  4  5  1  0
  6  5  1  0
  6  7  1  0
  8  2  1  0
  9  8  2  0
 10  8  1  0
 11 10  1  0
 11 12  1  0
 13 12  1  0
 14 10  1  0
 14 13  1  0
 14 15  1  1
 16 15  2  0
 17 18  1  0
 18 19  2  0
 20 18  1  0
 20 21  1  0
 22 21  1  1
 22 23  1  0
 23 15  1  0
 24 22  1  0
 24 25  1  0
 26 24  2  0
M  END
$$$$
