YFM.pdb
     RDKit          3D

 32 33  0  0  1  0  0  0  0  0999 V2000
   22.5590  -17.9139  -17.4726 O   0  0  0  0  0  0  0  0  0  0  0  0
   22.7912  -18.5234  -16.2505 C   0  0  0  0  0  0  0  0  0  0  0  0
   23.3368  -17.7873  -15.2239 C   0  0  0  0  0  0  0  0  0  0  0  0
   23.5643  -18.4037  -14.0100 C   0  0  0  0  0  0  0  0  0  0  0  0
   23.2632  -19.7354  -13.7889 C   0  0  0  0  0  0  0  0  0  0  0  0
   23.5167  -20.3783  -12.4735 C   0  0  0  0  0  0  0  0  0  0  0  0
   24.9913  -20.6525  -12.3455 C   0  0  2  0  0  0  0  0  0  0  0  0
   25.4614  -21.5732  -13.3518 N   0  0  0  0  0  0  0  0  0  0  0  0
   25.4016  -21.0342  -10.9863 C   0  0  0  0  0  0  0  0  0  0  0  0
   25.0032  -22.0865  -10.4280 O   0  0  0  0  0  0  0  0  0  0  0  0
   22.7175  -20.4367  -14.8456 C   0  0  0  0  0  0  0  0  0  0  0  0
   22.4767  -19.8517  -16.0729 C   0  0  0  0  0  0  0  0  0  0  0  0
   26.2894  -20.1992  -10.2371 N   0  0  0  0  0  0  0  0  0  0  0  0
   26.5666  -20.3838   -8.8509 C   0  0  1  0  0  0  0  0  0  0  0  0
   27.6778  -19.5156   -8.3331 C   0  0  0  0  0  0  0  0  0  0  0  0
   27.9374  -19.6783   -6.8918 C   0  0  0  0  0  0  0  0  0  0  0  0
   27.5823  -18.6900   -6.0237 C   0  0  0  0  0  0  0  0  0  0  0  0
   27.8323  -18.8554   -4.6785 C   0  0  0  0  0  0  0  0  0  0  0  0
   28.4319  -19.9955   -4.1946 C   0  0  0  0  0  0  0  0  0  0  0  0
   28.7777  -20.9738   -5.0988 C   0  0  0  0  0  0  0  0  0  0  0  0
   28.5320  -20.8166   -6.4410 C   0  0  0  0  0  0  0  0  0  0  0  0
   25.3301  -20.3126   -8.0718 C   0  0  0  0  0  0  0  0  0  0  0  0
   24.6021  -19.2997   -8.1498 O   0  0  0  0  0  0  0  0  0  0  0  0
   20.0516  -23.9681   -8.0005 C   0  0  0  0  0  0  0  0  0  0  0  0
   20.5279  -23.8402   -6.3079 S   0  0  0  0  0  0  0  0  0  0  0  0
   21.5892  -22.5146   -5.8105 C   0  0  0  0  0  0  0  0  0  0  0  0
   22.8219  -22.4291   -6.6502 C   0  0  0  0  0  0  0  0  0  0  0  0
   23.7559  -21.3207   -6.3532 C   0  0  2  0  0  0  0  0  0  0  0  0
   24.9419  -21.3767   -7.2268 N   0  0  0  0  0  0  0  0  0  0  0  0
   24.2343  -21.3376   -4.9299 C   0  0  0  0  0  0  0  0  0  0  0  0
   25.2949  -22.0819   -4.4831 O   0  0  0  0  0  0  0  0  0  0  0  0
   23.6448  -20.6293   -4.0514 O   0  0  0  0  0  0  0  0  0  0  0  0
  2  1  1  0
  2  3  2  0
  4  3  1  0
  5  4  2  0
  6  7  1  0
  6  5  1  0
  7  8  1  6
  9 13  1  0
  9  7  1  0
 10  9  2  0
 11 12  2  0
 11  5  1  0
 12  2  1  0
 14 13  1  0
 14 15  1  1
 16 21  1  0
 16 15  1  0
 17 16  2  0
 18 19  2  0
 18 17  1  0
 19 20  1  0
 20 21  2  0
 22 23  2  0
 22 14  1  0
 24 25  1  0
 26 25  1  0
 27 26  1  0
 28 27  1  1
 28 29  1  0
 29 22  1  0
 30 28  1  0
 31 30  1  0
 32 30  2  0
M  END
$$$$
