YFM.pdb
     RDKit          3D

 32 33  0  0  1  0  0  0  0  0999 V2000
   19.5643  -14.9767  -24.0540 O   0  0  0  0  0  0  0  0  0  0  0  0
   19.4084  -13.9557  -23.1309 C   0  0  0  0  0  0  0  0  0  0  0  0
   18.1467  -13.4757  -22.8645 C   0  0  0  0  0  0  0  0  0  0  0  0
   18.0019  -12.4582  -21.9430 C   0  0  0  0  0  0  0  0  0  0  0  0
   19.0805  -11.9039  -21.2779 C   0  0  0  0  0  0  0  0  0  0  0  0
   18.9009  -10.8090  -20.2895 C   0  0  0  0  0  0  0  0  0  0  0  0
   19.0425  -11.3801  -18.9040 C   0  0  2  0  0  0  0  0  0  0  0  0
   18.0718  -12.4146  -18.6417 N   0  0  0  0  0  0  0  0  0  0  0  0
   19.0858  -10.3571  -17.8490 C   0  0  0  0  0  0  0  0  0  0  0  0
   18.0499   -9.8963  -17.3083 O   0  0  0  0  0  0  0  0  0  0  0  0
   20.3281  -12.4150  -21.5751 C   0  0  0  0  0  0  0  0  0  0  0  0
   20.5092  -13.4321  -22.4911 C   0  0  0  0  0  0  0  0  0  0  0  0
   20.3395   -9.8406  -17.3928 N   0  0  0  0  0  0  0  0  0  0  0  0
   20.4604   -8.7644  -16.4657 C   0  0  1  0  0  0  0  0  0  0  0  0
   21.6339   -8.8925  -15.5366 C   0  0  0  0  0  0  0  0  0  0  0  0
   21.7435   -7.7931  -14.5616 C   0  0  0  0  0  0  0  0  0  0  0  0
   21.2023   -7.9330  -13.3191 C   0  0  0  0  0  0  0  0  0  0  0  0
   21.3114   -6.8959  -12.4180 C   0  0  0  0  0  0  0  0  0  0  0  0
   21.9544   -5.7244  -12.7461 C   0  0  0  0  0  0  0  0  0  0  0  0
   22.4897   -5.6165  -14.0095 C   0  0  0  0  0  0  0  0  0  0  0  0
   22.3851   -6.6454  -14.9133 C   0  0  0  0  0  0  0  0  0  0  0  0
   20.3788   -7.4810  -17.1636 C   0  0  0  0  0  0  0  0  0  0  0  0
   21.0815   -7.2772  -18.1770 O   0  0  0  0  0  0  0  0  0  0  0  0
   15.4417   -1.7312  -19.3048 C   0  0  0  0  0  0  0  0  0  0  0  0
   15.9605   -3.1900  -18.4617 S   0  0  0  0  0  0  0  0  0  0  0  0
   17.6891   -3.4647  -18.2018 C   0  0  0  0  0  0  0  0  0  0  0  0
   17.9683   -4.8120  -17.6198 C   0  0  0  0  0  0  0  0  0  0  0  0
   19.3874   -5.1530  -17.3774 C   0  0  2  0  0  0  0  0  0  0  0  0
   19.5130   -6.4609  -16.7091 N   0  0  0  0  0  0  0  0  0  0  0  0
   20.0863   -4.1338  -16.5243 C   0  0  0  0  0  0  0  0  0  0  0  0
   20.7699   -3.0540  -17.0195 O   0  0  0  0  0  0  0  0  0  0  0  0
   20.0660   -4.2432  -15.2560 O   0  0  0  0  0  0  0  0  0  0  0  0
  2  1  1  0
  2  3  2  0
  4  3  1  0
  5  4  2  0
  6  7  1  0
  6  5  1  0
  7  8  1  1
  9 13  1  0
  9  7  1  0
 10  9  2  0
 11 12  2  0
 11  5  1  0
 12  2  1  0
 14 13  1  0
 14 15  1  6
 16 21  1  0
 16 15  1  0
 17 16  2  0
 18 19  2  0
 18 17  1  0
 19 20  1  0
 20 21  2  0
 22 23  2  0
 22 14  1  0
 24 25  1  0
 26 25  1  0
 27 26  1  0
 28 27  1  1
 28 29  1  0
 29 22  1  0
 30 28  1  0
 31 30  1  0
 32 30  2  0
M  END
$$$$
