YFM.pdb
     RDKit          3D

 32 33  0  0  1  0  0  0  0  0999 V2000
   22.3975  -31.6549  -17.8913 O   0  0  0  0  0  0  0  0  0  0  0  0
   22.4567  -31.9490  -16.5390 C   0  0  0  0  0  0  0  0  0  0  0  0
   21.4117  -32.6231  -15.9501 C   0  0  0  0  0  0  0  0  0  0  0  0
   21.4803  -32.9114  -14.6020 C   0  0  0  0  0  0  0  0  0  0  0  0
   22.5626  -32.5466  -13.8219 C   0  0  0  0  0  0  0  0  0  0  0  0
   22.6149  -32.8677  -12.3720 C   0  0  0  0  0  0  0  0  0  0  0  0
   23.5858  -33.9987  -12.1619 C   0  0  2  0  0  0  0  0  0  0  0  0
   23.1299  -35.2250  -12.7699 N   0  0  0  0  0  0  0  0  0  0  0  0
   23.9896  -34.1728  -10.7591 C   0  0  0  0  0  0  0  0  0  0  0  0
   23.5547  -35.1055  -10.0389 O   0  0  0  0  0  0  0  0  0  0  0  0
   23.5888  -31.8720  -14.4527 C   0  0  0  0  0  0  0  0  0  0  0  0
   23.5530  -31.5674  -15.7989 C   0  0  0  0  0  0  0  0  0  0  0  0
   24.9133  -33.2634  -10.1538 N   0  0  0  0  0  0  0  0  0  0  0  0
   25.3300  -33.3492   -8.7931 C   0  0  1  0  0  0  0  0  0  0  0  0
   26.5239  -32.4971   -8.4689 C   0  0  0  0  0  0  0  0  0  0  0  0
   27.0247  -32.6732   -7.0943 C   0  0  0  0  0  0  0  0  0  0  0  0
   26.5572  -31.8732   -6.0953 C   0  0  0  0  0  0  0  0  0  0  0  0
   27.0355  -32.0485   -4.8148 C   0  0  0  0  0  0  0  0  0  0  0  0
   27.9734  -33.0125   -4.5244 C   0  0  0  0  0  0  0  0  0  0  0  0
   28.4241  -33.8031   -5.5568 C   0  0  0  0  0  0  0  0  0  0  0  0
   27.9525  -33.6348   -6.8358 C   0  0  0  0  0  0  0  0  0  0  0  0
   24.1880  -33.1557   -7.8990 C   0  0  0  0  0  0  0  0  0  0  0  0
   23.3982  -32.2068   -8.0937 O   0  0  0  0  0  0  0  0  0  0  0  0
   17.8324  -35.3629   -6.2695 C   0  0  0  0  0  0  0  0  0  0  0  0
   19.3627  -36.0331   -5.7064 S   0  0  0  0  0  0  0  0  0  0  0  0
   20.6427  -34.9308   -5.1796 C   0  0  0  0  0  0  0  0  0  0  0  0
   21.7426  -34.8170   -6.1842 C   0  0  0  0  0  0  0  0  0  0  0  0
   22.8362  -33.8708   -5.8719 C   0  0  2  0  0  0  0  0  0  0  0  0
   23.9607  -34.0293   -6.8118 N   0  0  0  0  0  0  0  0  0  0  0  0
   23.3730  -34.0510   -4.4811 C   0  0  0  0  0  0  0  0  0  0  0  0
   22.7060  -33.6762   -3.3439 O   0  0  0  0  0  0  0  0  0  0  0  0
   24.5165  -34.5820   -4.3036 O   0  0  0  0  0  0  0  0  0  0  0  0
  2  1  1  0
  2  3  2  0
  4  3  1  0
  5  4  2  0
  6  7  1  0
  6  5  1  0
  7  8  1  1
  9 13  1  0
  9  7  1  0
 10  9  2  0
 11 12  2  0
 11  5  1  0
 12  2  1  0
 14 13  1  0
 14 15  1  1
 16 21  1  0
 16 15  1  0
 17 16  2  0
 18 19  2  0
 18 17  1  0
 19 20  1  0
 20 21  2  0
 22 23  2  0
 22 14  1  0
 24 25  1  0
 26 25  1  0
 27 26  1  0
 28 27  1  6
 28 29  1  0
 29 22  1  0
 30 28  1  0
 31 30  1  0
 32 30  2  0
M  END
$$$$
