YFM.pdb
     RDKit          3D

 32 33  0  0  1  0  0  0  0  0999 V2000
   15.4916  -17.5631  -15.9157 O   0  0  0  0  0  0  0  0  0  0  0  0
   16.1971  -16.3767  -16.0329 C   0  0  0  0  0  0  0  0  0  0  0  0
   17.3816  -16.3641  -16.7330 C   0  0  0  0  0  0  0  0  0  0  0  0
   18.0771  -15.1770  -16.8441 C   0  0  0  0  0  0  0  0  0  0  0  0
   17.6255  -13.9995  -16.2764 C   0  0  0  0  0  0  0  0  0  0  0  0
   18.3910  -12.7328  -16.4089 C   0  0  0  0  0  0  0  0  0  0  0  0
   17.7099  -11.8605  -17.4292 C   0  0  2  0  0  0  0  0  0  0  0  0
   17.6334  -12.4962  -18.7220 N   0  0  0  0  0  0  0  0  0  0  0  0
   18.2566  -10.4974  -17.4949 C   0  0  0  0  0  0  0  0  0  0  0  0
   19.1542  -10.1651  -18.3083 O   0  0  0  0  0  0  0  0  0  0  0  0
   16.4330  -14.0568  -15.5829 C   0  0  0  0  0  0  0  0  0  0  0  0
   15.7117  -15.2269  -15.4521 C   0  0  0  0  0  0  0  0  0  0  0  0
   17.7724   -9.4802  -16.6131 N   0  0  0  0  0  0  0  0  0  0  0  0
   18.2712   -8.1448  -16.5975 C   0  0  1  0  0  0  0  0  0  0  0  0
   17.2011   -7.0985  -16.4680 C   0  0  0  0  0  0  0  0  0  0  0  0
   16.2758   -7.0490  -17.6137 C   0  0  0  0  0  0  0  0  0  0  0  0
   16.5406   -6.2214  -18.6631 C   0  0  0  0  0  0  0  0  0  0  0  0
   15.6657   -6.1846  -19.7273 C   0  0  0  0  0  0  0  0  0  0  0  0
   14.5325   -6.9648  -19.7523 C   0  0  0  0  0  0  0  0  0  0  0  0
   14.2954   -7.7894  -18.6762 C   0  0  0  0  0  0  0  0  0  0  0  0
   15.1624   -7.8318  -17.6118 C   0  0  0  0  0  0  0  0  0  0  0  0
   19.3595   -8.0204  -15.6275 C   0  0  0  0  0  0  0  0  0  0  0  0
   19.1649   -8.3232  -14.4306 O   0  0  0  0  0  0  0  0  0  0  0  0
   26.8281   -9.8090  -14.5240 C   0  0  0  0  0  0  0  0  0  0  0  0
   25.2340   -9.7222  -15.2721 S   0  0  0  0  0  0  0  0  0  0  0  0
   24.0648   -8.5380  -14.6710 C   0  0  0  0  0  0  0  0  0  0  0  0
   22.8108   -8.5162  -15.4828 C   0  0  0  0  0  0  0  0  0  0  0  0
   21.7926   -7.5093  -15.1107 C   0  0  2  0  0  0  0  0  0  0  0  0
   20.6360   -7.5610  -16.0232 N   0  0  0  0  0  0  0  0  0  0  0  0
   22.3332   -6.1085  -15.1353 C   0  0  0  0  0  0  0  0  0  0  0  0
   22.8618   -5.4683  -14.0449 O   0  0  0  0  0  0  0  0  0  0  0  0
   22.3180   -5.4390  -16.2181 O   0  0  0  0  0  0  0  0  0  0  0  0
  2  1  1  0
  2  3  2  0
  4  3  1  0
  5  4  2  0
  6  7  1  0
  6  5  1  0
  7  8  1  6
  9 13  1  0
  9  7  1  0
 10  9  2  0
 11 12  2  0
 11  5  1  0
 12  2  1  0
 14 13  1  0
 14 15  1  1
 16 21  1  0
 16 15  1  0
 17 16  2  0
 18 19  2  0
 18 17  1  0
 19 20  1  0
 20 21  2  0
 22 23  2  0
 22 14  1  0
 24 25  1  0
 26 25  1  0
 27 26  1  0
 28 27  1  6
 28 29  1  0
 29 22  1  0
 30 28  1  0
 31 30  1  0
 32 30  2  0
M  END
$$$$
