YFM.pdb
     RDKit          3D

 32 33  0  0  1  0  0  0  0  0999 V2000
   20.6302  -18.9232  -16.9212 O   0  0  0  0  0  0  0  0  0  0  0  0
   21.2867  -19.4895  -15.8408 C   0  0  0  0  0  0  0  0  0  0  0  0
   21.5387  -20.8422  -15.8395 C   0  0  0  0  0  0  0  0  0  0  0  0
   22.1934  -21.3967  -14.7582 C   0  0  0  0  0  0  0  0  0  0  0  0
   22.6052  -20.6407  -13.6758 C   0  0  0  0  0  0  0  0  0  0  0  0
   23.3087  -21.2593  -12.5223 C   0  0  0  0  0  0  0  0  0  0  0  0
   24.7455  -20.8106  -12.5350 C   0  0  2  0  0  0  0  0  0  0  0  0
   25.4508  -21.2822  -13.7018 N   0  0  0  0  0  0  0  0  0  0  0  0
   25.4603  -21.0949  -11.2822 C   0  0  0  0  0  0  0  0  0  0  0  0
   25.8992  -22.2365  -10.9958 O   0  0  0  0  0  0  0  0  0  0  0  0
   22.3323  -19.2880  -13.7179 C   0  0  0  0  0  0  0  0  0  0  0  0
   21.6795  -18.7004  -14.7834 C   0  0  0  0  0  0  0  0  0  0  0  0
   25.6848  -20.0555  -10.3252 N   0  0  0  0  0  0  0  0  0  0  0  0
   26.3517  -20.2570   -9.0814 C   0  0  1  0  0  0  0  0  0  0  0  0
   27.0830  -19.0439   -8.5812 C   0  0  0  0  0  0  0  0  0  0  0  0
   27.9189  -19.3004   -7.3951 C   0  0  0  0  0  0  0  0  0  0  0  0
   28.9511  -20.1865   -7.4725 C   0  0  0  0  0  0  0  0  0  0  0  0
   29.7238  -20.4172   -6.3549 C   0  0  0  0  0  0  0  0  0  0  0  0
   29.4753  -19.7727   -5.1648 C   0  0  0  0  0  0  0  0  0  0  0  0
   28.4252  -18.8842   -5.1214 C   0  0  0  0  0  0  0  0  0  0  0  0
   27.6504  -18.6487   -6.2308 C   0  0  0  0  0  0  0  0  0  0  0  0
   25.4399  -20.8581   -8.1077 C   0  0  0  0  0  0  0  0  0  0  0  0
   24.2279  -20.5532   -8.1183 O   0  0  0  0  0  0  0  0  0  0  0  0
   28.1449  -23.1219   -2.5589 C   0  0  0  0  0  0  0  0  0  0  0  0
   26.4209  -23.3753   -2.2906 S   0  0  0  0  0  0  0  0  0  0  0  0
   25.2787  -22.9475   -3.5726 C   0  0  0  0  0  0  0  0  0  0  0  0
   25.9680  -22.5308   -4.8308 C   0  0  0  0  0  0  0  0  0  0  0  0
   25.1061  -22.2250   -5.9938 C   0  0  2  0  0  0  0  0  0  0  0  0
   25.9090  -21.7841   -7.1488 N   0  0  0  0  0  0  0  0  0  0  0  0
   24.1008  -21.1496   -5.6977 C   0  0  0  0  0  0  0  0  0  0  0  0
   23.9160  -20.5881   -4.4611 O   0  0  0  0  0  0  0  0  0  0  0  0
   23.3533  -20.7033   -6.6267 O   0  0  0  0  0  0  0  0  0  0  0  0
  2  1  1  0
  2  3  2  0
  4  3  1  0
  5  4  2  0
  6  7  1  0
  6  5  1  0
  7  8  1  6
  9 13  1  0
  9  7  1  0
 10  9  2  0
 11 12  2  0
 11  5  1  0
 12  2  1  0
 14 13  1  0
 14 15  1  1
 16 21  1  0
 16 15  1  0
 17 16  2  0
 18 19  2  0
 18 17  1  0
 19 20  1  0
 20 21  2  0
 22 23  2  0
 22 14  1  0
 24 25  1  0
 26 25  1  0
 27 26  1  0
 28 27  1  1
 28 29  1  0
 29 22  1  0
 30 28  1  0
 31 30  1  0
 32 30  2  0
M  END
$$$$
