YFM.pdb
     RDKit          3D

 32 33  0  0  1  0  0  0  0  0999 V2000
   19.9912  -18.3760  -16.0761 O   0  0  0  0  0  0  0  0  0  0  0  0
   20.7795  -18.9816  -15.1113 C   0  0  0  0  0  0  0  0  0  0  0  0
   20.3285  -20.1256  -14.4941 C   0  0  0  0  0  0  0  0  0  0  0  0
   21.1215  -20.7215  -13.5341 C   0  0  0  0  0  0  0  0  0  0  0  0
   22.3536  -20.2091  -13.1706 C   0  0  0  0  0  0  0  0  0  0  0  0
   23.1906  -20.8675  -12.1343 C   0  0  0  0  0  0  0  0  0  0  0  0
   24.5327  -21.1944  -12.7325 C   0  0  2  0  0  0  0  0  0  0  0  0
   24.4223  -22.0984  -13.8514 N   0  0  0  0  0  0  0  0  0  0  0  0
   25.5264  -21.6317  -11.7412 C   0  0  0  0  0  0  0  0  0  0  0  0
   25.4374  -22.7245  -11.1282 O   0  0  0  0  0  0  0  0  0  0  0  0
   22.7677  -19.0602  -13.8146 C   0  0  0  0  0  0  0  0  0  0  0  0
   22.0000  -18.4383  -14.7792 C   0  0  0  0  0  0  0  0  0  0  0  0
   26.6544  -20.8069  -11.4349 N   0  0  0  0  0  0  0  0  0  0  0  0
   27.6247  -21.1319  -10.4422 C   0  0  1  0  0  0  0  0  0  0  0  0
   29.0294  -20.7578  -10.8209 C   0  0  0  0  0  0  0  0  0  0  0  0
   30.0353  -21.1197   -9.8067 C   0  0  0  0  0  0  0  0  0  0  0  0
   30.6352  -22.3421   -9.8537 C   0  0  0  0  0  0  0  0  0  0  0  0
   31.5733  -22.6674   -8.8979 C   0  0  0  0  0  0  0  0  0  0  0  0
   31.9162  -21.7852   -7.8990 C   0  0  0  0  0  0  0  0  0  0  0  0
   31.2911  -20.5592   -7.8811 C   0  0  0  0  0  0  0  0  0  0  0  0
   30.3551  -20.2275   -8.8300 C   0  0  0  0  0  0  0  0  0  0  0  0
   27.1984  -20.6354   -9.1335 C   0  0  0  0  0  0  0  0  0  0  0  0
   26.4890  -19.6093   -9.0574 O   0  0  0  0  0  0  0  0  0  0  0  0
   30.7745  -22.3996   -3.8075 C   0  0  0  0  0  0  0  0  0  0  0  0
   29.8511  -20.9688   -3.3509 S   0  0  0  0  0  0  0  0  0  0  0  0
   28.4413  -20.5102   -4.3168 C   0  0  0  0  0  0  0  0  0  0  0  0
   28.5038  -21.0555   -5.7063 C   0  0  0  0  0  0  0  0  0  0  0  0
   27.3718  -20.7308   -6.6019 C   0  0  2  0  0  0  0  0  0  0  0  0
   27.5771  -21.3009   -7.9458 N   0  0  0  0  0  0  0  0  0  0  0  0
   27.1681  -19.2513   -6.7582 C   0  0  0  0  0  0  0  0  0  0  0  0
   26.5072  -18.4652   -5.8506 O   0  0  0  0  0  0  0  0  0  0  0  0
   27.6229  -18.6508   -7.7846 O   0  0  0  0  0  0  0  0  0  0  0  0
  2  1  1  0
  2  3  2  0
  4  3  1  0
  5  4  2  0
  6  7  1  0
  6  5  1  0
  7  8  1  6
  9 13  1  0
  9  7  1  0
 10  9  2  0
 11 12  2  0
 11  5  1  0
 12  2  1  0
 14 13  1  0
 14 15  1  6
 16 21  1  0
 16 15  1  0
 17 16  2  0
 18 19  2  0
 18 17  1  0
 19 20  1  0
 20 21  2  0
 22 23  2  0
 22 14  1  0
 24 25  1  0
 26 25  1  0
 27 26  1  0
 28 27  1  1
 28 29  1  0
 29 22  1  0
 30 28  1  0
 31 30  1  0
 32 30  2  0
M  END
$$$$
