YFM.pdb
     RDKit          3D

 32 33  0  0  1  0  0  0  0  0999 V2000
   21.7538  -18.9660  -16.5662 O   0  0  0  0  0  0  0  0  0  0  0  0
   22.2691  -19.4696  -15.3831 C   0  0  0  0  0  0  0  0  0  0  0  0
   22.7555  -18.5982  -14.4357 C   0  0  0  0  0  0  0  0  0  0  0  0
   23.2668  -19.1100  -13.2601 C   0  0  0  0  0  0  0  0  0  0  0  0
   23.3076  -20.4679  -13.0007 C   0  0  0  0  0  0  0  0  0  0  0  0
   23.8628  -20.9964  -11.7277 C   0  0  0  0  0  0  0  0  0  0  0  0
   25.3597  -20.8393  -11.7509 C   0  0  2  0  0  0  0  0  0  0  0  0
   25.9685  -21.5981  -12.8161 N   0  0  0  0  0  0  0  0  0  0  0  0
   25.9950  -21.0757  -10.4463 C   0  0  0  0  0  0  0  0  0  0  0  0
   26.4302  -22.2014  -10.0979 O   0  0  0  0  0  0  0  0  0  0  0  0
   22.8094  -21.3063  -13.9779 C   0  0  0  0  0  0  0  0  0  0  0  0
   22.2908  -20.8286  -15.1651 C   0  0  0  0  0  0  0  0  0  0  0  0
   26.1417  -20.0056   -9.5083 N   0  0  0  0  0  0  0  0  0  0  0  0
   26.7053  -20.1657   -8.2085 C   0  0  1  0  0  0  0  0  0  0  0  0
   27.3165  -18.9109   -7.6531 C   0  0  0  0  0  0  0  0  0  0  0  0
   28.2437  -19.1466   -6.5323 C   0  0  0  0  0  0  0  0  0  0  0  0
   28.3081  -18.2518   -5.5068 C   0  0  0  0  0  0  0  0  0  0  0  0
   29.1807  -18.4846   -4.4658 C   0  0  0  0  0  0  0  0  0  0  0  0
   29.9868  -19.5996   -4.4404 C   0  0  0  0  0  0  0  0  0  0  0  0
   29.8964  -20.4828   -5.4920 C   0  0  0  0  0  0  0  0  0  0  0  0
   29.0293  -20.2580   -6.5332 C   0  0  0  0  0  0  0  0  0  0  0  0
   25.7467  -20.8181   -7.3161 C   0  0  0  0  0  0  0  0  0  0  0  0
   24.5590  -20.4301   -7.2869 O   0  0  0  0  0  0  0  0  0  0  0  0
   26.5257  -25.6566   -1.9315 C   0  0  0  0  0  0  0  0  0  0  0  0
   26.9141  -23.9389   -2.0158 S   0  0  0  0  0  0  0  0  0  0  0  0
   25.9525  -22.8901   -3.0675 C   0  0  0  0  0  0  0  0  0  0  0  0
   26.0275  -23.3021   -4.5016 C   0  0  0  0  0  0  0  0  0  0  0  0
   25.2568  -22.4913   -5.4699 C   0  0  2  0  0  0  0  0  0  0  0  0
   26.1431  -21.8869   -6.4809 N   0  0  0  0  0  0  0  0  0  0  0  0
   24.4911  -21.3810   -4.8096 C   0  0  0  0  0  0  0  0  0  0  0  0
   23.2088  -21.5029   -4.3413 O   0  0  0  0  0  0  0  0  0  0  0  0
   25.0316  -20.2386   -4.6556 O   0  0  0  0  0  0  0  0  0  0  0  0
  2  1  1  0
  2  3  2  0
  4  3  1  0
  5  4  2  0
  6  7  1  0
  6  5  1  0
  7  8  1  6
  9 13  1  0
  9  7  1  0
 10  9  2  0
 11 12  2  0
 11  5  1  0
 12  2  1  0
 14 13  1  0
 14 15  1  1
 16 21  1  0
 16 15  1  0
 17 16  2  0
 18 19  2  0
 18 17  1  0
 19 20  1  0
 20 21  2  0
 22 23  2  0
 22 14  1  0
 24 25  1  0
 26 25  1  0
 27 26  1  0
 28 27  1  1
 28 29  1  0
 29 22  1  0
 30 28  1  0
 31 30  1  0
 32 30  2  0
M  END
$$$$
