YFM.pdb
     RDKit          3D

 32 33  0  0  1  0  0  0  0  0999 V2000
   25.7137  -17.7088  -18.0540 O   0  0  0  0  0  0  0  0  0  0  0  0
   25.5556  -18.2606  -16.7933 C   0  0  0  0  0  0  0  0  0  0  0  0
   24.8336  -19.4235  -16.6530 C   0  0  0  0  0  0  0  0  0  0  0  0
   24.6819  -19.9654  -15.3926 C   0  0  0  0  0  0  0  0  0  0  0  0
   25.2300  -19.3808  -14.2654 C   0  0  0  0  0  0  0  0  0  0  0  0
   25.0538  -19.9821  -12.9181 C   0  0  0  0  0  0  0  0  0  0  0  0
   26.3274  -20.6856  -12.5322 C   0  0  2  0  0  0  0  0  0  0  0  0
   26.6112  -21.8063  -13.3952 N   0  0  0  0  0  0  0  0  0  0  0  0
   26.3975  -21.0320  -11.1051 C   0  0  0  0  0  0  0  0  0  0  0  0
   25.7354  -21.9737  -10.6025 O   0  0  0  0  0  0  0  0  0  0  0  0
   25.9466  -18.2154  -14.4513 C   0  0  0  0  0  0  0  0  0  0  0  0
   26.1181  -17.6460  -15.6974 C   0  0  0  0  0  0  0  0  0  0  0  0
   27.2424  -20.2898  -10.2208 N   0  0  0  0  0  0  0  0  0  0  0  0
   27.2191  -20.4302   -8.8023 C   0  0  1  0  0  0  0  0  0  0  0  0
   28.3608  -19.7460   -8.1058 C   0  0  0  0  0  0  0  0  0  0  0  0
   28.2217  -19.7006   -6.6395 C   0  0  0  0  0  0  0  0  0  0  0  0
   28.6529  -20.7503   -5.8853 C   0  0  0  0  0  0  0  0  0  0  0  0
   28.5154  -20.6945   -4.5152 C   0  0  0  0  0  0  0  0  0  0  0  0
   27.9528  -19.6031   -3.8940 C   0  0  0  0  0  0  0  0  0  0  0  0
   27.5280  -18.5605   -4.6856 C   0  0  0  0  0  0  0  0  0  0  0  0
   27.6615  -18.6084   -6.0518 C   0  0  0  0  0  0  0  0  0  0  0  0
   25.8970  -20.0845   -8.2793 C   0  0  0  0  0  0  0  0  0  0  0  0
   25.4360  -18.9370   -8.4602 O   0  0  0  0  0  0  0  0  0  0  0  0
   20.7484  -21.5472  -11.6190 C   0  0  0  0  0  0  0  0  0  0  0  0
   21.2452  -20.5900  -10.2243 S   0  0  0  0  0  0  0  0  0  0  0  0
   22.4913  -21.2285   -9.1425 C   0  0  0  0  0  0  0  0  0  0  0  0
   22.8775  -20.2500   -8.0817 C   0  0  0  0  0  0  0  0  0  0  0  0
   23.7890  -20.7383   -7.0235 C   0  0  2  0  0  0  0  0  0  0  0  0
   25.1266  -21.0324   -7.5686 N   0  0  0  0  0  0  0  0  0  0  0  0
   23.2816  -21.9848   -6.3575 C   0  0  0  0  0  0  0  0  0  0  0  0
   23.9810  -23.1617   -6.2920 O   0  0  0  0  0  0  0  0  0  0  0  0
   22.1338  -21.9904   -5.8066 O   0  0  0  0  0  0  0  0  0  0  0  0
  2  1  1  0
  2  3  2  0
  4  3  1  0
  5  4  2  0
  6  7  1  0
  6  5  1  0
  7  8  1  6
  9 13  1  0
  9  7  1  0
 10  9  2  0
 11 12  2  0
 11  5  1  0
 12  2  1  0
 14 13  1  0
 14 15  1  1
 16 21  1  0
 16 15  1  0
 17 16  2  0
 18 19  2  0
 18 17  1  0
 19 20  1  0
 20 21  2  0
 22 23  2  0
 22 14  1  0
 24 25  1  0
 26 25  1  0
 27 26  1  0
 28 27  1  6
 28 29  1  0
 29 22  1  0
 30 28  1  0
 31 30  1  0
 32 30  2  0
M  END
$$$$
