YFM.pdb
     RDKit          3D

 32 33  0  0  1  0  0  0  0  0999 V2000
   21.0119  -17.1663  -20.3626 O   0  0  0  0  0  0  0  0  0  0  0  0
   21.6070  -17.9062  -19.3540 C   0  0  0  0  0  0  0  0  0  0  0  0
   21.0845  -19.1352  -19.0226 C   0  0  0  0  0  0  0  0  0  0  0  0
   21.6848  -19.8647  -18.0162 C   0  0  0  0  0  0  0  0  0  0  0  0
   22.7930  -19.4040  -17.3289 C   0  0  0  0  0  0  0  0  0  0  0  0
   23.4229  -20.2068  -16.2487 C   0  0  0  0  0  0  0  0  0  0  0  0
   24.8541  -20.4840  -16.6241 C   0  0  2  0  0  0  0  0  0  0  0  0
   24.9565  -21.2622  -17.8345 N   0  0  0  0  0  0  0  0  0  0  0  0
   25.6538  -21.0363  -15.5210 C   0  0  0  0  0  0  0  0  0  0  0  0
   25.5540  -22.2297  -15.1422 O   0  0  0  0  0  0  0  0  0  0  0  0
   23.2847  -18.1664  -17.6932 C   0  0  0  0  0  0  0  0  0  0  0  0
   22.7092  -17.4102  -18.6949 C   0  0  0  0  0  0  0  0  0  0  0  0
   26.5946  -20.2124  -14.8261 N   0  0  0  0  0  0  0  0  0  0  0  0
   27.3625  -20.6579  -13.7106 C   0  0  1  0  0  0  0  0  0  0  0  0
   28.7462  -20.0758  -13.6548 C   0  0  0  0  0  0  0  0  0  0  0  0
   29.5452  -20.5498  -12.5111 C   0  0  0  0  0  0  0  0  0  0  0  0
   29.6108  -19.8018  -11.3741 C   0  0  0  0  0  0  0  0  0  0  0  0
   30.3629  -20.2570  -10.3127 C   0  0  0  0  0  0  0  0  0  0  0  0
   31.0477  -21.4488  -10.3770 C   0  0  0  0  0  0  0  0  0  0  0  0
   30.9599  -22.1793  -11.5401 C   0  0  0  0  0  0  0  0  0  0  0  0
   30.2125  -21.7325  -12.6023 C   0  0  0  0  0  0  0  0  0  0  0  0
   26.5942  -20.5113  -12.4740 C   0  0  0  0  0  0  0  0  0  0  0  0
   26.0006  -19.4382  -12.2330 O   0  0  0  0  0  0  0  0  0  0  0  0
   28.6626  -19.7679   -6.8780 C   0  0  0  0  0  0  0  0  0  0  0  0
   26.9181  -19.5142   -6.8538 S   0  0  0  0  0  0  0  0  0  0  0  0
   25.8962  -20.4583   -7.9471 C   0  0  0  0  0  0  0  0  0  0  0  0
   26.5670  -20.7360   -9.2528 C   0  0  0  0  0  0  0  0  0  0  0  0
   25.7754  -21.4653  -10.2678 C   0  0  2  0  0  0  0  0  0  0  0  0
   26.5108  -21.5694  -11.5411 N   0  0  0  0  0  0  0  0  0  0  0  0
   24.4574  -20.8046  -10.5529 C   0  0  0  0  0  0  0  0  0  0  0  0
   24.3249  -19.5653  -11.1229 O   0  0  0  0  0  0  0  0  0  0  0  0
   23.3703  -21.4002  -10.2619 O   0  0  0  0  0  0  0  0  0  0  0  0
  2  1  1  0
  2  3  2  0
  4  3  1  0
  5  4  2  0
  6  7  1  0
  6  5  1  0
  7  8  1  6
  9 13  1  0
  9  7  1  0
 10  9  2  0
 11 12  2  0
 11  5  1  0
 12  2  1  0
 14 13  1  0
 14 15  1  1
 16 21  1  0
 16 15  1  0
 17 16  2  0
 18 19  2  0
 18 17  1  0
 19 20  1  0
 20 21  2  0
 22 23  2  0
 22 14  1  0
 24 25  1  0
 26 25  1  0
 27 26  1  0
 28 27  1  1
 28 29  1  0
 29 22  1  0
 30 28  1  0
 31 30  1  0
 32 30  2  0
M  END
$$$$
