YFM.pdb
     RDKit          3D

 32 33  0  0  1  0  0  0  0  0999 V2000
   29.7417  -16.4955  -20.7040 O   0  0  0  0  0  0  0  0  0  0  0  0
   28.9858  -17.2889  -19.8567 C   0  0  0  0  0  0  0  0  0  0  0  0
   28.5727  -16.7792  -18.6472 C   0  0  0  0  0  0  0  0  0  0  0  0
   27.8198  -17.5777  -17.8100 C   0  0  0  0  0  0  0  0  0  0  0  0
   27.4659  -18.8723  -18.1439 C   0  0  0  0  0  0  0  0  0  0  0  0
   26.6545  -19.7140  -17.2267 C   0  0  0  0  0  0  0  0  0  0  0  0
   27.5773  -20.3946  -16.2515 C   0  0  2  0  0  0  0  0  0  0  0  0
   28.3842  -21.4088  -16.8854 N   0  0  0  0  0  0  0  0  0  0  0  0
   26.8982  -20.8795  -15.0411 C   0  0  0  0  0  0  0  0  0  0  0  0
   26.3383  -22.0023  -14.9812 O   0  0  0  0  0  0  0  0  0  0  0  0
   27.9011  -19.3439  -19.3663 C   0  0  0  0  0  0  0  0  0  0  0  0
   28.6555  -18.5727  -20.2280 C   0  0  0  0  0  0  0  0  0  0  0  0
   26.8516  -20.0685  -13.8635 N   0  0  0  0  0  0  0  0  0  0  0  0
   26.1504  -20.4364  -12.6779 C   0  0  1  0  0  0  0  0  0  0  0  0
   26.7940  -19.9420  -11.4138 C   0  0  0  0  0  0  0  0  0  0  0  0
   28.0690  -20.6086  -11.0955 C   0  0  0  0  0  0  0  0  0  0  0  0
   28.2148  -21.2600   -9.9077 C   0  0  0  0  0  0  0  0  0  0  0  0
   29.4133  -21.8780   -9.6230 C   0  0  0  0  0  0  0  0  0  0  0  0
   30.4638  -21.8510  -10.5114 C   0  0  0  0  0  0  0  0  0  0  0  0
   30.2827  -21.1843  -11.7017 C   0  0  0  0  0  0  0  0  0  0  0  0
   29.0914  -20.5659  -11.9929 C   0  0  0  0  0  0  0  0  0  0  0  0
   24.7309  -20.1046  -12.8038 C   0  0  0  0  0  0  0  0  0  0  0  0
   24.3453  -19.3575  -13.7285 O   0  0  0  0  0  0  0  0  0  0  0  0
   19.5017  -24.1802  -15.7143 C   0  0  0  0  0  0  0  0  0  0  0  0
   20.9961  -23.7079  -14.9069 S   0  0  0  0  0  0  0  0  0  0  0  0
   20.9453  -22.4349  -13.6790 C   0  0  0  0  0  0  0  0  0  0  0  0
   22.3105  -21.9961  -13.2598 C   0  0  0  0  0  0  0  0  0  0  0  0
   22.3839  -20.9076  -12.2605 C   0  0  2  0  0  0  0  0  0  0  0  0
   23.7815  -20.6182  -11.8917 N   0  0  0  0  0  0  0  0  0  0  0  0
   21.6355  -21.2326  -10.9999 C   0  0  0  0  0  0  0  0  0  0  0  0
   20.3202  -20.9147  -10.7819 O   0  0  0  0  0  0  0  0  0  0  0  0
   22.2237  -21.8418  -10.0492 O   0  0  0  0  0  0  0  0  0  0  0  0
  2  1  1  0
  2  3  2  0
  4  3  1  0
  5  4  2  0
  6  7  1  0
  6  5  1  0
  7  8  1  6
  9 13  1  0
  9  7  1  0
 10  9  2  0
 11 12  2  0
 11  5  1  0
 12  2  1  0
 14 13  1  0
 14 15  1  1
 16 21  1  0
 16 15  1  0
 17 16  2  0
 18 19  2  0
 18 17  1  0
 19 20  1  0
 20 21  2  0
 22 23  2  0
 22 14  1  0
 24 25  1  0
 26 25  1  0
 27 26  1  0
 28 27  1  6
 28 29  1  0
 29 22  1  0
 30 28  1  0
 31 30  1  0
 32 30  2  0
M  END
$$$$
