YFM.pdb
     RDKit          3D

 32 33  0  0  1  0  0  0  0  0999 V2000
   23.0593   -1.0355  -14.8456 O   0  0  0  0  0  0  0  0  0  0  0  0
   22.0575   -1.9377  -14.5272 C   0  0  0  0  0  0  0  0  0  0  0  0
   20.7615   -1.4908  -14.4094 C   0  0  0  0  0  0  0  0  0  0  0  0
   19.7705   -2.3977  -14.0918 C   0  0  0  0  0  0  0  0  0  0  0  0
   20.0342   -3.7400  -13.8877 C   0  0  0  0  0  0  0  0  0  0  0  0
   18.9512   -4.6985  -13.5466 C   0  0  0  0  0  0  0  0  0  0  0  0
   18.7254   -5.6113  -14.7221 C   0  0  2  0  0  0  0  0  0  0  0  0
   18.4049   -4.8798  -15.9235 N   0  0  0  0  0  0  0  0  0  0  0  0
   17.7765   -6.6999  -14.4462 C   0  0  0  0  0  0  0  0  0  0  0  0
   16.5983   -6.6991  -14.8817 O   0  0  0  0  0  0  0  0  0  0  0  0
   21.3477   -4.1456  -14.0157 C   0  0  0  0  0  0  0  0  0  0  0  0
   22.3636   -3.2656  -14.3322 C   0  0  0  0  0  0  0  0  0  0  0  0
   18.1737   -7.8226  -13.6535 N   0  0  0  0  0  0  0  0  0  0  0  0
   17.3025   -8.8995  -13.3162 C   0  0  1  0  0  0  0  0  0  0  0  0
   18.0176  -10.1354  -12.8496 C   0  0  0  0  0  0  0  0  0  0  0  0
   17.1161  -11.2440  -12.4893 C   0  0  0  0  0  0  0  0  0  0  0  0
   16.8046  -11.4662  -11.1817 C   0  0  0  0  0  0  0  0  0  0  0  0
   15.9611  -12.5073  -10.8594 C   0  0  0  0  0  0  0  0  0  0  0  0
   15.4279  -13.3257  -11.8287 C   0  0  0  0  0  0  0  0  0  0  0  0
   15.7632  -13.0732  -13.1395 C   0  0  0  0  0  0  0  0  0  0  0  0
   16.6032  -12.0376  -13.4688 C   0  0  0  0  0  0  0  0  0  0  0  0
   16.2463   -8.4356  -12.4162 C   0  0  0  0  0  0  0  0  0  0  0  0
   16.5414   -7.7713  -11.3994 O   0  0  0  0  0  0  0  0  0  0  0  0
   10.1873   -3.9768  -11.6516 C   0  0  0  0  0  0  0  0  0  0  0  0
   11.5635   -4.8243  -12.3558 S   0  0  0  0  0  0  0  0  0  0  0  0
   12.0850   -6.3582  -11.6442 C   0  0  0  0  0  0  0  0  0  0  0  0
   13.2260   -6.9704  -12.3893 C   0  0  0  0  0  0  0  0  0  0  0  0
   13.7811   -8.2284  -11.8433 C   0  0  2  0  0  0  0  0  0  0  0  0
   14.8886   -8.7272  -12.6785 N   0  0  0  0  0  0  0  0  0  0  0  0
   12.7520   -9.3180  -11.7489 C   0  0  0  0  0  0  0  0  0  0  0  0
   11.8039   -9.3979  -10.7625 O   0  0  0  0  0  0  0  0  0  0  0  0
   12.7244  -10.2451  -12.6211 O   0  0  0  0  0  0  0  0  0  0  0  0
  2  1  1  0
  2  3  2  0
  4  3  1  0
  5  4  2  0
  6  7  1  0
  6  5  1  0
  7  8  1  6
  9 13  1  0
  9  7  1  0
 10  9  2  0
 11 12  2  0
 11  5  1  0
 12  2  1  0
 14 13  1  0
 14 15  1  1
 16 21  1  0
 16 15  1  0
 17 16  2  0
 18 19  2  0
 18 17  1  0
 19 20  1  0
 20 21  2  0
 22 23  2  0
 22 14  1  0
 24 25  1  0
 26 25  1  0
 27 26  1  0
 28 27  1  6
 28 29  1  0
 29 22  1  0
 30 28  1  0
 31 30  1  0
 32 30  2  0
M  END
$$$$
