YFM.pdb
     RDKit          3D

 32 33  0  0  1  0  0  0  0  0999 V2000
   27.2485  -14.2553  -22.4063 O   0  0  0  0  0  0  0  0  0  0  0  0
   26.8710  -15.2802  -21.5541 C   0  0  0  0  0  0  0  0  0  0  0  0
   26.7578  -15.0278  -20.2062 C   0  0  0  0  0  0  0  0  0  0  0  0
   26.3811  -16.0556  -19.3655 C   0  0  0  0  0  0  0  0  0  0  0  0
   26.1133  -17.3305  -19.8300 C   0  0  0  0  0  0  0  0  0  0  0  0
   25.7091  -18.4220  -18.9062 C   0  0  0  0  0  0  0  0  0  0  0  0
   26.9410  -18.9703  -18.2373 C   0  0  2  0  0  0  0  0  0  0  0  0
   27.7991  -19.6650  -19.1660 N   0  0  0  0  0  0  0  0  0  0  0  0
   26.6522  -19.7567  -17.0291 C   0  0  0  0  0  0  0  0  0  0  0  0
   26.2994  -20.9615  -17.0723 O   0  0  0  0  0  0  0  0  0  0  0  0
   26.2390  -17.5401  -21.1888 C   0  0  0  0  0  0  0  0  0  0  0  0
   26.6137  -16.5350  -22.0583 C   0  0  0  0  0  0  0  0  0  0  0  0
   26.7664  -19.1610  -15.7335 N   0  0  0  0  0  0  0  0  0  0  0  0
   26.4326  -19.8343  -14.5220 C   0  0  1  0  0  0  0  0  0  0  0  0
   27.1146  -19.2721  -13.3073 C   0  0  0  0  0  0  0  0  0  0  0  0
   26.7075  -19.9151  -12.0455 C   0  0  0  0  0  0  0  0  0  0  0  0
   25.7833  -19.3129  -11.2456 C   0  0  0  0  0  0  0  0  0  0  0  0
   25.4130  -19.9253  -10.0679 C   0  0  0  0  0  0  0  0  0  0  0  0
   25.9559  -21.1298   -9.6834 C   0  0  0  0  0  0  0  0  0  0  0  0
   26.8865  -21.7105  -10.5147 C   0  0  0  0  0  0  0  0  0  0  0  0
   27.2609  -21.1066  -11.6901 C   0  0  0  0  0  0  0  0  0  0  0  0
   24.9806  -19.9625  -14.3955 C   0  0  0  0  0  0  0  0  0  0  0  0
   24.2666  -18.9378  -14.3471 O   0  0  0  0  0  0  0  0  0  0  0  0
   20.1958  -26.1090  -12.8027 C   0  0  0  0  0  0  0  0  0  0  0  0
   21.2184  -25.1362  -13.8592 S   0  0  0  0  0  0  0  0  0  0  0  0
   21.5896  -23.4683  -13.3998 C   0  0  0  0  0  0  0  0  0  0  0  0
   22.5026  -22.8007  -14.3758 C   0  0  0  0  0  0  0  0  0  0  0  0
   22.9308  -21.4217  -14.0533 C   0  0  2  0  0  0  0  0  0  0  0  0
   24.3670  -21.2337  -14.3269 N   0  0  0  0  0  0  0  0  0  0  0  0
   22.6883  -21.0659  -12.6147 C   0  0  0  0  0  0  0  0  0  0  0  0
   21.5524  -20.4522  -12.1545 O   0  0  0  0  0  0  0  0  0  0  0  0
   23.5687  -21.3343  -11.7351 O   0  0  0  0  0  0  0  0  0  0  0  0
  2  1  1  0
  2  3  2  0
  4  3  1  0
  5  4  2  0
  6  7  1  0
  6  5  1  0
  7  8  1  6
  9 13  1  0
  9  7  1  0
 10  9  2  0
 11 12  2  0
 11  5  1  0
 12  2  1  0
 14 13  1  0
 14 15  1  1
 16 21  1  0
 16 15  1  0
 17 16  2  0
 18 19  2  0
 18 17  1  0
 19 20  1  0
 20 21  2  0
 22 23  2  0
 22 14  1  0
 24 25  1  0
 26 25  1  0
 27 26  1  0
 28 27  1  1
 28 29  1  0
 29 22  1  0
 30 28  1  0
 31 30  1  0
 32 30  2  0
M  END
$$$$
