YFM.pdb
     RDKit          3D

 32 33  0  0  1  0  0  0  0  0999 V2000
   21.8636  -13.7345  -22.8108 O   0  0  0  0  0  0  0  0  0  0  0  0
   21.6066  -12.6573  -21.9786 C   0  0  0  0  0  0  0  0  0  0  0  0
   20.4687  -12.6606  -21.2050 C   0  0  0  0  0  0  0  0  0  0  0  0
   20.2217  -11.5826  -20.3790 C   0  0  0  0  0  0  0  0  0  0  0  0
   21.0777  -10.4990  -20.3015 C   0  0  0  0  0  0  0  0  0  0  0  0
   20.7914   -9.3490  -19.4050 C   0  0  0  0  0  0  0  0  0  0  0  0
   21.5932   -9.5100  -18.1411 C   0  0  2  0  0  0  0  0  0  0  0  0
   21.3215  -10.7644  -17.4823 N   0  0  0  0  0  0  0  0  0  0  0  0
   21.4976   -8.3566  -17.2345 C   0  0  0  0  0  0  0  0  0  0  0  0
   20.5066   -8.1611  -16.4879 O   0  0  0  0  0  0  0  0  0  0  0  0
   22.2073  -10.5365  -21.0944 C   0  0  0  0  0  0  0  0  0  0  0  0
   22.4853  -11.5986  -21.9318 C   0  0  0  0  0  0  0  0  0  0  0  0
   22.5559   -7.3960  -17.1715 N   0  0  0  0  0  0  0  0  0  0  0  0
   22.5310   -6.2470  -16.3279 C   0  0  1  0  0  0  0  0  0  0  0  0
   23.4391   -6.3496  -15.1356 C   0  0  0  0  0  0  0  0  0  0  0  0
   23.0333   -7.3823  -14.1660 C   0  0  0  0  0  0  0  0  0  0  0  0
   23.5094   -8.6529  -14.2906 C   0  0  0  0  0  0  0  0  0  0  0  0
   23.1205   -9.6087  -13.3771 C   0  0  0  0  0  0  0  0  0  0  0  0
   22.2632   -9.3074  -12.3437 C   0  0  0  0  0  0  0  0  0  0  0  0
   21.8013   -8.0145  -12.2473 C   0  0  0  0  0  0  0  0  0  0  0  0
   22.1842   -7.0562  -13.1536 C   0  0  0  0  0  0  0  0  0  0  0  0
   22.7090   -5.0305  -17.1211 C   0  0  0  0  0  0  0  0  0  0  0  0
   23.2843   -5.0880  -18.2292 O   0  0  0  0  0  0  0  0  0  0  0  0
   20.4213   -0.8079  -22.4465 C   0  0  0  0  0  0  0  0  0  0  0  0
   20.6483   -2.0562  -21.2223 S   0  0  0  0  0  0  0  0  0  0  0  0
   21.4290   -1.6293  -19.6928 C   0  0  0  0  0  0  0  0  0  0  0  0
   21.5871   -2.8077  -18.7882 C   0  0  0  0  0  0  0  0  0  0  0  0
   22.2318   -2.5623  -17.4794 C   0  0  2  0  0  0  0  0  0  0  0  0
   22.2383   -3.7830  -16.6531 N   0  0  0  0  0  0  0  0  0  0  0  0
   21.5463   -1.4813  -16.6942 C   0  0  0  0  0  0  0  0  0  0  0  0
   21.9289   -0.1653  -16.7000 O   0  0  0  0  0  0  0  0  0  0  0  0
   20.5419   -1.7636  -15.9646 O   0  0  0  0  0  0  0  0  0  0  0  0
  2  1  1  0
  2  3  2  0
  4  3  1  0
  5  4  2  0
  6  7  1  0
  6  5  1  0
  7  8  1  1
  9 13  1  0
  9  7  1  0
 10  9  2  0
 11 12  2  0
 11  5  1  0
 12  2  1  0
 14 13  1  0
 14 15  1  1
 16 21  1  0
 16 15  1  0
 17 16  2  0
 18 19  2  0
 18 17  1  0
 19 20  1  0
 20 21  2  0
 22 23  2  0
 22 14  1  0
 24 25  1  0
 26 25  1  0
 27 26  1  0
 28 27  1  6
 28 29  1  0
 29 22  1  0
 30 28  1  0
 31 30  1  0
 32 30  2  0
M  END
$$$$
