YFM.pdb
     RDKit          3D

 32 33  0  0  1  0  0  0  0  0999 V2000
   17.1014  -10.3566  -20.1361 O   0  0  0  0  0  0  0  0  0  0  0  0
   17.0389  -10.0925  -18.7777 C   0  0  0  0  0  0  0  0  0  0  0  0
   16.7826  -11.1230  -17.9026 C   0  0  0  0  0  0  0  0  0  0  0  0
   16.7224  -10.8495  -16.5509 C   0  0  0  0  0  0  0  0  0  0  0  0
   16.9105   -9.5762  -16.0450 C   0  0  0  0  0  0  0  0  0  0  0  0
   16.8412   -9.3051  -14.5856 C   0  0  0  0  0  0  0  0  0  0  0  0
   18.2345   -9.0560  -14.0733 C   0  0  2  0  0  0  0  0  0  0  0  0
   19.0887  -10.2062  -14.2432 N   0  0  0  0  0  0  0  0  0  0  0  0
   18.2696   -8.5159  -12.7064 C   0  0  0  0  0  0  0  0  0  0  0  0
   18.2015   -9.2462  -11.6866 O   0  0  0  0  0  0  0  0  0  0  0  0
   17.1651   -8.5721  -16.9577 C   0  0  0  0  0  0  0  0  0  0  0  0
   17.2322   -8.8101  -18.3161 C   0  0  0  0  0  0  0  0  0  0  0  0
   18.3852   -7.1068  -12.4878 N   0  0  0  0  0  0  0  0  0  0  0  0
   18.5140   -6.5153  -11.1971 C   0  0  1  0  0  0  0  0  0  0  0  0
   19.8706   -5.9272  -10.9316 C   0  0  0  0  0  0  0  0  0  0  0  0
   20.4106   -5.1452  -12.0577 C   0  0  0  0  0  0  0  0  0  0  0  0
   20.0568   -3.8378  -12.2060 C   0  0  0  0  0  0  0  0  0  0  0  0
   20.5687   -3.1190  -13.2646 C   0  0  0  0  0  0  0  0  0  0  0  0
   21.4281   -3.6929  -14.1733 C   0  0  0  0  0  0  0  0  0  0  0  0
   21.7648   -5.0152  -13.9938 C   0  0  0  0  0  0  0  0  0  0  0  0
   21.2589   -5.7384  -12.9414 C   0  0  0  0  0  0  0  0  0  0  0  0
   17.3988   -5.6029  -10.9428 C   0  0  0  0  0  0  0  0  0  0  0  0
   16.8990   -4.9522  -11.8855 O   0  0  0  0  0  0  0  0  0  0  0  0
   11.9641   -3.6256   -5.3623 C   0  0  0  0  0  0  0  0  0  0  0  0
   13.3426   -4.4989   -6.0298 S   0  0  0  0  0  0  0  0  0  0  0  0
   14.0526   -3.9495   -7.5546 C   0  0  0  0  0  0  0  0  0  0  0  0
   15.1530   -4.8447   -8.0232 C   0  0  0  0  0  0  0  0  0  0  0  0
   15.7769   -4.5110   -9.3225 C   0  0  2  0  0  0  0  0  0  0  0  0
   16.8731   -5.4438   -9.6408 N   0  0  0  0  0  0  0  0  0  0  0  0
   16.3381   -3.1184   -9.3503 C   0  0  0  0  0  0  0  0  0  0  0  0
   17.6351   -2.8048   -9.0374 O   0  0  0  0  0  0  0  0  0  0  0  0
   15.5949   -2.1388   -9.6803 O   0  0  0  0  0  0  0  0  0  0  0  0
  2  1  1  0
  2  3  2  0
  4  3  1  0
  5  4  2  0
  6  7  1  0
  6  5  1  0
  7  8  1  1
  9 13  1  0
  9  7  1  0
 10  9  2  0
 11 12  2  0
 11  5  1  0
 12  2  1  0
 14 13  1  0
 14 15  1  6
 16 21  1  0
 16 15  1  0
 17 16  2  0
 18 19  2  0
 18 17  1  0
 19 20  1  0
 20 21  2  0
 22 23  2  0
 22 14  1  0
 24 25  1  0
 26 25  1  0
 27 26  1  0
 28 27  1  1
 28 29  1  0
 29 22  1  0
 30 28  1  0
 31 30  1  0
 32 30  2  0
M  END
$$$$
