FEV.pdb
     RDKit          3D

 28 28  0  0  1  0  0  0  0  0999 V2000
   28.9807  -20.3462  -13.5223 N   0  0  0  0  0  0  0  0  0  0  0  0
   27.9081  -20.8776  -12.7089 C   0  0  1  0  0  0  0  0  0  0  0  0
   28.1303  -20.3626  -11.3013 C   0  0  0  0  0  0  0  0  0  0  0  0
   29.3126  -21.0089  -10.6762 C   0  0  0  0  0  0  0  0  0  0  0  0
   30.5888  -20.6569  -11.0703 C   0  0  0  0  0  0  0  0  0  0  0  0
   31.7185  -21.2217  -10.5265 C   0  0  0  0  0  0  0  0  0  0  0  0
   31.5936  -22.1732   -9.5541 C   0  0  0  0  0  0  0  0  0  0  0  0
   30.3328  -22.5605   -9.1246 C   0  0  0  0  0  0  0  0  0  0  0  0
   29.2053  -21.9716   -9.6929 C   0  0  0  0  0  0  0  0  0  0  0  0
   26.6214  -20.4407  -13.2696 C   0  0  0  0  0  0  0  0  0  0  0  0
   26.4102  -19.2096  -13.4037 O   0  0  0  0  0  0  0  0  0  0  0  0
   25.5982  -21.3579  -13.6696 N   0  0  0  0  0  0  0  0  0  0  0  0
   24.3052  -20.8655  -14.0055 C   0  0  1  0  0  0  0  0  0  0  0  0
   23.9116  -21.2229  -15.4406 C   0  0  0  0  0  0  0  0  0  0  0  0
   22.5637  -20.6770  -15.7918 C   0  0  0  0  0  0  0  0  0  0  0  0
   22.2173  -21.1090  -17.1681 C   0  0  0  0  0  0  0  0  0  0  0  0
   22.9667  -21.8863  -17.8121 O   0  0  0  0  0  0  0  0  0  0  0  0
   23.2550  -21.3064  -13.0410 C   0  0  0  0  0  0  0  0  0  0  0  0
   23.4947  -22.0768  -12.0927 O   0  0  0  0  0  0  0  0  0  0  0  0
   21.0588  -20.6855  -17.8188 O   0  0  0  0  0  0  0  0  0  0  0  0
   21.3207  -18.7774  -10.9891 C   0  0  0  0  0  0  0  0  0  0  0  0
   21.3017  -20.2816  -10.9487 C   0  0  1  0  0  0  0  0  0  0  0  0
   20.1819  -20.6520   -9.9619 C   0  0  0  0  0  0  0  0  0  0  0  0
   20.8939  -20.8365  -12.2708 C   0  0  2  0  0  0  0  0  0  0  0  0
   21.9497  -20.8090  -13.2443 N   0  0  0  0  0  0  0  0  0  0  0  0
   19.5742  -20.3804  -12.7788 C   0  0  0  0  0  0  0  0  0  0  0  0
   19.3804  -19.4797  -13.6196 O   0  0  0  0  0  0  0  0  0  0  0  0
   18.4258  -20.9953  -12.2929 O   0  0  0  0  0  0  0  0  0  0  0  0
  2  1  1  6
  3  2  1  0
  4  3  1  0
  4  9  2  0
  5  4  1  0
  6  5  2  0
  6  7  1  0
  7  8  2  0
  8  9  1  0
 10  2  1  0
 11 10  2  0
 12 10  1  0
 13 18  1  0
 13 12  1  0
 13 14  1  6
 15 14  1  0
 16 15  1  0
 17 16  2  0
 18 19  2  0
 20 16  1  0
 22 21  1  6
 22 24  1  0
 23 22  1  0
 24 25  1  6
 25 18  1  0
 26 28  1  0
 26 24  1  0
 27 26  2  0
M  END
$$$$
