FEV.pdb
     RDKit          3D

 28 28  0  0  1  0  0  0  0  0999 V2000
   18.2056  -13.5830    8.7751 N   0  0  0  0  0  0  0  0  0  0  0  0
   18.0768  -14.5167    7.6769 C   0  0  1  0  0  0  0  0  0  0  0  0
   19.4107  -14.5335    6.9585 C   0  0  0  0  0  0  0  0  0  0  0  0
   19.6654  -13.2402    6.2739 C   0  0  0  0  0  0  0  0  0  0  0  0
   18.8622  -12.8370    5.2250 C   0  0  0  0  0  0  0  0  0  0  0  0
   19.0514  -11.6510    4.5553 C   0  0  0  0  0  0  0  0  0  0  0  0
   20.0720  -10.8229    4.9287 C   0  0  0  0  0  0  0  0  0  0  0  0
   20.9061  -11.1839    5.9766 C   0  0  0  0  0  0  0  0  0  0  0  0
   20.6913  -12.3915    6.6376 C   0  0  0  0  0  0  0  0  0  0  0  0
   17.7108  -15.8361    8.2117 C   0  0  0  0  0  0  0  0  0  0  0  0
   18.1155  -16.1545    9.3575 O   0  0  0  0  0  0  0  0  0  0  0  0
   16.9128  -16.7742    7.4828 N   0  0  0  0  0  0  0  0  0  0  0  0
   16.7516  -18.0975    7.9827 C   0  0  1  0  0  0  0  0  0  0  0  0
   15.4083  -18.7049    7.5718 C   0  0  0  0  0  0  0  0  0  0  0  0
   15.1829  -20.0312    8.2263 C   0  0  0  0  0  0  0  0  0  0  0  0
   14.4090  -19.8225    9.4746 C   0  0  0  0  0  0  0  0  0  0  0  0
   14.8633  -20.1879   10.5884 O   0  0  0  0  0  0  0  0  0  0  0  0
   17.8802  -18.9965    7.6011 C   0  0  0  0  0  0  0  0  0  0  0  0
   18.2834  -19.1076    6.4284 O   0  0  0  0  0  0  0  0  0  0  0  0
   13.1521  -19.2183    9.4866 O   0  0  0  0  0  0  0  0  0  0  0  0
   21.1943  -18.8768    8.7936 C   0  0  0  0  0  0  0  0  0  0  0  0
   20.8128  -20.2869    9.1553 C   0  0  1  0  0  0  0  0  0  0  0  0
   20.4858  -20.2515   10.6576 C   0  0  0  0  0  0  0  0  0  0  0  0
   19.5537  -20.6834    8.4629 C   0  0  2  0  0  0  0  0  0  0  0  0
   18.4900  -19.7341    8.6386 N   0  0  0  0  0  0  0  0  0  0  0  0
   19.1481  -22.1028    8.6315 C   0  0  0  0  0  0  0  0  0  0  0  0
   18.0759  -22.5085    9.1231 O   0  0  0  0  0  0  0  0  0  0  0  0
   20.0223  -23.0988    8.2112 O   0  0  0  0  0  0  0  0  0  0  0  0
  2  1  1  1
  3  2  1  0
  4  3  1  0
  4  9  2  0
  5  4  1  0
  6  5  2  0
  6  7  1  0
  7  8  2  0
  8  9  1  0
 10  2  1  0
 11 10  2  0
 12 10  1  0
 13 18  1  0
 13 12  1  0
 13 14  1  6
 15 14  1  0
 16 15  1  0
 17 16  2  0
 18 19  2  0
 20 16  1  0
 22 21  1  6
 22 24  1  0
 23 22  1  0
 24 25  1  1
 25 18  1  0
 26 28  1  0
 26 24  1  0
 27 26  2  0
M  END
$$$$
