FEV.pdb
     RDKit          3D

 28 28  0  0  1  0  0  0  0  0999 V2000
   28.9111    0.8888  -15.7251 N   0  0  0  0  0  0  0  0  0  0  0  0
   28.8757    0.9214  -14.2787 C   0  0  1  0  0  0  0  0  0  0  0  0
   30.2708    0.5756  -13.7993 C   0  0  0  0  0  0  0  0  0  0  0  0
   30.6132   -0.8332  -14.1225 C   0  0  0  0  0  0  0  0  0  0  0  0
   29.7542   -1.8568  -13.7727 C   0  0  0  0  0  0  0  0  0  0  0  0
   30.0197   -3.1780  -14.0466 C   0  0  0  0  0  0  0  0  0  0  0  0
   31.1770   -3.5121  -14.6911 C   0  0  0  0  0  0  0  0  0  0  0  0
   32.0718   -2.5195  -15.0629 C   0  0  0  0  0  0  0  0  0  0  0  0
   31.7774   -1.1889  -14.7729 C   0  0  0  0  0  0  0  0  0  0  0  0
   28.4472    2.2576  -13.8410 C   0  0  0  0  0  0  0  0  0  0  0  0
   28.5329    3.2131  -14.6522 O   0  0  0  0  0  0  0  0  0  0  0  0
   27.9361    2.5174  -12.5297 N   0  0  0  0  0  0  0  0  0  0  0  0
   27.5279    3.8366  -12.1831 C   0  0  1  0  0  0  0  0  0  0  0  0
   26.0838    4.1182  -12.6045 C   0  0  0  0  0  0  0  0  0  0  0  0
   25.7176    5.5519  -12.3836 C   0  0  0  0  0  0  0  0  0  0  0  0
   24.3052    5.7523  -12.7908 C   0  0  0  0  0  0  0  0  0  0  0  0
   23.5344    4.7740  -12.9620 O   0  0  0  0  0  0  0  0  0  0  0  0
   27.7269    4.1369  -10.7348 C   0  0  0  0  0  0  0  0  0  0  0  0
   27.4221    3.3331   -9.8341 O   0  0  0  0  0  0  0  0  0  0  0  0
   23.7576    7.0169  -13.0044 O   0  0  0  0  0  0  0  0  0  0  0  0
   31.0134    5.3905   -9.7373 C   0  0  0  0  0  0  0  0  0  0  0  0
   30.0705    6.3265   -9.0303 C   0  0  1  0  0  0  0  0  0  0  0  0
   30.0876    7.6257   -9.8530 C   0  0  0  0  0  0  0  0  0  0  0  0
   28.6736    5.8101   -9.0937 C   0  0  2  0  0  0  0  0  0  0  0  0
   28.2856    5.3924  -10.4122 N   0  0  0  0  0  0  0  0  0  0  0  0
   27.6556    6.6236   -8.3798 C   0  0  0  0  0  0  0  0  0  0  0  0
   26.7097    7.2448   -8.9043 O   0  0  0  0  0  0  0  0  0  0  0  0
   27.7346    6.7222   -6.9952 O   0  0  0  0  0  0  0  0  0  0  0  0
  2  1  1  6
  3  2  1  0
  4  3  1  0
  4  9  2  0
  5  4  1  0
  6  5  2  0
  6  7  1  0
  7  8  2  0
  8  9  1  0
 10  2  1  0
 11 10  2  0
 12 10  1  0
 13 18  1  0
 13 12  1  0
 13 14  1  1
 15 14  1  0
 16 15  1  0
 17 16  2  0
 18 19  2  0
 20 16  1  0
 22 21  1  6
 22 24  1  0
 23 22  1  0
 24 25  1  6
 25 18  1  0
 26 28  1  0
 26 24  1  0
 27 26  2  0
M  END
$$$$
