FEV.pdb
     RDKit          3D

 28 28  0  0  1  0  0  0  0  0999 V2000
   22.9721  -11.9962  -18.7708 N   0  0  0  0  0  0  0  0  0  0  0  0
   21.7615  -11.2226  -18.9449 C   0  0  1  0  0  0  0  0  0  0  0  0
   20.6395  -12.0168  -18.3077 C   0  0  0  0  0  0  0  0  0  0  0  0
   20.2939  -13.2061  -19.1277 C   0  0  0  0  0  0  0  0  0  0  0  0
   19.6999  -13.0506  -20.3651 C   0  0  0  0  0  0  0  0  0  0  0  0
   19.3586  -14.1148  -21.1663 C   0  0  0  0  0  0  0  0  0  0  0  0
   19.6098  -15.3875  -20.7376 C   0  0  0  0  0  0  0  0  0  0  0  0
   20.2049  -15.5952  -19.5019 C   0  0  0  0  0  0  0  0  0  0  0  0
   20.5403  -14.4985  -18.7107 C   0  0  0  0  0  0  0  0  0  0  0  0
   21.9420   -9.9049  -18.3189 C   0  0  0  0  0  0  0  0  0  0  0  0
   22.5974   -9.8312  -17.2496 O   0  0  0  0  0  0  0  0  0  0  0  0
   21.4031   -8.7015  -18.8752 N   0  0  0  0  0  0  0  0  0  0  0  0
   21.6357   -7.4589  -18.2203 C   0  0  1  0  0  0  0  0  0  0  0  0
   21.3565   -6.2669  -19.1387 C   0  0  0  0  0  0  0  0  0  0  0  0
   21.8027   -4.9805  -18.5186 C   0  0  0  0  0  0  0  0  0  0  0  0
   21.4924   -3.8684  -19.4503 C   0  0  0  0  0  0  0  0  0  0  0  0
   21.7960   -2.6816  -19.1677 O   0  0  0  0  0  0  0  0  0  0  0  0
   20.8766   -7.3334  -16.9414 C   0  0  0  0  0  0  0  0  0  0  0  0
   19.7680   -7.8714  -16.7628 O   0  0  0  0  0  0  0  0  0  0  0  0
   20.8561   -4.0700  -20.6747 O   0  0  0  0  0  0  0  0  0  0  0  0
   22.0736   -8.5474  -13.6516 C   0  0  0  0  0  0  0  0  0  0  0  0
   20.7718   -7.8615  -13.9668 C   0  0  1  0  0  0  0  0  0  0  0  0
   20.0941   -7.6215  -12.6073 C   0  0  0  0  0  0  0  0  0  0  0  0
   21.0180   -6.5139  -14.5545 C   0  0  2  0  0  0  0  0  0  0  0  0
   21.4714   -6.5665  -15.9165 N   0  0  0  0  0  0  0  0  0  0  0  0
   21.7668   -5.5642  -13.6912 C   0  0  0  0  0  0  0  0  0  0  0  0
   22.8385   -4.9952  -13.9799 O   0  0  0  0  0  0  0  0  0  0  0  0
   21.2515   -5.2577  -12.4368 O   0  0  0  0  0  0  0  0  0  0  0  0
  2  1  1  1
  3  2  1  0
  4  3  1  0
  4  9  2  0
  5  4  1  0
  6  5  2  0
  6  7  1  0
  7  8  2  0
  8  9  1  0
 10  2  1  0
 11 10  2  0
 12 10  1  0
 13 18  1  0
 13 12  1  0
 13 14  1  6
 15 14  1  0
 16 15  1  0
 17 16  2  0
 18 19  2  0
 20 16  1  0
 22 21  1  1
 22 24  1  0
 23 22  1  0
 24 25  1  6
 25 18  1  0
 26 28  1  0
 26 24  1  0
 27 26  2  0
M  END
$$$$
