FEV.pdb
     RDKit          3D

 28 28  0  0  1  0  0  0  0  0999 V2000
   28.4173  -20.4894   -9.1623 N   0  0  0  0  0  0  0  0  0  0  0  0
   27.0207  -20.6901   -8.8405 C   0  0  1  0  0  0  0  0  0  0  0  0
   26.6631  -19.6633   -7.7852 C   0  0  0  0  0  0  0  0  0  0  0  0
   27.5670  -19.7665   -6.6111 C   0  0  0  0  0  0  0  0  0  0  0  0
   28.1888  -18.6398   -6.1092 C   0  0  0  0  0  0  0  0  0  0  0  0
   29.0347  -18.6763   -5.0257 C   0  0  0  0  0  0  0  0  0  0  0  0
   29.2830  -19.8682   -4.4059 C   0  0  0  0  0  0  0  0  0  0  0  0
   28.6821  -21.0279   -4.8730 C   0  0  0  0  0  0  0  0  0  0  0  0
   27.8293  -20.9618   -5.9728 C   0  0  0  0  0  0  0  0  0  0  0  0
   26.2214  -20.5382  -10.0647 C   0  0  0  0  0  0  0  0  0  0  0  0
   25.8469  -19.3869  -10.4002 O   0  0  0  0  0  0  0  0  0  0  0  0
   25.8512  -21.6460  -10.8917 N   0  0  0  0  0  0  0  0  0  0  0  0
   25.0904  -21.4176  -12.0733 C   0  0  1  0  0  0  0  0  0  0  0  0
   25.6206  -22.2249  -13.2604 C   0  0  0  0  0  0  0  0  0  0  0  0
   25.5305  -21.4483  -14.5360 C   0  0  0  0  0  0  0  0  0  0  0  0
   24.4064  -21.9836  -15.3427 C   0  0  0  0  0  0  0  0  0  0  0  0
   24.3747  -23.1913  -15.6903 O   0  0  0  0  0  0  0  0  0  0  0  0
   23.6318  -21.6628  -11.8730 C   0  0  0  0  0  0  0  0  0  0  0  0
   23.1961  -22.6431  -11.2410 O   0  0  0  0  0  0  0  0  0  0  0  0
   23.3355  -21.1919  -15.7565 O   0  0  0  0  0  0  0  0  0  0  0  0
   21.3748  -19.1826  -10.4923 C   0  0  0  0  0  0  0  0  0  0  0  0
   20.6964  -19.5595  -11.7816 C   0  0  1  0  0  0  0  0  0  0  0  0
   21.0179  -18.4203  -12.7634 C   0  0  0  0  0  0  0  0  0  0  0  0
   21.3089  -20.7912  -12.3558 C   0  0  2  0  0  0  0  0  0  0  0  0
   22.7415  -20.7239  -12.4370 N   0  0  0  0  0  0  0  0  0  0  0  0
   20.6467  -21.3304  -13.5717 C   0  0  0  0  0  0  0  0  0  0  0  0
   19.4511  -21.6726  -13.6683 O   0  0  0  0  0  0  0  0  0  0  0  0
   21.4017  -21.4797  -14.7296 O   0  0  0  0  0  0  0  0  0  0  0  0
  2  1  1  6
  3  2  1  0
  4  3  1  0
  4  9  2  0
  5  4  1  0
  6  5  2  0
  6  7  1  0
  7  8  2  0
  8  9  1  0
 10  2  1  0
 11 10  2  0
 12 10  1  0
 13 18  1  0
 13 12  1  0
 13 14  1  6
 15 14  1  0
 16 15  1  0
 17 16  2  0
 18 19  2  0
 20 16  1  0
 22 21  1  1
 22 24  1  0
 23 22  1  0
 24 25  1  6
 25 18  1  0
 26 28  1  0
 26 24  1  0
 27 26  2  0
M  END
$$$$
