FEV.pdb
     RDKit          3D

 28 28  0  0  1  0  0  0  0  0999 V2000
   27.1364  -18.0766   -7.8167 N   0  0  0  0  0  0  0  0  0  0  0  0
   27.1642  -19.5048   -8.0486 C   0  0  1  0  0  0  0  0  0  0  0  0
   26.6608  -20.1637   -6.7805 C   0  0  0  0  0  0  0  0  0  0  0  0
   27.6683  -20.0699   -5.6931 C   0  0  0  0  0  0  0  0  0  0  0  0
   28.8449  -20.7894   -5.7694 C   0  0  0  0  0  0  0  0  0  0  0  0
   29.8121  -20.7408   -4.7931 C   0  0  0  0  0  0  0  0  0  0  0  0
   29.6191  -19.9533   -3.6935 C   0  0  0  0  0  0  0  0  0  0  0  0
   28.4533  -19.2116   -3.5711 C   0  0  0  0  0  0  0  0  0  0  0  0
   27.4901  -19.2798   -4.5756 C   0  0  0  0  0  0  0  0  0  0  0  0
   26.3246  -19.8162   -9.2142 C   0  0  0  0  0  0  0  0  0  0  0  0
   25.3343  -19.0821   -9.4562 O   0  0  0  0  0  0  0  0  0  0  0  0
   26.5866  -20.9205  -10.0860 N   0  0  0  0  0  0  0  0  0  0  0  0
   25.8646  -21.0384  -11.3074 C   0  0  1  0  0  0  0  0  0  0  0  0
   26.3991  -22.1756  -12.1810 C   0  0  0  0  0  0  0  0  0  0  0  0
   25.7827  -22.1566  -13.5440 C   0  0  0  0  0  0  0  0  0  0  0  0
   26.5686  -21.2447  -14.4110 C   0  0  0  0  0  0  0  0  0  0  0  0
   26.0003  -20.3945  -15.1422 O   0  0  0  0  0  0  0  0  0  0  0  0
   24.3942  -21.1789  -11.0935 C   0  0  0  0  0  0  0  0  0  0  0  0
   23.9119  -21.8678  -10.1753 O   0  0  0  0  0  0  0  0  0  0  0  0
   27.9617  -21.2760  -14.4656 O   0  0  0  0  0  0  0  0  0  0  0  0
   21.5674  -19.5512  -14.1215 C   0  0  0  0  0  0  0  0  0  0  0  0
   21.5324  -19.2737  -12.6428 C   0  0  1  0  0  0  0  0  0  0  0  0
   20.0415  -19.2258  -12.2690 C   0  0  0  0  0  0  0  0  0  0  0  0
   22.1177  -20.4138  -11.8814 C   0  0  2  0  0  0  0  0  0  0  0  0
   23.5482  -20.4883  -11.9878 N   0  0  0  0  0  0  0  0  0  0  0  0
   21.4187  -21.7157  -12.0370 C   0  0  0  0  0  0  0  0  0  0  0  0
   20.4491  -22.1159  -11.3621 O   0  0  0  0  0  0  0  0  0  0  0  0
   21.8608  -22.5948  -13.0192 O   0  0  0  0  0  0  0  0  0  0  0  0
  2  1  1  1
  3  2  1  0
  4  3  1  0
  4  9  2  0
  5  4  1  0
  6  5  2  0
  6  7  1  0
  7  8  2  0
  8  9  1  0
 10  2  1  0
 11 10  2  0
 12 10  1  0
 13 18  1  0
 13 12  1  0
 13 14  1  1
 15 14  1  0
 16 15  1  0
 17 16  2  0
 18 19  2  0
 20 16  1  0
 22 21  1  6
 22 24  1  0
 23 22  1  0
 24 25  1  6
 25 18  1  0
 26 28  1  0
 26 24  1  0
 27 26  2  0
M  END
$$$$
