FEV.pdb
     RDKit          3D

 28 28  0  0  1  0  0  0  0  0999 V2000
   28.5503  -20.9071   -9.3089 N   0  0  0  0  0  0  0  0  0  0  0  0
   27.1540  -20.6947   -8.9930 C   0  0  1  0  0  0  0  0  0  0  0  0
   27.0813  -19.4305   -8.1610 C   0  0  0  0  0  0  0  0  0  0  0  0
   27.8044  -19.5954   -6.8740 C   0  0  0  0  0  0  0  0  0  0  0  0
   28.9707  -18.8948   -6.6354 C   0  0  0  0  0  0  0  0  0  0  0  0
   29.6810  -19.0082   -5.4634 C   0  0  0  0  0  0  0  0  0  0  0  0
   29.2299  -19.8443   -4.4816 C   0  0  0  0  0  0  0  0  0  0  0  0
   28.0632  -20.5695   -4.6741 C   0  0  0  0  0  0  0  0  0  0  0  0
   27.3635  -20.4352   -5.8714 C   0  0  0  0  0  0  0  0  0  0  0  0
   26.3916  -20.5869  -10.2452 C   0  0  0  0  0  0  0  0  0  0  0  0
   26.7060  -19.6894  -11.0660 O   0  0  0  0  0  0  0  0  0  0  0  0
   25.3059  -21.4610  -10.5698 N   0  0  0  0  0  0  0  0  0  0  0  0
   24.6227  -21.3028  -11.8089 C   0  0  1  0  0  0  0  0  0  0  0  0
   24.9304  -22.4433  -12.7818 C   0  0  0  0  0  0  0  0  0  0  0  0
   24.4638  -22.1237  -14.1669 C   0  0  0  0  0  0  0  0  0  0  0  0
   25.6272  -21.6765  -14.9715 C   0  0  0  0  0  0  0  0  0  0  0  0
   26.7243  -22.2882  -14.9214 O   0  0  0  0  0  0  0  0  0  0  0  0
   23.1499  -21.1356  -11.6348 C   0  0  0  0  0  0  0  0  0  0  0  0
   22.5178  -21.6739  -10.7069 O   0  0  0  0  0  0  0  0  0  0  0  0
   25.5738  -20.5690  -15.8174 O   0  0  0  0  0  0  0  0  0  0  0  0
   21.6347  -17.6623  -12.6072 C   0  0  0  0  0  0  0  0  0  0  0  0
   20.7297  -18.7281  -13.1639 C   0  0  1  0  0  0  0  0  0  0  0  0
   21.0651  -18.8103  -14.6625 C   0  0  0  0  0  0  0  0  0  0  0  0
   21.0700  -20.0593  -12.5859 C   0  0  2  0  0  0  0  0  0  0  0  0
   22.4812  -20.3277  -12.5795 N   0  0  0  0  0  0  0  0  0  0  0  0
   20.2284  -21.1935  -13.0474 C   0  0  0  0  0  0  0  0  0  0  0  0
   20.5590  -22.0667  -13.8745 O   0  0  0  0  0  0  0  0  0  0  0  0
   18.9456  -21.3245  -12.5274 O   0  0  0  0  0  0  0  0  0  0  0  0
  2  1  1  6
  3  2  1  0
  4  3  1  0
  4  9  2  0
  5  4  1  0
  6  5  2  0
  6  7  1  0
  7  8  2  0
  8  9  1  0
 10  2  1  0
 11 10  2  0
 12 10  1  0
 13 18  1  0
 13 12  1  0
 13 14  1  6
 15 14  1  0
 16 15  1  0
 17 16  2  0
 18 19  2  0
 20 16  1  0
 22 21  1  1
 22 24  1  0
 23 22  1  0
 24 25  1  6
 25 18  1  0
 26 28  1  0
 26 24  1  0
 27 26  2  0
M  END
$$$$
