FEV.pdb
     RDKit          3D

 28 28  0  0  1  0  0  0  0  0999 V2000
   28.4964  -20.7414   -9.0938 N   0  0  0  0  0  0  0  0  0  0  0  0
   27.0851  -20.8254   -8.7846 C   0  0  1  0  0  0  0  0  0  0  0  0
   26.7883  -19.7198   -7.7920 C   0  0  0  0  0  0  0  0  0  0  0  0
   27.7139  -19.7804   -6.6320 C   0  0  0  0  0  0  0  0  0  0  0  0
   27.5381  -20.7351   -5.6493 C   0  0  0  0  0  0  0  0  0  0  0  0
   28.3637  -20.8375   -4.5544 C   0  0  0  0  0  0  0  0  0  0  0  0
   29.4074  -19.9671   -4.4150 C   0  0  0  0  0  0  0  0  0  0  0  0
   29.6253  -18.9904   -5.3756 C   0  0  0  0  0  0  0  0  0  0  0  0
   28.7731  -18.9095   -6.4749 C   0  0  0  0  0  0  0  0  0  0  0  0
   26.3141  -20.6849  -10.0282 C   0  0  0  0  0  0  0  0  0  0  0  0
   26.4705  -19.6476  -10.7195 O   0  0  0  0  0  0  0  0  0  0  0  0
   25.3924  -21.6794  -10.4859 N   0  0  0  0  0  0  0  0  0  0  0  0
   24.6679  -21.4639  -11.6925 C   0  0  1  0  0  0  0  0  0  0  0  0
   25.0181  -22.4997  -12.7633 C   0  0  0  0  0  0  0  0  0  0  0  0
   24.3740  -22.1734  -14.0736 C   0  0  0  0  0  0  0  0  0  0  0  0
   25.1581  -21.1034  -14.7379 C   0  0  0  0  0  0  0  0  0  0  0  0
   24.5900  -20.1064  -15.2514 O   0  0  0  0  0  0  0  0  0  0  0  0
   23.1928  -21.4043  -11.4731 C   0  0  0  0  0  0  0  0  0  0  0  0
   22.6101  -22.1110  -10.6297 O   0  0  0  0  0  0  0  0  0  0  0  0
   26.5490  -21.1394  -14.8308 O   0  0  0  0  0  0  0  0  0  0  0  0
   21.1043  -18.1607  -11.3686 C   0  0  0  0  0  0  0  0  0  0  0  0
   20.5211  -19.0269  -12.4523 C   0  0  1  0  0  0  0  0  0  0  0  0
   21.0837  -18.4700  -13.7708 C   0  0  0  0  0  0  0  0  0  0  0  0
   21.0297  -20.4234  -12.3379 C   0  0  2  0  0  0  0  0  0  0  0  0
   22.4627  -20.4986  -12.2724 N   0  0  0  0  0  0  0  0  0  0  0  0
   20.4011  -21.4123  -13.2516 C   0  0  0  0  0  0  0  0  0  0  0  0
   19.2001  -21.7490  -13.2579 O   0  0  0  0  0  0  0  0  0  0  0  0
   21.1981  -22.0398  -14.2025 O   0  0  0  0  0  0  0  0  0  0  0  0
  2  1  1  6
  3  2  1  0
  4  3  1  0
  4  9  2  0
  5  4  1  0
  6  5  2  0
  6  7  1  0
  7  8  2  0
  8  9  1  0
 10  2  1  0
 11 10  2  0
 12 10  1  0
 13 18  1  0
 13 12  1  0
 13 14  1  6
 15 14  1  0
 16 15  1  0
 17 16  2  0
 18 19  2  0
 20 16  1  0
 22 21  1  1
 22 24  1  0
 23 22  1  0
 24 25  1  6
 25 18  1  0
 26 28  1  0
 26 24  1  0
 27 26  2  0
M  END
$$$$
