FEV.pdb
     RDKit          3D

 28 28  0  0  1  0  0  0  0  0999 V2000
   27.8420  -21.1361  -14.6781 N   0  0  0  0  0  0  0  0  0  0  0  0
   26.8941  -21.2848  -13.5946 C   0  0  1  0  0  0  0  0  0  0  0  0
   27.2364  -20.2265  -12.5657 C   0  0  0  0  0  0  0  0  0  0  0  0
   28.5046  -20.5531  -11.8647 C   0  0  0  0  0  0  0  0  0  0  0  0
   28.4862  -21.3006  -10.7033 C   0  0  0  0  0  0  0  0  0  0  0  0
   29.6284  -21.6324  -10.0132 C   0  0  0  0  0  0  0  0  0  0  0  0
   30.8422  -21.2142  -10.4804 C   0  0  0  0  0  0  0  0  0  0  0  0
   30.9125  -20.4609  -11.6430 C   0  0  0  0  0  0  0  0  0  0  0  0
   29.7392  -20.1391  -12.3221 C   0  0  0  0  0  0  0  0  0  0  0  0
   25.5323  -21.1308  -14.1263 C   0  0  0  0  0  0  0  0  0  0  0  0
   25.2998  -20.1862  -14.9212 O   0  0  0  0  0  0  0  0  0  0  0  0
   24.4593  -22.0110  -13.7772 N   0  0  0  0  0  0  0  0  0  0  0  0
   23.2191  -21.9165  -14.4702 C   0  0  1  0  0  0  0  0  0  0  0  0
   22.6064  -23.2932  -14.7375 C   0  0  0  0  0  0  0  0  0  0  0  0
   23.3019  -23.9943  -15.8614 C   0  0  0  0  0  0  0  0  0  0  0  0
   24.6177  -24.4812  -15.3793 C   0  0  0  0  0  0  0  0  0  0  0  0
   25.6859  -24.1250  -15.9384 O   0  0  0  0  0  0  0  0  0  0  0  0
   22.2419  -21.0252  -13.7786 C   0  0  0  0  0  0  0  0  0  0  0  0
   22.2127  -20.8927  -12.5410 O   0  0  0  0  0  0  0  0  0  0  0  0
   24.7459  -25.3487  -14.2950 O   0  0  0  0  0  0  0  0  0  0  0  0
   20.0331  -18.2902  -16.2495 C   0  0  0  0  0  0  0  0  0  0  0  0
   20.2196  -18.1512  -14.7626 C   0  0  1  0  0  0  0  0  0  0  0  0
   18.9432  -17.4625  -14.2512 C   0  0  0  0  0  0  0  0  0  0  0  0
   20.2605  -19.4916  -14.1117 C   0  0  2  0  0  0  0  0  0  0  0  0
   21.3300  -20.3206  -14.5937 N   0  0  0  0  0  0  0  0  0  0  0  0
   18.9519  -20.1841  -13.9855 C   0  0  0  0  0  0  0  0  0  0  0  0
   18.5244  -21.0909  -14.7277 O   0  0  0  0  0  0  0  0  0  0  0  0
   18.0991  -19.8114  -12.9527 O   0  0  0  0  0  0  0  0  0  0  0  0
  2  1  1  6
  3  2  1  0
  4  3  1  0
  4  9  2  0
  5  4  1  0
  6  5  2  0
  6  7  1  0
  7  8  2  0
  8  9  1  0
 10  2  1  0
 11 10  2  0
 12 10  1  0
 13 18  1  0
 13 12  1  0
 13 14  1  1
 15 14  1  0
 16 15  1  0
 17 16  2  0
 18 19  2  0
 20 16  1  0
 22 21  1  6
 22 24  1  0
 23 22  1  0
 24 25  1  6
 25 18  1  0
 26 28  1  0
 26 24  1  0
 27 26  2  0
M  END
$$$$
