FEV.pdb
     RDKit          3D

 28 28  0  0  1  0  0  0  0  0999 V2000
   28.1614  -20.0235  -14.4746 N   0  0  0  0  0  0  0  0  0  0  0  0
   27.1391  -20.6783  -13.6869 C   0  0  1  0  0  0  0  0  0  0  0  0
   27.3019  -20.1863  -12.2631 C   0  0  0  0  0  0  0  0  0  0  0  0
   28.5971  -20.6320  -11.6884 C   0  0  0  0  0  0  0  0  0  0  0  0
   28.6571  -21.7663  -10.9024 C   0  0  0  0  0  0  0  0  0  0  0  0
   29.8275  -22.2249  -10.3450 C   0  0  0  0  0  0  0  0  0  0  0  0
   30.9906  -21.5434  -10.5667 C   0  0  0  0  0  0  0  0  0  0  0  0
   30.9817  -20.3983  -11.3495 C   0  0  0  0  0  0  0  0  0  0  0  0
   29.7814  -19.9561  -11.9018 C   0  0  0  0  0  0  0  0  0  0  0  0
   25.8204  -20.3495  -14.2468 C   0  0  0  0  0  0  0  0  0  0  0  0
   25.4746  -19.1431  -14.3042 O   0  0  0  0  0  0  0  0  0  0  0  0
   24.9127  -21.3450  -14.7297 N   0  0  0  0  0  0  0  0  0  0  0  0
   23.5622  -20.9894  -15.0068 C   0  0  1  0  0  0  0  0  0  0  0  0
   23.0909  -21.5386  -16.3553 C   0  0  0  0  0  0  0  0  0  0  0  0
   21.7040  -21.0807  -16.6796 C   0  0  0  0  0  0  0  0  0  0  0  0
   21.7830  -19.7707  -17.3713 C   0  0  0  0  0  0  0  0  0  0  0  0
   21.8173  -18.6950  -16.7216 O   0  0  0  0  0  0  0  0  0  0  0  0
   22.6277  -21.3898  -13.9141 C   0  0  0  0  0  0  0  0  0  0  0  0
   22.6445  -22.5224  -13.3973 O   0  0  0  0  0  0  0  0  0  0  0  0
   21.8234  -19.6565  -18.7606 O   0  0  0  0  0  0  0  0  0  0  0  0
   19.8990  -19.3501  -10.4492 C   0  0  0  0  0  0  0  0  0  0  0  0
   21.1382  -19.7830  -11.1851 C   0  0  1  0  0  0  0  0  0  0  0  0
   21.8709  -20.7391  -10.2290 C   0  0  0  0  0  0  0  0  0  0  0  0
   20.7797  -20.5880  -12.3874 C   0  0  2  0  0  0  0  0  0  0  0  0
   21.7020  -20.4186  -13.4755 N   0  0  0  0  0  0  0  0  0  0  0  0
   19.3475  -20.5506  -12.7811 C   0  0  0  0  0  0  0  0  0  0  0  0
   18.8564  -19.8767  -13.7087 O   0  0  0  0  0  0  0  0  0  0  0  0
   18.4417  -21.3297  -12.0700 O   0  0  0  0  0  0  0  0  0  0  0  0
  2  1  1  6
  3  2  1  0
  4  3  1  0
  4  9  2  0
  5  4  1  0
  6  5  2  0
  6  7  1  0
  7  8  2  0
  8  9  1  0
 10  2  1  0
 11 10  2  0
 12 10  1  0
 13 18  1  0
 13 12  1  0
 13 14  1  6
 15 14  1  0
 16 15  1  0
 17 16  2  0
 18 19  2  0
 20 16  1  0
 22 21  1  1
 22 24  1  0
 23 22  1  0
 24 25  1  6
 25 18  1  0
 26 28  1  0
 26 24  1  0
 27 26  2  0
M  END
$$$$
