FEV.pdb
     RDKit          3D

 28 28  0  0  1  0  0  0  0  0999 V2000
   25.6282  -11.8881  -18.1538 N   0  0  0  0  0  0  0  0  0  0  0  0
   25.4551  -11.3182  -16.8348 C   0  0  1  0  0  0  0  0  0  0  0  0
   26.7680  -10.6565  -16.4686 C   0  0  0  0  0  0  0  0  0  0  0  0
   27.8692  -11.6515  -16.4070 C   0  0  0  0  0  0  0  0  0  0  0  0
   29.0495  -11.4277  -17.0887 C   0  0  0  0  0  0  0  0  0  0  0  0
   30.1012  -12.3133  -17.0674 C   0  0  0  0  0  0  0  0  0  0  0  0
   29.9930  -13.4691  -16.3471 C   0  0  0  0  0  0  0  0  0  0  0  0
   28.8272  -13.7391  -15.6455 C   0  0  0  0  0  0  0  0  0  0  0  0
   27.7773  -12.8240  -15.6847 C   0  0  0  0  0  0  0  0  0  0  0  0
   24.3367  -10.3650  -16.8689 C   0  0  0  0  0  0  0  0  0  0  0  0
   24.1111   -9.7396  -17.9348 O   0  0  0  0  0  0  0  0  0  0  0  0
   23.4930  -10.1186  -15.7395 N   0  0  0  0  0  0  0  0  0  0  0  0
   22.3581   -9.2707  -15.8818 C   0  0  1  0  0  0  0  0  0  0  0  0
   21.0510  -10.0094  -15.5852 C   0  0  0  0  0  0  0  0  0  0  0  0
   19.8585   -9.1729  -15.9264 C   0  0  0  0  0  0  0  0  0  0  0  0
   18.6297   -9.9496  -15.6304 C   0  0  0  0  0  0  0  0  0  0  0  0
   18.6957  -11.1235  -15.1851 O   0  0  0  0  0  0  0  0  0  0  0  0
   22.4638   -8.0280  -15.0621 C   0  0  0  0  0  0  0  0  0  0  0  0
   23.0087   -8.0060  -13.9428 O   0  0  0  0  0  0  0  0  0  0  0  0
   17.3493   -9.4324  -15.8252 O   0  0  0  0  0  0  0  0  0  0  0  0
   22.0080   -4.1835  -17.0535 C   0  0  0  0  0  0  0  0  0  0  0  0
   22.7555   -4.5655  -15.8045 C   0  0  1  0  0  0  0  0  0  0  0  0
   22.8268   -3.2824  -14.9597 C   0  0  0  0  0  0  0  0  0  0  0  0
   21.9718   -5.5494  -15.0046 C   0  0  2  0  0  0  0  0  0  0  0  0
   21.9126   -6.8502  -15.6110 N   0  0  0  0  0  0  0  0  0  0  0  0
   20.6746   -5.0566  -14.4733 C   0  0  0  0  0  0  0  0  0  0  0  0
   19.5416   -5.3714  -14.8892 O   0  0  0  0  0  0  0  0  0  0  0  0
   20.6885   -4.1594  -13.4113 O   0  0  0  0  0  0  0  0  0  0  0  0
  2  1  1  6
  3  2  1  0
  4  3  1  0
  4  9  2  0
  5  4  1  0
  6  5  2  0
  6  7  1  0
  7  8  2  0
  8  9  1  0
 10  2  1  0
 11 10  2  0
 12 10  1  0
 13 18  1  0
 13 12  1  0
 13 14  1  1
 15 14  1  0
 16 15  1  0
 17 16  2  0
 18 19  2  0
 20 16  1  0
 22 21  1  6
 22 24  1  0
 23 22  1  0
 24 25  1  6
 25 18  1  0
 26 28  1  0
 26 24  1  0
 27 26  2  0
M  END
$$$$
