FEV.pdb
     RDKit          3D

 28 28  0  0  1  0  0  0  0  0999 V2000
   27.3800  -22.1088  -12.8094 N   0  0  0  0  0  0  0  0  0  0  0  0
   26.4010  -21.5145  -11.9247 C   0  0  1  0  0  0  0  0  0  0  0  0
   26.9982  -20.2164  -11.4205 C   0  0  0  0  0  0  0  0  0  0  0  0
   27.2591  -20.2800   -9.9596 C   0  0  0  0  0  0  0  0  0  0  0  0
   26.2851  -19.8919   -9.0603 C   0  0  0  0  0  0  0  0  0  0  0  0
   26.4714  -19.9297   -7.6984 C   0  0  0  0  0  0  0  0  0  0  0  0
   27.6636  -20.3669   -7.1944 C   0  0  0  0  0  0  0  0  0  0  0  0
   28.6731  -20.7675   -8.0573 C   0  0  0  0  0  0  0  0  0  0  0  0
   28.4570  -20.7188   -9.4329 C   0  0  0  0  0  0  0  0  0  0  0  0
   25.1500  -21.3053  -12.6677 C   0  0  0  0  0  0  0  0  0  0  0  0
   25.2127  -21.0905  -13.9038 O   0  0  0  0  0  0  0  0  0  0  0  0
   23.8627  -21.3358  -12.0431 N   0  0  0  0  0  0  0  0  0  0  0  0
   22.6896  -21.3014  -12.8492 C   0  0  1  0  0  0  0  0  0  0  0  0
   21.4654  -21.8348  -12.1014 C   0  0  0  0  0  0  0  0  0  0  0  0
   20.2817  -21.9623  -13.0075 C   0  0  0  0  0  0  0  0  0  0  0  0
   19.1504  -22.5352  -12.2375 C   0  0  0  0  0  0  0  0  0  0  0  0
   18.8344  -23.7465  -12.3529 O   0  0  0  0  0  0  0  0  0  0  0  0
   22.4194  -19.9456  -13.4117 C   0  0  0  0  0  0  0  0  0  0  0  0
   22.4843  -18.9086  -12.7256 O   0  0  0  0  0  0  0  0  0  0  0  0
   18.3828  -21.7765  -11.3543 O   0  0  0  0  0  0  0  0  0  0  0  0
   22.4771  -18.6782  -17.8973 C   0  0  0  0  0  0  0  0  0  0  0  0
   22.9332  -18.3635  -16.4981 C   0  0  1  0  0  0  0  0  0  0  0  0
   23.1357  -16.8394  -16.4651 C   0  0  0  0  0  0  0  0  0  0  0  0
   21.8535  -18.6629  -15.5149 C   0  0  2  0  0  0  0  0  0  0  0  0
   22.0800  -19.8762  -14.7801 N   0  0  0  0  0  0  0  0  0  0  0  0
   20.4647  -18.4950  -16.0157 C   0  0  0  0  0  0  0  0  0  0  0  0
   19.6973  -19.4091  -16.3779 O   0  0  0  0  0  0  0  0  0  0  0  0
   19.9389  -17.2107  -16.1003 O   0  0  0  0  0  0  0  0  0  0  0  0
  2  1  1  6
  3  2  1  0
  4  3  1  0
  4  9  2  0
  5  4  1  0
  6  5  2  0
  6  7  1  0
  7  8  2  0
  8  9  1  0
 10  2  1  0
 11 10  2  0
 12 10  1  0
 13 18  1  0
 13 12  1  0
 13 14  1  1
 15 14  1  0
 16 15  1  0
 17 16  2  0
 18 19  2  0
 20 16  1  0
 22 21  1  6
 22 24  1  0
 23 22  1  0
 24 25  1  6
 25 18  1  0
 26 28  1  0
 26 24  1  0
 27 26  2  0
M  END
$$$$
