VQM.pdb
     RDKit          3D

 25 24  0  0  1  0  0  0  0  0999 V2000
    7.2940  -12.4867   19.6078 C   0  0  0  0  0  0  0  0  0  0  0  0
    7.5158  -13.4090   20.7745 C   0  0  2  0  0  0  0  0  0  0  0  0
    8.5800  -12.8172   21.6555 C   0  0  0  0  0  0  0  0  0  0  0  0
    7.9282  -14.8055   20.3266 C   0  0  2  0  0  0  0  0  0  0  0  0
    7.0005  -15.3235   19.3528 N   0  0  0  0  0  0  0  0  0  0  0  0
    7.9556  -15.7136   21.5178 C   0  0  0  0  0  0  0  0  0  0  0  0
    6.8869  -16.3043   21.8147 O   0  0  0  0  0  0  0  0  0  0  0  0
   12.6466  -19.3180   21.5332 N   0  0  0  0  0  0  0  0  0  0  0  0
   12.8904  -17.9618   21.8458 C   0  0  0  0  0  0  0  0  0  0  0  0
   14.0187  -17.4818   21.6432 O   0  0  0  0  0  0  0  0  0  0  0  0
   11.8104  -17.1468   22.3958 C   0  0  0  0  0  0  0  0  0  0  0  0
   10.4998  -17.7656   22.6237 C   0  0  0  0  0  0  0  0  0  0  0  0
    9.3554  -17.0263   23.1613 C   0  0  2  0  0  0  0  0  0  0  0  0
    9.1581  -15.8669   22.2457 N   0  0  0  0  0  0  0  0  0  0  0  0
    9.3868  -16.4981   24.5141 C   0  0  0  0  0  0  0  0  0  0  0  0
    9.5746  -17.2832   25.5151 O   0  0  0  0  0  0  0  0  0  0  0  0
    5.2682  -12.3612   26.6721 C   0  0  0  0  0  0  0  0  0  0  0  0
    6.7156  -11.6025   25.9368 S   0  0  0  0  0  0  0  0  0  0  0  0
    8.0782  -12.7145   25.6686 C   0  0  0  0  0  0  0  0  0  0  0  0
    8.2283  -13.8322   26.6338 C   0  0  0  0  0  0  0  0  0  0  0  0
    9.4341  -14.7221   26.2811 C   0  0  2  0  0  0  0  0  0  0  0  0
    9.2380  -15.1275   24.8962 N   0  0  0  0  0  0  0  0  0  0  0  0
    9.5480  -15.8445   27.2169 C   0  0  0  0  0  0  0  0  0  0  0  0
    9.8211  -15.6795   28.4112 O   0  0  0  0  0  0  0  0  0  0  0  0
    9.3393  -17.1188   26.7331 O   0  0  0  0  0  0  0  0  0  0  0  0
  2  1  1  6
  2  3  1  0
  4  6  1  0
  4  2  1  0
  4  5  1  6
  6  7  2  0
  6 14  1  0
  9  8  1  0
 10  9  2  0
 11  9  1  0
 12 11  1  0
 13 12  1  6
 14 13  1  0
 15 16  2  0
 15 13  1  0
 18 17  1  0
 19 18  1  0
 19 20  1  0
 21 20  1  1
 21 23  1  0
 21 22  1  0
 22 15  1  0
 23 25  1  0
 24 23  2  0
M  END
$$$$
