VQM.pdb
     RDKit          3D

 25 24  0  0  1  0  0  0  0  0999 V2000
    7.5840  -12.5056   18.9131 C   0  0  0  0  0  0  0  0  0  0  0  0
    7.7853  -13.4908   20.0310 C   0  0  2  0  0  0  0  0  0  0  0  0
    8.6956  -12.8724   21.0546 C   0  0  0  0  0  0  0  0  0  0  0  0
    8.3770  -14.8038   19.5338 C   0  0  2  0  0  0  0  0  0  0  0  0
    7.5277  -15.3995   18.5334 N   0  0  0  0  0  0  0  0  0  0  0  0
    8.5182  -15.7460   20.6898 C   0  0  0  0  0  0  0  0  0  0  0  0
    7.4797  -16.3362   21.0802 O   0  0  0  0  0  0  0  0  0  0  0  0
   11.3324  -20.5456   22.2949 N   0  0  0  0  0  0  0  0  0  0  0  0
   11.1911  -19.9508   21.0210 C   0  0  0  0  0  0  0  0  0  0  0  0
   11.0696  -20.6756   20.0188 O   0  0  0  0  0  0  0  0  0  0  0  0
   11.1844  -18.4949   20.9056 C   0  0  0  0  0  0  0  0  0  0  0  0
   11.1116  -17.6864   22.1277 C   0  0  0  0  0  0  0  0  0  0  0  0
    9.9617  -16.8392   22.4520 C   0  0  2  0  0  0  0  0  0  0  0  0
    9.7882  -15.9304   21.2835 N   0  0  0  0  0  0  0  0  0  0  0  0
    9.9709  -16.0047   23.6409 C   0  0  0  0  0  0  0  0  0  0  0  0
   11.0263  -15.3453   23.9650 O   0  0  0  0  0  0  0  0  0  0  0  0
    5.8285  -12.1854   27.1525 C   0  0  0  0  0  0  0  0  0  0  0  0
    6.9771  -11.8133   25.8284 S   0  0  0  0  0  0  0  0  0  0  0  0
    8.1770  -13.0877   25.5099 C   0  0  0  0  0  0  0  0  0  0  0  0
    8.0052  -14.3657   26.2453 C   0  0  0  0  0  0  0  0  0  0  0  0
    9.1308  -15.3619   25.9124 C   0  0  2  0  0  0  0  0  0  0  0  0
    8.8822  -15.8016   24.5465 N   0  0  0  0  0  0  0  0  0  0  0  0
    9.1689  -16.4543   26.8890 C   0  0  0  0  0  0  0  0  0  0  0  0
    8.6287  -17.5457   26.6761 O   0  0  0  0  0  0  0  0  0  0  0  0
    9.8343  -16.2413   28.0779 O   0  0  0  0  0  0  0  0  0  0  0  0
  2  1  1  6
  2  3  1  0
  4  6  1  0
  4  2  1  0
  4  5  1  6
  6  7  2  0
  6 14  1  0
  9  8  1  0
 10  9  2  0
 11  9  1  0
 12 11  1  0
 13 12  1  6
 14 13  1  0
 15 16  2  0
 15 13  1  0
 18 17  1  0
 19 18  1  0
 19 20  1  0
 21 20  1  1
 21 23  1  0
 21 22  1  0
 22 15  1  0
 23 25  1  0
 24 23  2  0
M  END
$$$$
