VQM.pdb
     RDKit          3D

 25 24  0  0  1  0  0  0  0  0999 V2000
    7.8818  -12.4615   18.2433 C   0  0  0  0  0  0  0  0  0  0  0  0
    7.8177  -13.4652   19.3611 C   0  0  2  0  0  0  0  0  0  0  0  0
    8.4022  -12.8414   20.5973 C   0  0  0  0  0  0  0  0  0  0  0  0
    8.5682  -14.7465   19.0201 C   0  0  2  0  0  0  0  0  0  0  0  0
    8.0406  -15.3423   17.8185 N   0  0  0  0  0  0  0  0  0  0  0  0
    8.4279  -15.7131   20.1560 C   0  0  0  0  0  0  0  0  0  0  0  0
    7.3148  -16.2800   20.2939 O   0  0  0  0  0  0  0  0  0  0  0  0
   12.1901  -20.2309   22.3474 N   0  0  0  0  0  0  0  0  0  0  0  0
   11.8774  -19.6077   21.1183 C   0  0  0  0  0  0  0  0  0  0  0  0
   12.5624  -19.8622   20.1131 O   0  0  0  0  0  0  0  0  0  0  0  0
   10.7513  -18.6802   21.0501 C   0  0  0  0  0  0  0  0  0  0  0  0
   10.5392  -17.7389   22.1553 C   0  0  0  0  0  0  0  0  0  0  0  0
    9.3991  -16.8209   22.2087 C   0  0  2  0  0  0  0  0  0  0  0  0
    9.5306  -15.9445   21.0102 N   0  0  0  0  0  0  0  0  0  0  0  0
    9.2066  -15.9479   23.3536 C   0  0  0  0  0  0  0  0  0  0  0  0
   10.1394  -15.1433   23.7226 O   0  0  0  0  0  0  0  0  0  0  0  0
    7.2050  -10.7956   27.5672 C   0  0  0  0  0  0  0  0  0  0  0  0
    7.2284  -12.0155   26.2547 S   0  0  0  0  0  0  0  0  0  0  0  0
    6.5471  -13.5968   26.7023 C   0  0  0  0  0  0  0  0  0  0  0  0
    6.6098  -14.6663   25.6748 C   0  0  0  0  0  0  0  0  0  0  0  0
    8.0595  -15.1183   25.4210 C   0  0  2  0  0  0  0  0  0  0  0  0
    8.0325  -15.8560   24.1657 N   0  0  0  0  0  0  0  0  0  0  0  0
    8.5718  -15.8945   26.5539 C   0  0  0  0  0  0  0  0  0  0  0  0
    8.3140  -17.0950   26.6985 O   0  0  0  0  0  0  0  0  0  0  0  0
    9.3666  -15.2499   27.4782 O   0  0  0  0  0  0  0  0  0  0  0  0
  2  1  1  6
  2  3  1  0
  4  6  1  0
  4  2  1  0
  4  5  1  6
  6  7  2  0
  6 14  1  0
  9  8  1  0
 10  9  2  0
 11  9  1  0
 12 11  1  0
 13 12  1  1
 14 13  1  0
 15 16  2  0
 15 13  1  0
 18 17  1  0
 19 18  1  0
 19 20  1  0
 21 20  1  1
 21 23  1  0
 21 22  1  0
 22 15  1  0
 23 25  1  0
 24 23  2  0
M  END
$$$$
