VQM.pdb
     RDKit          3D

 25 24  0  0  1  0  0  0  0  0999 V2000
    7.3521  -13.2756   21.2598 C   0  0  0  0  0  0  0  0  0  0  0  0
    8.3957  -13.4626   20.1935 C   0  0  2  0  0  0  0  0  0  0  0  0
    8.1187  -12.4932   19.0789 C   0  0  0  0  0  0  0  0  0  0  0  0
    8.4094  -14.8869   19.6531 C   0  0  2  0  0  0  0  0  0  0  0  0
    7.1449  -15.2133   19.0434 N   0  0  0  0  0  0  0  0  0  0  0  0
    8.6760  -15.8360   20.7810 C   0  0  0  0  0  0  0  0  0  0  0  0
    7.6846  -16.4180   21.2888 O   0  0  0  0  0  0  0  0  0  0  0  0
    9.8477  -20.3783   20.3010 N   0  0  0  0  0  0  0  0  0  0  0  0
   10.6770  -19.9138   21.3465 C   0  0  0  0  0  0  0  0  0  0  0  0
   10.6189  -20.4609   22.4609 O   0  0  0  0  0  0  0  0  0  0  0  0
   11.5917  -18.8029   21.0972 C   0  0  0  0  0  0  0  0  0  0  0  0
   11.5521  -17.6375   21.9876 C   0  0  0  0  0  0  0  0  0  0  0  0
   10.3064  -16.9583   22.3515 C   0  0  2  0  0  0  0  0  0  0  0  0
   10.0050  -16.0354   21.2206 N   0  0  0  0  0  0  0  0  0  0  0  0
   10.2212  -16.1756   23.5721 C   0  0  0  0  0  0  0  0  0  0  0  0
   11.2885  -15.7386   24.1408 O   0  0  0  0  0  0  0  0  0  0  0  0
    6.4487  -10.8956   26.3739 C   0  0  0  0  0  0  0  0  0  0  0  0
    6.2838  -12.5002   27.1547 S   0  0  0  0  0  0  0  0  0  0  0  0
    7.6822  -13.5776   26.9338 C   0  0  0  0  0  0  0  0  0  0  0  0
    7.7856  -14.2791   25.6297 C   0  0  0  0  0  0  0  0  0  0  0  0
    9.0948  -15.0824   25.5254 C   0  0  2  0  0  0  0  0  0  0  0  0
    9.0243  -15.7956   24.2576 N   0  0  0  0  0  0  0  0  0  0  0  0
    9.2665  -15.9573   26.6889 C   0  0  0  0  0  0  0  0  0  0  0  0
    9.6707  -15.5322   27.7770 O   0  0  0  0  0  0  0  0  0  0  0  0
    8.9611  -17.2946   26.5482 O   0  0  0  0  0  0  0  0  0  0  0  0
  2  1  1  1
  2  3  1  0
  4  6  1  0
  4  2  1  0
  4  5  1  1
  6  7  2  0
  6 14  1  0
  9  8  1  0
 10  9  2  0
 11  9  1  0
 12 11  1  0
 13 12  1  6
 14 13  1  0
 15 16  2  0
 15 13  1  0
 18 17  1  0
 19 18  1  0
 19 20  1  0
 21 20  1  1
 21 23  1  0
 21 22  1  0
 22 15  1  0
 23 25  1  0
 24 23  2  0
M  END
$$$$
