VQM.pdb
     RDKit          3D

 25 24  0  0  1  0  0  0  0  0999 V2000
    5.7218  -18.5522   23.6092 C   0  0  0  0  0  0  0  0  0  0  0  0
    5.0298  -18.0052   22.3914 C   0  0  2  0  0  0  0  0  0  0  0  0
    3.7343  -18.7442   22.2058 C   0  0  0  0  0  0  0  0  0  0  0  0
    5.8886  -18.1380   21.1401 C   0  0  2  0  0  0  0  0  0  0  0  0
    6.1907  -19.5216   20.8733 N   0  0  0  0  0  0  0  0  0  0  0  0
    7.1657  -17.3809   21.3401 C   0  0  0  0  0  0  0  0  0  0  0  0
    8.1425  -18.0162   21.8110 O   0  0  0  0  0  0  0  0  0  0  0  0
    8.7256  -12.0276   18.2934 N   0  0  0  0  0  0  0  0  0  0  0  0
    8.2495  -13.2908   17.8760 C   0  0  0  0  0  0  0  0  0  0  0  0
    7.8069  -13.4258   16.7226 O   0  0  0  0  0  0  0  0  0  0  0  0
    8.2916  -14.4165   18.8056 C   0  0  0  0  0  0  0  0  0  0  0  0
    8.4464  -14.1474   20.2395 C   0  0  0  0  0  0  0  0  0  0  0  0
    8.4507  -15.2073   21.2504 C   0  0  2  0  0  0  0  0  0  0  0  0
    7.2205  -16.0100   20.9982 N   0  0  0  0  0  0  0  0  0  0  0  0
    8.4605  -14.8787   22.6652 C   0  0  0  0  0  0  0  0  0  0  0  0
    8.1480  -13.6956   23.0607 O   0  0  0  0  0  0  0  0  0  0  0  0
    7.3674  -11.4201   27.4387 C   0  0  0  0  0  0  0  0  0  0  0  0
    6.3066  -12.8095   27.0442 S   0  0  0  0  0  0  0  0  0  0  0  0
    7.1654  -14.3460   26.7858 C   0  0  0  0  0  0  0  0  0  0  0  0
    7.3387  -14.7860   25.3787 C   0  0  0  0  0  0  0  0  0  0  0  0
    8.7712  -15.2862   25.1180 C   0  0  2  0  0  0  0  0  0  0  0  0
    8.7820  -15.7637   23.7423 N   0  0  0  0  0  0  0  0  0  0  0  0
    9.1580  -16.3022   26.1012 C   0  0  0  0  0  0  0  0  0  0  0  0
    9.2632  -17.4977   25.8044 O   0  0  0  0  0  0  0  0  0  0  0  0
    9.4105  -15.8940   27.3939 O   0  0  0  0  0  0  0  0  0  0  0  0
  2  1  1  1
  2  3  1  0
  4  6  1  0
  4  2  1  0
  4  5  1  1
  6  7  2  0
  6 14  1  0
  9  8  1  0
 10  9  2  0
 11  9  1  0
 12 11  1  0
 13 12  1  6
 14 13  1  0
 15 16  2  0
 15 13  1  0
 18 17  1  0
 19 18  1  0
 19 20  1  0
 21 20  1  1
 21 23  1  0
 21 22  1  0
 22 15  1  0
 23 25  1  0
 24 23  2  0
M  END
$$$$
