VQM.pdb
     RDKit          3D

 25 24  0  0  1  0  0  0  0  0999 V2000
    8.2744  -12.9629   17.6777 C   0  0  0  0  0  0  0  0  0  0  0  0
    7.8163  -13.6604   18.9286 C   0  0  2  0  0  0  0  0  0  0  0  0
    6.9876  -12.7001   19.7347 C   0  0  0  0  0  0  0  0  0  0  0  0
    8.9882  -14.1634   19.7623 C   0  0  2  0  0  0  0  0  0  0  0  0
    9.7703  -15.1186   19.0187 N   0  0  0  0  0  0  0  0  0  0  0  0
    8.4616  -14.8134   21.0050 C   0  0  0  0  0  0  0  0  0  0  0  0
    7.7009  -14.1282   21.7337 O   0  0  0  0  0  0  0  0  0  0  0  0
    8.8800  -20.7512   20.9428 N   0  0  0  0  0  0  0  0  0  0  0  0
   10.0305  -20.0981   21.4390 C   0  0  0  0  0  0  0  0  0  0  0  0
   11.1509  -20.5956   21.2349 O   0  0  0  0  0  0  0  0  0  0  0  0
    9.8829  -18.8469   22.1780 C   0  0  0  0  0  0  0  0  0  0  0  0
    8.5473  -18.2543   22.3103 C   0  0  0  0  0  0  0  0  0  0  0  0
    8.3323  -16.8225   22.5317 C   0  0  2  0  0  0  0  0  0  0  0  0
    8.8337  -16.1447   21.3026 N   0  0  0  0  0  0  0  0  0  0  0  0
    8.9427  -16.1506   23.6657 C   0  0  0  0  0  0  0  0  0  0  0  0
   10.1981  -15.8722   23.6587 O   0  0  0  0  0  0  0  0  0  0  0  0
    7.0534  -10.8192   27.4021 C   0  0  0  0  0  0  0  0  0  0  0  0
    6.2788  -12.0909   26.4050 S   0  0  0  0  0  0  0  0  0  0  0  0
    7.4071  -13.2847   25.7217 C   0  0  0  0  0  0  0  0  0  0  0  0
    8.0862  -14.1889   26.6833 C   0  0  0  0  0  0  0  0  0  0  0  0
    9.0414  -15.1592   25.9649 C   0  0  2  0  0  0  0  0  0  0  0  0
    8.2796  -15.7218   24.8586 N   0  0  0  0  0  0  0  0  0  0  0  0
    9.5650  -16.1634   26.8954 C   0  0  0  0  0  0  0  0  0  0  0  0
    9.2195  -17.3494   26.8454 O   0  0  0  0  0  0  0  0  0  0  0  0
   10.4725  -15.7555   27.8501 O   0  0  0  0  0  0  0  0  0  0  0  0
  2  1  1  6
  2  3  1  0
  4  6  1  0
  4  2  1  0
  4  5  1  6
  6  7  2  0
  6 14  1  0
  9  8  1  0
 10  9  2  0
 11  9  1  0
 12 11  1  0
 13 12  1  6
 14 13  1  0
 15 16  2  0
 15 13  1  0
 18 17  1  0
 19 18  1  0
 19 20  1  0
 21 20  1  1
 21 23  1  0
 21 22  1  0
 22 15  1  0
 23 25  1  0
 24 23  2  0
M  END
$$$$
