VQM.pdb
     RDKit          3D

 25 24  0  0  1  0  0  0  0  0999 V2000
    6.6420  -18.7847   25.1490 C   0  0  0  0  0  0  0  0  0  0  0  0
    6.3619  -18.7119   23.6735 C   0  0  2  0  0  0  0  0  0  0  0  0
    5.0755  -19.4374   23.3952 C   0  0  0  0  0  0  0  0  0  0  0  0
    7.4903  -19.3180   22.8486 C   0  0  2  0  0  0  0  0  0  0  0  0
    7.6248  -20.7260   23.1252 N   0  0  0  0  0  0  0  0  0  0  0  0
    8.7726  -18.6213   23.1865 C   0  0  0  0  0  0  0  0  0  0  0  0
    9.5275  -19.1801   24.0215 O   0  0  0  0  0  0  0  0  0  0  0  0
   13.3057  -17.3527   20.9727 N   0  0  0  0  0  0  0  0  0  0  0  0
   13.2968  -15.9725   21.2752 C   0  0  0  0  0  0  0  0  0  0  0  0
   14.3735  -15.3560   21.3463 O   0  0  0  0  0  0  0  0  0  0  0  0
   12.0220  -15.2939   21.4931 C   0  0  0  0  0  0  0  0  0  0  0  0
   10.8006  -16.0984   21.6098 C   0  0  0  0  0  0  0  0  0  0  0  0
   10.3409  -16.6641   22.8803 C   0  0  2  0  0  0  0  0  0  0  0  0
    9.0767  -17.3880   22.5654 N   0  0  0  0  0  0  0  0  0  0  0  0
   10.0645  -15.8016   24.0159 C   0  0  0  0  0  0  0  0  0  0  0  0
    9.5087  -14.6551   23.8423 O   0  0  0  0  0  0  0  0  0  0  0  0
    6.3598  -11.7831   25.9246 C   0  0  0  0  0  0  0  0  0  0  0  0
    6.5412  -13.0614   27.1673 S   0  0  0  0  0  0  0  0  0  0  0  0
    8.1831  -13.7327   27.3037 C   0  0  0  0  0  0  0  0  0  0  0  0
    8.6282  -14.6363   26.2133 C   0  0  0  0  0  0  0  0  0  0  0  0
   10.0847  -15.0908   26.4186 C   0  0  2  0  0  0  0  0  0  0  0  0
   10.3387  -16.0900   25.3901 N   0  0  0  0  0  0  0  0  0  0  0  0
   10.2929  -15.5800   27.7846 C   0  0  0  0  0  0  0  0  0  0  0  0
   10.3996  -16.7844   28.0424 O   0  0  0  0  0  0  0  0  0  0  0  0
   10.3714  -14.6534   28.8028 O   0  0  0  0  0  0  0  0  0  0  0  0
  2  1  1  1
  2  3  1  0
  4  6  1  0
  4  2  1  0
  4  5  1  1
  6  7  2  0
  6 14  1  0
  9  8  1  0
 10  9  2  0
 11  9  1  0
 12 11  1  0
 13 12  1  6
 14 13  1  0
 15 16  2  0
 15 13  1  0
 18 17  1  0
 19 18  1  0
 19 20  1  0
 21 20  1  1
 21 23  1  0
 21 22  1  0
 22 15  1  0
 23 25  1  0
 24 23  2  0
M  END
$$$$
