VQM.pdb
     RDKit          3D

 25 24  0  0  1  0  0  0  0  0999 V2000
    9.4836  -12.6626   19.7645 C   0  0  0  0  0  0  0  0  0  0  0  0
    8.6610  -13.2192   18.6356 C   0  0  2  0  0  0  0  0  0  0  0  0
    7.2071  -13.0211   18.9611 C   0  0  0  0  0  0  0  0  0  0  0  0
    8.9445  -14.6972   18.3987 C   0  0  2  0  0  0  0  0  0  0  0  0
    8.2110  -15.1805   17.2561 N   0  0  0  0  0  0  0  0  0  0  0  0
    8.5391  -15.4744   19.6135 C   0  0  0  0  0  0  0  0  0  0  0  0
    7.3113  -15.6871   19.7762 O   0  0  0  0  0  0  0  0  0  0  0  0
   11.7443  -19.2530   19.6112 N   0  0  0  0  0  0  0  0  0  0  0  0
   12.1984  -18.9269   20.9089 C   0  0  0  0  0  0  0  0  0  0  0  0
   13.2521  -19.4320   21.3320 O   0  0  0  0  0  0  0  0  0  0  0  0
   11.4242  -17.9977   21.7277 C   0  0  0  0  0  0  0  0  0  0  0  0
    9.9637  -17.9775   21.5896 C   0  0  0  0  0  0  0  0  0  0  0  0
    9.1726  -16.7497   21.7006 C   0  0  2  0  0  0  0  0  0  0  0  0
    9.5335  -15.9284   20.5104 N   0  0  0  0  0  0  0  0  0  0  0  0
    9.3022  -15.8902   22.8644 C   0  0  0  0  0  0  0  0  0  0  0  0
   10.2790  -15.0586   22.9536 O   0  0  0  0  0  0  0  0  0  0  0  0
    6.3628  -10.8900   28.0143 C   0  0  0  0  0  0  0  0  0  0  0  0
    6.0871  -12.1758   26.7968 S   0  0  0  0  0  0  0  0  0  0  0  0
    7.5319  -13.1303   26.3888 C   0  0  0  0  0  0  0  0  0  0  0  0
    7.3955  -14.1081   25.2803 C   0  0  0  0  0  0  0  0  0  0  0  0
    8.6829  -14.9319   25.0952 C   0  0  2  0  0  0  0  0  0  0  0  0
    8.4184  -15.8404   23.9882 N   0  0  0  0  0  0  0  0  0  0  0  0
    9.0553  -15.6083   26.3412 C   0  0  0  0  0  0  0  0  0  0  0  0
    8.8842  -16.8213   26.5072 O   0  0  0  0  0  0  0  0  0  0  0  0
    9.6146  -14.8525   27.3499 O   0  0  0  0  0  0  0  0  0  0  0  0
  2  1  1  1
  2  3  1  0
  4  6  1  0
  4  2  1  0
  4  5  1  6
  6  7  2  0
  6 14  1  0
  9  8  1  0
 10  9  2  0
 11  9  1  0
 12 11  1  0
 13 12  1  1
 14 13  1  0
 15 16  2  0
 15 13  1  0
 18 17  1  0
 19 18  1  0
 19 20  1  0
 21 20  1  1
 21 23  1  0
 21 22  1  0
 22 15  1  0
 23 25  1  0
 24 23  2  0
M  END
$$$$
