VQM.pdb
     RDKit          3D

 25 24  0  0  1  0  0  0  0  0999 V2000
    7.4007  -12.8703   21.0647 C   0  0  0  0  0  0  0  0  0  0  0  0
    8.3922  -13.2807   20.0115 C   0  0  2  0  0  0  0  0  0  0  0  0
    8.2052  -12.3980   18.8095 C   0  0  0  0  0  0  0  0  0  0  0  0
    8.2292  -14.7425   19.6141 C   0  0  2  0  0  0  0  0  0  0  0  0
    6.9279  -14.9726   19.0391 N   0  0  0  0  0  0  0  0  0  0  0  0
    8.3933  -15.6016   20.8303 C   0  0  0  0  0  0  0  0  0  0  0  0
    7.3529  -15.8947   21.4713 O   0  0  0  0  0  0  0  0  0  0  0  0
   11.4275  -21.1281   23.5877 N   0  0  0  0  0  0  0  0  0  0  0  0
   11.5021  -20.1985   22.5261 C   0  0  0  0  0  0  0  0  0  0  0  0
   11.3983  -20.6000   21.3546 O   0  0  0  0  0  0  0  0  0  0  0  0
   11.6940  -18.7818   22.8250 C   0  0  0  0  0  0  0  0  0  0  0  0
   11.0897  -17.7813   21.9382 C   0  0  0  0  0  0  0  0  0  0  0  0
    9.8703  -17.0472   22.2838 C   0  0  2  0  0  0  0  0  0  0  0  0
    9.6855  -16.0398   21.2010 N   0  0  0  0  0  0  0  0  0  0  0  0
    9.7688  -16.3364   23.5465 C   0  0  0  0  0  0  0  0  0  0  0  0
   10.4116  -15.2376   23.7283 O   0  0  0  0  0  0  0  0  0  0  0  0
    7.0776  -11.1052   26.6714 C   0  0  0  0  0  0  0  0  0  0  0  0
    6.7265  -12.8562   26.5229 S   0  0  0  0  0  0  0  0  0  0  0  0
    8.1670  -13.8891   26.3697 C   0  0  0  0  0  0  0  0  0  0  0  0
    7.9373  -15.3553   26.3380 C   0  0  0  0  0  0  0  0  0  0  0  0
    9.2262  -16.1190   25.9831 C   0  0  2  0  0  0  0  0  0  0  0  0
    8.9854  -16.7222   24.6796 N   0  0  0  0  0  0  0  0  0  0  0  0
    9.5666  -17.0865   27.0302 C   0  0  0  0  0  0  0  0  0  0  0  0
    9.2627  -18.2818   26.9449 O   0  0  0  0  0  0  0  0  0  0  0  0
   10.2493  -16.6323   28.1389 O   0  0  0  0  0  0  0  0  0  0  0  0
  2  1  1  1
  2  3  1  0
  4  6  1  0
  4  2  1  0
  4  5  1  1
  6  7  2  0
  6 14  1  0
  9  8  1  0
 10  9  2  0
 11  9  1  0
 12 11  1  0
 13 12  1  6
 14 13  1  0
 15 16  2  0
 15 13  1  0
 18 17  1  0
 19 18  1  0
 19 20  1  0
 21 20  1  1
 21 23  1  0
 21 22  1  0
 22 15  1  0
 23 25  1  0
 24 23  2  0
M  END
$$$$
