VQM.pdb
     RDKit          3D

 25 24  0  0  1  0  0  0  0  0999 V2000
    7.6048  -12.9232   19.8023 C   0  0  0  0  0  0  0  0  0  0  0  0
    8.7870  -13.6950   19.2850 C   0  0  2  0  0  0  0  0  0  0  0  0
    9.2333  -13.0747   17.9908 C   0  0  0  0  0  0  0  0  0  0  0  0
    8.4570  -15.1668   19.0701 C   0  0  2  0  0  0  0  0  0  0  0  0
    7.5121  -15.3256   17.9935 N   0  0  0  0  0  0  0  0  0  0  0  0
    7.8718  -15.7264   20.3304 C   0  0  0  0  0  0  0  0  0  0  0  0
    6.6592  -15.4866   20.5569 O   0  0  0  0  0  0  0  0  0  0  0  0
    6.0780  -20.0385   23.2650 N   0  0  0  0  0  0  0  0  0  0  0  0
    7.0359  -19.5409   24.1769 C   0  0  0  0  0  0  0  0  0  0  0  0
    6.7086  -19.3445   25.3596 O   0  0  0  0  0  0  0  0  0  0  0  0
    8.3949  -19.2720   23.7146 C   0  0  0  0  0  0  0  0  0  0  0  0
    8.5878  -18.4244   22.5327 C   0  0  0  0  0  0  0  0  0  0  0  0
    8.1530  -17.0267   22.4785 C   0  0  2  0  0  0  0  0  0  0  0  0
    8.6902  -16.4867   21.1974 N   0  0  0  0  0  0  0  0  0  0  0  0
    8.5332  -16.0937   23.5249 C   0  0  0  0  0  0  0  0  0  0  0  0
    9.7331  -15.6351   23.5834 O   0  0  0  0  0  0  0  0  0  0  0  0
    5.2895  -10.8442   26.5616 C   0  0  0  0  0  0  0  0  0  0  0  0
    6.1120  -11.8608   27.7869 S   0  0  0  0  0  0  0  0  0  0  0  0
    7.3938  -12.9100   27.1378 C   0  0  0  0  0  0  0  0  0  0  0  0
    7.0181  -13.8088   26.0178 C   0  0  0  0  0  0  0  0  0  0  0  0
    8.2130  -14.6634   25.5572 C   0  0  2  0  0  0  0  0  0  0  0  0
    7.6850  -15.5793   24.5557 N   0  0  0  0  0  0  0  0  0  0  0  0
    8.8481  -15.3326   26.6963 C   0  0  0  0  0  0  0  0  0  0  0  0
    9.5680  -14.7257   27.4974 O   0  0  0  0  0  0  0  0  0  0  0  0
    8.6235  -16.6825   26.8658 O   0  0  0  0  0  0  0  0  0  0  0  0
  2  1  1  6
  2  3  1  0
  4  6  1  0
  4  2  1  0
  4  5  1  6
  6  7  2  0
  6 14  1  0
  9  8  1  0
 10  9  2  0
 11  9  1  0
 12 11  1  0
 13 12  1  1
 14 13  1  0
 15 16  2  0
 15 13  1  0
 18 17  1  0
 19 18  1  0
 19 20  1  0
 21 20  1  1
 21 23  1  0
 21 22  1  0
 22 15  1  0
 23 25  1  0
 24 23  2  0
M  END
$$$$
