VQM.pdb
     RDKit          3D

 25 24  0  0  1  0  0  0  0  0999 V2000
    9.2873  -12.6051   20.2650 C   0  0  0  0  0  0  0  0  0  0  0  0
    8.0273  -13.0799   19.5957 C   0  0  2  0  0  0  0  0  0  0  0  0
    6.8670  -12.8016   20.5095 C   0  0  0  0  0  0  0  0  0  0  0  0
    8.0836  -14.5657   19.2635 C   0  0  2  0  0  0  0  0  0  0  0  0
    6.9087  -14.9699   18.5333 N   0  0  0  0  0  0  0  0  0  0  0  0
    8.1699  -15.3492   20.5374 C   0  0  0  0  0  0  0  0  0  0  0  0
    7.0935  -15.5828   21.1425 O   0  0  0  0  0  0  0  0  0  0  0  0
   12.6990  -19.4414   20.9922 N   0  0  0  0  0  0  0  0  0  0  0  0
   12.1090  -19.6346   22.2615 C   0  0  0  0  0  0  0  0  0  0  0  0
   12.5082  -20.5624   22.9855 O   0  0  0  0  0  0  0  0  0  0  0  0
   11.0446  -18.7369   22.7022 C   0  0  0  0  0  0  0  0  0  0  0  0
   10.5860  -17.6801   21.7936 C   0  0  0  0  0  0  0  0  0  0  0  0
    9.5440  -16.7171   22.1575 C   0  0  2  0  0  0  0  0  0  0  0  0
    9.4330  -15.7860   20.9990 N   0  0  0  0  0  0  0  0  0  0  0  0
    9.6792  -15.8976   23.3492 C   0  0  0  0  0  0  0  0  0  0  0  0
   10.0663  -14.6748   23.2575 O   0  0  0  0  0  0  0  0  0  0  0  0
    6.9362  -11.0878   25.0782 C   0  0  0  0  0  0  0  0  0  0  0  0
    6.7964  -12.2049   26.4724 S   0  0  0  0  0  0  0  0  0  0  0  0
    8.1271  -13.3768   26.6176 C   0  0  0  0  0  0  0  0  0  0  0  0
    8.2590  -14.3761   25.5278 C   0  0  0  0  0  0  0  0  0  0  0  0
    9.4429  -15.3281   25.7778 C   0  0  2  0  0  0  0  0  0  0  0  0
    9.4072  -16.3007   24.6946 N   0  0  0  0  0  0  0  0  0  0  0  0
    9.3611  -15.9255   27.1139 C   0  0  0  0  0  0  0  0  0  0  0  0
    9.5279  -15.2605   28.1426 O   0  0  0  0  0  0  0  0  0  0  0  0
    9.0872  -17.2737   27.2082 O   0  0  0  0  0  0  0  0  0  0  0  0
  2  1  1  1
  2  3  1  0
  4  6  1  0
  4  2  1  0
  4  5  1  1
  6  7  2  0
  6 14  1  0
  9  8  1  0
 10  9  2  0
 11  9  1  0
 12 11  1  0
 13 12  1  6
 14 13  1  0
 15 16  2  0
 15 13  1  0
 18 17  1  0
 19 18  1  0
 19 20  1  0
 21 20  1  6
 21 23  1  0
 21 22  1  0
 22 15  1  0
 23 25  1  0
 24 23  2  0
M  END
$$$$
