VQM.pdb
     RDKit          3D

 25 24  0  0  1  0  0  0  0  0999 V2000
    6.8587  -14.6144   18.4620 C   0  0  0  0  0  0  0  0  0  0  0  0
    7.5830  -13.4875   19.1450 C   0  0  2  0  0  0  0  0  0  0  0  0
    8.0969  -12.5437   18.0944 C   0  0  0  0  0  0  0  0  0  0  0  0
    8.7374  -13.9893   20.0033 C   0  0  2  0  0  0  0  0  0  0  0  0
    9.6202  -14.8272   19.2315 N   0  0  0  0  0  0  0  0  0  0  0  0
    8.1867  -14.7756   21.1534 C   0  0  0  0  0  0  0  0  0  0  0  0
    7.2786  -14.2372   21.8352 O   0  0  0  0  0  0  0  0  0  0  0  0
    6.3721  -19.2318   23.8053 N   0  0  0  0  0  0  0  0  0  0  0  0
    6.5494  -19.6404   22.4643 C   0  0  0  0  0  0  0  0  0  0  0  0
    5.6917  -20.3619   21.9274 O   0  0  0  0  0  0  0  0  0  0  0  0
    7.7345  -19.2028   21.7315 C   0  0  0  0  0  0  0  0  0  0  0  0
    8.6346  -18.2267   22.3557 C   0  0  0  0  0  0  0  0  0  0  0  0
    8.2454  -16.8381   22.6117 C   0  0  2  0  0  0  0  0  0  0  0  0
    8.6997  -16.0658   21.4206 N   0  0  0  0  0  0  0  0  0  0  0  0
    8.7378  -16.1372   23.7849 C   0  0  0  0  0  0  0  0  0  0  0  0
    9.9646  -15.7573   23.8488 O   0  0  0  0  0  0  0  0  0  0  0  0
    6.5159  -10.4456   26.5805 C   0  0  0  0  0  0  0  0  0  0  0  0
    6.8356  -11.6640   27.8551 S   0  0  0  0  0  0  0  0  0  0  0  0
    7.9575  -12.9590   27.3759 C   0  0  0  0  0  0  0  0  0  0  0  0
    7.5208  -13.8452   26.2681 C   0  0  0  0  0  0  0  0  0  0  0  0
    8.5635  -14.9406   25.9795 C   0  0  2  0  0  0  0  0  0  0  0  0
    7.9797  -15.7835   24.9454 N   0  0  0  0  0  0  0  0  0  0  0  0
    8.9159  -15.6637   27.2049 C   0  0  0  0  0  0  0  0  0  0  0  0
    9.4779  -15.1098   28.1565 O   0  0  0  0  0  0  0  0  0  0  0  0
    8.6020  -17.0042   27.2825 O   0  0  0  0  0  0  0  0  0  0  0  0
  2  1  1  6
  2  3  1  0
  4  6  1  0
  4  2  1  0
  4  5  1  6
  6  7  2  0
  6 14  1  0
  9  8  1  0
 10  9  2  0
 11  9  1  0
 12 11  1  0
 13 12  1  6
 14 13  1  0
 15 16  2  0
 15 13  1  0
 18 17  1  0
 19 18  1  0
 19 20  1  0
 21 20  1  1
 21 23  1  0
 21 22  1  0
 22 15  1  0
 23 25  1  0
 24 23  2  0
M  END
$$$$
