VQM.pdb
     RDKit          3D

 25 24  0  0  1  0  0  0  0  0999 V2000
    7.4911  -12.2161   19.3420 C   0  0  0  0  0  0  0  0  0  0  0  0
    8.3661  -13.1014   18.4985 C   0  0  2  0  0  0  0  0  0  0  0  0
    7.5257  -14.2196   17.9488 C   0  0  0  0  0  0  0  0  0  0  0  0
    9.5350  -13.6707   19.2926 C   0  0  2  0  0  0  0  0  0  0  0  0
   10.4082  -14.4350   18.4379 N   0  0  0  0  0  0  0  0  0  0  0  0
    9.0044  -14.5557   20.3785 C   0  0  0  0  0  0  0  0  0  0  0  0
    8.1718  -14.0528   21.1743 O   0  0  0  0  0  0  0  0  0  0  0  0
   11.0179  -20.4477   23.4705 N   0  0  0  0  0  0  0  0  0  0  0  0
   10.4563  -20.2109   22.1957 C   0  0  0  0  0  0  0  0  0  0  0  0
   10.9292  -20.7901   21.2030 O   0  0  0  0  0  0  0  0  0  0  0  0
    9.3265  -19.2941   22.0683 C   0  0  0  0  0  0  0  0  0  0  0  0
    9.4455  -18.1419   21.1680 C   0  0  0  0  0  0  0  0  0  0  0  0
    8.9009  -16.8214   21.4921 C   0  0  2  0  0  0  0  0  0  0  0  0
    9.4519  -15.8943   20.4632 N   0  0  0  0  0  0  0  0  0  0  0  0
    9.1538  -16.2158   22.7879 C   0  0  0  0  0  0  0  0  0  0  0  0
   10.3297  -15.7917   23.0897 O   0  0  0  0  0  0  0  0  0  0  0  0
    7.0520  -10.7876   26.9725 C   0  0  0  0  0  0  0  0  0  0  0  0
    6.5796  -12.4916   27.2635 S   0  0  0  0  0  0  0  0  0  0  0  0
    7.7746  -13.6933   26.7222 C   0  0  0  0  0  0  0  0  0  0  0  0
    7.4989  -14.3758   25.4332 C   0  0  0  0  0  0  0  0  0  0  0  0
    8.5998  -15.3958   25.0900 C   0  0  2  0  0  0  0  0  0  0  0  0
    8.1974  -16.0076   23.8312 N   0  0  0  0  0  0  0  0  0  0  0  0
    8.7842  -16.3549   26.1830 C   0  0  0  0  0  0  0  0  0  0  0  0
    8.2987  -17.4913   26.1493 O   0  0  0  0  0  0  0  0  0  0  0  0
    9.5270  -15.9611   27.2760 O   0  0  0  0  0  0  0  0  0  0  0  0
  2  1  1  1
  2  3  1  0
  4  6  1  0
  4  2  1  0
  4  5  1  6
  6  7  2  0
  6 14  1  0
  9  8  1  0
 10  9  2  0
 11  9  1  0
 12 11  1  0
 13 12  1  1
 14 13  1  0
 15 16  2  0
 15 13  1  0
 18 17  1  0
 19 18  1  0
 19 20  1  0
 21 20  1  1
 21 23  1  0
 21 22  1  0
 22 15  1  0
 23 25  1  0
 24 23  2  0
M  END
$$$$
