IKN.pdb
     RDKit          3D

 26 25  0  0  1  0  0  0  0  0999 V2000
   27.6289  -19.0020   -5.6831 C   0  0  0  0  0  0  0  0  0  0  0  0
   27.2308  -20.3397   -6.2580 C   0  0  0  0  0  0  0  0  0  0  0  0
   27.3328  -20.2489   -7.7751 C   0  0  2  0  0  0  0  0  0  0  0  0
   28.1619  -19.0525   -8.1190 C   0  0  0  0  0  0  0  0  0  0  0  0
   25.9261  -20.0683   -8.2948 C   0  0  2  0  0  0  0  0  0  0  0  0
   25.1343  -21.1631   -7.7850 N   0  0  0  0  0  0  0  0  0  0  0  0
   25.9035  -19.9975   -9.7762 C   0  0  0  0  0  0  0  0  0  0  0  0
   26.5062  -19.0174  -10.2994 O   0  0  0  0  0  0  0  0  0  0  0  0
   25.2666  -20.9350  -10.5995 N   0  0  0  0  0  0  0  0  0  0  0  0
   25.2431  -20.7505  -12.0565 C   0  0  1  0  0  0  0  0  0  0  0  0
   25.8261  -22.0157  -12.6116 C   0  0  0  0  0  0  0  0  0  0  0  0
   25.7703  -22.1984  -14.0806 C   0  0  0  0  0  0  0  0  0  0  0  0
   27.2247  -22.0872  -14.5769 C   0  0  0  0  0  0  0  0  0  0  0  0
   27.2832  -22.2664  -16.0740 C   0  0  0  0  0  0  0  0  0  0  0  0
   28.6514  -22.0049  -16.4787 N   0  0  0  0  0  0  0  0  0  0  0  0
   23.8338  -20.5142  -12.4264 C   0  0  0  0  0  0  0  0  0  0  0  0
   22.8843  -20.9560  -11.7080 O   0  0  0  0  0  0  0  0  0  0  0  0
   19.4811  -19.0128  -14.6330 N   0  0  0  0  0  0  0  0  0  0  0  0
   20.5002  -18.1649  -15.1625 C   0  0  0  0  0  0  0  0  0  0  0  0
   20.1615  -17.2142  -15.9017 O   0  0  0  0  0  0  0  0  0  0  0  0
   21.9040  -18.4228  -14.8330 C   0  0  0  0  0  0  0  0  0  0  0  0
   22.0446  -19.5708  -13.8746 C   0  0  2  0  0  0  0  0  0  0  0  0
   23.4458  -19.7924  -13.5785 N   0  0  0  0  0  0  0  0  0  0  0  0
   21.4433  -20.7662  -14.5345 C   0  0  0  0  0  0  0  0  0  0  0  0
   20.1553  -21.1536  -14.2604 O   0  0  0  0  0  0  0  0  0  0  0  0
   22.1484  -21.4113  -15.3503 O   0  0  0  0  0  0  0  0  0  0  0  0
  1  2  1  0
  3  5  1  0
  3  2  1  0
  3  4  1  1
  5  6  1  6
  7  9  1  0
  7  5  1  0
  8  7  2  0
 10  9  1  0
 11 12  1  0
 10 11  1  6
 12 13  1  0
 13 14  1  0
 14 15  1  0
 16 23  1  0
 16 10  1  0
 17 16  2  0
 18 19  1  0
 19 20  2  0
 19 21  1  0
 22 21  1  6
 22 23  1  0
 22 24  1  0
 24 25  1  0
 26 24  2  0
M  END
$$$$
