IKN.pdb
     RDKit          3D

 26 25  0  0  1  0  0  0  0  0999 V2000
   26.6942  -14.3334  -15.4931 C   0  0  0  0  0  0  0  0  0  0  0  0
   25.1947  -14.5013  -15.4544 C   0  0  0  0  0  0  0  0  0  0  0  0
   24.5628  -13.1929  -15.9116 C   0  0  2  0  0  0  0  0  0  0  0  0
   24.9691  -12.1164  -14.9560 C   0  0  0  0  0  0  0  0  0  0  0  0
   23.0664  -13.3917  -15.8587 C   0  0  2  0  0  0  0  0  0  0  0  0
   22.7631  -14.5852  -16.6131 N   0  0  0  0  0  0  0  0  0  0  0  0
   22.3458  -12.2013  -16.3723 C   0  0  0  0  0  0  0  0  0  0  0  0
   22.8104  -11.6758  -17.4238 O   0  0  0  0  0  0  0  0  0  0  0  0
   21.2101  -11.6472  -15.7679 N   0  0  0  0  0  0  0  0  0  0  0  0
   20.5508  -10.4749  -16.3583 C   0  0  1  0  0  0  0  0  0  0  0  0
   19.1331  -10.9077  -16.5859 C   0  0  0  0  0  0  0  0  0  0  0  0
   18.8775  -11.8112  -17.7316 C   0  0  0  0  0  0  0  0  0  0  0  0
   17.3598  -12.0762  -17.7320 C   0  0  0  0  0  0  0  0  0  0  0  0
   16.9852  -12.9797  -18.8809 C   0  0  0  0  0  0  0  0  0  0  0  0
   15.5497  -13.1768  -18.8144 N   0  0  0  0  0  0  0  0  0  0  0  0
   20.7045   -9.3741  -15.3872 C   0  0  0  0  0  0  0  0  0  0  0  0
   20.5690   -9.5757  -14.1406 O   0  0  0  0  0  0  0  0  0  0  0  0
   22.7939   -5.2066  -12.7498 N   0  0  0  0  0  0  0  0  0  0  0  0
   22.3401   -5.0044  -14.0881 C   0  0  0  0  0  0  0  0  0  0  0  0
   21.9988   -3.8520  -14.4352 O   0  0  0  0  0  0  0  0  0  0  0  0
   22.2843   -6.1370  -15.0154 C   0  0  0  0  0  0  0  0  0  0  0  0
   21.0744   -6.9927  -14.7702 C   0  0  2  0  0  0  0  0  0  0  0  0
   21.0104   -8.0460  -15.7634 N   0  0  0  0  0  0  0  0  0  0  0  0
   19.8826   -6.0999  -14.8619 C   0  0  0  0  0  0  0  0  0  0  0  0
   19.4211   -5.4196  -13.7625 O   0  0  0  0  0  0  0  0  0  0  0  0
   19.3103   -5.9863  -15.9747 O   0  0  0  0  0  0  0  0  0  0  0  0
  1  2  1  0
  3  5  1  0
  3  2  1  0
  3  4  1  1
  5  6  1  6
  7  9  1  0
  7  5  1  0
  8  7  2  0
 10  9  1  0
 11 12  1  0
 10 11  1  1
 12 13  1  0
 13 14  1  0
 14 15  1  0
 16 23  1  0
 16 10  1  0
 17 16  2  0
 18 19  1  0
 19 20  2  0
 19 21  1  0
 22 21  1  6
 22 23  1  0
 22 24  1  0
 24 25  1  0
 26 24  2  0
M  END
$$$$
