IKN.pdb
     RDKit          3D

 26 25  0  0  1  0  0  0  0  0999 V2000
   28.1345  -17.3687  -16.2997 C   0  0  0  0  0  0  0  0  0  0  0  0
   28.4793  -18.7284  -15.7422 C   0  0  0  0  0  0  0  0  0  0  0  0
   27.1848  -19.5165  -15.5899 C   0  0  2  0  0  0  0  0  0  0  0  0
   26.3687  -19.3225  -16.8282 C   0  0  0  0  0  0  0  0  0  0  0  0
   26.4604  -18.9356  -14.3985 C   0  0  2  0  0  0  0  0  0  0  0  0
   27.3573  -19.0121  -13.2693 N   0  0  0  0  0  0  0  0  0  0  0  0
   25.1791  -19.6405  -14.1502 C   0  0  0  0  0  0  0  0  0  0  0  0
   24.5777  -20.0850  -15.1692 O   0  0  0  0  0  0  0  0  0  0  0  0
   24.6194  -19.8323  -12.8805 N   0  0  0  0  0  0  0  0  0  0  0  0
   23.3237  -20.5084  -12.7335 C   0  0  1  0  0  0  0  0  0  0  0  0
   23.0576  -20.5082  -11.2577 C   0  0  0  0  0  0  0  0  0  0  0  0
   21.7742  -21.0910  -10.8020 C   0  0  0  0  0  0  0  0  0  0  0  0
   21.9743  -21.4474   -9.3165 C   0  0  0  0  0  0  0  0  0  0  0  0
   20.6915  -21.9803   -8.7273 C   0  0  0  0  0  0  0  0  0  0  0  0
   20.9878  -22.3901   -7.3678 N   0  0  0  0  0  0  0  0  0  0  0  0
   22.3530  -19.7315  -13.5288 C   0  0  0  0  0  0  0  0  0  0  0  0
   22.5944  -18.5319  -13.8687 O   0  0  0  0  0  0  0  0  0  0  0  0
   19.7552  -16.3838  -16.3270 N   0  0  0  0  0  0  0  0  0  0  0  0
   19.5947  -17.0453  -15.0722 C   0  0  0  0  0  0  0  0  0  0  0  0
   18.5687  -16.8056  -14.3978 O   0  0  0  0  0  0  0  0  0  0  0  0
   20.6224  -17.9796  -14.6065 C   0  0  0  0  0  0  0  0  0  0  0  0
   20.0861  -19.3779  -14.4906 C   0  0  2  0  0  0  0  0  0  0  0  0
   21.1135  -20.2540  -13.9642 N   0  0  0  0  0  0  0  0  0  0  0  0
   19.6737  -19.8020  -15.8602 C   0  0  0  0  0  0  0  0  0  0  0  0
   18.3482  -19.9338  -16.1917 O   0  0  0  0  0  0  0  0  0  0  0  0
   20.5737  -20.0361  -16.7052 O   0  0  0  0  0  0  0  0  0  0  0  0
  1  2  1  0
  3  5  1  0
  3  2  1  0
  3  4  1  6
  5  6  1  1
  7  9  1  0
  7  5  1  0
  8  7  2  0
 10  9  1  0
 11 12  1  0
 10 11  1  1
 12 13  1  0
 13 14  1  0
 14 15  1  0
 16 23  1  0
 16 10  1  0
 17 16  2  0
 18 19  1  0
 19 20  2  0
 19 21  1  0
 22 21  1  6
 22 23  1  0
 22 24  1  0
 24 25  1  0
 26 24  2  0
M  END
$$$$
