IKN.pdb
     RDKit          3D

 26 25  0  0  1  0  0  0  0  0999 V2000
   18.2872  -14.5939  -18.3503 C   0  0  0  0  0  0  0  0  0  0  0  0
   18.5271  -13.8996  -17.0317 C   0  0  0  0  0  0  0  0  0  0  0  0
   18.2336  -12.4170  -17.2204 C   0  0  2  0  0  0  0  0  0  0  0  0
   19.1396  -11.8914  -18.2880 C   0  0  0  0  0  0  0  0  0  0  0  0
   18.5416  -11.7425  -15.9044 C   0  0  2  0  0  0  0  0  0  0  0  0
   17.7544  -12.4005  -14.8881 N   0  0  0  0  0  0  0  0  0  0  0  0
   18.2739  -10.2850  -15.9698 C   0  0  0  0  0  0  0  0  0  0  0  0
   18.9125   -9.6371  -16.8474 O   0  0  0  0  0  0  0  0  0  0  0  0
   17.3755   -9.6113  -15.1324 N   0  0  0  0  0  0  0  0  0  0  0  0
   17.1106   -8.1794  -15.3250 C   0  0  1  0  0  0  0  0  0  0  0  0
   15.7093   -7.9798  -14.8295 C   0  0  0  0  0  0  0  0  0  0  0  0
   14.6081   -8.3235  -15.7588 C   0  0  0  0  0  0  0  0  0  0  0  0
   13.3041   -8.1255  -14.9623 C   0  0  0  0  0  0  0  0  0  0  0  0
   12.1086   -8.4479  -15.8246 C   0  0  0  0  0  0  0  0  0  0  0  0
   10.9300   -8.2716  -14.9977 N   0  0  0  0  0  0  0  0  0  0  0  0
   18.1397   -7.4553  -14.5536 C   0  0  0  0  0  0  0  0  0  0  0  0
   18.6013   -7.9294  -13.4697 O   0  0  0  0  0  0  0  0  0  0  0  0
   22.1693   -4.5896  -13.3619 N   0  0  0  0  0  0  0  0  0  0  0  0
   22.2226   -5.9177  -13.8827 C   0  0  0  0  0  0  0  0  0  0  0  0
   23.3168   -6.5238  -13.8615 O   0  0  0  0  0  0  0  0  0  0  0  0
   21.0098   -6.5351  -14.4243 C   0  0  0  0  0  0  0  0  0  0  0  0
   19.8149   -5.6391  -14.2643 C   0  0  2  0  0  0  0  0  0  0  0  0
   18.6777   -6.2115  -14.9566 N   0  0  0  0  0  0  0  0  0  0  0  0
   20.1817   -4.3148  -14.8452 C   0  0  0  0  0  0  0  0  0  0  0  0
   21.1571   -3.5363  -14.2733 O   0  0  0  0  0  0  0  0  0  0  0  0
   19.5731   -3.9290  -15.8745 O   0  0  0  0  0  0  0  0  0  0  0  0
  1  2  1  0
  3  5  1  0
  3  2  1  0
  3  4  1  6
  5  6  1  1
  7  9  1  0
  7  5  1  0
  8  7  2  0
 10  9  1  0
 11 12  1  0
 10 11  1  1
 12 13  1  0
 13 14  1  0
 14 15  1  0
 16 23  1  0
 16 10  1  0
 17 16  2  0
 18 19  1  0
 19 20  2  0
 19 21  1  0
 22 21  1  6
 22 23  1  0
 22 24  1  0
 24 25  1  0
 26 24  2  0
M  END
$$$$
