IKN.pdb
     RDKit          3D

 26 25  0  0  1  0  0  0  0  0999 V2000
   29.2579  -19.4615   -3.5154 C   0  0  0  0  0  0  0  0  0  0  0  0
   28.7298  -18.7706   -4.7492 C   0  0  0  0  0  0  0  0  0  0  0  0
   28.1914  -19.8386   -5.6923 C   0  0  2  0  0  0  0  0  0  0  0  0
   29.2945  -20.8051   -5.9857 C   0  0  0  0  0  0  0  0  0  0  0  0
   27.7763  -19.1294   -6.9597 C   0  0  2  0  0  0  0  0  0  0  0  0
   26.9109  -18.0377   -6.5792 N   0  0  0  0  0  0  0  0  0  0  0  0
   27.1233  -20.0621   -7.9104 C   0  0  0  0  0  0  0  0  0  0  0  0
   27.8056  -21.0631   -8.2710 O   0  0  0  0  0  0  0  0  0  0  0  0
   25.8268  -19.8936   -8.4133 N   0  0  0  0  0  0  0  0  0  0  0  0
   25.2787  -20.8441   -9.3899 C   0  0  1  0  0  0  0  0  0  0  0  0
   23.8116  -20.9025   -9.0850 C   0  0  0  0  0  0  0  0  0  0  0  0
   23.4036  -21.6316   -7.8618 C   0  0  0  0  0  0  0  0  0  0  0  0
   21.8629  -21.6381   -7.8663 C   0  0  0  0  0  0  0  0  0  0  0  0
   21.3376  -22.3412   -6.6389 C   0  0  0  0  0  0  0  0  0  0  0  0
   19.8913  -22.2374   -6.6777 N   0  0  0  0  0  0  0  0  0  0  0  0
   25.6036  -20.3067  -10.7257 C   0  0  0  0  0  0  0  0  0  0  0  0
   25.9587  -19.0969  -10.8772 O   0  0  0  0  0  0  0  0  0  0  0  0
   28.8573  -20.9521  -15.3932 N   0  0  0  0  0  0  0  0  0  0  0  0
   27.8768  -20.2074  -14.6707 C   0  0  0  0  0  0  0  0  0  0  0  0
   27.4150  -19.1671  -15.1899 O   0  0  0  0  0  0  0  0  0  0  0  0
   27.4376  -20.6715  -13.3526 C   0  0  0  0  0  0  0  0  0  0  0  0
   25.9533  -20.5188  -13.1795 C   0  0  2  0  0  0  0  0  0  0  0  0
   25.5485  -21.0816  -11.9069 N   0  0  0  0  0  0  0  0  0  0  0  0
   25.3053  -21.2412  -14.3126 C   0  0  0  0  0  0  0  0  0  0  0  0
   25.3519  -20.7414  -15.5903 O   0  0  0  0  0  0  0  0  0  0  0  0
   24.7140  -22.3222  -14.0667 O   0  0  0  0  0  0  0  0  0  0  0  0
  1  2  1  0
  3  5  1  0
  3  2  1  0
  3  4  1  6
  5  6  1  1
  7  9  1  0
  7  5  1  0
  8  7  2  0
 10  9  1  0
 11 12  1  0
 10 11  1  6
 12 13  1  0
 13 14  1  0
 14 15  1  0
 16 23  1  0
 16 10  1  0
 17 16  2  0
 18 19  1  0
 19 20  2  0
 19 21  1  0
 22 21  1  6
 22 23  1  0
 22 24  1  0
 24 25  1  0
 26 24  2  0
M  END
$$$$
