IKN.pdb
     RDKit          3D

 26 25  0  0  1  0  0  0  0  0999 V2000
   32.1185  -23.7985  -21.5990 C   0  0  0  0  0  0  0  0  0  0  0  0
   32.0773  -24.4039  -20.2169 C   0  0  0  0  0  0  0  0  0  0  0  0
   30.7406  -25.1160  -20.0548 C   0  0  2  0  0  0  0  0  0  0  0  0
   29.6563  -24.0857  -20.0598 C   0  0  0  0  0  0  0  0  0  0  0  0
   30.7810  -25.8160  -18.7170 C   0  0  2  0  0  0  0  0  0  0  0  0
   31.9765  -26.6256  -18.6899 N   0  0  0  0  0  0  0  0  0  0  0  0
   29.5526  -26.6157  -18.4896 C   0  0  0  0  0  0  0  0  0  0  0  0
   28.7547  -26.7066  -19.4657 O   0  0  0  0  0  0  0  0  0  0  0  0
   29.2423  -27.2561  -17.2830 N   0  0  0  0  0  0  0  0  0  0  0  0
   28.0182  -28.0587  -17.1605 C   0  0  1  0  0  0  0  0  0  0  0  0
   28.4440  -29.2964  -16.4286 C   0  0  0  0  0  0  0  0  0  0  0  0
   27.3772  -30.2343  -16.0086 C   0  0  0  0  0  0  0  0  0  0  0  0
   27.9011  -31.6459  -16.3357 C   0  0  0  0  0  0  0  0  0  0  0  0
   26.8481  -32.6811  -16.0257 C   0  0  0  0  0  0  0  0  0  0  0  0
   27.3099  -33.9364  -16.5871 N   0  0  0  0  0  0  0  0  0  0  0  0
   27.0415  -27.2249  -16.4329 C   0  0  0  0  0  0  0  0  0  0  0  0
   27.4228  -26.3033  -15.6468 O   0  0  0  0  0  0  0  0  0  0  0  0
   23.1435  -23.7326  -17.9323 N   0  0  0  0  0  0  0  0  0  0  0  0
   24.2088  -23.9828  -17.0156 C   0  0  0  0  0  0  0  0  0  0  0  0
   24.3577  -23.2055  -16.0467 O   0  0  0  0  0  0  0  0  0  0  0  0
   25.0942  -25.1305  -17.2261 C   0  0  0  0  0  0  0  0  0  0  0  0
   24.7471  -26.2711  -16.3124 C   0  0  2  0  0  0  0  0  0  0  0  0
   25.6421  -27.3842  -16.5572 N   0  0  0  0  0  0  0  0  0  0  0  0
   23.3336  -26.6491  -16.6040 C   0  0  0  0  0  0  0  0  0  0  0  0
   23.0329  -27.8246  -17.2459 O   0  0  0  0  0  0  0  0  0  0  0  0
   22.4226  -25.8614  -16.2459 O   0  0  0  0  0  0  0  0  0  0  0  0
  1  2  1  0
  3  5  1  0
  3  2  1  0
  3  4  1  1
  5  6  1  6
  7  9  1  0
  7  5  1  0
  8  7  2  0
 10  9  1  0
 11 12  1  0
 10 11  1  1
 12 13  1  0
 13 14  1  0
 14 15  1  0
 16 23  1  0
 16 10  1  0
 17 16  2  0
 18 19  1  0
 19 20  2  0
 19 21  1  0
 22 21  1  6
 22 23  1  0
 22 24  1  0
 24 25  1  0
 26 24  2  0
M  END
$$$$
