IKN.pdb
     RDKit          3D

 26 25  0  0  1  0  0  0  0  0999 V2000
   30.6830  -21.4225  -10.4133 C   0  0  0  0  0  0  0  0  0  0  0  0
   29.2423  -21.8292  -10.2204 C   0  0  0  0  0  0  0  0  0  0  0  0
   28.3810  -20.9498  -11.1176 C   0  0  2  0  0  0  0  0  0  0  0  0
   28.5305  -19.5313  -10.6675 C   0  0  0  0  0  0  0  0  0  0  0  0
   26.9527  -21.4033  -10.9281 C   0  0  2  0  0  0  0  0  0  0  0  0
   26.9010  -22.8104  -11.2488 N   0  0  0  0  0  0  0  0  0  0  0  0
   26.0182  -20.6015  -11.7550 C   0  0  0  0  0  0  0  0  0  0  0  0
   25.7714  -19.4312  -11.3461 O   0  0  0  0  0  0  0  0  0  0  0  0
   25.4137  -21.0630  -12.9314 N   0  0  0  0  0  0  0  0  0  0  0  0
   24.4517  -20.2197  -13.6533 C   0  0  1  0  0  0  0  0  0  0  0  0
   25.0328  -20.0671  -15.0274 C   0  0  0  0  0  0  0  0  0  0  0  0
   24.5899  -18.8985  -15.8227 C   0  0  0  0  0  0  0  0  0  0  0  0
   23.7217  -19.4659  -16.9621 C   0  0  0  0  0  0  0  0  0  0  0  0
   23.3969  -18.3842  -17.9627 C   0  0  0  0  0  0  0  0  0  0  0  0
   22.2997  -17.6124  -17.4110 N   0  0  0  0  0  0  0  0  0  0  0  0
   23.1586  -20.9302  -13.6129 C   0  0  0  0  0  0  0  0  0  0  0  0
   23.0950  -22.1866  -13.7869 O   0  0  0  0  0  0  0  0  0  0  0  0
   18.3239  -22.2926  -12.7218 N   0  0  0  0  0  0  0  0  0  0  0  0
   18.8305  -21.4555  -11.6823 C   0  0  0  0  0  0  0  0  0  0  0  0
   18.1933  -21.3858  -10.6080 O   0  0  0  0  0  0  0  0  0  0  0  0
   20.0706  -20.7048  -11.8931 C   0  0  0  0  0  0  0  0  0  0  0  0
   20.7065  -21.0473  -13.2101 C   0  0  2  0  0  0  0  0  0  0  0  0
   21.9247  -20.2808  -13.3794 N   0  0  0  0  0  0  0  0  0  0  0  0
   19.7145  -20.7141  -14.2734 C   0  0  0  0  0  0  0  0  0  0  0  0
   18.7243  -21.5992  -14.6207 O   0  0  0  0  0  0  0  0  0  0  0  0
   19.8088  -19.5990  -14.8448 O   0  0  0  0  0  0  0  0  0  0  0  0
  1  2  1  0
  3  5  1  0
  3  2  1  0
  3  4  1  1
  5  6  1  6
  7  9  1  0
  7  5  1  0
  8  7  2  0
 10  9  1  0
 11 12  1  0
 10 11  1  6
 12 13  1  0
 13 14  1  0
 14 15  1  0
 16 23  1  0
 16 10  1  0
 17 16  2  0
 18 19  1  0
 19 20  2  0
 19 21  1  0
 22 21  1  1
 22 23  1  0
 22 24  1  0
 24 25  1  0
 26 24  2  0
M  END
$$$$
