IKN.pdb
     RDKit          3D

 26 25  0  0  1  0  0  0  0  0999 V2000
   23.0274  -15.3050  -17.5761 C   0  0  0  0  0  0  0  0  0  0  0  0
   23.1607  -14.0941  -16.6849 C   0  0  0  0  0  0  0  0  0  0  0  0
   24.3533  -13.2810  -17.1714 C   0  0  2  0  0  0  0  0  0  0  0  0
   25.5958  -14.0758  -16.9236 C   0  0  0  0  0  0  0  0  0  0  0  0
   24.3791  -12.0139  -16.3496 C   0  0  2  0  0  0  0  0  0  0  0  0
   24.4857  -12.4016  -14.9627 N   0  0  0  0  0  0  0  0  0  0  0  0
   23.1826  -11.1771  -16.6112 C   0  0  0  0  0  0  0  0  0  0  0  0
   23.1101  -10.6457  -17.7557 O   0  0  0  0  0  0  0  0  0  0  0  0
   22.1597  -10.9534  -15.6806 N   0  0  0  0  0  0  0  0  0  0  0  0
   21.0338  -10.0699  -16.0114 C   0  0  1  0  0  0  0  0  0  0  0  0
   19.8150  -10.8194  -15.5624 C   0  0  0  0  0  0  0  0  0  0  0  0
   18.7993  -11.1378  -16.5925 C   0  0  0  0  0  0  0  0  0  0  0  0
   18.0076  -12.3427  -16.0490 C   0  0  0  0  0  0  0  0  0  0  0  0
   16.9868  -12.7997  -17.0617 C   0  0  0  0  0  0  0  0  0  0  0  0
   16.2215  -13.8641  -16.4410 N   0  0  0  0  0  0  0  0  0  0  0  0
   21.2703   -8.8026  -15.2926 C   0  0  0  0  0  0  0  0  0  0  0  0
   22.1159   -8.7325  -14.3477 O   0  0  0  0  0  0  0  0  0  0  0  0
   23.4674   -3.7833  -15.2175 N   0  0  0  0  0  0  0  0  0  0  0  0
   22.7554   -4.7849  -14.4911 C   0  0  0  0  0  0  0  0  0  0  0  0
   22.4749   -4.5665  -13.2917 O   0  0  0  0  0  0  0  0  0  0  0  0
   22.3730   -6.0320  -15.1574 C   0  0  0  0  0  0  0  0  0  0  0  0
   20.9290   -6.3675  -14.9153 C   0  0  2  0  0  0  0  0  0  0  0  0
   20.5918   -7.6004  -15.5981 N   0  0  0  0  0  0  0  0  0  0  0  0
   20.1222   -5.2283  -15.4416 C   0  0  0  0  0  0  0  0  0  0  0  0
   19.7060   -4.2140  -14.6156 O   0  0  0  0  0  0  0  0  0  0  0  0
   19.8326   -5.2210  -16.6643 O   0  0  0  0  0  0  0  0  0  0  0  0
  1  2  1  0
  3  5  1  0
  3  2  1  0
  3  4  1  1
  5  6  1  1
  7  9  1  0
  7  5  1  0
  8  7  2  0
 10  9  1  0
 11 12  1  0
 10 11  1  1
 12 13  1  0
 13 14  1  0
 14 15  1  0
 16 23  1  0
 16 10  1  0
 17 16  2  0
 18 19  1  0
 19 20  2  0
 19 21  1  0
 22 21  1  6
 22 23  1  0
 22 24  1  0
 24 25  1  0
 26 24  2  0
M  END
$$$$
