IKN.pdb
     RDKit          3D

 26 25  0  0  1  0  0  0  0  0999 V2000
   20.9851  -15.2705  -19.4259 C   0  0  0  0  0  0  0  0  0  0  0  0
   22.4296  -15.4687  -19.0357 C   0  0  0  0  0  0  0  0  0  0  0  0
   22.5418  -16.8023  -18.3083 C   0  0  2  0  0  0  0  0  0  0  0  0
   21.6360  -16.7655  -17.1187 C   0  0  0  0  0  0  0  0  0  0  0  0
   23.9781  -16.9325  -17.8593 C   0  0  2  0  0  0  0  0  0  0  0  0
   24.8025  -16.9275  -19.0449 N   0  0  0  0  0  0  0  0  0  0  0  0
   24.1779  -18.1516  -17.0383 C   0  0  0  0  0  0  0  0  0  0  0  0
   23.9734  -19.2565  -17.6170 O   0  0  0  0  0  0  0  0  0  0  0  0
   24.5703  -18.1393  -15.6936 N   0  0  0  0  0  0  0  0  0  0  0  0
   24.6411  -19.3911  -14.9284 C   0  0  1  0  0  0  0  0  0  0  0  0
   25.8055  -19.2073  -14.0013 C   0  0  0  0  0  0  0  0  0  0  0  0
   26.7394  -20.3476  -13.8544 C   0  0  0  0  0  0  0  0  0  0  0  0
   27.2648  -20.6503  -15.2708 C   0  0  0  0  0  0  0  0  0  0  0  0
   28.1902  -21.8418  -15.2436 C   0  0  0  0  0  0  0  0  0  0  0  0
   28.5498  -22.1303  -16.6189 N   0  0  0  0  0  0  0  0  0  0  0  0
   23.3389  -19.5420  -14.2501 C   0  0  0  0  0  0  0  0  0  0  0  0
   22.6909  -18.5290  -13.8417 O   0  0  0  0  0  0  0  0  0  0  0  0
   18.9273  -21.0981  -12.3231 N   0  0  0  0  0  0  0  0  0  0  0  0
   19.0873  -20.2749  -13.4783 C   0  0  0  0  0  0  0  0  0  0  0  0
   18.0785  -19.7043  -13.9492 O   0  0  0  0  0  0  0  0  0  0  0  0
   20.4133  -20.1175  -14.0806 C   0  0  0  0  0  0  0  0  0  0  0  0
   21.4597  -20.8806  -13.3197 C   0  0  2  0  0  0  0  0  0  0  0  0
   22.7290  -20.7954  -14.0138 N   0  0  0  0  0  0  0  0  0  0  0  0
   20.9924  -22.2948  -13.2339 C   0  0  0  0  0  0  0  0  0  0  0  0
   19.9185  -22.6396  -12.4516 O   0  0  0  0  0  0  0  0  0  0  0  0
   21.6091  -23.1650  -13.8983 O   0  0  0  0  0  0  0  0  0  0  0  0
  1  2  1  0
  3  5  1  0
  3  2  1  0
  3  4  1  1
  5  6  1  6
  7  9  1  0
  7  5  1  0
  8  7  2  0
 10  9  1  0
 11 12  1  0
 10 11  1  1
 12 13  1  0
 13 14  1  0
 14 15  1  0
 16 23  1  0
 16 10  1  0
 17 16  2  0
 18 19  1  0
 19 20  2  0
 19 21  1  0
 22 21  1  6
 22 23  1  0
 22 24  1  0
 24 25  1  0
 26 24  2  0
M  END
$$$$
