IKN.pdb
     RDKit          3D

 26 25  0  0  1  0  0  0  0  0999 V2000
   24.9600  -12.6827  -15.2962 C   0  0  0  0  0  0  0  0  0  0  0  0
   23.5877  -12.8803  -15.8929 C   0  0  0  0  0  0  0  0  0  0  0  0
   23.0566  -11.5160  -16.3133 C   0  0  2  0  0  0  0  0  0  0  0  0
   22.9703  -10.6506  -15.0965 C   0  0  0  0  0  0  0  0  0  0  0  0
   21.6764  -11.7441  -16.8831 C   0  0  2  0  0  0  0  0  0  0  0  0
   21.8141  -12.6557  -17.9946 N   0  0  0  0  0  0  0  0  0  0  0  0
   21.0380  -10.4649  -17.2782 C   0  0  0  0  0  0  0  0  0  0  0  0
   21.4672   -9.9290  -18.3394 O   0  0  0  0  0  0  0  0  0  0  0  0
   20.0138   -9.8400  -16.5552 N   0  0  0  0  0  0  0  0  0  0  0  0
   19.3804   -8.6180  -17.0682 C   0  0  1  0  0  0  0  0  0  0  0  0
   17.9269   -8.9648  -17.1946 C   0  0  0  0  0  0  0  0  0  0  0  0
   17.5104   -9.6999  -18.4113 C   0  0  0  0  0  0  0  0  0  0  0  0
   15.9924   -9.9235  -18.2726 C   0  0  0  0  0  0  0  0  0  0  0  0
   15.4605  -10.6709  -19.4706 C   0  0  0  0  0  0  0  0  0  0  0  0
   14.0699  -10.9781  -19.1951 N   0  0  0  0  0  0  0  0  0  0  0  0
   19.6707   -7.5526  -16.0888 C   0  0  0  0  0  0  0  0  0  0  0  0
   19.7364   -7.8045  -14.8458 O   0  0  0  0  0  0  0  0  0  0  0  0
   20.9844   -3.3068  -13.6556 N   0  0  0  0  0  0  0  0  0  0  0  0
   21.7847   -4.4849  -13.7520 C   0  0  0  0  0  0  0  0  0  0  0  0
   22.7709   -4.6007  -12.9910 O   0  0  0  0  0  0  0  0  0  0  0  0
   21.4386   -5.5208  -14.7281 C   0  0  0  0  0  0  0  0  0  0  0  0
   20.1572   -5.1999  -15.4432 C   0  0  2  0  0  0  0  0  0  0  0  0
   19.8956   -6.2052  -16.4536 N   0  0  0  0  0  0  0  0  0  0  0  0
   20.3284   -3.8533  -16.0622 C   0  0  0  0  0  0  0  0  0  0  0  0
   20.4846   -2.7318  -15.2862 O   0  0  0  0  0  0  0  0  0  0  0  0
   20.3259   -3.7718  -17.3161 O   0  0  0  0  0  0  0  0  0  0  0  0
  1  2  1  0
  3  5  1  0
  3  2  1  0
  3  4  1  1
  5  6  1  6
  7  9  1  0
  7  5  1  0
  8  7  2  0
 10  9  1  0
 11 12  1  0
 10 11  1  1
 12 13  1  0
 13 14  1  0
 14 15  1  0
 16 23  1  0
 16 10  1  0
 17 16  2  0
 18 19  1  0
 19 20  2  0
 19 21  1  0
 22 21  1  6
 22 23  1  0
 22 24  1  0
 24 25  1  0
 26 24  2  0
M  END
$$$$
