IKN.pdb
     RDKit          3D

 26 25  0  0  1  0  0  0  0  0999 V2000
   18.8020  -17.5422  -19.2746 C   0  0  0  0  0  0  0  0  0  0  0  0
   18.2360  -16.2373  -18.7694 C   0  0  0  0  0  0  0  0  0  0  0  0
   19.3664  -15.2170  -18.7326 C   0  0  2  0  0  0  0  0  0  0  0  0
   20.4088  -15.7057  -17.7779 C   0  0  0  0  0  0  0  0  0  0  0  0
   18.7689  -13.9251  -18.2272 C   0  0  2  0  0  0  0  0  0  0  0  0
   17.6986  -13.5640  -19.1269 N   0  0  0  0  0  0  0  0  0  0  0  0
   19.7973  -12.8618  -18.1181 C   0  0  0  0  0  0  0  0  0  0  0  0
   20.7565  -13.0892  -17.3271 O   0  0  0  0  0  0  0  0  0  0  0  0
   19.7592  -11.6542  -18.8271 N   0  0  0  0  0  0  0  0  0  0  0  0
   20.7518  -10.6045  -18.5615 C   0  0  1  0  0  0  0  0  0  0  0  0
   20.8177   -9.8103  -19.8319 C   0  0  0  0  0  0  0  0  0  0  0  0
   22.1586   -9.5843  -20.4193 C   0  0  0  0  0  0  0  0  0  0  0  0
   22.5310  -10.8933  -21.1416 C   0  0  0  0  0  0  0  0  0  0  0  0
   23.9150  -10.7905  -21.7337 C   0  0  0  0  0  0  0  0  0  0  0  0
   23.8486   -9.8067  -22.7976 N   0  0  0  0  0  0  0  0  0  0  0  0
   20.2595   -9.8480  -17.3937 C   0  0  0  0  0  0  0  0  0  0  0  0
   19.0155   -9.7112  -17.1778 O   0  0  0  0  0  0  0  0  0  0  0  0
   19.4646   -8.5668  -12.1889 N   0  0  0  0  0  0  0  0  0  0  0  0
   20.6175   -8.1588  -12.9252 C   0  0  0  0  0  0  0  0  0  0  0  0
   21.2016   -7.1062  -12.5848 O   0  0  0  0  0  0  0  0  0  0  0  0
   21.0865   -8.9715  -14.0500 C   0  0  0  0  0  0  0  0  0  0  0  0
   20.5736   -8.4482  -15.3613 C   0  0  2  0  0  0  0  0  0  0  0  0
   21.1160   -9.2374  -16.4490 N   0  0  0  0  0  0  0  0  0  0  0  0
   21.0111   -7.0256  -15.4645 C   0  0  0  0  0  0  0  0  0  0  0  0
   20.2993   -6.0201  -14.8591 O   0  0  0  0  0  0  0  0  0  0  0  0
   22.0511   -6.7707  -16.1219 O   0  0  0  0  0  0  0  0  0  0  0  0
  1  2  1  0
  3  5  1  0
  3  2  1  0
  3  4  1  1
  5  6  1  6
  7  9  1  0
  7  5  1  0
  8  7  2  0
 10  9  1  0
 11 12  1  0
 10 11  1  6
 12 13  1  0
 13 14  1  0
 14 15  1  0
 16 23  1  0
 16 10  1  0
 17 16  2  0
 18 19  1  0
 19 20  2  0
 19 21  1  0
 22 21  1  1
 22 23  1  0
 22 24  1  0
 24 25  1  0
 26 24  2  0
M  END
$$$$
