IKN.pdb
     RDKit          3D

 26 25  0  0  1  0  0  0  0  0999 V2000
   28.4548  -12.6048  -14.6917 C   0  0  0  0  0  0  0  0  0  0  0  0
   28.5172  -12.1369  -16.1254 C   0  0  0  0  0  0  0  0  0  0  0  0
   27.2057  -12.5152  -16.8013 C   0  0  2  0  0  0  0  0  0  0  0  0
   27.0703  -14.0042  -16.7627 C   0  0  0  0  0  0  0  0  0  0  0  0
   27.3029  -12.0429  -18.2327 C   0  0  2  0  0  0  0  0  0  0  0  0
   27.4118  -10.6032  -18.2053 N   0  0  0  0  0  0  0  0  0  0  0  0
   26.1432  -12.5060  -19.0332 C   0  0  0  0  0  0  0  0  0  0  0  0
   25.0513  -11.8993  -18.8401 O   0  0  0  0  0  0  0  0  0  0  0  0
   26.1966  -13.5509  -19.9646 N   0  0  0  0  0  0  0  0  0  0  0  0
   25.0097  -13.9039  -20.7548 C   0  0  1  0  0  0  0  0  0  0  0  0
   25.5539  -14.5439  -21.9971 C   0  0  0  0  0  0  0  0  0  0  0  0
   24.5741  -15.1332  -22.9389 C   0  0  0  0  0  0  0  0  0  0  0  0
   25.3918  -15.6239  -24.1490 C   0  0  0  0  0  0  0  0  0  0  0  0
   24.4761  -16.1906  -25.2059 C   0  0  0  0  0  0  0  0  0  0  0  0
   25.2814  -16.4054  -26.3932 N   0  0  0  0  0  0  0  0  0  0  0  0
   24.1966  -14.8018  -19.9116 C   0  0  0  0  0  0  0  0  0  0  0  0
   24.7429  -15.6398  -19.1292 O   0  0  0  0  0  0  0  0  0  0  0  0
   20.4360  -17.1816  -17.4168 N   0  0  0  0  0  0  0  0  0  0  0  0
   20.2171  -15.7710  -17.4013 C   0  0  0  0  0  0  0  0  0  0  0  0
   19.3207  -15.3140  -16.6579 O   0  0  0  0  0  0  0  0  0  0  0  0
   21.0369  -14.8991  -18.2460 C   0  0  0  0  0  0  0  0  0  0  0  0
   22.0395  -15.6848  -19.0420 C   0  0  2  0  0  0  0  0  0  0  0  0
   22.7828  -14.7931  -19.9095 N   0  0  0  0  0  0  0  0  0  0  0  0
   21.2748  -16.6886  -19.8378 C   0  0  0  0  0  0  0  0  0  0  0  0
   20.6936  -17.7763  -19.2350 O   0  0  0  0  0  0  0  0  0  0  0  0
   21.1760  -16.5123  -21.0780 O   0  0  0  0  0  0  0  0  0  0  0  0
  1  2  1  0
  3  5  1  0
  3  2  1  0
  3  4  1  6
  5  6  1  1
  7  9  1  0
  7  5  1  0
  8  7  2  0
 10  9  1  0
 11 12  1  0
 10 11  1  6
 12 13  1  0
 13 14  1  0
 14 15  1  0
 16 23  1  0
 16 10  1  0
 17 16  2  0
 18 19  1  0
 19 20  2  0
 19 21  1  0
 22 21  1  6
 22 23  1  0
 22 24  1  0
 24 25  1  0
 26 24  2  0
M  END
$$$$
