IKN.pdb
     RDKit          3D

 26 25  0  0  1  0  0  0  0  0999 V2000
   27.5085  -14.4920  -15.5699 C   0  0  0  0  0  0  0  0  0  0  0  0
   26.0871  -14.9801  -15.7099 C   0  0  0  0  0  0  0  0  0  0  0  0
   25.2316  -13.8098  -16.1775 C   0  0  2  0  0  0  0  0  0  0  0  0
   25.2932  -12.7379  -15.1361 C   0  0  0  0  0  0  0  0  0  0  0  0
   23.8182  -14.3276  -16.3019 C   0  0  2  0  0  0  0  0  0  0  0  0
   23.8513  -15.4608  -17.1964 N   0  0  0  0  0  0  0  0  0  0  0  0
   22.8942  -13.2659  -16.7701 C   0  0  0  0  0  0  0  0  0  0  0  0
   23.0185  -12.9068  -17.9756 O   0  0  0  0  0  0  0  0  0  0  0  0
   21.9200  -12.6596  -15.9666 N   0  0  0  0  0  0  0  0  0  0  0  0
   21.0806  -11.5800  -16.5028 C   0  0  1  0  0  0  0  0  0  0  0  0
   19.6889  -12.1385  -16.4963 C   0  0  0  0  0  0  0  0  0  0  0  0
   19.3663  -13.1621  -17.5173 C   0  0  0  0  0  0  0  0  0  0  0  0
   17.9348  -13.6376  -17.2032 C   0  0  0  0  0  0  0  0  0  0  0  0
   17.5484  -14.7764  -18.1145 C   0  0  0  0  0  0  0  0  0  0  0  0
   16.2097  -15.1867  -17.7355 N   0  0  0  0  0  0  0  0  0  0  0  0
   21.2757  -10.4171  -15.6150 C   0  0  0  0  0  0  0  0  0  0  0  0
   21.3497  -10.5590  -14.3551 O   0  0  0  0  0  0  0  0  0  0  0  0
   22.7379   -4.4155  -15.5521 N   0  0  0  0  0  0  0  0  0  0  0  0
   22.4748   -5.7039  -14.9966 C   0  0  0  0  0  0  0  0  0  0  0  0
   22.4265   -5.8188  -13.7518 O   0  0  0  0  0  0  0  0  0  0  0  0
   22.2694   -6.8502  -15.8851 C   0  0  0  0  0  0  0  0  0  0  0  0
   21.6061   -7.9921  -15.1693 C   0  0  2  0  0  0  0  0  0  0  0  0
   21.3957   -9.0910  -16.0903 N   0  0  0  0  0  0  0  0  0  0  0  0
   20.3071   -7.4813  -14.6425 C   0  0  0  0  0  0  0  0  0  0  0  0
   20.2464   -6.7865  -13.4602 O   0  0  0  0  0  0  0  0  0  0  0  0
   19.2668   -7.7041  -15.3110 O   0  0  0  0  0  0  0  0  0  0  0  0
  1  2  1  0
  3  5  1  0
  3  2  1  0
  3  4  1  1
  5  6  1  6
  7  9  1  0
  7  5  1  0
  8  7  2  0
 10  9  1  0
 11 12  1  0
 10 11  1  1
 12 13  1  0
 13 14  1  0
 14 15  1  0
 16 23  1  0
 16 10  1  0
 17 16  2  0
 18 19  1  0
 19 20  2  0
 19 21  1  0
 22 21  1  6
 22 23  1  0
 22 24  1  0
 24 25  1  0
 26 24  2  0
M  END
$$$$
