IKN.pdb
     RDKit          3D

 26 25  0  0  1  0  0  0  0  0999 V2000
   16.7354  -13.5585  -18.8845 C   0  0  0  0  0  0  0  0  0  0  0  0
   17.5008  -13.2798  -17.6138 C   0  0  0  0  0  0  0  0  0  0  0  0
   17.0947  -11.8997  -17.1131 C   0  0  2  0  0  0  0  0  0  0  0  0
   17.3613  -10.9086  -18.2011 C   0  0  0  0  0  0  0  0  0  0  0  0
   17.9654  -11.5985  -15.9162 C   0  0  2  0  0  0  0  0  0  0  0  0
   17.8448  -12.7118  -15.0042 N   0  0  0  0  0  0  0  0  0  0  0  0
   17.5889  -10.3096  -15.2861 C   0  0  0  0  0  0  0  0  0  0  0  0
   17.6890   -9.2804  -16.0130 O   0  0  0  0  0  0  0  0  0  0  0  0
   17.1412  -10.1803  -13.9651 N   0  0  0  0  0  0  0  0  0  0  0  0
   16.7088   -8.8740  -13.4511 C   0  0  1  0  0  0  0  0  0  0  0  0
   15.8210   -9.1963  -12.2863 C   0  0  0  0  0  0  0  0  0  0  0  0
   14.3803   -9.3938  -12.5684 C   0  0  0  0  0  0  0  0  0  0  0  0
   13.7374   -9.7980  -11.2278 C   0  0  0  0  0  0  0  0  0  0  0  0
   12.2754  -10.1164  -11.4220 C   0  0  0  0  0  0  0  0  0  0  0  0
   11.7519  -10.5095  -10.1276 N   0  0  0  0  0  0  0  0  0  0  0  0
   17.9367   -8.1356  -13.0967 C   0  0  0  0  0  0  0  0  0  0  0  0
   18.8059   -8.6422  -12.3218 O   0  0  0  0  0  0  0  0  0  0  0  0
   21.8922   -4.9258  -13.1445 N   0  0  0  0  0  0  0  0  0  0  0  0
   21.8937   -6.2895  -13.5666 C   0  0  0  0  0  0  0  0  0  0  0  0
   22.9816   -6.8107  -13.8980 O   0  0  0  0  0  0  0  0  0  0  0  0
   20.6366   -7.0405  -13.6025 C   0  0  0  0  0  0  0  0  0  0  0  0
   19.4669   -6.1783  -13.2218 C   0  0  2  0  0  0  0  0  0  0  0  0
   18.2310   -6.8419  -13.5852 N   0  0  0  0  0  0  0  0  0  0  0  0
   19.6170   -4.8895  -13.9583 C   0  0  0  0  0  0  0  0  0  0  0  0
   18.7131   -4.5146  -14.9211 O   0  0  0  0  0  0  0  0  0  0  0  0
   20.5949   -4.1536  -13.6737 O   0  0  0  0  0  0  0  0  0  0  0  0
  1  2  1  0
  3  5  1  0
  3  2  1  0
  3  4  1  6
  5  6  1  1
  7  9  1  0
  7  5  1  0
  8  7  2  0
 10  9  1  0
 11 12  1  0
 10 11  1  1
 12 13  1  0
 13 14  1  0
 14 15  1  0
 16 23  1  0
 16 10  1  0
 17 16  2  0
 18 19  1  0
 19 20  2  0
 19 21  1  0
 22 21  1  6
 22 23  1  0
 22 24  1  0
 24 25  1  0
 26 24  2  0
M  END
$$$$
