IKN.pdb
     RDKit          3D

 26 25  0  0  1  0  0  0  0  0999 V2000
   26.9131   -9.1998  -16.2075 C   0  0  0  0  0  0  0  0  0  0  0  0
   25.9133  -10.1473  -16.8246 C   0  0  0  0  0  0  0  0  0  0  0  0
   25.5313  -11.1795  -15.7716 C   0  0  2  0  0  0  0  0  0  0  0  0
   26.7245  -12.0408  -15.5041 C   0  0  0  0  0  0  0  0  0  0  0  0
   24.4172  -12.0108  -16.3626 C   0  0  2  0  0  0  0  0  0  0  0  0
   24.9315  -12.6319  -17.5605 N   0  0  0  0  0  0  0  0  0  0  0  0
   23.2120  -11.1874  -16.6266 C   0  0  0  0  0  0  0  0  0  0  0  0
   23.1282  -10.6698  -17.7767 O   0  0  0  0  0  0  0  0  0  0  0  0
   22.1926  -10.9619  -15.6927 N   0  0  0  0  0  0  0  0  0  0  0  0
   21.0359  -10.1265  -16.0418 C   0  0  1  0  0  0  0  0  0  0  0  0
   19.8414  -10.9451  -15.6517 C   0  0  0  0  0  0  0  0  0  0  0  0
   19.2722  -11.8442  -16.6822 C   0  0  0  0  0  0  0  0  0  0  0  0
   18.1233  -12.6049  -15.9929 C   0  0  0  0  0  0  0  0  0  0  0  0
   17.5643  -13.6596  -16.9159 C   0  0  0  0  0  0  0  0  0  0  0  0
   16.5509  -14.3812  -16.1701 N   0  0  0  0  0  0  0  0  0  0  0  0
   21.1855   -8.8670  -15.2869 C   0  0  0  0  0  0  0  0  0  0  0  0
   21.7961   -8.8381  -14.1737 O   0  0  0  0  0  0  0  0  0  0  0  0
   22.6590   -4.6519  -13.0851 N   0  0  0  0  0  0  0  0  0  0  0  0
   22.7795   -4.8260  -14.4969 C   0  0  0  0  0  0  0  0  0  0  0  0
   23.1692   -3.8579  -15.1867 O   0  0  0  0  0  0  0  0  0  0  0  0
   22.4481   -6.1188  -15.1005 C   0  0  0  0  0  0  0  0  0  0  0  0
   20.9749   -6.4020  -15.0260 C   0  0  2  0  0  0  0  0  0  0  0  0
   20.6755   -7.6280  -15.7383 N   0  0  0  0  0  0  0  0  0  0  0  0
   20.2752   -5.2398  -15.6471 C   0  0  0  0  0  0  0  0  0  0  0  0
   19.9886   -4.1132  -14.9171 O   0  0  0  0  0  0  0  0  0  0  0  0
   19.9540   -5.3190  -16.8592 O   0  0  0  0  0  0  0  0  0  0  0  0
  1  2  1  0
  3  5  1  0
  3  2  1  0
  3  4  1  6
  5  6  1  6
  7  9  1  0
  7  5  1  0
  8  7  2  0
 10  9  1  0
 11 12  1  0
 10 11  1  1
 12 13  1  0
 13 14  1  0
 14 15  1  0
 16 23  1  0
 16 10  1  0
 17 16  2  0
 18 19  1  0
 19 20  2  0
 19 21  1  0
 22 21  1  6
 22 23  1  0
 22 24  1  0
 24 25  1  0
 26 24  2  0
M  END
$$$$
