IKN.pdb
     RDKit          3D

 26 25  0  0  1  0  0  0  0  0999 V2000
   26.4463  -20.6632   -7.4041 C   0  0  0  0  0  0  0  0  0  0  0  0
   25.2753  -20.7068   -8.3555 C   0  0  0  0  0  0  0  0  0  0  0  0
   25.8020  -20.4524   -9.7619 C   0  0  2  0  0  0  0  0  0  0  0  0
   26.5136  -19.1369   -9.7657 C   0  0  0  0  0  0  0  0  0  0  0  0
   24.5979  -20.3902  -10.6718 C   0  0  2  0  0  0  0  0  0  0  0  0
   23.9529  -21.6813  -10.6223 N   0  0  0  0  0  0  0  0  0  0  0  0
   24.9838  -20.0047  -12.0511 C   0  0  0  0  0  0  0  0  0  0  0  0
   25.4831  -18.8521  -12.1917 O   0  0  0  0  0  0  0  0  0  0  0  0
   24.8269  -20.8300  -13.1721 N   0  0  0  0  0  0  0  0  0  0  0  0
   25.2053  -20.3497  -14.5077 C   0  0  1  0  0  0  0  0  0  0  0  0
   26.2012  -21.3536  -15.0071 C   0  0  0  0  0  0  0  0  0  0  0  0
   27.5961  -20.8894  -15.1888 C   0  0  0  0  0  0  0  0  0  0  0  0
   28.1009  -21.5597  -16.4810 C   0  0  0  0  0  0  0  0  0  0  0  0
   28.6079  -22.9501  -16.1873 C   0  0  0  0  0  0  0  0  0  0  0  0
   29.2405  -23.4351  -17.3992 N   0  0  0  0  0  0  0  0  0  0  0  0
   23.9598  -20.2810  -15.2968 C   0  0  0  0  0  0  0  0  0  0  0  0
   23.0814  -21.1947  -15.2166 O   0  0  0  0  0  0  0  0  0  0  0  0
   20.1338  -16.2922  -17.9464 N   0  0  0  0  0  0  0  0  0  0  0  0
   20.6346  -17.5836  -17.6009 C   0  0  0  0  0  0  0  0  0  0  0  0
   19.9361  -18.5862  -17.8691 O   0  0  0  0  0  0  0  0  0  0  0  0
   21.9400  -17.7060  -16.9476 C   0  0  0  0  0  0  0  0  0  0  0  0
   22.3666  -19.1414  -16.8303 C   0  0  2  0  0  0  0  0  0  0  0  0
   23.6578  -19.2163  -16.1767 N   0  0  0  0  0  0  0  0  0  0  0  0
   22.4374  -19.6902  -18.2158 C   0  0  0  0  0  0  0  0  0  0  0  0
   21.5107  -20.5971  -18.6665 O   0  0  0  0  0  0  0  0  0  0  0  0
   23.3699  -19.2998  -18.9620 O   0  0  0  0  0  0  0  0  0  0  0  0
  1  2  1  0
  3  5  1  0
  3  2  1  0
  3  4  1  1
  5  6  1  6
  7  9  1  0
  7  5  1  0
  8  7  2  0
 10  9  1  0
 11 12  1  0
 10 11  1  6
 12 13  1  0
 13 14  1  0
 14 15  1  0
 16 23  1  0
 16 10  1  0
 17 16  2  0
 18 19  1  0
 19 20  2  0
 19 21  1  0
 22 21  1  6
 22 23  1  0
 22 24  1  0
 24 25  1  0
 26 24  2  0
M  END
$$$$
