RIV.pdb
     RDKit          3D

 27 26  0  0  1  0  0  0  0  0999 V2000
   13.6868  -20.7699   25.2296 N   0  0  0  0  0  0  0  0  0  0  0  0
   14.4539  -21.0920   24.0766 C   0  0  0  0  0  0  0  0  0  0  0  0
   15.1802  -22.1718   24.1241 N   0  0  0  0  0  0  0  0  0  0  0  0
   14.4169  -20.2611   22.9328 N   0  0  0  0  0  0  0  0  0  0  0  0
   13.5041  -19.1709   22.8313 C   0  0  0  0  0  0  0  0  0  0  0  0
   12.4124  -19.4117   21.8126 C   0  0  0  0  0  0  0  0  0  0  0  0
   11.1855  -18.5858   22.0864 C   0  0  0  0  0  0  0  0  0  0  0  0
   10.8205  -17.6867   20.9327 C   0  0  2  0  0  0  0  0  0  0  0  0
   11.9094  -17.4993   19.9986 N   0  0  0  0  0  0  0  0  0  0  0  0
   10.4042  -16.3739   21.4457 C   0  0  0  0  0  0  0  0  0  0  0  0
   11.2706  -15.5219   21.7652 O   0  0  0  0  0  0  0  0  0  0  0  0
   15.7395  -22.5057   23.3311 C   0  0  0  0  0  0  0  0  0  0  0  0
    7.2918  -13.0910   19.0301 C   0  0  0  0  0  0  0  0  0  0  0  0
    8.2584  -13.7326   19.9629 C   0  0  2  0  0  0  0  0  0  0  0  0
    7.7018  -13.9875   21.3364 C   0  0  0  0  0  0  0  0  0  0  0  0
    7.1421  -12.7639   21.9845 C   0  0  2  0  0  0  0  0  0  0  0  0
    8.7085  -14.7065   22.1817 N   0  0  0  0  0  0  0  0  0  0  0  0
    9.0479  -15.9821   21.6134 C   0  0  0  0  0  0  0  0  0  0  0  0
    8.2708  -14.8152   23.5944 O   0  0  0  0  0  0  0  0  0  0  0  0
    8.0091  -15.9635   24.0302 C   0  0  0  0  0  0  0  0  0  0  0  0
    8.7867  -11.8064   26.5095 C   0  0  1  0  0  0  0  0  0  0  0  0
    7.4531  -12.5183   26.5147 C   0  0  0  0  0  0  0  0  0  0  0  0
    6.9336  -12.6366   27.9153 C   0  0  2  0  0  0  0  0  0  0  0  0
    7.6503  -13.8608   25.8498 N   0  0  0  0  0  0  0  0  0  0  0  0
    8.1259  -13.7287   24.4857 C   0  0  0  0  0  0  0  0  0  0  0  0
    6.4184  -14.6748   25.8330 O   0  0  0  0  0  0  0  0  0  0  0  0
    6.1971  -15.6916   26.7494 O   0  0  0  0  0  0  0  0  0  0  0  0
  2  1  1  0
  3  2  2  0
  4  2  1  0
  5  4  1  0
  5  6  1  0
  7  6  1  0
  7  8  1  0
  8 10  1  0
  8  9  1  6
 10 11  2  0
 12 13  1  0
 14 15  1  1
 14 16  1  0
 14 13  1  0
 16 17  1  1
 17 10  1  0
 18 24  1  0
 18 16  1  0
 19 18  2  0
 21 22  1  1
 21 20  1  0
 23 21  1  0
 23 24  1  1
 25 26  1  0
 25 23  1  0
 27 25  2  0
M  END
$$$$
