RIV.pdb
     RDKit          3D

 27 26  0  0  1  0  0  0  0  0999 V2000
   11.4429  -20.8813   19.3235 N   0  0  0  0  0  0  0  0  0  0  0  0
   10.2399  -20.6833   18.5922 C   0  0  0  0  0  0  0  0  0  0  0  0
   10.3447  -20.4987   17.3074 N   0  0  0  0  0  0  0  0  0  0  0  0
    8.9882  -20.6901   19.2506 N   0  0  0  0  0  0  0  0  0  0  0  0
    8.7515  -19.8982   20.4119 C   0  0  0  0  0  0  0  0  0  0  0  0
    9.7398  -18.7630   20.5605 C   0  0  0  0  0  0  0  0  0  0  0  0
    9.4677  -17.9267   21.7808 C   0  0  0  0  0  0  0  0  0  0  0  0
    9.1180  -16.5001   21.4418 C   0  0  2  0  0  0  0  0  0  0  0  0
    9.9484  -15.9511   20.3919 N   0  0  0  0  0  0  0  0  0  0  0  0
    9.2546  -15.6625   22.6416 C   0  0  0  0  0  0  0  0  0  0  0  0
   10.3846  -15.2287   22.9783 O   0  0  0  0  0  0  0  0  0  0  0  0
    9.5491  -20.2429   16.7117 C   0  0  0  0  0  0  0  0  0  0  0  0
    6.1652  -11.9521   26.4609 C   0  0  0  0  0  0  0  0  0  0  0  0
    7.3822  -12.6767   26.0027 C   0  0  2  0  0  0  0  0  0  0  0  0
    7.0934  -13.8342   25.0872 C   0  0  0  0  0  0  0  0  0  0  0  0
    6.0966  -14.7959   25.6455 C   0  0  2  0  0  0  0  0  0  0  0  0
    8.3707  -14.4825   24.6476 N   0  0  0  0  0  0  0  0  0  0  0  0
    8.1665  -15.2934   23.4789 C   0  0  0  0  0  0  0  0  0  0  0  0
    9.0205  -15.2323   25.7497 O   0  0  0  0  0  0  0  0  0  0  0  0
    8.8938  -16.4817   25.7502 C   0  0  0  0  0  0  0  0  0  0  0  0
    9.6112  -14.0976   29.7023 C   0  0  1  0  0  0  0  0  0  0  0  0
   10.8671  -14.5491   28.9922 C   0  0  0  0  0  0  0  0  0  0  0  0
   11.6784  -13.3627   28.5682 C   0  0  1  0  0  0  0  0  0  0  0  0
   10.4460  -15.4149   27.8275 N   0  0  0  0  0  0  0  0  0  0  0  0
    9.7697  -14.6505   26.7967 C   0  0  0  0  0  0  0  0  0  0  0  0
    9.5624  -16.5261   28.2338 O   0  0  0  0  0  0  0  0  0  0  0  0
   10.0645  -17.7273   28.7108 O   0  0  0  0  0  0  0  0  0  0  0  0
  2  1  1  0
  3  2  2  0
  4  2  1  0
  5  4  1  0
  5  6  1  0
  7  6  1  0
  7  8  1  0
  8 10  1  0
  8  9  1  6
 10 11  2  0
 12 13  1  0
 14 15  1  6
 14 16  1  0
 14 13  1  0
 16 17  1  1
 17 10  1  0
 18 24  1  0
 18 16  1  0
 19 18  2  0
 21 22  1  6
 21 20  1  0
 23 21  1  0
 23 24  1  6
 25 26  1  0
 25 23  1  0
 27 25  2  0
M  END
$$$$
