RIV.pdb
     RDKit          3D

 27 26  0  0  1  0  0  0  0  0999 V2000
    7.1330  -20.8743   21.6048 N   0  0  0  0  0  0  0  0  0  0  0  0
    7.9000  -21.0511   20.4208 C   0  0  0  0  0  0  0  0  0  0  0  0
    7.3036  -21.5916   19.3972 N   0  0  0  0  0  0  0  0  0  0  0  0
    9.2553  -20.6496   20.3749 N   0  0  0  0  0  0  0  0  0  0  0  0
    9.7191  -19.5046   21.0861 C   0  0  0  0  0  0  0  0  0  0  0  0
    9.3822  -18.2045   20.3903 C   0  0  0  0  0  0  0  0  0  0  0  0
    9.8789  -17.0059   21.1512 C   0  0  0  0  0  0  0  0  0  0  0  0
    8.8177  -15.9501   21.3301 C   0  0  2  0  0  0  0  0  0  0  0  0
    8.7708  -15.0076   20.2334 N   0  0  0  0  0  0  0  0  0  0  0  0
    9.0627  -15.2140   22.5782 C   0  0  0  0  0  0  0  0  0  0  0  0
   10.0346  -14.4218   22.6586 O   0  0  0  0  0  0  0  0  0  0  0  0
    7.7662  -21.7385   18.4929 C   0  0  0  0  0  0  0  0  0  0  0  0
    5.4573  -12.5088   25.2483 C   0  0  0  0  0  0  0  0  0  0  0  0
    6.7169  -13.0826   24.7006 C   0  0  2  0  0  0  0  0  0  0  0  0
    7.3843  -14.0716   25.6160 C   0  0  0  0  0  0  0  0  0  0  0  0
    7.6460  -13.5297   26.9828 C   0  0  2  0  0  0  0  0  0  0  0  0
    8.5988  -14.6530   24.9589 N   0  0  0  0  0  0  0  0  0  0  0  0
    8.2547  -15.3351   23.7416 C   0  0  0  0  0  0  0  0  0  0  0  0
    9.3756  -15.5098   25.8870 O   0  0  0  0  0  0  0  0  0  0  0  0
    9.3529  -16.7488   25.6835 C   0  0  0  0  0  0  0  0  0  0  0  0
   10.6387  -14.6892   29.8533 C   0  0  1  0  0  0  0  0  0  0  0  0
   11.7081  -15.1031   28.8682 C   0  0  0  0  0  0  0  0  0  0  0  0
   12.4470  -13.8993   28.3682 C   0  0  1  0  0  0  0  0  0  0  0  0
   11.0320  -15.8756   27.7593 N   0  0  0  0  0  0  0  0  0  0  0  0
   10.1377  -15.0404   26.9801 C   0  0  0  0  0  0  0  0  0  0  0  0
   10.2649  -17.0347   28.2579 O   0  0  0  0  0  0  0  0  0  0  0  0
   10.8822  -18.2197   28.6288 O   0  0  0  0  0  0  0  0  0  0  0  0
  2  1  1  0
  3  2  2  0
  4  2  1  0
  5  4  1  0
  5  6  1  0
  7  6  1  0
  7  8  1  0
  8 10  1  0
  8  9  1  6
 10 11  2  0
 12 13  1  0
 14 15  1  6
 14 16  1  0
 14 13  1  0
 16 17  1  6
 17 10  1  0
 18 24  1  0
 18 16  1  0
 19 18  2  0
 21 22  1  6
 21 20  1  0
 23 21  1  0
 23 24  1  6
 25 26  1  0
 25 23  1  0
 27 25  2  0
M  END
$$$$
