RIV.pdb
     RDKit          3D

 27 26  0  0  1  0  0  0  0  0999 V2000
    7.5441  -12.6022   17.1487 N   0  0  0  0  0  0  0  0  0  0  0  0
    8.1555  -13.7226   16.5223 C   0  0  0  0  0  0  0  0  0  0  0  0
    7.8695  -13.9375   15.2703 N   0  0  0  0  0  0  0  0  0  0  0  0
    9.0368  -14.5592   17.2459 N   0  0  0  0  0  0  0  0  0  0  0  0
    8.5950  -15.3114   18.3732 C   0  0  0  0  0  0  0  0  0  0  0  0
    7.6385  -14.5406   19.2557 C   0  0  0  0  0  0  0  0  0  0  0  0
    7.1655  -15.3535   20.4295 C   0  0  0  0  0  0  0  0  0  0  0  0
    8.3019  -15.8686   21.2757 C   0  0  2  0  0  0  0  0  0  0  0  0
    8.0984  -17.2291   21.7238 N   0  0  0  0  0  0  0  0  0  0  0  0
    8.4710  -15.0023   22.4508 C   0  0  0  0  0  0  0  0  0  0  0  0
    9.3026  -14.0610   22.4215 O   0  0  0  0  0  0  0  0  0  0  0  0
    8.3107  -14.6787   14.7143 C   0  0  0  0  0  0  0  0  0  0  0  0
    6.4201  -11.8108   26.2896 C   0  0  0  0  0  0  0  0  0  0  0  0
    7.0186  -13.1115   26.6967 C   0  0  2  0  0  0  0  0  0  0  0  0
    6.8193  -14.2143   25.6939 C   0  0  0  0  0  0  0  0  0  0  0  0
    6.4001  -15.5075   26.3120 C   0  0  2  0  0  0  0  0  0  0  0  0
    8.0205  -14.3354   24.8066 N   0  0  0  0  0  0  0  0  0  0  0  0
    7.7391  -15.1548   23.6600 C   0  0  0  0  0  0  0  0  0  0  0  0
    9.2166  -14.7970   25.5517 O   0  0  0  0  0  0  0  0  0  0  0  0
   10.2870  -14.1651   25.3725 C   0  0  0  0  0  0  0  0  0  0  0  0
    9.6196  -14.9517   29.3037 C   0  0  1  0  0  0  0  0  0  0  0  0
   10.6848  -15.0147   28.2329 C   0  0  0  0  0  0  0  0  0  0  0  0
   10.7546  -13.7133   27.4934 C   0  0  1  0  0  0  0  0  0  0  0  0
   10.3562  -16.1819   27.3311 N   0  0  0  0  0  0  0  0  0  0  0  0
    9.2446  -15.8905   26.4458 C   0  0  0  0  0  0  0  0  0  0  0  0
   10.0376  -17.4116   28.0840 O   0  0  0  0  0  0  0  0  0  0  0  0
   10.9887  -18.0746   28.8446 O   0  0  0  0  0  0  0  0  0  0  0  0
  2  1  1  0
  3  2  2  0
  4  2  1  0
  5  4  1  0
  5  6  1  0
  7  6  1  0
  7  8  1  0
  8 10  1  0
  8  9  1  1
 10 11  2  0
 12 13  1  0
 14 15  1  6
 14 16  1  0
 14 13  1  0
 16 17  1  1
 17 10  1  0
 18 24  1  0
 18 16  1  0
 19 18  2  0
 21 22  1  1
 21 20  1  0
 23 21  1  0
 23 24  1  6
 25 26  1  0
 25 23  1  0
 27 25  2  0
M  END
$$$$
