RIV.pdb
     RDKit          3D

 27 26  0  0  1  0  0  0  0  0999 V2000
    7.7021  -20.4230   18.8667 N   0  0  0  0  0  0  0  0  0  0  0  0
    7.1768  -19.6342   17.8068 C   0  0  0  0  0  0  0  0  0  0  0  0
    6.5946  -20.2623   16.8258 N   0  0  0  0  0  0  0  0  0  0  0  0
    7.2911  -18.2248   17.8339 N   0  0  0  0  0  0  0  0  0  0  0  0
    8.0231  -17.5549   18.8573 C   0  0  0  0  0  0  0  0  0  0  0  0
    7.2631  -17.4675   20.1621 C   0  0  0  0  0  0  0  0  0  0  0  0
    8.0593  -16.7851   21.2405 C   0  0  0  0  0  0  0  0  0  0  0  0
    7.5978  -15.3734   21.4987 C   0  0  2  0  0  0  0  0  0  0  0  0
    7.9255  -14.4676   20.4192 N   0  0  0  0  0  0  0  0  0  0  0  0
    8.2104  -14.8755   22.7383 C   0  0  0  0  0  0  0  0  0  0  0  0
    9.4198  -14.5352   22.7476 O   0  0  0  0  0  0  0  0  0  0  0  0
    6.2470  -19.7877   15.9849 C   0  0  0  0  0  0  0  0  0  0  0  0
    5.8516  -11.6027   26.1451 C   0  0  0  0  0  0  0  0  0  0  0  0
    6.8397  -12.3988   25.3669 C   0  0  2  0  0  0  0  0  0  0  0  0
    7.3663  -13.6014   26.1005 C   0  0  0  0  0  0  0  0  0  0  0  0
    8.0367  -13.2606   27.3907 C   0  0  2  0  0  0  0  0  0  0  0  0
    8.2103  -14.4395   25.1894 N   0  0  0  0  0  0  0  0  0  0  0  0
    7.5131  -14.7454   23.9704 C   0  0  0  0  0  0  0  0  0  0  0  0
    8.7220  -15.6545   25.8683 O   0  0  0  0  0  0  0  0  0  0  0  0
    7.8849  -16.5385   26.1766 C   0  0  0  0  0  0  0  0  0  0  0  0
   11.8058  -17.6579   24.6945 C   0  0  1  0  0  0  0  0  0  0  0  0
   11.9342  -17.5002   26.1925 C   0  0  0  0  0  0  0  0  0  0  0  0
   12.4918  -18.7513   26.8000 C   0  0  2  0  0  0  0  0  0  0  0  0
   10.5676  -17.1477   26.7326 N   0  0  0  0  0  0  0  0  0  0  0  0
   10.0757  -15.8937   26.1943 C   0  0  0  0  0  0  0  0  0  0  0  0
   10.5428  -17.0595   28.2064 O   0  0  0  0  0  0  0  0  0  0  0  0
   10.4021  -18.1826   29.0074 O   0  0  0  0  0  0  0  0  0  0  0  0
  2  1  1  0
  3  2  2  0
  4  2  1  0
  5  4  1  0
  5  6  1  0
  7  6  1  0
  7  8  1  0
  8 10  1  0
  8  9  1  6
 10 11  2  0
 12 13  1  0
 14 15  1  1
 14 16  1  0
 14 13  1  0
 16 17  1  6
 17 10  1  0
 18 24  1  0
 18 16  1  0
 19 18  2  0
 21 22  1  6
 21 20  1  0
 23 21  1  0
 23 24  1  6
 25 26  1  0
 25 23  1  0
 27 25  2  0
M  END
$$$$
