RIV.pdb
     RDKit          3D

 27 26  0  0  1  0  0  0  0  0999 V2000
    9.0392  -15.4582   16.7030 N   0  0  0  0  0  0  0  0  0  0  0  0
    8.6410  -14.1407   16.3466 C   0  0  0  0  0  0  0  0  0  0  0  0
    8.1699  -13.9627   15.1457 N   0  0  0  0  0  0  0  0  0  0  0  0
    8.7588  -13.0782   17.2725 N   0  0  0  0  0  0  0  0  0  0  0  0
    8.6711  -13.2997   18.6780 C   0  0  0  0  0  0  0  0  0  0  0  0
    7.3903  -13.9938   19.0846 C   0  0  0  0  0  0  0  0  0  0  0  0
    7.2686  -14.1363   20.5770 C   0  0  0  0  0  0  0  0  0  0  0  0
    8.2892  -15.0830   21.1557 C   0  0  2  0  0  0  0  0  0  0  0  0
    8.4036  -16.3148   20.4055 N   0  0  0  0  0  0  0  0  0  0  0  0
    7.9294  -15.4045   22.5439 C   0  0  0  0  0  0  0  0  0  0  0  0
    7.4574  -14.5124   23.2921 O   0  0  0  0  0  0  0  0  0  0  0  0
    7.9351  -13.0380   14.7677 C   0  0  0  0  0  0  0  0  0  0  0  0
    5.6672  -20.0815   23.7899 C   0  0  0  0  0  0  0  0  0  0  0  0
    6.1382  -18.6711   23.7203 C   0  0  2  0  0  0  0  0  0  0  0  0
    7.2497  -18.3520   24.6817 C   0  0  0  0  0  0  0  0  0  0  0  0
    6.9202  -18.6866   26.0993 C   0  0  2  0  0  0  0  0  0  0  0  0
    7.7143  -16.9403   24.4913 N   0  0  0  0  0  0  0  0  0  0  0  0
    8.0804  -16.6938   23.1236 C   0  0  0  0  0  0  0  0  0  0  0  0
    8.7952  -16.5790   25.4401 O   0  0  0  0  0  0  0  0  0  0  0  0
    9.9590  -16.9592   25.1602 C   0  0  0  0  0  0  0  0  0  0  0  0
    8.7664  -13.1213   27.4630 C   0  0  1  0  0  0  0  0  0  0  0  0
    9.2921  -14.2242   28.3532 C   0  0  0  0  0  0  0  0  0  0  0  0
   10.4150  -13.7135   29.2039 C   0  0  2  0  0  0  0  0  0  0  0  0
    9.7099  -15.3700   27.4611 N   0  0  0  0  0  0  0  0  0  0  0  0
    8.6170  -15.8416   26.6318 C   0  0  0  0  0  0  0  0  0  0  0  0
   10.2427  -16.5187   28.2208 O   0  0  0  0  0  0  0  0  0  0  0  0
   11.5949  -16.6538   28.4965 O   0  0  0  0  0  0  0  0  0  0  0  0
  2  1  1  0
  3  2  2  0
  4  2  1  0
  5  4  1  0
  5  6  1  0
  7  6  1  0
  7  8  1  0
  8 10  1  0
  8  9  1  6
 10 11  2  0
 12 13  1  0
 14 15  1  6
 14 16  1  0
 14 13  1  0
 16 17  1  1
 17 10  1  0
 18 24  1  0
 18 16  1  0
 19 18  2  0
 21 22  1  6
 21 20  1  0
 23 21  1  0
 23 24  1  6
 25 26  1  0
 25 23  1  0
 27 25  2  0
M  END
$$$$
