RIV.pdb
     RDKit          3D

 27 26  0  0  1  0  0  0  0  0999 V2000
    7.3180  -17.4031   16.9247 N   0  0  0  0  0  0  0  0  0  0  0  0
    6.3982  -18.4822   17.0286 C   0  0  0  0  0  0  0  0  0  0  0  0
    5.6007  -18.6874   16.0199 N   0  0  0  0  0  0  0  0  0  0  0  0
    6.3651  -19.2901   18.1889 N   0  0  0  0  0  0  0  0  0  0  0  0
    7.0092  -18.8897   19.3959 C   0  0  0  0  0  0  0  0  0  0  0  0
    7.3153  -17.4091   19.4353 C   0  0  0  0  0  0  0  0  0  0  0  0
    7.9045  -16.9840   20.7523 C   0  0  0  0  0  0  0  0  0  0  0  0
    8.0534  -15.4882   20.8669 C   0  0  2  0  0  0  0  0  0  0  0  0
    8.9854  -14.9399   19.9057 N   0  0  0  0  0  0  0  0  0  0  0  0
    8.5094  -15.1423   22.2205 C   0  0  0  0  0  0  0  0  0  0  0  0
    9.7038  -15.3478   22.5516 O   0  0  0  0  0  0  0  0  0  0  0  0
    4.8940  -19.4314   16.0070 C   0  0  0  0  0  0  0  0  0  0  0  0
    7.1820  -11.7641   27.2377 C   0  0  0  0  0  0  0  0  0  0  0  0
    7.9682  -12.7856   26.4930 C   0  0  2  0  0  0  0  0  0  0  0  0
    7.3583  -13.1835   25.1772 C   0  0  0  0  0  0  0  0  0  0  0  0
    5.9085  -13.5277   25.2770 C   0  0  2  0  0  0  0  0  0  0  0  0
    8.1834  -14.2481   24.5209 N   0  0  0  0  0  0  0  0  0  0  0  0
    7.6714  -14.5728   23.2179 C   0  0  0  0  0  0  0  0  0  0  0  0
    8.3339  -15.4446   25.3838 O   0  0  0  0  0  0  0  0  0  0  0  0
    7.3355  -16.1965   25.5061 C   0  0  0  0  0  0  0  0  0  0  0  0
   11.0096  -19.2417   26.0605 C   0  0  1  0  0  0  0  0  0  0  0  0
   10.7904  -17.8342   25.5543 C   0  0  0  0  0  0  0  0  0  0  0  0
   12.0985  -17.1107   25.4500 C   0  0  2  0  0  0  0  0  0  0  0  0
    9.8219  -17.1568   26.4959 N   0  0  0  0  0  0  0  0  0  0  0  0
    9.5114  -15.8031   26.0772 C   0  0  0  0  0  0  0  0  0  0  0  0
   10.3182  -17.1085   27.8859 O   0  0  0  0  0  0  0  0  0  0  0  0
   10.6023  -15.9103   28.5233 O   0  0  0  0  0  0  0  0  0  0  0  0
  2  1  1  0
  3  2  2  0
  4  2  1  0
  5  4  1  0
  5  6  1  0
  7  6  1  0
  7  8  1  0
  8 10  1  0
  8  9  1  6
 10 11  2  0
 12 13  1  0
 14 15  1  6
 14 16  1  0
 14 13  1  0
 16 17  1  1
 17 10  1  0
 18 24  1  0
 18 16  1  0
 19 18  2  0
 21 22  1  1
 21 20  1  0
 23 21  1  0
 23 24  1  1
 25 26  1  0
 25 23  1  0
 27 25  2  0
M  END
$$$$
