RIV.pdb
     RDKit          3D

 27 26  0  0  1  0  0  0  0  0999 V2000
    5.9691  -20.6216   18.9004 N   0  0  0  0  0  0  0  0  0  0  0  0
    4.9763  -19.6997   18.4692 C   0  0  0  0  0  0  0  0  0  0  0  0
    4.5124  -19.8423   17.2608 N   0  0  0  0  0  0  0  0  0  0  0  0
    4.5225  -18.6752   19.3321 N   0  0  0  0  0  0  0  0  0  0  0  0
    5.2571  -18.2980   20.4941 C   0  0  0  0  0  0  0  0  0  0  0  0
    6.4801  -17.4683   20.1724 C   0  0  0  0  0  0  0  0  0  0  0  0
    7.2480  -17.0830   21.4070 C   0  0  0  0  0  0  0  0  0  0  0  0
    7.6772  -15.6379   21.3974 C   0  0  2  0  0  0  0  0  0  0  0  0
    8.6762  -15.3540   20.3901 N   0  0  0  0  0  0  0  0  0  0  0  0
    8.2169  -15.2771   22.7158 C   0  0  0  0  0  0  0  0  0  0  0  0
    9.4299  -15.4791   22.9736 O   0  0  0  0  0  0  0  0  0  0  0  0
    3.8458  -19.1878   16.8361 C   0  0  0  0  0  0  0  0  0  0  0  0
    5.8543  -11.4925   25.9318 C   0  0  0  0  0  0  0  0  0  0  0  0
    6.7831  -12.3931   25.1955 C   0  0  2  0  0  0  0  0  0  0  0  0
    7.0989  -13.6701   25.9243 C   0  0  0  0  0  0  0  0  0  0  0  0
    7.6227  -13.4492   27.3053 C   0  0  2  0  0  0  0  0  0  0  0  0
    7.9760  -14.5469   25.0836 N   0  0  0  0  0  0  0  0  0  0  0  0
    7.4429  -14.6965   23.7574 C   0  0  0  0  0  0  0  0  0  0  0  0
    8.2449  -15.8514   25.7355 O   0  0  0  0  0  0  0  0  0  0  0  0
    7.2615  -16.6024   25.9499 C   0  0  0  0  0  0  0  0  0  0  0  0
   12.0131  -17.6872   25.6909 C   0  0  1  0  0  0  0  0  0  0  0  0
   10.7006  -18.4343   25.7566 C   0  0  0  0  0  0  0  0  0  0  0  0
   10.1479  -18.6344   24.3782 C   0  0  1  0  0  0  0  0  0  0  0  0
    9.7711  -17.6454   26.6495 N   0  0  0  0  0  0  0  0  0  0  0  0
    9.5195  -16.3134   26.1330 C   0  0  0  0  0  0  0  0  0  0  0  0
   10.2794  -17.5176   28.0300 O   0  0  0  0  0  0  0  0  0  0  0  0
   10.6648  -16.2960   28.5609 O   0  0  0  0  0  0  0  0  0  0  0  0
  2  1  1  0
  3  2  2  0
  4  2  1  0
  5  4  1  0
  5  6  1  0
  7  6  1  0
  7  8  1  0
  8 10  1  0
  8  9  1  6
 10 11  2  0
 12 13  1  0
 14 15  1  6
 14 16  1  0
 14 13  1  0
 16 17  1  6
 17 10  1  0
 18 24  1  0
 18 16  1  0
 19 18  2  0
 21 22  1  6
 21 20  1  0
 23 21  1  0
 23 24  1  6
 25 26  1  0
 25 23  1  0
 27 25  2  0
M  END
$$$$
