RIV.pdb
     RDKit          3D

 27 26  0  0  1  0  0  0  0  0999 V2000
    7.0823  -14.1275   17.6579 N   0  0  0  0  0  0  0  0  0  0  0  0
    8.3072  -13.4563   17.3926 C   0  0  0  0  0  0  0  0  0  0  0  0
    8.2364  -12.2781   16.8424 N   0  0  0  0  0  0  0  0  0  0  0  0
    9.5438  -14.0594   17.7200 N   0  0  0  0  0  0  0  0  0  0  0  0
    9.6098  -15.3624   18.2943 C   0  0  0  0  0  0  0  0  0  0  0  0
    9.3333  -15.3638   19.7813 C   0  0  0  0  0  0  0  0  0  0  0  0
   10.2389  -16.3042   20.5283 C   0  0  0  0  0  0  0  0  0  0  0  0
    9.5440  -16.9920   21.6757 C   0  0  2  0  0  0  0  0  0  0  0  0
    8.1471  -17.2588   21.4094 N   0  0  0  0  0  0  0  0  0  0  0  0
    9.6463  -16.1591   22.8822 C   0  0  0  0  0  0  0  0  0  0  0  0
   10.7522  -15.6595   23.2075 O   0  0  0  0  0  0  0  0  0  0  0  0
    9.0647  -11.7263   16.5920 C   0  0  0  0  0  0  0  0  0  0  0  0
    5.5187  -12.8860   24.3828 C   0  0  0  0  0  0  0  0  0  0  0  0
    6.8695  -13.4557   24.1242 C   0  0  2  0  0  0  0  0  0  0  0  0
    7.3713  -14.3550   25.2201 C   0  0  0  0  0  0  0  0  0  0  0  0
    7.3754  -13.7043   26.5643 C   0  0  2  0  0  0  0  0  0  0  0  0
    8.6912  -14.9537   24.8398 N   0  0  0  0  0  0  0  0  0  0  0  0
    8.5499  -15.8661   23.7385 C   0  0  0  0  0  0  0  0  0  0  0  0
    9.3760  -15.5709   26.0013 O   0  0  0  0  0  0  0  0  0  0  0  0
    9.6129  -16.8028   25.9431 C   0  0  0  0  0  0  0  0  0  0  0  0
   11.1759  -13.2762   28.9754 C   0  0  1  0  0  0  0  0  0  0  0  0
   10.5971  -14.5845   29.4639 C   0  0  0  0  0  0  0  0  0  0  0  0
   11.4509  -15.1541   30.5557 C   0  0  2  0  0  0  0  0  0  0  0  0
   10.4825  -15.5058   28.2716 N   0  0  0  0  0  0  0  0  0  0  0  0
    9.7815  -14.8812   27.1657 C   0  0  0  0  0  0  0  0  0  0  0  0
    9.7989  -16.7740   28.5951 O   0  0  0  0  0  0  0  0  0  0  0  0
   10.5007  -17.9400   28.8609 O   0  0  0  0  0  0  0  0  0  0  0  0
  2  1  1  0
  3  2  2  0
  4  2  1  0
  5  4  1  0
  5  6  1  0
  7  6  1  0
  7  8  1  0
  8 10  1  0
  8  9  1  6
 10 11  2  0
 12 13  1  0
 14 15  1  6
 14 16  1  0
 14 13  1  0
 16 17  1  6
 17 10  1  0
 18 24  1  0
 18 16  1  0
 19 18  2  0
 21 22  1  6
 21 20  1  0
 23 21  1  0
 23 24  1  6
 25 26  1  0
 25 23  1  0
 27 25  2  0
M  END
$$$$
