RIV.pdb
     RDKit          3D

 27 26  0  0  1  0  0  0  0  0999 V2000
    7.3467  -14.9964   16.2647 N   0  0  0  0  0  0  0  0  0  0  0  0
    8.0222  -13.7467   16.3213 C   0  0  0  0  0  0  0  0  0  0  0  0
    7.5909  -12.7979   15.5407 N   0  0  0  0  0  0  0  0  0  0  0  0
    9.1170  -13.5597   17.1970 N   0  0  0  0  0  0  0  0  0  0  0  0
    8.9550  -13.5953   18.6127 C   0  0  0  0  0  0  0  0  0  0  0  0
    7.5320  -13.8870   19.0341 C   0  0  0  0  0  0  0  0  0  0  0  0
    7.3565  -13.8285   20.5269 C   0  0  0  0  0  0  0  0  0  0  0  0
    7.7645  -15.1084   21.2109 C   0  0  2  0  0  0  0  0  0  0  0  0
    6.6521  -16.0058   21.4361 N   0  0  0  0  0  0  0  0  0  0  0  0
    8.3917  -14.7966   22.5029 C   0  0  0  0  0  0  0  0  0  0  0  0
    9.5825  -14.3980   22.5420 O   0  0  0  0  0  0  0  0  0  0  0  0
    8.0559  -11.8868   15.4570 C   0  0  0  0  0  0  0  0  0  0  0  0
    6.1736  -11.7914   25.9824 C   0  0  0  0  0  0  0  0  0  0  0  0
    7.1329  -12.6106   25.1922 C   0  0  2  0  0  0  0  0  0  0  0  0
    7.6355  -13.8285   25.9173 C   0  0  0  0  0  0  0  0  0  0  0  0
    8.3456  -13.5076   27.1913 C   0  0  2  0  0  0  0  0  0  0  0  0
    8.4304  -14.6963   24.9900 N   0  0  0  0  0  0  0  0  0  0  0  0
    7.7291  -14.9162   23.7550 C   0  0  0  0  0  0  0  0  0  0  0  0
    8.8475  -15.9638   25.6369 O   0  0  0  0  0  0  0  0  0  0  0  0
    7.9480  -16.7992   25.9018 C   0  0  0  0  0  0  0  0  0  0  0  0
   11.6745  -18.1618   24.3165 C   0  0  1  0  0  0  0  0  0  0  0  0
   11.8908  -18.0541   25.8087 C   0  0  0  0  0  0  0  0  0  0  0  0
   12.3872  -19.3576   26.3564 C   0  0  2  0  0  0  0  0  0  0  0  0
   10.5828  -17.6204   26.4288 N   0  0  0  0  0  0  0  0  0  0  0  0
   10.1760  -16.3032   25.9774 C   0  0  0  0  0  0  0  0  0  0  0  0
   10.6279  -17.6097   27.9048 O   0  0  0  0  0  0  0  0  0  0  0  0
   10.7973  -16.4378   28.6263 O   0  0  0  0  0  0  0  0  0  0  0  0
  2  1  1  0
  3  2  2  0
  4  2  1  0
  5  4  1  0
  5  6  1  0
  7  6  1  0
  7  8  1  0
  8 10  1  0
  8  9  1  1
 10 11  2  0
 12 13  1  0
 14 15  1  1
 14 16  1  0
 14 13  1  0
 16 17  1  6
 17 10  1  0
 18 24  1  0
 18 16  1  0
 19 18  2  0
 21 22  1  6
 21 20  1  0
 23 21  1  0
 23 24  1  6
 25 26  1  0
 25 23  1  0
 27 25  2  0
M  END
$$$$
