RIV.pdb
     RDKit          3D

 27 26  0  0  1  0  0  0  0  0999 V2000
   11.4017  -19.4147   14.1962 N   0  0  0  0  0  0  0  0  0  0  0  0
   10.1945  -18.8816   14.7253 C   0  0  0  0  0  0  0  0  0  0  0  0
    9.0995  -19.1024   14.0561 N   0  0  0  0  0  0  0  0  0  0  0  0
   10.2019  -18.1437   15.9318 N   0  0  0  0  0  0  0  0  0  0  0  0
   11.2258  -18.3190   16.9078 C   0  0  0  0  0  0  0  0  0  0  0  0
   10.6833  -18.7080   18.2651 C   0  0  0  0  0  0  0  0  0  0  0  0
   11.3371  -17.9403   19.3812 C   0  0  0  0  0  0  0  0  0  0  0  0
   10.8120  -18.3292   20.7397 C   0  0  2  0  0  0  0  0  0  0  0  0
    9.5804  -19.0854   20.6720 N   0  0  0  0  0  0  0  0  0  0  0  0
   10.5826  -17.1197   21.5424 C   0  0  0  0  0  0  0  0  0  0  0  0
   11.5364  -16.3395   21.7875 O   0  0  0  0  0  0  0  0  0  0  0  0
    8.1723  -18.8145   14.3887 C   0  0  0  0  0  0  0  0  0  0  0  0
    6.7278  -13.8068   20.4022 C   0  0  0  0  0  0  0  0  0  0  0  0
    7.9662  -14.4473   20.9237 C   0  0  2  0  0  0  0  0  0  0  0  0
    7.8938  -14.8178   22.3794 C   0  0  0  0  0  0  0  0  0  0  0  0
    7.5255  -13.6722   23.2638 C   0  0  2  0  0  0  0  0  0  0  0  0
    9.1474  -15.5218   22.8011 N   0  0  0  0  0  0  0  0  0  0  0  0
    9.3189  -16.7536   22.0810 C   0  0  0  0  0  0  0  0  0  0  0  0
    9.2095  -15.7124   24.2704 O   0  0  0  0  0  0  0  0  0  0  0  0
    8.9251  -16.8513   24.7167 C   0  0  0  0  0  0  0  0  0  0  0  0
   11.2497  -13.1196   26.8526 C   0  0  1  0  0  0  0  0  0  0  0  0
    9.9480  -13.6658   27.3932 C   0  0  0  0  0  0  0  0  0  0  0  0
   10.0510  -13.8835   28.8722 C   0  0  2  0  0  0  0  0  0  0  0  0
    9.6373  -14.9363   26.6363 N   0  0  0  0  0  0  0  0  0  0  0  0
    9.5631  -14.7135   25.2048 C   0  0  0  0  0  0  0  0  0  0  0  0
    8.3743  -15.5649   27.0723 O   0  0  0  0  0  0  0  0  0  0  0  0
    8.3481  -16.5937   28.0016 O   0  0  0  0  0  0  0  0  0  0  0  0
  2  1  1  0
  3  2  2  0
  4  2  1  0
  5  4  1  0
  5  6  1  0
  7  6  1  0
  7  8  1  0
  8 10  1  0
  8  9  1  6
 10 11  2  0
 12 13  1  0
 14 15  1  1
 14 16  1  0
 14 13  1  0
 16 17  1  6
 17 10  1  0
 18 24  1  0
 18 16  1  0
 19 18  2  0
 21 22  1  1
 21 20  1  0
 23 21  1  0
 23 24  1  1
 25 26  1  0
 25 23  1  0
 27 25  2  0
M  END
$$$$
