RIV.pdb
     RDKit          3D

 27 26  0  0  1  0  0  0  0  0999 V2000
    9.0288  -23.6490   22.3840 N   0  0  0  0  0  0  0  0  0  0  0  0
    9.4048  -22.8178   23.4746 C   0  0  0  0  0  0  0  0  0  0  0  0
   10.6766  -22.7071   23.7313 N   0  0  0  0  0  0  0  0  0  0  0  0
    8.4228  -22.1457   24.2388 N   0  0  0  0  0  0  0  0  0  0  0  0
    7.5398  -21.1946   23.6492 C   0  0  0  0  0  0  0  0  0  0  0  0
    8.2567  -20.1920   22.7726 C   0  0  0  0  0  0  0  0  0  0  0  0
    8.3933  -18.8494   23.4370 C   0  0  0  0  0  0  0  0  0  0  0  0
    7.6977  -17.7502   22.6750 C   0  0  2  0  0  0  0  0  0  0  0  0
    7.9387  -17.8135   21.2498 N   0  0  0  0  0  0  0  0  0  0  0  0
    8.1494  -16.4442   23.1751 C   0  0  0  0  0  0  0  0  0  0  0  0
    9.1999  -15.9272   22.7192 O   0  0  0  0  0  0  0  0  0  0  0  0
   11.0436  -22.1576   24.5165 C   0  0  0  0  0  0  0  0  0  0  0  0
    6.4412  -11.3784   26.3103 C   0  0  0  0  0  0  0  0  0  0  0  0
    7.4174  -12.2377   25.5860 C   0  0  2  0  0  0  0  0  0  0  0  0
    6.9133  -13.6255   25.3009 C   0  0  0  0  0  0  0  0  0  0  0  0
    6.2926  -14.2851   26.4883 C   0  0  2  0  0  0  0  0  0  0  0  0
    7.9853  -14.4464   24.6513 N   0  0  0  0  0  0  0  0  0  0  0  0
    7.4632  -15.6959   24.1703 C   0  0  0  0  0  0  0  0  0  0  0  0
    9.1596  -14.6280   25.5385 O   0  0  0  0  0  0  0  0  0  0  0  0
    9.9859  -13.6844   25.6018 C   0  0  0  0  0  0  0  0  0  0  0  0
    9.0758  -15.2486   29.2396 C   0  0  1  0  0  0  0  0  0  0  0  0
   10.2690  -14.8238   28.4145 C   0  0  0  0  0  0  0  0  0  0  0  0
   10.0611  -13.4414   27.8749 C   0  0  1  0  0  0  0  0  0  0  0  0
   10.4597  -15.8533   27.3248 N   0  0  0  0  0  0  0  0  0  0  0  0
    9.4197  -15.7783   26.3163 C   0  0  0  0  0  0  0  0  0  0  0  0
   10.4992  -17.2342   27.8464 O   0  0  0  0  0  0  0  0  0  0  0  0
   11.4753  -17.6559   28.7363 O   0  0  0  0  0  0  0  0  0  0  0  0
  2  1  1  0
  3  2  2  0
  4  2  1  0
  5  4  1  0
  5  6  1  0
  7  6  1  0
  7  8  1  0
  8 10  1  0
  8  9  1  6
 10 11  2  0
 12 13  1  0
 14 15  1  6
 14 16  1  0
 14 13  1  0
 16 17  1  1
 17 10  1  0
 18 24  1  0
 18 16  1  0
 19 18  2  0
 21 22  1  6
 21 20  1  0
 23 21  1  0
 23 24  1  6
 25 26  1  0
 25 23  1  0
 27 25  2  0
M  END
$$$$
