RIV.pdb
     RDKit          3D

 27 26  0  0  1  0  0  0  0  0999 V2000
    8.4943  -22.4648   21.4428 N   0  0  0  0  0  0  0  0  0  0  0  0
    9.2510  -22.9775   22.5318 C   0  0  0  0  0  0  0  0  0  0  0  0
    8.6527  -23.8072   23.3376 N   0  0  0  0  0  0  0  0  0  0  0  0
   10.5988  -22.5908   22.7167 N   0  0  0  0  0  0  0  0  0  0  0  0
   10.9868  -21.2193   22.7288 C   0  0  0  0  0  0  0  0  0  0  0  0
   10.2286  -20.3852   21.7204 C   0  0  0  0  0  0  0  0  0  0  0  0
   10.5812  -18.9256   21.8081 C   0  0  0  0  0  0  0  0  0  0  0  0
    9.8369  -18.0861   20.8011 C   0  0  2  0  0  0  0  0  0  0  0  0
   10.4681  -18.0770   19.4993 N   0  0  0  0  0  0  0  0  0  0  0  0
    9.7389  -16.7039   21.2905 C   0  0  0  0  0  0  0  0  0  0  0  0
   10.7772  -16.0076   21.4153 O   0  0  0  0  0  0  0  0  0  0  0  0
    9.1063  -24.2088   24.1659 C   0  0  0  0  0  0  0  0  0  0  0  0
    7.0226  -13.1942   18.9053 C   0  0  0  0  0  0  0  0  0  0  0  0
    7.9466  -13.9300   19.8112 C   0  0  2  0  0  0  0  0  0  0  0  0
    7.5408  -13.8899   21.2587 C   0  0  0  0  0  0  0  0  0  0  0  0
    7.3352  -12.5046   21.7775 C   0  0  2  0  0  0  0  0  0  0  0  0
    8.4848  -14.7065   22.0876 N   0  0  0  0  0  0  0  0  0  0  0  0
    8.5150  -16.0736   21.6456 C   0  0  0  0  0  0  0  0  0  0  0  0
    8.1963  -14.5870   23.5373 O   0  0  0  0  0  0  0  0  0  0  0  0
    7.1163  -15.0754   23.9524 C   0  0  0  0  0  0  0  0  0  0  0  0
    7.5522  -11.7196   25.1922 C   0  0  2  0  0  0  0  0  0  0  0  0
    7.4090  -12.9713   26.0277 C   0  0  0  0  0  0  0  0  0  0  0  0
    7.1151  -12.6131   27.4527 C   0  0  2  0  0  0  0  0  0  0  0  0
    8.6839  -13.7684   25.8771 N   0  0  0  0  0  0  0  0  0  0  0  0
    9.0409  -13.9674   24.4852 C   0  0  0  0  0  0  0  0  0  0  0  0
    8.6093  -15.0912   26.5289 O   0  0  0  0  0  0  0  0  0  0  0  0
    9.2180  -15.3447   27.7487 O   0  0  0  0  0  0  0  0  0  0  0  0
  2  1  1  0
  3  2  2  0
  4  2  1  0
  5  4  1  0
  5  6  1  0
  7  6  1  0
  7  8  1  0
  8 10  1  0
  8  9  1  6
 10 11  2  0
 12 13  1  0
 14 15  1  1
 14 16  1  0
 14 13  1  0
 16 17  1  1
 17 10  1  0
 18 24  1  0
 18 16  1  0
 19 18  2  0
 21 22  1  1
 21 20  1  0
 23 21  1  0
 23 24  1  1
 25 26  1  0
 25 23  1  0
 27 25  2  0
M  END
$$$$
