KGI.pdb
     RDKit          3D

 22 21  0  0  1  0  0  0  0  0999 V2000
   22.9421  -19.5334  -14.9391 N   0  0  0  0  0  0  0  0  0  0  0  0
   23.1408  -20.2196  -13.7142 C   0  0  1  0  0  0  0  0  0  0  0  0
   22.8863  -21.7013  -13.8973 C   0  0  0  0  0  0  0  0  0  0  0  0
   21.4963  -22.0160  -13.4206 C   0  0  0  0  0  0  0  0  0  0  0  0
   21.2060  -23.5218  -13.4789 C   0  0  0  0  0  0  0  0  0  0  0  0
   19.9147  -23.7437  -14.2541 C   0  0  0  0  0  0  0  0  0  0  0  0
   18.7481  -23.2925  -13.5268 N   0  0  0  0  0  0  0  0  0  0  0  0
   24.3980  -19.9501  -13.0058 C   0  0  0  0  0  0  0  0  0  0  0  0
   25.4645  -20.0215  -13.6825 O   0  0  0  0  0  0  0  0  0  0  0  0
   24.5406  -19.6195  -11.6280 N   0  0  0  0  0  0  0  0  0  0  0  0
   25.8567  -19.4210  -11.0374 C   0  0  0  0  0  0  0  0  0  0  0  0
   26.0963  -20.2945   -9.8586 C   0  0  0  0  0  0  0  0  0  0  0  0
   25.9015  -21.5270   -9.9390 O   0  0  0  0  0  0  0  0  0  0  0  0
   29.2120  -20.1410   -4.4883 C   0  0  0  0  0  0  0  0  0  0  0  0
   28.1551  -20.8918   -5.2875 C   0  0  0  0  0  0  0  0  0  0  0  0
   27.8048  -20.0676   -6.4815 C   0  0  2  0  0  0  0  0  0  0  0  0
   27.3519  -18.6902   -5.9744 C   0  0  0  0  0  0  0  0  0  0  0  0
   26.8573  -20.6418   -7.4579 C   0  0  2  0  0  0  0  0  0  0  0  0
   26.5430  -19.8020   -8.5978 N   0  0  0  0  0  0  0  0  0  0  0  0
   25.5893  -21.0051   -6.7405 C   0  0  0  0  0  0  0  0  0  0  0  0
   25.5900  -22.1120   -5.9210 O   0  0  0  0  0  0  0  0  0  0  0  0
   24.5780  -20.3239   -6.8873 O   0  0  0  0  0  0  0  0  0  0  0  0
  2  1  1  6
  2  3  1  0
  4  3  1  0
  5  4  1  0
  6  5  1  0
  7  6  1  0
  8  9  2  0
  8  2  1  0
 10  8  1  0
 11 12  1  0
 11 10  1  0
 12 19  1  0
 13 12  2  0
 15 14  1  0
 16 15  1  0
 16 17  1  1
 18 16  1  0
 18 20  1  0
 18 19  1  6
 20 22  2  0
 20 21  1  0
M  END
$$$$
