KGI.pdb
     RDKit          3D

 22 21  0  0  1  0  0  0  0  0999 V2000
   25.1239  -20.9970  -13.6809 N   0  0  0  0  0  0  0  0  0  0  0  0
   23.9998  -20.9481  -12.8179 C   0  0  1  0  0  0  0  0  0  0  0  0
   22.9772  -21.9859  -13.2315 C   0  0  0  0  0  0  0  0  0  0  0  0
   21.6999  -21.2859  -13.6017 C   0  0  0  0  0  0  0  0  0  0  0  0
   21.9606  -20.0772  -14.5107 C   0  0  0  0  0  0  0  0  0  0  0  0
   20.6243  -19.4789  -14.9278 C   0  0  0  0  0  0  0  0  0  0  0  0
   20.7789  -18.2819  -15.7260 N   0  0  0  0  0  0  0  0  0  0  0  0
   24.2756  -20.9765  -11.3763 C   0  0  0  0  0  0  0  0  0  0  0  0
   24.0648  -22.0683  -10.7732 O   0  0  0  0  0  0  0  0  0  0  0  0
   24.7541  -19.8946  -10.5833 N   0  0  0  0  0  0  0  0  0  0  0  0
   25.1411  -20.0976   -9.1943 C   0  0  0  0  0  0  0  0  0  0  0  0
   26.6068  -19.9710   -8.9808 C   0  0  0  0  0  0  0  0  0  0  0  0
   27.3690  -19.7716   -9.9517 O   0  0  0  0  0  0  0  0  0  0  0  0
   29.1029  -19.9133   -3.6501 C   0  0  0  0  0  0  0  0  0  0  0  0
   28.7348  -20.5052   -5.0043 C   0  0  0  0  0  0  0  0  0  0  0  0
   28.9626  -19.4594   -6.0444 C   0  0  2  0  0  0  0  0  0  0  0  0
   28.2637  -18.1766   -5.5696 C   0  0  0  0  0  0  0  0  0  0  0  0
   28.6226  -19.7955   -7.4416 C   0  0  2  0  0  0  0  0  0  0  0  0
   27.2223  -20.0715   -7.6991 N   0  0  0  0  0  0  0  0  0  0  0  0
   29.4504  -20.9734   -7.8677 C   0  0  0  0  0  0  0  0  0  0  0  0
   30.8028  -20.7944   -8.0564 O   0  0  0  0  0  0  0  0  0  0  0  0
   28.9242  -22.0694   -8.0416 O   0  0  0  0  0  0  0  0  0  0  0  0
  2  1  1  6
  2  3  1  0
  4  3  1  0
  5  4  1  0
  6  5  1  0
  7  6  1  0
  8  9  2  0
  8  2  1  0
 10  8  1  0
 11 12  1  0
 11 10  1  0
 12 19  1  0
 13 12  2  0
 15 14  1  0
 16 15  1  0
 16 17  1  1
 18 16  1  0
 18 20  1  0
 18 19  1  1
 20 22  2  0
 20 21  1  0
M  END
$$$$
