KGI.pdb
     RDKit          3D

 22 21  0  0  1  0  0  0  0  0999 V2000
   17.5474  -22.4297   -9.7527 N   0  0  0  0  0  0  0  0  0  0  0  0
   17.6861  -23.8353   -9.8785 C   0  0  1  0  0  0  0  0  0  0  0  0
   18.4670  -24.1739  -11.1313 C   0  0  0  0  0  0  0  0  0  0  0  0
   17.9514  -23.3329  -12.2650 C   0  0  0  0  0  0  0  0  0  0  0  0
   18.5929  -23.7306  -13.6012 C   0  0  0  0  0  0  0  0  0  0  0  0
   17.9144  -22.9554  -14.7220 C   0  0  0  0  0  0  0  0  0  0  0  0
   18.4256  -23.3099  -16.0284 N   0  0  0  0  0  0  0  0  0  0  0  0
   18.1797  -24.5557   -8.6986 C   0  0  0  0  0  0  0  0  0  0  0  0
   18.4242  -25.7888   -8.8400 O   0  0  0  0  0  0  0  0  0  0  0  0
   18.4081  -24.0070   -7.4044 N   0  0  0  0  0  0  0  0  0  0  0  0
   18.9748  -24.8180   -6.3360 C   0  0  0  0  0  0  0  0  0  0  0  0
   17.9509  -25.6237   -5.6202 C   0  0  0  0  0  0  0  0  0  0  0  0
   16.7416  -25.5123   -5.9181 O   0  0  0  0  0  0  0  0  0  0  0  0
   18.7143  -30.7777   -3.6992 C   0  0  0  0  0  0  0  0  0  0  0  0
   18.1285  -29.5581   -4.3984 C   0  0  0  0  0  0  0  0  0  0  0  0
   17.6544  -28.6066   -3.3508 C   0  0  2  0  0  0  0  0  0  0  0  0
   16.5262  -29.3011   -2.5734 C   0  0  0  0  0  0  0  0  0  0  0  0
   17.2794  -27.2442   -3.7800 C   0  0  2  0  0  0  0  0  0  0  0  0
   18.2670  -26.5418   -4.5767 N   0  0  0  0  0  0  0  0  0  0  0  0
   16.9497  -26.4304   -2.5621 C   0  0  0  0  0  0  0  0  0  0  0  0
   15.6567  -26.4481   -2.0882 O   0  0  0  0  0  0  0  0  0  0  0  0
   17.8209  -25.7663   -2.0068 O   0  0  0  0  0  0  0  0  0  0  0  0
  2  1  1  1
  2  3  1  0
  4  3  1  0
  5  4  1  0
  6  5  1  0
  7  6  1  0
  8  9  2  0
  8  2  1  0
 10  8  1  0
 11 12  1  0
 11 10  1  0
 12 19  1  0
 13 12  2  0
 15 14  1  0
 16 15  1  0
 16 17  1  6
 18 16  1  0
 18 20  1  0
 18 19  1  1
 20 22  2  0
 20 21  1  0
M  END
$$$$
