KGI.pdb
     RDKit          3D

 22 21  0  0  1  0  0  0  0  0999 V2000
   21.5220  -22.5016  -14.1595 N   0  0  0  0  0  0  0  0  0  0  0  0
   21.5916  -21.0945  -13.9990 C   0  0  1  0  0  0  0  0  0  0  0  0
   20.2155  -20.4814  -14.1549 C   0  0  0  0  0  0  0  0  0  0  0  0
   19.3009  -21.4975  -14.7789 C   0  0  0  0  0  0  0  0  0  0  0  0
   18.9632  -22.6306  -13.8005 C   0  0  0  0  0  0  0  0  0  0  0  0
   17.9712  -23.5747  -14.4654 C   0  0  0  0  0  0  0  0  0  0  0  0
   17.5551  -24.6476  -13.5883 N   0  0  0  0  0  0  0  0  0  0  0  0
   22.2925  -20.6024  -12.8067 C   0  0  0  0  0  0  0  0  0  0  0  0
   22.3071  -19.3505  -12.6256 O   0  0  0  0  0  0  0  0  0  0  0  0
   22.9643  -21.3934  -11.8314 N   0  0  0  0  0  0  0  0  0  0  0  0
   23.7086  -20.7714  -10.7454 C   0  0  0  0  0  0  0  0  0  0  0  0
   25.0464  -20.2824  -11.1708 C   0  0  0  0  0  0  0  0  0  0  0  0
   25.2409  -19.0608  -11.3532 O   0  0  0  0  0  0  0  0  0  0  0  0
   30.9681  -21.4762  -10.4543 C   0  0  0  0  0  0  0  0  0  0  0  0
   29.9840  -20.8124  -11.4085 C   0  0  0  0  0  0  0  0  0  0  0  0
   28.6075  -21.2497  -11.0327 C   0  0  2  0  0  0  0  0  0  0  0  0
   28.5979  -22.7857  -11.0234 C   0  0  0  0  0  0  0  0  0  0  0  0
   27.4761  -20.6895  -11.7988 C   0  0  2  0  0  0  0  0  0  0  0  0
   26.1586  -21.1445  -11.3980 N   0  0  0  0  0  0  0  0  0  0  0  0
   27.6864  -20.9892  -13.2549 C   0  0  0  0  0  0  0  0  0  0  0  0
   26.9610  -22.0095  -13.8290 O   0  0  0  0  0  0  0  0  0  0  0  0
   28.4901  -20.3332  -13.9122 O   0  0  0  0  0  0  0  0  0  0  0  0
  2  1  1  1
  2  3  1  0
  4  3  1  0
  5  4  1  0
  6  5  1  0
  7  6  1  0
  8  9  2  0
  8  2  1  0
 10  8  1  0
 11 12  1  0
 11 10  1  0
 12 19  1  0
 13 12  2  0
 15 14  1  0
 16 15  1  0
 16 17  1  6
 18 16  1  0
 18 20  1  0
 18 19  1  1
 20 22  2  0
 20 21  1  0
M  END
$$$$
