KGI.pdb
     RDKit          3D

 22 21  0  0  1  0  0  0  0  0999 V2000
   23.4892  -21.8068  -15.7447 N   0  0  0  0  0  0  0  0  0  0  0  0
   24.7005  -22.5395  -15.6633 C   0  0  1  0  0  0  0  0  0  0  0  0
   25.2361  -22.8209  -17.0517 C   0  0  0  0  0  0  0  0  0  0  0  0
   24.6242  -24.0971  -17.5569 C   0  0  0  0  0  0  0  0  0  0  0  0
   24.8002  -25.2446  -16.5532 C   0  0  0  0  0  0  0  0  0  0  0  0
   24.1585  -26.5009  -17.1255 C   0  0  0  0  0  0  0  0  0  0  0  0
   24.1840  -27.6086  -16.1949 N   0  0  0  0  0  0  0  0  0  0  0  0
   25.7307  -22.0090  -14.7620 C   0  0  0  0  0  0  0  0  0  0  0  0
   26.8073  -22.6671  -14.6708 O   0  0  0  0  0  0  0  0  0  0  0  0
   25.6398  -20.8268  -13.9732 N   0  0  0  0  0  0  0  0  0  0  0  0
   26.7376  -20.4165  -13.1089 C   0  0  0  0  0  0  0  0  0  0  0  0
   26.6089  -20.9444  -11.7252 C   0  0  0  0  0  0  0  0  0  0  0  0
   26.4939  -22.1740  -11.5291 O   0  0  0  0  0  0  0  0  0  0  0  0
   28.7136  -19.3560   -6.4266 C   0  0  0  0  0  0  0  0  0  0  0  0
   27.9693  -20.4387   -7.1969 C   0  0  0  0  0  0  0  0  0  0  0  0
   27.0378  -19.7703   -8.1525 C   0  0  2  0  0  0  0  0  0  0  0  0
   25.9818  -19.0251   -7.3223 C   0  0  0  0  0  0  0  0  0  0  0  0
   26.4305  -20.5997   -9.2127 C   0  0  2  0  0  0  0  0  0  0  0  0
   26.6017  -20.1123  -10.5679 N   0  0  0  0  0  0  0  0  0  0  0  0
   24.9663  -20.7574   -8.9199 C   0  0  0  0  0  0  0  0  0  0  0  0
   24.5838  -21.6275   -7.9231 O   0  0  0  0  0  0  0  0  0  0  0  0
   24.1347  -20.1200   -9.5605 O   0  0  0  0  0  0  0  0  0  0  0  0
  2  1  1  6
  2  3  1  0
  4  3  1  0
  5  4  1  0
  6  5  1  0
  7  6  1  0
  8  9  2  0
  8  2  1  0
 10  8  1  0
 11 12  1  0
 11 10  1  0
 12 19  1  0
 13 12  2  0
 15 14  1  0
 16 15  1  0
 16 17  1  1
 18 16  1  0
 18 20  1  0
 18 19  1  6
 20 22  2  0
 20 21  1  0
M  END
$$$$
