KGI.pdb
     RDKit          3D

 22 21  0  0  1  0  0  0  0  0999 V2000
   24.9562  -21.9361  -14.2594 N   0  0  0  0  0  0  0  0  0  0  0  0
   25.2085  -20.5483  -14.1144 C   0  0  1  0  0  0  0  0  0  0  0  0
   24.3612  -19.7578  -15.0896 C   0  0  0  0  0  0  0  0  0  0  0  0
   23.5830  -20.7186  -15.9438 C   0  0  0  0  0  0  0  0  0  0  0  0
   22.7474  -19.9855  -17.0018 C   0  0  0  0  0  0  0  0  0  0  0  0
   22.1148  -21.0147  -17.9282 C   0  0  0  0  0  0  0  0  0  0  0  0
   21.2210  -20.4141  -18.8947 N   0  0  0  0  0  0  0  0  0  0  0  0
   25.1459  -20.0074  -12.7512 C   0  0  0  0  0  0  0  0  0  0  0  0
   24.3186  -19.0736  -12.5418 O   0  0  0  0  0  0  0  0  0  0  0  0
   25.9279  -20.4252  -11.6366 N   0  0  0  0  0  0  0  0  0  0  0  0
   25.7699  -19.7966  -10.3327 C   0  0  0  0  0  0  0  0  0  0  0  0
   26.6689  -20.3775   -9.3010 C   0  0  0  0  0  0  0  0  0  0  0  0
   27.4237  -21.3317   -9.5896 O   0  0  0  0  0  0  0  0  0  0  0  0
   29.8974  -18.9905   -4.3206 C   0  0  0  0  0  0  0  0  0  0  0  0
   29.2044  -20.1429   -5.0357 C   0  0  0  0  0  0  0  0  0  0  0  0
   28.3058  -19.5674   -6.0791 C   0  0  2  0  0  0  0  0  0  0  0  0
   27.4080  -18.5274   -5.3920 C   0  0  0  0  0  0  0  0  0  0  0  0
   27.5316  -20.5086   -6.9132 C   0  0  2  0  0  0  0  0  0  0  0  0
   26.7246  -19.9063   -7.9569 N   0  0  0  0  0  0  0  0  0  0  0  0
   26.6543  -21.3347   -6.0176 C   0  0  0  0  0  0  0  0  0  0  0  0
   27.2153  -22.3961   -5.3426 O   0  0  0  0  0  0  0  0  0  0  0  0
   25.4630  -21.0623   -5.8954 O   0  0  0  0  0  0  0  0  0  0  0  0
  2  1  1  1
  2  3  1  0
  4  3  1  0
  5  4  1  0
  6  5  1  0
  7  6  1  0
  8  9  2  0
  8  2  1  0
 10  8  1  0
 11 12  1  0
 11 10  1  0
 12 19  1  0
 13 12  2  0
 15 14  1  0
 16 15  1  0
 16 17  1  1
 18 16  1  0
 18 20  1  0
 18 19  1  6
 20 22  2  0
 20 21  1  0
M  END
$$$$
