KGI.pdb
     RDKit          3D

 22 21  0  0  1  0  0  0  0  0999 V2000
   27.1498  -20.7976  -17.2185 N   0  0  0  0  0  0  0  0  0  0  0  0
   26.0451  -20.0622  -16.7191 C   0  0  1  0  0  0  0  0  0  0  0  0
   24.7622  -20.8402  -16.9255 C   0  0  0  0  0  0  0  0  0  0  0  0
   25.0620  -22.3080  -16.8062 C   0  0  0  0  0  0  0  0  0  0  0  0
   24.6167  -22.8675  -15.4483 C   0  0  0  0  0  0  0  0  0  0  0  0
   24.8835  -24.3660  -15.4229 C   0  0  0  0  0  0  0  0  0  0  0  0
   24.5151  -24.9725  -14.1619 N   0  0  0  0  0  0  0  0  0  0  0  0
   26.1681  -19.5362  -15.3541 C   0  0  0  0  0  0  0  0  0  0  0  0
   25.1334  -19.0175  -14.8437 O   0  0  0  0  0  0  0  0  0  0  0  0
   27.3394  -19.5463  -14.5441 N   0  0  0  0  0  0  0  0  0  0  0  0
   27.3021  -19.0748  -13.1669 C   0  0  0  0  0  0  0  0  0  0  0  0
   26.6950  -20.0627  -12.2366 C   0  0  0  0  0  0  0  0  0  0  0  0
   26.5232  -21.2465  -12.6006 O   0  0  0  0  0  0  0  0  0  0  0  0
   27.3826  -19.3355   -6.8764 C   0  0  0  0  0  0  0  0  0  0  0  0
   27.3854  -20.2052   -8.1266 C   0  0  0  0  0  0  0  0  0  0  0  0
   25.9693  -20.4133   -8.5495 C   0  0  2  0  0  0  0  0  0  0  0  0
   25.3674  -21.4887   -7.6326 C   0  0  0  0  0  0  0  0  0  0  0  0
   25.7130  -20.6904   -9.9772 C   0  0  2  0  0  0  0  0  0  0  0  0
   26.2760  -19.7368  -10.9138 N   0  0  0  0  0  0  0  0  0  0  0  0
   24.2296  -20.7831  -10.1900 C   0  0  0  0  0  0  0  0  0  0  0  0
   23.5885  -19.7415  -10.8230 O   0  0  0  0  0  0  0  0  0  0  0  0
   23.6094  -21.7706   -9.8045 O   0  0  0  0  0  0  0  0  0  0  0  0
  2  1  1  1
  2  3  1  0
  4  3  1  0
  5  4  1  0
  6  5  1  0
  7  6  1  0
  8  9  2  0
  8  2  1  0
 10  8  1  0
 11 12  1  0
 11 10  1  0
 12 19  1  0
 13 12  2  0
 15 14  1  0
 16 15  1  0
 16 17  1  1
 18 16  1  0
 18 20  1  0
 18 19  1  6
 20 22  2  0
 20 21  1  0
M  END
$$$$
