KGI.pdb
     RDKit          3D

 22 21  0  0  1  0  0  0  0  0999 V2000
   25.9912  -22.0589  -12.1823 N   0  0  0  0  0  0  0  0  0  0  0  0
   26.0608  -20.6432  -12.1425 C   0  0  1  0  0  0  0  0  0  0  0  0
   26.4391  -20.1768  -10.7522 C   0  0  0  0  0  0  0  0  0  0  0  0
   25.6058  -20.9225   -9.7482 C   0  0  0  0  0  0  0  0  0  0  0  0
   24.1575  -20.4152   -9.7271 C   0  0  0  0  0  0  0  0  0  0  0  0
   23.4014  -21.1332   -8.6179 C   0  0  0  0  0  0  0  0  0  0  0  0
   22.0263  -20.6957   -8.5125 N   0  0  0  0  0  0  0  0  0  0  0  0
   26.8610  -19.9944  -13.1884 C   0  0  0  0  0  0  0  0  0  0  0  0
   27.4959  -20.7520  -13.9779 O   0  0  0  0  0  0  0  0  0  0  0  0
   26.9998  -18.5934  -13.4030 N   0  0  0  0  0  0  0  0  0  0  0  0
   27.5425  -18.0768  -14.6516 C   0  0  0  0  0  0  0  0  0  0  0  0
   26.7496  -18.4911  -15.8389 C   0  0  0  0  0  0  0  0  0  0  0  0
   27.0736  -19.5100  -16.4873 O   0  0  0  0  0  0  0  0  0  0  0  0
   21.2241  -17.5964  -15.7880 C   0  0  0  0  0  0  0  0  0  0  0  0
   22.6704  -17.2499  -16.1162 C   0  0  0  0  0  0  0  0  0  0  0  0
   23.2728  -18.4097  -16.8368 C   0  0  2  0  0  0  0  0  0  0  0  0
   23.0541  -19.6570  -15.9673 C   0  0  0  0  0  0  0  0  0  0  0  0
   24.6726  -18.2843  -17.2902 C   0  0  2  0  0  0  0  0  0  0  0  0
   25.6090  -17.7755  -16.3065 N   0  0  0  0  0  0  0  0  0  0  0  0
   24.7060  -17.4099  -18.5104 C   0  0  0  0  0  0  0  0  0  0  0  0
   25.3810  -16.2113  -18.4437 O   0  0  0  0  0  0  0  0  0  0  0  0
   24.1408  -17.7643  -19.5416 O   0  0  0  0  0  0  0  0  0  0  0  0
  2  1  1  1
  2  3  1  0
  4  3  1  0
  5  4  1  0
  6  5  1  0
  7  6  1  0
  8  9  2  0
  8  2  1  0
 10  8  1  0
 11 12  1  0
 11 10  1  0
 12 19  1  0
 13 12  2  0
 15 14  1  0
 16 15  1  0
 16 17  1  1
 18 16  1  0
 18 20  1  0
 18 19  1  1
 20 22  2  0
 20 21  1  0
M  END
$$$$
