KGI.pdb
     RDKit          3D

 22 21  0  0  1  0  0  0  0  0999 V2000
   18.4746  -13.4477  -18.5724 N   0  0  0  0  0  0  0  0  0  0  0  0
   17.9325  -12.5435  -19.5206 C   0  0  1  0  0  0  0  0  0  0  0  0
   16.4661  -12.8437  -19.7511 C   0  0  0  0  0  0  0  0  0  0  0  0
   16.3041  -14.3207  -19.9762 C   0  0  0  0  0  0  0  0  0  0  0  0
   15.5131  -14.9824  -18.8397 C   0  0  0  0  0  0  0  0  0  0  0  0
   14.1040  -15.2826  -19.3317 C   0  0  0  0  0  0  0  0  0  0  0  0
   13.3185  -16.0044  -18.3541 N   0  0  0  0  0  0  0  0  0  0  0  0
   18.1822  -11.1161  -19.2857 C   0  0  0  0  0  0  0  0  0  0  0  0
   17.7302  -10.3055  -20.1453 O   0  0  0  0  0  0  0  0  0  0  0  0
   18.8880  -10.5486  -18.1866 N   0  0  0  0  0  0  0  0  0  0  0  0
   19.0554   -9.1070  -18.0676 C   0  0  0  0  0  0  0  0  0  0  0  0
   19.4314   -8.6828  -16.6933 C   0  0  0  0  0  0  0  0  0  0  0  0
   18.6659   -8.9141  -15.7320 O   0  0  0  0  0  0  0  0  0  0  0  0
   23.2890  -10.4105  -13.3032 C   0  0  0  0  0  0  0  0  0  0  0  0
   23.1279   -8.9281  -13.6131 C   0  0  0  0  0  0  0  0  0  0  0  0
   22.5088   -8.8019  -14.9652 C   0  0  2  0  0  0  0  0  0  0  0  0
   23.6048   -8.3290  -15.9320 C   0  0  0  0  0  0  0  0  0  0  0  0
   21.2758   -7.9978  -15.0833 C   0  0  2  0  0  0  0  0  0  0  0  0
   20.6457   -8.0010  -16.3896 N   0  0  0  0  0  0  0  0  0  0  0  0
   21.5835   -6.5844  -14.6808 C   0  0  0  0  0  0  0  0  0  0  0  0
   21.4914   -5.5934  -15.6327 O   0  0  0  0  0  0  0  0  0  0  0  0
   21.9093   -6.3269  -13.5250 O   0  0  0  0  0  0  0  0  0  0  0  0
  2  1  1  1
  2  3  1  0
  4  3  1  0
  5  4  1  0
  6  5  1  0
  7  6  1  0
  8  9  2  0
  8  2  1  0
 10  8  1  0
 11 12  1  0
 11 10  1  0
 12 19  1  0
 13 12  2  0
 15 14  1  0
 16 15  1  0
 16 17  1  6
 18 16  1  0
 18 20  1  0
 18 19  1  6
 20 22  2  0
 20 21  1  0
M  END
$$$$
