RIS.pdb
     RDKit          3D

 26 25  0  0  1  0  0  0  0  0999 V2000
    5.7967  -14.9517   15.7010 N   0  0  0  0  0  0  0  0  0  0  0  0
    7.1841  -14.9794   15.9126 C   0  0  0  0  0  0  0  0  0  0  0  0
    7.9562  -13.9964   15.5366 N   0  0  0  0  0  0  0  0  0  0  0  0
    7.8081  -16.0893   16.5506 N   0  0  0  0  0  0  0  0  0  0  0  0
    7.7020  -16.2043   17.9891 C   0  0  0  0  0  0  0  0  0  0  0  0
    8.4715  -15.0940   18.6746 C   0  0  0  0  0  0  0  0  0  0  0  0
    8.4476  -15.2887   20.1691 C   0  0  0  0  0  0  0  0  0  0  0  0
    8.3028  -13.9969   20.9057 C   0  0  2  0  0  0  0  0  0  0  0  0
    9.0663  -12.9579   20.2422 N   0  0  0  0  0  0  0  0  0  0  0  0
    8.7278  -14.1007   22.3220 C   0  0  0  0  0  0  0  0  0  0  0  0
    9.9255  -13.9779   22.6840 O   0  0  0  0  0  0  0  0  0  0  0  0
    8.9927  -14.0644   15.6607 C   0  0  0  0  0  0  0  0  0  0  0  0
    5.8350  -11.3985   25.6516 C   0  0  0  0  0  0  0  0  0  0  0  0
    6.9963  -12.1140   24.9994 C   0  0  2  0  0  0  0  0  0  0  0  0
    7.1139  -13.5412   25.4401 C   0  0  0  0  0  0  0  0  0  0  0  0
    7.1086  -13.6897   26.9427 C   0  0  2  0  0  0  0  0  0  0  0  0
    8.1413  -14.3688   24.7659 N   0  0  0  0  0  0  0  0  0  0  0  0
    7.7734  -14.3474   23.3355 C   0  0  0  0  0  0  0  0  0  0  0  0
    8.3317  -15.7334   25.1599 O   0  0  0  0  0  0  0  0  0  0  0  0
    7.4167  -16.5733   24.8440 O   0  0  0  0  0  0  0  0  0  0  0  0
   11.4335  -17.9586   24.7926 C   0  0  0  0  0  0  0  0  0  0  0  0
   10.1734  -18.4641   24.9917 C   0  0  1  0  0  0  0  0  0  0  0  0
    9.4843  -17.7196   26.1360 N   0  0  0  0  0  0  0  0  0  0  0  0
    9.4096  -16.3020   25.8632 C   0  0  0  0  0  0  0  0  0  0  0  0
   10.2310  -17.9815   27.3820 O   0  0  0  0  0  0  0  0  0  0  0  0
   10.3171  -19.2736   27.8551 O   0  0  0  0  0  0  0  0  0  0  0  0
  2  3  2  0
  2  1  1  0
  4  2  1  0
  5  6  1  0
  5  4  1  0
  6  7  1  0
  7  8  1  0
  8  9  1  6
 10 11  2  0
 10  8  1  0
 13 14  1  0
 13 12  1  0
 14 16  1  0
 14 15  1  6
 16 17  1  1
 17 10  1  0
 18 16  1  0
 19 18  2  0
 21 20  1  0
 22 21  1  6
 22 23  1  0
 23 18  1  0
 24 22  1  0
 25 24  1  0
 26 24  2  0
M  END
$$$$
