RIS.pdb
     RDKit          3D

 26 25  0  0  1  0  0  0  0  0999 V2000
   10.3196  -17.1470   13.3881 N   0  0  0  0  0  0  0  0  0  0  0  0
    9.5833  -18.1246   14.0756 C   0  0  0  0  0  0  0  0  0  0  0  0
    8.3001  -18.2752   13.8898 N   0  0  0  0  0  0  0  0  0  0  0  0
   10.2122  -18.9968   15.0094 N   0  0  0  0  0  0  0  0  0  0  0  0
   11.6354  -18.8564   15.2304 C   0  0  0  0  0  0  0  0  0  0  0  0
   12.0005  -17.4065   15.4734 C   0  0  0  0  0  0  0  0  0  0  0  0
   11.8125  -17.0581   16.9278 C   0  0  0  0  0  0  0  0  0  0  0  0
   12.0703  -15.6120   17.2011 C   0  0  2  0  0  0  0  0  0  0  0  0
   13.4539  -15.2900   16.9100 N   0  0  0  0  0  0  0  0  0  0  0  0
   11.7537  -15.2335   18.5989 C   0  0  0  0  0  0  0  0  0  0  0  0
   12.6409  -15.0094   19.4610 O   0  0  0  0  0  0  0  0  0  0  0  0
    7.7728  -19.0029   14.4252 C   0  0  0  0  0  0  0  0  0  0  0  0
    7.4706  -12.0309   19.2146 C   0  0  0  0  0  0  0  0  0  0  0  0
    8.8305  -12.6697   19.3834 C   0  0  2  0  0  0  0  0  0  0  0  0
    8.7824  -13.9144   20.2163 C   0  0  0  0  0  0  0  0  0  0  0  0
    8.0255  -13.7224   21.5085 C   0  0  2  0  0  0  0  0  0  0  0  0
   10.0509  -14.6629   20.3773 N   0  0  0  0  0  0  0  0  0  0  0  0
   10.4084  -15.1100   19.0157 C   0  0  0  0  0  0  0  0  0  0  0  0
   10.1055  -15.7974   21.2511 O   0  0  0  0  0  0  0  0  0  0  0  0
    9.4392  -16.8381   20.9113 O   0  0  0  0  0  0  0  0  0  0  0  0
   13.0753  -16.7546   23.8171 C   0  0  0  0  0  0  0  0  0  0  0  0
   12.2393  -17.7296   23.3340 C   0  0  1  0  0  0  0  0  0  0  0  0
   10.8175  -17.1825   23.2006 N   0  0  0  0  0  0  0  0  0  0  0  0
   10.8060  -15.9394   22.4631 C   0  0  0  0  0  0  0  0  0  0  0  0
   10.2562  -17.0019   24.5538 O   0  0  0  0  0  0  0  0  0  0  0  0
   10.1967  -18.0834   25.4068 O   0  0  0  0  0  0  0  0  0  0  0  0
  2  3  2  0
  2  1  1  0
  4  2  1  0
  5  6  1  0
  5  4  1  0
  6  7  1  0
  7  8  1  0
  8  9  1  1
 10 11  2  0
 10  8  1  0
 13 14  1  0
 13 12  1  0
 14 16  1  0
 14 15  1  6
 16 17  1  1
 17 10  1  0
 18 16  1  0
 19 18  2  0
 21 20  1  0
 22 21  1  6
 22 23  1  0
 23 18  1  0
 24 22  1  0
 25 24  1  0
 26 24  2  0
M  END
$$$$
