RIS.pdb
     RDKit          3D

 26 25  0  0  1  0  0  0  0  0999 V2000
    5.9375  -18.9474   19.9133 N   0  0  0  0  0  0  0  0  0  0  0  0
    6.0190  -18.5933   18.5574 C   0  0  0  0  0  0  0  0  0  0  0  0
    5.1116  -18.9633   17.6950 N   0  0  0  0  0  0  0  0  0  0  0  0
    7.1028  -17.8109   18.0661 N   0  0  0  0  0  0  0  0  0  0  0  0
    8.2588  -17.6266   18.9169 C   0  0  0  0  0  0  0  0  0  0  0  0
    8.3811  -16.1803   19.3503 C   0  0  0  0  0  0  0  0  0  0  0  0
    7.3680  -15.8697   20.4223 C   0  0  0  0  0  0  0  0  0  0  0  0
    7.3721  -14.4250   20.8032 C   0  0  2  0  0  0  0  0  0  0  0  0
    7.9728  -13.6340   19.7468 N   0  0  0  0  0  0  0  0  0  0  0  0
    8.0849  -14.1767   22.0790 C   0  0  0  0  0  0  0  0  0  0  0  0
    9.3024  -13.8670   22.1293 O   0  0  0  0  0  0  0  0  0  0  0  0
    5.2164  -18.7184   16.6834 C   0  0  0  0  0  0  0  0  0  0  0  0
    6.5601  -11.7024   27.3152 C   0  0  0  0  0  0  0  0  0  0  0  0
    7.5314  -12.6890   26.7076 C   0  0  2  0  0  0  0  0  0  0  0  0
    7.1078  -13.1497   25.3463 C   0  0  0  0  0  0  0  0  0  0  0  0
    5.6882  -13.6634   25.3201 C   0  0  2  0  0  0  0  0  0  0  0  0
    8.0616  -14.0036   24.6004 N   0  0  0  0  0  0  0  0  0  0  0  0
    7.3987  -14.2834   23.3104 C   0  0  0  0  0  0  0  0  0  0  0  0
    8.4959  -15.2488   25.1612 O   0  0  0  0  0  0  0  0  0  0  0  0
    7.6308  -16.1898   25.2527 O   0  0  0  0  0  0  0  0  0  0  0  0
   12.3294  -16.5151   25.5154 C   0  0  0  0  0  0  0  0  0  0  0  0
   11.3478  -17.4740   25.5004 C   0  0  1  0  0  0  0  0  0  0  0  0
   10.0685  -16.9247   26.1331 N   0  0  0  0  0  0  0  0  0  0  0  0
    9.7721  -15.5989   25.6392 C   0  0  0  0  0  0  0  0  0  0  0  0
   10.2359  -16.9194   27.5995 O   0  0  0  0  0  0  0  0  0  0  0  0
   10.5330  -18.1001   28.2465 O   0  0  0  0  0  0  0  0  0  0  0  0
  2  3  2  0
  2  1  1  0
  4  2  1  0
  5  6  1  0
  5  4  1  0
  6  7  1  0
  7  8  1  0
  8  9  1  6
 10 11  2  0
 10  8  1  0
 13 14  1  0
 13 12  1  0
 14 16  1  0
 14 15  1  6
 16 17  1  1
 17 10  1  0
 18 16  1  0
 19 18  2  0
 21 20  1  0
 22 21  1  6
 22 23  1  0
 23 18  1  0
 24 22  1  0
 25 24  1  0
 26 24  2  0
M  END
$$$$
