RIS.pdb
     RDKit          3D

 26 25  0  0  1  0  0  0  0  0999 V2000
    9.7297  -14.8314   17.7407 N   0  0  0  0  0  0  0  0  0  0  0  0
    8.8402  -14.4715   16.7162 C   0  0  0  0  0  0  0  0  0  0  0  0
    8.8033  -15.1147   15.5810 N   0  0  0  0  0  0  0  0  0  0  0  0
    7.9366  -13.3824   16.8765 N   0  0  0  0  0  0  0  0  0  0  0  0
    7.8893  -12.7113   18.1576 C   0  0  0  0  0  0  0  0  0  0  0  0
    7.3110  -13.6231   19.2202 C   0  0  0  0  0  0  0  0  0  0  0  0
    8.3062  -13.8217   20.3347 C   0  0  0  0  0  0  0  0  0  0  0  0
    7.7802  -14.7153   21.4103 C   0  0  2  0  0  0  0  0  0  0  0  0
    6.3436  -14.5583   21.5289 N   0  0  0  0  0  0  0  0  0  0  0  0
    8.4197  -14.4602   22.7231 C   0  0  0  0  0  0  0  0  0  0  0  0
    9.3534  -13.6322   22.8760 O   0  0  0  0  0  0  0  0  0  0  0  0
    8.1043  -14.8504   14.8490 C   0  0  0  0  0  0  0  0  0  0  0  0
    6.0790  -12.1716   26.1377 C   0  0  0  0  0  0  0  0  0  0  0  0
    7.2207  -12.8170   25.3855 C   0  0  2  0  0  0  0  0  0  0  0  0
    7.6088  -14.1462   25.9581 C   0  0  0  0  0  0  0  0  0  0  0  0
    7.8915  -14.0825   27.4399 C   0  0  2  0  0  0  0  0  0  0  0  0
    8.6030  -14.9393   25.1980 N   0  0  0  0  0  0  0  0  0  0  0  0
    7.9872  -15.1590   23.8735 C   0  0  0  0  0  0  0  0  0  0  0  0
    9.0446  -16.2055   25.7033 O   0  0  0  0  0  0  0  0  0  0  0  0
    8.1607  -17.1198   25.8617 O   0  0  0  0  0  0  0  0  0  0  0  0
   12.9340  -17.5139   26.0290 C   0  0  0  0  0  0  0  0  0  0  0  0
   11.9455  -18.4548   25.8853 C   0  0  1  0  0  0  0  0  0  0  0  0
   10.6431  -17.9459   26.5045 N   0  0  0  0  0  0  0  0  0  0  0  0
   10.3464  -16.6028   26.0603 C   0  0  0  0  0  0  0  0  0  0  0  0
   10.7694  -18.0030   27.9740 O   0  0  0  0  0  0  0  0  0  0  0  0
   10.6027  -16.8482   28.7084 O   0  0  0  0  0  0  0  0  0  0  0  0
  2  3  2  0
  2  1  1  0
  4  2  1  0
  5  6  1  0
  5  4  1  0
  6  7  1  0
  7  8  1  0
  8  9  1  1
 10 11  2  0
 10  8  1  0
 13 14  1  0
 13 12  1  0
 14 16  1  0
 14 15  1  6
 16 17  1  6
 17 10  1  0
 18 16  1  0
 19 18  2  0
 21 20  1  0
 22 21  1  6
 22 23  1  0
 23 18  1  0
 24 22  1  0
 25 24  1  0
 26 24  2  0
M  END
$$$$
