RIS.pdb
     RDKit          3D

 26 25  0  0  1  0  0  0  0  0999 V2000
    7.3445  -21.6758   15.2895 N   0  0  0  0  0  0  0  0  0  0  0  0
    7.2880  -21.2831   13.9430 C   0  0  0  0  0  0  0  0  0  0  0  0
    6.5083  -21.8824   13.0847 N   0  0  0  0  0  0  0  0  0  0  0  0
    8.0851  -20.2075   13.4572 N   0  0  0  0  0  0  0  0  0  0  0  0
    8.8571  -19.4390   14.4099 C   0  0  0  0  0  0  0  0  0  0  0  0
    8.0028  -19.0395   15.5953 C   0  0  0  0  0  0  0  0  0  0  0  0
    8.8588  -18.4180   16.6691 C   0  0  0  0  0  0  0  0  0  0  0  0
    9.0122  -16.9430   16.4873 C   0  0  2  0  0  0  0  0  0  0  0  0
    9.8400  -16.6682   15.3289 N   0  0  0  0  0  0  0  0  0  0  0  0
    9.5900  -16.2812   17.6813 C   0  0  0  0  0  0  0  0  0  0  0  0
   10.8275  -16.1299   17.8437 O   0  0  0  0  0  0  0  0  0  0  0  0
    6.4926  -21.5757   12.0847 C   0  0  0  0  0  0  0  0  0  0  0  0
    6.6600  -12.2341   19.7246 C   0  0  0  0  0  0  0  0  0  0  0  0
    7.8754  -13.0307   19.3075 C   0  0  2  0  0  0  0  0  0  0  0  0
    8.2030  -14.1288   20.2729 C   0  0  0  0  0  0  0  0  0  0  0  0
    8.3233  -13.6376   21.6956 C   0  0  2  0  0  0  0  0  0  0  0  0
    9.2761  -15.0709   19.8779 N   0  0  0  0  0  0  0  0  0  0  0  0
    8.7441  -15.7871   18.7006 C   0  0  0  0  0  0  0  0  0  0  0  0
    9.7551  -16.0428   20.8157 O   0  0  0  0  0  0  0  0  0  0  0  0
    9.0237  -17.0744   21.0239 O   0  0  0  0  0  0  0  0  0  0  0  0
   13.1877  -18.2571   23.3848 C   0  0  0  0  0  0  0  0  0  0  0  0
   12.8499  -17.2463   22.5203 C   0  0  1  0  0  0  0  0  0  0  0  0
   11.3285  -17.1299   22.4185 N   0  0  0  0  0  0  0  0  0  0  0  0
   10.9476  -16.0291   21.5626 C   0  0  0  0  0  0  0  0  0  0  0  0
   10.7797  -16.9593   23.7781 O   0  0  0  0  0  0  0  0  0  0  0  0
   10.8815  -17.9976   24.6793 O   0  0  0  0  0  0  0  0  0  0  0  0
  2  3  2  0
  2  1  1  0
  4  2  1  0
  5  6  1  0
  5  4  1  0
  6  7  1  0
  7  8  1  0
  8  9  1  6
 10 11  2  0
 10  8  1  0
 13 14  1  0
 13 12  1  0
 14 16  1  0
 14 15  1  6
 16 17  1  6
 17 10  1  0
 18 16  1  0
 19 18  2  0
 21 20  1  0
 22 21  1  6
 22 23  1  0
 23 18  1  0
 24 22  1  0
 25 24  1  0
 26 24  2  0
M  END
$$$$
