RIS.pdb
     RDKit          3D

 26 25  0  0  1  0  0  0  0  0999 V2000
    8.3699  -12.4645   19.0640 N   0  0  0  0  0  0  0  0  0  0  0  0
    8.9249  -13.4847   18.2755 C   0  0  0  0  0  0  0  0  0  0  0  0
   10.1350  -13.3992   17.7936 N   0  0  0  0  0  0  0  0  0  0  0  0
    8.1839  -14.6614   17.9683 N   0  0  0  0  0  0  0  0  0  0  0  0
    7.0120  -14.9627   18.7618 C   0  0  0  0  0  0  0  0  0  0  0  0
    7.3043  -16.0715   19.7516 C   0  0  0  0  0  0  0  0  0  0  0  0
    7.9078  -15.5017   21.0099 C   0  0  0  0  0  0  0  0  0  0  0  0
    7.0851  -15.8051   22.2195 C   0  0  2  0  0  0  0  0  0  0  0  0
    5.6813  -15.5787   21.9358 N   0  0  0  0  0  0  0  0  0  0  0  0
    7.4914  -15.0027   23.3979 C   0  0  0  0  0  0  0  0  0  0  0  0
    7.3748  -13.7517   23.4425 O   0  0  0  0  0  0  0  0  0  0  0  0
   10.4940  -14.1327   17.1398 C   0  0  0  0  0  0  0  0  0  0  0  0
    5.8083  -12.1875   25.7569 C   0  0  0  0  0  0  0  0  0  0  0  0
    6.9827  -12.9598   25.1999 C   0  0  2  0  0  0  0  0  0  0  0  0
    7.4755  -14.0162   26.1412 C   0  0  0  0  0  0  0  0  0  0  0  0
    7.6602  -13.5026   27.5490 C   0  0  2  0  0  0  0  0  0  0  0  0
    8.5926  -14.8671   25.6688 N   0  0  0  0  0  0  0  0  0  0  0  0
    8.0369  -15.6372   24.5374 C   0  0  0  0  0  0  0  0  0  0  0  0
    9.2226  -15.7856   26.5705 O   0  0  0  0  0  0  0  0  0  0  0  0
    8.4974  -16.7187   27.0664 O   0  0  0  0  0  0  0  0  0  0  0  0
   12.4929  -17.4338   26.0554 C   0  0  0  0  0  0  0  0  0  0  0  0
   12.4532  -17.3174   27.4221 C   0  0  2  0  0  0  0  0  0  0  0  0
   11.0659  -16.8545   27.8689 N   0  0  0  0  0  0  0  0  0  0  0  0
   10.5614  -15.8132   27.0026 C   0  0  0  0  0  0  0  0  0  0  0  0
   11.1558  -16.3856   29.2656 O   0  0  0  0  0  0  0  0  0  0  0  0
   11.6283  -17.2453   30.2343 O   0  0  0  0  0  0  0  0  0  0  0  0
  2  3  2  0
  2  1  1  0
  4  2  1  0
  5  6  1  0
  5  4  1  0
  6  7  1  0
  7  8  1  0
  8  9  1  6
 10 11  2  0
 10  8  1  0
 13 14  1  0
 13 12  1  0
 14 16  1  0
 14 15  1  6
 16 17  1  6
 17 10  1  0
 18 16  1  0
 19 18  2  0
 21 20  1  0
 22 21  1  6
 22 23  1  0
 23 18  1  0
 24 22  1  0
 25 24  1  0
 26 24  2  0
M  END
$$$$
