RIS.pdb
     RDKit          3D

 26 25  0  0  1  0  0  0  0  0999 V2000
    8.2064  -14.6261   16.8603 N   0  0  0  0  0  0  0  0  0  0  0  0
    7.9742  -13.6781   17.8691 C   0  0  0  0  0  0  0  0  0  0  0  0
    8.1273  -12.3990   17.6583 N   0  0  0  0  0  0  0  0  0  0  0  0
    7.5595  -14.0776   19.1717 N   0  0  0  0  0  0  0  0  0  0  0  0
    6.4936  -15.0497   19.2858 C   0  0  0  0  0  0  0  0  0  0  0  0
    7.0392  -16.3970   19.7122 C   0  0  0  0  0  0  0  0  0  0  0  0
    7.4766  -16.3499   21.1539 C   0  0  0  0  0  0  0  0  0  0  0  0
    8.5741  -15.3618   21.3802 C   0  0  2  0  0  0  0  0  0  0  0  0
    9.7151  -15.6863   20.5461 N   0  0  0  0  0  0  0  0  0  0  0  0
    8.9963  -15.2979   22.7997 C   0  0  0  0  0  0  0  0  0  0  0  0
   10.1335  -15.6667   23.1889 O   0  0  0  0  0  0  0  0  0  0  0  0
    7.9734  -11.7156   18.4352 C   0  0  0  0  0  0  0  0  0  0  0  0
    7.1093  -11.7594   27.4039 C   0  0  0  0  0  0  0  0  0  0  0  0
    7.9685  -12.9503   27.0441 C   0  0  2  0  0  0  0  0  0  0  0  0
    7.6822  -13.4722   25.6691 C   0  0  0  0  0  0  0  0  0  0  0  0
    6.2091  -13.6982   25.4263 C   0  0  2  0  0  0  0  0  0  0  0  0
    8.5404  -14.5758   25.1785 N   0  0  0  0  0  0  0  0  0  0  0  0
    8.1090  -14.8072   23.7849 C   0  0  0  0  0  0  0  0  0  0  0  0
    8.5455  -15.8354   25.8618 O   0  0  0  0  0  0  0  0  0  0  0  0
    7.4777  -16.5419   25.8075 O   0  0  0  0  0  0  0  0  0  0  0  0
   11.5346  -18.3404   26.2516 C   0  0  0  0  0  0  0  0  0  0  0  0
   10.2504  -18.7826   26.4471 C   0  0  1  0  0  0  0  0  0  0  0  0
    9.4445  -17.7316   27.2118 N   0  0  0  0  0  0  0  0  0  0  0  0
    9.5836  -16.4271   26.6049 C   0  0  0  0  0  0  0  0  0  0  0  0
    9.9058  -17.7164   28.6138 O   0  0  0  0  0  0  0  0  0  0  0  0
    9.8659  -18.8831   29.3473 O   0  0  0  0  0  0  0  0  0  0  0  0
  2  3  2  0
  2  1  1  0
  4  2  1  0
  5  6  1  0
  5  4  1  0
  6  7  1  0
  7  8  1  0
  8  9  1  6
 10 11  2  0
 10  8  1  0
 13 14  1  0
 13 12  1  0
 14 16  1  0
 14 15  1  6
 16 17  1  1
 17 10  1  0
 18 16  1  0
 19 18  2  0
 21 20  1  0
 22 21  1  6
 22 23  1  0
 23 18  1  0
 24 22  1  0
 25 24  1  0
 26 24  2  0
M  END
$$$$
