RIS.pdb
     RDKit          3D

 26 25  0  0  1  0  0  0  0  0999 V2000
    6.9442  -15.3073   16.7131 N   0  0  0  0  0  0  0  0  0  0  0  0
    7.9340  -14.3461   16.9718 C   0  0  0  0  0  0  0  0  0  0  0  0
    8.0542  -13.2703   16.2424 N   0  0  0  0  0  0  0  0  0  0  0  0
    8.8525  -14.5084   18.0480 N   0  0  0  0  0  0  0  0  0  0  0  0
    8.7885  -15.7249   18.8289 C   0  0  0  0  0  0  0  0  0  0  0  0
    7.4652  -15.8247   19.5596 C   0  0  0  0  0  0  0  0  0  0  0  0
    7.6972  -16.1031   21.0227 C   0  0  0  0  0  0  0  0  0  0  0  0
    6.9924  -15.1237   21.9037 C   0  0  2  0  0  0  0  0  0  0  0  0
    6.5847  -13.9652   21.1328 N   0  0  0  0  0  0  0  0  0  0  0  0
    7.8251  -14.6912   23.0513 C   0  0  0  0  0  0  0  0  0  0  0  0
    8.7793  -13.8811   22.9328 O   0  0  0  0  0  0  0  0  0  0  0  0
    8.8144  -12.5804   16.4436 C   0  0  0  0  0  0  0  0  0  0  0  0
    6.0100  -11.8281   26.1911 C   0  0  0  0  0  0  0  0  0  0  0  0
    7.0893  -12.6043   25.4711 C   0  0  2  0  0  0  0  0  0  0  0  0
    7.5486  -13.8033   26.2433 C   0  0  0  0  0  0  0  0  0  0  0  0
    8.0910  -13.4462   27.6064 C   0  0  2  0  0  0  0  0  0  0  0  0
    8.3773  -14.7926   25.5156 N   0  0  0  0  0  0  0  0  0  0  0  0
    7.5643  -15.1900   24.3482 C   0  0  0  0  0  0  0  0  0  0  0  0
    8.8192  -15.9825   26.1808 O   0  0  0  0  0  0  0  0  0  0  0  0
    7.9222  -16.8146   26.5620 O   0  0  0  0  0  0  0  0  0  0  0  0
   11.2417  -18.5435   25.1148 C   0  0  0  0  0  0  0  0  0  0  0  0
   11.5434  -18.3896   26.4446 C   0  0  2  0  0  0  0  0  0  0  0  0
   10.4199  -17.6315   27.1529 N   0  0  0  0  0  0  0  0  0  0  0  0
   10.1337  -16.3823   26.4842 C   0  0  0  0  0  0  0  0  0  0  0  0
   10.8203  -17.4031   28.5551 O   0  0  0  0  0  0  0  0  0  0  0  0
   11.1096  -18.4868   29.3566 O   0  0  0  0  0  0  0  0  0  0  0  0
  2  3  2  0
  2  1  1  0
  4  2  1  0
  5  6  1  0
  5  4  1  0
  6  7  1  0
  7  8  1  0
  8  9  1  6
 10 11  2  0
 10  8  1  0
 13 14  1  0
 13 12  1  0
 14 16  1  0
 14 15  1  6
 16 17  1  6
 17 10  1  0
 18 16  1  0
 19 18  2  0
 21 20  1  0
 22 21  1  6
 22 23  1  0
 23 18  1  0
 24 22  1  0
 25 24  1  0
 26 24  2  0
M  END
$$$$
