RIS.pdb
     RDKit          3D

 26 25  0  0  1  0  0  0  0  0999 V2000
    9.6970  -14.0684   18.4160 N   0  0  0  0  0  0  0  0  0  0  0  0
    8.4307  -13.5230   18.1523 C   0  0  0  0  0  0  0  0  0  0  0  0
    8.2817  -12.2808   17.7799 N   0  0  0  0  0  0  0  0  0  0  0  0
    7.2504  -14.3094   18.2817 N   0  0  0  0  0  0  0  0  0  0  0  0
    7.3770  -15.6625   18.7787 C   0  0  0  0  0  0  0  0  0  0  0  0
    6.7449  -15.7924   20.1492 C   0  0  0  0  0  0  0  0  0  0  0  0
    7.6849  -15.2756   21.2081 C   0  0  0  0  0  0  0  0  0  0  0  0
    7.7799  -16.1981   22.3794 C   0  0  2  0  0  0  0  0  0  0  0  0
    6.4526  -16.5838   22.8175 N   0  0  0  0  0  0  0  0  0  0  0  0
    8.5252  -15.6007   23.5131 C   0  0  0  0  0  0  0  0  0  0  0  0
    9.7327  -15.2607   23.4302 O   0  0  0  0  0  0  0  0  0  0  0  0
    7.3265  -11.9000   17.5882 C   0  0  0  0  0  0  0  0  0  0  0  0
    6.2491  -11.8190   25.9620 C   0  0  0  0  0  0  0  0  0  0  0  0
    7.3754  -12.6921   25.4569 C   0  0  2  0  0  0  0  0  0  0  0  0
    7.7630  -13.7564   26.4378 C   0  0  0  0  0  0  0  0  0  0  0  0
    8.2367  -13.1906   27.7551 C   0  0  2  0  0  0  0  0  0  0  0  0
    8.6079  -14.8619   25.9288 N   0  0  0  0  0  0  0  0  0  0  0  0
    7.8832  -15.3899   24.7549 C   0  0  0  0  0  0  0  0  0  0  0  0
    8.9373  -15.9626   26.7852 O   0  0  0  0  0  0  0  0  0  0  0  0
    8.0691  -16.8974   26.9072 O   0  0  0  0  0  0  0  0  0  0  0  0
   11.7217  -19.2974   26.5626 C   0  0  0  0  0  0  0  0  0  0  0  0
   11.1133  -18.0833   26.3658 C   0  0  1  0  0  0  0  0  0  0  0  0
   10.6829  -17.4887   27.7073 N   0  0  0  0  0  0  0  0  0  0  0  0
   10.1105  -16.1728   27.5330 C   0  0  0  0  0  0  0  0  0  0  0  0
   11.8590  -17.4420   28.5979 O   0  0  0  0  0  0  0  0  0  0  0  0
   12.3738  -18.6208   29.0941 O   0  0  0  0  0  0  0  0  0  0  0  0
  2  3  2  0
  2  1  1  0
  4  2  1  0
  5  6  1  0
  5  4  1  0
  6  7  1  0
  7  8  1  0
  8  9  1  1
 10 11  2  0
 10  8  1  0
 13 14  1  0
 13 12  1  0
 14 16  1  0
 14 15  1  1
 16 17  1  6
 17 10  1  0
 18 16  1  0
 19 18  2  0
 21 20  1  0
 22 21  1  6
 22 23  1  0
 23 18  1  0
 24 22  1  0
 25 24  1  0
 26 24  2  0
M  END
$$$$
