RIS.pdb
     RDKit          3D

 26 25  0  0  1  0  0  0  0  0999 V2000
    8.6122  -12.5008   17.7468 N   0  0  0  0  0  0  0  0  0  0  0  0
    8.2717  -13.5488   16.8771 C   0  0  0  0  0  0  0  0  0  0  0  0
    8.8147  -13.6651   15.6958 N   0  0  0  0  0  0  0  0  0  0  0  0
    7.3134  -14.5332   17.2524 N   0  0  0  0  0  0  0  0  0  0  0  0
    6.8078  -14.5187   18.6081 C   0  0  0  0  0  0  0  0  0  0  0  0
    7.4939  -15.5762   19.4482 C   0  0  0  0  0  0  0  0  0  0  0  0
    7.9394  -14.9895   20.7633 C   0  0  0  0  0  0  0  0  0  0  0  0
    7.6466  -15.8950   21.9150 C   0  0  2  0  0  0  0  0  0  0  0  0
    6.2172  -15.9521   22.1518 N   0  0  0  0  0  0  0  0  0  0  0  0
    8.3414  -15.4773   23.1560 C   0  0  0  0  0  0  0  0  0  0  0  0
    9.5890  -15.3376   23.2235 O   0  0  0  0  0  0  0  0  0  0  0  0
    8.4968  -14.4176   15.0424 C   0  0  0  0  0  0  0  0  0  0  0  0
    5.7957  -11.8118   25.6772 C   0  0  0  0  0  0  0  0  0  0  0  0
    6.9559  -12.6307   25.1585 C   0  0  2  0  0  0  0  0  0  0  0  0
    7.3757  -13.7048   26.1152 C   0  0  0  0  0  0  0  0  0  0  0  0
    7.8323  -13.1550   27.4452 C   0  0  2  0  0  0  0  0  0  0  0  0
    8.2534  -14.7725   25.5816 N   0  0  0  0  0  0  0  0  0  0  0  0
    7.6021  -15.2166   24.3325 C   0  0  0  0  0  0  0  0  0  0  0  0
    8.5351  -15.9306   26.3772 O   0  0  0  0  0  0  0  0  0  0  0  0
    7.5370  -16.6109   26.8054 O   0  0  0  0  0  0  0  0  0  0  0  0
   11.5097  -18.4810   26.0242 C   0  0  0  0  0  0  0  0  0  0  0  0
   10.3791  -18.8248   26.7219 C   0  0  1  0  0  0  0  0  0  0  0  0
    9.9053  -17.6425   27.5681 N   0  0  0  0  0  0  0  0  0  0  0  0
    9.7853  -16.4451   26.7673 C   0  0  0  0  0  0  0  0  0  0  0  0
   10.8610  -17.4464   28.6758 O   0  0  0  0  0  0  0  0  0  0  0  0
   11.4997  -16.2315   28.8055 O   0  0  0  0  0  0  0  0  0  0  0  0
  2  3  2  0
  2  1  1  0
  4  2  1  0
  5  6  1  0
  5  4  1  0
  6  7  1  0
  7  8  1  0
  8  9  1  1
 10 11  2  0
 10  8  1  0
 13 14  1  0
 13 12  1  0
 14 16  1  0
 14 15  1  1
 16 17  1  6
 17 10  1  0
 18 16  1  0
 19 18  2  0
 21 20  1  0
 22 21  1  6
 22 23  1  0
 23 18  1  0
 24 22  1  0
 25 24  1  0
 26 24  2  0
M  END
$$$$
