RIS.pdb
     RDKit          3D

 26 25  0  0  1  0  0  0  0  0999 V2000
    6.7607  -14.7942   16.2067 N   0  0  0  0  0  0  0  0  0  0  0  0
    7.8146  -15.6950   15.9863 C   0  0  0  0  0  0  0  0  0  0  0  0
    7.7726  -16.5802   15.0280 N   0  0  0  0  0  0  0  0  0  0  0  0
    8.9792  -15.6780   16.8058 N   0  0  0  0  0  0  0  0  0  0  0  0
    8.8141  -15.8045   18.2378 C   0  0  0  0  0  0  0  0  0  0  0  0
    7.7762  -14.8257   18.7471 C   0  0  0  0  0  0  0  0  0  0  0  0
    7.5740  -15.0046   20.2300 C   0  0  0  0  0  0  0  0  0  0  0  0
    7.5630  -13.7016   20.9609 C   0  0  2  0  0  0  0  0  0  0  0  0
    8.2323  -12.6843   20.1736 N   0  0  0  0  0  0  0  0  0  0  0  0
    8.1973  -13.7953   22.2974 C   0  0  0  0  0  0  0  0  0  0  0  0
    9.3885  -13.4544   22.5109 O   0  0  0  0  0  0  0  0  0  0  0  0
    8.6057  -17.1812   14.8300 C   0  0  0  0  0  0  0  0  0  0  0  0
    5.7435  -11.5940   26.1765 C   0  0  0  0  0  0  0  0  0  0  0  0
    6.7966  -12.2069   25.2814 C   0  0  2  0  0  0  0  0  0  0  0  0
    7.0851  -13.6360   25.6270 C   0  0  0  0  0  0  0  0  0  0  0  0
    7.3358  -13.8399   27.1020 C   0  0  2  0  0  0  0  0  0  0  0  0
    8.0445  -14.3558   24.7572 N   0  0  0  0  0  0  0  0  0  0  0  0
    7.4621  -14.2840   23.4016 C   0  0  0  0  0  0  0  0  0  0  0  0
    8.3726  -15.7232   25.0329 O   0  0  0  0  0  0  0  0  0  0  0  0
    7.4058  -16.5619   25.0975 O   0  0  0  0  0  0  0  0  0  0  0  0
   11.9587  -17.4534   24.4060 C   0  0  0  0  0  0  0  0  0  0  0  0
   10.8503  -18.2623   24.4205 C   0  0  1  0  0  0  0  0  0  0  0  0
    9.8190  -17.7209   25.4114 N   0  0  0  0  0  0  0  0  0  0  0  0
    9.6397  -16.2959   25.2484 C   0  0  0  0  0  0  0  0  0  0  0  0
   10.2680  -18.0462   26.7793 O   0  0  0  0  0  0  0  0  0  0  0  0
   10.5340  -19.3591   27.1053 O   0  0  0  0  0  0  0  0  0  0  0  0
  2  3  2  0
  2  1  1  0
  4  2  1  0
  5  6  1  0
  5  4  1  0
  6  7  1  0
  7  8  1  0
  8  9  1  6
 10 11  2  0
 10  8  1  0
 13 14  1  0
 13 12  1  0
 14 16  1  0
 14 15  1  6
 16 17  1  6
 17 10  1  0
 18 16  1  0
 19 18  2  0
 21 20  1  0
 22 21  1  6
 22 23  1  0
 23 18  1  0
 24 22  1  0
 25 24  1  0
 26 24  2  0
M  END
$$$$
