RIS.pdb
     RDKit          3D

 26 25  0  0  1  0  0  0  0  0999 V2000
    8.0749  -12.5241   17.0291 N   0  0  0  0  0  0  0  0  0  0  0  0
    8.2662  -13.8452   16.5949 C   0  0  0  0  0  0  0  0  0  0  0  0
    8.0963  -14.1898   15.3474 N   0  0  0  0  0  0  0  0  0  0  0  0
    8.6559  -14.8687   17.5053 N   0  0  0  0  0  0  0  0  0  0  0  0
    8.6429  -14.5708   18.9213 C   0  0  0  0  0  0  0  0  0  0  0  0
    7.2255  -14.3596   19.4124 C   0  0  0  0  0  0  0  0  0  0  0  0
    7.2248  -14.0592   20.8895 C   0  0  0  0  0  0  0  0  0  0  0  0
    7.6056  -15.2489   21.7091 C   0  0  2  0  0  0  0  0  0  0  0  0
    6.4282  -16.0363   22.0196 N   0  0  0  0  0  0  0  0  0  0  0  0
    8.3004  -14.8747   22.9639 C   0  0  0  0  0  0  0  0  0  0  0  0
    9.4452  -14.3551   22.9792 O   0  0  0  0  0  0  0  0  0  0  0  0
    8.3069  -15.1667   15.0381 C   0  0  0  0  0  0  0  0  0  0  0  0
    5.9592  -11.9210   26.3334 C   0  0  0  0  0  0  0  0  0  0  0  0
    7.0227  -12.6660   25.5589 C   0  0  2  0  0  0  0  0  0  0  0  0
    7.4514  -13.9300   26.2398 C   0  0  0  0  0  0  0  0  0  0  0  0
    7.8623  -13.7083   27.6757 C   0  0  2  0  0  0  0  0  0  0  0  0
    8.3711  -14.8170   25.4897 N   0  0  0  0  0  0  0  0  0  0  0  0
    7.6799  -15.0968   24.2147 C   0  0  0  0  0  0  0  0  0  0  0  0
    8.7839  -16.0653   26.0598 O   0  0  0  0  0  0  0  0  0  0  0  0
    7.8687  -16.9137   26.3512 O   0  0  0  0  0  0  0  0  0  0  0  0
   12.3426  -17.8560   25.5464 C   0  0  0  0  0  0  0  0  0  0  0  0
   11.2506  -18.6157   25.8833 C   0  0  1  0  0  0  0  0  0  0  0  0
   10.3500  -17.8414   26.8466 N   0  0  0  0  0  0  0  0  0  0  0  0
   10.0867  -16.5082   26.3539 C   0  0  0  0  0  0  0  0  0  0  0  0
   11.0052  -17.7988   28.1685 O   0  0  0  0  0  0  0  0  0  0  0  0
   11.2802  -18.9817   28.8210 O   0  0  0  0  0  0  0  0  0  0  0  0
  2  3  2  0
  2  1  1  0
  4  2  1  0
  5  6  1  0
  5  4  1  0
  6  7  1  0
  7  8  1  0
  8  9  1  1
 10 11  2  0
 10  8  1  0
 13 14  1  0
 13 12  1  0
 14 16  1  0
 14 15  1  6
 16 17  1  6
 17 10  1  0
 18 16  1  0
 19 18  2  0
 21 20  1  0
 22 21  1  6
 22 23  1  0
 23 18  1  0
 24 22  1  0
 25 24  1  0
 26 24  2  0
M  END
$$$$
