LDL.pdb
     RDKit          3D

 25 24  0  0  1  0  0  0  0  0999 V2000
   20.3233  -19.9277  -15.8913 C   0  0  0  0  0  0  0  0  0  0  0  0
   21.4925  -20.5718  -16.5589 C   0  0  2  0  0  0  0  0  0  0  0  0
   20.9713  -21.6859  -17.4512 C   0  0  0  0  0  0  0  0  0  0  0  0
   22.4264  -21.2082  -15.5568 C   0  0  0  0  0  0  0  0  0  0  0  0
   22.9898  -20.2238  -14.5629 C   0  0  2  0  0  0  0  0  0  0  0  0
   23.4695  -19.0324  -15.2126 N   0  0  0  0  0  0  0  0  0  0  0  0
   24.0469  -20.7859  -13.7210 C   0  0  0  0  0  0  0  0  0  0  0  0
   23.8495  -21.8431  -13.0481 O   0  0  0  0  0  0  0  0  0  0  0  0
   25.3498  -20.2155  -13.5856 N   0  0  0  0  0  0  0  0  0  0  0  0
   26.3505  -20.6902  -12.7011 C   0  0  1  0  0  0  0  0  0  0  0  0
   27.7101  -20.3429  -13.2184 C   0  0  0  0  0  0  0  0  0  0  0  0
   27.8752  -20.6138  -14.6637 C   0  0  0  0  0  0  0  0  0  0  0  0
   27.8907  -21.7540  -15.1885 O   0  0  0  0  0  0  0  0  0  0  0  0
   26.1461  -20.3063  -11.2877 C   0  0  0  0  0  0  0  0  0  0  0  0
   25.7169  -19.1539  -10.9941 O   0  0  0  0  0  0  0  0  0  0  0  0
   28.0294  -19.5247  -15.5453 O   0  0  0  0  0  0  0  0  0  0  0  0
   28.4300  -18.5287   -7.4072 C   0  0  0  0  0  0  0  0  0  0  0  0
   27.8846  -19.7380   -8.1094 C   0  0  1  0  0  0  0  0  0  0  0  0
   28.3691  -20.9523   -7.3208 C   0  0  0  0  0  0  0  0  0  0  0  0
   26.3964  -19.8091   -8.1561 C   0  0  0  0  0  0  0  0  0  0  0  0
   25.8560  -21.0179   -8.8737 C   0  0  2  0  0  0  0  0  0  0  0  0
   26.4091  -21.1770  -10.1974 N   0  0  0  0  0  0  0  0  0  0  0  0
   24.3986  -21.1468   -8.8199 C   0  0  0  0  0  0  0  0  0  0  0  0
   23.7371  -21.2335   -9.8712 O   0  0  0  0  0  0  0  0  0  0  0  0
   23.7228  -21.1757   -7.6211 O   0  0  0  0  0  0  0  0  0  0  0  0
  2  1  1  1
  2  3  1  0
  4  5  1  0
  4  2  1  0
  5  6  1  6
  7  5  1  0
  7  8  2  0
  9  7  1  0
 10  9  1  0
 10 11  1  6
 12 11  1  0
 13 12  2  0
 14 10  1  0
 15 14  2  0
 16 12  1  0
 18 19  1  1
 18 17  1  0
 20 18  1  0
 21 20  1  6
 21 22  1  0
 22 14  1  0
 23 21  1  0
 24 23  2  0
 25 23  1  0
M  END
$$$$
