LDL.pdb
     RDKit          3D

 25 24  0  0  1  0  0  0  0  0999 V2000
   26.0747  -20.6953   -7.0906 C   0  0  0  0  0  0  0  0  0  0  0  0
   26.7379  -19.8788   -8.1494 C   0  0  2  0  0  0  0  0  0  0  0  0
   26.3189  -18.4305   -7.9596 C   0  0  0  0  0  0  0  0  0  0  0  0
   26.2923  -20.2903   -9.5326 C   0  0  0  0  0  0  0  0  0  0  0  0
   24.7995  -20.4724   -9.6451 C   0  0  2  0  0  0  0  0  0  0  0  0
   24.3520  -21.6311   -8.9179 N   0  0  0  0  0  0  0  0  0  0  0  0
   24.3233  -20.5435  -11.0273 C   0  0  0  0  0  0  0  0  0  0  0  0
   25.0797  -20.9642  -11.9548 O   0  0  0  0  0  0  0  0  0  0  0  0
   23.0113  -20.1596  -11.4421 N   0  0  0  0  0  0  0  0  0  0  0  0
   22.5372  -20.2189  -12.7765 C   0  0  1  0  0  0  0  0  0  0  0  0
   21.0467  -20.0991  -12.8055 C   0  0  0  0  0  0  0  0  0  0  0  0
   20.3515  -21.2924  -12.2744 C   0  0  0  0  0  0  0  0  0  0  0  0
   19.2757  -21.2746  -11.6278 O   0  0  0  0  0  0  0  0  0  0  0  0
   23.2173  -19.2917  -13.7063 C   0  0  0  0  0  0  0  0  0  0  0  0
   23.4124  -18.0864  -13.3780 O   0  0  0  0  0  0  0  0  0  0  0  0
   20.9186  -22.5637  -12.4968 O   0  0  0  0  0  0  0  0  0  0  0  0
   26.7825  -16.5488  -15.9197 C   0  0  0  0  0  0  0  0  0  0  0  0
   26.9552  -18.0378  -15.9981 C   0  0  1  0  0  0  0  0  0  0  0  0
   28.3445  -18.3427  -15.4432 C   0  0  0  0  0  0  0  0  0  0  0  0
   25.9771  -18.8187  -15.1884 C   0  0  0  0  0  0  0  0  0  0  0  0
   24.6004  -18.9041  -15.7931 C   0  0  2  0  0  0  0  0  0  0  0  0
   23.6834  -19.6778  -14.9906 N   0  0  0  0  0  0  0  0  0  0  0  0
   24.5892  -19.2570  -17.2140 C   0  0  0  0  0  0  0  0  0  0  0  0
   25.2552  -18.5936  -18.0305 O   0  0  0  0  0  0  0  0  0  0  0  0
   23.8516  -20.3191  -17.6856 O   0  0  0  0  0  0  0  0  0  0  0  0
  2  1  1  1
  2  3  1  0
  4  5  1  0
  4  2  1  0
  5  6  1  1
  7  5  1  0
  7  8  2  0
  9  7  1  0
 10  9  1  0
 10 11  1  1
 12 11  1  0
 13 12  2  0
 14 10  1  0
 15 14  2  0
 16 12  1  0
 18 19  1  1
 18 17  1  0
 20 18  1  0
 21 20  1  1
 21 22  1  0
 22 14  1  0
 23 21  1  0
 24 23  2  0
 25 23  1  0
M  END
$$$$
