LDL.pdb
     RDKit          3D

 25 24  0  0  1  0  0  0  0  0999 V2000
   29.1765  -18.7276  -17.0037 C   0  0  0  0  0  0  0  0  0  0  0  0
   28.1321  -17.6639  -17.0759 C   0  0  2  0  0  0  0  0  0  0  0  0
   28.8340  -16.3176  -17.1420 C   0  0  0  0  0  0  0  0  0  0  0  0
   27.2638  -17.6495  -15.8403 C   0  0  0  0  0  0  0  0  0  0  0  0
   26.6987  -19.0049  -15.4969 C   0  0  2  0  0  0  0  0  0  0  0  0
   25.8942  -19.5293  -16.5690 N   0  0  0  0  0  0  0  0  0  0  0  0
   25.9294  -19.0174  -14.2518 C   0  0  0  0  0  0  0  0  0  0  0  0
   25.6274  -17.9350  -13.6630 O   0  0  0  0  0  0  0  0  0  0  0  0
   25.4655  -20.2065  -13.6100 N   0  0  0  0  0  0  0  0  0  0  0  0
   24.5942  -20.2329  -12.4923 C   0  0  1  0  0  0  0  0  0  0  0  0
   23.3279  -20.9505  -12.8359 C   0  0  0  0  0  0  0  0  0  0  0  0
   22.3386  -20.9552  -11.7356 C   0  0  0  0  0  0  0  0  0  0  0  0
   21.6076  -21.9270  -11.4245 O   0  0  0  0  0  0  0  0  0  0  0  0
   25.2206  -20.7161  -11.2430 C   0  0  0  0  0  0  0  0  0  0  0  0
   25.6444  -21.9043  -11.1586 O   0  0  0  0  0  0  0  0  0  0  0  0
   22.1827  -19.7899  -10.9578 O   0  0  0  0  0  0  0  0  0  0  0  0
   28.6855  -20.5131   -7.0634 C   0  0  0  0  0  0  0  0  0  0  0  0
   27.4062  -19.7496   -6.8800 C   0  0  1  0  0  0  0  0  0  0  0  0
   27.7603  -18.4952   -6.0849 C   0  0  0  0  0  0  0  0  0  0  0  0
   26.7654  -19.3000   -8.1486 C   0  0  0  0  0  0  0  0  0  0  0  0
   25.9564  -20.3626   -8.8447 C   0  0  2  0  0  0  0  0  0  0  0  0
   25.3844  -19.9058  -10.0886 N   0  0  0  0  0  0  0  0  0  0  0  0
   25.0072  -21.0607   -7.9757 C   0  0  0  0  0  0  0  0  0  0  0  0
   23.7827  -20.8783   -8.1096 O   0  0  0  0  0  0  0  0  0  0  0  0
   25.4329  -21.9290   -6.9963 O   0  0  0  0  0  0  0  0  0  0  0  0
  2  1  1  1
  2  3  1  0
  4  5  1  0
  4  2  1  0
  5  6  1  6
  7  5  1  0
  7  8  2  0
  9  7  1  0
 10  9  1  0
 10 11  1  6
 12 11  1  0
 13 12  2  0
 14 10  1  0
 15 14  2  0
 16 12  1  0
 18 19  1  1
 18 17  1  0
 20 18  1  0
 21 20  1  1
 21 22  1  0
 22 14  1  0
 23 21  1  0
 24 23  2  0
 25 23  1  0
M  END
$$$$
