LDL.pdb
     RDKit          3D

 25 24  0  0  1  0  0  0  0  0999 V2000
   17.2663  -15.3156  -15.7970 C   0  0  0  0  0  0  0  0  0  0  0  0
   16.3697  -14.5140  -16.6808 C   0  0  2  0  0  0  0  0  0  0  0  0
   16.2205  -15.2558  -17.9986 C   0  0  0  0  0  0  0  0  0  0  0  0
   16.9633  -13.1621  -16.9991 C   0  0  0  0  0  0  0  0  0  0  0  0
   17.1304  -12.2865  -15.7827 C   0  0  2  0  0  0  0  0  0  0  0  0
   15.8893  -12.1277  -15.0712 N   0  0  0  0  0  0  0  0  0  0  0  0
   17.6973  -10.9713  -16.0846 C   0  0  0  0  0  0  0  0  0  0  0  0
   18.7439  -10.8613  -16.7930 O   0  0  0  0  0  0  0  0  0  0  0  0
   17.1434   -9.7370  -15.6254 N   0  0  0  0  0  0  0  0  0  0  0  0
   17.6583   -8.4546  -15.9407 C   0  0  1  0  0  0  0  0  0  0  0  0
   16.5549   -7.4459  -15.9812 C   0  0  0  0  0  0  0  0  0  0  0  0
   15.5774   -7.6883  -17.0652 C   0  0  0  0  0  0  0  0  0  0  0  0
   14.4044   -8.1041  -16.9015 O   0  0  0  0  0  0  0  0  0  0  0  0
   18.8041   -8.0360  -15.1049 C   0  0  0  0  0  0  0  0  0  0  0  0
   18.6438   -7.7980  -13.8736 O   0  0  0  0  0  0  0  0  0  0  0  0
   15.9659   -7.4414  -18.3976 O   0  0  0  0  0  0  0  0  0  0  0  0
   23.6913  -10.4287  -15.8949 C   0  0  0  0  0  0  0  0  0  0  0  0
   22.4875   -9.7615  -15.2960 C   0  0  1  0  0  0  0  0  0  0  0  0
   22.4392  -10.1886  -13.8309 C   0  0  0  0  0  0  0  0  0  0  0  0
   22.5291   -8.2716  -15.3187 C   0  0  0  0  0  0  0  0  0  0  0  0
   21.2820   -7.6088  -14.7956 C   0  0  2  0  0  0  0  0  0  0  0  0
   20.1214   -7.8772  -15.6106 N   0  0  0  0  0  0  0  0  0  0  0  0
   21.4518   -6.1960  -14.4513 C   0  0  0  0  0  0  0  0  0  0  0  0
   20.9889   -5.3093  -15.1930 O   0  0  0  0  0  0  0  0  0  0  0  0
   22.1199   -5.8085  -13.3120 O   0  0  0  0  0  0  0  0  0  0  0  0
  2  1  1  1
  2  3  1  0
  4  5  1  0
  4  2  1  0
  5  6  1  6
  7  5  1  0
  7  8  2  0
  9  7  1  0
 10  9  1  0
 10 11  1  1
 12 11  1  0
 13 12  2  0
 14 10  1  0
 15 14  2  0
 16 12  1  0
 18 19  1  1
 18 17  1  0
 20 18  1  0
 21 20  1  6
 21 22  1  0
 22 14  1  0
 23 21  1  0
 24 23  2  0
 25 23  1  0
M  END
$$$$
