LDL.pdb
     RDKit          3D

 25 24  0  0  1  0  0  0  0  0999 V2000
   39.9194  -25.0351    3.3304 C   0  0  0  0  0  0  0  0  0  0  0  0
   39.2052  -26.1656    3.9933 C   0  0  2  0  0  0  0  0  0  0  0  0
   39.1864  -27.3410    3.0303 C   0  0  0  0  0  0  0  0  0  0  0  0
   37.7666  -25.8173    4.2938 C   0  0  0  0  0  0  0  0  0  0  0  0
   37.6241  -24.6655    5.2569 C   0  0  2  0  0  0  0  0  0  0  0  0
   38.7372  -24.5966    6.1669 N   0  0  0  0  0  0  0  0  0  0  0  0
   36.3706  -24.6889    6.0122 C   0  0  0  0  0  0  0  0  0  0  0  0
   35.2513  -24.6725    5.4153 O   0  0  0  0  0  0  0  0  0  0  0  0
   36.2967  -24.7307    7.4383 N   0  0  0  0  0  0  0  0  0  0  0  0
   35.0913  -24.7514    8.1836 C   0  0  1  0  0  0  0  0  0  0  0  0
   35.2609  -25.5668    9.4258 C   0  0  0  0  0  0  0  0  0  0  0  0
   34.0032  -26.1882    9.8964 C   0  0  0  0  0  0  0  0  0  0  0  0
   32.8816  -26.0548    9.3490 O   0  0  0  0  0  0  0  0  0  0  0  0
   34.5074  -23.4162    8.4348 C   0  0  0  0  0  0  0  0  0  0  0  0
   35.2206  -22.4854    8.9073 O   0  0  0  0  0  0  0  0  0  0  0  0
   34.0366  -26.9998   11.0486 O   0  0  0  0  0  0  0  0  0  0  0  0
   31.2787  -20.7843    5.0712 C   0  0  0  0  0  0  0  0  0  0  0  0
   32.2291  -21.1409    6.1769 C   0  0  1  0  0  0  0  0  0  0  0  0
   33.2102  -19.9772    6.2973 C   0  0  0  0  0  0  0  0  0  0  0  0
   31.5893  -21.3167    7.5117 C   0  0  0  0  0  0  0  0  0  0  0  0
   32.5070  -21.8677    8.5712 C   0  0  2  0  0  0  0  0  0  0  0  0
   33.1492  -23.0970    8.1714 N   0  0  0  0  0  0  0  0  0  0  0  0
   31.9186  -21.9136    9.9110 C   0  0  0  0  0  0  0  0  0  0  0  0
   31.7799  -23.0028   10.4983 O   0  0  0  0  0  0  0  0  0  0  0  0
   31.5056  -20.7694   10.5549 O   0  0  0  0  0  0  0  0  0  0  0  0
  2  1  1  6
  2  3  1  0
  4  5  1  0
  4  2  1  0
  5  6  1  1
  7  5  1  0
  7  8  2  0
  9  7  1  0
 10  9  1  0
 10 11  1  1
 12 11  1  0
 13 12  2  0
 14 10  1  0
 15 14  2  0
 16 12  1  0
 18 19  1  1
 18 17  1  0
 20 18  1  0
 21 20  1  6
 21 22  1  0
 22 14  1  0
 23 21  1  0
 24 23  2  0
 25 23  1  0
M  END
$$$$
