LDL.pdb
     RDKit          3D

 25 24  0  0  1  0  0  0  0  0999 V2000
   29.3444  -21.9637  -11.6409 C   0  0  0  0  0  0  0  0  0  0  0  0
   29.6268  -20.6193  -12.2243 C   0  0  2  0  0  0  0  0  0  0  0  0
   30.2666  -19.7618  -11.1451 C   0  0  0  0  0  0  0  0  0  0  0  0
   28.3588  -19.9189  -12.6516 C   0  0  0  0  0  0  0  0  0  0  0  0
   27.6678  -20.5968  -13.8081 C   0  0  2  0  0  0  0  0  0  0  0  0
   28.5074  -20.6353  -14.9765 N   0  0  0  0  0  0  0  0  0  0  0  0
   26.3767  -19.9971  -14.1484 C   0  0  0  0  0  0  0  0  0  0  0  0
   26.3032  -18.7960  -14.5500 O   0  0  0  0  0  0  0  0  0  0  0  0
   25.1276  -20.6852  -14.0623 N   0  0  0  0  0  0  0  0  0  0  0  0
   23.8702  -20.1191  -14.3904 C   0  0  1  0  0  0  0  0  0  0  0  0
   23.9032  -19.5409  -15.7692 C   0  0  0  0  0  0  0  0  0  0  0  0
   24.1235  -20.5535  -16.8253 C   0  0  0  0  0  0  0  0  0  0  0  0
   23.2531  -20.9535  -17.6365 O   0  0  0  0  0  0  0  0  0  0  0  0
   22.7188  -21.0179  -14.1596 C   0  0  0  0  0  0  0  0  0  0  0  0
   22.1752  -21.6216  -15.1284 O   0  0  0  0  0  0  0  0  0  0  0  0
   25.4023  -21.1325  -16.9547 O   0  0  0  0  0  0  0  0  0  0  0  0
   22.4389  -20.5037   -9.9398 C   0  0  0  0  0  0  0  0  0  0  0  0
   20.9877  -20.1850  -10.1536 C   0  0  1  0  0  0  0  0  0  0  0  0
   20.6878  -18.9456   -9.3139 C   0  0  0  0  0  0  0  0  0  0  0  0
   20.6256  -19.8599  -11.5626 C   0  0  0  0  0  0  0  0  0  0  0  0
   20.7843  -21.0083  -12.5240 C   0  0  2  0  0  0  0  0  0  0  0  0
   22.1617  -21.2577  -12.8759 N   0  0  0  0  0  0  0  0  0  0  0  0
   19.8775  -20.9600  -13.6724 C   0  0  0  0  0  0  0  0  0  0  0  0
   20.1186  -20.2024  -14.6308 O   0  0  0  0  0  0  0  0  0  0  0  0
   18.7449  -21.7400  -13.7280 O   0  0  0  0  0  0  0  0  0  0  0  0
  2  1  1  1
  2  3  1  0
  4  5  1  0
  4  2  1  0
  5  6  1  6
  7  5  1  0
  7  8  2  0
  9  7  1  0
 10  9  1  0
 10 11  1  6
 12 11  1  0
 13 12  2  0
 14 10  1  0
 15 14  2  0
 16 12  1  0
 18 19  1  1
 18 17  1  0
 20 18  1  0
 21 20  1  6
 21 22  1  0
 22 14  1  0
 23 21  1  0
 24 23  2  0
 25 23  1  0
M  END
$$$$
