LDL.pdb
     RDKit          3D

 25 24  0  0  1  0  0  0  0  0999 V2000
   27.0562  -18.2422   -5.7806 C   0  0  0  0  0  0  0  0  0  0  0  0
   27.2006  -19.7192   -5.6223 C   0  0  2  0  0  0  0  0  0  0  0  0
   28.6045  -20.0042   -5.1152 C   0  0  0  0  0  0  0  0  0  0  0  0
   27.0525  -20.4391   -6.9417 C   0  0  0  0  0  0  0  0  0  0  0  0
   25.6411  -20.4195   -7.4728 C   0  0  2  0  0  0  0  0  0  0  0  0
   24.7675  -21.2464   -6.6824 N   0  0  0  0  0  0  0  0  0  0  0  0
   25.5429  -20.8043   -8.8816 C   0  0  0  0  0  0  0  0  0  0  0  0
   25.8991  -21.9595   -9.2665 O   0  0  0  0  0  0  0  0  0  0  0  0
   25.0548  -19.9451   -9.9133 N   0  0  0  0  0  0  0  0  0  0  0  0
   25.1104  -20.2362  -11.2993 C   0  0  1  0  0  0  0  0  0  0  0  0
   23.8482  -19.8019  -11.9738 C   0  0  0  0  0  0  0  0  0  0  0  0
   22.6947  -20.6821  -11.6837 C   0  0  0  0  0  0  0  0  0  0  0  0
   22.7105  -21.9361  -11.7373 O   0  0  0  0  0  0  0  0  0  0  0  0
   26.3326  -19.7502  -11.9753 C   0  0  0  0  0  0  0  0  0  0  0  0
   26.9767  -18.7697  -11.5038 O   0  0  0  0  0  0  0  0  0  0  0  0
   21.4677  -20.0940  -11.3153 O   0  0  0  0  0  0  0  0  0  0  0  0
   31.2755  -21.7137  -11.3760 C   0  0  0  0  0  0  0  0  0  0  0  0
   30.4731  -21.3050  -12.5769 C   0  0  1  0  0  0  0  0  0  0  0  0
   30.6237  -22.4272  -13.6011 C   0  0  0  0  0  0  0  0  0  0  0  0
   29.0144  -21.1369  -12.3199 C   0  0  0  0  0  0  0  0  0  0  0  0
   28.2571  -20.4879  -13.4484 C   0  0  2  0  0  0  0  0  0  0  0  0
   26.8510  -20.3319  -13.1622 N   0  0  0  0  0  0  0  0  0  0  0  0
   28.5346  -21.0618  -14.7664 C   0  0  0  0  0  0  0  0  0  0  0  0
   28.1903  -22.2297  -15.0273 O   0  0  0  0  0  0  0  0  0  0  0  0
   29.1765  -20.3380  -15.7454 O   0  0  0  0  0  0  0  0  0  0  0  0
  2  1  1  6
  2  3  1  0
  4  5  1  0
  4  2  1  0
  5  6  1  1
  7  5  1  0
  7  8  2  0
  9  7  1  0
 10  9  1  0
 10 11  1  6
 12 11  1  0
 13 12  2  0
 14 10  1  0
 15 14  2  0
 16 12  1  0
 18 19  1  6
 18 17  1  0
 20 18  1  0
 21 20  1  1
 21 22  1  0
 22 14  1  0
 23 21  1  0
 24 23  2  0
 25 23  1  0
M  END
$$$$
