LDL.pdb
     RDKit          3D

 25 24  0  0  1  0  0  0  0  0999 V2000
   11.9706  -12.1205   -9.8665 C   0  0  0  0  0  0  0  0  0  0  0  0
   12.6725  -11.7103  -11.1182 C   0  0  2  0  0  0  0  0  0  0  0  0
   11.6272  -11.5220  -12.2050 C   0  0  0  0  0  0  0  0  0  0  0  0
   13.6240  -12.7796  -11.6004 C   0  0  0  0  0  0  0  0  0  0  0  0
   14.3468  -12.4019  -12.8690 C   0  0  2  0  0  0  0  0  0  0  0  0
   14.9156  -13.5547  -13.5164 N   0  0  0  0  0  0  0  0  0  0  0  0
   15.3826  -11.3872  -12.6698 C   0  0  0  0  0  0  0  0  0  0  0  0
   16.4387  -11.6548  -12.0199 O   0  0  0  0  0  0  0  0  0  0  0  0
   15.3010  -10.0519  -13.1711 N   0  0  0  0  0  0  0  0  0  0  0  0
   16.2553   -9.0350  -12.9173 C   0  0  1  0  0  0  0  0  0  0  0  0
   17.0158   -8.7116  -14.1637 C   0  0  0  0  0  0  0  0  0  0  0  0
   18.0208   -7.6417  -13.9774 C   0  0  0  0  0  0  0  0  0  0  0  0
   17.9771   -6.5073  -14.5129 O   0  0  0  0  0  0  0  0  0  0  0  0
   15.7069   -7.8406  -12.2394 C   0  0  0  0  0  0  0  0  0  0  0  0
   14.7253   -7.2179  -12.7365 O   0  0  0  0  0  0  0  0  0  0  0  0
   19.1260   -7.8872  -13.1374 O   0  0  0  0  0  0  0  0  0  0  0  0
   14.5649   -7.0343   -6.8421 C   0  0  0  0  0  0  0  0  0  0  0  0
   14.5685   -6.8969   -8.3368 C   0  0  1  0  0  0  0  0  0  0  0  0
   13.3441   -6.0594   -8.6980 C   0  0  0  0  0  0  0  0  0  0  0  0
   15.7607   -6.1952   -8.8920 C   0  0  0  0  0  0  0  0  0  0  0  0
   15.7826   -6.1053  -10.3952 C   0  0  2  0  0  0  0  0  0  0  0  0
   16.2278   -7.3266  -11.0226 N   0  0  0  0  0  0  0  0  0  0  0  0
   16.4308   -4.9001  -10.9155 C   0  0  0  0  0  0  0  0  0  0  0  0
   17.5705   -4.9655  -11.4128 O   0  0  0  0  0  0  0  0  0  0  0  0
   15.8089   -3.6730  -10.8719 O   0  0  0  0  0  0  0  0  0  0  0  0
  2  1  1  1
  2  3  1  0
  4  5  1  0
  4  2  1  0
  5  6  1  1
  7  5  1  0
  7  8  2  0
  9  7  1  0
 10  9  1  0
 10 11  1  6
 12 11  1  0
 13 12  2  0
 14 10  1  0
 15 14  2  0
 16 12  1  0
 18 19  1  1
 18 17  1  0
 20 18  1  0
 21 20  1  1
 21 22  1  0
 22 14  1  0
 23 21  1  0
 24 23  2  0
 25 23  1  0
M  END
$$$$
