LDL.pdb
     RDKit          3D

 25 24  0  0  1  0  0  0  0  0999 V2000
   29.3455  -17.7323  -17.0962 C   0  0  0  0  0  0  0  0  0  0  0  0
   27.9193  -17.3025  -17.1899 C   0  0  2  0  0  0  0  0  0  0  0  0
   27.8931  -15.8460  -17.6228 C   0  0  0  0  0  0  0  0  0  0  0  0
   27.2245  -17.3783  -15.8510 C   0  0  0  0  0  0  0  0  0  0  0  0
   27.4041  -18.7088  -15.1642 C   0  0  2  0  0  0  0  0  0  0  0  0
   27.1841  -19.8053  -16.0702 N   0  0  0  0  0  0  0  0  0  0  0  0
   26.5607  -18.8717  -13.9791 C   0  0  0  0  0  0  0  0  0  0  0  0
   26.5546  -17.9972  -13.0600 O   0  0  0  0  0  0  0  0  0  0  0  0
   25.6992  -19.9897  -13.7580 N   0  0  0  0  0  0  0  0  0  0  0  0
   24.7864  -20.1042  -12.6797 C   0  0  1  0  0  0  0  0  0  0  0  0
   23.5551  -20.8329  -13.1149 C   0  0  0  0  0  0  0  0  0  0  0  0
   22.4766  -20.8204  -12.1019 C   0  0  0  0  0  0  0  0  0  0  0  0
   22.5208  -20.2096  -11.0061 O   0  0  0  0  0  0  0  0  0  0  0  0
   25.3774  -20.6436  -11.4361 C   0  0  0  0  0  0  0  0  0  0  0  0
   25.8912  -21.7987  -11.4214 O   0  0  0  0  0  0  0  0  0  0  0  0
   21.2940  -21.5427  -12.3603 O   0  0  0  0  0  0  0  0  0  0  0  0
   28.7722  -20.5908   -7.2153 C   0  0  0  0  0  0  0  0  0  0  0  0
   27.4643  -19.8804   -7.0215 C   0  0  1  0  0  0  0  0  0  0  0  0
   27.7607  -18.6531   -6.1629 C   0  0  0  0  0  0  0  0  0  0  0  0
   26.8306  -19.3940   -8.2800 C   0  0  0  0  0  0  0  0  0  0  0  0
   25.9883  -20.4228   -8.9874 C   0  0  2  0  0  0  0  0  0  0  0  0
   25.4079  -19.9253  -10.2118 N   0  0  0  0  0  0  0  0  0  0  0  0
   25.0371  -21.1200   -8.1199 C   0  0  0  0  0  0  0  0  0  0  0  0
   23.8151  -21.0576   -8.3506 O   0  0  0  0  0  0  0  0  0  0  0  0
   25.4584  -21.8567   -7.0362 O   0  0  0  0  0  0  0  0  0  0  0  0
  2  1  1  1
  2  3  1  0
  4  5  1  0
  4  2  1  0
  5  6  1  6
  7  5  1  0
  7  8  2  0
  9  7  1  0
 10  9  1  0
 10 11  1  6
 12 11  1  0
 13 12  2  0
 14 10  1  0
 15 14  2  0
 16 12  1  0
 18 19  1  1
 18 17  1  0
 20 18  1  0
 21 20  1  1
 21 22  1  0
 22 14  1  0
 23 21  1  0
 24 23  2  0
 25 23  1  0
M  END
$$$$
