LDL.pdb
     RDKit          3D

 25 24  0  0  1  0  0  0  0  0999 V2000
   27.2092  -20.1937   -4.5376 C   0  0  0  0  0  0  0  0  0  0  0  0
   28.0189  -19.4440   -5.5425 C   0  0  2  0  0  0  0  0  0  0  0  0
   28.3464  -18.0790   -4.9607 C   0  0  0  0  0  0  0  0  0  0  0  0
   27.2452  -19.2070   -6.8178 C   0  0  0  0  0  0  0  0  0  0  0  0
   26.8907  -20.4815   -7.5419 C   0  0  2  0  0  0  0  0  0  0  0  0
   28.0296  -21.3525   -7.6673 N   0  0  0  0  0  0  0  0  0  0  0  0
   26.2944  -20.2568   -8.8596 C   0  0  0  0  0  0  0  0  0  0  0  0
   25.5391  -19.2596   -9.0702 O   0  0  0  0  0  0  0  0  0  0  0  0
   26.5016  -21.1093   -9.9872 N   0  0  0  0  0  0  0  0  0  0  0  0
   25.9351  -20.9027  -11.2699 C   0  0  1  0  0  0  0  0  0  0  0  0
   26.7423  -21.6045  -12.3150 C   0  0  0  0  0  0  0  0  0  0  0  0
   26.2942  -21.3157  -13.6953 C   0  0  0  0  0  0  0  0  0  0  0  0
   25.5984  -20.3288  -14.0381 O   0  0  0  0  0  0  0  0  0  0  0  0
   24.4883  -21.1975  -11.3515 C   0  0  0  0  0  0  0  0  0  0  0  0
   23.8482  -21.5475  -10.3189 O   0  0  0  0  0  0  0  0  0  0  0  0
   26.6625  -22.2016  -14.7281 O   0  0  0  0  0  0  0  0  0  0  0  0
   19.5939  -20.5330  -10.7660 C   0  0  0  0  0  0  0  0  0  0  0  0
   20.3324  -19.6571  -11.7357 C   0  0  1  0  0  0  0  0  0  0  0  0
   20.0485  -18.2155  -11.3206 C   0  0  0  0  0  0  0  0  0  0  0  0
   21.8126  -19.8338  -11.7274 C   0  0  0  0  0  0  0  0  0  0  0  0
   22.3094  -20.9417  -12.6184 C   0  0  2  0  0  0  0  0  0  0  0  0
   23.7415  -21.1108  -12.5559 N   0  0  0  0  0  0  0  0  0  0  0  0
   21.7751  -20.9022  -13.9809 C   0  0  0  0  0  0  0  0  0  0  0  0
   20.5888  -21.2118  -14.1989 O   0  0  0  0  0  0  0  0  0  0  0  0
   22.5570  -20.5268  -15.0496 O   0  0  0  0  0  0  0  0  0  0  0  0
  2  1  1  1
  2  3  1  0
  4  5  1  0
  4  2  1  0
  5  6  1  6
  7  5  1  0
  7  8  2  0
  9  7  1  0
 10  9  1  0
 10 11  1  6
 12 11  1  0
 13 12  2  0
 14 10  1  0
 15 14  2  0
 16 12  1  0
 18 19  1  1
 18 17  1  0
 20 18  1  0
 21 20  1  6
 21 22  1  0
 22 14  1  0
 23 21  1  0
 24 23  2  0
 25 23  1  0
M  END
$$$$
