TYQ.pdb
     RDKit          3D

 29 29  0  0  1  0  0  0  0  0999 V2000
    6.4616  -14.6750   17.5033 C   0  0  0  0  0  0  0  0  0  0  0  0
    7.1192  -14.8264   18.8622 C   0  0  1  0  0  0  0  0  0  0  0  0
    8.3651  -15.4304   18.7609 O   0  0  0  0  0  0  0  0  0  0  0  0
    7.1626  -13.5333   19.6182 C   0  0  2  0  0  0  0  0  0  0  0  0
    7.8802  -12.5691   18.7757 N   0  0  0  0  0  0  0  0  0  0  0  0
    7.8163  -13.6395   20.9411 C   0  0  0  0  0  0  0  0  0  0  0  0
    9.0873  -13.6215   21.0709 O   0  0  0  0  0  0  0  0  0  0  0  0
    8.5021  -13.9200   29.8242 O   0  0  0  0  0  0  0  0  0  0  0  0
    8.0719  -13.8177   28.5125 C   0  0  0  0  0  0  0  0  0  0  0  0
    8.1611  -12.6356   27.8153 C   0  0  0  0  0  0  0  0  0  0  0  0
    7.7198  -12.5545   26.4889 C   0  0  0  0  0  0  0  0  0  0  0  0
    7.1873  -13.6494   25.8486 C   0  0  0  0  0  0  0  0  0  0  0  0
    6.7272  -13.5588   24.4688 C   0  0  0  0  0  0  0  0  0  0  0  0
    7.7598  -13.9473   23.4303 C   0  0  2  0  0  0  0  0  0  0  0  0
    7.0856  -13.7663   22.1365 N   0  0  0  0  0  0  0  0  0  0  0  0
    8.2717  -15.3137   23.5807 C   0  0  0  0  0  0  0  0  0  0  0  0
    7.5943  -16.2787   23.1423 O   0  0  0  0  0  0  0  0  0  0  0  0
    7.1040  -14.8243   26.5570 C   0  0  0  0  0  0  0  0  0  0  0  0
    7.5409  -14.9135   27.8774 C   0  0  0  0  0  0  0  0  0  0  0  0
   13.0464  -17.3055   21.2945 N   0  0  0  0  0  0  0  0  0  0  0  0
   12.7718  -18.4957   22.0096 C   0  0  0  0  0  0  0  0  0  0  0  0
   13.3806  -19.5558   21.7925 O   0  0  0  0  0  0  0  0  0  0  0  0
   11.6971  -18.4276   23.0599 C   0  0  0  0  0  0  0  0  0  0  0  0
   11.1177  -17.0435   23.1375 C   0  0  0  0  0  0  0  0  0  0  0  0
   10.0400  -16.9597   24.1561 C   0  0  2  0  0  0  0  0  0  0  0  0
    9.4992  -15.5826   24.2009 N   0  0  0  0  0  0  0  0  0  0  0  0
   10.5300  -17.2632   25.5117 C   0  0  0  0  0  0  0  0  0  0  0  0
   10.5430  -18.4738   25.9287 O   0  0  0  0  0  0  0  0  0  0  0  0
   11.0024  -16.3403   26.4244 O   0  0  0  0  0  0  0  0  0  0  0  0
  2  1  1  6
  2  4  1  0
  2  3  1  0
  4  6  1  0
  4  5  1  6
  6  7  2  0
  9  8  1  0
  9 19  2  0
 10  9  1  0
 11 10  2  0
 11 12  1  0
 12 18  2  0
 13 12  1  0
 14 13  1  1
 14 16  1  0
 15 14  1  0
 15  6  1  0
 16 17  2  0
 18 19  1  0
 20 21  1  0
 21 22  2  0
 23 21  1  0
 23 24  1  0
 25 24  1  6
 25 27  1  0
 26 16  1  0
 26 25  1  0
 27 28  2  0
 27 29  1  0
M  END
$$$$
