TYQ.pdb
     RDKit          3D

 29 29  0  0  1  0  0  0  0  0999 V2000
    8.8743  -18.6110   18.4376 C   0  0  0  0  0  0  0  0  0  0  0  0
    8.9766  -18.0613   19.8480 C   0  0  1  0  0  0  0  0  0  0  0  0
    9.6465  -18.9391   20.6896 O   0  0  0  0  0  0  0  0  0  0  0  0
    9.5529  -16.6784   19.8769 C   0  0  2  0  0  0  0  0  0  0  0  0
   10.9046  -16.7661   19.3118 N   0  0  0  0  0  0  0  0  0  0  0  0
    9.6042  -16.0837   21.2306 C   0  0  0  0  0  0  0  0  0  0  0  0
   10.6008  -16.2617   22.0102 O   0  0  0  0  0  0  0  0  0  0  0  0
    6.5581  -11.6060   28.3399 O   0  0  0  0  0  0  0  0  0  0  0  0
    6.8043  -12.1198   27.0783 C   0  0  0  0  0  0  0  0  0  0  0  0
    7.9390  -11.7894   26.3749 C   0  0  0  0  0  0  0  0  0  0  0  0
    8.1682  -12.3210   25.0999 C   0  0  0  0  0  0  0  0  0  0  0  0
    7.2694  -13.1844   24.5176 C   0  0  0  0  0  0  0  0  0  0  0  0
    7.5117  -13.7327   23.1892 C   0  0  0  0  0  0  0  0  0  0  0  0
    8.5952  -14.7898   23.1286 C   0  0  2  0  0  0  0  0  0  0  0  0
    8.5650  -15.2874   21.7455 N   0  0  0  0  0  0  0  0  0  0  0  0
    8.4189  -15.8803   24.0937 C   0  0  0  0  0  0  0  0  0  0  0  0
    7.4061  -16.6215   24.0099 O   0  0  0  0  0  0  0  0  0  0  0  0
    6.1398  -13.5060   25.2314 C   0  0  0  0  0  0  0  0  0  0  0  0
    5.9042  -12.9814   26.5009 C   0  0  0  0  0  0  0  0  0  0  0  0
   10.3054  -20.7969   24.2402 N   0  0  0  0  0  0  0  0  0  0  0  0
   11.3289  -19.8291   24.3795 C   0  0  0  0  0  0  0  0  0  0  0  0
   12.4870  -20.0255   23.9775 O   0  0  0  0  0  0  0  0  0  0  0  0
   10.9551  -18.5323   25.0438 C   0  0  0  0  0  0  0  0  0  0  0  0
    9.5001  -18.5280   25.4187 C   0  0  0  0  0  0  0  0  0  0  0  0
    9.1041  -17.2445   26.0525 C   0  0  2  0  0  0  0  0  0  0  0  0
    9.3476  -16.1262   25.1139 N   0  0  0  0  0  0  0  0  0  0  0  0
    9.8906  -16.9555   27.2640 C   0  0  0  0  0  0  0  0  0  0  0  0
    9.8538  -17.7641   28.2561 O   0  0  0  0  0  0  0  0  0  0  0  0
   10.7049  -15.8560   27.4541 O   0  0  0  0  0  0  0  0  0  0  0  0
  2  1  1  6
  2  4  1  0
  2  3  1  0
  4  6  1  0
  4  5  1  1
  6  7  2  0
  9  8  1  0
  9 19  2  0
 10  9  1  0
 11 10  2  0
 11 12  1  0
 12 18  2  0
 13 12  1  0
 14 13  1  6
 14 16  1  0
 15 14  1  0
 15  6  1  0
 16 17  2  0
 18 19  1  0
 20 21  1  0
 21 22  2  0
 23 21  1  0
 23 24  1  0
 25 24  1  6
 25 27  1  0
 26 16  1  0
 26 25  1  0
 27 28  2  0
 27 29  1  0
M  END
$$$$
