TYQ.pdb
     RDKit          3D

 29 29  0  0  1  0  0  0  0  0999 V2000
    9.2813  -19.9917   19.3495 C   0  0  0  0  0  0  0  0  0  0  0  0
    9.4495  -18.8620   20.3481 C   0  0  1  0  0  0  0  0  0  0  0  0
   10.7838  -18.6699   20.6800 O   0  0  0  0  0  0  0  0  0  0  0  0
    8.7783  -17.6009   19.8958 C   0  0  2  0  0  0  0  0  0  0  0  0
    9.3412  -17.2637   18.5828 N   0  0  0  0  0  0  0  0  0  0  0  0
    8.9507  -16.4672   20.8304 C   0  0  0  0  0  0  0  0  0  0  0  0
    9.9658  -15.6931   20.7748 O   0  0  0  0  0  0  0  0  0  0  0  0
    6.7279  -10.7265   27.2936 O   0  0  0  0  0  0  0  0  0  0  0  0
    6.7537  -11.7161   26.3259 C   0  0  0  0  0  0  0  0  0  0  0  0
    6.7816  -13.0498   26.6603 C   0  0  0  0  0  0  0  0  0  0  0  0
    6.8074  -14.0345   25.6650 C   0  0  0  0  0  0  0  0  0  0  0  0
    6.8054  -13.6974   24.3313 C   0  0  0  0  0  0  0  0  0  0  0  0
    6.8347  -14.7263   23.2996 C   0  0  0  0  0  0  0  0  0  0  0  0
    8.2146  -15.0423   22.7597 C   0  0  2  0  0  0  0  0  0  0  0  0
    8.0137  -16.1684   21.8362 N   0  0  0  0  0  0  0  0  0  0  0  0
    9.1998  -15.3691   23.7961 C   0  0  0  0  0  0  0  0  0  0  0  0
    9.5350  -14.4885   24.6293 O   0  0  0  0  0  0  0  0  0  0  0  0
    6.7773  -12.3611   24.0113 C   0  0  0  0  0  0  0  0  0  0  0  0
    6.7516  -11.3748   24.9958 C   0  0  0  0  0  0  0  0  0  0  0  0
   10.2810  -20.6476   26.6534 N   0  0  0  0  0  0  0  0  0  0  0  0
   11.3561  -19.8984   27.1885 C   0  0  0  0  0  0  0  0  0  0  0  0
   12.0865  -20.3377   28.0914 O   0  0  0  0  0  0  0  0  0  0  0  0
   11.5848  -18.5275   26.6134 C   0  0  0  0  0  0  0  0  0  0  0  0
   10.5370  -18.2008   25.5873 C   0  0  0  0  0  0  0  0  0  0  0  0
   10.7955  -16.8879   24.9426 C   0  0  2  0  0  0  0  0  0  0  0  0
    9.7849  -16.6391   23.8902 N   0  0  0  0  0  0  0  0  0  0  0  0
   12.1110  -16.8415   24.2816 C   0  0  0  0  0  0  0  0  0  0  0  0
   13.0893  -16.2416   24.8498 O   0  0  0  0  0  0  0  0  0  0  0  0
   12.4197  -17.4040   23.0584 O   0  0  0  0  0  0  0  0  0  0  0  0
  2  1  1  6
  2  4  1  0
  2  3  1  0
  4  6  1  0
  4  5  1  6
  6  7  2  0
  9  8  1  0
  9 19  2  0
 10  9  1  0
 11 10  2  0
 11 12  1  0
 12 18  2  0
 13 12  1  0
 14 13  1  1
 14 16  1  0
 15 14  1  0
 15  6  1  0
 16 17  2  0
 18 19  1  0
 20 21  1  0
 21 22  2  0
 23 21  1  0
 23 24  1  0
 25 24  1  6
 25 27  1  0
 26 16  1  0
 26 25  1  0
 27 28  2  0
 27 29  1  0
M  END
$$$$
