TYQ.pdb
     RDKit          3D

 29 29  0  0  1  0  0  0  0  0999 V2000
    8.7662  -18.8854   19.0627 C   0  0  0  0  0  0  0  0  0  0  0  0
    9.4414  -18.3562   20.3140 C   0  0  1  0  0  0  0  0  0  0  0  0
   10.7678  -18.7595   20.3867 O   0  0  0  0  0  0  0  0  0  0  0  0
    9.2782  -16.8740   20.4625 C   0  0  2  0  0  0  0  0  0  0  0  0
    9.9235  -16.2538   19.2992 N   0  0  0  0  0  0  0  0  0  0  0  0
    9.8554  -16.3344   21.7132 C   0  0  0  0  0  0  0  0  0  0  0  0
   11.0678  -15.9370   21.7822 O   0  0  0  0  0  0  0  0  0  0  0  0
   10.0584  -14.0698   30.3516 O   0  0  0  0  0  0  0  0  0  0  0  0
    9.6925  -14.4287   29.0657 C   0  0  0  0  0  0  0  0  0  0  0  0
    9.4912  -15.7431   28.7145 C   0  0  0  0  0  0  0  0  0  0  0  0
    9.1212  -16.0838   27.4077 C   0  0  0  0  0  0  0  0  0  0  0  0
    8.9495  -15.1184   26.4429 C   0  0  0  0  0  0  0  0  0  0  0  0
    8.5669  -15.4787   25.0836 C   0  0  0  0  0  0  0  0  0  0  0  0
    9.7285  -15.7515   24.1501 C   0  0  2  0  0  0  0  0  0  0  0  0
    9.1116  -16.2240   22.9021 N   0  0  0  0  0  0  0  0  0  0  0  0
   10.6959  -16.7236   24.6704 C   0  0  0  0  0  0  0  0  0  0  0  0
   10.3406  -17.9182   24.8402 O   0  0  0  0  0  0  0  0  0  0  0  0
    9.1539  -13.8091   26.8074 C   0  0  0  0  0  0  0  0  0  0  0  0
    9.5222  -13.4615   28.1059 C   0  0  0  0  0  0  0  0  0  0  0  0
   16.8215  -17.2188   24.2862 N   0  0  0  0  0  0  0  0  0  0  0  0
   15.9367  -16.5036   23.4441 C   0  0  0  0  0  0  0  0  0  0  0  0
   16.2932  -16.0377   22.3499 O   0  0  0  0  0  0  0  0  0  0  0  0
   14.5250  -16.3261   23.9321 C   0  0  0  0  0  0  0  0  0  0  0  0
   14.3439  -16.9686   25.2782 C   0  0  0  0  0  0  0  0  0  0  0  0
   12.9394  -17.4023   25.4910 C   0  0  2  0  0  0  0  0  0  0  0  0
   12.0128  -16.3639   24.9872 N   0  0  0  0  0  0  0  0  0  0  0  0
   12.6247  -17.5902   26.9177 C   0  0  0  0  0  0  0  0  0  0  0  0
   13.3070  -18.4174   27.6176 O   0  0  0  0  0  0  0  0  0  0  0  0
   11.6279  -16.9379   27.6169 O   0  0  0  0  0  0  0  0  0  0  0  0
  2  1  1  6
  2  4  1  0
  2  3  1  0
  4  6  1  0
  4  5  1  6
  6  7  2  0
  9  8  1  0
  9 19  2  0
 10  9  1  0
 11 10  2  0
 11 12  1  0
 12 18  2  0
 13 12  1  0
 14 13  1  1
 14 16  1  0
 15 14  1  0
 15  6  1  0
 16 17  2  0
 18 19  1  0
 20 21  1  0
 21 22  2  0
 23 21  1  0
 23 24  1  0
 25 24  1  1
 25 27  1  0
 26 16  1  0
 26 25  1  0
 27 28  2  0
 27 29  1  0
M  END
$$$$
