TYQ.pdb
     RDKit          3D

 29 29  0  0  1  0  0  0  0  0999 V2000
    8.8558  -20.4867   17.7541 C   0  0  0  0  0  0  0  0  0  0  0  0
    9.5938  -19.7594   18.8622 C   0  0  1  0  0  0  0  0  0  0  0  0
   10.9219  -20.1569   18.9362 O   0  0  0  0  0  0  0  0  0  0  0  0
    9.4395  -18.2720   18.7648 C   0  0  2  0  0  0  0  0  0  0  0  0
   10.1422  -17.8477   17.5481 N   0  0  0  0  0  0  0  0  0  0  0  0
    9.9661  -17.5413   19.9384 C   0  0  0  0  0  0  0  0  0  0  0  0
   11.1755  -17.1327   19.9939 O   0  0  0  0  0  0  0  0  0  0  0  0
    7.5398  -11.7493   18.4003 O   0  0  0  0  0  0  0  0  0  0  0  0
    7.8192  -12.6539   19.4102 C   0  0  0  0  0  0  0  0  0  0  0  0
    9.0704  -12.7395   19.9747 C   0  0  0  0  0  0  0  0  0  0  0  0
    9.3310  -13.6620   20.9954 C   0  0  0  0  0  0  0  0  0  0  0  0
    8.3480  -14.5046   21.4602 C   0  0  0  0  0  0  0  0  0  0  0  0
    8.6254  -15.4646   22.5210 C   0  0  0  0  0  0  0  0  0  0  0  0
    9.7064  -16.4745   22.1942 C   0  0  2  0  0  0  0  0  0  0  0  0
    9.1744  -17.2498   21.0641 N   0  0  0  0  0  0  0  0  0  0  0  0
   10.0680  -17.3454   23.3178 C   0  0  0  0  0  0  0  0  0  0  0  0
    9.1584  -17.8915   23.9935 O   0  0  0  0  0  0  0  0  0  0  0  0
    7.1024  -14.4085   20.8873 C   0  0  0  0  0  0  0  0  0  0  0  0
    6.8347  -13.4931   19.8710 C   0  0  0  0  0  0  0  0  0  0  0  0
   14.5873  -20.6261   22.5803 N   0  0  0  0  0  0  0  0  0  0  0  0
   15.0784  -19.5133   23.3042 C   0  0  0  0  0  0  0  0  0  0  0  0
   16.2465  -19.1091   23.1879 O   0  0  0  0  0  0  0  0  0  0  0  0
   14.1165  -18.8272   24.2351 C   0  0  0  0  0  0  0  0  0  0  0  0
   12.7793  -19.5120   24.2160 C   0  0  0  0  0  0  0  0  0  0  0  0
   11.6991  -18.6129   24.6963 C   0  0  2  0  0  0  0  0  0  0  0  0
   11.4027  -17.5916   23.6667 N   0  0  0  0  0  0  0  0  0  0  0  0
   12.0844  -17.8813   25.9154 C   0  0  0  0  0  0  0  0  0  0  0  0
   12.1291  -18.4936   27.0391 O   0  0  0  0  0  0  0  0  0  0  0  0
   12.4216  -16.5435   25.9810 O   0  0  0  0  0  0  0  0  0  0  0  0
  2  1  1  6
  2  4  1  0
  2  3  1  0
  4  6  1  0
  4  5  1  6
  6  7  2  0
  9  8  1  0
  9 19  2  0
 10  9  1  0
 11 10  2  0
 11 12  1  0
 12 18  2  0
 13 12  1  0
 14 13  1  1
 14 16  1  0
 15 14  1  0
 15  6  1  0
 16 17  2  0
 18 19  1  0
 20 21  1  0
 21 22  2  0
 23 21  1  0
 23 24  1  0
 25 24  1  6
 25 27  1  0
 26 16  1  0
 26 25  1  0
 27 28  2  0
 27 29  1  0
M  END
$$$$
