TYQ.pdb
     RDKit          3D

 29 29  0  0  1  0  0  0  0  0999 V2000
   10.5451  -20.5420   20.1343 C   0  0  0  0  0  0  0  0  0  0  0  0
   10.6515  -19.6684   18.8984 C   0  0  1  0  0  0  0  0  0  0  0  0
   10.4258  -20.3971   17.7385 O   0  0  0  0  0  0  0  0  0  0  0  0
    9.7885  -18.4470   18.9917 C   0  0  2  0  0  0  0  0  0  0  0  0
    9.8569  -17.7741   17.6890 N   0  0  0  0  0  0  0  0  0  0  0  0
   10.1909  -17.5153   20.0681 C   0  0  0  0  0  0  0  0  0  0  0  0
   11.2939  -16.8715   20.0281 O   0  0  0  0  0  0  0  0  0  0  0  0
    6.7630  -12.0483   18.5976 O   0  0  0  0  0  0  0  0  0  0  0  0
    7.2198  -12.9019   19.5871 C   0  0  0  0  0  0  0  0  0  0  0  0
    8.3938  -12.6600   20.2614 C   0  0  0  0  0  0  0  0  0  0  0  0
    8.8373  -13.5368   21.2591 C   0  0  0  0  0  0  0  0  0  0  0  0
    8.1149  -14.6594   21.5913 C   0  0  0  0  0  0  0  0  0  0  0  0
    8.5824  -15.5700   22.6287 C   0  0  0  0  0  0  0  0  0  0  0  0
    9.8221  -16.3612   22.2650 C   0  0  2  0  0  0  0  0  0  0  0  0
    9.3901  -17.2781   21.2001 N   0  0  0  0  0  0  0  0  0  0  0  0
   10.4157  -17.0903   23.3910 C   0  0  0  0  0  0  0  0  0  0  0  0
    9.8066  -18.0776   23.8774 O   0  0  0  0  0  0  0  0  0  0  0  0
    6.9438  -14.8890   20.9096 C   0  0  0  0  0  0  0  0  0  0  0  0
    6.4954  -14.0213   19.9154 C   0  0  0  0  0  0  0  0  0  0  0  0
   16.3811  -17.0230   24.9888 N   0  0  0  0  0  0  0  0  0  0  0  0
   15.8039  -17.1546   23.7031 C   0  0  0  0  0  0  0  0  0  0  0  0
   16.4821  -17.1138   22.6639 O   0  0  0  0  0  0  0  0  0  0  0  0
   14.3135  -17.3487   23.6414 C   0  0  0  0  0  0  0  0  0  0  0  0
   13.7233  -17.3697   25.0230 C   0  0  0  0  0  0  0  0  0  0  0  0
   12.2543  -17.5853   24.9853 C   0  0  2  0  0  0  0  0  0  0  0  0
   11.6478  -16.7215   23.9475 N   0  0  0  0  0  0  0  0  0  0  0  0
   11.6064  -17.2298   26.2595 C   0  0  0  0  0  0  0  0  0  0  0  0
   11.9573  -17.8207   27.3399 O   0  0  0  0  0  0  0  0  0  0  0  0
   10.6161  -16.2809   26.4240 O   0  0  0  0  0  0  0  0  0  0  0  0
  2  1  1  1
  2  4  1  0
  2  3  1  0
  4  6  1  0
  4  5  1  6
  6  7  2  0
  9  8  1  0
  9 19  2  0
 10  9  1  0
 11 10  2  0
 11 12  1  0
 12 18  2  0
 13 12  1  0
 14 13  1  1
 14 16  1  0
 15 14  1  0
 15  6  1  0
 16 17  2  0
 18 19  1  0
 20 21  1  0
 21 22  2  0
 23 21  1  0
 23 24  1  0
 25 24  1  1
 25 27  1  0
 26 16  1  0
 26 25  1  0
 27 28  2  0
 27 29  1  0
M  END
$$$$
