TYQ.pdb
     RDKit          3D

 29 29  0  0  1  0  0  0  0  0999 V2000
    8.0029  -19.1178   20.4019 C   0  0  0  0  0  0  0  0  0  0  0  0
    8.8532  -18.4222   19.3554 C   0  0  1  0  0  0  0  0  0  0  0  0
    8.7746  -19.0636   18.1266 O   0  0  0  0  0  0  0  0  0  0  0  0
    8.5531  -16.9569   19.2637 C   0  0  2  0  0  0  0  0  0  0  0  0
    9.3267  -16.4317   18.1324 N   0  0  0  0  0  0  0  0  0  0  0  0
    8.8778  -16.2051   20.4958 C   0  0  0  0  0  0  0  0  0  0  0  0
   10.0790  -16.0741   20.9114 O   0  0  0  0  0  0  0  0  0  0  0  0
    7.2495  -11.7437   28.0592 O   0  0  0  0  0  0  0  0  0  0  0  0
    7.1725  -12.3599   26.8220 C   0  0  0  0  0  0  0  0  0  0  0  0
    6.5085  -13.5520   26.6512 C   0  0  0  0  0  0  0  0  0  0  0  0
    6.4430  -14.1579   25.3905 C   0  0  0  0  0  0  0  0  0  0  0  0
    7.0379  -13.5808   24.2926 C   0  0  0  0  0  0  0  0  0  0  0  0
    6.9687  -14.2170   22.9832 C   0  0  0  0  0  0  0  0  0  0  0  0
    8.2231  -14.9615   22.5740 C   0  0  2  0  0  0  0  0  0  0  0  0
    7.8911  -15.5885   21.2864 N   0  0  0  0  0  0  0  0  0  0  0  0
    8.6722  -15.9566   23.5538 C   0  0  0  0  0  0  0  0  0  0  0  0
    8.0790  -17.0634   23.6263 O   0  0  0  0  0  0  0  0  0  0  0  0
    7.6981  -12.3896   24.4774 C   0  0  0  0  0  0  0  0  0  0  0  0
    7.7680  -11.7800   25.7288 C   0  0  0  0  0  0  0  0  0  0  0  0
   14.3370  -17.2469   23.6539 N   0  0  0  0  0  0  0  0  0  0  0  0
   13.9575  -18.2110   24.6182 C   0  0  0  0  0  0  0  0  0  0  0  0
   14.7326  -19.0982   25.0103 O   0  0  0  0  0  0  0  0  0  0  0  0
   12.5571  -18.1193   25.1596 C   0  0  0  0  0  0  0  0  0  0  0  0
   11.8130  -16.9830   24.5171 C   0  0  0  0  0  0  0  0  0  0  0  0
   10.4328  -16.8630   25.0524 C   0  0  2  0  0  0  0  0  0  0  0  0
    9.7479  -15.7141   24.4186 N   0  0  0  0  0  0  0  0  0  0  0  0
   10.4182  -16.6125   26.5039 C   0  0  0  0  0  0  0  0  0  0  0  0
   10.9163  -17.4781   27.3054 O   0  0  0  0  0  0  0  0  0  0  0  0
    9.9037  -15.4906   27.1240 O   0  0  0  0  0  0  0  0  0  0  0  0
  2  1  1  1
  2  4  1  0
  2  3  1  0
  4  6  1  0
  4  5  1  6
  6  7  2  0
  9  8  1  0
  9 19  2  0
 10  9  1  0
 11 10  2  0
 11 12  1  0
 12 18  2  0
 13 12  1  0
 14 13  1  1
 14 16  1  0
 15 14  1  0
 15  6  1  0
 16 17  2  0
 18 19  1  0
 20 21  1  0
 21 22  2  0
 23 21  1  0
 23 24  1  0
 25 24  1  6
 25 27  1  0
 26 16  1  0
 26 25  1  0
 27 28  2  0
 27 29  1  0
M  END
$$$$
