TYQ.pdb
     RDKit          3D

 29 29  0  0  1  0  0  0  0  0999 V2000
   11.2156  -19.2098   20.3923 C   0  0  0  0  0  0  0  0  0  0  0  0
    9.8008  -18.9445   19.9128 C   0  0  1  0  0  0  0  0  0  0  0  0
    8.8612  -19.5383   20.7444 O   0  0  0  0  0  0  0  0  0  0  0  0
    9.5406  -17.4849   19.6948 C   0  0  2  0  0  0  0  0  0  0  0  0
   10.5272  -17.0160   18.7145 N   0  0  0  0  0  0  0  0  0  0  0  0
    9.6249  -16.6749   20.9299 C   0  0  0  0  0  0  0  0  0  0  0  0
   10.7453  -16.3115   21.4253 O   0  0  0  0  0  0  0  0  0  0  0  0
    6.7548  -11.8652   27.8714 O   0  0  0  0  0  0  0  0  0  0  0  0
    6.8972  -12.5666   26.6865 C   0  0  0  0  0  0  0  0  0  0  0  0
    7.6984  -12.1055   25.6683 C   0  0  0  0  0  0  0  0  0  0  0  0
    7.8281  -12.8313   24.4779 C   0  0  0  0  0  0  0  0  0  0  0  0
    7.1611  -14.0203   24.2940 C   0  0  0  0  0  0  0  0  0  0  0  0
    7.2976  -14.7704   23.0520 C   0  0  0  0  0  0  0  0  0  0  0  0
    8.5956  -15.5400   22.9166 C   0  0  2  0  0  0  0  0  0  0  0  0
    8.4835  -16.2537   21.6362 N   0  0  0  0  0  0  0  0  0  0  0  0
    8.8583  -16.4654   24.0240 C   0  0  0  0  0  0  0  0  0  0  0  0
    8.1217  -17.4739   24.1741 O   0  0  0  0  0  0  0  0  0  0  0  0
    6.3638  -14.4694   25.3194 C   0  0  0  0  0  0  0  0  0  0  0  0
    6.2293  -13.7531   26.5074 C   0  0  0  0  0  0  0  0  0  0  0  0
   14.0944  -18.5383   25.8293 N   0  0  0  0  0  0  0  0  0  0  0  0
   13.3473  -18.7615   24.6480 C   0  0  0  0  0  0  0  0  0  0  0  0
   13.8504  -19.2621   23.6293 O   0  0  0  0  0  0  0  0  0  0  0  0
   11.8970  -18.3631   24.6729 C   0  0  0  0  0  0  0  0  0  0  0  0
   11.5486  -17.7089   25.9799 C   0  0  0  0  0  0  0  0  0  0  0  0
   10.1348  -17.2546   26.0026 C   0  0  2  0  0  0  0  0  0  0  0  0
    9.9102  -16.2625   24.9274 N   0  0  0  0  0  0  0  0  0  0  0  0
    9.7840  -16.5888   27.2690 C   0  0  0  0  0  0  0  0  0  0  0  0
    9.7299  -15.3107   27.3237 O   0  0  0  0  0  0  0  0  0  0  0  0
    9.4902  -17.2238   28.4600 O   0  0  0  0  0  0  0  0  0  0  0  0
  2  1  1  1
  2  4  1  0
  2  3  1  0
  4  6  1  0
  4  5  1  6
  6  7  2  0
  9  8  1  0
  9 19  2  0
 10  9  1  0
 11 10  2  0
 11 12  1  0
 12 18  2  0
 13 12  1  0
 14 13  1  1
 14 16  1  0
 15 14  1  0
 15  6  1  0
 16 17  2  0
 18 19  1  0
 20 21  1  0
 21 22  2  0
 23 21  1  0
 23 24  1  0
 25 24  1  1
 25 27  1  0
 26 16  1  0
 26 25  1  0
 27 28  2  0
 27 29  1  0
M  END
$$$$
