TYQ.pdb
     RDKit          3D

 29 29  0  0  1  0  0  0  0  0999 V2000
    7.5101  -18.3902   18.2574 C   0  0  0  0  0  0  0  0  0  0  0  0
    7.9636  -17.8327   19.5936 C   0  0  1  0  0  0  0  0  0  0  0  0
    8.9327  -18.6364   20.1786 O   0  0  0  0  0  0  0  0  0  0  0  0
    8.3837  -16.3976   19.4959 C   0  0  2  0  0  0  0  0  0  0  0  0
    9.5438  -16.3515   18.5981 N   0  0  0  0  0  0  0  0  0  0  0  0
    8.7241  -15.7875   20.8000 C   0  0  0  0  0  0  0  0  0  0  0  0
    9.8863  -15.9035   21.3182 O   0  0  0  0  0  0  0  0  0  0  0  0
    7.0159  -11.8519   28.6381 O   0  0  0  0  0  0  0  0  0  0  0  0
    7.0134  -12.2821   27.3224 C   0  0  0  0  0  0  0  0  0  0  0  0
    7.7480  -11.6398   26.3532 C   0  0  0  0  0  0  0  0  0  0  0  0
    7.7310  -12.0920   25.0281 C   0  0  0  0  0  0  0  0  0  0  0  0
    6.9831  -13.1862   24.6599 C   0  0  0  0  0  0  0  0  0  0  0  0
    6.9671  -13.6512   23.2788 C   0  0  0  0  0  0  0  0  0  0  0  0
    8.1103  -14.5738   22.9081 C   0  0  2  0  0  0  0  0  0  0  0  0
    7.7959  -15.0437   21.5511 N   0  0  0  0  0  0  0  0  0  0  0  0
    8.2946  -15.6964   23.8341 C   0  0  0  0  0  0  0  0  0  0  0  0
    7.3964  -16.5717   23.9300 O   0  0  0  0  0  0  0  0  0  0  0  0
    6.2538  -13.8187   25.6383 C   0  0  0  0  0  0  0  0  0  0  0  0
    6.2652  -13.3749   26.9595 C   0  0  0  0  0  0  0  0  0  0  0  0
   12.7992  -18.4471   22.4839 N   0  0  0  0  0  0  0  0  0  0  0  0
   12.7337  -18.3227   23.8923 C   0  0  0  0  0  0  0  0  0  0  0  0
   13.4327  -19.0119   24.6526 O   0  0  0  0  0  0  0  0  0  0  0  0
   11.7700  -17.3075   24.4430 C   0  0  0  0  0  0  0  0  0  0  0  0
   10.5226  -17.9778   24.9454 C   0  0  0  0  0  0  0  0  0  0  0  0
    9.5704  -16.9952   25.5231 C   0  0  2  0  0  0  0  0  0  0  0  0
    9.4464  -15.8280   24.6214 N   0  0  0  0  0  0  0  0  0  0  0  0
   10.0272  -16.4753   26.8235 C   0  0  0  0  0  0  0  0  0  0  0  0
   10.1913  -17.2767   27.8085 O   0  0  0  0  0  0  0  0  0  0  0  0
   10.3142  -15.1546   27.1086 O   0  0  0  0  0  0  0  0  0  0  0  0
  2  1  1  6
  2  4  1  0
  2  3  1  0
  4  6  1  0
  4  5  1  6
  6  7  2  0
  9  8  1  0
  9 19  2  0
 10  9  1  0
 11 10  2  0
 11 12  1  0
 12 18  2  0
 13 12  1  0
 14 13  1  1
 14 16  1  0
 15 14  1  0
 15  6  1  0
 16 17  2  0
 18 19  1  0
 20 21  1  0
 21 22  2  0
 23 21  1  0
 23 24  1  0
 25 24  1  6
 25 27  1  0
 26 16  1  0
 26 25  1  0
 27 28  2  0
 27 29  1  0
M  END
$$$$
