TYQ.pdb
     RDKit          3D

 29 29  0  0  1  0  0  0  0  0999 V2000
    8.7178  -19.2421   18.1590 C   0  0  0  0  0  0  0  0  0  0  0  0
    9.0023  -18.5194   19.4623 C   0  0  1  0  0  0  0  0  0  0  0  0
   10.1182  -19.0422   20.1017 O   0  0  0  0  0  0  0  0  0  0  0  0
    9.0821  -17.0340   19.2809 C   0  0  2  0  0  0  0  0  0  0  0  0
   10.1914  -16.7748   18.3554 N   0  0  0  0  0  0  0  0  0  0  0  0
    9.2880  -16.2909   20.5436 C   0  0  0  0  0  0  0  0  0  0  0  0
   10.4464  -16.1489   21.0637 O   0  0  0  0  0  0  0  0  0  0  0  0
    7.0452  -11.7410   27.8885 O   0  0  0  0  0  0  0  0  0  0  0  0
    7.0618  -12.3892   26.6654 C   0  0  0  0  0  0  0  0  0  0  0  0
    6.3850  -13.5698   26.4667 C   0  0  0  0  0  0  0  0  0  0  0  0
    6.4153  -14.2086   25.2210 C   0  0  0  0  0  0  0  0  0  0  0  0
    7.1193  -13.6761   24.1659 C   0  0  0  0  0  0  0  0  0  0  0  0
    7.1496  -14.3464   22.8722 C   0  0  0  0  0  0  0  0  0  0  0  0
    8.4341  -15.0930   22.5759 C   0  0  2  0  0  0  0  0  0  0  0  0
    8.2278  -15.6951   21.2506 N   0  0  0  0  0  0  0  0  0  0  0  0
    8.7783  -16.1081   23.5772 C   0  0  0  0  0  0  0  0  0  0  0  0
    8.1589  -17.2029   23.5850 O   0  0  0  0  0  0  0  0  0  0  0  0
    7.7911  -12.4960   24.3783 C   0  0  0  0  0  0  0  0  0  0  0  0
    7.7660  -11.8538   25.6150 C   0  0  0  0  0  0  0  0  0  0  0  0
   14.5506  -18.9622   26.5465 N   0  0  0  0  0  0  0  0  0  0  0  0
   13.6173  -18.7824   25.4977 C   0  0  0  0  0  0  0  0  0  0  0  0
   13.9323  -18.8967   24.3022 O   0  0  0  0  0  0  0  0  0  0  0  0
   12.2061  -18.4420   25.8918 C   0  0  0  0  0  0  0  0  0  0  0  0
   11.6339  -17.4019   24.9706 C   0  0  0  0  0  0  0  0  0  0  0  0
   10.2443  -17.0413   25.3513 C   0  0  2  0  0  0  0  0  0  0  0  0
    9.7815  -15.8981   24.5329 N   0  0  0  0  0  0  0  0  0  0  0  0
   10.1443  -16.6185   26.7588 C   0  0  0  0  0  0  0  0  0  0  0  0
    9.9312  -15.3880   27.0414 O   0  0  0  0  0  0  0  0  0  0  0  0
   10.2580  -17.4452   27.8596 O   0  0  0  0  0  0  0  0  0  0  0  0
  2  1  1  6
  2  4  1  0
  2  3  1  0
  4  6  1  0
  4  5  1  6
  6  7  2  0
  9  8  1  0
  9 19  2  0
 10  9  1  0
 11 10  2  0
 11 12  1  0
 12 18  2  0
 13 12  1  0
 14 13  1  1
 14 16  1  0
 15 14  1  0
 15  6  1  0
 16 17  2  0
 18 19  1  0
 20 21  1  0
 21 22  2  0
 23 21  1  0
 23 24  1  0
 25 24  1  6
 25 27  1  0
 26 16  1  0
 26 25  1  0
 27 28  2  0
 27 29  1  0
M  END
$$$$
