TYQ.pdb
     RDKit          3D

 29 29  0  0  1  0  0  0  0  0999 V2000
    3.5932  -19.6306   21.9078 C   0  0  0  0  0  0  0  0  0  0  0  0
    4.9991  -19.1646   22.2365 C   0  0  1  0  0  0  0  0  0  0  0  0
    5.8257  -20.2308   22.5641 O   0  0  0  0  0  0  0  0  0  0  0  0
    5.5745  -18.2956   21.1598 C   0  0  2  0  0  0  0  0  0  0  0  0
    5.6549  -19.1158   19.9453 N   0  0  0  0  0  0  0  0  0  0  0  0
    6.9063  -17.7425   21.4902 C   0  0  0  0  0  0  0  0  0  0  0  0
    7.9871  -18.3107   21.1136 O   0  0  0  0  0  0  0  0  0  0  0  0
    7.8275  -12.2217   17.3569 O   0  0  0  0  0  0  0  0  0  0  0  0
    7.9104  -12.7804   18.6207 C   0  0  0  0  0  0  0  0  0  0  0  0
    6.8092  -12.8777   19.4388 C   0  0  0  0  0  0  0  0  0  0  0  0
    6.9156  -13.4467   20.7138 C   0  0  0  0  0  0  0  0  0  0  0  0
    8.1185  -13.9223   21.1819 C   0  0  0  0  0  0  0  0  0  0  0  0
    8.2242  -14.5113   22.5107 C   0  0  0  0  0  0  0  0  0  0  0  0
    8.4040  -16.0156   22.5240 C   0  0  2  0  0  0  0  0  0  0  0  0
    7.0695  -16.5613   22.2366 N   0  0  0  0  0  0  0  0  0  0  0  0
    8.9369  -16.5412   23.7855 C   0  0  0  0  0  0  0  0  0  0  0  0
    8.2260  -16.4972   24.8223 O   0  0  0  0  0  0  0  0  0  0  0  0
    9.2108  -13.8188   20.3541 C   0  0  0  0  0  0  0  0  0  0  0  0
    9.1134  -13.2538   19.0837 C   0  0  0  0  0  0  0  0  0  0  0  0
    9.9762  -20.9551   25.9974 N   0  0  0  0  0  0  0  0  0  0  0  0
   11.1471  -20.6283   26.7226 C   0  0  0  0  0  0  0  0  0  0  0  0
   11.4883  -21.2448   27.7448 O   0  0  0  0  0  0  0  0  0  0  0  0
   11.9766  -19.4874   26.2000 C   0  0  0  0  0  0  0  0  0  0  0  0
   11.3885  -18.9418   24.9296 C   0  0  0  0  0  0  0  0  0  0  0  0
   10.6686  -17.6644   25.1665 C   0  0  2  0  0  0  0  0  0  0  0  0
   10.2211  -17.0949   23.8756 N   0  0  0  0  0  0  0  0  0  0  0  0
   11.5289  -16.6492   25.7982 C   0  0  0  0  0  0  0  0  0  0  0  0
   11.5047  -16.4944   27.0690 O   0  0  0  0  0  0  0  0  0  0  0  0
   12.4027  -15.8078   25.1376 O   0  0  0  0  0  0  0  0  0  0  0  0
  2  1  1  6
  2  4  1  0
  2  3  1  0
  4  6  1  0
  4  5  1  6
  6  7  2  0
  9  8  1  0
  9 19  2  0
 10  9  1  0
 11 10  2  0
 11 12  1  0
 12 18  2  0
 13 12  1  0
 14 13  1  1
 14 16  1  0
 15 14  1  0
 15  6  1  0
 16 17  2  0
 18 19  1  0
 20 21  1  0
 21 22  2  0
 23 21  1  0
 23 24  1  0
 25 24  1  6
 25 27  1  0
 26 16  1  0
 26 25  1  0
 27 28  2  0
 27 29  1  0
M  END
$$$$
