TRF.pdb
     RDKit          3D

 30 30  0  0  1  0  0  0  0  0999 V2000
    8.7790  -12.3907   20.6627 C   0  0  0  0  0  0  0  0  0  0  0  0
    7.9542  -13.0913   19.6049 C   0  0  1  0  0  0  0  0  0  0  0  0
    8.2076  -12.4290   18.4045 O   0  0  0  0  0  0  0  0  0  0  0  0
    8.2979  -14.5447   19.4984 C   0  0  2  0  0  0  0  0  0  0  0  0
    7.6274  -15.0696   18.3337 N   0  0  0  0  0  0  0  0  0  0  0  0
    7.9345  -15.3022   20.7335 C   0  0  0  0  0  0  0  0  0  0  0  0
    6.7225  -15.5559   20.9328 O   0  0  0  0  0  0  0  0  0  0  0  0
   13.1641  -18.4051   22.6158 N   0  0  0  0  0  0  0  0  0  0  0  0
   13.1230  -18.9930   21.3226 C   0  0  0  0  0  0  0  0  0  0  0  0
   14.1405  -18.8788   20.5252 N   0  0  0  0  0  0  0  0  0  0  0  0
   11.9476  -19.6956   20.9481 N   0  0  0  0  0  0  0  0  0  0  0  0
   10.7744  -19.6321   21.7793 C   0  0  0  0  0  0  0  0  0  0  0  0
   10.4339  -18.1519   21.9489 C   0  0  0  0  0  0  0  0  0  0  0  0
    9.1471  -17.9887   22.6932 C   0  0  0  0  0  0  0  0  0  0  0  0
    8.7303  -16.5112   22.8376 C   0  0  2  0  0  0  0  0  0  0  0  0
    8.8960  -15.7354   21.6699 N   0  0  0  0  0  0  0  0  0  0  0  0
    9.2232  -16.0030   24.0949 C   0  0  0  0  0  0  0  0  0  0  0  0
   10.4024  -15.5065   24.0801 O   0  0  0  0  0  0  0  0  0  0  0  0
   14.1630  -19.3071   19.5822 N   0  0  0  0  0  0  0  0  0  0  0  0
    8.5555  -15.9929   25.3284 C   0  0  1  0  0  0  0  0  0  0  0  0
    9.2040  -15.5364   26.5468 C   0  0  0  0  0  0  0  0  0  0  0  0
    8.1612  -14.8158   27.3431 C   0  0  0  0  0  0  0  0  0  0  0  0
    7.6246  -13.5995   26.7064 C   0  0  0  0  0  0  0  0  0  0  0  0
    8.2818  -12.4067   26.6438 C   0  0  0  0  0  0  0  0  0  0  0  0
    7.6751  -11.3433   26.0147 C   0  0  0  0  0  0  0  0  0  0  0  0
    6.4258  -11.4060   25.4342 C   0  0  0  0  0  0  0  0  0  0  0  0
    5.7704  -12.6173   25.5035 C   0  0  0  0  0  0  0  0  0  0  0  0
    6.3677  -13.6877   26.1302 C   0  0  0  0  0  0  0  0  0  0  0  0
    9.8004  -16.6442   27.2936 O   0  0  0  0  0  0  0  0  0  0  0  0
   10.4026  -16.4271   28.3941 O   0  0  0  0  0  0  0  0  0  0  0  0
  2  1  1  1
  2  3  1  0
  4  2  1  0
  4  5  1  6
  6  7  2  0
  6  4  1  0
  9  8  1  0
 10  9  2  0
 11  9  1  0
 12 11  1  0
 13 12  1  0
 13 14  1  0
 15 14  1  6
 15 16  1  0
 16  6  1  0
 17 19  1  0
 17 15  1  0
 18 17  2  0
 20 19  1  0
 20 28  1  0
 21 22  1  0
 20 21  1  1
 22 23  2  0
 23 24  1  0
 25 24  2  0
 26 25  1  0
 27 22  1  0
 27 26  2  0
 28 30  1  0
 29 28  2  0
M  END
$$$$
