TRF.pdb
     RDKit          3D

 30 30  0  0  1  0  0  0  0  0999 V2000
   14.1384  -17.0420   21.0342 C   0  0  0  0  0  0  0  0  0  0  0  0
   13.5004  -16.4224   19.8098 C   0  0  1  0  0  0  0  0  0  0  0  0
   14.4323  -16.5366   18.7791 O   0  0  0  0  0  0  0  0  0  0  0  0
   12.2140  -17.0969   19.4466 C   0  0  2  0  0  0  0  0  0  0  0  0
   11.8209  -16.6190   18.1433 N   0  0  0  0  0  0  0  0  0  0  0  0
   11.1472  -16.8631   20.4659 C   0  0  0  0  0  0  0  0  0  0  0  0
   10.6734  -15.7062   20.5667 O   0  0  0  0  0  0  0  0  0  0  0  0
    5.3511  -21.7396   20.7685 N   0  0  0  0  0  0  0  0  0  0  0  0
    6.5728  -21.7655   20.0431 C   0  0  0  0  0  0  0  0  0  0  0  0
    6.5679  -21.5902   18.7572 N   0  0  0  0  0  0  0  0  0  0  0  0
    7.7730  -21.9861   20.7687 N   0  0  0  0  0  0  0  0  0  0  0  0
    8.0292  -21.2501   21.9786 C   0  0  0  0  0  0  0  0  0  0  0  0
    8.6781  -19.9303   21.5627 C   0  0  0  0  0  0  0  0  0  0  0  0
    9.0860  -19.1411   22.7656 C   0  0  0  0  0  0  0  0  0  0  0  0
    9.7673  -17.8082   22.3958 C   0  0  2  0  0  0  0  0  0  0  0  0
   10.6620  -17.8862   21.3066 N   0  0  0  0  0  0  0  0  0  0  0  0
   10.1880  -17.1424   23.6047 C   0  0  0  0  0  0  0  0  0  0  0  0
   11.1882  -16.3520   23.4954 O   0  0  0  0  0  0  0  0  0  0  0  0
    7.4322  -21.6112   18.1864 N   0  0  0  0  0  0  0  0  0  0  0  0
    9.6242  -17.2650   24.8833 C   0  0  2  0  0  0  0  0  0  0  0  0
    9.2263  -16.1021   25.6598 C   0  0  0  0  0  0  0  0  0  0  0  0
    8.2642  -15.3297   24.8123 C   0  0  0  0  0  0  0  0  0  0  0  0
    7.6818  -14.1408   25.4606 C   0  0  0  0  0  0  0  0  0  0  0  0
    6.3563  -13.8226   25.4418 C   0  0  0  0  0  0  0  0  0  0  0  0
    5.9344  -12.6850   26.0918 C   0  0  0  0  0  0  0  0  0  0  0  0
    6.7780  -11.8321   26.7719 C   0  0  0  0  0  0  0  0  0  0  0  0
    8.1164  -12.1638   26.7843 C   0  0  0  0  0  0  0  0  0  0  0  0
    8.5497  -13.2993   26.1376 C   0  0  0  0  0  0  0  0  0  0  0  0
    8.6455  -16.4808   26.9482 O   0  0  0  0  0  0  0  0  0  0  0  0
    9.1374  -16.0300   28.0324 O   0  0  0  0  0  0  0  0  0  0  0  0
  2  1  1  1
  2  3  1  0
  4  2  1  0
  4  5  1  6
  6  7  2  0
  6  4  1  0
  9  8  1  0
 10  9  2  0
 11  9  1  0
 12 11  1  0
 13 12  1  0
 13 14  1  0
 15 14  1  1
 15 16  1  0
 16  6  1  0
 17 19  1  0
 17 15  1  0
 18 17  2  0
 20 19  1  0
 20 28  1  0
 21 22  1  0
 20 21  1  6
 22 23  2  0
 23 24  1  0
 25 24  2  0
 26 25  1  0
 27 22  1  0
 27 26  2  0
 28 30  1  0
 29 28  2  0
M  END
$$$$
