TRF.pdb
     RDKit          3D

 30 30  0  0  1  0  0  0  0  0999 V2000
    4.5266  -20.6373   24.7950 C   0  0  0  0  0  0  0  0  0  0  0  0
    5.6070  -19.6051   24.5556 C   0  0  1  0  0  0  0  0  0  0  0  0
    6.6576  -19.9275   25.4136 O   0  0  0  0  0  0  0  0  0  0  0  0
    6.0638  -19.5928   23.1297 C   0  0  2  0  0  0  0  0  0  0  0  0
    6.4313  -20.9422   22.7754 N   0  0  0  0  0  0  0  0  0  0  0  0
    7.1895  -18.6366   22.9064 C   0  0  0  0  0  0  0  0  0  0  0  0
    8.3588  -19.0511   23.0909 O   0  0  0  0  0  0  0  0  0  0  0  0
    8.0434  -12.0047   17.6927 N   0  0  0  0  0  0  0  0  0  0  0  0
    8.3826  -13.3353   17.3264 C   0  0  0  0  0  0  0  0  0  0  0  0
    8.7142  -13.6067   16.1014 N   0  0  0  0  0  0  0  0  0  0  0  0
    8.3447  -14.3334   18.3354 N   0  0  0  0  0  0  0  0  0  0  0  0
    7.4965  -14.1635   19.4855 C   0  0  0  0  0  0  0  0  0  0  0  0
    8.2938  -14.6471   20.6965 C   0  0  0  0  0  0  0  0  0  0  0  0
    7.3828  -14.9351   21.8469 C   0  0  0  0  0  0  0  0  0  0  0  0
    7.8204  -16.1750   22.6522 C   0  0  2  0  0  0  0  0  0  0  0  0
    6.9837  -17.3018   22.5003 N   0  0  0  0  0  0  0  0  0  0  0  0
    8.2097  -15.7623   23.9789 C   0  0  0  0  0  0  0  0  0  0  0  0
    7.4945  -14.8488   24.5187 O   0  0  0  0  0  0  0  0  0  0  0  0
    9.0464  -14.5425   15.8060 N   0  0  0  0  0  0  0  0  0  0  0  0
    9.2821  -16.2493   24.7406 C   0  0  1  0  0  0  0  0  0  0  0  0
    9.6926  -15.6119   25.9810 C   0  0  0  0  0  0  0  0  0  0  0  0
    8.4926  -15.6032   26.8758 C   0  0  0  0  0  0  0  0  0  0  0  0
    7.7150  -14.3511   26.8592 C   0  0  0  0  0  0  0  0  0  0  0  0
    8.2306  -13.1184   27.1299 C   0  0  0  0  0  0  0  0  0  0  0  0
    7.4004  -12.0218   27.0756 C   0  0  0  0  0  0  0  0  0  0  0  0
    6.0596  -12.0890   26.7601 C   0  0  0  0  0  0  0  0  0  0  0  0
    5.5491  -13.3408   26.4881 C   0  0  0  0  0  0  0  0  0  0  0  0
    6.3702  -14.4447   26.5395 C   0  0  0  0  0  0  0  0  0  0  0  0
   10.8321  -16.2956   26.5930 O   0  0  0  0  0  0  0  0  0  0  0  0
   11.2976  -15.8966   27.7088 O   0  0  0  0  0  0  0  0  0  0  0  0
  2  1  1  6
  2  3  1  0
  4  2  1  0
  4  5  1  1
  6  7  2  0
  6  4  1  0
  9  8  1  0
 10  9  2  0
 11  9  1  0
 12 11  1  0
 13 12  1  0
 13 14  1  0
 15 14  1  1
 15 16  1  0
 16  6  1  0
 17 19  1  0
 17 15  1  0
 18 17  2  0
 20 19  1  0
 20 28  1  0
 21 22  1  0
 20 21  1  1
 22 23  2  0
 23 24  1  0
 25 24  2  0
 26 25  1  0
 27 22  1  0
 27 26  2  0
 28 30  1  0
 29 28  2  0
M  END
$$$$
