TRF.pdb
     RDKit          3D

 30 30  0  0  1  0  0  0  0  0999 V2000
    7.0194  -13.0376   18.8241 C   0  0  0  0  0  0  0  0  0  0  0  0
    7.9330  -13.9832   18.0752 C   0  0  1  0  0  0  0  0  0  0  0  0
    8.2236  -13.3692   16.8576 O   0  0  0  0  0  0  0  0  0  0  0  0
    9.1861  -14.2752   18.8410 C   0  0  2  0  0  0  0  0  0  0  0  0
   10.0489  -15.0566   17.9886 N   0  0  0  0  0  0  0  0  0  0  0  0
    8.9082  -14.9712   20.1332 C   0  0  0  0  0  0  0  0  0  0  0  0
    8.1702  -14.3926   20.9660 O   0  0  0  0  0  0  0  0  0  0  0  0
   11.0484  -20.0449   17.7827 N   0  0  0  0  0  0  0  0  0  0  0  0
   12.3324  -19.9404   18.3828 C   0  0  0  0  0  0  0  0  0  0  0  0
   13.3929  -19.8684   17.6383 N   0  0  0  0  0  0  0  0  0  0  0  0
   12.4043  -19.9182   19.8005 N   0  0  0  0  0  0  0  0  0  0  0  0
   11.2355  -20.2145   20.5861 C   0  0  0  0  0  0  0  0  0  0  0  0
   10.2905  -19.0226   20.4373 C   0  0  0  0  0  0  0  0  0  0  0  0
   10.2375  -18.2302   21.7044 C   0  0  0  0  0  0  0  0  0  0  0  0
    9.2839  -17.0224   21.6074 C   0  0  2  0  0  0  0  0  0  0  0  0
    9.4408  -16.2397   20.4431 N   0  0  0  0  0  0  0  0  0  0  0  0
    9.2209  -16.3672   22.8915 C   0  0  0  0  0  0  0  0  0  0  0  0
   10.2977  -15.8035   23.2913 O   0  0  0  0  0  0  0  0  0  0  0  0
   14.3511  -19.8383   18.0309 N   0  0  0  0  0  0  0  0  0  0  0  0
    8.1136  -16.2800   23.7481 C   0  0  1  0  0  0  0  0  0  0  0  0
    8.1332  -15.4530   24.9436 C   0  0  0  0  0  0  0  0  0  0  0  0
    7.3970  -14.1941   24.6058 C   0  0  0  0  0  0  0  0  0  0  0  0
    7.2108  -13.2625   25.7328 C   0  0  0  0  0  0  0  0  0  0  0  0
    6.0458  -13.1104   26.4244 C   0  0  0  0  0  0  0  0  0  0  0  0
    6.0003  -12.2094   27.4640 C   0  0  0  0  0  0  0  0  0  0  0  0
    7.0730  -11.4377   27.8584 C   0  0  0  0  0  0  0  0  0  0  0  0
    8.2461  -11.5999   27.1518 C   0  0  0  0  0  0  0  0  0  0  0  0
    8.3031  -12.4983   26.1102 C   0  0  0  0  0  0  0  0  0  0  0  0
    7.5469  -16.1434   26.0926 O   0  0  0  0  0  0  0  0  0  0  0  0
    7.9751  -15.9116   27.2689 O   0  0  0  0  0  0  0  0  0  0  0  0
  2  1  1  1
  2  3  1  0
  4  2  1  0
  4  5  1  6
  6  7  2  0
  6  4  1  0
  9  8  1  0
 10  9  2  0
 11  9  1  0
 12 11  1  0
 13 12  1  0
 13 14  1  0
 15 14  1  1
 15 16  1  0
 16  6  1  0
 17 19  1  0
 17 15  1  0
 18 17  2  0
 20 19  1  0
 20 28  1  0
 21 22  1  0
 20 21  1  1
 22 23  2  0
 23 24  1  0
 25 24  2  0
 26 25  1  0
 27 22  1  0
 27 26  2  0
 28 30  1  0
 29 28  2  0
M  END
$$$$
