TRF.pdb
     RDKit          3D

 30 30  0  0  1  0  0  0  0  0999 V2000
    9.5497  -12.3298   20.4427 C   0  0  0  0  0  0  0  0  0  0  0  0
    8.0986  -12.4179   20.0224 C   0  0  1  0  0  0  0  0  0  0  0  0
    7.9356  -11.5118   18.9754 O   0  0  0  0  0  0  0  0  0  0  0  0
    7.7222  -13.8031   19.5962 C   0  0  2  0  0  0  0  0  0  0  0  0
    6.3901  -13.7456   19.0452 N   0  0  0  0  0  0  0  0  0  0  0  0
    7.8137  -14.7833   20.7198 C   0  0  0  0  0  0  0  0  0  0  0  0
    6.8881  -14.7961   21.5660 O   0  0  0  0  0  0  0  0  0  0  0  0
   13.0777  -19.9746   24.0856 N   0  0  0  0  0  0  0  0  0  0  0  0
   12.1042  -21.0088   24.0341 C   0  0  0  0  0  0  0  0  0  0  0  0
   12.1031  -21.9443   24.9336 N   0  0  0  0  0  0  0  0  0  0  0  0
   11.1535  -20.9757   22.9804 N   0  0  0  0  0  0  0  0  0  0  0  0
   11.2057  -19.9280   21.9952 C   0  0  0  0  0  0  0  0  0  0  0  0
   10.2862  -18.8117   22.4896 C   0  0  0  0  0  0  0  0  0  0  0  0
   10.1573  -17.7383   21.4564 C   0  0  0  0  0  0  0  0  0  0  0  0
    9.1270  -16.6603   21.8486 C   0  0  2  0  0  0  0  0  0  0  0  0
    8.8916  -15.6822   20.8583 N   0  0  0  0  0  0  0  0  0  0  0  0
    9.3777  -16.2401   23.2060 C   0  0  0  0  0  0  0  0  0  0  0  0
   10.3644  -15.4437   23.3775 O   0  0  0  0  0  0  0  0  0  0  0  0
   11.4143  -22.7181   24.9350 N   0  0  0  0  0  0  0  0  0  0  0  0
    8.6623  -16.6066   24.3555 C   0  0  2  0  0  0  0  0  0  0  0  0
    9.0284  -16.1168   25.6744 C   0  0  0  0  0  0  0  0  0  0  0  0
    7.7557  -15.7086   26.3484 C   0  0  0  0  0  0  0  0  0  0  0  0
    7.3976  -14.2876   26.1900 C   0  0  0  0  0  0  0  0  0  0  0  0
    8.1399  -13.2468   26.6638 C   0  0  0  0  0  0  0  0  0  0  0  0
    7.7006  -11.9607   26.4457 C   0  0  0  0  0  0  0  0  0  0  0  0
    6.5402  -11.6505   25.7683 C   0  0  0  0  0  0  0  0  0  0  0  0
    5.7974  -12.7110   25.2936 C   0  0  0  0  0  0  0  0  0  0  0  0
    6.2272  -14.0015   25.5059 C   0  0  0  0  0  0  0  0  0  0  0  0
    9.7623  -17.1219   26.4438 O   0  0  0  0  0  0  0  0  0  0  0  0
    9.8797  -18.3101   26.0021 O   0  0  0  0  0  0  0  0  0  0  0  0
  2  1  1  6
  2  3  1  0
  4  2  1  0
  4  5  1  1
  6  7  2  0
  6  4  1  0
  9  8  1  0
 10  9  2  0
 11  9  1  0
 12 11  1  0
 13 12  1  0
 13 14  1  0
 15 14  1  6
 15 16  1  0
 16  6  1  0
 17 19  1  0
 17 15  1  0
 18 17  2  0
 20 19  1  0
 20 28  1  0
 21 22  1  0
 20 21  1  6
 22 23  2  0
 23 24  1  0
 25 24  2  0
 26 25  1  0
 27 22  1  0
 27 26  2  0
 28 30  1  0
 29 28  2  0
M  END
$$$$
