TRF.pdb
     RDKit          3D

 30 30  0  0  1  0  0  0  0  0999 V2000
    9.6666  -20.2864   21.7555 C   0  0  0  0  0  0  0  0  0  0  0  0
   10.6658  -20.2018   20.6222 C   0  0  1  0  0  0  0  0  0  0  0  0
   10.7185  -21.4709   20.0474 O   0  0  0  0  0  0  0  0  0  0  0  0
   10.2775  -19.1700   19.6091 C   0  0  2  0  0  0  0  0  0  0  0  0
   11.1747  -19.2981   18.4865 N   0  0  0  0  0  0  0  0  0  0  0  0
   10.2954  -17.7881   20.1760 C   0  0  0  0  0  0  0  0  0  0  0  0
   11.4100  -17.2502   20.3795 O   0  0  0  0  0  0  0  0  0  0  0  0
    7.9612  -15.2703   16.7220 N   0  0  0  0  0  0  0  0  0  0  0  0
    8.1028  -13.8837   16.4447 C   0  0  0  0  0  0  0  0  0  0  0  0
    8.5446  -13.4950   15.2879 N   0  0  0  0  0  0  0  0  0  0  0  0
    7.7479  -12.9615   17.4641 N   0  0  0  0  0  0  0  0  0  0  0  0
    7.2584  -13.4400   18.7301 C   0  0  0  0  0  0  0  0  0  0  0  0
    8.3395  -14.3558   19.3031 C   0  0  0  0  0  0  0  0  0  0  0  0
    7.9183  -14.9033   20.6294 C   0  0  0  0  0  0  0  0  0  0  0  0
    8.9513  -15.8839   21.2198 C   0  0  2  0  0  0  0  0  0  0  0  0
    9.1168  -17.0783   20.4857 N   0  0  0  0  0  0  0  0  0  0  0  0
    8.7684  -15.9572   22.6492 C   0  0  0  0  0  0  0  0  0  0  0  0
    7.7347  -16.5931   23.0545 O   0  0  0  0  0  0  0  0  0  0  0  0
    8.6095  -12.4962   15.0207 N   0  0  0  0  0  0  0  0  0  0  0  0
    9.5953  -15.4101   23.6414 C   0  0  2  0  0  0  0  0  0  0  0  0
    9.0492  -14.7853   24.8351 C   0  0  0  0  0  0  0  0  0  0  0  0
    8.1135  -13.7142   24.3682 C   0  0  0  0  0  0  0  0  0  0  0  0
    7.4336  -12.9714   25.4447 C   0  0  0  0  0  0  0  0  0  0  0  0
    6.1810  -13.2517   25.9043 C   0  0  0  0  0  0  0  0  0  0  0  0
    5.6572  -12.4864   26.9213 C   0  0  0  0  0  0  0  0  0  0  0  0
    6.3268  -11.4376   27.5158 C   0  0  0  0  0  0  0  0  0  0  0  0
    7.5929  -11.1632   27.0430 C   0  0  0  0  0  0  0  0  0  0  0  0
    8.1269  -11.9222   26.0261 C   0  0  0  0  0  0  0  0  0  0  0  0
    8.3851  -15.7580   25.7031 O   0  0  0  0  0  0  0  0  0  0  0  0
    7.4641  -16.5069   25.2429 O   0  0  0  0  0  0  0  0  0  0  0  0
  2  1  1  1
  2  3  1  0
  4  2  1  0
  4  5  1  6
  6  7  2  0
  6  4  1  0
  9  8  1  0
 10  9  2  0
 11  9  1  0
 12 11  1  0
 13 12  1  0
 13 14  1  0
 15 14  1  6
 15 16  1  0
 16  6  1  0
 17 19  1  0
 17 15  1  0
 18 17  2  0
 20 19  1  0
 20 28  1  0
 21 22  1  0
 20 21  1  1
 22 23  2  0
 23 24  1  0
 25 24  2  0
 26 25  1  0
 27 22  1  0
 27 26  2  0
 28 30  1  0
 29 28  2  0
M  END
$$$$
