TRF.pdb
     RDKit          3D

 30 30  0  0  1  0  0  0  0  0999 V2000
    9.0814  -13.4482   17.6636 C   0  0  0  0  0  0  0  0  0  0  0  0
    8.8864  -14.3080   18.8935 C   0  0  1  0  0  0  0  0  0  0  0  0
   10.0541  -14.1901   19.6462 O   0  0  0  0  0  0  0  0  0  0  0  0
    7.6908  -13.8844   19.6891 C   0  0  2  0  0  0  0  0  0  0  0  0
    7.7776  -12.4577   19.8853 N   0  0  0  0  0  0  0  0  0  0  0  0
    7.5895  -14.6157   20.9877 C   0  0  0  0  0  0  0  0  0  0  0  0
    7.5203  -13.9379   22.0407 O   0  0  0  0  0  0  0  0  0  0  0  0
    4.6033  -20.6843   24.1026 N   0  0  0  0  0  0  0  0  0  0  0  0
    5.7952  -21.1057   24.7517 C   0  0  0  0  0  0  0  0  0  0  0  0
    5.8323  -21.1957   26.0459 N   0  0  0  0  0  0  0  0  0  0  0  0
    6.9190  -21.4178   23.9424 N   0  0  0  0  0  0  0  0  0  0  0  0
    7.1530  -20.6904   22.7228 C   0  0  0  0  0  0  0  0  0  0  0  0
    7.2045  -19.2091   23.0960 C   0  0  0  0  0  0  0  0  0  0  0  0
    7.4739  -18.3700   21.8878 C   0  0  0  0  0  0  0  0  0  0  0  0
    7.4463  -16.8599   22.1981 C   0  0  2  0  0  0  0  0  0  0  0  0
    7.5694  -16.0237   21.0675 N   0  0  0  0  0  0  0  0  0  0  0  0
    8.2674  -16.6015   23.3562 C   0  0  0  0  0  0  0  0  0  0  0  0
    9.5284  -16.5325   23.1504 O   0  0  0  0  0  0  0  0  0  0  0  0
    6.6724  -21.5163   26.5605 N   0  0  0  0  0  0  0  0  0  0  0  0
    7.8384  -16.4184   24.6790 C   0  0  2  0  0  0  0  0  0  0  0  0
    8.7578  -16.0288   25.7356 C   0  0  0  0  0  0  0  0  0  0  0  0
    7.9538  -15.2703   26.7451 C   0  0  0  0  0  0  0  0  0  0  0  0
    7.5341  -13.9231   26.3188 C   0  0  0  0  0  0  0  0  0  0  0  0
    8.3833  -12.8732   26.1308 C   0  0  0  0  0  0  0  0  0  0  0  0
    7.8680  -11.6633   25.7245 C   0  0  0  0  0  0  0  0  0  0  0  0
    6.5275  -11.4393   25.4914 C   0  0  0  0  0  0  0  0  0  0  0  0
    5.6778  -12.5082   25.6848 C   0  0  0  0  0  0  0  0  0  0  0  0
    6.1822  -13.7230   26.0910 C   0  0  0  0  0  0  0  0  0  0  0  0
    9.4320  -17.1861   26.3244 O   0  0  0  0  0  0  0  0  0  0  0  0
    9.1508  -18.3634   25.9299 O   0  0  0  0  0  0  0  0  0  0  0  0
  2  1  1  6
  2  3  1  0
  4  2  1  0
  4  5  1  1
  6  7  2  0
  6  4  1  0
  9  8  1  0
 10  9  2  0
 11  9  1  0
 12 11  1  0
 13 12  1  0
 13 14  1  0
 15 14  1  6
 15 16  1  0
 16  6  1  0
 17 19  1  0
 17 15  1  0
 18 17  2  0
 20 19  1  0
 20 28  1  0
 21 22  1  0
 20 21  1  6
 22 23  2  0
 23 24  1  0
 25 24  2  0
 26 25  1  0
 27 22  1  0
 27 26  2  0
 28 30  1  0
 29 28  2  0
M  END
$$$$
