TRF.pdb
     RDKit          3D

 30 30  0  0  1  0  0  0  0  0999 V2000
    8.7594  -12.6307   19.5835 C   0  0  0  0  0  0  0  0  0  0  0  0
    8.1713  -13.3837   18.4100 C   0  0  1  0  0  0  0  0  0  0  0  0
    8.4077  -12.6009   17.2807 O   0  0  0  0  0  0  0  0  0  0  0  0
    8.7784  -14.7437   18.2562 C   0  0  2  0  0  0  0  0  0  0  0  0
    8.2252  -15.3387   17.0639 N   0  0  0  0  0  0  0  0  0  0  0  0
    8.5521  -15.6016   19.4580 C   0  0  0  0  0  0  0  0  0  0  0  0
    7.3683  -15.8203   19.8102 O   0  0  0  0  0  0  0  0  0  0  0  0
   13.0990  -22.0620   22.8916 N   0  0  0  0  0  0  0  0  0  0  0  0
   12.2962  -21.6781   21.7836 C   0  0  0  0  0  0  0  0  0  0  0  0
   12.2724  -22.4126   20.7139 N   0  0  0  0  0  0  0  0  0  0  0  0
   11.5374  -20.4833   21.8940 N   0  0  0  0  0  0  0  0  0  0  0  0
   11.6290  -19.6788   23.0838 C   0  0  0  0  0  0  0  0  0  0  0  0
   10.5648  -18.5886   22.9617 C   0  0  0  0  0  0  0  0  0  0  0  0
   10.6640  -17.9007   21.6375 C   0  0  0  0  0  0  0  0  0  0  0  0
    9.5874  -16.8122   21.4541 C   0  0  2  0  0  0  0  0  0  0  0  0
    9.6109  -16.1658   20.1994 N   0  0  0  0  0  0  0  0  0  0  0  0
    9.5141  -16.0148   22.6544 C   0  0  0  0  0  0  0  0  0  0  0  0
   10.4757  -15.1927   22.8459 O   0  0  0  0  0  0  0  0  0  0  0  0
   11.6929  -22.1789   19.8876 N   0  0  0  0  0  0  0  0  0  0  0  0
    8.5087  -16.0405   23.6322 C   0  0  2  0  0  0  0  0  0  0  0  0
    8.5156  -15.1260   24.7623 C   0  0  0  0  0  0  0  0  0  0  0  0
    7.3365  -14.2204   24.5879 C   0  0  0  0  0  0  0  0  0  0  0  0
    7.1278  -13.2553   25.6824 C   0  0  0  0  0  0  0  0  0  0  0  0
    8.0285  -12.3010   26.0524 C   0  0  0  0  0  0  0  0  0  0  0  0
    7.7129  -11.4529   27.0896 C   0  0  0  0  0  0  0  0  0  0  0  0
    6.5265  -11.5057   27.7905 C   0  0  0  0  0  0  0  0  0  0  0  0
    5.6231  -12.4747   27.4075 C   0  0  0  0  0  0  0  0  0  0  0  0
    5.9281  -13.3285   26.3715 C   0  0  0  0  0  0  0  0  0  0  0  0
    8.4795  -15.8389   26.0395 O   0  0  0  0  0  0  0  0  0  0  0  0
    9.2699  -15.5102   26.9818 O   0  0  0  0  0  0  0  0  0  0  0  0
  2  1  1  1
  2  3  1  0
  4  2  1  0
  4  5  1  6
  6  7  2  0
  6  4  1  0
  9  8  1  0
 10  9  2  0
 11  9  1  0
 12 11  1  0
 13 12  1  0
 13 14  1  0
 15 14  1  1
 15 16  1  0
 16  6  1  0
 17 19  1  0
 17 15  1  0
 18 17  2  0
 20 19  1  0
 20 28  1  0
 21 22  1  0
 20 21  1  6
 22 23  2  0
 23 24  1  0
 25 24  2  0
 26 25  1  0
 27 22  1  0
 27 26  2  0
 28 30  1  0
 29 28  2  0
M  END
$$$$
