TRF.pdb
     RDKit          3D

 30 30  0  0  1  0  0  0  0  0999 V2000
    5.2461  -21.1556   24.4957 C   0  0  0  0  0  0  0  0  0  0  0  0
    6.1330  -20.0051   24.0715 C   0  0  1  0  0  0  0  0  0  0  0  0
    7.4467  -20.4210   24.2836 O   0  0  0  0  0  0  0  0  0  0  0  0
    5.9145  -19.6284   22.6389 C   0  0  2  0  0  0  0  0  0  0  0  0
    6.0018  -20.8334   21.8503 N   0  0  0  0  0  0  0  0  0  0  0  0
    6.8848  -18.5921   22.1740 C   0  0  0  0  0  0  0  0  0  0  0  0
    7.0669  -18.4686   20.9393 O   0  0  0  0  0  0  0  0  0  0  0  0
    8.5304  -12.1780   18.0200 N   0  0  0  0  0  0  0  0  0  0  0  0
    8.4337  -13.5928   17.9269 C   0  0  0  0  0  0  0  0  0  0  0  0
    8.5407  -14.1760   16.7725 N   0  0  0  0  0  0  0  0  0  0  0  0
    8.2203  -14.3253   19.1241 N   0  0  0  0  0  0  0  0  0  0  0  0
    8.0796  -13.6323   20.3775 C   0  0  0  0  0  0  0  0  0  0  0  0
    8.7124  -14.5224   21.4468 C   0  0  0  0  0  0  0  0  0  0  0  0
    7.7422  -15.5624   21.9089 C   0  0  0  0  0  0  0  0  0  0  0  0
    8.4037  -16.6357   22.7966 C   0  0  2  0  0  0  0  0  0  0  0  0
    7.5929  -17.7596   23.0654 N   0  0  0  0  0  0  0  0  0  0  0  0
    9.0905  -15.9874   23.8875 C   0  0  0  0  0  0  0  0  0  0  0  0
    9.9015  -15.0510   23.5674 O   0  0  0  0  0  0  0  0  0  0  0  0
    8.5744  -15.2061   16.6672 N   0  0  0  0  0  0  0  0  0  0  0  0
    8.9686  -16.2689   25.2563 C   0  0  1  0  0  0  0  0  0  0  0  0
    9.9408  -15.7918   26.2261 C   0  0  0  0  0  0  0  0  0  0  0  0
    9.8436  -14.2981   26.2309 C   0  0  0  0  0  0  0  0  0  0  0  0
    8.5065  -13.7641   26.5469 C   0  0  0  0  0  0  0  0  0  0  0  0
    7.3445  -14.4648   26.4153 C   0  0  0  0  0  0  0  0  0  0  0  0
    6.1567  -13.8551   26.7497 C   0  0  0  0  0  0  0  0  0  0  0  0
    6.0631  -12.5609   27.2168 C   0  0  0  0  0  0  0  0  0  0  0  0
    7.2447  -11.8618   27.3459 C   0  0  0  0  0  0  0  0  0  0  0  0
    8.4386  -12.4616   27.0144 C   0  0  0  0  0  0  0  0  0  0  0  0
    9.7116  -16.3638   27.5531 O   0  0  0  0  0  0  0  0  0  0  0  0
   10.4253  -15.9993   28.5423 O   0  0  0  0  0  0  0  0  0  0  0  0
  2  1  1  6
  2  3  1  0
  4  2  1  0
  4  5  1  6
  6  7  2  0
  6  4  1  0
  9  8  1  0
 10  9  2  0
 11  9  1  0
 12 11  1  0
 13 12  1  0
 13 14  1  0
 15 14  1  1
 15 16  1  0
 16  6  1  0
 17 19  1  0
 17 15  1  0
 18 17  2  0
 20 19  1  0
 20 28  1  0
 21 22  1  0
 20 21  1  6
 22 23  2  0
 23 24  1  0
 25 24  2  0
 26 25  1  0
 27 22  1  0
 27 26  2  0
 28 30  1  0
 29 28  2  0
M  END
$$$$
