TRF.pdb
     RDKit          3D

 30 30  0  0  1  0  0  0  0  0999 V2000
    9.6082  -12.3005   20.8395 C   0  0  0  0  0  0  0  0  0  0  0  0
    8.3204  -12.4063   20.0519 C   0  0  1  0  0  0  0  0  0  0  0  0
    8.4240  -11.4942   19.0025 O   0  0  0  0  0  0  0  0  0  0  0  0
    8.0917  -13.7932   19.5361 C   0  0  2  0  0  0  0  0  0  0  0  0
    6.9924  -13.7385   18.6033 N   0  0  0  0  0  0  0  0  0  0  0  0
    7.8339  -14.7691   20.6374 C   0  0  0  0  0  0  0  0  0  0  0  0
    6.7160  -14.7338   21.2050 O   0  0  0  0  0  0  0  0  0  0  0  0
   12.5996  -19.4063   18.5968 N   0  0  0  0  0  0  0  0  0  0  0  0
   11.2200  -19.5958   18.8804 C   0  0  0  0  0  0  0  0  0  0  0  0
   10.3523  -19.5898   17.9154 N   0  0  0  0  0  0  0  0  0  0  0  0
   10.8394  -19.7881   20.2345 N   0  0  0  0  0  0  0  0  0  0  0  0
    9.4665  -20.0659   20.5647 C   0  0  0  0  0  0  0  0  0  0  0  0
    8.7822  -18.7158   20.7769 C   0  0  0  0  0  0  0  0  0  0  0  0
    9.4291  -17.9672   21.8983 C   0  0  0  0  0  0  0  0  0  0  0  0
    8.7675  -16.5984   22.1553 C   0  0  2  0  0  0  0  0  0  0  0  0
    8.7928  -15.7156   21.0540 N   0  0  0  0  0  0  0  0  0  0  0  0
    9.1728  -16.1151   23.4530 C   0  0  0  0  0  0  0  0  0  0  0  0
   10.2582  -15.4386   23.4899 O   0  0  0  0  0  0  0  0  0  0  0  0
    9.3444  -19.7743   18.0682 N   0  0  0  0  0  0  0  0  0  0  0  0
    8.5114  -16.3040   24.6754 C   0  0  1  0  0  0  0  0  0  0  0  0
    9.0991  -15.8849   25.9373 C   0  0  0  0  0  0  0  0  0  0  0  0
    7.9848  -15.3213   26.7627 C   0  0  0  0  0  0  0  0  0  0  0  0
    7.5451  -13.9698   26.3718 C   0  0  0  0  0  0  0  0  0  0  0  0
    8.3536  -12.8723   26.3454 C   0  0  0  0  0  0  0  0  0  0  0  0
    7.8240  -11.6633   25.9552 C   0  0  0  0  0  0  0  0  0  0  0  0
    6.5080  -11.4859   25.5832 C   0  0  0  0  0  0  0  0  0  0  0  0
    5.6996  -12.6027   25.6136 C   0  0  0  0  0  0  0  0  0  0  0  0
    6.2186  -13.8172   26.0022 C   0  0  0  0  0  0  0  0  0  0  0  0
    9.7821  -16.9886   26.6127 O   0  0  0  0  0  0  0  0  0  0  0  0
    9.7074  -18.1714   26.1479 O   0  0  0  0  0  0  0  0  0  0  0  0
  2  1  1  6
  2  3  1  0
  4  2  1  0
  4  5  1  6
  6  7  2  0
  6  4  1  0
  9  8  1  0
 10  9  2  0
 11  9  1  0
 12 11  1  0
 13 12  1  0
 13 14  1  0
 15 14  1  6
 15 16  1  0
 16  6  1  0
 17 19  1  0
 17 15  1  0
 18 17  2  0
 20 19  1  0
 20 28  1  0
 21 22  1  0
 20 21  1  6
 22 23  2  0
 23 24  1  0
 25 24  2  0
 26 25  1  0
 27 22  1  0
 27 26  2  0
 28 30  1  0
 29 28  2  0
M  END
$$$$
