TRF.pdb
     RDKit          3D

 30 30  0  0  1  0  0  0  0  0999 V2000
   11.1139  -13.3437   17.7670 C   0  0  0  0  0  0  0  0  0  0  0  0
   10.5218  -13.9664   19.0126 C   0  0  1  0  0  0  0  0  0  0  0  0
   10.9894  -13.2147   20.0897 O   0  0  0  0  0  0  0  0  0  0  0  0
    9.0250  -13.9772   18.9761 C   0  0  2  0  0  0  0  0  0  0  0  0
    8.5842  -12.6388   18.6664 N   0  0  0  0  0  0  0  0  0  0  0  0
    8.4332  -14.4718   20.2554 C   0  0  0  0  0  0  0  0  0  0  0  0
    7.9711  -13.6244   21.0562 O   0  0  0  0  0  0  0  0  0  0  0  0
    9.6249  -19.8778   18.5135 N   0  0  0  0  0  0  0  0  0  0  0  0
    8.3487  -20.2577   18.0172 C   0  0  0  0  0  0  0  0  0  0  0  0
    8.1951  -20.5214   16.7557 N   0  0  0  0  0  0  0  0  0  0  0  0
    7.2722  -20.3354   18.9395 N   0  0  0  0  0  0  0  0  0  0  0  0
    7.4770  -19.9764   20.3180 C   0  0  0  0  0  0  0  0  0  0  0  0
    7.7891  -18.4804   20.3422 C   0  0  0  0  0  0  0  0  0  0  0  0
    7.8684  -17.9810   21.7496 C   0  0  0  0  0  0  0  0  0  0  0  0
    8.0898  -16.4569   21.8250 C   0  0  2  0  0  0  0  0  0  0  0  0
    8.3776  -15.8414   20.5876 N   0  0  0  0  0  0  0  0  0  0  0  0
    8.9169  -16.1567   22.9685 C   0  0  0  0  0  0  0  0  0  0  0  0
   10.0269  -15.5691   22.7240 O   0  0  0  0  0  0  0  0  0  0  0  0
    7.2954  -20.8460   16.3576 N   0  0  0  0  0  0  0  0  0  0  0  0
    8.6405  -16.4368   24.3149 C   0  0  1  0  0  0  0  0  0  0  0  0
    9.4889  -15.9471   25.3891 C   0  0  0  0  0  0  0  0  0  0  0  0
    9.5240  -14.4560   25.2615 C   0  0  0  0  0  0  0  0  0  0  0  0
    8.3383  -13.7595   25.7924 C   0  0  0  0  0  0  0  0  0  0  0  0
    8.1971  -13.3516   27.0856 C   0  0  0  0  0  0  0  0  0  0  0  0
    7.0411  -12.7039   27.4580 C   0  0  0  0  0  0  0  0  0  0  0  0
    5.9994  -12.4360   26.5951 C   0  0  0  0  0  0  0  0  0  0  0  0
    6.1531  -12.8531   25.2897 C   0  0  0  0  0  0  0  0  0  0  0  0
    7.3051  -13.5019   24.9060 C   0  0  0  0  0  0  0  0  0  0  0  0
    9.0072  -16.3771   26.7020 O   0  0  0  0  0  0  0  0  0  0  0  0
    7.8893  -16.9762   26.8120 O   0  0  0  0  0  0  0  0  0  0  0  0
  2  1  1  6
  2  3  1  0
  4  2  1  0
  4  5  1  1
  6  7  2  0
  6  4  1  0
  9  8  1  0
 10  9  2  0
 11  9  1  0
 12 11  1  0
 13 12  1  0
 13 14  1  0
 15 14  1  6
 15 16  1  0
 16  6  1  0
 17 19  1  0
 17 15  1  0
 18 17  2  0
 20 19  1  0
 20 28  1  0
 21 22  1  0
 20 21  1  6
 22 23  2  0
 23 24  1  0
 25 24  2  0
 26 25  1  0
 27 22  1  0
 27 26  2  0
 28 30  1  0
 29 28  2  0
M  END
$$$$
