TRF.pdb
     RDKit          3D

 30 30  0  0  1  0  0  0  0  0999 V2000
    9.4981  -12.3633   20.2588 C   0  0  0  0  0  0  0  0  0  0  0  0
    8.5979  -12.7975   19.1226 C   0  0  1  0  0  0  0  0  0  0  0  0
    8.9863  -12.0572   18.0068 O   0  0  0  0  0  0  0  0  0  0  0  0
    8.7036  -14.2668   18.8545 C   0  0  2  0  0  0  0  0  0  0  0  0
    7.8979  -14.5600   17.6942 N   0  0  0  0  0  0  0  0  0  0  0  0
    8.2928  -15.0863   20.0339 C   0  0  0  0  0  0  0  0  0  0  0  0
    7.0696  -15.1614   20.3008 O   0  0  0  0  0  0  0  0  0  0  0  0
    7.7650  -20.1023   18.0938 N   0  0  0  0  0  0  0  0  0  0  0  0
    9.1685  -19.9736   17.9118 C   0  0  0  0  0  0  0  0  0  0  0  0
    9.6432  -19.6140   16.7587 N   0  0  0  0  0  0  0  0  0  0  0  0
   10.0113  -20.2488   19.0207 N   0  0  0  0  0  0  0  0  0  0  0  0
    9.5632  -19.9558   20.3566 C   0  0  0  0  0  0  0  0  0  0  0  0
    9.5468  -18.4336   20.4922 C   0  0  0  0  0  0  0  0  0  0  0  0
    9.1479  -18.0317   21.8763 C   0  0  0  0  0  0  0  0  0  0  0  0
    9.0121  -16.5038   22.0328 C   0  0  2  0  0  0  0  0  0  0  0  0
    9.2222  -15.7689   20.8459 N   0  0  0  0  0  0  0  0  0  0  0  0
    9.6828  -16.0923   23.2423 C   0  0  0  0  0  0  0  0  0  0  0  0
   10.9308  -15.8312   23.1352 O   0  0  0  0  0  0  0  0  0  0  0  0
   10.6548  -19.4657   16.5918 N   0  0  0  0  0  0  0  0  0  0  0  0
    9.1206  -15.9473   24.5191 C   0  0  1  0  0  0  0  0  0  0  0  0
    9.9148  -15.5302   25.6631 C   0  0  0  0  0  0  0  0  0  0  0  0
    9.7720  -14.0436   25.7647 C   0  0  0  0  0  0  0  0  0  0  0  0
    8.3962  -13.5664   25.9934 C   0  0  0  0  0  0  0  0  0  0  0  0
    7.9077  -13.1693   27.2027 C   0  0  0  0  0  0  0  0  0  0  0  0
    6.6035  -12.7373   27.2858 C   0  0  0  0  0  0  0  0  0  0  0  0
    5.7443  -12.6787   26.2088 C   0  0  0  0  0  0  0  0  0  0  0  0
    6.2491  -13.0827   24.9907 C   0  0  0  0  0  0  0  0  0  0  0  0
    7.5521  -13.5166   24.8959 C   0  0  0  0  0  0  0  0  0  0  0  0
    9.4995  -16.2094   26.8906 O   0  0  0  0  0  0  0  0  0  0  0  0
   10.0824  -15.9565   27.9939 O   0  0  0  0  0  0  0  0  0  0  0  0
  2  1  1  1
  2  3  1  0
  4  2  1  0
  4  5  1  6
  6  7  2  0
  6  4  1  0
  9  8  1  0
 10  9  2  0
 11  9  1  0
 12 11  1  0
 13 12  1  0
 13 14  1  0
 15 14  1  6
 15 16  1  0
 16  6  1  0
 17 19  1  0
 17 15  1  0
 18 17  2  0
 20 19  1  0
 20 28  1  0
 21 22  1  0
 20 21  1  6
 22 23  2  0
 23 24  1  0
 25 24  2  0
 26 25  1  0
 27 22  1  0
 27 26  2  0
 28 30  1  0
 29 28  2  0
M  END
$$$$
