TRF.pdb
     RDKit          3D

 30 30  0  0  1  0  0  0  0  0999 V2000
    9.3220  -13.3436   18.1448 C   0  0  0  0  0  0  0  0  0  0  0  0
    9.0539  -14.0078   19.4778 C   0  0  1  0  0  0  0  0  0  0  0  0
    9.7144  -13.2438   20.4390 O   0  0  0  0  0  0  0  0  0  0  0  0
    7.5891  -14.0945   19.7757 C   0  0  2  0  0  0  0  0  0  0  0  0
    7.0399  -12.7648   19.6670 N   0  0  0  0  0  0  0  0  0  0  0  0
    7.3210  -14.6951   21.1170 C   0  0  0  0  0  0  0  0  0  0  0  0
    7.1131  -13.9175   22.0788 O   0  0  0  0  0  0  0  0  0  0  0  0
    8.2310  -20.5219   25.2797 N   0  0  0  0  0  0  0  0  0  0  0  0
    6.9103  -20.6736   25.7821 C   0  0  0  0  0  0  0  0  0  0  0  0
    6.7022  -20.7009   27.0628 N   0  0  0  0  0  0  0  0  0  0  0  0
    5.8511  -20.7911   24.8441 N   0  0  0  0  0  0  0  0  0  0  0  0
    5.9640  -20.1745   23.5486 C   0  0  0  0  0  0  0  0  0  0  0  0
    6.9990  -19.0576   23.6807 C   0  0  0  0  0  0  0  0  0  0  0  0
    7.1722  -18.3425   22.3787 C   0  0  0  0  0  0  0  0  0  0  0  0
    7.1841  -16.8095   22.5427 C   0  0  2  0  0  0  0  0  0  0  0  0
    7.2941  -16.0884   21.3342 N   0  0  0  0  0  0  0  0  0  0  0  0
    8.0409  -16.4604   23.6500 C   0  0  0  0  0  0  0  0  0  0  0  0
    9.2907  -16.3707   23.3905 O   0  0  0  0  0  0  0  0  0  0  0  0
    5.7522  -20.7364   27.4745 N   0  0  0  0  0  0  0  0  0  0  0  0
    7.6575  -16.2093   24.9757 C   0  0  2  0  0  0  0  0  0  0  0  0
    8.6105  -15.7579   25.9764 C   0  0  0  0  0  0  0  0  0  0  0  0
    7.8517  -14.8870   26.9285 C   0  0  0  0  0  0  0  0  0  0  0  0
    7.4532  -13.5752   26.3869 C   0  0  0  0  0  0  0  0  0  0  0  0
    6.1843  -13.0779   26.4239 C   0  0  0  0  0  0  0  0  0  0  0  0
    5.9400  -11.8337   25.8882 C   0  0  0  0  0  0  0  0  0  0  0  0
    6.9100  -11.0442   25.3072 C   0  0  0  0  0  0  0  0  0  0  0  0
    8.1896  -11.5573   25.2755 C   0  0  0  0  0  0  0  0  0  0  0  0
    8.4455  -12.8006   25.8083 C   0  0  0  0  0  0  0  0  0  0  0  0
    9.2608  -16.8798   26.6538 O   0  0  0  0  0  0  0  0  0  0  0  0
   10.1253  -16.6675   27.5640 O   0  0  0  0  0  0  0  0  0  0  0  0
  2  1  1  6
  2  3  1  0
  4  2  1  0
  4  5  1  1
  6  7  2  0
  6  4  1  0
  9  8  1  0
 10  9  2  0
 11  9  1  0
 12 11  1  0
 13 12  1  0
 13 14  1  0
 15 14  1  6
 15 16  1  0
 16  6  1  0
 17 19  1  0
 17 15  1  0
 18 17  2  0
 20 19  1  0
 20 28  1  0
 21 22  1  0
 20 21  1  6
 22 23  2  0
 23 24  1  0
 25 24  2  0
 26 25  1  0
 27 22  1  0
 27 26  2  0
 28 30  1  0
 29 28  2  0
M  END
$$$$
