TRF.pdb
     RDKit          3D

 30 30  0  0  1  0  0  0  0  0999 V2000
    8.8200  -12.5089   19.9338 C   0  0  0  0  0  0  0  0  0  0  0  0
    7.9235  -13.3005   19.0067 C   0  0  1  0  0  0  0  0  0  0  0  0
    7.8065  -12.5515   17.8366 O   0  0  0  0  0  0  0  0  0  0  0  0
    8.4775  -14.6614   18.7189 C   0  0  2  0  0  0  0  0  0  0  0  0
    7.6158  -15.2892   17.7469 N   0  0  0  0  0  0  0  0  0  0  0  0
    8.6109  -15.4891   19.9554 C   0  0  0  0  0  0  0  0  0  0  0  0
    7.5644  -15.7887   20.5784 O   0  0  0  0  0  0  0  0  0  0  0  0
   13.1624  -17.8897   17.8697 N   0  0  0  0  0  0  0  0  0  0  0  0
   13.1788  -19.2993   18.0496 C   0  0  0  0  0  0  0  0  0  0  0  0
   13.2718  -20.0839   17.0200 N   0  0  0  0  0  0  0  0  0  0  0  0
   13.0914  -19.8020   19.3744 N   0  0  0  0  0  0  0  0  0  0  0  0
   13.0589  -18.8928   20.4895 C   0  0  0  0  0  0  0  0  0  0  0  0
   11.6577  -18.2832   20.5206 C   0  0  0  0  0  0  0  0  0  0  0  0
   11.5258  -17.3221   21.6587 C   0  0  0  0  0  0  0  0  0  0  0  0
   10.1732  -16.5820   21.6544 C   0  0  2  0  0  0  0  0  0  0  0  0
    9.8574  -15.9384   20.4384 N   0  0  0  0  0  0  0  0  0  0  0  0
   10.0298  -15.8548   22.8924 C   0  0  0  0  0  0  0  0  0  0  0  0
   10.4607  -14.6500   22.8929 O   0  0  0  0  0  0  0  0  0  0  0  0
   13.1931  -21.1143   17.0931 N   0  0  0  0  0  0  0  0  0  0  0  0
    9.4724  -16.3204   24.0924 C   0  0  1  0  0  0  0  0  0  0  0  0
    9.0730  -15.4120   25.1549 C   0  0  0  0  0  0  0  0  0  0  0  0
    8.1122  -14.4381   24.5473 C   0  0  0  0  0  0  0  0  0  0  0  0
    7.5571  -13.4462   25.4858 C   0  0  0  0  0  0  0  0  0  0  0  0
    6.3600  -13.5741   26.1255 C   0  0  0  0  0  0  0  0  0  0  0  0
    5.9536  -12.5788   26.9851 C   0  0  0  0  0  0  0  0  0  0  0  0
    6.6896  -11.4422   27.2460 C   0  0  0  0  0  0  0  0  0  0  0  0
    7.8986  -11.3235   26.5935 C   0  0  0  0  0  0  0  0  0  0  0  0
    8.3152  -12.3128   25.7316 C   0  0  0  0  0  0  0  0  0  0  0  0
    8.4900  -16.1261   26.2910 O   0  0  0  0  0  0  0  0  0  0  0  0
    8.6812  -15.7096   27.4787 O   0  0  0  0  0  0  0  0  0  0  0  0
  2  1  1  1
  2  3  1  0
  4  2  1  0
  4  5  1  6
  6  7  2  0
  6  4  1  0
  9  8  1  0
 10  9  2  0
 11  9  1  0
 12 11  1  0
 13 12  1  0
 13 14  1  0
 15 14  1  6
 15 16  1  0
 16  6  1  0
 17 19  1  0
 17 15  1  0
 18 17  2  0
 20 19  1  0
 20 28  1  0
 21 22  1  0
 20 21  1  1
 22 23  2  0
 23 24  1  0
 25 24  2  0
 26 25  1  0
 27 22  1  0
 27 26  2  0
 28 30  1  0
 29 28  2  0
M  END
$$$$
