SKY.pdb
     RDKit          3D

 28 28  0  0  1  0  0  0  0  0999 V2000
   13.1259  -19.2775   20.8919 O   0  0  0  0  0  0  0  0  0  0  0  0
   12.6960  -19.2564   19.5494 C   0  0  0  0  0  0  0  0  0  0  0  0
   12.8633  -17.8548   19.0261 C   0  0  2  0  0  0  0  0  0  0  0  0
   14.2566  -17.5274   18.7913 N   0  0  0  0  0  0  0  0  0  0  0  0
   12.3175  -16.8871   20.0002 C   0  0  0  0  0  0  0  0  0  0  0  0
   13.1125  -16.2179   20.6955 O   0  0  0  0  0  0  0  0  0  0  0  0
   10.9250  -16.7030   20.1618 N   0  0  0  0  0  0  0  0  0  0  0  0
   10.3668  -15.7213   21.0372 C   0  0  1  0  0  0  0  0  0  0  0  0
    8.9815  -15.2832   20.6207 C   0  0  0  0  0  0  0  0  0  0  0  0
    9.0686  -14.4975   19.3106 C   0  0  0  0  0  0  0  0  0  0  0  0
    7.6953  -14.1154   18.8215 C   0  0  0  0  0  0  0  0  0  0  0  0
    7.8043  -13.4651   17.4795 C   0  0  0  0  0  0  0  0  0  0  0  0
    6.4584  -13.2031   16.9977 N   0  0  0  0  0  0  0  0  0  0  0  0
   10.2672  -16.2067   22.4367 C   0  0  0  0  0  0  0  0  0  0  0  0
   10.1686  -17.4420   22.6337 O   0  0  0  0  0  0  0  0  0  0  0  0
   10.5148  -16.0726   31.3878 O   0  0  0  0  0  0  0  0  0  0  0  0
   10.5122  -15.7322   30.0325 C   0  0  0  0  0  0  0  0  0  0  0  0
   10.0703  -14.4985   29.6032 C   0  0  0  0  0  0  0  0  0  0  0  0
   10.0694  -14.1661   28.2647 C   0  0  0  0  0  0  0  0  0  0  0  0
   10.5084  -15.0463   27.2899 C   0  0  0  0  0  0  0  0  0  0  0  0
   10.4976  -14.6753   25.8526 C   0  0  0  0  0  0  0  0  0  0  0  0
   10.2191  -15.8431   24.9378 C   0  0  2  0  0  0  0  0  0  0  0  0
   10.2775  -15.3495   23.5622 N   0  0  0  0  0  0  0  0  0  0  0  0
    8.8641  -16.4204   25.1207 C   0  0  0  0  0  0  0  0  0  0  0  0
    8.6259  -17.5305   25.9221 O   0  0  0  0  0  0  0  0  0  0  0  0
   10.9493  -16.2794   27.7263 C   0  0  0  0  0  0  0  0  0  0  0  0
   10.9514  -16.6156   29.0688 C   0  0  0  0  0  0  0  0  0  0  0  0
    7.8266  -15.9357   24.5532 O   0  0  0  0  0  0  0  0  0  0  0  0
  1  2  1  0
  2  3  1  0
  3  4  1  1
  5  3  1  0
  5  6  2  0
  7  5  1  0
  8  7  1  0
  8  9  1  6
 10  9  1  0
 11 10  1  0
 12 11  1  0
 12 13  1  0
 14  8  1  0
 15 14  2  0
 16 17  1  0
 17 18  2  0
 17 27  1  0
 18 19  1  0
 19 20  2  0
 20 21  1  0
 22 21  1  1
 22 24  1  0
 22 23  1  0
 23 14  1  0
 24 25  1  0
 26 20  1  0
 27 26  2  0
 28 24  2  0
M  END
$$$$
