SKY.pdb
     RDKit          3D

 28 28  0  0  1  0  0  0  0  0999 V2000
   10.5320  -13.7814   18.5957 O   0  0  0  0  0  0  0  0  0  0  0  0
    9.4048  -14.3435   17.9623 C   0  0  0  0  0  0  0  0  0  0  0  0
    8.1744  -13.8700   18.6891 C   0  0  2  0  0  0  0  0  0  0  0  0
    8.0991  -12.4224   18.7395 N   0  0  0  0  0  0  0  0  0  0  0  0
    8.1821  -14.3824   20.0750 C   0  0  0  0  0  0  0  0  0  0  0  0
    8.7052  -13.6863   20.9722 O   0  0  0  0  0  0  0  0  0  0  0  0
    7.6144  -15.6342   20.4059 N   0  0  0  0  0  0  0  0  0  0  0  0
    7.6102  -16.1594   21.7346 C   0  0  1  0  0  0  0  0  0  0  0  0
    6.8387  -17.4538   21.8518 C   0  0  0  0  0  0  0  0  0  0  0  0
    7.0026  -18.0178   23.2647 C   0  0  0  0  0  0  0  0  0  0  0  0
    6.3290  -19.3603   23.3883 C   0  0  0  0  0  0  0  0  0  0  0  0
    6.4750  -19.8673   24.7874 C   0  0  0  0  0  0  0  0  0  0  0  0
    5.7850  -21.1433   24.8760 N   0  0  0  0  0  0  0  0  0  0  0  0
    8.9810  -16.4226   22.2402 C   0  0  0  0  0  0  0  0  0  0  0  0
    9.5648  -17.4676   21.8639 O   0  0  0  0  0  0  0  0  0  0  0  0
    6.0986  -10.8768   27.8542 O   0  0  0  0  0  0  0  0  0  0  0  0
    6.5085  -11.9444   27.0512 C   0  0  0  0  0  0  0  0  0  0  0  0
    7.8051  -12.4126   27.0865 C   0  0  0  0  0  0  0  0  0  0  0  0
    8.2060  -13.4665   26.2925 C   0  0  0  0  0  0  0  0  0  0  0  0
    7.3349  -14.1046   25.4255 C   0  0  0  0  0  0  0  0  0  0  0  0
    7.7824  -15.2354   24.5741 C   0  0  0  0  0  0  0  0  0  0  0  0
    9.2832  -15.3883   24.5270 C   0  0  2  0  0  0  0  0  0  0  0  0
    9.6656  -15.5568   23.1252 N   0  0  0  0  0  0  0  0  0  0  0  0
    9.7723  -16.5920   25.2444 C   0  0  0  0  0  0  0  0  0  0  0  0
    9.5042  -17.8836   24.8074 O   0  0  0  0  0  0  0  0  0  0  0  0
    6.0386  -13.6311   25.3949 C   0  0  0  0  0  0  0  0  0  0  0  0
    5.6337  -12.5737   26.1906 C   0  0  0  0  0  0  0  0  0  0  0  0
   10.4718  -16.5208   26.3116 O   0  0  0  0  0  0  0  0  0  0  0  0
  1  2  1  0
  2  3  1  0
  3  4  1  1
  5  3  1  0
  5  6  2  0
  7  5  1  0
  8  7  1  0
  8  9  1  6
 10  9  1  0
 11 10  1  0
 12 11  1  0
 12 13  1  0
 14  8  1  0
 15 14  2  0
 16 17  1  0
 17 18  2  0
 17 27  1  0
 18 19  1  0
 19 20  2  0
 20 21  1  0
 22 21  1  6
 22 24  1  0
 22 23  1  0
 23 14  1  0
 24 25  1  0
 26 20  1  0
 27 26  2  0
 28 24  2  0
M  END
$$$$
