SKY.pdb
     RDKit          3D

 28 28  0  0  1  0  0  0  0  0999 V2000
    9.3443  -14.7695   18.6742 O   0  0  0  0  0  0  0  0  0  0  0  0
    8.7183  -14.8888   19.9318 C   0  0  0  0  0  0  0  0  0  0  0  0
    7.5935  -15.8810   19.8028 C   0  0  2  0  0  0  0  0  0  0  0  0
    6.4374  -15.3059   19.1423 N   0  0  0  0  0  0  0  0  0  0  0  0
    7.1785  -16.3459   21.1426 C   0  0  0  0  0  0  0  0  0  0  0  0
    6.3384  -15.6745   21.7802 O   0  0  0  0  0  0  0  0  0  0  0  0
    7.7075  -17.5255   21.7150 N   0  0  0  0  0  0  0  0  0  0  0  0
    7.2578  -18.0530   22.9643 C   0  0  1  0  0  0  0  0  0  0  0  0
    7.3362  -19.5611   23.0272 C   0  0  0  0  0  0  0  0  0  0  0  0
    6.7665  -20.0451   24.3623 C   0  0  0  0  0  0  0  0  0  0  0  0
    6.7897  -21.5499   24.4419 C   0  0  0  0  0  0  0  0  0  0  0  0
    6.0601  -21.9982   25.6676 C   0  0  0  0  0  0  0  0  0  0  0  0
    6.0512  -23.4514   25.6776 N   0  0  0  0  0  0  0  0  0  0  0  0
    8.0409  -17.5285   24.1113 C   0  0  0  0  0  0  0  0  0  0  0  0
    9.2890  -17.4614   24.0002 O   0  0  0  0  0  0  0  0  0  0  0  0
    6.8621  -10.2647   25.8439 O   0  0  0  0  0  0  0  0  0  0  0  0
    6.9689  -11.6112   26.2020 C   0  0  0  0  0  0  0  0  0  0  0  0
    5.8498  -12.3881   26.4151 C   0  0  0  0  0  0  0  0  0  0  0  0
    5.9592  -13.7167   26.7683 C   0  0  0  0  0  0  0  0  0  0  0  0
    7.1882  -14.3351   26.9262 C   0  0  0  0  0  0  0  0  0  0  0  0
    7.2898  -15.7653   27.3107 C   0  0  0  0  0  0  0  0  0  0  0  0
    8.2343  -16.5521   26.4351 C   0  0  2  0  0  0  0  0  0  0  0  0
    7.4544  -17.0994   25.3252 N   0  0  0  0  0  0  0  0  0  0  0  0
    8.8488  -17.7110   27.1294 C   0  0  0  0  0  0  0  0  0  0  0  0
   10.0101  -17.6007   27.8847 O   0  0  0  0  0  0  0  0  0  0  0  0
    8.3044  -13.5518   26.7115 C   0  0  0  0  0  0  0  0  0  0  0  0
    8.1974  -12.2183   26.3569 C   0  0  0  0  0  0  0  0  0  0  0  0
    8.3514  -18.8872   27.0787 O   0  0  0  0  0  0  0  0  0  0  0  0
  1  2  1  0
  2  3  1  0
  3  4  1  1
  5  3  1  0
  5  6  2  0
  7  5  1  0
  8  7  1  0
  8  9  1  6
 10  9  1  0
 11 10  1  0
 12 11  1  0
 12 13  1  0
 14  8  1  0
 15 14  2  0
 16 17  1  0
 17 18  2  0
 17 27  1  0
 18 19  1  0
 19 20  2  0
 20 21  1  0
 22 21  1  1
 22 24  1  0
 22 23  1  0
 23 14  1  0
 24 25  1  0
 26 20  1  0
 27 26  2  0
 28 24  2  0
M  END
$$$$
