SKY.pdb
     RDKit          3D

 28 28  0  0  1  0  0  0  0  0999 V2000
   10.9291  -19.4759   17.7008 O   0  0  0  0  0  0  0  0  0  0  0  0
    9.8504  -19.0094   16.9221 C   0  0  0  0  0  0  0  0  0  0  0  0
   10.0934  -17.5574   16.6075 C   0  0  2  0  0  0  0  0  0  0  0  0
   11.2436  -17.3760   15.7429 N   0  0  0  0  0  0  0  0  0  0  0  0
   10.3300  -16.8061   17.8577 C   0  0  0  0  0  0  0  0  0  0  0  0
   11.4910  -16.7531   18.3187 O   0  0  0  0  0  0  0  0  0  0  0  0
    9.2789  -16.1504   18.5390 N   0  0  0  0  0  0  0  0  0  0  0  0
    9.4177  -15.6238   19.8600 C   0  0  1  0  0  0  0  0  0  0  0  0
    8.2845  -14.7013   20.2462 C   0  0  0  0  0  0  0  0  0  0  0  0
    8.2760  -13.4877   19.3143 C   0  0  0  0  0  0  0  0  0  0  0  0
    7.7668  -13.8643   17.9469 C   0  0  0  0  0  0  0  0  0  0  0  0
    7.7705  -12.6595   17.0614 C   0  0  0  0  0  0  0  0  0  0  0  0
    7.2362  -13.0521   15.7681 N   0  0  0  0  0  0  0  0  0  0  0  0
    9.4784  -16.6926   20.8885 C   0  0  0  0  0  0  0  0  0  0  0  0
    8.3996  -17.1505   21.3368 O   0  0  0  0  0  0  0  0  0  0  0  0
   15.3548  -14.3912   17.8919 O   0  0  0  0  0  0  0  0  0  0  0  0
   14.4439  -14.5769   18.9351 C   0  0  0  0  0  0  0  0  0  0  0  0
   14.7416  -15.3840   20.0128 C   0  0  0  0  0  0  0  0  0  0  0  0
   13.8400  -15.5648   21.0406 C   0  0  0  0  0  0  0  0  0  0  0  0
   12.5989  -14.9505   21.0443 C   0  0  0  0  0  0  0  0  0  0  0  0
   11.6374  -15.1582   22.1562 C   0  0  0  0  0  0  0  0  0  0  0  0
   11.4264  -16.6131   22.4976 C   0  0  2  0  0  0  0  0  0  0  0  0
   10.6896  -17.2235   21.3913 N   0  0  0  0  0  0  0  0  0  0  0  0
   10.6020  -16.8156   23.7150 C   0  0  0  0  0  0  0  0  0  0  0  0
   11.1369  -16.7701   24.9968 O   0  0  0  0  0  0  0  0  0  0  0  0
   12.3071  -14.1441   19.9627 C   0  0  0  0  0  0  0  0  0  0  0  0
   13.2100  -13.9609   18.9300 C   0  0  0  0  0  0  0  0  0  0  0  0
    9.3458  -17.0456   23.6656 O   0  0  0  0  0  0  0  0  0  0  0  0
  1  2  1  0
  2  3  1  0
  3  4  1  6
  5  3  1  0
  5  6  2  0
  7  5  1  0
  8  7  1  0
  8  9  1  1
 10  9  1  0
 11 10  1  0
 12 11  1  0
 12 13  1  0
 14  8  1  0
 15 14  2  0
 16 17  1  0
 17 18  2  0
 17 27  1  0
 18 19  1  0
 19 20  2  0
 20 21  1  0
 22 21  1  6
 22 24  1  0
 22 23  1  0
 23 14  1  0
 24 25  1  0
 26 20  1  0
 27 26  2  0
 28 24  2  0
M  END
$$$$
