SKY.pdb
     RDKit          3D

 28 28  0  0  1  0  0  0  0  0999 V2000
   10.2837  -13.4856   19.3121 O   0  0  0  0  0  0  0  0  0  0  0  0
    9.4679  -14.1230   18.3551 C   0  0  0  0  0  0  0  0  0  0  0  0
    8.0314  -13.8196   18.6877 C   0  0  2  0  0  0  0  0  0  0  0  0
    7.7858  -12.3929   18.7760 N   0  0  0  0  0  0  0  0  0  0  0  0
    7.6765  -14.4324   19.9846 C   0  0  0  0  0  0  0  0  0  0  0  0
    7.5499  -13.6941   20.9856 O   0  0  0  0  0  0  0  0  0  0  0  0
    7.4785  -15.8260   20.1168 N   0  0  0  0  0  0  0  0  0  0  0  0
    7.0076  -16.4338   21.3211 C   0  0  1  0  0  0  0  0  0  0  0  0
    6.7734  -17.9198   21.1760 C   0  0  0  0  0  0  0  0  0  0  0  0
    6.2403  -18.4822   22.4954 C   0  0  0  0  0  0  0  0  0  0  0  0
    5.9371  -19.9530   22.3686 C   0  0  0  0  0  0  0  0  0  0  0  0
    5.1844  -20.4153   23.5750 C   0  0  0  0  0  0  0  0  0  0  0  0
    4.8922  -21.8290   23.4065 N   0  0  0  0  0  0  0  0  0  0  0  0
    7.9530  -16.2506   22.4510 C   0  0  0  0  0  0  0  0  0  0  0  0
    9.1787  -16.4099   22.2345 O   0  0  0  0  0  0  0  0  0  0  0  0
   10.8925  -14.4288   30.7181 O   0  0  0  0  0  0  0  0  0  0  0  0
   10.1143  -14.6112   29.5719 C   0  0  0  0  0  0  0  0  0  0  0  0
    9.8430  -13.5658   28.7147 C   0  0  0  0  0  0  0  0  0  0  0  0
    9.0745  -13.7497   27.5844 C   0  0  0  0  0  0  0  0  0  0  0  0
    8.5396  -14.9835   27.2537 C   0  0  0  0  0  0  0  0  0  0  0  0
    7.7109  -15.1649   26.0355 C   0  0  0  0  0  0  0  0  0  0  0  0
    8.4894  -15.7036   24.8600 C   0  0  2  0  0  0  0  0  0  0  0  0
    7.5455  -15.9055   23.7611 N   0  0  0  0  0  0  0  0  0  0  0  0
    9.1140  -17.0234   25.1263 C   0  0  0  0  0  0  0  0  0  0  0  0
   10.4638  -17.1656   25.4244 O   0  0  0  0  0  0  0  0  0  0  0  0
    8.8148  -16.0257   28.1160 C   0  0  0  0  0  0  0  0  0  0  0  0
    9.5857  -15.8439   29.2509 C   0  0  0  0  0  0  0  0  0  0  0  0
    8.4524  -18.1165   25.0986 O   0  0  0  0  0  0  0  0  0  0  0  0
  1  2  1  0
  2  3  1  0
  3  4  1  1
  5  3  1  0
  5  6  2  0
  7  5  1  0
  8  7  1  0
  8  9  1  6
 10  9  1  0
 11 10  1  0
 12 11  1  0
 12 13  1  0
 14  8  1  0
 15 14  2  0
 16 17  1  0
 17 18  2  0
 17 27  1  0
 18 19  1  0
 19 20  2  0
 20 21  1  0
 22 21  1  1
 22 24  1  0
 22 23  1  0
 23 14  1  0
 24 25  1  0
 26 20  1  0
 27 26  2  0
 28 24  2  0
M  END
$$$$
