SKY.pdb
     RDKit          3D

 28 28  0  0  1  0  0  0  0  0999 V2000
   10.1200  -13.2960   20.1079 O   0  0  0  0  0  0  0  0  0  0  0  0
    8.9481  -12.7164   19.5805 C   0  0  0  0  0  0  0  0  0  0  0  0
    8.0410  -13.8274   19.1232 C   0  0  2  0  0  0  0  0  0  0  0  0
    6.8793  -13.3219   18.4172 N   0  0  0  0  0  0  0  0  0  0  0  0
    7.5729  -14.6050   20.2892 C   0  0  0  0  0  0  0  0  0  0  0  0
    6.6610  -14.1324   21.0022 O   0  0  0  0  0  0  0  0  0  0  0  0
    8.1303  -15.8631   20.6137 N   0  0  0  0  0  0  0  0  0  0  0  0
    7.6223  -16.6921   21.6606 C   0  0  1  0  0  0  0  0  0  0  0  0
    7.7982  -18.1667   21.3796 C   0  0  0  0  0  0  0  0  0  0  0  0
    7.1243  -18.9797   22.4869 C   0  0  0  0  0  0  0  0  0  0  0  0
    7.3057  -20.4576   22.2540 C   0  0  0  0  0  0  0  0  0  0  0  0
    6.5237  -21.2250   23.2715 C   0  0  0  0  0  0  0  0  0  0  0  0
    6.6558  -22.6395   22.9649 N   0  0  0  0  0  0  0  0  0  0  0  0
    8.2766  -16.4166   22.9644 C   0  0  0  0  0  0  0  0  0  0  0  0
    9.5156  -16.2186   22.9796 O   0  0  0  0  0  0  0  0  0  0  0  0
    6.2913   -9.8776   26.1953 O   0  0  0  0  0  0  0  0  0  0  0  0
    6.4934  -11.2594   26.2446 C   0  0  0  0  0  0  0  0  0  0  0  0
    7.7420  -11.8097   26.0455 C   0  0  0  0  0  0  0  0  0  0  0  0
    7.9376  -13.1740   26.0951 C   0  0  0  0  0  0  0  0  0  0  0  0
    6.8992  -14.0554   26.3452 C   0  0  0  0  0  0  0  0  0  0  0  0
    7.1249  -15.5219   26.3915 C   0  0  0  0  0  0  0  0  0  0  0  0
    8.2130  -15.9872   25.4548 C   0  0  2  0  0  0  0  0  0  0  0  0
    7.5770  -16.3651   24.1930 N   0  0  0  0  0  0  0  0  0  0  0  0
    8.9299  -17.1919   25.9422 C   0  0  0  0  0  0  0  0  0  0  0  0
    9.9527  -17.1251   26.8806 O   0  0  0  0  0  0  0  0  0  0  0  0
    5.6520  -13.4981   26.5435 C   0  0  0  0  0  0  0  0  0  0  0  0
    5.4529  -12.1294   26.4944 C   0  0  0  0  0  0  0  0  0  0  0  0
    8.6550  -18.3703   25.5311 O   0  0  0  0  0  0  0  0  0  0  0  0
  1  2  1  0
  2  3  1  0
  3  4  1  1
  5  3  1  0
  5  6  2  0
  7  5  1  0
  8  7  1  0
  8  9  1  6
 10  9  1  0
 11 10  1  0
 12 11  1  0
 12 13  1  0
 14  8  1  0
 15 14  2  0
 16 17  1  0
 17 18  2  0
 17 27  1  0
 18 19  1  0
 19 20  2  0
 20 21  1  0
 22 21  1  1
 22 24  1  0
 22 23  1  0
 23 14  1  0
 24 25  1  0
 26 20  1  0
 27 26  2  0
 28 24  2  0
M  END
$$$$
