SKY.pdb
     RDKit          3D

 28 28  0  0  1  0  0  0  0  0999 V2000
    9.8180  -14.3626   16.9272 O   0  0  0  0  0  0  0  0  0  0  0  0
    9.5670  -14.2975   18.3130 C   0  0  0  0  0  0  0  0  0  0  0  0
    8.0869  -14.4662   18.5294 C   0  0  2  0  0  0  0  0  0  0  0  0
    7.3600  -13.2357   18.2821 N   0  0  0  0  0  0  0  0  0  0  0  0
    7.8280  -14.8857   19.9224 C   0  0  0  0  0  0  0  0  0  0  0  0
    7.8097  -14.0160   20.8204 O   0  0  0  0  0  0  0  0  0  0  0  0
    7.6023  -16.2402   20.2591 N   0  0  0  0  0  0  0  0  0  0  0  0
    7.3264  -16.6746   21.5920 C   0  0  1  0  0  0  0  0  0  0  0  0
    6.9321  -18.1318   21.6647 C   0  0  0  0  0  0  0  0  0  0  0  0
    6.7139  -18.5277   23.1266 C   0  0  0  0  0  0  0  0  0  0  0  0
    6.3891  -19.9947   23.2428 C   0  0  0  0  0  0  0  0  0  0  0  0
    6.0789  -20.3280   24.6670 C   0  0  0  0  0  0  0  0  0  0  0  0
    5.8517  -21.7610   24.7527 N   0  0  0  0  0  0  0  0  0  0  0  0
    8.4905  -16.4933   22.4954 C   0  0  0  0  0  0  0  0  0  0  0  0
    9.5943  -16.9802   22.1505 O   0  0  0  0  0  0  0  0  0  0  0  0
    5.0348  -11.8986   27.3119 O   0  0  0  0  0  0  0  0  0  0  0  0
    6.1724  -12.4244   26.6938 C   0  0  0  0  0  0  0  0  0  0  0  0
    6.2708  -12.5048   25.3208 C   0  0  0  0  0  0  0  0  0  0  0  0
    7.3952  -13.0243   24.7144 C   0  0  0  0  0  0  0  0  0  0  0  0
    8.4753  -13.4886   25.4463 C   0  0  0  0  0  0  0  0  0  0  0  0
    9.6772  -14.0489   24.7791 C   0  0  0  0  0  0  0  0  0  0  0  0
    9.5961  -15.5398   24.5591 C   0  0  2  0  0  0  0  0  0  0  0  0
    8.4218  -15.7996   23.7265 N   0  0  0  0  0  0  0  0  0  0  0  0
    9.4003  -16.3074   25.8142 C   0  0  0  0  0  0  0  0  0  0  0  0
    8.2567  -17.0572   26.0618 O   0  0  0  0  0  0  0  0  0  0  0  0
    8.3703  -13.4054   26.8202 C   0  0  0  0  0  0  0  0  0  0  0  0
    7.2431  -12.8845   27.4313 C   0  0  0  0  0  0  0  0  0  0  0  0
   10.2698  -16.3296   26.7506 O   0  0  0  0  0  0  0  0  0  0  0  0
  1  2  1  0
  2  3  1  0
  3  4  1  1
  5  3  1  0
  5  6  2  0
  7  5  1  0
  8  7  1  0
  8  9  1  6
 10  9  1  0
 11 10  1  0
 12 11  1  0
 12 13  1  0
 14  8  1  0
 15 14  2  0
 16 17  1  0
 17 18  2  0
 17 27  1  0
 18 19  1  0
 19 20  2  0
 20 21  1  0
 22 21  1  1
 22 24  1  0
 22 23  1  0
 23 14  1  0
 24 25  1  0
 26 20  1  0
 27 26  2  0
 28 24  2  0
M  END
$$$$
