SKY.pdb
     RDKit          3D

 28 28  0  0  1  0  0  0  0  0999 V2000
    7.5800  -18.5167   18.3752 O   0  0  0  0  0  0  0  0  0  0  0  0
    8.4295  -19.3970   19.0760 C   0  0  0  0  0  0  0  0  0  0  0  0
    8.4400  -18.9845   20.5237 C   0  0  2  0  0  0  0  0  0  0  0  0
    7.1006  -18.9109   21.0753 N   0  0  0  0  0  0  0  0  0  0  0  0
    9.0721  -17.6561   20.6622 C   0  0  0  0  0  0  0  0  0  0  0  0
   10.2750  -17.5250   20.3476 O   0  0  0  0  0  0  0  0  0  0  0  0
    8.3506  -16.5378   21.1397 N   0  0  0  0  0  0  0  0  0  0  0  0
    8.9100  -15.2251   21.2133 C   0  0  1  0  0  0  0  0  0  0  0  0
    7.8833  -14.1366   21.0005 C   0  0  0  0  0  0  0  0  0  0  0  0
    7.2779  -14.2744   19.6020 C   0  0  0  0  0  0  0  0  0  0  0  0
    7.9954  -13.3881   18.6166 C   0  0  0  0  0  0  0  0  0  0  0  0
    7.2898  -13.4296   17.2990 C   0  0  0  0  0  0  0  0  0  0  0  0
    7.9776  -12.5244   16.3936 N   0  0  0  0  0  0  0  0  0  0  0  0
    9.5579  -14.9620   22.5229 C   0  0  0  0  0  0  0  0  0  0  0  0
    9.5918  -13.7807   22.9446 O   0  0  0  0  0  0  0  0  0  0  0  0
   10.9011  -14.5456   31.0087 O   0  0  0  0  0  0  0  0  0  0  0  0
   10.5507  -14.7420   29.6703 C   0  0  0  0  0  0  0  0  0  0  0  0
   10.3731  -16.0079   29.1532 C   0  0  0  0  0  0  0  0  0  0  0  0
   10.0272  -16.1978   27.8318 C   0  0  0  0  0  0  0  0  0  0  0  0
    9.8416  -15.1362   26.9622 C   0  0  0  0  0  0  0  0  0  0  0  0
    9.4732  -15.3568   25.5411 C   0  0  0  0  0  0  0  0  0  0  0  0
   10.6497  -15.7263   24.6710 C   0  0  2  0  0  0  0  0  0  0  0  0
   10.1404  -15.9735   23.3223 N   0  0  0  0  0  0  0  0  0  0  0  0
   11.3270  -16.9750   25.1007 C   0  0  0  0  0  0  0  0  0  0  0  0
   12.4712  -16.9721   25.8893 O   0  0  0  0  0  0  0  0  0  0  0  0
   10.0210  -13.8717   27.4860 C   0  0  0  0  0  0  0  0  0  0  0  0
   10.3680  -13.6783   28.8117 C   0  0  0  0  0  0  0  0  0  0  0  0
   10.9035  -18.1357   24.7738 O   0  0  0  0  0  0  0  0  0  0  0  0
  1  2  1  0
  2  3  1  0
  3  4  1  6
  5  3  1  0
  5  6  2  0
  7  5  1  0
  8  7  1  0
  8  9  1  1
 10  9  1  0
 11 10  1  0
 12 11  1  0
 12 13  1  0
 14  8  1  0
 15 14  2  0
 16 17  1  0
 17 18  2  0
 17 27  1  0
 18 19  1  0
 19 20  2  0
 20 21  1  0
 22 21  1  1
 22 24  1  0
 22 23  1  0
 23 14  1  0
 24 25  1  0
 26 20  1  0
 27 26  2  0
 28 24  2  0
M  END
$$$$
