SKY.pdb
     RDKit          3D

 28 28  0  0  1  0  0  0  0  0999 V2000
    8.6948  -19.3081   22.6281 O   0  0  0  0  0  0  0  0  0  0  0  0
    9.3731  -19.9103   21.5487 C   0  0  0  0  0  0  0  0  0  0  0  0
    9.2355  -19.0113   20.3490 C   0  0  2  0  0  0  0  0  0  0  0  0
    9.9246  -19.5460   19.1902 N   0  0  0  0  0  0  0  0  0  0  0  0
    9.8014  -17.6804   20.6519 C   0  0  0  0  0  0  0  0  0  0  0  0
   11.0324  -17.5047   20.5212 O   0  0  0  0  0  0  0  0  0  0  0  0
    8.9863  -16.6087   21.0833 N   0  0  0  0  0  0  0  0  0  0  0  0
    9.4953  -15.2981   21.3377 C   0  0  1  0  0  0  0  0  0  0  0  0
    8.6561  -14.2101   20.7081 C   0  0  0  0  0  0  0  0  0  0  0  0
    8.7883  -14.2824   19.1854 C   0  0  0  0  0  0  0  0  0  0  0  0
    7.9270  -13.2389   18.5216 C   0  0  0  0  0  0  0  0  0  0  0  0
    8.0368  -13.3694   17.0362 C   0  0  0  0  0  0  0  0  0  0  0  0
    7.0862  -12.4497   16.4339 N   0  0  0  0  0  0  0  0  0  0  0  0
    9.5781  -14.9985   22.7894 C   0  0  0  0  0  0  0  0  0  0  0  0
    9.3005  -13.8372   23.1752 O   0  0  0  0  0  0  0  0  0  0  0  0
    5.8906  -10.7703   26.7064 O   0  0  0  0  0  0  0  0  0  0  0  0
    6.4291  -12.0110   26.3553 C   0  0  0  0  0  0  0  0  0  0  0  0
    6.7625  -12.3054   25.0500 C   0  0  0  0  0  0  0  0  0  0  0  0
    7.2938  -13.5310   24.7074 C   0  0  0  0  0  0  0  0  0  0  0  0
    7.5184  -14.5221   25.6481 C   0  0  0  0  0  0  0  0  0  0  0  0
    8.0874  -15.8381   25.2631 C   0  0  0  0  0  0  0  0  0  0  0  0
    9.5941  -15.8333   25.1754 C   0  0  2  0  0  0  0  0  0  0  0  0
    9.9541  -15.9537   23.7628 N   0  0  0  0  0  0  0  0  0  0  0  0
   10.2251  -16.9830   25.8702 C   0  0  0  0  0  0  0  0  0  0  0  0
   10.7904  -18.0521   25.1855 O   0  0  0  0  0  0  0  0  0  0  0  0
    7.1824  -14.2212   26.9527 C   0  0  0  0  0  0  0  0  0  0  0  0
    6.6492  -12.9920   27.2993 C   0  0  0  0  0  0  0  0  0  0  0  0
   10.2901  -17.0667   27.1438 O   0  0  0  0  0  0  0  0  0  0  0  0
  1  2  1  0
  2  3  1  0
  3  4  1  6
  5  3  1  0
  5  6  2  0
  7  5  1  0
  8  7  1  0
  8  9  1  6
 10  9  1  0
 11 10  1  0
 12 11  1  0
 12 13  1  0
 14  8  1  0
 15 14  2  0
 16 17  1  0
 17 18  2  0
 17 27  1  0
 18 19  1  0
 19 20  2  0
 20 21  1  0
 22 21  1  6
 22 24  1  0
 22 23  1  0
 23 14  1  0
 24 25  1  0
 26 20  1  0
 27 26  2  0
 28 24  2  0
M  END
$$$$
