SKY.pdb
     RDKit          3D

 28 28  0  0  1  0  0  0  0  0999 V2000
    5.5716  -18.1135   25.1217 O   0  0  0  0  0  0  0  0  0  0  0  0
    5.4802  -19.2404   24.2795 C   0  0  0  0  0  0  0  0  0  0  0  0
    5.5147  -18.7626   22.8524 C   0  0  2  0  0  0  0  0  0  0  0  0
    5.4904  -19.8660   21.9114 N   0  0  0  0  0  0  0  0  0  0  0  0
    6.7444  -17.9783   22.6156 C   0  0  0  0  0  0  0  0  0  0  0  0
    7.8494  -18.5615   22.6600 O   0  0  0  0  0  0  0  0  0  0  0  0
    6.6985  -16.5920   22.3418 N   0  0  0  0  0  0  0  0  0  0  0  0
    7.8705  -15.7994   22.1427 C   0  0  1  0  0  0  0  0  0  0  0  0
    7.6017  -14.5438   21.3454 C   0  0  0  0  0  0  0  0  0  0  0  0
    8.2734  -14.6574   19.9753 C   0  0  0  0  0  0  0  0  0  0  0  0
    7.9204  -13.4787   19.1050 C   0  0  0  0  0  0  0  0  0  0  0  0
    8.4420  -13.7030   17.7218 C   0  0  0  0  0  0  0  0  0  0  0  0
    8.0118  -12.5884   16.8943 N   0  0  0  0  0  0  0  0  0  0  0  0
    8.4886  -15.3768   23.4246 C   0  0  0  0  0  0  0  0  0  0  0  0
    8.0937  -14.3097   23.9537 O   0  0  0  0  0  0  0  0  0  0  0  0
    5.3280  -11.5303   26.7444 O   0  0  0  0  0  0  0  0  0  0  0  0
    6.2002  -12.6188   26.6602 C   0  0  0  0  0  0  0  0  0  0  0  0
    7.5394  -12.4907   26.9629 C   0  0  0  0  0  0  0  0  0  0  0  0
    8.3971  -13.5673   26.8787 C   0  0  0  0  0  0  0  0  0  0  0  0
    7.9622  -14.8230   26.4890 C   0  0  0  0  0  0  0  0  0  0  0  0
    8.8986  -15.9714   26.3993 C   0  0  0  0  0  0  0  0  0  0  0  0
   10.0134  -15.7551   25.4051 C   0  0  2  0  0  0  0  0  0  0  0  0
    9.5010  -16.1139   24.0829 N   0  0  0  0  0  0  0  0  0  0  0  0
   11.1926  -16.6227   25.6492 C   0  0  0  0  0  0  0  0  0  0  0  0
   12.0487  -16.4352   26.7276 O   0  0  0  0  0  0  0  0  0  0  0  0
    6.6207  -14.9445   26.1872 C   0  0  0  0  0  0  0  0  0  0  0  0
    5.7578  -13.8658   26.2709 C   0  0  0  0  0  0  0  0  0  0  0  0
   11.4993  -17.5992   24.8839 O   0  0  0  0  0  0  0  0  0  0  0  0
  1  2  1  0
  2  3  1  0
  3  4  1  6
  5  3  1  0
  5  6  2  0
  7  5  1  0
  8  7  1  0
  8  9  1  6
 10  9  1  0
 11 10  1  0
 12 11  1  0
 12 13  1  0
 14  8  1  0
 15 14  2  0
 16 17  1  0
 17 18  2  0
 17 27  1  0
 18 19  1  0
 19 20  2  0
 20 21  1  0
 22 21  1  1
 22 24  1  0
 22 23  1  0
 23 14  1  0
 24 25  1  0
 26 20  1  0
 27 26  2  0
 28 24  2  0
M  END
$$$$
