SKY.pdb
     RDKit          3D

 28 28  0  0  1  0  0  0  0  0999 V2000
   10.4936  -13.6112   18.8636 O   0  0  0  0  0  0  0  0  0  0  0  0
    9.7055  -14.4747   18.0756 C   0  0  0  0  0  0  0  0  0  0  0  0
    8.2589  -14.1235   18.2994 C   0  0  2  0  0  0  0  0  0  0  0  0
    8.0149  -12.7033   18.1343 N   0  0  0  0  0  0  0  0  0  0  0  0
    7.8555  -14.5071   19.6682 C   0  0  0  0  0  0  0  0  0  0  0  0
    7.8379  -13.6305   20.5595 O   0  0  0  0  0  0  0  0  0  0  0  0
    7.4917  -15.8351   19.9893 N   0  0  0  0  0  0  0  0  0  0  0  0
    6.9671  -16.2111   21.2639 C   0  0  1  0  0  0  0  0  0  0  0  0
    6.5440  -17.6610   21.3201 C   0  0  0  0  0  0  0  0  0  0  0  0
    5.1588  -17.8118   20.6880 C   0  0  0  0  0  0  0  0  0  0  0  0
    4.7418  -19.2595   20.6476 C   0  0  0  0  0  0  0  0  0  0  0  0
    3.3236  -19.3598   20.1847 C   0  0  0  0  0  0  0  0  0  0  0  0
    2.9976  -20.7688   20.0412 N   0  0  0  0  0  0  0  0  0  0  0  0
    7.9462  -16.0008   22.3599 C   0  0  0  0  0  0  0  0  0  0  0  0
    9.1666  -16.1415   22.1041 O   0  0  0  0  0  0  0  0  0  0  0  0
   11.0433  -14.4889   30.6322 O   0  0  0  0  0  0  0  0  0  0  0  0
   10.2558  -14.5828   29.4816 C   0  0  0  0  0  0  0  0  0  0  0  0
   10.2982  -13.6134   28.5018 C   0  0  0  0  0  0  0  0  0  0  0  0
    9.5196  -13.7095   27.3676 C   0  0  0  0  0  0  0  0  0  0  0  0
    8.6615  -14.7755   27.1549 C   0  0  0  0  0  0  0  0  0  0  0  0
    7.8266  -14.8629   25.9306 C   0  0  0  0  0  0  0  0  0  0  0  0
    8.5482  -15.4857   24.7604 C   0  0  2  0  0  0  0  0  0  0  0  0
    7.5765  -15.6498   23.6796 N   0  0  0  0  0  0  0  0  0  0  0  0
    9.0830  -16.8386   25.0546 C   0  0  0  0  0  0  0  0  0  0  0  0
   10.4110  -17.0593   25.3993 O   0  0  0  0  0  0  0  0  0  0  0  0
    8.6237  -15.7422   28.1395 C   0  0  0  0  0  0  0  0  0  0  0  0
    9.4041  -15.6483   29.2786 C   0  0  0  0  0  0  0  0  0  0  0  0
    8.3582  -17.8903   25.0102 O   0  0  0  0  0  0  0  0  0  0  0  0
  1  2  1  0
  2  3  1  0
  3  4  1  1
  5  3  1  0
  5  6  2  0
  7  5  1  0
  8  7  1  0
  8  9  1  6
 10  9  1  0
 11 10  1  0
 12 11  1  0
 12 13  1  0
 14  8  1  0
 15 14  2  0
 16 17  1  0
 17 18  2  0
 17 27  1  0
 18 19  1  0
 19 20  2  0
 20 21  1  0
 22 21  1  1
 22 24  1  0
 22 23  1  0
 23 14  1  0
 24 25  1  0
 26 20  1  0
 27 26  2  0
 28 24  2  0
M  END
$$$$
