SKY.pdb
     RDKit          3D

 28 28  0  0  1  0  0  0  0  0999 V2000
   10.6472  -13.8983   19.4004 O   0  0  0  0  0  0  0  0  0  0  0  0
    9.6529  -13.0137   18.9352 C   0  0  0  0  0  0  0  0  0  0  0  0
    8.4314  -13.8224   18.5885 C   0  0  2  0  0  0  0  0  0  0  0  0
    7.3923  -13.0050   17.9921 N   0  0  0  0  0  0  0  0  0  0  0  0
    7.8836  -14.4517   19.8080 C   0  0  0  0  0  0  0  0  0  0  0  0
    7.2364  -13.7460   20.6119 O   0  0  0  0  0  0  0  0  0  0  0  0
    8.0744  -15.8253   20.0834 N   0  0  0  0  0  0  0  0  0  0  0  0
    7.6078  -16.4505   21.2804 C   0  0  1  0  0  0  0  0  0  0  0  0
    7.4768  -17.9503   21.1467 C   0  0  0  0  0  0  0  0  0  0  0  0
    6.5107  -18.4738   22.2114 C   0  0  0  0  0  0  0  0  0  0  0  0
    6.2442  -19.9444   22.0181 C   0  0  0  0  0  0  0  0  0  0  0  0
    5.3369  -20.4358   23.1002 C   0  0  0  0  0  0  0  0  0  0  0  0
    5.0237  -21.8281   22.8248 N   0  0  0  0  0  0  0  0  0  0  0  0
    8.5039  -16.1934   22.4358 C   0  0  0  0  0  0  0  0  0  0  0  0
    9.7377  -16.3626   22.2826 O   0  0  0  0  0  0  0  0  0  0  0  0
   10.9530  -14.5229   30.8916 O   0  0  0  0  0  0  0  0  0  0  0  0
   10.2556  -14.6369   29.6861 C   0  0  0  0  0  0  0  0  0  0  0  0
   10.1243  -13.5649   28.8287 C   0  0  0  0  0  0  0  0  0  0  0  0
    9.4354  -13.6813   27.6397 C   0  0  0  0  0  0  0  0  0  0  0  0
    8.8443  -14.8707   27.2477 C   0  0  0  0  0  0  0  0  0  0  0  0
    8.1025  -14.9792   25.9664 C   0  0  0  0  0  0  0  0  0  0  0  0
    8.9284  -15.5655   24.8474 C   0  0  2  0  0  0  0  0  0  0  0  0
    8.0405  -15.7671   23.7027 N   0  0  0  0  0  0  0  0  0  0  0  0
    9.5002  -16.8951   25.1759 C   0  0  0  0  0  0  0  0  0  0  0  0
   10.8283  -17.0672   25.5474 O   0  0  0  0  0  0  0  0  0  0  0  0
    8.9793  -15.9397   28.1104 C   0  0  0  0  0  0  0  0  0  0  0  0
    9.6701  -15.8257   29.3041 C   0  0  0  0  0  0  0  0  0  0  0  0
    8.8099  -17.9700   25.1386 O   0  0  0  0  0  0  0  0  0  0  0  0
  1  2  1  0
  2  3  1  0
  3  4  1  1
  5  3  1  0
  5  6  2  0
  7  5  1  0
  8  7  1  0
  8  9  1  6
 10  9  1  0
 11 10  1  0
 12 11  1  0
 12 13  1  0
 14  8  1  0
 15 14  2  0
 16 17  1  0
 17 18  2  0
 17 27  1  0
 18 19  1  0
 19 20  2  0
 20 21  1  0
 22 21  1  1
 22 24  1  0
 22 23  1  0
 23 14  1  0
 24 25  1  0
 26 20  1  0
 27 26  2  0
 28 24  2  0
M  END
$$$$
