SKY.pdb
     RDKit          3D

 28 28  0  0  1  0  0  0  0  0999 V2000
   10.9849  -13.1835   17.8292 O   0  0  0  0  0  0  0  0  0  0  0  0
   10.2670  -13.4031   19.0225 C   0  0  0  0  0  0  0  0  0  0  0  0
    8.8650  -13.8122   18.6571 C   0  0  2  0  0  0  0  0  0  0  0  0
    8.0623  -12.6791   18.2384 N   0  0  0  0  0  0  0  0  0  0  0  0
    8.2069  -14.4419   19.8206 C   0  0  0  0  0  0  0  0  0  0  0  0
    7.5000  -13.7335   20.5699 O   0  0  0  0  0  0  0  0  0  0  0  0
    8.3585  -15.8190   20.1026 N   0  0  0  0  0  0  0  0  0  0  0  0
    7.7947  -16.4429   21.2578 C   0  0  1  0  0  0  0  0  0  0  0  0
    7.5594  -17.9239   21.0692 C   0  0  0  0  0  0  0  0  0  0  0  0
    6.8844  -18.4950   22.3180 C   0  0  0  0  0  0  0  0  0  0  0  0
    6.7502  -19.9928   22.2183 C   0  0  0  0  0  0  0  0  0  0  0  0
    6.0673  -20.5172   23.4407 C   0  0  0  0  0  0  0  0  0  0  0  0
    6.0072  -21.9654   23.3340 N   0  0  0  0  0  0  0  0  0  0  0  0
    8.6555  -16.2885   22.4574 C   0  0  0  0  0  0  0  0  0  0  0  0
    9.8623  -16.6216   22.3722 O   0  0  0  0  0  0  0  0  0  0  0  0
   11.0342  -14.7093   30.9311 O   0  0  0  0  0  0  0  0  0  0  0  0
   10.3415  -14.8050   29.7213 C   0  0  0  0  0  0  0  0  0  0  0  0
   10.1736  -13.7090   28.9016 C   0  0  0  0  0  0  0  0  0  0  0  0
    9.4894  -13.8074   27.7083 C   0  0  0  0  0  0  0  0  0  0  0  0
    8.9395  -15.0019   27.2743 C   0  0  0  0  0  0  0  0  0  0  0  0
    8.2021  -15.0911   25.9890 C   0  0  0  0  0  0  0  0  0  0  0  0
    9.0678  -15.5346   24.8349 C   0  0  2  0  0  0  0  0  0  0  0  0
    8.1874  -15.7849   23.6939 N   0  0  0  0  0  0  0  0  0  0  0  0
    9.7883  -16.8053   25.0974 C   0  0  0  0  0  0  0  0  0  0  0  0
    9.1356  -18.0280   25.1992 O   0  0  0  0  0  0  0  0  0  0  0  0
    9.1109  -16.0952   28.0994 C   0  0  0  0  0  0  0  0  0  0  0  0
    9.7972  -15.9992   29.2974 C   0  0  0  0  0  0  0  0  0  0  0  0
   11.0563  -16.8597   25.2477 O   0  0  0  0  0  0  0  0  0  0  0  0
  1  2  1  0
  2  3  1  0
  3  4  1  1
  5  3  1  0
  5  6  2  0
  7  5  1  0
  8  7  1  0
  8  9  1  6
 10  9  1  0
 11 10  1  0
 12 11  1  0
 12 13  1  0
 14  8  1  0
 15 14  2  0
 16 17  1  0
 17 18  2  0
 17 27  1  0
 18 19  1  0
 19 20  2  0
 20 21  1  0
 22 21  1  1
 22 24  1  0
 22 23  1  0
 23 14  1  0
 24 25  1  0
 26 20  1  0
 27 26  2  0
 28 24  2  0
M  END
$$$$
