SKY.pdb
     RDKit          3D

 28 28  0  0  1  0  0  0  0  0999 V2000
   10.3269  -13.7797   17.1307 O   0  0  0  0  0  0  0  0  0  0  0  0
    9.8753  -13.9578   18.4544 C   0  0  0  0  0  0  0  0  0  0  0  0
    8.3808  -14.1353   18.4193 C   0  0  2  0  0  0  0  0  0  0  0  0
    7.6926  -12.8828   18.1722 N   0  0  0  0  0  0  0  0  0  0  0  0
    7.9094  -14.6764   19.7110 C   0  0  0  0  0  0  0  0  0  0  0  0
    7.6702  -13.8818   20.6462 O   0  0  0  0  0  0  0  0  0  0  0  0
    7.7245  -16.0638   19.9107 N   0  0  0  0  0  0  0  0  0  0  0  0
    7.1767  -16.6104   21.1117 C   0  0  1  0  0  0  0  0  0  0  0  0
    6.8441  -18.0797   20.9897 C   0  0  0  0  0  0  0  0  0  0  0  0
    6.2916  -18.5889   22.3226 C   0  0  0  0  0  0  0  0  0  0  0  0
    5.8055  -20.0097   22.1947 C   0  0  0  0  0  0  0  0  0  0  0  0
    5.2802  -20.4802   23.5131 C   0  0  0  0  0  0  0  0  0  0  0  0
    4.8976  -21.8751   23.3712 N   0  0  0  0  0  0  0  0  0  0  0  0
    8.0984  -16.4675   22.2668 C   0  0  0  0  0  0  0  0  0  0  0  0
    9.2872  -16.8452   22.1311 O   0  0  0  0  0  0  0  0  0  0  0  0
   10.7833  -14.4666   30.5853 O   0  0  0  0  0  0  0  0  0  0  0  0
   10.1188  -14.5354   29.3579 C   0  0  0  0  0  0  0  0  0  0  0  0
    8.7755  -14.8381   29.2850 C   0  0  0  0  0  0  0  0  0  0  0  0
    8.1231  -14.9050   28.0718 C   0  0  0  0  0  0  0  0  0  0  0  0
    8.7773  -14.6738   26.8734 C   0  0  0  0  0  0  0  0  0  0  0  0
    8.0621  -14.7534   25.5749 C   0  0  0  0  0  0  0  0  0  0  0  0
    8.6214  -15.8070   24.6502 C   0  0  2  0  0  0  0  0  0  0  0  0
    7.7074  -15.9272   23.5145 N   0  0  0  0  0  0  0  0  0  0  0  0
    8.6983  -17.1520   25.2729 C   0  0  0  0  0  0  0  0  0  0  0  0
    7.5947  -17.9892   25.3836 O   0  0  0  0  0  0  0  0  0  0  0  0
   10.1217  -14.3714   26.9533 C   0  0  0  0  0  0  0  0  0  0  0  0
   10.7789  -14.3036   28.1694 C   0  0  0  0  0  0  0  0  0  0  0  0
    9.7840  -17.6294   25.7489 O   0  0  0  0  0  0  0  0  0  0  0  0
  1  2  1  0
  2  3  1  0
  3  4  1  1
  5  3  1  0
  5  6  2  0
  7  5  1  0
  8  7  1  0
  8  9  1  6
 10  9  1  0
 11 10  1  0
 12 11  1  0
 12 13  1  0
 14  8  1  0
 15 14  2  0
 16 17  1  0
 17 18  2  0
 17 27  1  0
 18 19  1  0
 19 20  2  0
 20 21  1  0
 22 21  1  1
 22 24  1  0
 22 23  1  0
 23 14  1  0
 24 25  1  0
 26 20  1  0
 27 26  2  0
 28 24  2  0
M  END
$$$$
