QDE.pdb
     RDKit          3D

 27 26  0  0  1  0  0  0  0  0999 V2000
   14.4714  -10.2236  -15.6460 N   0  0  0  0  0  0  0  0  0  0  0  0
   15.1097  -11.3934  -16.1397 C   0  0  0  0  0  0  0  0  0  0  0  0
   14.4014  -12.2985  -16.6335 O   0  0  0  0  0  0  0  0  0  0  0  0
   16.5678  -11.5687  -16.0870 C   0  0  0  0  0  0  0  0  0  0  0  0
   17.2251  -10.3621  -15.4623 C   0  0  0  0  0  0  0  0  0  0  0  0
   18.5851  -10.0895  -16.0528 C   0  0  2  0  0  0  0  0  0  0  0  0
   19.5163  -11.1514  -15.8003 N   0  0  0  0  0  0  0  0  0  0  0  0
   19.1644   -8.8156  -15.5599 C   0  0  0  0  0  0  0  0  0  0  0  0
   19.1065   -8.5777  -14.3314 O   0  0  0  0  0  0  0  0  0  0  0  0
   19.7748   -7.8660  -16.4143 N   0  0  0  0  0  0  0  0  0  0  0  0
   20.3525   -6.6296  -15.9108 C   0  0  1  0  0  0  0  0  0  0  0  0
   21.7951   -6.4452  -16.3035 C   0  0  0  0  0  0  0  0  0  0  0  0
   22.6840   -7.4635  -15.7397 C   0  0  0  0  0  0  0  0  0  0  0  0
   22.7980   -7.5972  -14.4965 O   0  0  0  0  0  0  0  0  0  0  0  0
   19.5614   -5.4813  -16.4389 C   0  0  0  0  0  0  0  0  0  0  0  0
   18.7197   -5.6180  -17.3780 O   0  0  0  0  0  0  0  0  0  0  0  0
   23.4078   -8.2890  -16.5910 O   0  0  0  0  0  0  0  0  0  0  0  0
   19.6990   -4.1641  -15.9258 N   0  0  0  0  0  0  0  0  0  0  0  0
   18.8527   -3.0519  -16.2392 C   0  0  1  0  0  0  0  0  0  0  0  0
   17.4191   -3.4094  -16.0961 C   0  0  0  0  0  0  0  0  0  0  0  0
   16.4116   -2.3629  -16.3604 C   0  0  0  0  0  0  0  0  0  0  0  0
   15.0489   -2.7978  -16.0112 C   0  0  0  0  0  0  0  0  0  0  0  0
   14.7924   -3.9673  -15.6324 O   0  0  0  0  0  0  0  0  0  0  0  0
   19.2751   -1.7840  -15.6354 C   0  0  0  0  0  0  0  0  0  0  0  0
   20.0118   -1.7748  -14.6138 O   0  0  0  0  0  0  0  0  0  0  0  0
   13.9438   -1.9355  -16.0779 O   0  0  0  0  0  0  0  0  0  0  0  0
   18.9206   -0.5184  -16.1066 O   0  0  0  0  0  0  0  0  0  0  0  0
  2  1  1  0
  3  2  2  0
  4  2  1  0
  5  4  1  0
  6  5  1  0
  6  8  1  0
  6  7  1  1
  8  9  2  0
 10 11  1  0
 10  8  1  0
 11 15  1  0
 12 13  1  0
 11 12  1  6
 13 17  1  0
 14 13  2  0
 15 16  2  0
 18 19  1  0
 18 15  1  0
 19 24  1  0
 19 20  1  1
 21 20  1  0
 22 21  1  0
 23 22  2  0
 24 25  2  0
 24 27  1  0
 26 22  1  0
M  END
$$$$
