QDE.pdb
     RDKit          3D

 27 26  0  0  1  0  0  0  0  0999 V2000
   20.0118  -15.4024  -14.8946 N   0  0  0  0  0  0  0  0  0  0  0  0
   19.6346  -16.2864  -15.9415 C   0  0  0  0  0  0  0  0  0  0  0  0
   19.1357  -17.3931  -15.6396 O   0  0  0  0  0  0  0  0  0  0  0  0
   19.8128  -15.9398  -17.3584 C   0  0  0  0  0  0  0  0  0  0  0  0
   20.4661  -14.5860  -17.4954 C   0  0  0  0  0  0  0  0  0  0  0  0
   19.5144  -13.4630  -17.1697 C   0  0  2  0  0  0  0  0  0  0  0  0
   18.2072  -13.6734  -17.7223 N   0  0  0  0  0  0  0  0  0  0  0  0
   20.0234  -12.1470  -17.6284 C   0  0  0  0  0  0  0  0  0  0  0  0
   21.2156  -11.8558  -17.3776 O   0  0  0  0  0  0  0  0  0  0  0  0
   19.2232  -11.2148  -18.3319 N   0  0  0  0  0  0  0  0  0  0  0  0
   19.7429   -9.9337  -18.7842 C   0  0  1  0  0  0  0  0  0  0  0  0
   19.2365   -9.5347  -20.1457 C   0  0  0  0  0  0  0  0  0  0  0  0
   19.7491  -10.3809  -21.2256 C   0  0  0  0  0  0  0  0  0  0  0  0
   18.9993  -11.2038  -21.8057 O   0  0  0  0  0  0  0  0  0  0  0  0
   19.3514   -8.8837  -17.8005 C   0  0  0  0  0  0  0  0  0  0  0  0
   18.1821   -8.8194  -17.3129 O   0  0  0  0  0  0  0  0  0  0  0  0
   21.0795  -10.2701  -21.6104 O   0  0  0  0  0  0  0  0  0  0  0  0
   20.2601   -7.8907  -17.3474 N   0  0  0  0  0  0  0  0  0  0  0  0
   19.9594   -6.8440  -16.4169 C   0  0  1  0  0  0  0  0  0  0  0  0
   21.1372   -6.5187  -15.5740 C   0  0  0  0  0  0  0  0  0  0  0  0
   20.9878   -5.4700  -14.5453 C   0  0  0  0  0  0  0  0  0  0  0  0
   22.2096   -5.2967  -13.7421 C   0  0  0  0  0  0  0  0  0  0  0  0
   22.8394   -6.2689  -13.2572 O   0  0  0  0  0  0  0  0  0  0  0  0
   19.2370   -5.7086  -16.9995 C   0  0  0  0  0  0  0  0  0  0  0  0
   18.3934   -5.0680  -16.3180 O   0  0  0  0  0  0  0  0  0  0  0  0
   22.7538   -4.0336  -13.4636 O   0  0  0  0  0  0  0  0  0  0  0  0
   19.4007   -5.2441  -18.3059 O   0  0  0  0  0  0  0  0  0  0  0  0
  2  1  1  0
  3  2  2  0
  4  2  1  0
  5  4  1  0
  6  5  1  0
  6  8  1  0
  6  7  1  6
  8  9  2  0
 10 11  1  0
 10  8  1  0
 11 15  1  0
 12 13  1  0
 11 12  1  6
 13 17  1  0
 14 13  2  0
 15 16  2  0
 18 19  1  0
 18 15  1  0
 19 24  1  0
 19 20  1  6
 21 20  1  0
 22 21  1  0
 23 22  2  0
 24 25  2  0
 24 27  1  0
 26 22  1  0
M  END
$$$$
