QDE.pdb
     RDKit          3D

 27 26  0  0  1  0  0  0  0  0999 V2000
   27.6192  -22.3173  -17.8722 N   0  0  0  0  0  0  0  0  0  0  0  0
   28.4442  -21.1855  -17.6312 C   0  0  0  0  0  0  0  0  0  0  0  0
   29.2114  -20.7997  -18.5407 O   0  0  0  0  0  0  0  0  0  0  0  0
   28.4216  -20.4608  -16.3530 C   0  0  0  0  0  0  0  0  0  0  0  0
   27.4237  -21.0838  -15.4073 C   0  0  0  0  0  0  0  0  0  0  0  0
   26.3094  -20.1321  -15.0531 C   0  0  2  0  0  0  0  0  0  0  0  0
   26.7926  -18.9137  -14.4695 N   0  0  0  0  0  0  0  0  0  0  0  0
   25.3201  -20.7458  -14.1334 C   0  0  0  0  0  0  0  0  0  0  0  0
   24.7317  -21.7859  -14.5089 O   0  0  0  0  0  0  0  0  0  0  0  0
   25.0166  -20.2082  -12.8593 N   0  0  0  0  0  0  0  0  0  0  0  0
   23.9564  -20.7490  -12.0230 C   0  0  1  0  0  0  0  0  0  0  0  0
   24.2081  -20.5609  -10.5497 C   0  0  0  0  0  0  0  0  0  0  0  0
   25.3560  -21.3247  -10.0557 C   0  0  0  0  0  0  0  0  0  0  0  0
   25.8060  -22.2988  -10.7076 O   0  0  0  0  0  0  0  0  0  0  0  0
   22.6745  -20.0764  -12.3800 C   0  0  0  0  0  0  0  0  0  0  0  0
   22.6238  -18.8512  -12.7049 O   0  0  0  0  0  0  0  0  0  0  0  0
   25.9517  -20.9660   -8.8529 O   0  0  0  0  0  0  0  0  0  0  0  0
   21.4309  -20.7624  -12.3793 N   0  0  0  0  0  0  0  0  0  0  0  0
   20.2598  -20.3715  -13.1055 C   0  0  1  0  0  0  0  0  0  0  0  0
   20.5957  -19.9788  -14.4971 C   0  0  0  0  0  0  0  0  0  0  0  0
   19.5035  -19.4987  -15.3671 C   0  0  0  0  0  0  0  0  0  0  0  0
   19.6452  -19.9712  -16.7544 C   0  0  0  0  0  0  0  0  0  0  0  0
   20.4148  -20.9122  -17.0693 O   0  0  0  0  0  0  0  0  0  0  0  0
   19.1168  -21.2748  -12.9375 C   0  0  0  0  0  0  0  0  0  0  0  0
   19.2928  -22.5168  -12.8245 O   0  0  0  0  0  0  0  0  0  0  0  0
   18.9300  -19.4025  -17.8195 O   0  0  0  0  0  0  0  0  0  0  0  0
   17.7810  -20.8712  -12.8892 O   0  0  0  0  0  0  0  0  0  0  0  0
  2  1  1  0
  3  2  2  0
  4  2  1  0
  5  4  1  0
  6  5  1  0
  6  8  1  0
  6  7  1  1
  8  9  2  0
 10 11  1  0
 10  8  1  0
 11 15  1  0
 12 13  1  0
 11 12  1  1
 13 17  1  0
 14 13  2  0
 15 16  2  0
 18 19  1  0
 18 15  1  0
 19 24  1  0
 19 20  1  6
 21 20  1  0
 22 21  1  0
 23 22  2  0
 24 25  2  0
 24 27  1  0
 26 22  1  0
M  END
$$$$
