QDE.pdb
     RDKit          3D

 27 26  0  0  1  0  0  0  0  0999 V2000
   21.6726  -31.1105   -0.1210 N   0  0  0  0  0  0  0  0  0  0  0  0
   21.0621  -30.8959   -1.3862 C   0  0  0  0  0  0  0  0  0  0  0  0
   21.2550  -31.7349   -2.2938 O   0  0  0  0  0  0  0  0  0  0  0  0
   20.2167  -29.7247   -1.6567 C   0  0  0  0  0  0  0  0  0  0  0  0
   20.0539  -28.8886   -0.4106 C   0  0  0  0  0  0  0  0  0  0  0  0
   19.0754  -27.7594   -0.6108 C   0  0  2  0  0  0  0  0  0  0  0  0
   19.6277  -26.6848   -1.3845 N   0  0  0  0  0  0  0  0  0  0  0  0
   18.5757  -27.2167    0.6765 C   0  0  0  0  0  0  0  0  0  0  0  0
   19.2826  -26.3734    1.2751 O   0  0  0  0  0  0  0  0  0  0  0  0
   17.3430  -27.6099    1.2510 N   0  0  0  0  0  0  0  0  0  0  0  0
   16.8602  -27.0529    2.5051 C   0  0  1  0  0  0  0  0  0  0  0  0
   15.3705  -27.1901    2.6813 C   0  0  0  0  0  0  0  0  0  0  0  0
   14.6004  -26.2694    1.8421 C   0  0  0  0  0  0  0  0  0  0  0  0
   15.0138  -25.1044    1.6226 O   0  0  0  0  0  0  0  0  0  0  0  0
   17.5425  -27.7500    3.6329 C   0  0  0  0  0  0  0  0  0  0  0  0
   18.0926  -28.8841    3.4903 O   0  0  0  0  0  0  0  0  0  0  0  0
   13.4002  -26.6915    1.2840 O   0  0  0  0  0  0  0  0  0  0  0  0
   17.6202  -27.1904    4.9360 N   0  0  0  0  0  0  0  0  0  0  0  0
   18.2583  -27.7928    6.0681 C   0  0  1  0  0  0  0  0  0  0  0  0
   19.2090  -26.8529    6.7132 C   0  0  0  0  0  0  0  0  0  0  0  0
   19.9593  -27.3241    7.8944 C   0  0  0  0  0  0  0  0  0  0  0  0
   20.8844  -26.3027    8.4131 C   0  0  0  0  0  0  0  0  0  0  0  0
   20.9818  -25.1607    7.9001 O   0  0  0  0  0  0  0  0  0  0  0  0
   17.3464  -28.5169    6.9595 C   0  0  0  0  0  0  0  0  0  0  0  0
   17.7802  -29.4172    7.7261 O   0  0  0  0  0  0  0  0  0  0  0  0
   21.7203  -26.5355    9.5159 O   0  0  0  0  0  0  0  0  0  0  0  0
   15.9706  -28.2949    7.0454 O   0  0  0  0  0  0  0  0  0  0  0  0
  2  1  1  0
  3  2  2  0
  4  2  1  0
  5  4  1  0
  6  5  1  0
  6  8  1  0
  6  7  1  1
  8  9  2  0
 10 11  1  0
 10  8  1  0
 11 15  1  0
 12 13  1  0
 11 12  1  1
 13 17  1  0
 14 13  2  0
 15 16  2  0
 18 19  1  0
 18 15  1  0
 19 24  1  0
 19 20  1  1
 21 20  1  0
 22 21  1  0
 23 22  2  0
 24 25  2  0
 24 27  1  0
 26 22  1  0
M  END
$$$$
