QDE.pdb
     RDKit          3D

 27 26  0  0  1  0  0  0  0  0999 V2000
   16.1292  -12.8554  -14.1536 N   0  0  0  0  0  0  0  0  0  0  0  0
   15.6950  -12.6720  -15.4943 C   0  0  0  0  0  0  0  0  0  0  0  0
   14.7400  -13.3624  -15.9138 O   0  0  0  0  0  0  0  0  0  0  0  0
   16.3315  -11.7011  -16.3953 C   0  0  0  0  0  0  0  0  0  0  0  0
   17.4831  -11.0119  -15.7046 C   0  0  0  0  0  0  0  0  0  0  0  0
   18.7101  -10.9475  -16.5782 C   0  0  2  0  0  0  0  0  0  0  0  0
   19.1709  -12.2471  -16.9745 N   0  0  0  0  0  0  0  0  0  0  0  0
   19.8261  -10.2214  -15.9235 C   0  0  0  0  0  0  0  0  0  0  0  0
   19.8587  -10.1952  -14.6716 O   0  0  0  0  0  0  0  0  0  0  0  0
   20.8470   -9.5624  -16.6500 N   0  0  0  0  0  0  0  0  0  0  0  0
   21.9431   -8.8696  -15.9908 C   0  0  1  0  0  0  0  0  0  0  0  0
   23.2800   -9.1233  -16.6370 C   0  0  0  0  0  0  0  0  0  0  0  0
   23.7442  -10.5041  -16.4855 C   0  0  0  0  0  0  0  0  0  0  0  0
   23.6204  -11.3284  -17.4243 O   0  0  0  0  0  0  0  0  0  0  0  0
   21.6684   -7.4044  -16.0169 C   0  0  0  0  0  0  0  0  0  0  0  0
   21.4250   -6.7834  -17.0959 O   0  0  0  0  0  0  0  0  0  0  0  0
   24.3275  -10.9039  -15.2896 O   0  0  0  0  0  0  0  0  0  0  0  0
   21.6616   -6.6117  -14.8384 N   0  0  0  0  0  0  0  0  0  0  0  0
   21.4063   -5.2035  -14.7792 C   0  0  1  0  0  0  0  0  0  0  0  0
   19.9547   -4.9146  -14.8930 C   0  0  0  0  0  0  0  0  0  0  0  0
   19.5175   -3.5066  -14.8132 C   0  0  0  0  0  0  0  0  0  0  0  0
   18.0568   -3.3670  -14.9353 C   0  0  0  0  0  0  0  0  0  0  0  0
   17.2955   -4.3564  -15.0711 O   0  0  0  0  0  0  0  0  0  0  0  0
   22.1320   -4.5035  -13.7144 C   0  0  0  0  0  0  0  0  0  0  0  0
   22.5152   -5.1221  -12.6863 O   0  0  0  0  0  0  0  0  0  0  0  0
   17.4156   -2.1190  -14.9084 O   0  0  0  0  0  0  0  0  0  0  0  0
   22.4562   -3.1455  -13.7290 O   0  0  0  0  0  0  0  0  0  0  0  0
  2  1  1  0
  3  2  2  0
  4  2  1  0
  5  4  1  0
  6  5  1  0
  6  8  1  0
  6  7  1  1
  8  9  2  0
 10 11  1  0
 10  8  1  0
 11 15  1  0
 12 13  1  0
 11 12  1  6
 13 17  1  0
 14 13  2  0
 15 16  2  0
 18 19  1  0
 18 15  1  0
 19 24  1  0
 19 20  1  1
 21 20  1  0
 22 21  1  0
 23 22  2  0
 24 25  2  0
 24 27  1  0
 26 22  1  0
M  END
$$$$
