QDE.pdb
     RDKit          3D

 27 26  0  0  1  0  0  0  0  0999 V2000
   11.3687  -10.3259  -14.7064 N   0  0  0  0  0  0  0  0  0  0  0  0
   12.1646  -11.4969  -14.8276 C   0  0  0  0  0  0  0  0  0  0  0  0
   11.5982  -12.5809  -15.0901 O   0  0  0  0  0  0  0  0  0  0  0  0
   13.6237  -11.4707  -14.6546 C   0  0  0  0  0  0  0  0  0  0  0  0
   14.0832  -10.0968  -14.2309 C   0  0  0  0  0  0  0  0  0  0  0  0
   15.5863   -9.9803  -14.2231 C   0  0  2  0  0  0  0  0  0  0  0  0
   16.2181  -11.0725  -13.5404 N   0  0  0  0  0  0  0  0  0  0  0  0
   16.0459   -8.7058  -13.6186 C   0  0  0  0  0  0  0  0  0  0  0  0
   15.6648   -7.6334  -14.1421 O   0  0  0  0  0  0  0  0  0  0  0  0
   16.8907   -8.6526  -12.4837 N   0  0  0  0  0  0  0  0  0  0  0  0
   17.3172   -7.3931  -11.8939 C   0  0  1  0  0  0  0  0  0  0  0  0
   17.0780   -7.3220  -10.4083 C   0  0  0  0  0  0  0  0  0  0  0  0
   17.4736   -6.0413   -9.8182 C   0  0  0  0  0  0  0  0  0  0  0  0
   17.8830   -5.1012  -10.5427 O   0  0  0  0  0  0  0  0  0  0  0  0
   18.7741   -7.2115  -12.1541 C   0  0  0  0  0  0  0  0  0  0  0  0
   19.5898   -8.1826  -12.1270 O   0  0  0  0  0  0  0  0  0  0  0  0
   17.3942   -5.8669   -8.4422 O   0  0  0  0  0  0  0  0  0  0  0  0
   19.3408   -5.9428  -12.4483 N   0  0  0  0  0  0  0  0  0  0  0  0
   20.6145   -5.7182  -13.0637 C   0  0  1  0  0  0  0  0  0  0  0  0
   20.8417   -6.6592  -14.1891 C   0  0  0  0  0  0  0  0  0  0  0  0
   22.1142   -6.5610  -14.9317 C   0  0  0  0  0  0  0  0  0  0  0  0
   22.1772   -7.5047  -16.0602 C   0  0  0  0  0  0  0  0  0  0  0  0
   21.1846   -7.7478  -16.7899 O   0  0  0  0  0  0  0  0  0  0  0  0
   20.9208   -4.3068  -13.3179 C   0  0  0  0  0  0  0  0  0  0  0  0
   20.0001   -3.4888  -13.5819 O   0  0  0  0  0  0  0  0  0  0  0  0
   23.3504   -8.1968  -16.3973 O   0  0  0  0  0  0  0  0  0  0  0  0
   22.2016   -3.7516  -13.2957 O   0  0  0  0  0  0  0  0  0  0  0  0
  2  1  1  0
  3  2  2  0
  4  2  1  0
  5  4  1  0
  6  5  1  0
  6  8  1  0
  6  7  1  1
  8  9  2  0
 10 11  1  0
 10  8  1  0
 11 15  1  0
 12 13  1  0
 11 12  1  1
 13 17  1  0
 14 13  2  0
 15 16  2  0
 18 19  1  0
 18 15  1  0
 19 24  1  0
 19 20  1  6
 21 20  1  0
 22 21  1  0
 23 22  2  0
 24 25  2  0
 24 27  1  0
 26 22  1  0
M  END
$$$$
