QDE.pdb
     RDKit          3D

 27 26  0  0  1  0  0  0  0  0999 V2000
   17.1966  -12.5468  -11.9299 N   0  0  0  0  0  0  0  0  0  0  0  0
   16.0907  -13.4393  -11.9296 C   0  0  0  0  0  0  0  0  0  0  0  0
   16.3126  -14.6671  -12.0189 O   0  0  0  0  0  0  0  0  0  0  0  0
   14.7038  -12.9641  -11.8280 C   0  0  0  0  0  0  0  0  0  0  0  0
   14.6667  -11.4618  -11.6859 C   0  0  0  0  0  0  0  0  0  0  0  0
   14.3569  -11.0345  -10.2738 C   0  0  2  0  0  0  0  0  0  0  0  0
   13.0650  -11.4796   -9.8363 N   0  0  0  0  0  0  0  0  0  0  0  0
   14.4411   -9.5632  -10.1028 C   0  0  0  0  0  0  0  0  0  0  0  0
   13.3769   -8.9293   -9.9159 O   0  0  0  0  0  0  0  0  0  0  0  0
   15.6648   -8.8524  -10.1420 N   0  0  0  0  0  0  0  0  0  0  0  0
   15.7324   -7.4145   -9.9328 C   0  0  1  0  0  0  0  0  0  0  0  0
   15.4167   -7.0048   -8.5180 C   0  0  0  0  0  0  0  0  0  0  0  0
   15.3371   -5.5534   -8.3389 C   0  0  0  0  0  0  0  0  0  0  0  0
   16.3461   -4.8951   -7.9858 O   0  0  0  0  0  0  0  0  0  0  0  0
   17.1063   -6.9451  -10.2725 C   0  0  0  0  0  0  0  0  0  0  0  0
   18.1438   -7.5799   -9.9121 O   0  0  0  0  0  0  0  0  0  0  0  0
   14.1314   -4.9003   -8.5625 O   0  0  0  0  0  0  0  0  0  0  0  0
   17.3412   -5.7602  -11.0194 N   0  0  0  0  0  0  0  0  0  0  0  0
   18.5345   -5.4552  -11.7506 C   0  0  1  0  0  0  0  0  0  0  0  0
   19.0327   -6.6437  -12.4874 C   0  0  0  0  0  0  0  0  0  0  0  0
   20.3564   -7.1851  -12.1203 C   0  0  0  0  0  0  0  0  0  0  0  0
   20.6582   -8.4455  -12.8190 C   0  0  0  0  0  0  0  0  0  0  0  0
   21.1904   -8.4736  -13.9560 O   0  0  0  0  0  0  0  0  0  0  0  0
   18.4771   -4.1962  -12.5003 C   0  0  0  0  0  0  0  0  0  0  0  0
   19.4950   -3.7612  -13.1012 O   0  0  0  0  0  0  0  0  0  0  0  0
   20.3719   -9.7014  -12.2622 O   0  0  0  0  0  0  0  0  0  0  0  0
   17.3442   -3.3888  -12.6186 O   0  0  0  0  0  0  0  0  0  0  0  0
  2  1  1  0
  3  2  2  0
  4  2  1  0
  5  4  1  0
  6  5  1  0
  6  8  1  0
  6  7  1  6
  8  9  2  0
 10 11  1  0
 10  8  1  0
 11 15  1  0
 12 13  1  0
 11 12  1  1
 13 17  1  0
 14 13  2  0
 15 16  2  0
 18 19  1  0
 18 15  1  0
 19 24  1  0
 19 20  1  6
 21 20  1  0
 22 21  1  0
 23 22  2  0
 24 25  2  0
 24 27  1  0
 26 22  1  0
M  END
$$$$
