QDE.pdb
     RDKit          3D

 27 26  0  0  1  0  0  0  0  0999 V2000
   16.3121  -10.1590    7.1987 N   0  0  0  0  0  0  0  0  0  0  0  0
   17.3019  -11.1782    7.1635 C   0  0  0  0  0  0  0  0  0  0  0  0
   17.3417  -12.0063    8.1002 O   0  0  0  0  0  0  0  0  0  0  0  0
   18.2729  -11.2861    6.0658 C   0  0  0  0  0  0  0  0  0  0  0  0
   19.3494  -12.2878    6.4062 C   0  0  0  0  0  0  0  0  0  0  0  0
   20.3724  -11.7182    7.3559 C   0  0  2  0  0  0  0  0  0  0  0  0
   21.2795  -10.8146    6.7085 N   0  0  0  0  0  0  0  0  0  0  0  0
   21.1555  -12.7784    8.0371 C   0  0  0  0  0  0  0  0  0  0  0  0
   22.1348  -13.2703    7.4304 O   0  0  0  0  0  0  0  0  0  0  0  0
   20.8435  -13.2529    9.3339 N   0  0  0  0  0  0  0  0  0  0  0  0
   21.6245  -14.2916    9.9874 C   0  0  1  0  0  0  0  0  0  0  0  0
   22.1721  -13.8693   11.3258 C   0  0  0  0  0  0  0  0  0  0  0  0
   22.9567  -14.9144   11.9869 C   0  0  0  0  0  0  0  0  0  0  0  0
   23.3720  -14.7576   13.1613 O   0  0  0  0  0  0  0  0  0  0  0  0
   20.7603  -15.4912   10.1800 C   0  0  0  0  0  0  0  0  0  0  0  0
   19.6033  -15.4129   10.6942 O   0  0  0  0  0  0  0  0  0  0  0  0
   23.2432  -16.0908   11.3056 O   0  0  0  0  0  0  0  0  0  0  0  0
   21.1756  -16.7954    9.8009 N   0  0  0  0  0  0  0  0  0  0  0  0
   20.4132  -17.9968    9.9653 C   0  0  1  0  0  0  0  0  0  0  0  0
   19.5682  -18.2649    8.7746 C   0  0  0  0  0  0  0  0  0  0  0  0
   20.0608  -19.2353    7.7766 C   0  0  0  0  0  0  0  0  0  0  0  0
   18.9995  -19.6796    6.8578 C   0  0  0  0  0  0  0  0  0  0  0  0
   18.6917  -20.8893    6.7203 O   0  0  0  0  0  0  0  0  0  0  0  0
   21.1798  -19.1298   10.4933 C   0  0  0  0  0  0  0  0  0  0  0  0
   22.4387  -19.1272   10.4510 O   0  0  0  0  0  0  0  0  0  0  0  0
   18.2597  -18.7819    6.0729 O   0  0  0  0  0  0  0  0  0  0  0  0
   20.6210  -20.2731   11.0679 O   0  0  0  0  0  0  0  0  0  0  0  0
  2  1  1  0
  3  2  2  0
  4  2  1  0
  5  4  1  0
  6  5  1  0
  6  8  1  0
  6  7  1  6
  8  9  2  0
 10 11  1  0
 10  8  1  0
 11 15  1  0
 12 13  1  0
 11 12  1  1
 13 17  1  0
 14 13  2  0
 15 16  2  0
 18 19  1  0
 18 15  1  0
 19 24  1  0
 19 20  1  6
 21 20  1  0
 22 21  1  0
 23 22  2  0
 24 25  2  0
 24 27  1  0
 26 22  1  0
M  END
$$$$
