QDE.pdb
     RDKit          3D

 27 26  0  0  1  0  0  0  0  0999 V2000
   27.6747  -21.9446  -15.2009 N   0  0  0  0  0  0  0  0  0  0  0  0
   28.2381  -23.1829  -15.6117 C   0  0  0  0  0  0  0  0  0  0  0  0
   29.3761  -23.4907  -15.1935 O   0  0  0  0  0  0  0  0  0  0  0  0
   27.5267  -24.1056  -16.5074 C   0  0  0  0  0  0  0  0  0  0  0  0
   26.1462  -23.5819  -16.8209 C   0  0  0  0  0  0  0  0  0  0  0  0
   25.1323  -24.0061  -15.7889 C   0  0  2  0  0  0  0  0  0  0  0  0
   24.8747  -25.4171  -15.8198 N   0  0  0  0  0  0  0  0  0  0  0  0
   23.8468  -23.2800  -15.9355 C   0  0  0  0  0  0  0  0  0  0  0  0
   23.0826  -23.6163  -16.8694 O   0  0  0  0  0  0  0  0  0  0  0  0
   23.4520  -22.2312  -15.0703 N   0  0  0  0  0  0  0  0  0  0  0  0
   22.1448  -21.6001  -15.1643 C   0  0  1  0  0  0  0  0  0  0  0  0
   21.6853  -20.9899  -13.8659 C   0  0  0  0  0  0  0  0  0  0  0  0
   20.9094  -21.9127  -13.0344 C   0  0  0  0  0  0  0  0  0  0  0  0
   20.6465  -23.0722  -13.4378 O   0  0  0  0  0  0  0  0  0  0  0  0
   22.2024  -20.5314  -16.2024 C   0  0  0  0  0  0  0  0  0  0  0  0
   23.0443  -19.5841  -16.1485 O   0  0  0  0  0  0  0  0  0  0  0  0
   20.4604  -21.4987  -11.7865 O   0  0  0  0  0  0  0  0  0  0  0  0
   21.3206  -20.5053  -17.3155 N   0  0  0  0  0  0  0  0  0  0  0  0
   21.3134  -19.5186  -18.3538 C   0  0  1  0  0  0  0  0  0  0  0  0
   20.6469  -20.0302  -19.5776 C   0  0  0  0  0  0  0  0  0  0  0  0
   20.1286  -19.0471  -20.5498 C   0  0  0  0  0  0  0  0  0  0  0  0
   19.4159  -19.6884  -21.6673 C   0  0  0  0  0  0  0  0  0  0  0  0
   18.6696  -20.6853  -21.5055 O   0  0  0  0  0  0  0  0  0  0  0  0
   20.9241  -18.1770  -17.9079 C   0  0  0  0  0  0  0  0  0  0  0  0
   21.4933  -17.1557  -18.3764 O   0  0  0  0  0  0  0  0  0  0  0  0
   19.5217  -19.2295  -22.9892 O   0  0  0  0  0  0  0  0  0  0  0  0
   19.9320  -17.9064  -16.9635 O   0  0  0  0  0  0  0  0  0  0  0  0
  2  1  1  0
  3  2  2  0
  4  2  1  0
  5  4  1  0
  6  5  1  0
  6  8  1  0
  6  7  1  6
  8  9  2  0
 10 11  1  0
 10  8  1  0
 11 15  1  0
 12 13  1  0
 11 12  1  1
 13 17  1  0
 14 13  2  0
 15 16  2  0
 18 19  1  0
 18 15  1  0
 19 24  1  0
 19 20  1  6
 21 20  1  0
 22 21  1  0
 23 22  2  0
 24 25  2  0
 24 27  1  0
 26 22  1  0
M  END
$$$$
