QDE.pdb
     RDKit          3D

 27 26  0  0  1  0  0  0  0  0999 V2000
   27.3314  -35.1117   -4.0873 N   0  0  0  0  0  0  0  0  0  0  0  0
   28.2891  -34.8952   -5.1147 C   0  0  0  0  0  0  0  0  0  0  0  0
   27.9028  -34.4070   -6.1997 O   0  0  0  0  0  0  0  0  0  0  0  0
   29.7102  -35.2260   -4.9398 C   0  0  0  0  0  0  0  0  0  0  0  0
   29.9483  -35.8431   -3.5831 C   0  0  0  0  0  0  0  0  0  0  0  0
   30.8435  -34.9886   -2.7220 C   0  0  2  0  0  0  0  0  0  0  0  0
   32.2111  -35.0168   -3.1545 N   0  0  0  0  0  0  0  0  0  0  0  0
   30.7840  -35.3794   -1.2920 C   0  0  0  0  0  0  0  0  0  0  0  0
   31.7151  -36.0803   -0.8329 O   0  0  0  0  0  0  0  0  0  0  0  0
   29.7265  -34.9957   -0.4325 N   0  0  0  0  0  0  0  0  0  0  0  0
   29.6774  -35.4007    0.9638 C   0  0  1  0  0  0  0  0  0  0  0  0
   28.7100  -34.5880    1.7841 C   0  0  0  0  0  0  0  0  0  0  0  0
   29.2245  -33.2650    2.1444 C   0  0  0  0  0  0  0  0  0  0  0  0
   30.4499  -33.0892    2.3538 O   0  0  0  0  0  0  0  0  0  0  0  0
   29.2771  -36.8354    1.0326 C   0  0  0  0  0  0  0  0  0  0  0  0
   28.4354  -37.3396    0.2286 O   0  0  0  0  0  0  0  0  0  0  0  0
   28.3457  -32.1946    2.2550 O   0  0  0  0  0  0  0  0  0  0  0  0
   29.8109  -37.7274    2.0004 N   0  0  0  0  0  0  0  0  0  0  0  0
   29.5041  -39.1221    2.1115 C   0  0  1  0  0  0  0  0  0  0  0  0
   30.7300  -39.9257    2.3458 C   0  0  0  0  0  0  0  0  0  0  0  0
   30.5900  -41.3913    2.4574 C   0  0  0  0  0  0  0  0  0  0  0  0
   31.8747  -42.0564    2.7313 C   0  0  0  0  0  0  0  0  0  0  0  0
   31.9723  -43.3009    2.8680 O   0  0  0  0  0  0  0  0  0  0  0  0
   28.3520  -39.4194    2.9686 C   0  0  0  0  0  0  0  0  0  0  0  0
   28.0579  -38.6632    3.9320 O   0  0  0  0  0  0  0  0  0  0  0  0
   33.0778  -41.3453    2.8583 O   0  0  0  0  0  0  0  0  0  0  0  0
   27.5046  -40.5182    2.8138 O   0  0  0  0  0  0  0  0  0  0  0  0
  2  1  1  0
  3  2  2  0
  4  2  1  0
  5  4  1  0
  6  5  1  0
  6  8  1  0
  6  7  1  6
  8  9  2  0
 10 11  1  0
 10  8  1  0
 11 15  1  0
 12 13  1  0
 11 12  1  1
 13 17  1  0
 14 13  2  0
 15 16  2  0
 18 19  1  0
 18 15  1  0
 19 24  1  0
 19 20  1  1
 21 20  1  0
 22 21  1  0
 23 22  2  0
 24 25  2  0
 24 27  1  0
 26 22  1  0
M  END
$$$$
