QHH.pdb
     RDKit          3D

 30 31  0  0  1  0  0  0  0  0999 V2000
   14.4232  -13.6956  -15.2086 N   0  0  0  0  0  0  0  0  0  0  0  0
   14.1652  -14.2708  -16.4815 C   0  0  0  0  0  0  0  0  0  0  0  0
   13.1330  -15.0014  -16.5803 O   0  0  0  0  0  0  0  0  0  0  0  0
   15.0737  -14.0246  -17.6563 C   0  0  0  0  0  0  0  0  0  0  0  0
   16.1776  -13.1419  -17.1872 C   0  0  0  0  0  0  0  0  0  0  0  0
   17.5467  -13.7153  -17.2824 C   0  0  2  0  0  0  0  0  0  0  0  0
   17.4805  -15.0760  -16.7355 N   0  0  0  0  0  0  0  0  0  0  0  0
   18.6191  -12.9281  -16.6860 C   0  0  0  0  0  0  0  0  0  0  0  0
   18.6642  -12.8020  -15.4356 O   0  0  0  0  0  0  0  0  0  0  0  0
   19.6502  -12.2696  -17.4124 N   0  0  0  0  0  0  0  0  0  0  0  0
   20.6491  -11.4178  -16.8194 C   0  0  1  0  0  0  0  0  0  0  0  0
   22.0405  -11.7494  -17.2889 C   0  0  0  0  0  0  0  0  0  0  0  0
   23.0722  -10.8981  -16.6753 C   0  0  0  0  0  0  0  0  0  0  0  0
   23.8394  -11.2698  -15.5988 C   0  0  0  0  0  0  0  0  0  0  0  0
   24.6589  -10.2367  -15.3321 N   0  0  0  0  0  0  0  0  0  0  0  0
   24.4321   -9.2426  -16.1964 C   0  0  0  0  0  0  0  0  0  0  0  0
   23.4596   -9.6625  -17.0106 N   0  0  0  0  0  0  0  0  0  0  0  0
   20.3710   -9.9829  -16.9922 C   0  0  0  0  0  0  0  0  0  0  0  0
   20.0078   -9.4457  -18.0702 O   0  0  0  0  0  0  0  0  0  0  0  0
   20.5236   -9.1403  -15.8563 N   0  0  0  0  0  0  0  0  0  0  0  0
   20.2664   -7.6964  -16.0065 C   0  0  1  0  0  0  0  0  0  0  0  0
   19.0969   -7.3947  -15.0818 C   0  0  0  0  0  0  0  0  0  0  0  0
   17.8403   -7.1495  -15.7694 C   0  0  0  0  0  0  0  0  0  0  0  0
   17.6181   -7.1988  -17.1197 C   0  0  0  0  0  0  0  0  0  0  0  0
   16.3151   -6.9078  -17.3344 N   0  0  0  0  0  0  0  0  0  0  0  0
   15.7373   -6.6822  -16.1484 C   0  0  0  0  0  0  0  0  0  0  0  0
   16.6776   -6.8319  -15.1928 N   0  0  0  0  0  0  0  0  0  0  0  0
   21.4523   -6.9969  -15.4475 C   0  0  0  0  0  0  0  0  0  0  0  0
   21.6634   -5.6363  -15.5820 O   0  0  0  0  0  0  0  0  0  0  0  0
   22.2887   -7.7164  -14.8235 O   0  0  0  0  0  0  0  0  0  0  0  0
  2  1  1  0
  2  3  2  0
  4  5  1  0
  4  2  1  0
  6  7  1  1
  6  5  1  0
  8  6  1  0
  9  8  2  0
 10  8  1  0
 11 10  1  0
 11 12  1  6
 12 13  1  0
 13 14  2  0
 14 15  1  0
 16 15  1  0
 17 13  1  0
 17 16  2  0
 18 20  1  0
 18 11  1  0
 19 18  2  0
 21 28  1  0
 21 20  1  0
 21 22  1  1
 23 22  1  0
 23 24  2  0
 25 24  1  0
 26 25  1  0
 27 26  2  0
 27 23  1  0
 28 29  1  0
 30 28  2  0
M  END
$$$$
