QHH.pdb
     RDKit          3D

 30 31  0  0  1  0  0  0  0  0999 V2000
   12.5422  -23.7701    3.7953 N   0  0  0  0  0  0  0  0  0  0  0  0
   12.0408  -23.9992    2.4861 C   0  0  0  0  0  0  0  0  0  0  0  0
   10.9104  -24.5679    2.3981 O   0  0  0  0  0  0  0  0  0  0  0  0
   12.8146  -23.5866    1.2626 C   0  0  0  0  0  0  0  0  0  0  0  0
   14.1116  -23.0209    1.7266 C   0  0  0  0  0  0  0  0  0  0  0  0
   14.7872  -22.0946    0.7791 C   0  0  2  0  0  0  0  0  0  0  0  0
   15.2521  -22.9042   -0.3537 N   0  0  0  0  0  0  0  0  0  0  0  0
   15.8442  -21.2592    1.3362 C   0  0  0  0  0  0  0  0  0  0  0  0
   17.0011  -21.7364    1.4602 O   0  0  0  0  0  0  0  0  0  0  0  0
   15.6804  -19.9125    1.7654 N   0  0  0  0  0  0  0  0  0  0  0  0
   16.7273  -19.1068    2.3397 C   0  0  1  0  0  0  0  0  0  0  0  0
   16.4590  -17.6318    2.2026 C   0  0  0  0  0  0  0  0  0  0  0  0
   17.6139  -16.8003    2.5777 C   0  0  0  0  0  0  0  0  0  0  0  0
   18.7668  -17.2898    3.1403 C   0  0  0  0  0  0  0  0  0  0  0  0
   19.5795  -16.2359    3.3371 N   0  0  0  0  0  0  0  0  0  0  0  0
   18.9796  -15.1163    2.9210 C   0  0  0  0  0  0  0  0  0  0  0  0
   17.7791  -15.4783    2.4596 N   0  0  0  0  0  0  0  0  0  0  0  0
   17.0299  -19.4517    3.7381 C   0  0  0  0  0  0  0  0  0  0  0  0
   16.1675  -19.6615    4.6296 O   0  0  0  0  0  0  0  0  0  0  0  0
   18.3991  -19.5562    4.1098 N   0  0  0  0  0  0  0  0  0  0  0  0
   18.7294  -19.8956    5.5060 C   0  0  1  0  0  0  0  0  0  0  0  0
   20.1766  -20.3629    5.4780 C   0  0  0  0  0  0  0  0  0  0  0  0
   20.6950  -20.7774    6.7709 C   0  0  0  0  0  0  0  0  0  0  0  0
   19.9687  -21.2088    7.8486 C   0  0  0  0  0  0  0  0  0  0  0  0
   20.8377  -21.4940    8.8446 N   0  0  0  0  0  0  0  0  0  0  0  0
   22.0761  -21.2472    8.4008 C   0  0  0  0  0  0  0  0  0  0  0  0
   21.9819  -20.8080    7.1288 N   0  0  0  0  0  0  0  0  0  0  0  0
   18.7007  -18.6201    6.2677 C   0  0  0  0  0  0  0  0  0  0  0  0
   18.7946  -17.3766    5.6684 O   0  0  0  0  0  0  0  0  0  0  0  0
   18.5834  -18.7176    7.5260 O   0  0  0  0  0  0  0  0  0  0  0  0
  2  1  1  0
  2  3  2  0
  4  5  1  0
  4  2  1  0
  6  7  1  6
  6  5  1  0
  8  6  1  0
  9  8  2  0
 10  8  1  0
 11 10  1  0
 11 12  1  1
 12 13  1  0
 13 14  2  0
 14 15  1  0
 16 15  1  0
 17 13  1  0
 17 16  2  0
 18 20  1  0
 18 11  1  0
 19 18  2  0
 21 28  1  0
 21 20  1  0
 21 22  1  6
 23 22  1  0
 23 24  2  0
 25 24  1  0
 26 25  1  0
 27 26  2  0
 27 23  1  0
 28 29  1  0
 30 28  2  0
M  END
$$$$
