QHH.pdb
     RDKit          3D

 30 31  0  0  1  0  0  0  0  0999 V2000
   27.2646  -21.2574  -20.6346 N   0  0  0  0  0  0  0  0  0  0  0  0
   25.8701  -21.0445  -20.4678 C   0  0  0  0  0  0  0  0  0  0  0  0
   25.1522  -21.1148  -21.5111 O   0  0  0  0  0  0  0  0  0  0  0  0
   25.2740  -20.7496  -19.1174 C   0  0  0  0  0  0  0  0  0  0  0  0
   26.3917  -20.7269  -18.1334 C   0  0  0  0  0  0  0  0  0  0  0  0
   26.4653  -21.8938  -17.2140 C   0  0  2  0  0  0  0  0  0  0  0  0
   26.2736  -23.0972  -18.0325 N   0  0  0  0  0  0  0  0  0  0  0  0
   25.5782  -21.8611  -16.0574 C   0  0  0  0  0  0  0  0  0  0  0  0
   24.4056  -22.3008  -16.1719 O   0  0  0  0  0  0  0  0  0  0  0  0
   25.9296  -21.3616  -14.7723 N   0  0  0  0  0  0  0  0  0  0  0  0
   25.0204  -21.2624  -13.6595 C   0  0  1  0  0  0  0  0  0  0  0  0
   25.7232  -20.9320  -12.3698 C   0  0  0  0  0  0  0  0  0  0  0  0
   24.8473  -21.0458  -11.1926 C   0  0  0  0  0  0  0  0  0  0  0  0
   23.5340  -21.4432  -11.2434 C   0  0  0  0  0  0  0  0  0  0  0  0
   23.0739  -21.4226   -9.9793 N   0  0  0  0  0  0  0  0  0  0  0  0
   24.0451  -21.0299   -9.1493 C   0  0  0  0  0  0  0  0  0  0  0  0
   25.1225  -20.8034   -9.9062 N   0  0  0  0  0  0  0  0  0  0  0  0
   23.9056  -20.3311  -13.8967 C   0  0  0  0  0  0  0  0  0  0  0  0
   24.0349  -19.1272  -14.2380 O   0  0  0  0  0  0  0  0  0  0  0  0
   22.5837  -20.8286  -13.7279 N   0  0  0  0  0  0  0  0  0  0  0  0
   21.4484  -19.9430  -14.0450 C   0  0  1  0  0  0  0  0  0  0  0  0
   20.9609  -20.3842  -15.4166 C   0  0  0  0  0  0  0  0  0  0  0  0
   19.7986  -19.6574  -15.8991 C   0  0  0  0  0  0  0  0  0  0  0  0
   19.4393  -18.3751  -15.5800 C   0  0  0  0  0  0  0  0  0  0  0  0
   18.2971  -18.0889  -16.2447 N   0  0  0  0  0  0  0  0  0  0  0  0
   17.9509  -19.1651  -16.9613 C   0  0  0  0  0  0  0  0  0  0  0  0
   18.8755  -20.1233  -16.7451 N   0  0  0  0  0  0  0  0  0  0  0  0
   20.3721  -20.2745  -13.0755 C   0  0  0  0  0  0  0  0  0  0  0  0
   19.4036  -19.3697  -12.6789 O   0  0  0  0  0  0  0  0  0  0  0  0
   20.3752  -21.4541  -12.6116 O   0  0  0  0  0  0  0  0  0  0  0  0
  2  1  1  0
  2  3  2  0
  4  5  1  0
  4  2  1  0
  6  7  1  6
  6  5  1  0
  8  6  1  0
  9  8  2  0
 10  8  1  0
 11 10  1  0
 11 12  1  1
 12 13  1  0
 13 14  2  0
 14 15  1  0
 16 15  1  0
 17 13  1  0
 17 16  2  0
 18 20  1  0
 18 11  1  0
 19 18  2  0
 21 28  1  0
 21 20  1  0
 21 22  1  6
 23 22  1  0
 23 24  2  0
 25 24  1  0
 26 25  1  0
 27 26  2  0
 27 23  1  0
 28 29  1  0
 30 28  2  0
M  END
$$$$
