QHH.pdb
     RDKit          3D

 30 31  0  0  1  0  0  0  0  0999 V2000
   21.4823  -11.9259  -23.6344 N   0  0  0  0  0  0  0  0  0  0  0  0
   20.7980  -10.8815  -22.9570 C   0  0  0  0  0  0  0  0  0  0  0  0
   20.5046   -9.8534  -23.6395 O   0  0  0  0  0  0  0  0  0  0  0  0
   20.4388  -10.9905  -21.4993 C   0  0  0  0  0  0  0  0  0  0  0  0
   20.9831  -12.2847  -21.0029 C   0  0  0  0  0  0  0  0  0  0  0  0
   20.0746  -13.0736  -20.1284 C   0  0  2  0  0  0  0  0  0  0  0  0
   18.8270  -13.2734  -20.8758 N   0  0  0  0  0  0  0  0  0  0  0  0
   19.8424  -12.5409  -18.7913 C   0  0  0  0  0  0  0  0  0  0  0  0
   18.8679  -11.7693  -18.5999 O   0  0  0  0  0  0  0  0  0  0  0  0
   20.6425  -12.8233  -17.6491 N   0  0  0  0  0  0  0  0  0  0  0  0
   20.4461  -12.2331  -16.3500 C   0  0  1  0  0  0  0  0  0  0  0  0
   20.9123  -13.1297  -15.2341 C   0  0  0  0  0  0  0  0  0  0  0  0
   20.1023  -14.3512  -15.1019 C   0  0  0  0  0  0  0  0  0  0  0  0
   18.9941  -14.6285  -15.8637 C   0  0  0  0  0  0  0  0  0  0  0  0
   18.5308  -15.8230  -15.4532 N   0  0  0  0  0  0  0  0  0  0  0  0
   19.3039  -16.2964  -14.4710 C   0  0  0  0  0  0  0  0  0  0  0  0
   20.2598  -15.3852  -14.2680 N   0  0  0  0  0  0  0  0  0  0  0  0
   21.0396  -10.8924  -16.2212 C   0  0  0  0  0  0  0  0  0  0  0  0
   22.0952  -10.5156  -16.7926 O   0  0  0  0  0  0  0  0  0  0  0  0
   20.3704   -9.9523  -15.3894 N   0  0  0  0  0  0  0  0  0  0  0  0
   20.8515   -8.5589  -15.3670 C   0  0  1  0  0  0  0  0  0  0  0  0
   20.5857   -8.0158  -16.7628 C   0  0  0  0  0  0  0  0  0  0  0  0
   20.9664   -6.6251  -16.9445 C   0  0  0  0  0  0  0  0  0  0  0  0
   21.7956   -5.8874  -16.1423 C   0  0  0  0  0  0  0  0  0  0  0  0
   21.8821   -4.6452  -16.6693 N   0  0  0  0  0  0  0  0  0  0  0  0
   21.1261   -4.6071  -17.7732 C   0  0  0  0  0  0  0  0  0  0  0  0
   20.5673   -5.8239  -17.9365 N   0  0  0  0  0  0  0  0  0  0  0  0
   19.9584   -7.8198  -14.4373 C   0  0  0  0  0  0  0  0  0  0  0  0
   20.3712   -6.7252  -13.6987 O   0  0  0  0  0  0  0  0  0  0  0  0
   18.7675   -8.2434  -14.3440 O   0  0  0  0  0  0  0  0  0  0  0  0
  2  1  1  0
  2  3  2  0
  4  5  1  0
  4  2  1  0
  6  7  1  6
  6  5  1  0
  8  6  1  0
  9  8  2  0
 10  8  1  0
 11 10  1  0
 11 12  1  1
 12 13  1  0
 13 14  2  0
 14 15  1  0
 16 15  1  0
 17 13  1  0
 17 16  2  0
 18 20  1  0
 18 11  1  0
 19 18  2  0
 21 28  1  0
 21 20  1  0
 21 22  1  6
 23 22  1  0
 23 24  2  0
 25 24  1  0
 26 25  1  0
 27 26  2  0
 27 23  1  0
 28 29  1  0
 30 28  2  0
M  END
$$$$
