QHH.pdb
     RDKit          3D

 30 31  0  0  1  0  0  0  0  0999 V2000
   20.8987  -15.7767  -16.8592 N   0  0  0  0  0  0  0  0  0  0  0  0
   21.0493  -15.6056  -18.2613 C   0  0  0  0  0  0  0  0  0  0  0  0
   20.0354  -15.8583  -18.9803 O   0  0  0  0  0  0  0  0  0  0  0  0
   22.3501  -15.1467  -18.8640 C   0  0  0  0  0  0  0  0  0  0  0  0
   22.7426  -13.8892  -18.1694 C   0  0  0  0  0  0  0  0  0  0  0  0
   22.1149  -12.6438  -18.6865 C   0  0  2  0  0  0  0  0  0  0  0  0
   22.3825  -12.5960  -20.1291 N   0  0  0  0  0  0  0  0  0  0  0  0
   22.4852  -11.4059  -18.0112 C   0  0  0  0  0  0  0  0  0  0  0  0
   22.3339  -11.3184  -16.7658 O   0  0  0  0  0  0  0  0  0  0  0  0
   23.0181  -10.2532  -18.6529 N   0  0  0  0  0  0  0  0  0  0  0  0
   23.3093   -9.0101  -17.9858 C   0  0  1  0  0  0  0  0  0  0  0  0
   24.1898   -8.1080  -18.8088 C   0  0  0  0  0  0  0  0  0  0  0  0
   24.5264   -6.8508  -18.1218 C   0  0  0  0  0  0  0  0  0  0  0  0
   23.8972   -5.6525  -18.3533 C   0  0  0  0  0  0  0  0  0  0  0  0
   24.4769   -4.7478  -17.5437 N   0  0  0  0  0  0  0  0  0  0  0  0
   25.4369   -5.3342  -16.8218 C   0  0  0  0  0  0  0  0  0  0  0  0
   25.4546   -6.6193  -17.1869 N   0  0  0  0  0  0  0  0  0  0  0  0
   22.1059   -8.2920  -17.5364 C   0  0  0  0  0  0  0  0  0  0  0  0
   21.1173   -8.0193  -18.2651 O   0  0  0  0  0  0  0  0  0  0  0  0
   22.0559   -7.8753  -16.1772 N   0  0  0  0  0  0  0  0  0  0  0  0
   20.8872   -7.1038  -15.7160 C   0  0  1  0  0  0  0  0  0  0  0  0
   20.2627   -7.9377  -14.6077 C   0  0  0  0  0  0  0  0  0  0  0  0
   19.3519   -8.9682  -15.0773 C   0  0  0  0  0  0  0  0  0  0  0  0
   19.0458   -9.2649  -16.3786 C   0  0  0  0  0  0  0  0  0  0  0  0
   18.1610  -10.2874  -16.3717 N   0  0  0  0  0  0  0  0  0  0  0  0
   17.9199  -10.6215  -15.0982 C   0  0  0  0  0  0  0  0  0  0  0  0
   18.6530   -9.8091  -14.3094 N   0  0  0  0  0  0  0  0  0  0  0  0
   21.4205   -5.8702  -15.0818 C   0  0  0  0  0  0  0  0  0  0  0  0
   22.7715   -5.6340  -14.9004 O   0  0  0  0  0  0  0  0  0  0  0  0
   20.5641   -5.0165  -14.7018 O   0  0  0  0  0  0  0  0  0  0  0  0
  2  1  1  0
  2  3  2  0
  4  5  1  0
  4  2  1  0
  6  7  1  6
  6  5  1  0
  8  6  1  0
  9  8  2  0
 10  8  1  0
 11 10  1  0
 11 12  1  6
 12 13  1  0
 13 14  2  0
 14 15  1  0
 16 15  1  0
 17 13  1  0
 17 16  2  0
 18 20  1  0
 18 11  1  0
 19 18  2  0
 21 28  1  0
 21 20  1  0
 21 22  1  1
 23 22  1  0
 23 24  2  0
 25 24  1  0
 26 25  1  0
 27 26  2  0
 27 23  1  0
 28 29  1  0
 30 28  2  0
M  END
$$$$
