QHH.pdb
     RDKit          3D

 30 31  0  0  1  0  0  0  0  0999 V2000
   18.1275  -15.1411  -15.1760 N   0  0  0  0  0  0  0  0  0  0  0  0
   19.0183  -16.0580  -15.7953 C   0  0  0  0  0  0  0  0  0  0  0  0
   18.5403  -17.1859  -16.1244 O   0  0  0  0  0  0  0  0  0  0  0  0
   20.4601  -15.7072  -16.0484 C   0  0  0  0  0  0  0  0  0  0  0  0
   20.6504  -14.2877  -15.6402 C   0  0  0  0  0  0  0  0  0  0  0  0
   22.0018  -13.7198  -15.8921 C   0  0  2  0  0  0  0  0  0  0  0  0
   22.9775  -14.7089  -15.4180 N   0  0  0  0  0  0  0  0  0  0  0  0
   22.2532  -12.3886  -15.3534 C   0  0  0  0  0  0  0  0  0  0  0  0
   22.3970  -12.2470  -14.1121 O   0  0  0  0  0  0  0  0  0  0  0  0
   22.3535  -11.1994  -16.1282 N   0  0  0  0  0  0  0  0  0  0  0  0
   22.5662   -9.8845  -15.5798 C   0  0  1  0  0  0  0  0  0  0  0  0
   23.8861   -9.7655  -14.8656 C   0  0  0  0  0  0  0  0  0  0  0  0
   25.0249  -10.2107  -15.6846 C   0  0  0  0  0  0  0  0  0  0  0  0
   24.9063  -10.7598  -16.9375 C   0  0  0  0  0  0  0  0  0  0  0  0
   26.1538  -11.0356  -17.3592 N   0  0  0  0  0  0  0  0  0  0  0  0
   27.0383  -10.6812  -16.4219 C   0  0  0  0  0  0  0  0  0  0  0  0
   26.3325  -10.1787  -15.4049 N   0  0  0  0  0  0  0  0  0  0  0  0
   22.4124   -8.8063  -16.5697 C   0  0  0  0  0  0  0  0  0  0  0  0
   22.6240   -8.9279  -17.8038 O   0  0  0  0  0  0  0  0  0  0  0  0
   21.9929   -7.5320  -16.0967 N   0  0  0  0  0  0  0  0  0  0  0  0
   21.8188   -6.4382  -17.0698 C   0  0  1  0  0  0  0  0  0  0  0  0
   21.0040   -5.3773  -16.3456 C   0  0  0  0  0  0  0  0  0  0  0  0
   19.5829   -5.6699  -16.2624 C   0  0  0  0  0  0  0  0  0  0  0  0
   18.9293   -6.7391  -16.8147 C   0  0  0  0  0  0  0  0  0  0  0  0
   17.6192   -6.6304  -16.4980 N   0  0  0  0  0  0  0  0  0  0  0  0
   17.4577   -5.5214  -15.7664 C   0  0  0  0  0  0  0  0  0  0  0  0
   18.6652   -4.9369  -15.6254 N   0  0  0  0  0  0  0  0  0  0  0  0
   23.1689   -5.8630  -17.3030 C   0  0  0  0  0  0  0  0  0  0  0  0
   23.4255   -4.8917  -18.2542 O   0  0  0  0  0  0  0  0  0  0  0  0
   24.1053   -6.3097  -16.5748 O   0  0  0  0  0  0  0  0  0  0  0  0
  2  1  1  0
  2  3  2  0
  4  5  1  0
  4  2  1  0
  6  7  1  1
  6  5  1  0
  8  6  1  0
  9  8  2  0
 10  8  1  0
 11 10  1  0
 11 12  1  6
 12 13  1  0
 13 14  2  0
 14 15  1  0
 16 15  1  0
 17 13  1  0
 17 16  2  0
 18 20  1  0
 18 11  1  0
 19 18  2  0
 21 28  1  0
 21 20  1  0
 21 22  1  1
 23 22  1  0
 23 24  2  0
 25 24  1  0
 26 25  1  0
 27 26  2  0
 27 23  1  0
 28 29  1  0
 30 28  2  0
M  END
$$$$
