QHH.pdb
     RDKit          3D

 30 31  0  0  1  0  0  0  0  0999 V2000
   32.1626  -24.8120  -16.3563 N   0  0  0  0  0  0  0  0  0  0  0  0
   32.0673  -24.4892  -17.7364 C   0  0  0  0  0  0  0  0  0  0  0  0
   32.9379  -25.0001  -18.5045 O   0  0  0  0  0  0  0  0  0  0  0  0
   30.9850  -23.5841  -18.2611 C   0  0  0  0  0  0  0  0  0  0  0  0
   30.1772  -23.1340  -17.0938 C   0  0  0  0  0  0  0  0  0  0  0  0
   28.7357  -23.4989  -17.1278 C   0  0  2  0  0  0  0  0  0  0  0  0
   28.4139  -23.8454  -18.5175 N   0  0  0  0  0  0  0  0  0  0  0  0
   27.8091  -22.5212  -16.5699 C   0  0  0  0  0  0  0  0  0  0  0  0
   28.0713  -21.9927  -15.4593 O   0  0  0  0  0  0  0  0  0  0  0  0
   26.5985  -22.0984  -17.1866 N   0  0  0  0  0  0  0  0  0  0  0  0
   25.6870  -21.1378  -16.6198 C   0  0  1  0  0  0  0  0  0  0  0  0
   24.5481  -20.8082  -17.5476 C   0  0  0  0  0  0  0  0  0  0  0  0
   23.6709  -19.7477  -17.0265 C   0  0  0  0  0  0  0  0  0  0  0  0
   23.9901  -18.4122  -17.0278 C   0  0  0  0  0  0  0  0  0  0  0  0
   22.9480  -17.7644  -16.4760 N   0  0  0  0  0  0  0  0  0  0  0  0
   21.9986  -18.6407  -16.1337 C   0  0  0  0  0  0  0  0  0  0  0  0
   22.4557  -19.8484  -16.4767 N   0  0  0  0  0  0  0  0  0  0  0  0
   25.1806  -21.5246  -15.2932 C   0  0  0  0  0  0  0  0  0  0  0  0
   24.6825  -22.6452  -15.0124 O   0  0  0  0  0  0  0  0  0  0  0  0
   25.2602  -20.5604  -14.2503 N   0  0  0  0  0  0  0  0  0  0  0  0
   24.8276  -20.9466  -12.8948 C   0  0  1  0  0  0  0  0  0  0  0  0
   25.6787  -20.1167  -11.9458 C   0  0  0  0  0  0  0  0  0  0  0  0
   25.3450  -20.2864  -10.5416 C   0  0  0  0  0  0  0  0  0  0  0  0
   24.3554  -21.0767  -10.0209 C   0  0  0  0  0  0  0  0  0  0  0  0
   24.3871  -20.9451   -8.6754 N   0  0  0  0  0  0  0  0  0  0  0  0
   25.3716  -20.0940   -8.3629 C   0  0  0  0  0  0  0  0  0  0  0  0
   25.9551  -19.6936   -9.5113 N   0  0  0  0  0  0  0  0  0  0  0  0
   23.4272  -20.4716  -12.7484 C   0  0  0  0  0  0  0  0  0  0  0  0
   22.5433  -20.9913  -11.8196 O   0  0  0  0  0  0  0  0  0  0  0  0
   23.0621  -19.5437  -13.5309 O   0  0  0  0  0  0  0  0  0  0  0  0
  2  1  1  0
  2  3  2  0
  4  5  1  0
  4  2  1  0
  6  7  1  6
  6  5  1  0
  8  6  1  0
  9  8  2  0
 10  8  1  0
 11 10  1  0
 11 12  1  6
 12 13  1  0
 13 14  2  0
 14 15  1  0
 16 15  1  0
 17 13  1  0
 17 16  2  0
 18 20  1  0
 18 11  1  0
 19 18  2  0
 21 28  1  0
 21 20  1  0
 21 22  1  1
 23 22  1  0
 23 24  2  0
 25 24  1  0
 26 25  1  0
 27 26  2  0
 27 23  1  0
 28 29  1  0
 30 28  2  0
M  END
$$$$
