QHH.pdb
     RDKit          3D

 30 31  0  0  1  0  0  0  0  0999 V2000
   21.4253  -12.0130  -22.0969 N   0  0  0  0  0  0  0  0  0  0  0  0
   22.6257  -12.5123  -21.5246 C   0  0  0  0  0  0  0  0  0  0  0  0
   23.2286  -13.4252  -22.1666 O   0  0  0  0  0  0  0  0  0  0  0  0
   23.1561  -11.9831  -20.2190 C   0  0  0  0  0  0  0  0  0  0  0  0
   22.1477  -11.0263  -19.6848 C   0  0  0  0  0  0  0  0  0  0  0  0
   22.4858  -10.3937  -18.3818 C   0  0  2  0  0  0  0  0  0  0  0  0
   22.8711  -11.4754  -17.4673 N   0  0  0  0  0  0  0  0  0  0  0  0
   21.4729   -9.5155  -17.8086 C   0  0  0  0  0  0  0  0  0  0  0  0
   20.7318   -8.8512  -18.5774 O   0  0  0  0  0  0  0  0  0  0  0  0
   21.2402   -9.3365  -16.4164 N   0  0  0  0  0  0  0  0  0  0  0  0
   20.1854   -8.5261  -15.8636 C   0  0  1  0  0  0  0  0  0  0  0  0
   19.6105   -9.1122  -14.6017 C   0  0  0  0  0  0  0  0  0  0  0  0
   18.7559  -10.2843  -14.8497 C   0  0  0  0  0  0  0  0  0  0  0  0
   18.5269  -10.8234  -16.0917 C   0  0  0  0  0  0  0  0  0  0  0  0
   17.7040  -11.8726  -15.9128 N   0  0  0  0  0  0  0  0  0  0  0  0
   17.4143  -12.0059  -14.6148 C   0  0  0  0  0  0  0  0  0  0  0  0
   18.0649  -11.0276  -13.9785 N   0  0  0  0  0  0  0  0  0  0  0  0
   20.5754   -7.1226  -15.6536 C   0  0  0  0  0  0  0  0  0  0  0  0
   21.6189   -6.7477  -15.0593 O   0  0  0  0  0  0  0  0  0  0  0  0
   19.7088   -6.1146  -16.1601 N   0  0  0  0  0  0  0  0  0  0  0  0
   20.0356   -4.7017  -15.8947 C   0  0  1  0  0  0  0  0  0  0  0  0
   20.4014   -4.1093  -17.2472 C   0  0  0  0  0  0  0  0  0  0  0  0
   20.6757   -2.6824  -17.2192 C   0  0  0  0  0  0  0  0  0  0  0  0
   21.9034   -2.0821  -17.1322 C   0  0  0  0  0  0  0  0  0  0  0  0
   21.7098   -0.7439  -17.1373 N   0  0  0  0  0  0  0  0  0  0  0  0
   20.3943   -0.5132  -17.2252 C   0  0  0  0  0  0  0  0  0  0  0  0
   19.7657   -1.7057  -17.2750 N   0  0  0  0  0  0  0  0  0  0  0  0
   18.7710   -4.0506  -15.4645 C   0  0  0  0  0  0  0  0  0  0  0  0
   18.7231   -2.7942  -14.8871 O   0  0  0  0  0  0  0  0  0  0  0  0
   17.7052   -4.7103  -15.6524 O   0  0  0  0  0  0  0  0  0  0  0  0
  2  1  1  0
  2  3  2  0
  4  5  1  0
  4  2  1  0
  6  7  1  1
  6  5  1  0
  8  6  1  0
  9  8  2  0
 10  8  1  0
 11 10  1  0
 11 12  1  1
 12 13  1  0
 13 14  2  0
 14 15  1  0
 16 15  1  0
 17 13  1  0
 17 16  2  0
 18 20  1  0
 18 11  1  0
 19 18  2  0
 21 28  1  0
 21 20  1  0
 21 22  1  6
 23 22  1  0
 23 24  2  0
 25 24  1  0
 26 25  1  0
 27 26  2  0
 27 23  1  0
 28 29  1  0
 30 28  2  0
M  END
$$$$
