QHH.pdb
     RDKit          3D

 30 31  0  0  1  0  0  0  0  0999 V2000
   26.2634  -12.4312  -15.8784 N   0  0  0  0  0  0  0  0  0  0  0  0
   26.2706  -13.6084  -16.6733 C   0  0  0  0  0  0  0  0  0  0  0  0
   27.1581  -14.4740  -16.4051 O   0  0  0  0  0  0  0  0  0  0  0  0
   25.2725  -13.8177  -17.7806 C   0  0  0  0  0  0  0  0  0  0  0  0
   24.4088  -12.6059  -17.8355 C   0  0  0  0  0  0  0  0  0  0  0  0
   23.0802  -12.7305  -17.1785 C   0  0  2  0  0  0  0  0  0  0  0  0
   22.3722  -13.8282  -17.8482 N   0  0  0  0  0  0  0  0  0  0  0  0
   22.2792  -11.5144  -17.1065 C   0  0  0  0  0  0  0  0  0  0  0  0
   21.8459  -11.0023  -18.1702 O   0  0  0  0  0  0  0  0  0  0  0  0
   21.9330  -10.8342  -15.9057 N   0  0  0  0  0  0  0  0  0  0  0  0
   21.1974   -9.5968  -15.8526 C   0  0  1  0  0  0  0  0  0  0  0  0
   19.9011   -9.7298  -15.0988 C   0  0  0  0  0  0  0  0  0  0  0  0
   18.9464  -10.6388  -15.7532 C   0  0  0  0  0  0  0  0  0  0  0  0
   18.7489  -11.9465  -15.3840 C   0  0  0  0  0  0  0  0  0  0  0  0
   17.8085  -12.4437  -16.2077 N   0  0  0  0  0  0  0  0  0  0  0  0
   17.4160  -11.5008  -17.0699 C   0  0  0  0  0  0  0  0  0  0  0  0
   18.1208  -10.4037  -16.7790 N   0  0  0  0  0  0  0  0  0  0  0  0
   21.9872   -8.4692  -15.3324 C   0  0  0  0  0  0  0  0  0  0  0  0
   22.9125   -8.5694  -14.4859 O   0  0  0  0  0  0  0  0  0  0  0  0
   21.6826   -7.1691  -15.8228 N   0  0  0  0  0  0  0  0  0  0  0  0
   22.4346   -6.0179  -15.2910 C   0  0  1  0  0  0  0  0  0  0  0  0
   22.0648   -4.8442  -16.1852 C   0  0  0  0  0  0  0  0  0  0  0  0
   22.7287   -4.8465  -17.4779 C   0  0  0  0  0  0  0  0  0  0  0  0
   23.4132   -5.8857  -18.0495 C   0  0  0  0  0  0  0  0  0  0  0  0
   23.8709   -5.4673  -19.2511 N   0  0  0  0  0  0  0  0  0  0  0  0
   23.4824   -4.1986  -19.4265 C   0  0  0  0  0  0  0  0  0  0  0  0
   22.7825   -3.8237  -18.3359 N   0  0  0  0  0  0  0  0  0  0  0  0
   21.8715   -5.7320  -13.9460 C   0  0  0  0  0  0  0  0  0  0  0  0
   22.4623   -4.8638  -13.0453 O   0  0  0  0  0  0  0  0  0  0  0  0
   20.7961   -6.3321  -13.6461 O   0  0  0  0  0  0  0  0  0  0  0  0
  2  1  1  0
  2  3  2  0
  4  5  1  0
  4  2  1  0
  6  7  1  6
  6  5  1  0
  8  6  1  0
  9  8  2  0
 10  8  1  0
 11 10  1  0
 11 12  1  1
 12 13  1  0
 13 14  2  0
 14 15  1  0
 16 15  1  0
 17 13  1  0
 17 16  2  0
 18 20  1  0
 18 11  1  0
 19 18  2  0
 21 28  1  0
 21 20  1  0
 21 22  1  6
 23 22  1  0
 23 24  2  0
 25 24  1  0
 26 25  1  0
 27 26  2  0
 27 23  1  0
 28 29  1  0
 30 28  2  0
M  END
$$$$
