QHH.pdb
     RDKit          3D

 30 31  0  0  1  0  0  0  0  0999 V2000
   27.3079  -12.5780  -15.4837 N   0  0  0  0  0  0  0  0  0  0  0  0
   27.3030  -11.6873  -16.5903 C   0  0  0  0  0  0  0  0  0  0  0  0
   28.0654  -10.6764  -16.5139 O   0  0  0  0  0  0  0  0  0  0  0  0
   26.4344  -11.9320  -17.7951 C   0  0  0  0  0  0  0  0  0  0  0  0
   25.3923  -10.8683  -17.8153 C   0  0  0  0  0  0  0  0  0  0  0  0
   24.0791  -11.2406  -17.2245 C   0  0  2  0  0  0  0  0  0  0  0  0
   23.4669  -12.2241  -18.1261 N   0  0  0  0  0  0  0  0  0  0  0  0
   23.1777  -10.1390  -16.9090 C   0  0  0  0  0  0  0  0  0  0  0  0
   22.7132   -9.4399  -17.8455 O   0  0  0  0  0  0  0  0  0  0  0  0
   22.7637   -9.7721  -15.5981 N   0  0  0  0  0  0  0  0  0  0  0  0
   21.8519   -8.6970  -15.3021 C   0  0  1  0  0  0  0  0  0  0  0  0
   20.8189   -9.0841  -14.2776 C   0  0  0  0  0  0  0  0  0  0  0  0
   19.8189  -10.0297  -14.7987 C   0  0  0  0  0  0  0  0  0  0  0  0
   19.7742  -10.4664  -16.0997 C   0  0  0  0  0  0  0  0  0  0  0  0
   18.7318  -11.3123  -16.1888 N   0  0  0  0  0  0  0  0  0  0  0  0
   18.1301  -11.4177  -14.9999 C   0  0  0  0  0  0  0  0  0  0  0  0
   18.8065  -10.6278  -14.1611 N   0  0  0  0  0  0  0  0  0  0  0  0
   22.5269   -7.4485  -14.9126 C   0  0  0  0  0  0  0  0  0  0  0  0
   23.4865   -7.3726  -14.1026 O   0  0  0  0  0  0  0  0  0  0  0  0
   22.0606   -6.2374  -15.4952 N   0  0  0  0  0  0  0  0  0  0  0  0
   22.7597   -4.9807  -15.1703 C   0  0  1  0  0  0  0  0  0  0  0  0
   22.7342   -4.1601  -16.4508 C   0  0  0  0  0  0  0  0  0  0  0  0
   23.6223   -4.6503  -17.4915 C   0  0  0  0  0  0  0  0  0  0  0  0
   24.9615   -4.9114  -17.3747 C   0  0  0  0  0  0  0  0  0  0  0  0
   25.4029   -5.3497  -18.5753 N   0  0  0  0  0  0  0  0  0  0  0  0
   24.3659   -5.3624  -19.4215 C   0  0  0  0  0  0  0  0  0  0  0  0
   23.2771   -4.9325  -18.7510 N   0  0  0  0  0  0  0  0  0  0  0  0
   21.9084   -4.2684  -14.1824 C   0  0  0  0  0  0  0  0  0  0  0  0
   22.2538   -3.0520  -13.6211 O   0  0  0  0  0  0  0  0  0  0  0  0
   20.8202   -4.8350  -13.8639 O   0  0  0  0  0  0  0  0  0  0  0  0
  2  1  1  0
  2  3  2  0
  4  5  1  0
  4  2  1  0
  6  7  1  6
  6  5  1  0
  8  6  1  0
  9  8  2  0
 10  8  1  0
 11 10  1  0
 11 12  1  1
 12 13  1  0
 13 14  2  0
 14 15  1  0
 16 15  1  0
 17 13  1  0
 17 16  2  0
 18 20  1  0
 18 11  1  0
 19 18  2  0
 21 28  1  0
 21 20  1  0
 21 22  1  6
 23 22  1  0
 23 24  2  0
 25 24  1  0
 26 25  1  0
 27 26  2  0
 27 23  1  0
 28 29  1  0
 30 28  2  0
M  END
$$$$
