QHH.pdb
     RDKit          3D

 30 31  0  0  1  0  0  0  0  0999 V2000
   25.4285  -12.4327  -19.8415 N   0  0  0  0  0  0  0  0  0  0  0  0
   25.2531  -12.7272  -21.2200 C   0  0  0  0  0  0  0  0  0  0  0  0
   26.2866  -13.0793  -21.8655 O   0  0  0  0  0  0  0  0  0  0  0  0
   23.9049  -12.6261  -21.8820 C   0  0  0  0  0  0  0  0  0  0  0  0
   22.9502  -12.0988  -20.8680 C   0  0  0  0  0  0  0  0  0  0  0  0
   22.4238  -13.0958  -19.8979 C   0  0  2  0  0  0  0  0  0  0  0  0
   21.6334  -14.0654  -20.6661 N   0  0  0  0  0  0  0  0  0  0  0  0
   21.6910  -12.5611  -18.7565 C   0  0  0  0  0  0  0  0  0  0  0  0
   20.6062  -11.9561  -18.9537 O   0  0  0  0  0  0  0  0  0  0  0  0
   22.1044  -12.6648  -17.3990 N   0  0  0  0  0  0  0  0  0  0  0  0
   21.3864  -12.1046  -16.2830 C   0  0  1  0  0  0  0  0  0  0  0  0
   21.6054  -12.8790  -15.0106 C   0  0  0  0  0  0  0  0  0  0  0  0
   20.8979  -14.1693  -14.9941 C   0  0  0  0  0  0  0  0  0  0  0  0
   20.0303  -14.5862  -15.9734 C   0  0  0  0  0  0  0  0  0  0  0  0
   19.5901  -15.8038  -15.6080 N   0  0  0  0  0  0  0  0  0  0  0  0
   20.1473  -16.1580  -14.4459 C   0  0  0  0  0  0  0  0  0  0  0  0
   20.9439  -15.1484  -14.0839 N   0  0  0  0  0  0  0  0  0  0  0  0
   21.6571  -10.6733  -16.0728 C   0  0  0  0  0  0  0  0  0  0  0  0
   22.7865  -10.1310  -16.1863 O   0  0  0  0  0  0  0  0  0  0  0  0
   20.5606   -9.8406  -15.7152 N   0  0  0  0  0  0  0  0  0  0  0  0
   20.8077   -8.4055  -15.4844 C   0  0  1  0  0  0  0  0  0  0  0  0
   20.2866   -7.6996  -16.7269 C   0  0  0  0  0  0  0  0  0  0  0  0
   20.3698   -6.2499  -16.6687 C   0  0  0  0  0  0  0  0  0  0  0  0
   21.4353   -5.5034  -16.2413 C   0  0  0  0  0  0  0  0  0  0  0  0
   21.0959   -4.1990  -16.3507 N   0  0  0  0  0  0  0  0  0  0  0  0
   19.8497   -4.1317  -16.8343 C   0  0  0  0  0  0  0  0  0  0  0  0
   19.4100   -5.3923  -17.0272 N   0  0  0  0  0  0  0  0  0  0  0  0
   19.9280   -8.0028  -14.3565 C   0  0  0  0  0  0  0  0  0  0  0  0
   20.1388   -6.8641  -13.5996 O   0  0  0  0  0  0  0  0  0  0  0  0
   18.9471   -8.7656  -14.1067 O   0  0  0  0  0  0  0  0  0  0  0  0
  2  1  1  0
  2  3  2  0
  4  5  1  0
  4  2  1  0
  6  7  1  6
  6  5  1  0
  8  6  1  0
  9  8  2  0
 10  8  1  0
 11 10  1  0
 11 12  1  1
 12 13  1  0
 13 14  2  0
 14 15  1  0
 16 15  1  0
 17 13  1  0
 17 16  2  0
 18 20  1  0
 18 11  1  0
 19 18  2  0
 21 28  1  0
 21 20  1  0
 21 22  1  6
 23 22  1  0
 23 24  2  0
 25 24  1  0
 26 25  1  0
 27 26  2  0
 27 23  1  0
 28 29  1  0
 30 28  2  0
M  END
$$$$
