QHH.pdb
     RDKit          3D

 30 31  0  0  1  0  0  0  0  0999 V2000
   26.4023  -35.8635  -15.6815 N   0  0  0  0  0  0  0  0  0  0  0  0
   26.3542  -36.0702  -14.2770 C   0  0  0  0  0  0  0  0  0  0  0  0
   26.5566  -37.2530  -13.8659 O   0  0  0  0  0  0  0  0  0  0  0  0
   26.0761  -34.9395  -13.3230 C   0  0  0  0  0  0  0  0  0  0  0  0
   25.9056  -33.7036  -14.1363 C   0  0  0  0  0  0  0  0  0  0  0  0
   24.5455  -33.4826  -14.6963 C   0  0  2  0  0  0  0  0  0  0  0  0
   24.6603  -32.4071  -15.6889 N   0  0  0  0  0  0  0  0  0  0  0  0
   23.4819  -33.2360  -13.7301 C   0  0  0  0  0  0  0  0  0  0  0  0
   23.2940  -32.0653  -13.3111 O   0  0  0  0  0  0  0  0  0  0  0  0
   22.6112  -34.2299  -13.2024 N   0  0  0  0  0  0  0  0  0  0  0  0
   21.5612  -33.9719  -12.2507 C   0  0  1  0  0  0  0  0  0  0  0  0
   20.3968  -34.9131  -12.4091 C   0  0  0  0  0  0  0  0  0  0  0  0
   19.2681  -34.5849  -11.5237 C   0  0  0  0  0  0  0  0  0  0  0  0
   19.1564  -33.4124  -10.8180 C   0  0  0  0  0  0  0  0  0  0  0  0
   18.0013  -33.4817  -10.1319 N   0  0  0  0  0  0  0  0  0  0  0  0
   17.3938  -34.6457  -10.3824 C   0  0  0  0  0  0  0  0  0  0  0  0
   18.1808  -35.3085  -11.2348 N   0  0  0  0  0  0  0  0  0  0  0  0
   22.0284  -33.9545  -10.8552 C   0  0  0  0  0  0  0  0  0  0  0  0
   21.4371  -33.3779   -9.9062 O   0  0  0  0  0  0  0  0  0  0  0  0
   23.2382  -34.6405  -10.5563 N   0  0  0  0  0  0  0  0  0  0  0  0
   23.6786  -34.7194   -9.1515 C   0  0  1  0  0  0  0  0  0  0  0  0
   23.5039  -36.1770   -8.7532 C   0  0  0  0  0  0  0  0  0  0  0  0
   22.2231  -36.4774   -8.1357 C   0  0  0  0  0  0  0  0  0  0  0  0
   21.2856  -35.5767   -7.7056 C   0  0  0  0  0  0  0  0  0  0  0  0
   20.2456  -36.2748   -7.1961 N   0  0  0  0  0  0  0  0  0  0  0  0
   20.5258  -37.5791   -7.3050 C   0  0  0  0  0  0  0  0  0  0  0  0
   21.7395  -37.6968   -7.8818 N   0  0  0  0  0  0  0  0  0  0  0  0
   25.1385  -34.4424   -9.1516 C   0  0  0  0  0  0  0  0  0  0  0  0
   25.7973  -33.8458   -8.0914 O   0  0  0  0  0  0  0  0  0  0  0  0
   25.7769  -34.7842  -10.1920 O   0  0  0  0  0  0  0  0  0  0  0  0
  2  1  1  0
  2  3  2  0
  4  5  1  0
  4  2  1  0
  6  7  1  6
  6  5  1  0
  8  6  1  0
  9  8  2  0
 10  8  1  0
 11 10  1  0
 11 12  1  1
 12 13  1  0
 13 14  2  0
 14 15  1  0
 16 15  1  0
 17 13  1  0
 17 16  2  0
 18 20  1  0
 18 11  1  0
 19 18  2  0
 21 28  1  0
 21 20  1  0
 21 22  1  6
 23 22  1  0
 23 24  2  0
 25 24  1  0
 26 25  1  0
 27 26  2  0
 27 23  1  0
 28 29  1  0
 30 28  2  0
M  END
$$$$
