QHH.pdb
     RDKit          3D

 30 31  0  0  1  0  0  0  0  0999 V2000
   19.5506  -16.4605  -17.6332 N   0  0  0  0  0  0  0  0  0  0  0  0
   19.8860  -16.5498  -19.0107 C   0  0  0  0  0  0  0  0  0  0  0  0
   19.4452  -17.5576  -19.6423 O   0  0  0  0  0  0  0  0  0  0  0  0
   20.7243  -15.4985  -19.6873 C   0  0  0  0  0  0  0  0  0  0  0  0
   20.9995  -14.4346  -18.6823 C   0  0  0  0  0  0  0  0  0  0  0  0
   22.3287  -13.7756  -18.7881 C   0  0  2  0  0  0  0  0  0  0  0  0
   23.3372  -14.8423  -18.7866 N   0  0  0  0  0  0  0  0  0  0  0  0
   22.6151  -12.7384  -17.8043 C   0  0  0  0  0  0  0  0  0  0  0  0
   22.2150  -12.8886  -16.6215 O   0  0  0  0  0  0  0  0  0  0  0  0
   23.3275  -11.5356  -18.0692 N   0  0  0  0  0  0  0  0  0  0  0  0
   23.5311  -10.4805  -17.1098 C   0  0  1  0  0  0  0  0  0  0  0  0
   24.9628  -10.0178  -17.0586 C   0  0  0  0  0  0  0  0  0  0  0  0
   25.8774  -11.0373  -16.5204 C   0  0  0  0  0  0  0  0  0  0  0  0
   25.4848  -12.2887  -16.1138 C   0  0  0  0  0  0  0  0  0  0  0  0
   26.5924  -12.9232  -15.6889 N   0  0  0  0  0  0  0  0  0  0  0  0
   27.6525  -12.1190  -15.8148 C   0  0  0  0  0  0  0  0  0  0  0  0
   27.1988  -10.9703  -16.3243 N   0  0  0  0  0  0  0  0  0  0  0  0
   22.6225   -9.3378  -17.2959 C   0  0  0  0  0  0  0  0  0  0  0  0
   22.4043   -8.7642  -18.3941 O   0  0  0  0  0  0  0  0  0  0  0  0
   21.9396   -8.8450  -16.1494 N   0  0  0  0  0  0  0  0  0  0  0  0
   21.0481   -7.6808  -16.3028 C   0  0  1  0  0  0  0  0  0  0  0  0
   19.7642   -8.0552  -15.5780 C   0  0  0  0  0  0  0  0  0  0  0  0
   18.8751   -8.9127  -16.3437 C   0  0  0  0  0  0  0  0  0  0  0  0
   19.0469  -10.2441  -16.6139 C   0  0  0  0  0  0  0  0  0  0  0  0
   17.9913  -10.6550  -17.3524 N   0  0  0  0  0  0  0  0  0  0  0  0
   17.1800   -9.6070  -17.5392 C   0  0  0  0  0  0  0  0  0  0  0  0
   17.7273   -8.5418  -16.9184 N   0  0  0  0  0  0  0  0  0  0  0  0
   21.6701   -6.5702  -15.5361 C   0  0  0  0  0  0  0  0  0  0  0  0
   21.1963   -5.2707  -15.5644 O   0  0  0  0  0  0  0  0  0  0  0  0
   22.6823   -6.8679  -14.8337 O   0  0  0  0  0  0  0  0  0  0  0  0
  2  1  1  0
  2  3  2  0
  4  5  1  0
  4  2  1  0
  6  7  1  1
  6  5  1  0
  8  6  1  0
  9  8  2  0
 10  8  1  0
 11 10  1  0
 11 12  1  6
 12 13  1  0
 13 14  2  0
 14 15  1  0
 16 15  1  0
 17 13  1  0
 17 16  2  0
 18 20  1  0
 18 11  1  0
 19 18  2  0
 21 28  1  0
 21 20  1  0
 21 22  1  1
 23 22  1  0
 23 24  2  0
 25 24  1  0
 26 25  1  0
 27 26  2  0
 27 23  1  0
 28 29  1  0
 30 28  2  0
M  END
$$$$
