QHH.pdb
     RDKit          3D

 30 31  0  0  1  0  0  0  0  0999 V2000
   17.5836  -12.9308    4.1708 N   0  0  0  0  0  0  0  0  0  0  0  0
   17.5636  -13.4005    2.8303 C   0  0  0  0  0  0  0  0  0  0  0  0
   17.4526  -12.5249    1.9193 O   0  0  0  0  0  0  0  0  0  0  0  0
   17.6691  -14.8670    2.5075 C   0  0  0  0  0  0  0  0  0  0  0  0
   17.8791  -15.5909    3.7918 C   0  0  0  0  0  0  0  0  0  0  0  0
   17.2581  -16.9395    3.8810 C   0  0  2  0  0  0  0  0  0  0  0  0
   15.8083  -16.7536    3.7457 N   0  0  0  0  0  0  0  0  0  0  0  0
   17.6096  -17.7359    5.0506 C   0  0  0  0  0  0  0  0  0  0  0  0
   17.0535  -17.4873    6.1508 O   0  0  0  0  0  0  0  0  0  0  0  0
   18.5534  -18.8006    5.0603 N   0  0  0  0  0  0  0  0  0  0  0  0
   18.9952  -19.4878    6.2466 C   0  0  1  0  0  0  0  0  0  0  0  0
   19.2340  -20.9547    6.0067 C   0  0  0  0  0  0  0  0  0  0  0  0
   18.0858  -21.6289    5.3799 C   0  0  0  0  0  0  0  0  0  0  0  0
   16.7819  -21.4614    5.7764 C   0  0  0  0  0  0  0  0  0  0  0  0
   16.0300  -22.2343    4.9718 N   0  0  0  0  0  0  0  0  0  0  0  0
   16.8118  -22.8722    4.0953 C   0  0  0  0  0  0  0  0  0  0  0  0
   18.0653  -22.4915    4.3578 N   0  0  0  0  0  0  0  0  0  0  0  0
   20.1706  -18.8669    6.8783 C   0  0  0  0  0  0  0  0  0  0  0  0
   21.2587  -18.6280    6.2938 O   0  0  0  0  0  0  0  0  0  0  0  0
   20.0695  -18.5100    8.2516 N   0  0  0  0  0  0  0  0  0  0  0  0
   21.2096  -17.8285    8.8915 C   0  0  1  0  0  0  0  0  0  0  0  0
   20.8089  -16.3638    8.9795 C   0  0  0  0  0  0  0  0  0  0  0  0
   21.7438  -15.5327    9.7193 C   0  0  0  0  0  0  0  0  0  0  0  0
   23.1096  -15.5426    9.6206 C   0  0  0  0  0  0  0  0  0  0  0  0
   23.5923  -14.6169   10.4800 N   0  0  0  0  0  0  0  0  0  0  0  0
   22.5545  -14.0428   11.1004 C   0  0  0  0  0  0  0  0  0  0  0  0
   21.4240  -14.6086   10.6297 N   0  0  0  0  0  0  0  0  0  0  0  0
   21.2802  -18.3427   10.2839 C   0  0  0  0  0  0  0  0  0  0  0  0
   22.4197  -18.2642   11.0645 O   0  0  0  0  0  0  0  0  0  0  0  0
   20.2241  -18.8721   10.7433 O   0  0  0  0  0  0  0  0  0  0  0  0
  2  1  1  0
  2  3  2  0
  4  5  1  0
  4  2  1  0
  6  7  1  1
  6  5  1  0
  8  6  1  0
  9  8  2  0
 10  8  1  0
 11 10  1  0
 11 12  1  6
 12 13  1  0
 13 14  2  0
 14 15  1  0
 16 15  1  0
 17 13  1  0
 17 16  2  0
 18 20  1  0
 18 11  1  0
 19 18  2  0
 21 28  1  0
 21 20  1  0
 21 22  1  1
 23 22  1  0
 23 24  2  0
 25 24  1  0
 26 25  1  0
 27 26  2  0
 27 23  1  0
 28 29  1  0
 30 28  2  0
M  END
$$$$
