QHH.pdb
     RDKit          3D

 30 31  0  0  1  0  0  0  0  0999 V2000
   19.8764  -15.4627  -23.2445 N   0  0  0  0  0  0  0  0  0  0  0  0
   20.8160  -16.5036  -23.4713 C   0  0  0  0  0  0  0  0  0  0  0  0
   20.6978  -17.1549  -24.5534 O   0  0  0  0  0  0  0  0  0  0  0  0
   21.8994  -16.8181  -22.4747 C   0  0  0  0  0  0  0  0  0  0  0  0
   21.7707  -15.8438  -21.3558 C   0  0  0  0  0  0  0  0  0  0  0  0
   22.8166  -15.9302  -20.3018 C   0  0  2  0  0  0  0  0  0  0  0  0
   22.8160  -17.3132  -19.8097 N   0  0  0  0  0  0  0  0  0  0  0  0
   22.7260  -14.9556  -19.2213 C   0  0  0  0  0  0  0  0  0  0  0  0
   21.9187  -15.1592  -18.2787 O   0  0  0  0  0  0  0  0  0  0  0  0
   23.4910  -13.7591  -19.1341 N   0  0  0  0  0  0  0  0  0  0  0  0
   23.3760  -12.7935  -18.0715 C   0  0  1  0  0  0  0  0  0  0  0  0
   24.7132  -12.4078  -17.4972 C   0  0  0  0  0  0  0  0  0  0  0  0
   25.4005  -13.5296  -16.8376 C   0  0  0  0  0  0  0  0  0  0  0  0
   24.8691  -14.7886  -16.7034 C   0  0  0  0  0  0  0  0  0  0  0  0
   25.7856  -15.5285  -16.0533 N   0  0  0  0  0  0  0  0  0  0  0  0
   26.8602  -14.7822  -15.7797 C   0  0  0  0  0  0  0  0  0  0  0  0
   26.6091  -13.5632  -16.2655 N   0  0  0  0  0  0  0  0  0  0  0  0
   22.6088  -11.5960  -18.4502 C   0  0  0  0  0  0  0  0  0  0  0  0
   22.9203  -10.8066  -19.3789 O   0  0  0  0  0  0  0  0  0  0  0  0
   21.4269  -11.3096  -17.7122 N   0  0  0  0  0  0  0  0  0  0  0  0
   20.6371  -10.1187  -18.0752 C   0  0  1  0  0  0  0  0  0  0  0  0
   19.3210  -10.6551  -18.6175 C   0  0  0  0  0  0  0  0  0  0  0  0
   18.3935   -9.6265  -19.0575 C   0  0  0  0  0  0  0  0  0  0  0  0
   18.6950   -8.3304  -19.3808 C   0  0  0  0  0  0  0  0  0  0  0  0
   17.5447   -7.7159  -19.7382 N   0  0  0  0  0  0  0  0  0  0  0  0
   16.5492   -8.6052  -19.6409 C   0  0  0  0  0  0  0  0  0  0  0  0
   17.0760   -9.7747  -19.2231 N   0  0  0  0  0  0  0  0  0  0  0  0
   20.3270   -9.4153  -16.8035 C   0  0  0  0  0  0  0  0  0  0  0  0
   20.1065   -8.0518  -16.7253 O   0  0  0  0  0  0  0  0  0  0  0  0
   20.2703  -10.1343  -15.7612 O   0  0  0  0  0  0  0  0  0  0  0  0
  2  1  1  0
  2  3  2  0
  4  5  1  0
  4  2  1  0
  6  7  1  1
  6  5  1  0
  8  6  1  0
  9  8  2  0
 10  8  1  0
 11 10  1  0
 11 12  1  6
 12 13  1  0
 13 14  2  0
 14 15  1  0
 16 15  1  0
 17 13  1  0
 17 16  2  0
 18 20  1  0
 18 11  1  0
 19 18  2  0
 21 28  1  0
 21 20  1  0
 21 22  1  1
 23 22  1  0
 23 24  2  0
 25 24  1  0
 26 25  1  0
 27 26  2  0
 27 23  1  0
 28 29  1  0
 30 28  2  0
M  END
$$$$
