HEH.pdb
     RDKit          3D

 30 31  0  0  1  0  0  0  0  0999 V2000
   11.6463  -16.4802   15.4587 N   0  0  0  0  0  0  0  0  0  0  0  0
   12.3282  -16.2769   16.6999 C   0  0  1  0  0  0  0  0  0  0  0  0
   12.8380  -14.8727   16.7753 C   0  0  0  0  0  0  0  0  0  0  0  0
   14.3178  -14.9525   16.9843 C   0  0  0  0  0  0  0  0  0  0  0  0
   15.0024  -15.1146   18.1733 C   0  0  0  0  0  0  0  0  0  0  0  0
   16.3244  -15.1378   17.9182 N   0  0  0  0  0  0  0  0  0  0  0  0
   16.4949  -14.9955   16.6060 C   0  0  0  0  0  0  0  0  0  0  0  0
   15.2921  -14.8827   16.0321 N   0  0  0  0  0  0  0  0  0  0  0  0
   11.5380  -16.6777   17.8771 C   0  0  0  0  0  0  0  0  0  0  0  0
   10.3349  -16.3360   17.9898 O   0  0  0  0  0  0  0  0  0  0  0  0
   12.0736  -17.4724   18.9605 N   0  0  0  0  0  0  0  0  0  0  0  0
   11.3009  -17.9309   20.0574 C   0  0  1  0  0  0  0  0  0  0  0  0
   11.6612  -19.2020   20.7164 C   0  0  0  0  0  0  0  0  0  0  0  0
   10.7497  -19.6955   21.7901 C   0  0  0  0  0  0  0  0  0  0  0  0
   11.1333  -20.9062   22.4962 C   0  0  0  0  0  0  0  0  0  0  0  0
   10.3706  -21.7949   22.9309 O   0  0  0  0  0  0  0  0  0  0  0  0
   11.1707  -16.8721   21.1282 C   0  0  0  0  0  0  0  0  0  0  0  0
   12.2287  -16.2982   21.4939 O   0  0  0  0  0  0  0  0  0  0  0  0
   12.5178  -21.1112   22.7219 O   0  0  0  0  0  0  0  0  0  0  0  0
    9.9607  -16.4987   21.7248 N   0  0  0  0  0  0  0  0  0  0  0  0
    9.8574  -15.4051   22.7067 C   0  0  1  0  0  0  0  0  0  0  0  0
    8.5118  -14.7332   22.5521 C   0  0  0  0  0  0  0  0  0  0  0  0
    8.3341  -14.0498   21.2438 C   0  0  0  0  0  0  0  0  0  0  0  0
    9.2677  -13.8885   20.2425 C   0  0  0  0  0  0  0  0  0  0  0  0
    8.6975  -13.1973   19.2412 N   0  0  0  0  0  0  0  0  0  0  0  0
    7.4451  -12.9377   19.6129 C   0  0  0  0  0  0  0  0  0  0  0  0
    7.2133  -13.4469   20.8196 N   0  0  0  0  0  0  0  0  0  0  0  0
    9.9150  -16.0198   24.0480 C   0  0  0  0  0  0  0  0  0  0  0  0
    9.8750  -17.2761   24.1430 O   0  0  0  0  0  0  0  0  0  0  0  0
   10.0135  -15.2758   25.2175 O   0  0  0  0  0  0  0  0  0  0  0  0
  2  1  1  6
  2  3  1  0
  3  4  1  0
  4  8  1  0
  5  4  2  0
  5  6  1  0
  6  7  1  0
  8  7  2  0
  9 11  1  0
  9  2  1  0
 10  9  2  0
 12 11  1  0
 13 14  1  0
 12 13  1  1
 14 15  1  0
 15 16  2  0
 15 19  1  0
 17 12  1  0
 17 20  1  0
 18 17  2  0
 21 20  1  0
 21 28  1  0
 21 22  1  6
 23 22  1  0
 23 24  2  0
 25 24  1  0
 26 25  1  0
 27 26  2  0
 27 23  1  0
 28 29  2  0
 28 30  1  0
M  END
$$$$
