HEH.pdb
     RDKit          3D

 30 31  0  0  1  0  0  0  0  0999 V2000
   10.4542  -15.7140   17.6207 N   0  0  0  0  0  0  0  0  0  0  0  0
   10.1912  -15.4605   19.0039 C   0  0  1  0  0  0  0  0  0  0  0  0
    8.7177  -15.5041   19.2573 C   0  0  0  0  0  0  0  0  0  0  0  0
    8.0781  -14.5485   18.2993 C   0  0  0  0  0  0  0  0  0  0  0  0
    8.1576  -13.1692   18.2917 C   0  0  0  0  0  0  0  0  0  0  0  0
    7.4365  -12.6945   17.2583 N   0  0  0  0  0  0  0  0  0  0  0  0
    6.9049  -13.7307   16.6142 C   0  0  0  0  0  0  0  0  0  0  0  0
    7.2847  -14.8542   17.2326 N   0  0  0  0  0  0  0  0  0  0  0  0
   10.9684  -16.3173   19.9165 C   0  0  0  0  0  0  0  0  0  0  0  0
   10.5566  -16.5586   21.0780 O   0  0  0  0  0  0  0  0  0  0  0  0
   12.2284  -16.9279   19.5531 N   0  0  0  0  0  0  0  0  0  0  0  0
   12.9651  -17.7837   20.4106 C   0  0  1  0  0  0  0  0  0  0  0  0
   14.2094  -18.4068   19.9176 C   0  0  0  0  0  0  0  0  0  0  0  0
   14.8983  -19.3673   20.8288 C   0  0  0  0  0  0  0  0  0  0  0  0
   15.5182  -20.5375   20.2307 C   0  0  0  0  0  0  0  0  0  0  0  0
   15.2135  -21.7325   20.4299 O   0  0  0  0  0  0  0  0  0  0  0  0
   13.2697  -17.1188   21.7333 C   0  0  0  0  0  0  0  0  0  0  0  0
   13.9634  -16.0700   21.6976 O   0  0  0  0  0  0  0  0  0  0  0  0
   16.5837  -20.3113   19.3234 O   0  0  0  0  0  0  0  0  0  0  0  0
   12.8304  -17.5942   22.9744 N   0  0  0  0  0  0  0  0  0  0  0  0
   13.2408  -16.9887   24.2534 C   0  0  1  0  0  0  0  0  0  0  0  0
   12.2604  -15.8961   24.6153 C   0  0  0  0  0  0  0  0  0  0  0  0
   10.8621  -16.1907   24.2051 C   0  0  0  0  0  0  0  0  0  0  0  0
   10.4039  -17.2752   23.4881 C   0  0  0  0  0  0  0  0  0  0  0  0
    9.0774  -17.1409   23.3211 N   0  0  0  0  0  0  0  0  0  0  0  0
    8.7244  -16.0039   23.9184 C   0  0  0  0  0  0  0  0  0  0  0  0
    9.7924  -15.4209   24.4557 N   0  0  0  0  0  0  0  0  0  0  0  0
   13.1544  -18.0455   25.2810 C   0  0  0  0  0  0  0  0  0  0  0  0
   12.0791  -18.1808   25.9246 O   0  0  0  0  0  0  0  0  0  0  0  0
   14.2071  -18.9042   25.5733 O   0  0  0  0  0  0  0  0  0  0  0  0
  2  1  1  6
  2  3  1  0
  3  4  1  0
  4  8  1  0
  5  4  2  0
  5  6  1  0
  6  7  1  0
  8  7  2  0
  9 11  1  0
  9  2  1  0
 10  9  2  0
 12 11  1  0
 13 14  1  0
 12 13  1  6
 14 15  1  0
 15 16  2  0
 15 19  1  0
 17 12  1  0
 17 20  1  0
 18 17  2  0
 21 20  1  0
 21 28  1  0
 21 22  1  1
 23 22  1  0
 23 24  2  0
 25 24  1  0
 26 25  1  0
 27 26  2  0
 27 23  1  0
 28 29  2  0
 28 30  1  0
M  END
$$$$
