HEH.pdb
     RDKit          3D

 30 31  0  0  1  0  0  0  0  0999 V2000
    9.8273  -15.5719   19.5116 N   0  0  0  0  0  0  0  0  0  0  0  0
    9.1708  -15.2370   20.7379 C   0  0  1  0  0  0  0  0  0  0  0  0
    7.7119  -15.0186   20.4899 C   0  0  0  0  0  0  0  0  0  0  0  0
    7.5941  -14.2324   19.2219 C   0  0  0  0  0  0  0  0  0  0  0  0
    7.5778  -12.8593   19.0697 C   0  0  0  0  0  0  0  0  0  0  0  0
    7.4595  -12.5649   17.7610 N   0  0  0  0  0  0  0  0  0  0  0  0
    7.4007  -13.7087   17.0834 C   0  0  0  0  0  0  0  0  0  0  0  0
    7.4808  -14.7214   17.9535 N   0  0  0  0  0  0  0  0  0  0  0  0
    9.4438  -16.1883   21.8295 C   0  0  0  0  0  0  0  0  0  0  0  0
    8.7379  -16.1941   22.8680 O   0  0  0  0  0  0  0  0  0  0  0  0
   10.5149  -17.1595   21.7877 N   0  0  0  0  0  0  0  0  0  0  0  0
   10.7581  -18.1081   22.8131 C   0  0  1  0  0  0  0  0  0  0  0  0
   11.4464  -19.3717   22.4826 C   0  0  0  0  0  0  0  0  0  0  0  0
   10.9436  -20.1332   21.3016 C   0  0  0  0  0  0  0  0  0  0  0  0
   11.6667  -21.3329   20.9154 C   0  0  0  0  0  0  0  0  0  0  0  0
   12.4813  -21.4480   19.9753 O   0  0  0  0  0  0  0  0  0  0  0  0
   11.4704  -17.4843   23.9913 C   0  0  0  0  0  0  0  0  0  0  0  0
   12.2647  -16.5410   23.7428 O   0  0  0  0  0  0  0  0  0  0  0  0
   11.4304  -22.5036   21.6792 O   0  0  0  0  0  0  0  0  0  0  0  0
   11.2987  -17.8882   25.3205 N   0  0  0  0  0  0  0  0  0  0  0  0
   11.2665  -16.9389   26.4468 C   0  0  1  0  0  0  0  0  0  0  0  0
   10.0997  -15.9957   26.2595 C   0  0  0  0  0  0  0  0  0  0  0  0
    9.9024  -15.0590   27.3970 C   0  0  0  0  0  0  0  0  0  0  0  0
   10.6214  -14.9946   28.5713 C   0  0  0  0  0  0  0  0  0  0  0  0
   10.1008  -14.0167   29.3318 N   0  0  0  0  0  0  0  0  0  0  0  0
    9.0870  -13.4906   28.6468 C   0  0  0  0  0  0  0  0  0  0  0  0
    8.9568  -14.1108   27.4774 N   0  0  0  0  0  0  0  0  0  0  0  0
   11.0302  -17.7278   27.6723 C   0  0  0  0  0  0  0  0  0  0  0  0
   10.4971  -18.8654   27.5694 O   0  0  0  0  0  0  0  0  0  0  0  0
   11.3709  -17.2748   28.9410 O   0  0  0  0  0  0  0  0  0  0  0  0
  2  1  1  6
  2  3  1  0
  3  4  1  0
  4  8  1  0
  5  4  2  0
  5  6  1  0
  6  7  1  0
  8  7  2  0
  9 11  1  0
  9  2  1  0
 10  9  2  0
 12 11  1  0
 13 14  1  0
 12 13  1  6
 14 15  1  0
 15 16  2  0
 15 19  1  0
 17 12  1  0
 17 20  1  0
 18 17  2  0
 21 20  1  0
 21 28  1  0
 21 22  1  6
 23 22  1  0
 23 24  2  0
 25 24  1  0
 26 25  1  0
 27 26  2  0
 27 23  1  0
 28 29  2  0
 28 30  1  0
M  END
$$$$
