HEH.pdb
     RDKit          3D

 30 31  0  0  1  0  0  0  0  0999 V2000
    7.7656  -17.1898   18.8578 N   0  0  0  0  0  0  0  0  0  0  0  0
    9.0821  -16.6814   19.0931 C   0  0  1  0  0  0  0  0  0  0  0  0
    9.0097  -15.4669   19.9632 C   0  0  0  0  0  0  0  0  0  0  0  0
    8.4355  -14.3633   19.1313 C   0  0  0  0  0  0  0  0  0  0  0  0
    8.0225  -14.4164   17.8139 C   0  0  0  0  0  0  0  0  0  0  0  0
    7.5668  -13.2032   17.4483 N   0  0  0  0  0  0  0  0  0  0  0  0
    7.6795  -12.3869   18.4933 C   0  0  0  0  0  0  0  0  0  0  0  0
    8.2021  -13.0749   19.5142 N   0  0  0  0  0  0  0  0  0  0  0  0
   10.0260  -17.7000   19.5857 C   0  0  0  0  0  0  0  0  0  0  0  0
    9.6129  -18.7180   20.1939 O   0  0  0  0  0  0  0  0  0  0  0  0
   11.4588  -17.6064   19.4104 N   0  0  0  0  0  0  0  0  0  0  0  0
   12.3916  -18.4183   20.1041 C   0  0  1  0  0  0  0  0  0  0  0  0
   13.7813  -18.5060   19.6134 C   0  0  0  0  0  0  0  0  0  0  0  0
   14.6830  -19.4836   20.2906 C   0  0  0  0  0  0  0  0  0  0  0  0
   15.8500  -19.9441   19.5575 C   0  0  0  0  0  0  0  0  0  0  0  0
   16.3513  -21.0880   19.5868 O   0  0  0  0  0  0  0  0  0  0  0  0
   12.4383  -18.0793   21.5763 C   0  0  0  0  0  0  0  0  0  0  0  0
   12.9180  -16.9590   21.8883 O   0  0  0  0  0  0  0  0  0  0  0  0
   16.4971  -19.0039   18.7167 O   0  0  0  0  0  0  0  0  0  0  0  0
   11.9846  -18.9254   22.5950 N   0  0  0  0  0  0  0  0  0  0  0  0
   12.0664  -18.5726   24.0231 C   0  0  1  0  0  0  0  0  0  0  0  0
   10.6766  -18.6094   24.6173 C   0  0  0  0  0  0  0  0  0  0  0  0
    9.8540  -17.4170   24.2828 C   0  0  0  0  0  0  0  0  0  0  0  0
   10.2952  -16.1625   23.9199 C   0  0  0  0  0  0  0  0  0  0  0  0
    9.2220  -15.3781   23.7235 N   0  0  0  0  0  0  0  0  0  0  0  0
    8.1460  -16.1269   23.9588 C   0  0  0  0  0  0  0  0  0  0  0  0
    8.5138  -17.3595   24.2973 N   0  0  0  0  0  0  0  0  0  0  0  0
   12.8778  -19.6158   24.6818 C   0  0  0  0  0  0  0  0  0  0  0  0
   13.3134  -20.5745   23.9890 O   0  0  0  0  0  0  0  0  0  0  0  0
   13.1876  -19.5905   26.0362 O   0  0  0  0  0  0  0  0  0  0  0  0
  2  1  1  1
  2  3  1  0
  3  4  1  0
  4  8  1  0
  5  4  2  0
  5  6  1  0
  6  7  1  0
  8  7  2  0
  9 11  1  0
  9  2  1  0
 10  9  2  0
 12 11  1  0
 13 14  1  0
 12 13  1  6
 14 15  1  0
 15 16  2  0
 15 19  1  0
 17 12  1  0
 17 20  1  0
 18 17  2  0
 21 20  1  0
 21 28  1  0
 21 22  1  1
 23 22  1  0
 23 24  2  0
 25 24  1  0
 26 25  1  0
 27 26  2  0
 27 23  1  0
 28 29  2  0
 28 30  1  0
M  END
$$$$
