HEH.pdb
     RDKit          3D

 30 31  0  0  1  0  0  0  0  0999 V2000
    9.1550  -17.9821   14.4738 N   0  0  0  0  0  0  0  0  0  0  0  0
   10.1049  -17.2710   15.2731 C   0  0  1  0  0  0  0  0  0  0  0  0
   10.0911  -15.8204   14.9084 C   0  0  0  0  0  0  0  0  0  0  0  0
   10.7089  -15.7024   13.5504 C   0  0  0  0  0  0  0  0  0  0  0  0
   11.9342  -16.1807   13.1277 C   0  0  0  0  0  0  0  0  0  0  0  0
   12.1053  -15.8619   11.8307 N   0  0  0  0  0  0  0  0  0  0  0  0
   11.0268  -15.1978   11.4222 C   0  0  0  0  0  0  0  0  0  0  0  0
   10.1776  -15.0952   12.4504 N   0  0  0  0  0  0  0  0  0  0  0  0
    9.9550  -17.5134   16.7188 C   0  0  0  0  0  0  0  0  0  0  0  0
    8.8296  -17.4338   17.2701 O   0  0  0  0  0  0  0  0  0  0  0  0
   11.0616  -17.8518   17.5866 N   0  0  0  0  0  0  0  0  0  0  0  0
   10.9172  -18.1598   18.9631 C   0  0  1  0  0  0  0  0  0  0  0  0
   11.7454  -19.2278   19.5572 C   0  0  0  0  0  0  0  0  0  0  0  0
   11.4517  -19.6126   20.9690 C   0  0  0  0  0  0  0  0  0  0  0  0
   12.2398  -20.6844   21.5534 C   0  0  0  0  0  0  0  0  0  0  0  0
   12.5496  -21.7679   21.0143 O   0  0  0  0  0  0  0  0  0  0  0  0
   11.0565  -16.9275   19.8272 C   0  0  0  0  0  0  0  0  0  0  0  0
   12.0816  -16.2202   19.6500 O   0  0  0  0  0  0  0  0  0  0  0  0
   12.7124  -20.4914   22.8760 O   0  0  0  0  0  0  0  0  0  0  0  0
   10.1254  -16.5341   20.7955 N   0  0  0  0  0  0  0  0  0  0  0  0
   10.2925  -15.3251   21.6207 C   0  0  1  0  0  0  0  0  0  0  0  0
    8.9839  -14.5685   21.6522 C   0  0  0  0  0  0  0  0  0  0  0  0
    8.5698  -14.0391   20.3261 C   0  0  0  0  0  0  0  0  0  0  0  0
    8.8371  -12.7962   19.7930 C   0  0  0  0  0  0  0  0  0  0  0  0
    8.2627  -12.7247   18.5804 N   0  0  0  0  0  0  0  0  0  0  0  0
    7.6562  -13.8916   18.3690 C   0  0  0  0  0  0  0  0  0  0  0  0
    7.8340  -14.6936   19.4151 N   0  0  0  0  0  0  0  0  0  0  0  0
   10.5984  -15.7757   22.9932 C   0  0  0  0  0  0  0  0  0  0  0  0
   10.8245  -14.9098   23.8809 O   0  0  0  0  0  0  0  0  0  0  0  0
   10.6475  -17.1162   23.3560 O   0  0  0  0  0  0  0  0  0  0  0  0
  2  1  1  6
  2  3  1  0
  3  4  1  0
  4  8  1  0
  5  4  2  0
  5  6  1  0
  6  7  1  0
  8  7  2  0
  9 11  1  0
  9  2  1  0
 10  9  2  0
 12 11  1  0
 13 14  1  0
 12 13  1  1
 14 15  1  0
 15 16  2  0
 15 19  1  0
 17 12  1  0
 17 20  1  0
 18 17  2  0
 21 20  1  0
 21 28  1  0
 21 22  1  1
 23 22  1  0
 23 24  2  0
 25 24  1  0
 26 25  1  0
 27 26  2  0
 27 23  1  0
 28 29  2  0
 28 30  1  0
M  END
$$$$
