HEH.pdb
     RDKit          3D

 30 31  0  0  1  0  0  0  0  0999 V2000
    7.4607  -16.7163   19.9170 N   0  0  0  0  0  0  0  0  0  0  0  0
    7.7447  -15.7183   20.9020 C   0  0  1  0  0  0  0  0  0  0  0  0
    7.0082  -14.4580   20.5752 C   0  0  0  0  0  0  0  0  0  0  0  0
    7.5424  -13.9626   19.2680 C   0  0  0  0  0  0  0  0  0  0  0  0
    8.4100  -12.9105   19.0463 C   0  0  0  0  0  0  0  0  0  0  0  0
    8.6383  -12.8021   17.7237 N   0  0  0  0  0  0  0  0  0  0  0  0
    7.9423  -13.7524   17.1044 C   0  0  0  0  0  0  0  0  0  0  0  0
    7.2772  -14.4587   18.0252 N   0  0  0  0  0  0  0  0  0  0  0  0
    7.5316  -16.1800   22.2849 C   0  0  0  0  0  0  0  0  0  0  0  0
    6.4330  -15.9910   22.8631 O   0  0  0  0  0  0  0  0  0  0  0  0
    8.5431  -16.8663   23.0582 N   0  0  0  0  0  0  0  0  0  0  0  0
    8.3474  -17.3148   24.3890 C   0  0  1  0  0  0  0  0  0  0  0  0
    8.5304  -18.7452   24.7056 C   0  0  0  0  0  0  0  0  0  0  0  0
    8.3661  -19.1541   26.1315 C   0  0  0  0  0  0  0  0  0  0  0  0
    8.6265  -20.5434   26.4686 C   0  0  0  0  0  0  0  0  0  0  0  0
    7.7815  -21.4153   26.7624 O   0  0  0  0  0  0  0  0  0  0  0  0
    9.1661  -16.5116   25.3734 C   0  0  0  0  0  0  0  0  0  0  0  0
   10.3905  -16.3750   25.1188 O   0  0  0  0  0  0  0  0  0  0  0  0
    9.9798  -20.9656   26.4677 O   0  0  0  0  0  0  0  0  0  0  0  0
    8.6486  -15.9198   26.5316 N   0  0  0  0  0  0  0  0  0  0  0  0
    9.4525  -15.0603   27.4180 C   0  0  1  0  0  0  0  0  0  0  0  0
    8.5236  -14.1669   28.2086 C   0  0  0  0  0  0  0  0  0  0  0  0
    7.7229  -13.2429   27.3629 C   0  0  0  0  0  0  0  0  0  0  0  0
    7.9069  -12.9465   26.0293 C   0  0  0  0  0  0  0  0  0  0  0  0
    6.9739  -12.0516   25.6631 N   0  0  0  0  0  0  0  0  0  0  0  0
    6.2328  -11.8007   26.7410 C   0  0  0  0  0  0  0  0  0  0  0  0
    6.6745  -12.5135   27.7735 N   0  0  0  0  0  0  0  0  0  0  0  0
   10.1544  -15.9498   28.3648 C   0  0  0  0  0  0  0  0  0  0  0  0
    9.9274  -17.1887   28.3168 O   0  0  0  0  0  0  0  0  0  0  0  0
   11.0597  -15.4843   29.3107 O   0  0  0  0  0  0  0  0  0  0  0  0
  2  1  1  6
  2  3  1  0
  3  4  1  0
  4  8  1  0
  5  4  2  0
  5  6  1  0
  6  7  1  0
  8  7  2  0
  9 11  1  0
  9  2  1  0
 10  9  2  0
 12 11  1  0
 13 14  1  0
 12 13  1  6
 14 15  1  0
 15 16  2  0
 15 19  1  0
 17 12  1  0
 17 20  1  0
 18 17  2  0
 21 20  1  0
 21 28  1  0
 21 22  1  1
 23 22  1  0
 23 24  2  0
 25 24  1  0
 26 25  1  0
 27 26  2  0
 27 23  1  0
 28 29  2  0
 28 30  1  0
M  END
$$$$
