HEH.pdb
     RDKit          3D

 30 31  0  0  1  0  0  0  0  0999 V2000
    7.6657  -17.8040   15.6542 N   0  0  0  0  0  0  0  0  0  0  0  0
    8.8368  -17.2063   16.2184 C   0  0  1  0  0  0  0  0  0  0  0  0
    8.8536  -15.7408   15.9194 C   0  0  0  0  0  0  0  0  0  0  0  0
    8.9990  -15.5959   14.4369 C   0  0  0  0  0  0  0  0  0  0  0  0
    9.0543  -16.5957   13.4849 C   0  0  0  0  0  0  0  0  0  0  0  0
    9.1866  -16.0349   12.2679 N   0  0  0  0  0  0  0  0  0  0  0  0
    9.2164  -14.7135   12.4222 C   0  0  0  0  0  0  0  0  0  0  0  0
    9.1041  -14.4365   13.7259 N   0  0  0  0  0  0  0  0  0  0  0  0
    9.0242  -17.5152   17.6468 C   0  0  0  0  0  0  0  0  0  0  0  0
    8.0989  -17.3202   18.4731 O   0  0  0  0  0  0  0  0  0  0  0  0
   10.2533  -18.0514   18.1892 N   0  0  0  0  0  0  0  0  0  0  0  0
   10.4098  -18.4496   19.5410 C   0  0  1  0  0  0  0  0  0  0  0  0
   11.4508  -19.4367   19.8896 C   0  0  0  0  0  0  0  0  0  0  0  0
   11.5534  -19.8422   21.3222 C   0  0  0  0  0  0  0  0  0  0  0  0
   12.6474  -20.7221   21.6970 C   0  0  0  0  0  0  0  0  0  0  0  0
   13.8691  -20.4679   21.6370 O   0  0  0  0  0  0  0  0  0  0  0  0
   10.5723  -17.2585   20.4572 C   0  0  0  0  0  0  0  0  0  0  0  0
   11.4134  -16.3875   20.1160 O   0  0  0  0  0  0  0  0  0  0  0  0
   12.3040  -22.0087   22.1833 O   0  0  0  0  0  0  0  0  0  0  0  0
    9.8517  -17.0714   21.6426 N   0  0  0  0  0  0  0  0  0  0  0  0
   10.1111  -15.9549   22.5683 C   0  0  1  0  0  0  0  0  0  0  0  0
    8.8431  -15.1472   22.7292 C   0  0  0  0  0  0  0  0  0  0  0  0
    8.6034  -14.1872   21.6195 C   0  0  0  0  0  0  0  0  0  0  0  0
    9.4148  -13.9320   20.5348 C   0  0  0  0  0  0  0  0  0  0  0  0
    8.8308  -12.9820   19.7851 N   0  0  0  0  0  0  0  0  0  0  0  0
    7.6891  -12.6580   20.3898 C   0  0  0  0  0  0  0  0  0  0  0  0
    7.5402  -13.3783   21.4980 N   0  0  0  0  0  0  0  0  0  0  0  0
   10.4505  -16.5471   23.8776 C   0  0  0  0  0  0  0  0  0  0  0  0
   10.2675  -17.7820   24.0519 O   0  0  0  0  0  0  0  0  0  0  0  0
   10.9667  -15.8045   24.9327 O   0  0  0  0  0  0  0  0  0  0  0  0
  2  1  1  1
  2  3  1  0
  3  4  1  0
  4  8  1  0
  5  4  2  0
  5  6  1  0
  6  7  1  0
  8  7  2  0
  9 11  1  0
  9  2  1  0
 10  9  2  0
 12 11  1  0
 13 14  1  0
 12 13  1  6
 14 15  1  0
 15 16  2  0
 15 19  1  0
 17 12  1  0
 17 20  1  0
 18 17  2  0
 21 20  1  0
 21 28  1  0
 21 22  1  1
 23 22  1  0
 23 24  2  0
 25 24  1  0
 26 25  1  0
 27 26  2  0
 27 23  1  0
 28 29  2  0
 28 30  1  0
M  END
$$$$
