HEH.pdb
     RDKit          3D

 30 31  0  0  1  0  0  0  0  0999 V2000
    7.9034  -16.9582   18.0459 N   0  0  0  0  0  0  0  0  0  0  0  0
    9.0716  -16.3219   18.5724 C   0  0  1  0  0  0  0  0  0  0  0  0
    8.8804  -14.8384   18.5843 C   0  0  0  0  0  0  0  0  0  0  0  0
    8.5671  -14.4239   17.1808 C   0  0  0  0  0  0  0  0  0  0  0  0
    7.5042  -13.6622   16.7349 C   0  0  0  0  0  0  0  0  0  0  0  0
    7.5967  -13.5203   15.3991 N   0  0  0  0  0  0  0  0  0  0  0  0
    8.6841  -14.1684   14.9886 C   0  0  0  0  0  0  0  0  0  0  0  0
    9.2777  -14.7175   16.0540 N   0  0  0  0  0  0  0  0  0  0  0  0
    9.5033  -16.8677   19.8711 C   0  0  0  0  0  0  0  0  0  0  0  0
    8.6670  -17.1101   20.7760 O   0  0  0  0  0  0  0  0  0  0  0  0
   10.8837  -17.1573   20.1921 N   0  0  0  0  0  0  0  0  0  0  0  0
   11.3086  -17.6838   21.4381 C   0  0  1  0  0  0  0  0  0  0  0  0
   12.6644  -18.2559   21.5584 C   0  0  0  0  0  0  0  0  0  0  0  0
   13.0218  -18.8947   22.8590 C   0  0  0  0  0  0  0  0  0  0  0  0
   14.2900  -19.5996   22.9377 C   0  0  0  0  0  0  0  0  0  0  0  0
   14.7256  -20.2542   23.9085 O   0  0  0  0  0  0  0  0  0  0  0  0
   11.1240  -16.6846   22.5570 C   0  0  0  0  0  0  0  0  0  0  0  0
   11.0662  -15.4704   22.2331 O   0  0  0  0  0  0  0  0  0  0  0  0
   15.1309  -19.5455   21.7977 O   0  0  0  0  0  0  0  0  0  0  0  0
   11.0141  -17.0270   23.9098 N   0  0  0  0  0  0  0  0  0  0  0  0
   10.0542  -16.3817   24.8225 C   0  0  1  0  0  0  0  0  0  0  0  0
    8.6540  -16.6004   24.2955 C   0  0  0  0  0  0  0  0  0  0  0  0
    8.1510  -15.4799   23.4577 C   0  0  0  0  0  0  0  0  0  0  0  0
    8.7792  -14.2841   23.1827 C   0  0  0  0  0  0  0  0  0  0  0  0
    7.9681  -13.5512   22.4014 N   0  0  0  0  0  0  0  0  0  0  0  0
    6.8677  -14.2738   22.1987 C   0  0  0  0  0  0  0  0  0  0  0  0
    6.9656  -15.4399   22.8309 N   0  0  0  0  0  0  0  0  0  0  0  0
   10.1687  -17.0652   26.1263 C   0  0  0  0  0  0  0  0  0  0  0  0
    9.5097  -16.6215   27.1050 O   0  0  0  0  0  0  0  0  0  0  0  0
   10.9712  -18.1816   26.3273 O   0  0  0  0  0  0  0  0  0  0  0  0
  2  1  1  1
  2  3  1  0
  3  4  1  0
  4  8  1  0
  5  4  2  0
  5  6  1  0
  6  7  1  0
  8  7  2  0
  9 11  1  0
  9  2  1  0
 10  9  2  0
 12 11  1  0
 13 14  1  0
 12 13  1  6
 14 15  1  0
 15 16  2  0
 15 19  1  0
 17 12  1  0
 17 20  1  0
 18 17  2  0
 21 20  1  0
 21 28  1  0
 21 22  1  6
 23 22  1  0
 23 24  2  0
 25 24  1  0
 26 25  1  0
 27 26  2  0
 27 23  1  0
 28 29  2  0
 28 30  1  0
M  END
$$$$
