HEH.pdb
     RDKit          3D

 30 31  0  0  1  0  0  0  0  0999 V2000
    7.6224  -17.0126   20.5533 N   0  0  0  0  0  0  0  0  0  0  0  0
    8.2987  -16.1510   21.4737 C   0  0  1  0  0  0  0  0  0  0  0  0
    7.5512  -14.8621   21.6061 C   0  0  0  0  0  0  0  0  0  0  0  0
    7.7587  -14.1007   20.3345 C   0  0  0  0  0  0  0  0  0  0  0  0
    8.5147  -14.4654   19.2371 C   0  0  0  0  0  0  0  0  0  0  0  0
    8.4313  -13.4963   18.3059 N   0  0  0  0  0  0  0  0  0  0  0  0
    7.6468  -12.5322   18.7813 C   0  0  0  0  0  0  0  0  0  0  0  0
    7.2350  -12.8851   20.0040 N   0  0  0  0  0  0  0  0  0  0  0  0
    8.5972  -16.7909   22.7670 C   0  0  0  0  0  0  0  0  0  0  0  0
    7.7065  -17.4130   23.3966 O   0  0  0  0  0  0  0  0  0  0  0  0
    9.9018  -16.7517   23.3905 N   0  0  0  0  0  0  0  0  0  0  0  0
   10.1870  -17.3231   24.6564 C   0  0  1  0  0  0  0  0  0  0  0  0
   11.3218  -18.2580   24.7902 C   0  0  0  0  0  0  0  0  0  0  0  0
   11.0197  -19.7159   24.6870 C   0  0  0  0  0  0  0  0  0  0  0  0
   12.1295  -20.6450   24.8156 C   0  0  0  0  0  0  0  0  0  0  0  0
   12.1076  -21.7694   25.3595 O   0  0  0  0  0  0  0  0  0  0  0  0
   10.3272  -16.2647   25.7263 C   0  0  0  0  0  0  0  0  0  0  0  0
   11.1582  -15.3448   25.5125 O   0  0  0  0  0  0  0  0  0  0  0  0
   13.3747  -20.2433   24.2699 O   0  0  0  0  0  0  0  0  0  0  0  0
    9.5966  -16.2488   26.9202 N   0  0  0  0  0  0  0  0  0  0  0  0
    9.9121  -15.3430   28.0386 C   0  0  1  0  0  0  0  0  0  0  0  0
    8.6807  -14.5331   28.3755 C   0  0  0  0  0  0  0  0  0  0  0  0
    8.3216  -13.5339   27.3348 C   0  0  0  0  0  0  0  0  0  0  0  0
    9.0571  -13.1669   26.2282 C   0  0  0  0  0  0  0  0  0  0  0  0
    8.3743  -12.2201   25.5626 N   0  0  0  0  0  0  0  0  0  0  0  0
    7.2470  -12.0070   26.2392 C   0  0  0  0  0  0  0  0  0  0  0  0
    7.2031  -12.7937   27.3108 N   0  0  0  0  0  0  0  0  0  0  0  0
   10.2407  -16.1895   29.2029 C   0  0  0  0  0  0  0  0  0  0  0  0
   10.5116  -15.6336   30.3013 O   0  0  0  0  0  0  0  0  0  0  0  0
   10.2640  -17.5778   29.1463 O   0  0  0  0  0  0  0  0  0  0  0  0
  2  1  1  6
  2  3  1  0
  3  4  1  0
  4  8  1  0
  5  4  2  0
  5  6  1  0
  6  7  1  0
  8  7  2  0
  9 11  1  0
  9  2  1  0
 10  9  2  0
 12 11  1  0
 13 14  1  0
 12 13  1  6
 14 15  1  0
 15 16  2  0
 15 19  1  0
 17 12  1  0
 17 20  1  0
 18 17  2  0
 21 20  1  0
 21 28  1  0
 21 22  1  1
 23 22  1  0
 23 24  2  0
 25 24  1  0
 26 25  1  0
 27 26  2  0
 27 23  1  0
 28 29  2  0
 28 30  1  0
M  END
$$$$
