HEH.pdb
     RDKit          3D

 30 31  0  0  1  0  0  0  0  0999 V2000
    9.8693  -15.3897   19.5383 N   0  0  0  0  0  0  0  0  0  0  0  0
    8.8995  -14.9911   20.5118 C   0  0  1  0  0  0  0  0  0  0  0  0
    7.5295  -15.0395   19.9135 C   0  0  0  0  0  0  0  0  0  0  0  0
    7.6032  -14.3469   18.5889 C   0  0  0  0  0  0  0  0  0  0  0  0
    7.8550  -13.0116   18.3389 C   0  0  0  0  0  0  0  0  0  0  0  0
    7.8353  -12.8036   17.0087 N   0  0  0  0  0  0  0  0  0  0  0  0
    7.5791  -13.9652   16.4120 C   0  0  0  0  0  0  0  0  0  0  0  0
    7.4371  -14.9035   17.3545 N   0  0  0  0  0  0  0  0  0  0  0  0
    9.0093  -15.7245   21.7850 C   0  0  0  0  0  0  0  0  0  0  0  0
    8.0325  -15.7973   22.5708 O   0  0  0  0  0  0  0  0  0  0  0  0
   10.2164  -16.3969   22.2132 N   0  0  0  0  0  0  0  0  0  0  0  0
   10.2774  -17.2722   23.3270 C   0  0  1  0  0  0  0  0  0  0  0  0
   11.3787  -18.2510   23.4197 C   0  0  0  0  0  0  0  0  0  0  0  0
   11.3639  -19.1857   24.5832 C   0  0  0  0  0  0  0  0  0  0  0  0
   12.4404  -20.1566   24.6815 C   0  0  0  0  0  0  0  0  0  0  0  0
   13.5416  -20.0010   25.2506 O   0  0  0  0  0  0  0  0  0  0  0  0
   10.2159  -16.5153   24.6339 C   0  0  0  0  0  0  0  0  0  0  0  0
   11.0352  -15.5729   24.7859 O   0  0  0  0  0  0  0  0  0  0  0  0
   12.2303  -21.4182   24.0699 O   0  0  0  0  0  0  0  0  0  0  0  0
    9.3139  -16.7971   25.6666 N   0  0  0  0  0  0  0  0  0  0  0  0
    9.2904  -16.0471   26.9345 C   0  0  1  0  0  0  0  0  0  0  0  0
    7.8906  -15.5266   27.1700 C   0  0  0  0  0  0  0  0  0  0  0  0
    7.6292  -14.2098   26.5311 C   0  0  0  0  0  0  0  0  0  0  0  0
    8.5404  -13.3683   25.9296 C   0  0  0  0  0  0  0  0  0  0  0  0
    7.8863  -12.2763   25.4991 N   0  0  0  0  0  0  0  0  0  0  0  0
    6.6051  -12.4377   25.8257 C   0  0  0  0  0  0  0  0  0  0  0  0
    6.4369  -13.6007   26.4490 N   0  0  0  0  0  0  0  0  0  0  0  0
    9.6141  -17.0046   28.0109 C   0  0  0  0  0  0  0  0  0  0  0  0
    9.6504  -16.5914   29.2012 O   0  0  0  0  0  0  0  0  0  0  0  0
    9.8803  -18.3477   27.7738 O   0  0  0  0  0  0  0  0  0  0  0  0
  2  1  1  6
  2  3  1  0
  3  4  1  0
  4  8  1  0
  5  4  2  0
  5  6  1  0
  6  7  1  0
  8  7  2  0
  9 11  1  0
  9  2  1  0
 10  9  2  0
 12 11  1  0
 13 14  1  0
 12 13  1  1
 14 15  1  0
 15 16  2  0
 15 19  1  0
 17 12  1  0
 17 20  1  0
 18 17  2  0
 21 20  1  0
 21 28  1  0
 21 22  1  1
 23 22  1  0
 23 24  2  0
 25 24  1  0
 26 25  1  0
 27 26  2  0
 27 23  1  0
 28 29  2  0
 28 30  1  0
M  END
$$$$
