HEH.pdb
     RDKit          3D

 30 31  0  0  1  0  0  0  0  0999 V2000
   11.1077  -16.3564   13.1531 N   0  0  0  0  0  0  0  0  0  0  0  0
   12.1266  -16.9456   13.9664 C   0  0  1  0  0  0  0  0  0  0  0  0
   13.3792  -16.1325   13.8799 C   0  0  0  0  0  0  0  0  0  0  0  0
   14.3171  -16.8647   12.9722 C   0  0  0  0  0  0  0  0  0  0  0  0
   14.0702  -17.3454   11.7006 C   0  0  0  0  0  0  0  0  0  0  0  0
   15.1841  -17.9401   11.2330 N   0  0  0  0  0  0  0  0  0  0  0  0
   16.1255  -17.8496   12.1693 C   0  0  0  0  0  0  0  0  0  0  0  0
   15.6146  -17.2032   13.2229 N   0  0  0  0  0  0  0  0  0  0  0  0
   11.6943  -17.2106   15.3498 C   0  0  0  0  0  0  0  0  0  0  0  0
   10.9644  -16.3928   15.9626 O   0  0  0  0  0  0  0  0  0  0  0  0
   12.0673  -18.3991   16.0851 N   0  0  0  0  0  0  0  0  0  0  0  0
   11.6191  -18.6850   17.3995 C   0  0  1  0  0  0  0  0  0  0  0  0
   11.0838  -20.0261   17.7067 C   0  0  0  0  0  0  0  0  0  0  0  0
    9.9001  -20.4839   16.9214 C   0  0  0  0  0  0  0  0  0  0  0  0
    9.3767  -21.8100   17.2023 C   0  0  0  0  0  0  0  0  0  0  0  0
    9.8619  -22.6590   17.9798 O   0  0  0  0  0  0  0  0  0  0  0  0
   12.6740  -18.3573   18.4312 C   0  0  0  0  0  0  0  0  0  0  0  0
   13.8664  -18.6235   18.1315 O   0  0  0  0  0  0  0  0  0  0  0  0
    8.1900  -22.1924   16.5276 O   0  0  0  0  0  0  0  0  0  0  0  0
   12.4050  -17.7829   19.6790 N   0  0  0  0  0  0  0  0  0  0  0  0
   13.4630  -17.4316   20.6424 C   0  0  1  0  0  0  0  0  0  0  0  0
   13.4111  -15.9438   20.9062 C   0  0  0  0  0  0  0  0  0  0  0  0
   14.0373  -15.1264   19.8338 C   0  0  0  0  0  0  0  0  0  0  0  0
   14.7192  -15.5729   18.7221 C   0  0  0  0  0  0  0  0  0  0  0  0
   15.1349  -14.5026   18.0239 N   0  0  0  0  0  0  0  0  0  0  0  0
   14.7216  -13.4232   18.6858 C   0  0  0  0  0  0  0  0  0  0  0  0
   14.0579  -13.7861   19.7799 N   0  0  0  0  0  0  0  0  0  0  0  0
   13.1526  -18.1351   21.9030 C   0  0  0  0  0  0  0  0  0  0  0  0
   12.0562  -18.7489   22.0024 O   0  0  0  0  0  0  0  0  0  0  0  0
   14.0169  -18.1546   22.9909 O   0  0  0  0  0  0  0  0  0  0  0  0
  2  1  1  6
  2  3  1  0
  3  4  1  0
  4  8  1  0
  5  4  2  0
  5  6  1  0
  6  7  1  0
  8  7  2  0
  9 11  1  0
  9  2  1  0
 10  9  2  0
 12 11  1  0
 13 14  1  0
 12 13  1  6
 14 15  1  0
 15 16  2  0
 15 19  1  0
 17 12  1  0
 17 20  1  0
 18 17  2  0
 21 20  1  0
 21 28  1  0
 21 22  1  1
 23 22  1  0
 23 24  2  0
 25 24  1  0
 26 25  1  0
 27 26  2  0
 27 23  1  0
 28 29  2  0
 28 30  1  0
M  END
$$$$
