HEH.pdb
     RDKit          3D

 30 31  0  0  1  0  0  0  0  0999 V2000
   10.4538  -16.3134   15.2273 N   0  0  0  0  0  0  0  0  0  0  0  0
    9.3608  -16.0430   16.1100 C   0  0  1  0  0  0  0  0  0  0  0  0
    8.0700  -16.4029   15.4454 C   0  0  0  0  0  0  0  0  0  0  0  0
    7.9286  -15.5150   14.2490 C   0  0  0  0  0  0  0  0  0  0  0  0
    8.5355  -14.2957   14.0169 C   0  0  0  0  0  0  0  0  0  0  0  0
    8.1393  -13.8304   12.8171 N   0  0  0  0  0  0  0  0  0  0  0  0
    7.3019  -14.7175   12.2853 C   0  0  0  0  0  0  0  0  0  0  0  0
    7.1669  -15.7378   13.1395 N   0  0  0  0  0  0  0  0  0  0  0  0
    9.5207  -16.6455   17.4451 C   0  0  0  0  0  0  0  0  0  0  0  0
    8.5685  -16.6550   18.2638 O   0  0  0  0  0  0  0  0  0  0  0  0
   10.7515  -17.2543   17.8998 N   0  0  0  0  0  0  0  0  0  0  0  0
   10.9189  -17.8253   19.1869 C   0  0  1  0  0  0  0  0  0  0  0  0
   12.0473  -18.7458   19.4298 C   0  0  0  0  0  0  0  0  0  0  0  0
   13.3188  -18.4738   18.6970 C   0  0  0  0  0  0  0  0  0  0  0  0
   14.4248  -19.3937   18.9018 C   0  0  0  0  0  0  0  0  0  0  0  0
   14.4249  -20.4203   19.6136 O   0  0  0  0  0  0  0  0  0  0  0  0
   10.9398  -16.7680   20.2667 C   0  0  0  0  0  0  0  0  0  0  0  0
   11.7744  -15.8359   20.1357 O   0  0  0  0  0  0  0  0  0  0  0  0
   15.6380  -19.1055   18.2275 O   0  0  0  0  0  0  0  0  0  0  0  0
   10.0970  -16.7656   21.3843 N   0  0  0  0  0  0  0  0  0  0  0  0
   10.1646  -15.7345   22.4346 C   0  0  1  0  0  0  0  0  0  0  0  0
    8.8325  -15.0234   22.5097 C   0  0  0  0  0  0  0  0  0  0  0  0
    8.5795  -14.1098   21.3644 C   0  0  0  0  0  0  0  0  0  0  0  0
    9.4410  -13.7841   20.3387 C   0  0  0  0  0  0  0  0  0  0  0  0
    8.8199  -12.9123   19.5266 N   0  0  0  0  0  0  0  0  0  0  0  0
    7.6070  -12.7039   20.0361 C   0  0  0  0  0  0  0  0  0  0  0  0
    7.4495  -13.4208   21.1453 N   0  0  0  0  0  0  0  0  0  0  0  0
   10.3872  -16.4343   23.7156 C   0  0  0  0  0  0  0  0  0  0  0  0
   10.3483  -17.6941   23.7347 O   0  0  0  0  0  0  0  0  0  0  0  0
   10.6408  -15.7672   24.9079 O   0  0  0  0  0  0  0  0  0  0  0  0
  2  1  1  6
  2  3  1  0
  3  4  1  0
  4  8  1  0
  5  4  2  0
  5  6  1  0
  6  7  1  0
  8  7  2  0
  9 11  1  0
  9  2  1  0
 10  9  2  0
 12 11  1  0
 13 14  1  0
 12 13  1  6
 14 15  1  0
 15 16  2  0
 15 19  1  0
 17 12  1  0
 17 20  1  0
 18 17  2  0
 21 20  1  0
 21 28  1  0
 21 22  1  1
 23 22  1  0
 23 24  2  0
 25 24  1  0
 26 25  1  0
 27 26  2  0
 27 23  1  0
 28 29  2  0
 28 30  1  0
M  END
$$$$
