HEH.pdb
     RDKit          3D

 30 31  0  0  1  0  0  0  0  0999 V2000
    8.7504  -16.5230   20.0280 N   0  0  0  0  0  0  0  0  0  0  0  0
    8.8218  -15.6225   21.1375 C   0  0  1  0  0  0  0  0  0  0  0  0
    7.6383  -14.7079   21.1264 C   0  0  0  0  0  0  0  0  0  0  0  0
    7.6305  -14.0145   19.8002 C   0  0  0  0  0  0  0  0  0  0  0  0
    8.1700  -12.7836   19.4796 C   0  0  0  0  0  0  0  0  0  0  0  0
    7.9456  -12.5331   18.1757 N   0  0  0  0  0  0  0  0  0  0  0  0
    7.2819  -13.5669   17.6641 C   0  0  0  0  0  0  0  0  0  0  0  0
    7.0859  -14.4667   18.6341 N   0  0  0  0  0  0  0  0  0  0  0  0
    9.0283  -16.2983   22.4304 C   0  0  0  0  0  0  0  0  0  0  0  0
    8.0627  -16.8095   23.0495 O   0  0  0  0  0  0  0  0  0  0  0  0
   10.3222  -16.4203   23.0655 N   0  0  0  0  0  0  0  0  0  0  0  0
   10.5575  -17.1926   24.2311 C   0  0  1  0  0  0  0  0  0  0  0  0
   11.7139  -18.1096   24.2713 C   0  0  0  0  0  0  0  0  0  0  0  0
   12.9964  -17.6152   23.6898 C   0  0  0  0  0  0  0  0  0  0  0  0
   14.1411  -18.5096   23.7241 C   0  0  0  0  0  0  0  0  0  0  0  0
   15.0975  -18.4738   24.5269 O   0  0  0  0  0  0  0  0  0  0  0  0
   10.6045  -16.3294   25.4710 C   0  0  0  0  0  0  0  0  0  0  0  0
   11.3333  -15.3051   25.4250 O   0  0  0  0  0  0  0  0  0  0  0  0
   14.1887  -19.5356   22.7470 O   0  0  0  0  0  0  0  0  0  0  0  0
    9.8945  -16.5991   26.6468 N   0  0  0  0  0  0  0  0  0  0  0  0
    9.9217  -15.7075   27.8195 C   0  0  1  0  0  0  0  0  0  0  0  0
    8.5035  -15.3232   28.1758 C   0  0  0  0  0  0  0  0  0  0  0  0
    7.8685  -14.4090   27.1902 C   0  0  0  0  0  0  0  0  0  0  0  0
    8.4809  -13.7069   26.1743 C   0  0  0  0  0  0  0  0  0  0  0  0
    7.5436  -12.9887   25.5330 N   0  0  0  0  0  0  0  0  0  0  0  0
    6.3828  -13.2394   26.1360 C   0  0  0  0  0  0  0  0  0  0  0  0
    6.5653  -14.0951   27.1378 N   0  0  0  0  0  0  0  0  0  0  0  0
   10.4853  -16.4842   28.9417 C   0  0  0  0  0  0  0  0  0  0  0  0
   10.6293  -15.9197   30.0596 O   0  0  0  0  0  0  0  0  0  0  0  0
   10.8653  -17.8157   28.8248 O   0  0  0  0  0  0  0  0  0  0  0  0
  2  1  1  6
  2  3  1  0
  3  4  1  0
  4  8  1  0
  5  4  2  0
  5  6  1  0
  6  7  1  0
  8  7  2  0
  9 11  1  0
  9  2  1  0
 10  9  2  0
 12 11  1  0
 13 14  1  0
 12 13  1  6
 14 15  1  0
 15 16  2  0
 15 19  1  0
 17 12  1  0
 17 20  1  0
 18 17  2  0
 21 20  1  0
 21 28  1  0
 21 22  1  1
 23 22  1  0
 23 24  2  0
 25 24  1  0
 26 25  1  0
 27 26  2  0
 27 23  1  0
 28 29  2  0
 28 30  1  0
M  END
$$$$
