HEH.pdb
     RDKit          3D

 30 31  0  0  1  0  0  0  0  0999 V2000
   10.4270  -14.7605   18.7087 N   0  0  0  0  0  0  0  0  0  0  0  0
    9.5462  -15.6487   19.4030 C   0  0  1  0  0  0  0  0  0  0  0  0
    8.3528  -15.9486   18.5525 C   0  0  0  0  0  0  0  0  0  0  0  0
    7.8800  -14.6477   17.9835 C   0  0  0  0  0  0  0  0  0  0  0  0
    8.4948  -13.4126   18.0566 C   0  0  0  0  0  0  0  0  0  0  0  0
    7.7366  -12.5068   17.4103 N   0  0  0  0  0  0  0  0  0  0  0  0
    6.6632  -13.1315   16.9321 C   0  0  0  0  0  0  0  0  0  0  0  0
    6.7383  -14.4230   17.2714 N   0  0  0  0  0  0  0  0  0  0  0  0
   10.2157  -16.8552   19.9199 C   0  0  0  0  0  0  0  0  0  0  0  0
    9.5772  -17.7109   20.5810 O   0  0  0  0  0  0  0  0  0  0  0  0
   11.6190  -17.1366   19.7102 N   0  0  0  0  0  0  0  0  0  0  0  0
   12.2903  -18.2533   20.2696 C   0  0  1  0  0  0  0  0  0  0  0  0
   13.5995  -18.6605   19.7219 C   0  0  0  0  0  0  0  0  0  0  0  0
   14.2167  -19.8991   20.2806 C   0  0  0  0  0  0  0  0  0  0  0  0
   15.4954  -20.3206   19.7340 C   0  0  0  0  0  0  0  0  0  0  0  0
   16.6293  -20.0504   20.1835 O   0  0  0  0  0  0  0  0  0  0  0  0
   12.4327  -18.1238   21.7687 C   0  0  0  0  0  0  0  0  0  0  0  0
   12.8176  -17.0107   22.2107 O   0  0  0  0  0  0  0  0  0  0  0  0
   15.4655  -21.1237   18.5662 O   0  0  0  0  0  0  0  0  0  0  0  0
   12.1640  -19.1535   22.6781 N   0  0  0  0  0  0  0  0  0  0  0  0
   12.2451  -18.9722   24.1380 C   0  0  1  0  0  0  0  0  0  0  0  0
   11.0572  -19.6500   24.7826 C   0  0  0  0  0  0  0  0  0  0  0  0
   11.1410  -19.7153   26.2656 C   0  0  0  0  0  0  0  0  0  0  0  0
   11.4651  -20.8050   27.0451 C   0  0  0  0  0  0  0  0  0  0  0  0
   11.4053  -20.4339   28.3351 N   0  0  0  0  0  0  0  0  0  0  0  0
   11.0534  -19.1494   28.3534 C   0  0  0  0  0  0  0  0  0  0  0  0
   10.8909  -18.7039   27.1107 N   0  0  0  0  0  0  0  0  0  0  0  0
   13.4709  -19.6583   24.5928 C   0  0  0  0  0  0  0  0  0  0  0  0
   13.8317  -19.5258   25.7933 O   0  0  0  0  0  0  0  0  0  0  0  0
   14.2496  -20.4493   23.7568 O   0  0  0  0  0  0  0  0  0  0  0  0
  2  1  1  6
  2  3  1  0
  3  4  1  0
  4  8  1  0
  5  4  2  0
  5  6  1  0
  6  7  1  0
  8  7  2  0
  9 11  1  0
  9  2  1  0
 10  9  2  0
 12 11  1  0
 13 14  1  0
 12 13  1  6
 14 15  1  0
 15 16  2  0
 15 19  1  0
 17 12  1  0
 17 20  1  0
 18 17  2  0
 21 20  1  0
 21 28  1  0
 21 22  1  1
 23 22  1  0
 23 24  2  0
 25 24  1  0
 26 25  1  0
 27 26  2  0
 27 23  1  0
 28 29  2  0
 28 30  1  0
M  END
$$$$
