HEH.pdb
     RDKit          3D

 30 31  0  0  1  0  0  0  0  0999 V2000
    9.8317  -14.6459   19.5674 N   0  0  0  0  0  0  0  0  0  0  0  0
    8.6365  -14.9012   20.3112 C   0  0  1  0  0  0  0  0  0  0  0  0
    7.5797  -15.4458   19.4034 C   0  0  0  0  0  0  0  0  0  0  0  0
    7.6282  -14.6436   18.1409 C   0  0  0  0  0  0  0  0  0  0  0  0
    8.5018  -13.6250   17.8121 C   0  0  0  0  0  0  0  0  0  0  0  0
    8.2025  -13.1716   16.5800 N   0  0  0  0  0  0  0  0  0  0  0  0
    7.1679  -13.8720   16.1216 C   0  0  0  0  0  0  0  0  0  0  0  0
    6.8126  -14.7627   17.0539 N   0  0  0  0  0  0  0  0  0  0  0  0
    8.8571  -15.7237   21.5136 C   0  0  0  0  0  0  0  0  0  0  0  0
    7.8869  -16.1479   22.1886 O   0  0  0  0  0  0  0  0  0  0  0  0
   10.1706  -16.0940   21.9931 N   0  0  0  0  0  0  0  0  0  0  0  0
   10.3929  -16.8879   23.1466 C   0  0  1  0  0  0  0  0  0  0  0  0
   11.6893  -17.5740   23.3149 C   0  0  0  0  0  0  0  0  0  0  0  0
   12.1719  -18.4085   22.1756 C   0  0  0  0  0  0  0  0  0  0  0  0
   13.5903  -18.7193   22.1211 C   0  0  0  0  0  0  0  0  0  0  0  0
   14.4817  -18.2936   22.8859 O   0  0  0  0  0  0  0  0  0  0  0  0
   10.1048  -16.1192   24.4157 C   0  0  0  0  0  0  0  0  0  0  0  0
   10.0386  -14.8666   24.3208 O   0  0  0  0  0  0  0  0  0  0  0  0
   14.0202  -19.5977   21.0948 O   0  0  0  0  0  0  0  0  0  0  0  0
    9.9091  -16.7113   25.6689 N   0  0  0  0  0  0  0  0  0  0  0  0
    9.2443  -16.0176   26.7859 C   0  0  1  0  0  0  0  0  0  0  0  0
    7.8209  -15.6995   26.3875 C   0  0  0  0  0  0  0  0  0  0  0  0
    7.5195  -14.2438   26.3659 C   0  0  0  0  0  0  0  0  0  0  0  0
    8.3500  -13.2049   26.7277 C   0  0  0  0  0  0  0  0  0  0  0  0
    7.6763  -12.0526   26.5733 N   0  0  0  0  0  0  0  0  0  0  0  0
    6.4616  -12.3700   26.1284 C   0  0  0  0  0  0  0  0  0  0  0  0
    6.3543  -13.6894   25.9990 N   0  0  0  0  0  0  0  0  0  0  0  0
    9.2060  -16.9611   27.9211 C   0  0  0  0  0  0  0  0  0  0  0  0
    8.8843  -16.5283   29.0604 O   0  0  0  0  0  0  0  0  0  0  0  0
    9.5076  -18.3115   27.7929 O   0  0  0  0  0  0  0  0  0  0  0  0
  2  1  1  6
  2  3  1  0
  3  4  1  0
  4  8  1  0
  5  4  2  0
  5  6  1  0
  6  7  1  0
  8  7  2  0
  9 11  1  0
  9  2  1  0
 10  9  2  0
 12 11  1  0
 13 14  1  0
 12 13  1  1
 14 15  1  0
 15 16  2  0
 15 19  1  0
 17 12  1  0
 17 20  1  0
 18 17  2  0
 21 20  1  0
 21 28  1  0
 21 22  1  6
 23 22  1  0
 23 24  2  0
 25 24  1  0
 26 25  1  0
 27 26  2  0
 27 23  1  0
 28 29  2  0
 28 30  1  0
M  END
$$$$
