CFS.pdb
     RDKit          3D

 24 24  0  0  1  0  0  0  0  0999 V2000
    8.0468  -13.0980   19.5755 N   0  0  0  0  0  0  0  0  0  0  0  0
    7.3357  -13.8523   20.5561 C   0  0  1  0  0  0  0  0  0  0  0  0
    6.8056  -15.1625   20.0028 C   0  0  0  0  0  0  0  0  0  0  0  0
    8.2165  -16.2094   19.5595 S   0  0  0  0  0  0  0  0  0  0  0  0
    8.1395  -14.1518   21.7655 C   0  0  0  0  0  0  0  0  0  0  0  0
    9.3722  -13.9143   21.7176 O   0  0  0  0  0  0  0  0  0  0  0  0
    7.5490  -14.6864   22.9374 N   0  0  0  0  0  0  0  0  0  0  0  0
    8.3105  -14.9725   24.1445 C   0  0  1  0  0  0  0  0  0  0  0  0
    7.4485  -14.9737   25.3593 C   0  0  0  0  0  0  0  0  0  0  0  0
    7.2023  -13.6003   25.8444 C   0  0  0  0  0  0  0  0  0  0  0  0
    8.2710  -12.7476   26.1319 C   0  0  0  0  0  0  0  0  0  0  0  0
    8.0426  -11.4707   26.5587 C   0  0  0  0  0  0  0  0  0  0  0  0
    6.7830  -10.9571   26.7279 C   0  0  0  0  0  0  0  0  0  0  0  0
    5.7250  -11.7899   26.4469 C   0  0  0  0  0  0  0  0  0  0  0  0
    5.9373  -13.0641   26.0208 C   0  0  0  0  0  0  0  0  0  0  0  0
    8.9476  -16.2989   23.9776 C   0  0  0  0  0  0  0  0  0  0  0  0
    8.3313  -17.3565   23.6798 O   0  0  0  0  0  0  0  0  0  0  0  0
   12.9022  -16.5147   23.1714 O   0  0  0  0  0  0  0  0  0  0  0  0
   12.0767  -17.5667   22.8262 C   0  0  0  0  0  0  0  0  0  0  0  0
   11.0155  -17.7407   23.8934 C   0  0  2  0  0  0  0  0  0  0  0  0
   10.3662  -16.4731   24.1514 N   0  0  0  0  0  0  0  0  0  0  0  0
   11.6075  -18.2790   25.1364 C   0  0  0  0  0  0  0  0  0  0  0  0
   12.2764  -19.3345   25.1184 O   0  0  0  0  0  0  0  0  0  0  0  0
   11.4157  -17.6057   26.3203 O   0  0  0  0  0  0  0  0  0  0  0  0
  2  5  1  0
  2  1  1  6
  3  2  1  0
  4  3  1  0
  5  6  2  0
  7  8  1  0
  7  5  1  0
  9 10  1  0
  8  9  1  1
 10 11  2  0
 11 12  1  0
 13 12  2  0
 14 13  1  0
 15 14  2  0
 15 10  1  0
 16  8  1  0
 16 17  2  0
 18 19  1  0
 20 19  1  6
 20 22  1  0
 21 20  1  0
 21 16  1  0
 22 23  2  0
 22 24  1  0
M  END
$$$$
