CFS.pdb
     RDKit          3D

 24 24  0  0  1  0  0  0  0  0999 V2000
    9.9411  -16.1632   19.0359 N   0  0  0  0  0  0  0  0  0  0  0  0
    9.1451  -16.7152   20.0836 C   0  0  1  0  0  0  0  0  0  0  0  0
    9.4873  -18.1671   20.3638 C   0  0  0  0  0  0  0  0  0  0  0  0
    8.2450  -18.8394   21.4988 S   0  0  0  0  0  0  0  0  0  0  0  0
    9.2436  -15.9622   21.3571 C   0  0  0  0  0  0  0  0  0  0  0  0
   10.3900  -15.6278   21.7474 O   0  0  0  0  0  0  0  0  0  0  0  0
    8.0935  -15.6270   22.1139 N   0  0  0  0  0  0  0  0  0  0  0  0
    8.1621  -14.9022   23.3744 C   0  0  1  0  0  0  0  0  0  0  0  0
    6.8742  -14.2281   23.6997 C   0  0  0  0  0  0  0  0  0  0  0  0
    6.9588  -13.4980   24.9811 C   0  0  0  0  0  0  0  0  0  0  0  0
    7.7551  -12.3557   25.0951 C   0  0  0  0  0  0  0  0  0  0  0  0
    7.8151  -11.6683   26.2735 C   0  0  0  0  0  0  0  0  0  0  0  0
    7.1163  -12.0452   27.3909 C   0  0  0  0  0  0  0  0  0  0  0  0
    6.3296  -13.1688   27.2874 C   0  0  0  0  0  0  0  0  0  0  0  0
    6.2599  -13.8634   26.1199 C   0  0  0  0  0  0  0  0  0  0  0  0
    8.5062  -15.8719   24.4394 C   0  0  0  0  0  0  0  0  0  0  0  0
    7.8016  -16.8669   24.7562 O   0  0  0  0  0  0  0  0  0  0  0  0
   11.8088  -17.3333   24.6413 O   0  0  0  0  0  0  0  0  0  0  0  0
   11.5779  -17.0822   25.9796 C   0  0  0  0  0  0  0  0  0  0  0  0
   10.1168  -16.7346   26.1784 C   0  0  2  0  0  0  0  0  0  0  0  0
    9.7139  -15.7357   25.2115 N   0  0  0  0  0  0  0  0  0  0  0  0
    9.8778  -16.2470   27.5533 C   0  0  0  0  0  0  0  0  0  0  0  0
    9.4060  -15.1070   27.7519 O   0  0  0  0  0  0  0  0  0  0  0  0
   10.1802  -17.0622   28.6190 O   0  0  0  0  0  0  0  0  0  0  0  0
  2  5  1  0
  2  1  1  6
  3  2  1  0
  4  3  1  0
  5  6  2  0
  7  8  1  0
  7  5  1  0
  9 10  1  0
  8  9  1  1
 10 11  2  0
 11 12  1  0
 13 12  2  0
 14 13  1  0
 15 14  2  0
 15 10  1  0
 16  8  1  0
 16 17  2  0
 18 19  1  0
 20 19  1  1
 20 22  1  0
 21 20  1  0
 21 16  1  0
 22 23  2  0
 22 24  1  0
M  END
$$$$
