CFS.pdb
     RDKit          3D

 24 24  0  0  1  0  0  0  0  0999 V2000
    6.6339  -19.4020   19.1522 N   0  0  0  0  0  0  0  0  0  0  0  0
    6.8898  -18.7941   20.4175 C   0  0  1  0  0  0  0  0  0  0  0  0
    6.9457  -19.8095   21.5443 C   0  0  0  0  0  0  0  0  0  0  0  0
    8.3563  -20.9093   21.2543 S   0  0  0  0  0  0  0  0  0  0  0  0
    8.1419  -18.0004   20.4470 C   0  0  0  0  0  0  0  0  0  0  0  0
    8.8690  -18.0236   19.4228 O   0  0  0  0  0  0  0  0  0  0  0  0
    8.5141  -17.2402   21.5835 N   0  0  0  0  0  0  0  0  0  0  0  0
    9.7058  -16.4051   21.6182 C   0  0  1  0  0  0  0  0  0  0  0  0
    9.4290  -15.0644   22.2055 C   0  0  0  0  0  0  0  0  0  0  0  0
    8.5771  -14.2525   21.3126 C   0  0  0  0  0  0  0  0  0  0  0  0
    9.1432  -13.5158   20.2692 C   0  0  0  0  0  0  0  0  0  0  0  0
    8.3529  -12.7834   19.4303 C   0  0  0  0  0  0  0  0  0  0  0  0
    6.9890  -12.7257   19.5549 C   0  0  0  0  0  0  0  0  0  0  0  0
    6.4233  -13.4483   20.5795 C   0  0  0  0  0  0  0  0  0  0  0  0
    7.1981  -14.1824   21.4228 C   0  0  0  0  0  0  0  0  0  0  0  0
   10.7304  -17.1066   22.4250 C   0  0  0  0  0  0  0  0  0  0  0  0
   10.9335  -16.9090   23.6524 O   0  0  0  0  0  0  0  0  0  0  0  0
   12.6741  -20.2799   20.7817 O   0  0  0  0  0  0  0  0  0  0  0  0
   12.6931  -20.2339   22.1619 C   0  0  0  0  0  0  0  0  0  0  0  0
   12.5977  -18.7916   22.6155 C   0  0  2  0  0  0  0  0  0  0  0  0
   11.5939  -18.0976   21.8373 N   0  0  0  0  0  0  0  0  0  0  0  0
   13.9064  -18.1160   22.4888 C   0  0  0  0  0  0  0  0  0  0  0  0
   14.0460  -17.1357   21.7263 O   0  0  0  0  0  0  0  0  0  0  0  0
   14.9759  -18.5767   23.2206 O   0  0  0  0  0  0  0  0  0  0  0  0
  2  5  1  0
  2  1  1  6
  3  2  1  0
  4  3  1  0
  5  6  2  0
  7  8  1  0
  7  5  1  0
  9 10  1  0
  8  9  1  1
 10 11  2  0
 11 12  1  0
 13 12  2  0
 14 13  1  0
 15 14  2  0
 15 10  1  0
 16  8  1  0
 16 17  2  0
 18 19  1  0
 20 19  1  6
 20 22  1  0
 21 20  1  0
 21 16  1  0
 22 23  2  0
 22 24  1  0
M  END
$$$$
