CFS.pdb
     RDKit          3D

 24 24  0  0  1  0  0  0  0  0999 V2000
    7.2257  -14.2428   19.8977 N   0  0  0  0  0  0  0  0  0  0  0  0
    6.8006  -15.0038   21.0274 C   0  0  1  0  0  0  0  0  0  0  0  0
    6.5707  -16.4646   20.6853 C   0  0  0  0  0  0  0  0  0  0  0  0
    8.1405  -17.1752   20.1248 S   0  0  0  0  0  0  0  0  0  0  0  0
    7.7436  -14.9387   22.1698 C   0  0  0  0  0  0  0  0  0  0  0  0
    8.9054  -14.5188   21.9412 O   0  0  0  0  0  0  0  0  0  0  0  0
    7.3589  -15.3332   23.4753 N   0  0  0  0  0  0  0  0  0  0  0  0
    8.2405  -15.2141   24.6274 C   0  0  1  0  0  0  0  0  0  0  0  0
    7.4785  -15.1127   25.9033 C   0  0  0  0  0  0  0  0  0  0  0  0
    7.1016  -13.7143   26.1940 C   0  0  0  0  0  0  0  0  0  0  0  0
    8.0768  -12.7159   26.2591 C   0  0  0  0  0  0  0  0  0  0  0  0
    7.7252  -11.4196   26.5054 C   0  0  0  0  0  0  0  0  0  0  0  0
    6.4269  -11.0251   26.6996 C   0  0  0  0  0  0  0  0  0  0  0  0
    5.4603  -12.0016   26.6370 C   0  0  0  0  0  0  0  0  0  0  0  0
    5.7957  -13.2970   26.3922 C   0  0  0  0  0  0  0  0  0  0  0  0
    9.1156  -16.4084   24.6569 C   0  0  0  0  0  0  0  0  0  0  0  0
    8.7022  -17.5979   24.6908 O   0  0  0  0  0  0  0  0  0  0  0  0
   13.2746  -16.0237   24.3325 O   0  0  0  0  0  0  0  0  0  0  0  0
   12.6643  -17.1679   23.8576 C   0  0  0  0  0  0  0  0  0  0  0  0
   11.4159  -17.4431   24.6707 C   0  0  2  0  0  0  0  0  0  0  0  0
   10.5500  -16.2835   24.6484 N   0  0  0  0  0  0  0  0  0  0  0  0
   11.7660  -17.7982   26.0623 C   0  0  0  0  0  0  0  0  0  0  0  0
   11.3047  -17.1441   27.0220 O   0  0  0  0  0  0  0  0  0  0  0  0
   12.6085  -18.8603   26.2947 O   0  0  0  0  0  0  0  0  0  0  0  0
  2  5  1  0
  2  1  1  6
  3  2  1  0
  4  3  1  0
  5  6  2  0
  7  8  1  0
  7  5  1  0
  9 10  1  0
  8  9  1  1
 10 11  2  0
 11 12  1  0
 13 12  2  0
 14 13  1  0
 15 14  2  0
 15 10  1  0
 16  8  1  0
 16 17  2  0
 18 19  1  0
 20 19  1  6
 20 22  1  0
 21 20  1  0
 21 16  1  0
 22 23  2  0
 22 24  1  0
M  END
$$$$
