CFS.pdb
     RDKit          3D

 24 24  0  0  1  0  0  0  0  0999 V2000
    5.4309  -16.8759   20.5272 N   0  0  0  0  0  0  0  0  0  0  0  0
    5.5271  -17.1850   21.9169 C   0  0  1  0  0  0  0  0  0  0  0  0
    5.6312  -18.6780   22.1696 C   0  0  0  0  0  0  0  0  0  0  0  0
    7.2769  -19.2328   21.6526 S   0  0  0  0  0  0  0  0  0  0  0  0
    6.6690  -16.5207   22.5902 C   0  0  0  0  0  0  0  0  0  0  0  0
    7.5554  -16.0089   21.8618 O   0  0  0  0  0  0  0  0  0  0  0  0
    6.7665  -16.4598   24.0026 N   0  0  0  0  0  0  0  0  0  0  0  0
    7.8852  -15.8311   24.6896 C   0  0  1  0  0  0  0  0  0  0  0  0
    7.5216  -15.4032   26.0694 C   0  0  0  0  0  0  0  0  0  0  0  0
    7.1491  -13.9742   26.1078 C   0  0  0  0  0  0  0  0  0  0  0  0
    6.0456  -13.5489   26.8517 C   0  0  0  0  0  0  0  0  0  0  0  0
    5.7152  -12.2249   26.9051 C   0  0  0  0  0  0  0  0  0  0  0  0
    6.4266  -11.2538   26.2495 C   0  0  0  0  0  0  0  0  0  0  0  0
    7.5148  -11.6638   25.5148 C   0  0  0  0  0  0  0  0  0  0  0  0
    7.8558  -12.9792   25.4526 C   0  0  0  0  0  0  0  0  0  0  0  0
    8.9957  -16.8093   24.7419 C   0  0  0  0  0  0  0  0  0  0  0  0
    8.9503  -17.9118   25.3497 O   0  0  0  0  0  0  0  0  0  0  0  0
   12.6176  -16.0885   22.7178 O   0  0  0  0  0  0  0  0  0  0  0  0
   12.1228  -17.3764   22.7788 C   0  0  0  0  0  0  0  0  0  0  0  0
   11.3074  -17.5395   24.0452 C   0  0  2  0  0  0  0  0  0  0  0  0
   10.2470  -16.5548   24.0765 N   0  0  0  0  0  0  0  0  0  0  0  0
   12.1670  -17.4095   25.2408 C   0  0  0  0  0  0  0  0  0  0  0  0
   11.9588  -16.5071   26.0799 O   0  0  0  0  0  0  0  0  0  0  0  0
   13.2039  -18.2943   25.4242 O   0  0  0  0  0  0  0  0  0  0  0  0
  2  5  1  0
  2  1  1  6
  3  2  1  0
  4  3  1  0
  5  6  2  0
  7  8  1  0
  7  5  1  0
  9 10  1  0
  8  9  1  1
 10 11  2  0
 11 12  1  0
 13 12  2  0
 14 13  1  0
 15 14  2  0
 15 10  1  0
 16  8  1  0
 16 17  2  0
 18 19  1  0
 20 19  1  6
 20 22  1  0
 21 20  1  0
 21 16  1  0
 22 23  2  0
 22 24  1  0
M  END
$$$$
