CFS.pdb
     RDKit          3D

 24 24  0  0  1  0  0  0  0  0999 V2000
    5.4931  -19.1749   20.7693 N   0  0  0  0  0  0  0  0  0  0  0  0
    5.4610  -19.0384   22.1894 C   0  0  1  0  0  0  0  0  0  0  0  0
    5.9320  -20.2942   22.9000 C   0  0  0  0  0  0  0  0  0  0  0  0
    7.6829  -20.5502   22.5103 S   0  0  0  0  0  0  0  0  0  0  0  0
    6.2623  -17.8955   22.6894 C   0  0  0  0  0  0  0  0  0  0  0  0
    7.0919  -17.3779   21.9005 O   0  0  0  0  0  0  0  0  0  0  0  0
    6.1062  -17.3973   24.0067 N   0  0  0  0  0  0  0  0  0  0  0  0
    6.8798  -16.2780   24.5238 C   0  0  1  0  0  0  0  0  0  0  0  0
    6.2415  -15.6669   25.7229 C   0  0  0  0  0  0  0  0  0  0  0  0
    6.8525  -14.3625   26.0506 C   0  0  0  0  0  0  0  0  0  0  0  0
    7.5929  -14.2012   27.2244 C   0  0  0  0  0  0  0  0  0  0  0  0
    8.1764  -13.0013   27.5155 C   0  0  0  0  0  0  0  0  0  0  0  0
    8.0758  -11.9070   26.6962 C   0  0  0  0  0  0  0  0  0  0  0  0
    7.3487  -12.0572   25.5383 C   0  0  0  0  0  0  0  0  0  0  0  0
    6.7620  -13.2464   25.2351 C   0  0  0  0  0  0  0  0  0  0  0  0
    8.2292  -16.7789   24.8717 C   0  0  0  0  0  0  0  0  0  0  0  0
    8.4640  -17.6556   25.7453 O   0  0  0  0  0  0  0  0  0  0  0  0
   11.5447  -15.4117   22.7578 O   0  0  0  0  0  0  0  0  0  0  0  0
   11.5397  -16.7348   23.1537 C   0  0  0  0  0  0  0  0  0  0  0  0
   10.7074  -16.8772   24.4116 C   0  0  2  0  0  0  0  0  0  0  0  0
    9.4054  -16.2780   24.2092 N   0  0  0  0  0  0  0  0  0  0  0  0
   11.3896  -16.2507   25.5636 C   0  0  0  0  0  0  0  0  0  0  0  0
   10.8115  -15.3817   26.2509 O   0  0  0  0  0  0  0  0  0  0  0  0
   12.6733  -16.6335   25.8757 O   0  0  0  0  0  0  0  0  0  0  0  0
  2  5  1  0
  2  1  1  6
  3  2  1  0
  4  3  1  0
  5  6  2  0
  7  8  1  0
  7  5  1  0
  9 10  1  0
  8  9  1  1
 10 11  2  0
 11 12  1  0
 13 12  2  0
 14 13  1  0
 15 14  2  0
 15 10  1  0
 16  8  1  0
 16 17  2  0
 18 19  1  0
 20 19  1  6
 20 22  1  0
 21 20  1  0
 21 16  1  0
 22 23  2  0
 22 24  1  0
M  END
$$$$
