CFS.pdb
     RDKit          3D

 24 24  0  0  1  0  0  0  0  0999 V2000
   10.4076  -16.4198   19.2497 N   0  0  0  0  0  0  0  0  0  0  0  0
    9.1519  -16.3813   19.9264 C   0  0  1  0  0  0  0  0  0  0  0  0
    8.4820  -17.7423   19.9767 C   0  0  0  0  0  0  0  0  0  0  0  0
    9.5664  -18.8813   20.8768 S   0  0  0  0  0  0  0  0  0  0  0  0
    9.2451  -15.8597   21.3113 C   0  0  0  0  0  0  0  0  0  0  0  0
   10.3689  -15.8960   21.8716 O   0  0  0  0  0  0  0  0  0  0  0  0
    8.1144  -15.3375   21.9871 N   0  0  0  0  0  0  0  0  0  0  0  0
    8.1939  -14.7383   23.3113 C   0  0  1  0  0  0  0  0  0  0  0  0
    6.9792  -13.9389   23.6344 C   0  0  0  0  0  0  0  0  0  0  0  0
    7.0705  -13.3448   24.9837 C   0  0  0  0  0  0  0  0  0  0  0  0
    6.1300  -13.6670   25.9654 C   0  0  0  0  0  0  0  0  0  0  0  0
    6.2280  -13.1351   27.2193 C   0  0  0  0  0  0  0  0  0  0  0  0
    7.2292  -12.2735   27.5856 C   0  0  0  0  0  0  0  0  0  0  0  0
    8.1596  -11.9511   26.6252 C   0  0  0  0  0  0  0  0  0  0  0  0
    8.0748  -12.4734   25.3720 C   0  0  0  0  0  0  0  0  0  0  0  0
    8.3543  -15.8316   24.2971 C   0  0  0  0  0  0  0  0  0  0  0  0
    7.5257  -16.7641   24.4729 O   0  0  0  0  0  0  0  0  0  0  0  0
   12.0399  -16.8392   25.5422 O   0  0  0  0  0  0  0  0  0  0  0  0
   11.0057  -17.7497   25.6354 C   0  0  0  0  0  0  0  0  0  0  0  0
    9.7367  -17.0259   26.0365 C   0  0  2  0  0  0  0  0  0  0  0  0
    9.5112  -15.9031   25.1513 N   0  0  0  0  0  0  0  0  0  0  0  0
    9.8172  -16.5679   27.4397 C   0  0  0  0  0  0  0  0  0  0  0  0
    9.7175  -15.3542   27.7203 O   0  0  0  0  0  0  0  0  0  0  0  0
   10.0038  -17.4929   28.4403 O   0  0  0  0  0  0  0  0  0  0  0  0
  2  5  1  0
  2  1  1  1
  3  2  1  0
  4  3  1  0
  5  6  2  0
  7  8  1  0
  7  5  1  0
  9 10  1  0
  8  9  1  1
 10 11  2  0
 11 12  1  0
 13 12  2  0
 14 13  1  0
 15 14  2  0
 15 10  1  0
 16  8  1  0
 16 17  2  0
 18 19  1  0
 20 19  1  6
 20 22  1  0
 21 20  1  0
 21 16  1  0
 22 23  2  0
 22 24  1  0
M  END
$$$$
