CFS.pdb
     RDKit          3D

 24 24  0  0  1  0  0  0  0  0999 V2000
    9.0017  -16.9444   19.1236 N   0  0  0  0  0  0  0  0  0  0  0  0
    8.3994  -17.4071   20.3316 C   0  0  1  0  0  0  0  0  0  0  0  0
    8.7838  -18.8392   20.6557 C   0  0  0  0  0  0  0  0  0  0  0  0
   10.5916  -18.9475   20.7148 S   0  0  0  0  0  0  0  0  0  0  0  0
    8.7185  -16.5643   21.5091 C   0  0  0  0  0  0  0  0  0  0  0  0
    9.8363  -15.9911   21.5278 O   0  0  0  0  0  0  0  0  0  0  0  0
    7.8036  -16.4045   22.5794 N   0  0  0  0  0  0  0  0  0  0  0  0
    8.0738  -15.5515   23.7275 C   0  0  1  0  0  0  0  0  0  0  0  0
    6.8256  -15.1796   24.4505 C   0  0  0  0  0  0  0  0  0  0  0  0
    7.0936  -14.1819   25.5064 C   0  0  0  0  0  0  0  0  0  0  0  0
    7.5124  -14.5881   26.7759 C   0  0  0  0  0  0  0  0  0  0  0  0
    7.7817  -13.6642   27.7447 C   0  0  0  0  0  0  0  0  0  0  0  0
    7.6617  -12.3143   27.5390 C   0  0  0  0  0  0  0  0  0  0  0  0
    7.2501  -11.9056   26.2918 C   0  0  0  0  0  0  0  0  0  0  0  0
    6.9784  -12.8146   25.3170 C   0  0  0  0  0  0  0  0  0  0  0  0
    8.9829  -16.2859   24.6368 C   0  0  0  0  0  0  0  0  0  0  0  0
    8.8196  -17.4808   25.0006 O   0  0  0  0  0  0  0  0  0  0  0  0
   13.5866  -16.7530   25.6376 O   0  0  0  0  0  0  0  0  0  0  0  0
   12.5571  -15.9949   25.1155 C   0  0  0  0  0  0  0  0  0  0  0  0
   11.2474  -16.4338   25.7379 C   0  0  2  0  0  0  0  0  0  0  0  0
   10.1571  -15.6587   25.1854 N   0  0  0  0  0  0  0  0  0  0  0  0
   11.2918  -16.2860   27.2081 C   0  0  0  0  0  0  0  0  0  0  0  0
   12.1570  -16.8845   27.8827 O   0  0  0  0  0  0  0  0  0  0  0  0
   10.3683  -15.4800   27.8321 O   0  0  0  0  0  0  0  0  0  0  0  0
  2  5  1  0
  2  1  1  6
  3  2  1  0
  4  3  1  0
  5  6  2  0
  7  8  1  0
  7  5  1  0
  9 10  1  0
  8  9  1  1
 10 11  2  0
 11 12  1  0
 13 12  2  0
 14 13  1  0
 15 14  2  0
 15 10  1  0
 16  8  1  0
 16 17  2  0
 18 19  1  0
 20 19  1  6
 20 22  1  0
 21 20  1  0
 21 16  1  0
 22 23  2  0
 22 24  1  0
M  END
$$$$
