CFS.pdb
     RDKit          3D

 24 24  0  0  1  0  0  0  0  0999 V2000
    7.8050  -13.4512   19.8342 N   0  0  0  0  0  0  0  0  0  0  0  0
    7.2011  -14.2930   20.8154 C   0  0  1  0  0  0  0  0  0  0  0  0
    6.9145  -15.6852   20.2831 C   0  0  0  0  0  0  0  0  0  0  0  0
    8.4909  -16.4727   19.8613 S   0  0  0  0  0  0  0  0  0  0  0  0
    8.0071  -14.4272   22.0527 C   0  0  0  0  0  0  0  0  0  0  0  0
    9.1977  -14.0280   22.0169 O   0  0  0  0  0  0  0  0  0  0  0  0
    7.4643  -14.9839   23.2373 N   0  0  0  0  0  0  0  0  0  0  0  0
    8.2262  -15.1091   24.4713 C   0  0  1  0  0  0  0  0  0  0  0  0
    7.3527  -15.0293   25.6753 C   0  0  0  0  0  0  0  0  0  0  0  0
    7.0991  -13.6266   26.0627 C   0  0  0  0  0  0  0  0  0  0  0  0
    8.1571  -12.7879   26.4222 C   0  0  0  0  0  0  0  0  0  0  0  0
    7.9244  -11.4850   26.7585 C   0  0  0  0  0  0  0  0  0  0  0  0
    6.6706  -10.9310   26.7646 C   0  0  0  0  0  0  0  0  0  0  0  0
    5.6232  -11.7496   26.4117 C   0  0  0  0  0  0  0  0  0  0  0  0
    5.8399  -13.0495   26.0743 C   0  0  0  0  0  0  0  0  0  0  0  0
    8.9276  -16.4130   24.4434 C   0  0  0  0  0  0  0  0  0  0  0  0
    8.3685  -17.5221   24.2327 O   0  0  0  0  0  0  0  0  0  0  0  0
   12.3754  -16.4406   23.2013 O   0  0  0  0  0  0  0  0  0  0  0  0
   12.3874  -17.6011   23.9498 C   0  0  0  0  0  0  0  0  0  0  0  0
   11.0457  -17.7695   24.6330 C   0  0  2  0  0  0  0  0  0  0  0  0
   10.3478  -16.5019   24.6634 N   0  0  0  0  0  0  0  0  0  0  0  0
   11.2193  -18.2952   26.0037 C   0  0  0  0  0  0  0  0  0  0  0  0
   11.8000  -19.3844   26.1993 O   0  0  0  0  0  0  0  0  0  0  0  0
   10.7342  -17.5726   27.0687 O   0  0  0  0  0  0  0  0  0  0  0  0
  2  5  1  0
  2  1  1  6
  3  2  1  0
  4  3  1  0
  5  6  2  0
  7  8  1  0
  7  5  1  0
  9 10  1  0
  8  9  1  1
 10 11  2  0
 11 12  1  0
 13 12  2  0
 14 13  1  0
 15 14  2  0
 15 10  1  0
 16  8  1  0
 16 17  2  0
 18 19  1  0
 20 19  1  1
 20 22  1  0
 21 20  1  0
 21 16  1  0
 22 23  2  0
 22 24  1  0
M  END
$$$$
