CFS.pdb
     RDKit          3D

 24 24  0  0  1  0  0  0  0  0999 V2000
    9.5548  -16.9912   18.6728 N   0  0  0  0  0  0  0  0  0  0  0  0
    8.6331  -17.2777   19.7238 C   0  0  1  0  0  0  0  0  0  0  0  0
    8.6085  -18.7523   20.0830 C   0  0  0  0  0  0  0  0  0  0  0  0
    8.8193  -19.7155   18.5628 S   0  0  0  0  0  0  0  0  0  0  0  0
    8.8926  -16.5040   20.9618 C   0  0  0  0  0  0  0  0  0  0  0  0
   10.0874  -16.3785   21.3291 O   0  0  0  0  0  0  0  0  0  0  0  0
    7.8390  -15.9231   21.7104 N   0  0  0  0  0  0  0  0  0  0  0  0
    8.0643  -15.1643   22.9320 C   0  0  1  0  0  0  0  0  0  0  0  0
    6.8816  -14.3363   23.2990 C   0  0  0  0  0  0  0  0  0  0  0  0
    7.1145  -13.5941   24.5548 C   0  0  0  0  0  0  0  0  0  0  0  0
    6.4710  -13.9769   25.7344 C   0  0  0  0  0  0  0  0  0  0  0  0
    6.7041  -13.3045   26.8999 C   0  0  0  0  0  0  0  0  0  0  0  0
    7.5619  -12.2387   26.9849 C   0  0  0  0  0  0  0  0  0  0  0  0
    8.1999  -11.8553   25.8281 C   0  0  0  0  0  0  0  0  0  0  0  0
    7.9776  -12.5158   24.6600 C   0  0  0  0  0  0  0  0  0  0  0  0
    8.3621  -16.1263   24.0176 C   0  0  0  0  0  0  0  0  0  0  0  0
    7.6595  -17.1351   24.2926 O   0  0  0  0  0  0  0  0  0  0  0  0
   11.8425  -18.4861   26.0475 O   0  0  0  0  0  0  0  0  0  0  0  0
   11.3892  -17.4586   25.2437 C   0  0  0  0  0  0  0  0  0  0  0  0
   10.0055  -17.0412   25.6982 C   0  0  2  0  0  0  0  0  0  0  0  0
    9.5176  -15.9657   24.8616 N   0  0  0  0  0  0  0  0  0  0  0  0
   10.0250  -16.6231   27.1160 C   0  0  0  0  0  0  0  0  0  0  0  0
    9.8546  -15.4254   27.4293 O   0  0  0  0  0  0  0  0  0  0  0  0
   10.2332  -17.5677   28.0939 O   0  0  0  0  0  0  0  0  0  0  0  0
  2  5  1  0
  2  1  1  6
  3  2  1  0
  4  3  1  0
  5  6  2  0
  7  8  1  0
  7  5  1  0
  9 10  1  0
  8  9  1  1
 10 11  2  0
 11 12  1  0
 13 12  2  0
 14 13  1  0
 15 14  2  0
 15 10  1  0
 16  8  1  0
 16 17  2  0
 18 19  1  0
 20 19  1  6
 20 22  1  0
 21 20  1  0
 21 16  1  0
 22 23  2  0
 22 24  1  0
M  END
$$$$
