CFS.pdb
     RDKit          3D

 24 24  0  0  1  0  0  0  0  0999 V2000
    7.6728  -12.9090   19.9434 N   0  0  0  0  0  0  0  0  0  0  0  0
    7.4111  -14.1567   20.5844 C   0  0  1  0  0  0  0  0  0  0  0  0
    7.6649  -15.3400   19.6684 C   0  0  0  0  0  0  0  0  0  0  0  0
    7.2171  -16.8561   20.5540 S   0  0  0  0  0  0  0  0  0  0  0  0
    8.1956  -14.3564   21.8267 C   0  0  0  0  0  0  0  0  0  0  0  0
    9.4057  -14.0196   21.8104 O   0  0  0  0  0  0  0  0  0  0  0  0
    7.6115  -14.9061   22.9949 N   0  0  0  0  0  0  0  0  0  0  0  0
    8.3380  -15.0480   24.2483 C   0  0  1  0  0  0  0  0  0  0  0  0
    7.4242  -15.0446   25.4247 C   0  0  0  0  0  0  0  0  0  0  0  0
    7.1410  -13.6684   25.8808 C   0  0  0  0  0  0  0  0  0  0  0  0
    8.1866  -12.7909   26.1787 C   0  0  0  0  0  0  0  0  0  0  0  0
    7.9243  -11.5117   26.5785 C   0  0  0  0  0  0  0  0  0  0  0  0
    6.6517  -11.0196   26.7097 C   0  0  0  0  0  0  0  0  0  0  0  0
    5.6163  -11.8769   26.4183 C   0  0  0  0  0  0  0  0  0  0  0  0
    5.8624  -13.1536   26.0187 C   0  0  0  0  0  0  0  0  0  0  0  0
    9.0892  -16.3231   24.1977 C   0  0  0  0  0  0  0  0  0  0  0  0
    8.5614  -17.4604   24.0757 O   0  0  0  0  0  0  0  0  0  0  0  0
   13.2255  -16.2611   24.2932 O   0  0  0  0  0  0  0  0  0  0  0  0
   12.6457  -17.3473   23.6676 C   0  0  0  0  0  0  0  0  0  0  0  0
   11.2706  -17.5882   24.2562 C   0  0  2  0  0  0  0  0  0  0  0  0
   10.5260  -16.3474   24.2880 N   0  0  0  0  0  0  0  0  0  0  0  0
   11.3765  -18.1607   25.6150 C   0  0  0  0  0  0  0  0  0  0  0  0
   10.8550  -17.5823   26.5923 O   0  0  0  0  0  0  0  0  0  0  0  0
   12.0573  -19.3419   25.7969 O   0  0  0  0  0  0  0  0  0  0  0  0
  2  5  1  0
  2  1  1  6
  3  2  1  0
  4  3  1  0
  5  6  2  0
  7  8  1  0
  7  5  1  0
  9 10  1  0
  8  9  1  1
 10 11  2  0
 11 12  1  0
 13 12  2  0
 14 13  1  0
 15 14  2  0
 15 10  1  0
 16  8  1  0
 16 17  2  0
 18 19  1  0
 20 19  1  1
 20 22  1  0
 21 20  1  0
 21 16  1  0
 22 23  2  0
 22 24  1  0
M  END
$$$$
