CFS.pdb
     RDKit          3D

 24 24  0  0  1  0  0  0  0  0999 V2000
   10.2182  -16.3670   19.4322 N   0  0  0  0  0  0  0  0  0  0  0  0
    9.7785  -17.0398   20.6112 C   0  0  1  0  0  0  0  0  0  0  0  0
   10.6104  -18.2723   20.9159 C   0  0  0  0  0  0  0  0  0  0  0  0
    9.8598  -19.1368   22.3204 S   0  0  0  0  0  0  0  0  0  0  0  0
    9.7739  -16.1750   21.8156 C   0  0  0  0  0  0  0  0  0  0  0  0
   10.8387  -15.5738   22.1035 O   0  0  0  0  0  0  0  0  0  0  0  0
    8.6165  -16.0252   22.6193 N   0  0  0  0  0  0  0  0  0  0  0  0
    8.5622  -15.1289   23.7650 C   0  0  1  0  0  0  0  0  0  0  0  0
    7.1841  -14.6177   24.0070 C   0  0  0  0  0  0  0  0  0  0  0  0
    7.1425  -13.7199   25.1793 C   0  0  0  0  0  0  0  0  0  0  0  0
    6.5869  -14.1540   26.3855 C   0  0  0  0  0  0  0  0  0  0  0  0
    6.5692  -13.3315   27.4754 C   0  0  0  0  0  0  0  0  0  0  0  0
    7.0820  -12.0604   27.4563 C   0  0  0  0  0  0  0  0  0  0  0  0
    7.6312  -11.6250   26.2728 C   0  0  0  0  0  0  0  0  0  0  0  0
    7.6560  -12.4334   25.1790 C   0  0  0  0  0  0  0  0  0  0  0  0
    9.0376  -15.8768   24.9514 C   0  0  0  0  0  0  0  0  0  0  0  0
    8.5068  -16.9303   25.3933 O   0  0  0  0  0  0  0  0  0  0  0  0
   12.6994  -15.2149   25.8199 O   0  0  0  0  0  0  0  0  0  0  0  0
   12.2812  -16.3336   26.5133 C   0  0  0  0  0  0  0  0  0  0  0  0
   10.7840  -16.2559   26.7315 C   0  0  2  0  0  0  0  0  0  0  0  0
   10.1805  -15.4321   25.7059 N   0  0  0  0  0  0  0  0  0  0  0  0
   10.4785  -15.7153   28.0730 C   0  0  0  0  0  0  0  0  0  0  0  0
    9.7848  -14.6837   28.2012 O   0  0  0  0  0  0  0  0  0  0  0  0
   10.9663  -16.3596   29.1859 O   0  0  0  0  0  0  0  0  0  0  0  0
  2  5  1  0
  2  1  1  6
  3  2  1  0
  4  3  1  0
  5  6  2  0
  7  8  1  0
  7  5  1  0
  9 10  1  0
  8  9  1  1
 10 11  2  0
 11 12  1  0
 13 12  2  0
 14 13  1  0
 15 14  2  0
 15 10  1  0
 16  8  1  0
 16 17  2  0
 18 19  1  0
 20 19  1  6
 20 22  1  0
 21 20  1  0
 21 16  1  0
 22 23  2  0
 22 24  1  0
M  END
$$$$
