CFS.pdb
     RDKit          3D

 24 24  0  0  1  0  0  0  0  0999 V2000
    9.9750  -16.4461   19.4279 N   0  0  0  0  0  0  0  0  0  0  0  0
    9.5324  -17.1099   20.6109 C   0  0  1  0  0  0  0  0  0  0  0  0
   10.3276  -18.3708   20.8964 C   0  0  0  0  0  0  0  0  0  0  0  0
    9.6670  -19.1362   22.4002 S   0  0  0  0  0  0  0  0  0  0  0  0
    9.5760  -16.2515   21.8192 C   0  0  0  0  0  0  0  0  0  0  0  0
   10.6540  -15.6580   22.0718 O   0  0  0  0  0  0  0  0  0  0  0  0
    8.4489  -16.0993   22.6645 N   0  0  0  0  0  0  0  0  0  0  0  0
    8.4478  -15.2246   23.8279 C   0  0  1  0  0  0  0  0  0  0  0  0
    7.0702  -14.8020   24.2053 C   0  0  0  0  0  0  0  0  0  0  0  0
    7.0888  -13.8744   25.3548 C   0  0  0  0  0  0  0  0  0  0  0  0
    7.0455  -14.3647   26.6624 C   0  0  0  0  0  0  0  0  0  0  0  0
    7.0857  -13.5078   27.7249 C   0  0  0  0  0  0  0  0  0  0  0  0
    7.1689  -12.1473   27.5804 C   0  0  0  0  0  0  0  0  0  0  0  0
    7.2122  -11.6560   26.2963 C   0  0  0  0  0  0  0  0  0  0  0  0
    7.1732  -12.4976   25.2284 C   0  0  0  0  0  0  0  0  0  0  0  0
    9.0748  -15.9588   24.9507 C   0  0  0  0  0  0  0  0  0  0  0  0
    8.7708  -17.1310   25.2978 O   0  0  0  0  0  0  0  0  0  0  0  0
   13.1979  -16.6497   27.1530 O   0  0  0  0  0  0  0  0  0  0  0  0
   12.4091  -15.8593   26.3405 C   0  0  0  0  0  0  0  0  0  0  0  0
   10.9496  -16.1467   26.6277 C   0  0  2  0  0  0  0  0  0  0  0  0
   10.1119  -15.3586   25.7491 N   0  0  0  0  0  0  0  0  0  0  0  0
   10.6284  -15.8585   28.0416 C   0  0  0  0  0  0  0  0  0  0  0  0
    9.7995  -14.9716   28.3385 O   0  0  0  0  0  0  0  0  0  0  0  0
   11.2522  -16.5778   29.0341 O   0  0  0  0  0  0  0  0  0  0  0  0
  2  5  1  0
  2  1  1  6
  3  2  1  0
  4  3  1  0
  5  6  2  0
  7  8  1  0
  7  5  1  0
  9 10  1  0
  8  9  1  1
 10 11  2  0
 11 12  1  0
 13 12  2  0
 14 13  1  0
 15 14  2  0
 15 10  1  0
 16  8  1  0
 16 17  2  0
 18 19  1  0
 20 19  1  1
 20 22  1  0
 21 20  1  0
 21 16  1  0
 22 23  2  0
 22 24  1  0
M  END
$$$$
