RFG.pdb
     RDKit          3D

 27 27  0  0  1  0  0  0  0  0999 V2000
    9.4363  -14.6165   16.2076 N   0  0  0  0  0  0  0  0  0  0  0  0
    8.1921  -13.9723   16.0174 C   0  0  0  0  0  0  0  0  0  0  0  0
    7.5758  -14.0130   14.9009 N   0  0  0  0  0  0  0  0  0  0  0  0
    7.6172  -13.2540   17.1189 N   0  0  0  0  0  0  0  0  0  0  0  0
    8.2446  -13.1972   18.3973 C   0  0  0  0  0  0  0  0  0  0  0  0
    8.1665  -14.4976   19.1621 C   0  0  0  0  0  0  0  0  0  0  0  0
    8.8262  -14.2523   20.5115 C   0  0  0  0  0  0  0  0  0  0  0  0
    8.9642  -15.5512   21.2361 C   0  0  2  0  0  0  0  0  0  0  0  0
    7.8667  -16.4318   20.9665 N   0  0  0  0  0  0  0  0  0  0  0  0
    9.1310  -15.2895   22.7039 C   0  0  0  0  0  0  0  0  0  0  0  0
    9.9899  -14.4469   23.0657 O   0  0  0  0  0  0  0  0  0  0  0  0
    6.6811  -13.5580   14.6919 N   0  0  0  0  0  0  0  0  0  0  0  0
    8.3692  -15.9458   23.7010 C   0  0  1  0  0  0  0  0  0  0  0  0
    8.6226  -15.6157   25.0900 C   0  0  0  0  0  0  0  0  0  0  0  0
    7.3758  -15.2559   25.8324 C   0  0  0  0  0  0  0  0  0  0  0  0
    7.0940  -13.8254   25.9258 C   0  0  0  0  0  0  0  0  0  0  0  0
    7.7022  -13.0773   26.9010 C   0  0  0  0  0  0  0  0  0  0  0  0
    7.4827  -11.7224   27.0502 C   0  0  0  0  0  0  0  0  0  0  0  0
    6.6283  -11.0998   26.1965 C   0  0  0  0  0  0  0  0  0  0  0  0
    5.9982  -11.8223   25.2027 C   0  0  0  0  0  0  0  0  0  0  0  0
    6.2324  -13.2010   25.0637 C   0  0  0  0  0  0  0  0  0  0  0  0
    9.1621  -16.8493   25.7594 O   0  0  0  0  0  0  0  0  0  0  0  0
    8.8095  -17.0917   26.9367 N   0  0  0  0  0  0  0  0  0  0  0  0
   10.0504  -17.7412   25.1027 C   0  0  0  0  0  0  0  0  0  0  0  0
   11.4686  -17.4834   25.1945 C   0  0  0  0  0  0  0  0  0  0  0  0
   12.2068  -18.5243   24.4580 O   0  0  0  0  0  0  0  0  0  0  0  0
   12.5038  -19.6016   25.0097 O   0  0  0  0  0  0  0  0  0  0  0  0
  2  1  1  0
  3  2  2  0
  4  2  1  0
  5  4  1  0
  6  5  1  0
  7  6  1  0
  8  7  1  0
  8  9  1  1
 10  8  1  0
 10 11  2  0
 12 10  1  0
 13 12  1  0
 13 14  1  1
 15 14  1  0
 15 16  2  0
 16 17  1  0
 18 17  2  0
 19 18  1  0
 20 19  2  0
 20 15  1  0
 21 13  1  0
 22 21  2  0
 23 21  1  0
 24 25  1  0
 24 23  1  0
 25 27  1  0
 26 25  2  0
M  END
$$$$
