RFG.pdb
     RDKit          3D

 27 27  0  0  1  0  0  0  0  0999 V2000
    9.6817  -13.6363   18.4760 N   0  0  0  0  0  0  0  0  0  0  0  0
    8.8941  -14.2034   17.4477 C   0  0  0  0  0  0  0  0  0  0  0  0
    8.4278  -13.5004   16.4905 N   0  0  0  0  0  0  0  0  0  0  0  0
    8.6171  -15.6109   17.4942 N   0  0  0  0  0  0  0  0  0  0  0  0
    8.4669  -16.3138   18.7249 C   0  0  0  0  0  0  0  0  0  0  0  0
    7.7487  -15.5159   19.7877 C   0  0  0  0  0  0  0  0  0  0  0  0
    7.5982  -16.4304   20.9949 C   0  0  0  0  0  0  0  0  0  0  0  0
    6.7745  -15.7430   22.0343 C   0  0  2  0  0  0  0  0  0  0  0  0
    6.0388  -14.6410   21.4893 N   0  0  0  0  0  0  0  0  0  0  0  0
    7.6554  -15.3254   23.1746 C   0  0  0  0  0  0  0  0  0  0  0  0
    8.3446  -14.2829   23.0449 O   0  0  0  0  0  0  0  0  0  0  0  0
    7.8071  -13.8354   15.7463 N   0  0  0  0  0  0  0  0  0  0  0  0
    7.7490  -16.0483   24.3886 C   0  0  1  0  0  0  0  0  0  0  0  0
    8.7007  -15.5992   25.3861 C   0  0  0  0  0  0  0  0  0  0  0  0
    8.0399  -15.1425   26.6470 C   0  0  0  0  0  0  0  0  0  0  0  0
    7.4004  -13.8307   26.5786 C   0  0  0  0  0  0  0  0  0  0  0  0
    8.1756  -12.7001   26.5430 C   0  0  0  0  0  0  0  0  0  0  0  0
    7.6412  -11.4286   26.4798 C   0  0  0  0  0  0  0  0  0  0  0  0
    6.2900  -11.2871   26.4514 C   0  0  0  0  0  0  0  0  0  0  0  0
    5.4789  -12.4040   26.4858 C   0  0  0  0  0  0  0  0  0  0  0  0
    6.0383  -13.6917   26.5500 C   0  0  0  0  0  0  0  0  0  0  0  0
    9.5505  -16.7795   25.7676 O   0  0  0  0  0  0  0  0  0  0  0  0
   10.3712  -16.6456   26.7044 N   0  0  0  0  0  0  0  0  0  0  0  0
    9.4508  -18.0313   25.1051 C   0  0  0  0  0  0  0  0  0  0  0  0
   10.2542  -18.2445   23.9238 C   0  0  0  0  0  0  0  0  0  0  0  0
   11.6369  -18.5638   24.3199 O   0  0  0  0  0  0  0  0  0  0  0  0
   12.0659  -18.2378   25.4437 O   0  0  0  0  0  0  0  0  0  0  0  0
  2  1  1  0
  3  2  2  0
  4  2  1  0
  5  4  1  0
  6  5  1  0
  7  6  1  0
  8  7  1  0
  8  9  1  6
 10  8  1  0
 10 11  2  0
 12 10  1  0
 13 12  1  0
 13 14  1  1
 15 14  1  0
 15 16  2  0
 16 17  1  0
 18 17  2  0
 19 18  1  0
 20 19  2  0
 20 15  1  0
 21 13  1  0
 22 21  2  0
 23 21  1  0
 24 25  1  0
 24 23  1  0
 25 27  1  0
 26 25  2  0
M  END
$$$$
