RFG.pdb
     RDKit          3D

 27 27  0  0  1  0  0  0  0  0999 V2000
    7.7160  -14.9848   17.0508 N   0  0  0  0  0  0  0  0  0  0  0  0
    8.0792  -13.6701   16.6782 C   0  0  0  0  0  0  0  0  0  0  0  0
    8.1515  -13.3116   15.4558 N   0  0  0  0  0  0  0  0  0  0  0  0
    8.3742  -12.7214   17.7139 N   0  0  0  0  0  0  0  0  0  0  0  0
    8.1911  -13.0245   19.0945 C   0  0  0  0  0  0  0  0  0  0  0  0
    7.7294  -14.4416   19.3412 C   0  0  0  0  0  0  0  0  0  0  0  0
    7.4857  -14.5682   20.8382 C   0  0  0  0  0  0  0  0  0  0  0  0
    8.3715  -15.6352   21.3933 C   0  0  2  0  0  0  0  0  0  0  0  0
    7.6997  -16.8982   21.4732 N   0  0  0  0  0  0  0  0  0  0  0  0
    8.9096  -15.1966   22.7231 C   0  0  0  0  0  0  0  0  0  0  0  0
    9.6636  -14.1922   22.7595 O   0  0  0  0  0  0  0  0  0  0  0  0
    8.3806  -12.3709   15.1183 N   0  0  0  0  0  0  0  0  0  0  0  0
    8.6107  -15.8590   23.9385 C   0  0  1  0  0  0  0  0  0  0  0  0
    9.2565  -15.3970   25.1517 C   0  0  0  0  0  0  0  0  0  0  0  0
    8.2913  -15.1917   26.2748 C   0  0  0  0  0  0  0  0  0  0  0  0
    7.7003  -13.8582   26.3561 C   0  0  0  0  0  0  0  0  0  0  0  0
    6.3877  -13.6762   26.0029 C   0  0  0  0  0  0  0  0  0  0  0  0
    5.7635  -12.4457   26.0529 C   0  0  0  0  0  0  0  0  0  0  0  0
    6.4765  -11.3665   26.4695 C   0  0  0  0  0  0  0  0  0  0  0  0
    7.8004  -11.5132   26.8329 C   0  0  0  0  0  0  0  0  0  0  0  0
    8.4216  -12.7726   26.7765 C   0  0  0  0  0  0  0  0  0  0  0  0
   10.1973  -16.4783   25.6061 O   0  0  0  0  0  0  0  0  0  0  0  0
   10.5612  -16.4873   26.8047 N   0  0  0  0  0  0  0  0  0  0  0  0
   10.6805  -17.4820   24.7259 C   0  0  0  0  0  0  0  0  0  0  0  0
   11.5500  -18.5019   25.2647 C   0  0  0  0  0  0  0  0  0  0  0  0
   11.9798  -19.4043   24.1823 O   0  0  0  0  0  0  0  0  0  0  0  0
   11.6122  -19.2063   23.0080 O   0  0  0  0  0  0  0  0  0  0  0  0
  2  1  1  0
  3  2  2  0
  4  2  1  0
  5  4  1  0
  6  5  1  0
  7  6  1  0
  8  7  1  0
  8  9  1  1
 10  8  1  0
 10 11  2  0
 12 10  1  0
 13 12  1  0
 13 14  1  6
 15 14  1  0
 15 16  2  0
 16 17  1  0
 18 17  2  0
 19 18  1  0
 20 19  2  0
 20 15  1  0
 21 13  1  0
 22 21  2  0
 23 21  1  0
 24 25  1  0
 24 23  1  0
 25 27  1  0
 26 25  2  0
M  END
$$$$
