RFG.pdb
     RDKit          3D

 27 27  0  0  1  0  0  0  0  0999 V2000
    8.4737  -12.4932   17.9650 N   0  0  0  0  0  0  0  0  0  0  0  0
    8.1095  -13.4287   16.9693 C   0  0  0  0  0  0  0  0  0  0  0  0
    7.5823  -13.0668   15.8651 N   0  0  0  0  0  0  0  0  0  0  0  0
    8.3430  -14.8223   17.2205 N   0  0  0  0  0  0  0  0  0  0  0  0
    8.9203  -15.2870   18.4379 C   0  0  0  0  0  0  0  0  0  0  0  0
    8.0326  -15.0754   19.6418 C   0  0  0  0  0  0  0  0  0  0  0  0
    8.9493  -15.0030   20.8544 C   0  0  0  0  0  0  0  0  0  0  0  0
    8.4452  -15.9322   21.9097 C   0  0  2  0  0  0  0  0  0  0  0  0
    7.0136  -15.9485   21.9666 N   0  0  0  0  0  0  0  0  0  0  0  0
    9.0588  -15.5697   23.2297 C   0  0  0  0  0  0  0  0  0  0  0  0
    9.9788  -14.7141   23.2449 O   0  0  0  0  0  0  0  0  0  0  0  0
    7.2798  -13.6919   15.1108 N   0  0  0  0  0  0  0  0  0  0  0  0
    8.6531  -16.1446   24.4586 C   0  0  1  0  0  0  0  0  0  0  0  0
    9.2734  -15.6687   25.6798 C   0  0  0  0  0  0  0  0  0  0  0  0
    8.2725  -15.2414   26.7048 C   0  0  0  0  0  0  0  0  0  0  0  0
    7.5553  -14.0053   26.4018 C   0  0  0  0  0  0  0  0  0  0  0  0
    8.1904  -12.7992   26.5525 C   0  0  0  0  0  0  0  0  0  0  0  0
    7.5755  -11.5919   26.2869 C   0  0  0  0  0  0  0  0  0  0  0  0
    6.2863  -11.5944   25.8575 C   0  0  0  0  0  0  0  0  0  0  0  0
    5.6161  -12.7906   25.6947 C   0  0  0  0  0  0  0  0  0  0  0  0
    6.2560  -14.0113   25.9692 C   0  0  0  0  0  0  0  0  0  0  0  0
   10.0232  -16.8215   26.2880 O   0  0  0  0  0  0  0  0  0  0  0  0
   10.4821  -16.6900   27.4460 N   0  0  0  0  0  0  0  0  0  0  0  0
   10.2237  -18.0450   25.5961 C   0  0  0  0  0  0  0  0  0  0  0  0
   10.8925  -19.1206   26.2906 C   0  0  0  0  0  0  0  0  0  0  0  0
   12.3431  -19.0370   26.0469 O   0  0  0  0  0  0  0  0  0  0  0  0
   12.8168  -18.1211   25.3468 O   0  0  0  0  0  0  0  0  0  0  0  0
  2  1  1  0
  3  2  2  0
  4  2  1  0
  5  4  1  0
  6  5  1  0
  7  6  1  0
  8  7  1  0
  8  9  1  1
 10  8  1  0
 10 11  2  0
 12 10  1  0
 13 12  1  0
 13 14  1  1
 15 14  1  0
 15 16  2  0
 16 17  1  0
 18 17  2  0
 19 18  1  0
 20 19  2  0
 20 15  1  0
 21 13  1  0
 22 21  2  0
 23 21  1  0
 24 25  1  0
 24 23  1  0
 25 27  1  0
 26 25  2  0
M  END
$$$$
