RFG.pdb
     RDKit          3D

 27 27  0  0  1  0  0  0  0  0999 V2000
    6.6313  -14.0720   18.7538 N   0  0  0  0  0  0  0  0  0  0  0  0
    7.9038  -13.5724   18.3930 C   0  0  0  0  0  0  0  0  0  0  0  0
    8.0440  -12.4537   17.7955 N   0  0  0  0  0  0  0  0  0  0  0  0
    9.0631  -14.3560   18.7120 N   0  0  0  0  0  0  0  0  0  0  0  0
    9.1926  -15.7171   18.3094 C   0  0  0  0  0  0  0  0  0  0  0  0
    9.0346  -16.6970   19.4482 C   0  0  0  0  0  0  0  0  0  0  0  0
   10.0992  -16.3470   20.4779 C   0  0  0  0  0  0  0  0  0  0  0  0
    9.9507  -17.2423   21.6643 C   0  0  2  0  0  0  0  0  0  0  0  0
    8.9134  -18.2122   21.4743 N   0  0  0  0  0  0  0  0  0  0  0  0
    9.7284  -16.4111   22.8932 C   0  0  0  0  0  0  0  0  0  0  0  0
   10.5628  -15.5114   23.1637 O   0  0  0  0  0  0  0  0  0  0  0  0
    8.9358  -12.0169   17.5402 N   0  0  0  0  0  0  0  0  0  0  0  0
    8.6257  -16.5909   23.7633 C   0  0  1  0  0  0  0  0  0  0  0  0
    8.5396  -15.7584   24.9473 C   0  0  0  0  0  0  0  0  0  0  0  0
    7.1599  -15.2324   25.1815 C   0  0  0  0  0  0  0  0  0  0  0  0
    7.0902  -13.9288   25.8373 C   0  0  0  0  0  0  0  0  0  0  0  0
    5.8728  -13.3216   26.0100 C   0  0  0  0  0  0  0  0  0  0  0  0
    5.7306  -12.0906   26.6189 C   0  0  0  0  0  0  0  0  0  0  0  0
    6.8419  -11.4501   27.0675 C   0  0  0  0  0  0  0  0  0  0  0  0
    8.0841  -12.0322   26.9102 C   0  0  0  0  0  0  0  0  0  0  0  0
    8.2121  -13.2860   26.2884 C   0  0  0  0  0  0  0  0  0  0  0  0
    8.8609  -16.6226   26.1351 O   0  0  0  0  0  0  0  0  0  0  0  0
    8.0963  -17.5782   26.4018 N   0  0  0  0  0  0  0  0  0  0  0  0
    9.9962  -16.3915   26.9558 C   0  0  0  0  0  0  0  0  0  0  0  0
   10.1139  -17.1406   28.1852 C   0  0  0  0  0  0  0  0  0  0  0  0
   10.8724  -18.3789   27.9363 O   0  0  0  0  0  0  0  0  0  0  0  0
   10.9434  -19.2654   28.8094 O   0  0  0  0  0  0  0  0  0  0  0  0
  2  1  1  0
  3  2  2  0
  4  2  1  0
  5  4  1  0
  6  5  1  0
  7  6  1  0
  8  7  1  0
  8  9  1  6
 10  8  1  0
 10 11  2  0
 12 10  1  0
 13 12  1  0
 13 14  1  1
 15 14  1  0
 15 16  2  0
 16 17  1  0
 18 17  2  0
 19 18  1  0
 20 19  2  0
 20 15  1  0
 21 13  1  0
 22 21  2  0
 23 21  1  0
 24 25  1  0
 24 23  1  0
 25 27  1  0
 26 25  2  0
M  END
$$$$
