RFG.pdb
     RDKit          3D

 27 27  0  0  1  0  0  0  0  0999 V2000
    9.5564  -13.8901   17.6478 N   0  0  0  0  0  0  0  0  0  0  0  0
    8.2215  -13.5620   17.3170 C   0  0  0  0  0  0  0  0  0  0  0  0
    7.7655  -13.7054   16.1340 N   0  0  0  0  0  0  0  0  0  0  0  0
    7.3653  -13.0524   18.3500 N   0  0  0  0  0  0  0  0  0  0  0  0
    7.8042  -12.9136   19.6988 C   0  0  0  0  0  0  0  0  0  0  0  0
    8.2990  -14.2060   20.3045 C   0  0  0  0  0  0  0  0  0  0  0  0
    7.1345  -14.7974   21.0858 C   0  0  0  0  0  0  0  0  0  0  0  0
    7.5917  -16.0306   21.7941 C   0  0  2  0  0  0  0  0  0  0  0  0
    6.4892  -16.8123   22.2699 N   0  0  0  0  0  0  0  0  0  0  0  0
    8.5342  -15.6525   22.8983 C   0  0  0  0  0  0  0  0  0  0  0  0
    9.5632  -14.9940   22.6047 O   0  0  0  0  0  0  0  0  0  0  0  0
    6.8421  -13.4041   15.8056 N   0  0  0  0  0  0  0  0  0  0  0  0
    8.3219  -16.0018   24.2540 C   0  0  1  0  0  0  0  0  0  0  0  0
    9.3392  -15.6467   25.2244 C   0  0  0  0  0  0  0  0  0  0  0  0
    8.7615  -15.0915   26.4865 C   0  0  0  0  0  0  0  0  0  0  0  0
    7.8996  -13.9237   26.3195 C   0  0  0  0  0  0  0  0  0  0  0  0
    8.4549  -12.6701   26.2924 C   0  0  0  0  0  0  0  0  0  0  0  0
    7.7031  -11.5222   26.1397 C   0  0  0  0  0  0  0  0  0  0  0  0
    6.3552  -11.6350   26.0103 C   0  0  0  0  0  0  0  0  0  0  0  0
    5.7622  -12.8818   26.0331 C   0  0  0  0  0  0  0  0  0  0  0  0
    6.5414  -14.0409   26.1892 C   0  0  0  0  0  0  0  0  0  0  0  0
   10.0543  -16.9099   25.6164 O   0  0  0  0  0  0  0  0  0  0  0  0
   10.0272  -17.2622   26.8182 N   0  0  0  0  0  0  0  0  0  0  0  0
   10.7521  -17.7099   24.6736 C   0  0  0  0  0  0  0  0  0  0  0  0
   12.0060  -17.2158   24.1541 C   0  0  0  0  0  0  0  0  0  0  0  0
   13.1196  -17.7806   24.9363 O   0  0  0  0  0  0  0  0  0  0  0  0
   13.2748  -17.4707   26.1334 O   0  0  0  0  0  0  0  0  0  0  0  0
  2  1  1  0
  3  2  2  0
  4  2  1  0
  5  4  1  0
  6  5  1  0
  7  6  1  0
  8  7  1  0
  8  9  1  1
 10  8  1  0
 10 11  2  0
 12 10  1  0
 13 12  1  0
 13 14  1  1
 15 14  1  0
 15 16  2  0
 16 17  1  0
 18 17  2  0
 19 18  1  0
 20 19  2  0
 20 15  1  0
 21 13  1  0
 22 21  2  0
 23 21  1  0
 24 25  1  0
 24 23  1  0
 25 27  1  0
 26 25  2  0
M  END
$$$$
