RFG.pdb
     RDKit          3D

 27 27  0  0  1  0  0  0  0  0999 V2000
    8.3557  -12.2243   17.3410 N   0  0  0  0  0  0  0  0  0  0  0  0
    7.9573  -13.5197   16.9382 C   0  0  0  0  0  0  0  0  0  0  0  0
    8.2631  -13.9935   15.7936 N   0  0  0  0  0  0  0  0  0  0  0  0
    7.1857  -14.3140   17.8512 N   0  0  0  0  0  0  0  0  0  0  0  0
    6.9847  -13.9285   19.2085 C   0  0  0  0  0  0  0  0  0  0  0  0
    8.2488  -13.9617   20.0350 C   0  0  0  0  0  0  0  0  0  0  0  0
    7.8255  -14.2316   21.4718 C   0  0  0  0  0  0  0  0  0  0  0  0
    8.4265  -15.5205   21.9289 C   0  0  2  0  0  0  0  0  0  0  0  0
    7.4943  -16.6049   21.8405 N   0  0  0  0  0  0  0  0  0  0  0  0
    8.9695  -15.3542   23.3174 C   0  0  0  0  0  0  0  0  0  0  0  0
    9.7758  -14.4152   23.5340 O   0  0  0  0  0  0  0  0  0  0  0  0
    8.0659  -14.9445   15.4651 N   0  0  0  0  0  0  0  0  0  0  0  0
    8.6192  -16.2034   24.3950 C   0  0  1  0  0  0  0  0  0  0  0  0
    9.0970  -15.8657   25.7217 C   0  0  0  0  0  0  0  0  0  0  0  0
    7.9879  -15.5137   26.6603 C   0  0  0  0  0  0  0  0  0  0  0  0
    7.3822  -14.2011   26.4491 C   0  0  0  0  0  0  0  0  0  0  0  0
    8.1251  -13.0692   26.6672 C   0  0  0  0  0  0  0  0  0  0  0  0
    7.6192  -11.7968   26.4898 C   0  0  0  0  0  0  0  0  0  0  0  0
    6.3308  -11.6558   26.0817 C   0  0  0  0  0  0  0  0  0  0  0  0
    5.5537  -12.7739   25.8526 C   0  0  0  0  0  0  0  0  0  0  0  0
    6.0834  -14.0624   26.0376 C   0  0  0  0  0  0  0  0  0  0  0  0
    9.7517  -17.0919   26.2950 O   0  0  0  0  0  0  0  0  0  0  0  0
   10.2776  -17.0123   27.4291 N   0  0  0  0  0  0  0  0  0  0  0  0
    9.7901  -18.3275   25.5967 C   0  0  0  0  0  0  0  0  0  0  0  0
   10.8673  -18.5495   24.6604 C   0  0  0  0  0  0  0  0  0  0  0  0
   12.0932  -18.9058   25.3959 O   0  0  0  0  0  0  0  0  0  0  0  0
   12.3890  -18.3215   26.4563 O   0  0  0  0  0  0  0  0  0  0  0  0
  2  1  1  0
  3  2  2  0
  4  2  1  0
  5  4  1  0
  6  5  1  0
  7  6  1  0
  8  7  1  0
  8  9  1  1
 10  8  1  0
 10 11  2  0
 12 10  1  0
 13 12  1  0
 13 14  1  1
 15 14  1  0
 15 16  2  0
 16 17  1  0
 18 17  2  0
 19 18  1  0
 20 19  2  0
 20 15  1  0
 21 13  1  0
 22 21  2  0
 23 21  1  0
 24 25  1  0
 24 23  1  0
 25 27  1  0
 26 25  2  0
M  END
$$$$
