RFG.pdb
     RDKit          3D

 27 27  0  0  1  0  0  0  0  0999 V2000
    9.1199  -12.6934   17.8912 N   0  0  0  0  0  0  0  0  0  0  0  0
    8.5875  -13.5129   16.8693 C   0  0  0  0  0  0  0  0  0  0  0  0
    9.1129  -13.5689   15.7079 N   0  0  0  0  0  0  0  0  0  0  0  0
    7.4216  -14.2981   17.1587 N   0  0  0  0  0  0  0  0  0  0  0  0
    7.0172  -14.5917   18.4935 C   0  0  0  0  0  0  0  0  0  0  0  0
    7.4610  -13.5531   19.4967 C   0  0  0  0  0  0  0  0  0  0  0  0
    6.9990  -14.0387   20.8631 C   0  0  0  0  0  0  0  0  0  0  0  0
    7.8665  -15.1725   21.3026 C   0  0  2  0  0  0  0  0  0  0  0  0
    7.1663  -16.4222   21.2740 N   0  0  0  0  0  0  0  0  0  0  0  0
    8.4318  -14.8728   22.6594 C   0  0  0  0  0  0  0  0  0  0  0  0
    9.1496  -13.8503   22.7939 O   0  0  0  0  0  0  0  0  0  0  0  0
    8.8124  -14.1803   14.9417 N   0  0  0  0  0  0  0  0  0  0  0  0
    8.1972  -15.6854   23.7952 C   0  0  1  0  0  0  0  0  0  0  0  0
    8.8531  -15.3352   25.0400 C   0  0  0  0  0  0  0  0  0  0  0  0
    7.8967  -15.2287   26.1840 C   0  0  0  0  0  0  0  0  0  0  0  0
    7.2057  -13.9472   26.3048 C   0  0  0  0  0  0  0  0  0  0  0  0
    7.9293  -12.8074   26.5454 C   0  0  0  0  0  0  0  0  0  0  0  0
    7.3445  -11.5632   26.6729 C   0  0  0  0  0  0  0  0  0  0  0  0
    5.9948  -11.4593   26.5555 C   0  0  0  0  0  0  0  0  0  0  0  0
    5.2349  -12.5864   26.3133 C   0  0  0  0  0  0  0  0  0  0  0  0
    5.8452  -13.8459   26.1859 C   0  0  0  0  0  0  0  0  0  0  0  0
    9.7938  -16.4552   25.3891 O   0  0  0  0  0  0  0  0  0  0  0  0
    9.3640  -17.3973   26.0938 N   0  0  0  0  0  0  0  0  0  0  0  0
   11.1426  -16.4781   24.9464 C   0  0  0  0  0  0  0  0  0  0  0  0
   11.9657  -17.6038   25.3227 C   0  0  0  0  0  0  0  0  0  0  0  0
   13.2575  -17.5263   24.6183 O   0  0  0  0  0  0  0  0  0  0  0  0
   13.4730  -16.6236   23.7865 O   0  0  0  0  0  0  0  0  0  0  0  0
  2  1  1  0
  3  2  2  0
  4  2  1  0
  5  4  1  0
  6  5  1  0
  7  6  1  0
  8  7  1  0
  8  9  1  1
 10  8  1  0
 10 11  2  0
 12 10  1  0
 13 12  1  0
 13 14  1  1
 15 14  1  0
 15 16  2  0
 16 17  1  0
 18 17  2  0
 19 18  1  0
 20 19  2  0
 20 15  1  0
 21 13  1  0
 22 21  2  0
 23 21  1  0
 24 25  1  0
 24 23  1  0
 25 27  1  0
 26 25  2  0
M  END
$$$$
