RFG.pdb
     RDKit          3D

 27 27  0  0  1  0  0  0  0  0999 V2000
    7.8415  -14.1411   15.1474 N   0  0  0  0  0  0  0  0  0  0  0  0
    8.3489  -13.8147   16.4261 C   0  0  0  0  0  0  0  0  0  0  0  0
    8.1412  -12.6760   16.9630 N   0  0  0  0  0  0  0  0  0  0  0  0
    9.1193  -14.8003   17.1295 N   0  0  0  0  0  0  0  0  0  0  0  0
    8.5319  -15.6856   18.0795 C   0  0  0  0  0  0  0  0  0  0  0  0
    8.1786  -15.0146   19.3861 C   0  0  0  0  0  0  0  0  0  0  0  0
    9.1412  -15.5586   20.4319 C   0  0  0  0  0  0  0  0  0  0  0  0
    8.3615  -16.1011   21.5848 C   0  0  2  0  0  0  0  0  0  0  0  0
    6.9561  -15.8653   21.4365 N   0  0  0  0  0  0  0  0  0  0  0  0
    8.8981  -15.5301   22.8640 C   0  0  0  0  0  0  0  0  0  0  0  0
    9.5932  -14.4851   22.8054 O   0  0  0  0  0  0  0  0  0  0  0  0
    8.5147  -12.3597   17.8640 N   0  0  0  0  0  0  0  0  0  0  0  0
    8.6607  -16.1110   24.1334 C   0  0  1  0  0  0  0  0  0  0  0  0
    9.2478  -15.4810   25.3000 C   0  0  0  0  0  0  0  0  0  0  0  0
    8.2337  -15.1537   26.3486 C   0  0  0  0  0  0  0  0  0  0  0  0
    7.5629  -13.8656   26.1899 C   0  0  0  0  0  0  0  0  0  0  0  0
    8.2329  -12.7100   26.5002 C   0  0  0  0  0  0  0  0  0  0  0  0
    7.6627  -11.4587   26.3767 C   0  0  0  0  0  0  0  0  0  0  0  0
    6.3833  -11.3637   25.9289 C   0  0  0  0  0  0  0  0  0  0  0  0
    5.6787  -12.5068   25.6072 C   0  0  0  0  0  0  0  0  0  0  0  0
    6.2733  -13.7734   25.7382 C   0  0  0  0  0  0  0  0  0  0  0  0
   10.1878  -16.4727   25.9277 O   0  0  0  0  0  0  0  0  0  0  0  0
   10.9029  -16.0940   26.8839 N   0  0  0  0  0  0  0  0  0  0  0  0
   10.2875  -17.8145   25.4746 C   0  0  0  0  0  0  0  0  0  0  0  0
   11.1722  -18.7103   26.1825 C   0  0  0  0  0  0  0  0  0  0  0  0
   10.5725  -19.0718   27.4788 O   0  0  0  0  0  0  0  0  0  0  0  0
   10.8629  -18.4367   28.5110 O   0  0  0  0  0  0  0  0  0  0  0  0
  2  1  1  0
  3  2  2  0
  4  2  1  0
  5  4  1  0
  6  5  1  0
  7  6  1  0
  8  7  1  0
  8  9  1  6
 10  8  1  0
 10 11  2  0
 12 10  1  0
 13 12  1  0
 13 14  1  1
 15 14  1  0
 15 16  2  0
 16 17  1  0
 18 17  2  0
 19 18  1  0
 20 19  2  0
 20 15  1  0
 21 13  1  0
 22 21  2  0
 23 21  1  0
 24 25  1  0
 24 23  1  0
 25 27  1  0
 26 25  2  0
M  END
$$$$
