RFG.pdb
     RDKit          3D

 27 27  0  0  1  0  0  0  0  0999 V2000
    8.5090  -12.7350   18.1515 N   0  0  0  0  0  0  0  0  0  0  0  0
    8.2553  -13.6567   17.1097 C   0  0  0  0  0  0  0  0  0  0  0  0
    8.2097  -13.2958   15.8867 N   0  0  0  0  0  0  0  0  0  0  0  0
    8.0430  -15.0345   17.4507 N   0  0  0  0  0  0  0  0  0  0  0  0
    7.9755  -15.4792   18.8031 C   0  0  0  0  0  0  0  0  0  0  0  0
    6.9051  -14.7833   19.6106 C   0  0  0  0  0  0  0  0  0  0  0  0
    7.5127  -14.4785   20.9723 C   0  0  0  0  0  0  0  0  0  0  0  0
    7.8504  -15.7609   21.6597 C   0  0  2  0  0  0  0  0  0  0  0  0
    6.6887  -16.5700   21.8802 N   0  0  0  0  0  0  0  0  0  0  0  0
    8.5840  -15.4667   22.9348 C   0  0  0  0  0  0  0  0  0  0  0  0
    9.5843  -14.7079   22.8858 O   0  0  0  0  0  0  0  0  0  0  0  0
    8.0069  -13.9055   15.0877 N   0  0  0  0  0  0  0  0  0  0  0  0
    8.2055  -16.0024   24.1897 C   0  0  1  0  0  0  0  0  0  0  0  0
    8.9938  -15.6508   25.3549 C   0  0  0  0  0  0  0  0  0  0  0  0
    8.1502  -15.2181   26.5108 C   0  0  0  0  0  0  0  0  0  0  0  0
    7.5752  -13.8797   26.3995 C   0  0  0  0  0  0  0  0  0  0  0  0
    8.3913  -12.7816   26.4946 C   0  0  0  0  0  0  0  0  0  0  0  0
    7.9184  -11.4879   26.4006 C   0  0  0  0  0  0  0  0  0  0  0  0
    6.5883  -11.2898   26.2054 C   0  0  0  0  0  0  0  0  0  0  0  0
    5.7373  -12.3725   26.1050 C   0  0  0  0  0  0  0  0  0  0  0  0
    6.2343  -13.6835   26.2027 C   0  0  0  0  0  0  0  0  0  0  0  0
    9.7134  -16.8908   25.8081 O   0  0  0  0  0  0  0  0  0  0  0  0
    9.0784  -17.7378   26.4777 N   0  0  0  0  0  0  0  0  0  0  0  0
   11.0790  -17.1297   25.5015 C   0  0  0  0  0  0  0  0  0  0  0  0
   11.6710  -18.3709   25.9434 C   0  0  0  0  0  0  0  0  0  0  0  0
   13.0403  -18.4802   25.4105 O   0  0  0  0  0  0  0  0  0  0  0  0
   13.4755  -17.6371   24.6025 O   0  0  0  0  0  0  0  0  0  0  0  0
  2  1  1  0
  3  2  2  0
  4  2  1  0
  5  4  1  0
  6  5  1  0
  7  6  1  0
  8  7  1  0
  8  9  1  1
 10  8  1  0
 10 11  2  0
 12 10  1  0
 13 12  1  0
 13 14  1  1
 15 14  1  0
 15 16  2  0
 16 17  1  0
 18 17  2  0
 19 18  1  0
 20 19  2  0
 20 15  1  0
 21 13  1  0
 22 21  2  0
 23 21  1  0
 24 25  1  0
 24 23  1  0
 25 27  1  0
 26 25  2  0
M  END
$$$$
