RFG.pdb
     RDKit          3D

 27 27  0  0  1  0  0  0  0  0999 V2000
    8.6700  -12.4696   16.7897 N   0  0  0  0  0  0  0  0  0  0  0  0
    7.8398  -13.4732   16.2393 C   0  0  0  0  0  0  0  0  0  0  0  0
    7.8281  -13.7273   14.9890 N   0  0  0  0  0  0  0  0  0  0  0  0
    6.9894  -14.2192   17.1225 N   0  0  0  0  0  0  0  0  0  0  0  0
    6.9922  -14.0118   18.5326 C   0  0  0  0  0  0  0  0  0  0  0  0
    8.3112  -14.3513   19.1861 C   0  0  0  0  0  0  0  0  0  0  0  0
    8.0919  -14.2581   20.6893 C   0  0  0  0  0  0  0  0  0  0  0  0
    8.5161  -15.5391   21.3297 C   0  0  2  0  0  0  0  0  0  0  0  0
    7.4466  -16.4913   21.3779 N   0  0  0  0  0  0  0  0  0  0  0  0
    9.0809  -15.2549   22.6901 C   0  0  0  0  0  0  0  0  0  0  0  0
   10.0637  -14.4769   22.7772 O   0  0  0  0  0  0  0  0  0  0  0  0
    7.2795  -14.4623   14.5307 N   0  0  0  0  0  0  0  0  0  0  0  0
    8.5620  -15.8206   23.8800 C   0  0  1  0  0  0  0  0  0  0  0  0
    9.1749  -15.4534   25.1418 C   0  0  0  0  0  0  0  0  0  0  0  0
    8.1676  -15.1519   26.2044 C   0  0  0  0  0  0  0  0  0  0  0  0
    7.4945  -13.8612   26.0805 C   0  0  0  0  0  0  0  0  0  0  0  0
    8.1881  -12.7075   26.3422 C   0  0  0  0  0  0  0  0  0  0  0  0
    7.6174  -11.4538   26.2474 C   0  0  0  0  0  0  0  0  0  0  0  0
    6.3131  -11.3546   25.8793 C   0  0  0  0  0  0  0  0  0  0  0  0
    5.5844  -12.4957   25.6083 C   0  0  0  0  0  0  0  0  0  0  0  0
    6.1799  -13.7646   25.7092 C   0  0  0  0  0  0  0  0  0  0  0  0
    9.9522  -16.6431   25.6330 O   0  0  0  0  0  0  0  0  0  0  0  0
    9.3466  -17.5218   26.2889 N   0  0  0  0  0  0  0  0  0  0  0  0
   11.3398  -16.8005   25.3768 C   0  0  0  0  0  0  0  0  0  0  0  0
   11.9756  -18.0296   25.7911 C   0  0  0  0  0  0  0  0  0  0  0  0
   13.3938  -18.0087   25.3925 O   0  0  0  0  0  0  0  0  0  0  0  0
   13.8086  -17.1712   24.5680 O   0  0  0  0  0  0  0  0  0  0  0  0
  2  1  1  0
  3  2  2  0
  4  2  1  0
  5  4  1  0
  6  5  1  0
  7  6  1  0
  8  7  1  0
  8  9  1  1
 10  8  1  0
 10 11  2  0
 12 10  1  0
 13 12  1  0
 13 14  1  1
 15 14  1  0
 15 16  2  0
 16 17  1  0
 18 17  2  0
 19 18  1  0
 20 19  2  0
 20 15  1  0
 21 13  1  0
 22 21  2  0
 23 21  1  0
 24 25  1  0
 24 23  1  0
 25 27  1  0
 26 25  2  0
M  END
$$$$
