RFG.pdb
     RDKit          3D

 27 27  0  0  1  0  0  0  0  0999 V2000
    8.3384  -14.1344   17.3047 N   0  0  0  0  0  0  0  0  0  0  0  0
    8.2846  -13.0373   18.1951 C   0  0  0  0  0  0  0  0  0  0  0  0
    8.9180  -11.9533   17.9679 N   0  0  0  0  0  0  0  0  0  0  0  0
    7.4926  -13.1595   19.3857 N   0  0  0  0  0  0  0  0  0  0  0  0
    6.6824  -14.3034   19.6433 C   0  0  0  0  0  0  0  0  0  0  0  0
    7.4819  -15.5588   19.9020 C   0  0  0  0  0  0  0  0  0  0  0  0
    8.2867  -15.3118   21.1699 C   0  0  0  0  0  0  0  0  0  0  0  0
    8.3831  -16.5831   21.9481 C   0  0  2  0  0  0  0  0  0  0  0  0
    7.1163  -17.2452   22.0473 N   0  0  0  0  0  0  0  0  0  0  0  0
    8.9797  -16.3007   23.2952 C   0  0  0  0  0  0  0  0  0  0  0  0
   10.1177  -15.7702   23.3441 O   0  0  0  0  0  0  0  0  0  0  0  0
    8.9111  -11.1178   18.5622 N   0  0  0  0  0  0  0  0  0  0  0  0
    8.3245  -16.6032   24.5136 C   0  0  1  0  0  0  0  0  0  0  0  0
    9.0063  -16.2986   25.7565 C   0  0  0  0  0  0  0  0  0  0  0  0
    8.1017  -15.6766   26.7713 C   0  0  0  0  0  0  0  0  0  0  0  0
    7.5814  -14.3572   26.4207 C   0  0  0  0  0  0  0  0  0  0  0  0
    8.3302  -13.2403   26.6895 C   0  0  0  0  0  0  0  0  0  0  0  0
    7.9024  -11.9626   26.3879 C   0  0  0  0  0  0  0  0  0  0  0  0
    6.6883  -11.8008   25.7995 C   0  0  0  0  0  0  0  0  0  0  0  0
    5.9076  -12.9034   25.5145 C   0  0  0  0  0  0  0  0  0  0  0  0
    6.3573  -14.1975   25.8277 C   0  0  0  0  0  0  0  0  0  0  0  0
    9.4664  -17.5997   26.3535 O   0  0  0  0  0  0  0  0  0  0  0  0
    8.6017  -18.3975   26.7833 N   0  0  0  0  0  0  0  0  0  0  0  0
   10.8396  -17.9493   26.4426 C   0  0  0  0  0  0  0  0  0  0  0  0
   11.5595  -17.5892   27.6420 C   0  0  0  0  0  0  0  0  0  0  0  0
   11.2220  -18.5339   28.7210 O   0  0  0  0  0  0  0  0  0  0  0  0
   10.7265  -19.6467   28.4576 O   0  0  0  0  0  0  0  0  0  0  0  0
  2  1  1  0
  3  2  2  0
  4  2  1  0
  5  4  1  0
  6  5  1  0
  7  6  1  0
  8  7  1  0
  8  9  1  1
 10  8  1  0
 10 11  2  0
 12 10  1  0
 13 12  1  0
 13 14  1  1
 15 14  1  0
 15 16  2  0
 16 17  1  0
 18 17  2  0
 19 18  1  0
 20 19  2  0
 20 15  1  0
 21 13  1  0
 22 21  2  0
 23 21  1  0
 24 25  1  0
 24 23  1  0
 25 27  1  0
 26 25  2  0
M  END
$$$$
