RFG.pdb
     RDKit          3D

 27 27  0  0  1  0  0  0  0  0999 V2000
    7.6475  -13.5169   15.8903 N   0  0  0  0  0  0  0  0  0  0  0  0
    8.4550  -13.6157   17.0467 C   0  0  0  0  0  0  0  0  0  0  0  0
    9.6485  -14.0642   16.9990 N   0  0  0  0  0  0  0  0  0  0  0  0
    7.9043  -13.1980   18.3045 N   0  0  0  0  0  0  0  0  0  0  0  0
    8.2208  -13.8579   19.5275 C   0  0  0  0  0  0  0  0  0  0  0  0
    7.4884  -15.1665   19.7099 C   0  0  0  0  0  0  0  0  0  0  0  0
    8.0281  -15.7961   20.9860 C   0  0  0  0  0  0  0  0  0  0  0  0
    7.1474  -15.4194   22.1322 C   0  0  2  0  0  0  0  0  0  0  0  0
    6.3438  -14.2716   21.8328 N   0  0  0  0  0  0  0  0  0  0  0  0
    7.9846  -15.2178   23.3607 C   0  0  0  0  0  0  0  0  0  0  0  0
    8.6329  -14.1473   23.4715 O   0  0  0  0  0  0  0  0  0  0  0  0
   10.2751  -14.1907   17.8007 N   0  0  0  0  0  0  0  0  0  0  0  0
    8.0808  -16.1745   24.4003 C   0  0  1  0  0  0  0  0  0  0  0  0
    8.8872  -15.8514   25.5613 C   0  0  0  0  0  0  0  0  0  0  0  0
    8.0603  -15.5007   26.7563 C   0  0  0  0  0  0  0  0  0  0  0  0
    7.5198  -14.1434   26.7668 C   0  0  0  0  0  0  0  0  0  0  0  0
    6.1614  -13.9552   26.7714 C   0  0  0  0  0  0  0  0  0  0  0  0
    5.5799  -12.7030   26.7797 C   0  0  0  0  0  0  0  0  0  0  0  0
    6.3843  -11.6078   26.7836 C   0  0  0  0  0  0  0  0  0  0  0  0
    7.7566  -11.7602   26.7791 C   0  0  0  0  0  0  0  0  0  0  0  0
    8.3332  -13.0418   26.7708 C   0  0  0  0  0  0  0  0  0  0  0  0
    9.6572  -17.0867   25.9381 O   0  0  0  0  0  0  0  0  0  0  0  0
   10.2180  -17.1216   27.0576 N   0  0  0  0  0  0  0  0  0  0  0  0
    9.7659  -18.2061   25.0715 C   0  0  0  0  0  0  0  0  0  0  0  0
   10.6749  -18.1177   23.9525 C   0  0  0  0  0  0  0  0  0  0  0  0
   12.0555  -18.3274   24.4221 O   0  0  0  0  0  0  0  0  0  0  0  0
   12.3637  -18.0983   25.6078 O   0  0  0  0  0  0  0  0  0  0  0  0
  2  1  1  0
  3  2  2  0
  4  2  1  0
  5  4  1  0
  6  5  1  0
  7  6  1  0
  8  7  1  0
  8  9  1  6
 10  8  1  0
 10 11  2  0
 12 10  1  0
 13 12  1  0
 13 14  1  1
 15 14  1  0
 15 16  2  0
 16 17  1  0
 18 17  2  0
 19 18  1  0
 20 19  2  0
 20 15  1  0
 21 13  1  0
 22 21  2  0
 23 21  1  0
 24 25  1  0
 24 23  1  0
 25 27  1  0
 26 25  2  0
M  END
$$$$
