RFG.pdb
     RDKit          3D

 27 27  0  0  1  0  0  0  0  0999 V2000
    9.3706  -15.0375   15.4736 N   0  0  0  0  0  0  0  0  0  0  0  0
    8.0851  -14.4943   15.2466 C   0  0  0  0  0  0  0  0  0  0  0  0
    7.3853  -14.8207   14.2309 N   0  0  0  0  0  0  0  0  0  0  0  0
    7.5643  -13.5485   16.1921 N   0  0  0  0  0  0  0  0  0  0  0  0
    8.2482  -13.2303   17.4014 C   0  0  0  0  0  0  0  0  0  0  0  0
    8.7504  -14.4461   18.1441 C   0  0  0  0  0  0  0  0  0  0  0  0
    8.6144  -14.1395   19.6286 C   0  0  0  0  0  0  0  0  0  0  0  0
    9.0692  -15.3220   20.4199 C   0  0  2  0  0  0  0  0  0  0  0  0
    8.1642  -16.4260   20.2974 N   0  0  0  0  0  0  0  0  0  0  0  0
    9.2761  -14.9172   21.8496 C   0  0  0  0  0  0  0  0  0  0  0  0
   10.1914  -14.0971   22.1107 O   0  0  0  0  0  0  0  0  0  0  0  0
    6.4576  -14.4519   13.9971 N   0  0  0  0  0  0  0  0  0  0  0  0
    8.4917  -15.4144   22.9186 C   0  0  1  0  0  0  0  0  0  0  0  0
    8.4347  -14.6457   24.1468 C   0  0  0  0  0  0  0  0  0  0  0  0
    7.0412  -14.2440   24.5098 C   0  0  0  0  0  0  0  0  0  0  0  0
    6.9285  -13.3331   25.6464 C   0  0  0  0  0  0  0  0  0  0  0  0
    7.7574  -12.2435   25.7261 C   0  0  0  0  0  0  0  0  0  0  0  0
    7.7090  -11.3418   26.7705 C   0  0  0  0  0  0  0  0  0  0  0  0
    6.8028  -11.5387   27.7637 C   0  0  0  0  0  0  0  0  0  0  0  0
    5.9524  -12.6255   27.7158 C   0  0  0  0  0  0  0  0  0  0  0  0
    6.0141  -13.5344   26.6457 C   0  0  0  0  0  0  0  0  0  0  0  0
    8.9139  -15.5337   25.2616 O   0  0  0  0  0  0  0  0  0  0  0  0
    8.5768  -15.2526   26.4348 N   0  0  0  0  0  0  0  0  0  0  0  0
    9.7287  -16.6725   25.0269 C   0  0  0  0  0  0  0  0  0  0  0  0
   10.0947  -17.4947   26.1566 C   0  0  0  0  0  0  0  0  0  0  0  0
   10.8892  -18.6450   25.6913 O   0  0  0  0  0  0  0  0  0  0  0  0
   10.4610  -19.3867   24.7858 O   0  0  0  0  0  0  0  0  0  0  0  0
  2  1  1  0
  3  2  2  0
  4  2  1  0
  5  4  1  0
  6  5  1  0
  7  6  1  0
  8  7  1  0
  8  9  1  1
 10  8  1  0
 10 11  2  0
 12 10  1  0
 13 12  1  0
 13 14  1  6
 15 14  1  0
 15 16  2  0
 16 17  1  0
 18 17  2  0
 19 18  1  0
 20 19  2  0
 20 15  1  0
 21 13  1  0
 22 21  2  0
 23 21  1  0
 24 25  1  0
 24 23  1  0
 25 27  1  0
 26 25  2  0
M  END
$$$$
