RFG.pdb
     RDKit          3D

 27 27  0  0  1  0  0  0  0  0999 V2000
    7.9721  -12.5814   15.8545 N   0  0  0  0  0  0  0  0  0  0  0  0
    7.9870  -13.9278   15.4233 C   0  0  0  0  0  0  0  0  0  0  0  0
    7.8663  -14.2428   14.1928 N   0  0  0  0  0  0  0  0  0  0  0  0
    8.1412  -14.9607   16.4078 N   0  0  0  0  0  0  0  0  0  0  0  0
    8.4105  -14.6694   17.7767 C   0  0  0  0  0  0  0  0  0  0  0  0
    8.5639  -15.9038   18.6338 C   0  0  0  0  0  0  0  0  0  0  0  0
    8.9777  -15.4268   20.0185 C   0  0  0  0  0  0  0  0  0  0  0  0
    7.7919  -15.4603   20.9263 C   0  0  2  0  0  0  0  0  0  0  0  0
    6.7567  -14.5738   20.4846 N   0  0  0  0  0  0  0  0  0  0  0  0
    8.2287  -15.1635   22.3304 C   0  0  0  0  0  0  0  0  0  0  0  0
    8.8186  -14.0770   22.5544 O   0  0  0  0  0  0  0  0  0  0  0  0
    7.8895  -15.1943   13.8114 N   0  0  0  0  0  0  0  0  0  0  0  0
    8.0098  -16.0473   23.4149 C   0  0  1  0  0  0  0  0  0  0  0  0
    8.5592  -15.6974   24.7104 C   0  0  0  0  0  0  0  0  0  0  0  0
    7.5002  -15.4244   25.7296 C   0  0  0  0  0  0  0  0  0  0  0  0
    7.2642  -14.0130   26.0242 C   0  0  0  0  0  0  0  0  0  0  0  0
    8.1571  -13.0703   25.5829 C   0  0  0  0  0  0  0  0  0  0  0  0
    7.9999  -11.7201   25.8250 C   0  0  0  0  0  0  0  0  0  0  0  0
    6.9156  -11.3035   26.5300 C   0  0  0  0  0  0  0  0  0  0  0  0
    5.9961  -12.2253   26.9897 C   0  0  0  0  0  0  0  0  0  0  0  0
    6.1703  -13.5964   26.7349 C   0  0  0  0  0  0  0  0  0  0  0  0
    9.3243  -16.8888   25.2166 O   0  0  0  0  0  0  0  0  0  0  0  0
    8.7763  -18.0141   25.1682 N   0  0  0  0  0  0  0  0  0  0  0  0
   10.6388  -16.7782   25.7419 C   0  0  0  0  0  0  0  0  0  0  0  0
   11.3551  -17.9939   26.0507 C   0  0  0  0  0  0  0  0  0  0  0  0
   11.0429  -18.4127   27.4283 O   0  0  0  0  0  0  0  0  0  0  0  0
   10.0094  -18.0080   27.9953 O   0  0  0  0  0  0  0  0  0  0  0  0
  2  1  1  0
  3  2  2  0
  4  2  1  0
  5  4  1  0
  6  5  1  0
  7  6  1  0
  8  7  1  0
  8  9  1  6
 10  8  1  0
 10 11  2  0
 12 10  1  0
 13 12  1  0
 13 14  1  1
 15 14  1  0
 15 16  2  0
 16 17  1  0
 18 17  2  0
 19 18  1  0
 20 19  2  0
 20 15  1  0
 21 13  1  0
 22 21  2  0
 23 21  1  0
 24 25  1  0
 24 23  1  0
 25 27  1  0
 26 25  2  0
M  END
$$$$
