RFG.pdb
     RDKit          3D

 27 27  0  0  1  0  0  0  0  0999 V2000
    8.5764  -14.3452   14.3227 N   0  0  0  0  0  0  0  0  0  0  0  0
    9.3222  -15.3011   13.5953 C   0  0  0  0  0  0  0  0  0  0  0  0
    9.9502  -14.9955   12.5274 N   0  0  0  0  0  0  0  0  0  0  0  0
    9.3649  -16.6509   14.0813 N   0  0  0  0  0  0  0  0  0  0  0  0
    8.6357  -17.0653   15.2336 C   0  0  0  0  0  0  0  0  0  0  0  0
    8.9121  -16.2195   16.4544 C   0  0  0  0  0  0  0  0  0  0  0  0
    8.0604  -16.7859   17.5814 C   0  0  0  0  0  0  0  0  0  0  0  0
    8.9048  -17.6674   18.4423 C   0  0  2  0  0  0  0  0  0  0  0  0
    8.1655  -18.7854   18.9485 N   0  0  0  0  0  0  0  0  0  0  0  0
    9.5192  -16.8522   19.5417 C   0  0  0  0  0  0  0  0  0  0  0  0
   10.3825  -15.9922   19.2353 O   0  0  0  0  0  0  0  0  0  0  0  0
   10.5603  -15.6200   11.9899 N   0  0  0  0  0  0  0  0  0  0  0  0
    9.1751  -17.0049   20.9068 C   0  0  1  0  0  0  0  0  0  0  0  0
    9.7098  -16.0545   21.8624 C   0  0  0  0  0  0  0  0  0  0  0  0
    8.6395  -15.3323   22.6159 C   0  0  0  0  0  0  0  0  0  0  0  0
    7.9656  -14.2663   21.8785 C   0  0  0  0  0  0  0  0  0  0  0  0
    8.3283  -12.9610   22.0918 C   0  0  0  0  0  0  0  0  0  0  0  0
    7.7350  -11.9027   21.4330 C   0  0  0  0  0  0  0  0  0  0  0  0
    6.7492  -12.1611   20.5341 C   0  0  0  0  0  0  0  0  0  0  0  0
    6.3586  -13.4636   20.2945 C   0  0  0  0  0  0  0  0  0  0  0  0
    6.9725  -14.5301   20.9732 C   0  0  0  0  0  0  0  0  0  0  0  0
   10.4878  -16.8305   22.8888 O   0  0  0  0  0  0  0  0  0  0  0  0
    9.8823  -17.6862   23.5746 N   0  0  0  0  0  0  0  0  0  0  0  0
   11.8765  -16.6259   23.1016 C   0  0  0  0  0  0  0  0  0  0  0  0
   12.5488  -17.4589   24.0715 C   0  0  0  0  0  0  0  0  0  0  0  0
   13.9754  -17.0950   24.1282 O   0  0  0  0  0  0  0  0  0  0  0  0
   14.7395  -17.6499   24.9416 O   0  0  0  0  0  0  0  0  0  0  0  0
  2  1  1  0
  3  2  2  0
  4  2  1  0
  5  4  1  0
  6  5  1  0
  7  6  1  0
  8  7  1  0
  8  9  1  1
 10  8  1  0
 10 11  2  0
 12 10  1  0
 13 12  1  0
 13 14  1  1
 15 14  1  0
 15 16  2  0
 16 17  1  0
 18 17  2  0
 19 18  1  0
 20 19  2  0
 20 15  1  0
 21 13  1  0
 22 21  2  0
 23 21  1  0
 24 25  1  0
 24 23  1  0
 25 27  1  0
 26 25  2  0
M  END
$$$$
