TTN.pdb
     RDKit          3D

 23 22  0  0  1  0  0  0  0  0999 V2000
    8.6514  -12.2862   26.1134 C   0  0  0  0  0  0  0  0  0  0  0  0
    7.2863  -12.5881   26.6943 C   0  0  1  0  0  0  0  0  0  0  0  0
    6.7950  -11.4609   27.3548 O   0  0  0  0  0  0  0  0  0  0  0  0
    6.3452  -12.9504   25.5851 C   0  0  2  0  0  0  0  0  0  0  0  0
    5.0038  -13.0536   26.0759 N   0  0  0  0  0  0  0  0  0  0  0  0
    6.7863  -14.2144   24.9440 C   0  0  0  0  0  0  0  0  0  0  0  0
    6.4063  -15.3286   25.4214 O   0  0  0  0  0  0  0  0  0  0  0  0
    6.8715  -14.7660   21.0510 C   0  0  0  0  0  0  0  0  0  0  0  0
    8.1372  -15.2814   21.6687 C   0  0  1  0  0  0  0  0  0  0  0  0
    9.1613  -14.3226   21.5213 O   0  0  0  0  0  0  0  0  0  0  0  0
    7.9969  -15.5394   23.1726 C   0  0  2  0  0  0  0  0  0  0  0  0
    7.6278  -14.2430   23.8026 N   0  0  0  0  0  0  0  0  0  0  0  0
    9.3062  -15.9068   23.7596 C   0  0  0  0  0  0  0  0  0  0  0  0
   10.0663  -14.9909   24.2249 O   0  0  0  0  0  0  0  0  0  0  0  0
    9.8434  -17.5739   26.8952 N   0  0  0  0  0  0  0  0  0  0  0  0
   10.4697  -18.7273   26.3972 C   0  0  0  0  0  0  0  0  0  0  0  0
   10.4435  -19.7769   27.1025 O   0  0  0  0  0  0  0  0  0  0  0  0
   11.1497  -18.7862   25.1051 C   0  0  0  0  0  0  0  0  0  0  0  0
   11.1121  -17.4848   24.3447 C   0  0  2  0  0  0  0  0  0  0  0  0
    9.7570  -17.2379   23.8342 N   0  0  0  0  0  0  0  0  0  0  0  0
   12.0598  -17.4305   23.2203 C   0  0  0  0  0  0  0  0  0  0  0  0
   13.4218  -17.3669   23.3731 O   0  0  0  0  0  0  0  0  0  0  0  0
   11.6347  -17.4411   22.0280 O   0  0  0  0  0  0  0  0  0  0  0  0
  2  1  1  6
  2  3  1  0
  4  6  1  0
  4  2  1  0
  4  5  1  1
  6  7  2  0
  6 12  1  0
  9  8  1  1
  9 11  1  0
 10  9  1  0
 11 13  1  0
 11 12  1  1
 13 20  1  0
 13 14  2  0
 15 16  1  0
 16 17  2  0
 19 18  1  6
 18 16  1  0
 19 21  1  0
 20 19  1  0
 21 22  1  0
 23 21  2  0
M  END
$$$$
