TTN.pdb
     RDKit          3D

 23 22  0  0  1  0  0  0  0  0999 V2000
    8.9353  -12.3717   20.0669 C   0  0  0  0  0  0  0  0  0  0  0  0
    8.3768  -13.0275   18.8219 C   0  0  1  0  0  0  0  0  0  0  0  0
    9.0212  -12.5205   17.6924 O   0  0  0  0  0  0  0  0  0  0  0  0
    8.6119  -14.5062   18.8931 C   0  0  2  0  0  0  0  0  0  0  0  0
    8.1944  -15.1419   17.6797 N   0  0  0  0  0  0  0  0  0  0  0  0
    7.9074  -15.0715   20.0710 C   0  0  0  0  0  0  0  0  0  0  0  0
    6.6392  -15.1464   20.0700 O   0  0  0  0  0  0  0  0  0  0  0  0
    7.5635  -18.3293   20.9830 C   0  0  0  0  0  0  0  0  0  0  0  0
    8.1416  -17.7080   22.2194 C   0  0  1  0  0  0  0  0  0  0  0  0
    9.5464  -17.8352   22.2016 O   0  0  0  0  0  0  0  0  0  0  0  0
    7.8426  -16.2085   22.3209 C   0  0  2  0  0  0  0  0  0  0  0  0
    8.5909  -15.5414   21.2214 N   0  0  0  0  0  0  0  0  0  0  0  0
    8.4012  -15.6525   23.5749 C   0  0  0  0  0  0  0  0  0  0  0  0
    9.5525  -15.0980   23.5592 O   0  0  0  0  0  0  0  0  0  0  0  0
    5.5357  -12.9596   25.9323 N   0  0  0  0  0  0  0  0  0  0  0  0
    6.8673  -13.1869   26.3144 C   0  0  0  0  0  0  0  0  0  0  0  0
    7.6999  -12.2444   26.1795 O   0  0  0  0  0  0  0  0  0  0  0  0
    7.3477  -14.4529   26.8637 C   0  0  0  0  0  0  0  0  0  0  0  0
    8.3652  -15.1413   25.9897 C   0  0  2  0  0  0  0  0  0  0  0  0
    7.7110  -15.7028   24.8003 N   0  0  0  0  0  0  0  0  0  0  0  0
    9.1035  -16.2136   26.6757 C   0  0  0  0  0  0  0  0  0  0  0  0
    9.1833  -17.5023   26.2117 O   0  0  0  0  0  0  0  0  0  0  0  0
    9.7137  -15.9746   27.7588 O   0  0  0  0  0  0  0  0  0  0  0  0
  2  1  1  1
  2  3  1  0
  4  6  1  0
  4  2  1  0
  4  5  1  6
  6  7  2  0
  6 12  1  0
  9  8  1  6
  9 11  1  0
 10  9  1  0
 11 13  1  0
 11 12  1  6
 13 20  1  0
 13 14  2  0
 15 16  1  0
 16 17  2  0
 19 18  1  1
 18 16  1  0
 19 21  1  0
 20 19  1  0
 21 22  1  0
 23 21  2  0
M  END
$$$$
