TTN.pdb
     RDKit          3D

 23 22  0  0  1  0  0  0  0  0999 V2000
   10.7088  -18.0818   16.9859 C   0  0  0  0  0  0  0  0  0  0  0  0
   10.9884  -17.1163   15.8537 C   0  0  1  0  0  0  0  0  0  0  0  0
   10.8433  -17.7707   14.6294 O   0  0  0  0  0  0  0  0  0  0  0  0
   10.0106  -15.9818   15.9175 C   0  0  2  0  0  0  0  0  0  0  0  0
   10.1082  -15.1660   14.7445 N   0  0  0  0  0  0  0  0  0  0  0  0
   10.2411  -15.1879   17.1503 C   0  0  0  0  0  0  0  0  0  0  0  0
   11.2737  -14.4537   17.2426 O   0  0  0  0  0  0  0  0  0  0  0  0
    7.6150  -12.9562   19.3476 C   0  0  0  0  0  0  0  0  0  0  0  0
    8.3175  -14.0378   20.1130 C   0  0  1  0  0  0  0  0  0  0  0  0
    7.5242  -15.2041   20.1220 O   0  0  0  0  0  0  0  0  0  0  0  0
    9.6586  -14.4296   19.4837 C   0  0  2  0  0  0  0  0  0  0  0  0
    9.3499  -15.2074   18.2535 N   0  0  0  0  0  0  0  0  0  0  0  0
   10.3933  -15.3627   20.3687 C   0  0  0  0  0  0  0  0  0  0  0  0
   10.1442  -16.6147   20.3083 O   0  0  0  0  0  0  0  0  0  0  0  0
   14.8332  -14.5454   20.5836 N   0  0  0  0  0  0  0  0  0  0  0  0
   14.1740  -15.6690   21.1065 C   0  0  0  0  0  0  0  0  0  0  0  0
   14.2257  -16.7523   20.4558 O   0  0  0  0  0  0  0  0  0  0  0  0
   13.4318  -15.6600   22.3653 C   0  0  0  0  0  0  0  0  0  0  0  0
   11.9563  -15.9198   22.1964 C   0  0  2  0  0  0  0  0  0  0  0  0
   11.3708  -14.9290   21.2835 N   0  0  0  0  0  0  0  0  0  0  0  0
   11.2051  -15.9012   23.4617 C   0  0  0  0  0  0  0  0  0  0  0  0
   11.4223  -16.7823   24.4907 O   0  0  0  0  0  0  0  0  0  0  0  0
   10.2981  -15.0387   23.6512 O   0  0  0  0  0  0  0  0  0  0  0  0
  2  1  1  1
  2  3  1  0
  4  6  1  0
  4  2  1  0
  4  5  1  6
  6  7  2  0
  6 12  1  0
  9  8  1  6
  9 11  1  0
 10  9  1  0
 11 13  1  0
 11 12  1  6
 13 20  1  0
 13 14  2  0
 15 16  1  0
 16 17  2  0
 19 18  1  1
 18 16  1  0
 19 21  1  0
 20 19  1  0
 21 22  1  0
 23 21  2  0
M  END
$$$$
