TTN.pdb
     RDKit          3D

 23 22  0  0  1  0  0  0  0  0999 V2000
   10.6031  -17.8662   16.4779 C   0  0  0  0  0  0  0  0  0  0  0  0
    9.1143  -17.7358   16.7203 C   0  0  1  0  0  0  0  0  0  0  0  0
    8.4182  -18.5561   15.8311 O   0  0  0  0  0  0  0  0  0  0  0  0
    8.8016  -18.1632   18.1227 C   0  0  2  0  0  0  0  0  0  0  0  0
    7.4068  -18.4566   18.2608 N   0  0  0  0  0  0  0  0  0  0  0  0
    9.2309  -17.1104   19.0769 C   0  0  0  0  0  0  0  0  0  0  0  0
   10.3821  -16.5861   18.9601 O   0  0  0  0  0  0  0  0  0  0  0  0
    6.7571  -14.2490   20.8822 C   0  0  0  0  0  0  0  0  0  0  0  0
    7.6578  -15.0367   21.7864 C   0  0  1  0  0  0  0  0  0  0  0  0
    6.9606  -16.1523   22.2954 O   0  0  0  0  0  0  0  0  0  0  0  0
    8.8880  -15.5885   21.0582 C   0  0  2  0  0  0  0  0  0  0  0  0
    8.4053  -16.6505   20.1346 N   0  0  0  0  0  0  0  0  0  0  0  0
    9.7908  -16.2732   22.0121 C   0  0  0  0  0  0  0  0  0  0  0  0
    9.7183  -17.5420   22.1470 O   0  0  0  0  0  0  0  0  0  0  0  0
   13.8169  -17.9239   24.7272 N   0  0  0  0  0  0  0  0  0  0  0  0
   14.0547  -16.6391   24.2141 C   0  0  0  0  0  0  0  0  0  0  0  0
   15.1819  -16.1065   24.4273 O   0  0  0  0  0  0  0  0  0  0  0  0
   13.0727  -15.8803   23.4424 C   0  0  0  0  0  0  0  0  0  0  0  0
   11.6572  -16.3663   23.6251 C   0  0  2  0  0  0  0  0  0  0  0  0
   10.7423  -15.5820   22.7851 N   0  0  0  0  0  0  0  0  0  0  0  0
   11.1886  -16.3087   25.0189 C   0  0  0  0  0  0  0  0  0  0  0  0
   11.6182  -17.1617   26.0039 O   0  0  0  0  0  0  0  0  0  0  0  0
   10.3407  -15.4369   25.3702 O   0  0  0  0  0  0  0  0  0  0  0  0
  2  1  1  6
  2  3  1  0
  4  6  1  0
  4  2  1  0
  4  5  1  6
  6  7  2  0
  6 12  1  0
  9  8  1  6
  9 11  1  0
 10  9  1  0
 11 13  1  0
 11 12  1  6
 13 20  1  0
 13 14  2  0
 15 16  1  0
 16 17  2  0
 19 18  1  1
 18 16  1  0
 19 21  1  0
 20 19  1  0
 21 22  1  0
 23 21  2  0
M  END
$$$$
