TTN.pdb
     RDKit          3D

 23 22  0  0  1  0  0  0  0  0999 V2000
    7.3246  -18.9107   18.1657 C   0  0  0  0  0  0  0  0  0  0  0  0
    8.0512  -18.4000   16.9395 C   0  0  1  0  0  0  0  0  0  0  0  0
    7.5488  -19.0273   15.7984 O   0  0  0  0  0  0  0  0  0  0  0  0
    7.8359  -16.9216   16.8163 C   0  0  2  0  0  0  0  0  0  0  0  0
    8.2387  -16.4599   15.5219 N   0  0  0  0  0  0  0  0  0  0  0  0
    8.5693  -16.2147   17.8960 C   0  0  0  0  0  0  0  0  0  0  0  0
    9.8220  -16.0315   17.7907 O   0  0  0  0  0  0  0  0  0  0  0  0
    7.3636  -12.9110   19.8904 C   0  0  0  0  0  0  0  0  0  0  0  0
    7.7735  -14.0327   20.7975 C   0  0  1  0  0  0  0  0  0  0  0  0
    6.6343  -14.7675   21.1875 O   0  0  0  0  0  0  0  0  0  0  0  0
    8.7191  -15.0271   20.1155 C   0  0  2  0  0  0  0  0  0  0  0  0
    7.9307  -15.7237   19.0633 N   0  0  0  0  0  0  0  0  0  0  0  0
    9.1326  -16.0846   21.0664 C   0  0  0  0  0  0  0  0  0  0  0  0
    8.6552  -17.2636   20.9428 O   0  0  0  0  0  0  0  0  0  0  0  0
   13.1826  -19.3417   22.8550 N   0  0  0  0  0  0  0  0  0  0  0  0
   11.8021  -19.1081   22.7540 C   0  0  0  0  0  0  0  0  0  0  0  0
   11.0134  -19.9122   23.3294 O   0  0  0  0  0  0  0  0  0  0  0  0
   11.2220  -17.9839   22.0226 C   0  0  0  0  0  0  0  0  0  0  0  0
   10.5017  -16.9975   22.9066 C   0  0  2  0  0  0  0  0  0  0  0  0
   10.0439  -15.8494   22.1128 N   0  0  0  0  0  0  0  0  0  0  0  0
   11.3175  -16.5041   24.0275 C   0  0  0  0  0  0  0  0  0  0  0  0
   11.4021  -17.1328   25.2441 O   0  0  0  0  0  0  0  0  0  0  0  0
   11.9951  -15.4421   23.9030 O   0  0  0  0  0  0  0  0  0  0  0  0
  2  1  1  1
  2  3  1  0
  4  6  1  0
  4  2  1  0
  4  5  1  6
  6  7  2  0
  6 12  1  0
  9  8  1  6
  9 11  1  0
 10  9  1  0
 11 13  1  0
 11 12  1  6
 13 20  1  0
 13 14  2  0
 15 16  1  0
 16 17  2  0
 19 18  1  6
 18 16  1  0
 19 21  1  0
 20 19  1  0
 21 22  1  0
 23 21  2  0
M  END
$$$$
