TTN.pdb
     RDKit          3D

 23 22  0  0  1  0  0  0  0  0999 V2000
    7.2274  -16.1359   19.3357 C   0  0  0  0  0  0  0  0  0  0  0  0
    7.8943  -14.9005   18.7689 C   0  0  1  0  0  0  0  0  0  0  0  0
    7.4345  -14.6699   17.4714 O   0  0  0  0  0  0  0  0  0  0  0  0
    7.5527  -13.7172   19.6233 C   0  0  2  0  0  0  0  0  0  0  0  0
    7.8776  -12.4971   18.9475 N   0  0  0  0  0  0  0  0  0  0  0  0
    8.2556  -13.8182   20.9268 C   0  0  0  0  0  0  0  0  0  0  0  0
    9.4764  -13.4773   21.0119 O   0  0  0  0  0  0  0  0  0  0  0  0
    6.6239  -12.8556   24.5435 C   0  0  0  0  0  0  0  0  0  0  0  0
    7.3018  -14.1929   24.5106 C   0  0  1  0  0  0  0  0  0  0  0  0
    6.3498  -15.2008   24.2509 O   0  0  0  0  0  0  0  0  0  0  0  0
    8.3542  -14.2933   23.4014 C   0  0  2  0  0  0  0  0  0  0  0  0
    7.6217  -14.2857   22.1063 N   0  0  0  0  0  0  0  0  0  0  0  0
    9.0442  -15.6026   23.4588 C   0  0  0  0  0  0  0  0  0  0  0  0
    8.5931  -16.5821   22.7730 O   0  0  0  0  0  0  0  0  0  0  0  0
   12.9695  -19.3820   22.8803 N   0  0  0  0  0  0  0  0  0  0  0  0
   12.9193  -18.3705   23.8523 C   0  0  0  0  0  0  0  0  0  0  0  0
   13.5497  -18.5460   24.9347 O   0  0  0  0  0  0  0  0  0  0  0  0
   12.1809  -17.1208   23.6838 C   0  0  0  0  0  0  0  0  0  0  0  0
   10.7840  -17.1655   24.2491 C   0  0  2  0  0  0  0  0  0  0  0  0
   10.1934  -15.8205   24.2414 N   0  0  0  0  0  0  0  0  0  0  0  0
   10.7176  -17.7050   25.6166 C   0  0  0  0  0  0  0  0  0  0  0  0
   10.8411  -19.0379   25.9176 O   0  0  0  0  0  0  0  0  0  0  0  0
   10.5374  -16.9280   26.5997 O   0  0  0  0  0  0  0  0  0  0  0  0
  2  1  1  1
  2  3  1  0
  4  6  1  0
  4  2  1  0
  4  5  1  6
  6  7  2  0
  6 12  1  0
  9  8  1  6
  9 11  1  0
 10  9  1  0
 11 13  1  0
 11 12  1  6
 13 20  1  0
 13 14  2  0
 15 16  1  0
 16 17  2  0
 19 18  1  1
 18 16  1  0
 19 21  1  0
 20 19  1  0
 21 22  1  0
 23 21  2  0
M  END
$$$$
