TTN.pdb
     RDKit          3D

 23 22  0  0  1  0  0  0  0  0999 V2000
    7.9162  -13.7875   23.6646 C   0  0  0  0  0  0  0  0  0  0  0  0
    7.1156  -15.0696   23.5776 C   0  0  1  0  0  0  0  0  0  0  0  0
    6.0293  -15.0074   24.4518 O   0  0  0  0  0  0  0  0  0  0  0  0
    6.6048  -15.2405   22.1787 C   0  0  2  0  0  0  0  0  0  0  0  0
    5.5946  -16.2545   22.1315 N   0  0  0  0  0  0  0  0  0  0  0  0
    7.7323  -15.5562   21.2665 C   0  0  0  0  0  0  0  0  0  0  0  0
    7.9663  -16.7638   20.9490 O   0  0  0  0  0  0  0  0  0  0  0  0
    8.6681  -13.1077   18.3323 C   0  0  0  0  0  0  0  0  0  0  0  0
    9.9268  -13.7002   18.8925 C   0  0  1  0  0  0  0  0  0  0  0  0
   10.5701  -12.7537   19.7172 O   0  0  0  0  0  0  0  0  0  0  0  0
    9.6612  -14.9295   19.7678 C   0  0  2  0  0  0  0  0  0  0  0  0
    8.5798  -14.5587   20.7201 N   0  0  0  0  0  0  0  0  0  0  0  0
   10.8427  -15.2324   20.6080 C   0  0  0  0  0  0  0  0  0  0  0  0
   11.0049  -14.6109   21.7129 O   0  0  0  0  0  0  0  0  0  0  0  0
   11.7964  -19.8379   20.9343 N   0  0  0  0  0  0  0  0  0  0  0  0
   12.3697  -18.7802   21.6575 C   0  0  0  0  0  0  0  0  0  0  0  0
   12.0118  -18.6106   22.8587 O   0  0  0  0  0  0  0  0  0  0  0  0
   13.3621  -17.8627   21.1017 C   0  0  0  0  0  0  0  0  0  0  0  0
   12.9396  -16.4163   21.1512 C   0  0  2  0  0  0  0  0  0  0  0  0
   11.8072  -16.1902   20.2434 N   0  0  0  0  0  0  0  0  0  0  0  0
   14.0173  -15.4745   20.8090 C   0  0  0  0  0  0  0  0  0  0  0  0
   15.0793  -15.1986   21.6327 O   0  0  0  0  0  0  0  0  0  0  0  0
   14.0009  -14.8634   19.7005 O   0  0  0  0  0  0  0  0  0  0  0  0
  2  1  1  6
  2  3  1  0
  4  6  1  0
  4  2  1  0
  4  5  1  1
  6  7  2  0
  6 12  1  0
  9  8  1  1
  9 11  1  0
 10  9  1  0
 11 13  1  0
 11 12  1  1
 13 20  1  0
 13 14  2  0
 15 16  1  0
 16 17  2  0
 19 18  1  6
 18 16  1  0
 19 21  1  0
 20 19  1  0
 21 22  1  0
 23 21  2  0
M  END
$$$$
