TTN.pdb
     RDKit          3D

 23 22  0  0  1  0  0  0  0  0999 V2000
    2.5983  -18.3993   21.5532 C   0  0  0  0  0  0  0  0  0  0  0  0
    4.0620  -18.0245   21.4557 C   0  0  1  0  0  0  0  0  0  0  0  0
    4.8525  -19.1032   21.8554 O   0  0  0  0  0  0  0  0  0  0  0  0
    4.3915  -17.6806   20.0343 C   0  0  2  0  0  0  0  0  0  0  0  0
    4.1510  -18.8014   19.1759 N   0  0  0  0  0  0  0  0  0  0  0  0
    5.7994  -17.2196   19.9417 C   0  0  0  0  0  0  0  0  0  0  0  0
    6.7155  -18.0491   19.6479 O   0  0  0  0  0  0  0  0  0  0  0  0
    6.9119  -13.2098   20.9132 C   0  0  0  0  0  0  0  0  0  0  0  0
    7.5855  -13.9304   19.7835 C   0  0  1  0  0  0  0  0  0  0  0  0
    8.9351  -13.5283   19.7024 O   0  0  0  0  0  0  0  0  0  0  0  0
    7.5960  -15.4505   19.9767 C   0  0  2  0  0  0  0  0  0  0  0  0
    6.1826  -15.8732   20.1696 N   0  0  0  0  0  0  0  0  0  0  0  0
    8.2918  -15.8081   21.2344 C   0  0  0  0  0  0  0  0  0  0  0  0
    7.6789  -15.6861   22.3491 O   0  0  0  0  0  0  0  0  0  0  0  0
   11.2442  -17.6400   25.0134 N   0  0  0  0  0  0  0  0  0  0  0  0
   10.8994  -18.5332   23.9868 C   0  0  0  0  0  0  0  0  0  0  0  0
   11.0882  -19.7692   24.1777 O   0  0  0  0  0  0  0  0  0  0  0  0
   10.3300  -18.1161   22.7072 C   0  0  0  0  0  0  0  0  0  0  0  0
   10.2088  -16.6205   22.5608 C   0  0  2  0  0  0  0  0  0  0  0  0
    9.6147  -16.2876   21.2592 N   0  0  0  0  0  0  0  0  0  0  0  0
   11.4898  -15.9086   22.6935 C   0  0  0  0  0  0  0  0  0  0  0  0
   11.9876  -15.0507   21.7455 O   0  0  0  0  0  0  0  0  0  0  0  0
   12.2038  -16.0695   23.7264 O   0  0  0  0  0  0  0  0  0  0  0  0
  2  1  1  6
  2  3  1  0
  4  6  1  0
  4  2  1  0
  4  5  1  6
  6  7  2  0
  6 12  1  0
  9  8  1  1
  9 11  1  0
 10  9  1  0
 11 13  1  0
 11 12  1  1
 13 20  1  0
 13 14  2  0
 15 16  1  0
 16 17  2  0
 19 18  1  6
 18 16  1  0
 19 21  1  0
 20 19  1  0
 21 22  1  0
 23 21  2  0
M  END
$$$$
