TTN.pdb
     RDKit          3D

 23 22  0  0  1  0  0  0  0  0999 V2000
    7.1769  -19.9861   17.3870 C   0  0  0  0  0  0  0  0  0  0  0  0
    7.9734  -19.0821   18.3038 C   0  0  1  0  0  0  0  0  0  0  0  0
    9.3004  -19.5119   18.3533 O   0  0  0  0  0  0  0  0  0  0  0  0
    7.9357  -17.6809   17.7725 C   0  0  2  0  0  0  0  0  0  0  0  0
    8.5019  -17.6248   16.4583 N   0  0  0  0  0  0  0  0  0  0  0  0
    8.6432  -16.7696   18.7065 C   0  0  0  0  0  0  0  0  0  0  0  0
    9.7927  -16.3233   18.4011 O   0  0  0  0  0  0  0  0  0  0  0  0
    7.1924  -13.5513   20.5716 C   0  0  0  0  0  0  0  0  0  0  0  0
    7.8106  -14.5351   21.5199 C   0  0  1  0  0  0  0  0  0  0  0  0
    6.8121  -15.3864   22.0375 O   0  0  0  0  0  0  0  0  0  0  0  0
    8.8434  -15.4402   20.8400 C   0  0  2  0  0  0  0  0  0  0  0  0
    8.0910  -16.3634   19.9482 N   0  0  0  0  0  0  0  0  0  0  0  0
    9.5086  -16.3084   21.8387 C   0  0  0  0  0  0  0  0  0  0  0  0
    9.1233  -17.5192   21.9759 O   0  0  0  0  0  0  0  0  0  0  0  0
   13.6681  -16.2849   21.4860 N   0  0  0  0  0  0  0  0  0  0  0  0
   13.2176  -17.1543   22.4919 C   0  0  0  0  0  0  0  0  0  0  0  0
   13.3700  -18.3984   22.3228 O   0  0  0  0  0  0  0  0  0  0  0  0
   12.5836  -16.7030   23.7287 C   0  0  0  0  0  0  0  0  0  0  0  0
   11.0776  -16.7616   23.6899 C   0  0  2  0  0  0  0  0  0  0  0  0
   10.5641  -15.8569   22.6527 N   0  0  0  0  0  0  0  0  0  0  0  0
   10.4404  -16.4231   24.9724 C   0  0  0  0  0  0  0  0  0  0  0  0
    9.5630  -15.3812   25.1367 O   0  0  0  0  0  0  0  0  0  0  0  0
   10.6896  -17.1078   26.0076 O   0  0  0  0  0  0  0  0  0  0  0  0
  2  1  1  6
  2  3  1  0
  4  6  1  0
  4  2  1  0
  4  5  1  6
  6  7  2  0
  6 12  1  0
  9  8  1  6
  9 11  1  0
 10  9  1  0
 11 13  1  0
 11 12  1  6
 13 20  1  0
 13 14  2  0
 15 16  1  0
 16 17  2  0
 19 18  1  1
 18 16  1  0
 19 21  1  0
 20 19  1  0
 21 22  1  0
 23 21  2  0
M  END
$$$$
