TTN.pdb
     RDKit          3D

 23 22  0  0  1  0  0  0  0  0999 V2000
    7.2698  -19.0040   19.1975 C   0  0  0  0  0  0  0  0  0  0  0  0
    8.0032  -18.6988   17.9087 C   0  0  1  0  0  0  0  0  0  0  0  0
    7.4632  -19.4562   16.8681 O   0  0  0  0  0  0  0  0  0  0  0  0
    7.8474  -17.2439   17.5828 C   0  0  2  0  0  0  0  0  0  0  0  0
    8.2903  -16.9764   16.2475 N   0  0  0  0  0  0  0  0  0  0  0  0
    8.5885  -16.4242   18.5739 C   0  0  0  0  0  0  0  0  0  0  0  0
    9.8347  -16.2287   18.4234 O   0  0  0  0  0  0  0  0  0  0  0  0
    7.4635  -12.9300   20.2801 C   0  0  0  0  0  0  0  0  0  0  0  0
    7.8336  -13.9902   21.2742 C   0  0  1  0  0  0  0  0  0  0  0  0
    6.6718  -14.6684   21.6987 O   0  0  0  0  0  0  0  0  0  0  0  0
    8.7655  -15.0533   20.6830 C   0  0  2  0  0  0  0  0  0  0  0  0
    7.9644  -15.8364   19.7037 N   0  0  0  0  0  0  0  0  0  0  0  0
    9.1738  -16.0223   21.7261 C   0  0  0  0  0  0  0  0  0  0  0  0
    8.5787  -17.1506   21.8042 O   0  0  0  0  0  0  0  0  0  0  0  0
   11.9158  -19.5315   24.2220 N   0  0  0  0  0  0  0  0  0  0  0  0
   12.6225  -18.4164   23.7447 C   0  0  0  0  0  0  0  0  0  0  0  0
   13.8508  -18.3171   24.0293 O   0  0  0  0  0  0  0  0  0  0  0  0
   12.0193  -17.3620   22.9323 C   0  0  0  0  0  0  0  0  0  0  0  0
   10.7022  -16.8649   23.4719 C   0  0  2  0  0  0  0  0  0  0  0  0
   10.2049  -15.7564   22.6462 N   0  0  0  0  0  0  0  0  0  0  0  0
   10.7684  -16.4201   24.8730 C   0  0  0  0  0  0  0  0  0  0  0  0
   10.5039  -15.1365   25.2791 O   0  0  0  0  0  0  0  0  0  0  0  0
   11.0836  -17.2378   25.7866 O   0  0  0  0  0  0  0  0  0  0  0  0
  2  1  1  1
  2  3  1  0
  4  6  1  0
  4  2  1  0
  4  5  1  6
  6  7  2  0
  6 12  1  0
  9  8  1  6
  9 11  1  0
 10  9  1  0
 11 13  1  0
 11 12  1  6
 13 20  1  0
 13 14  2  0
 15 16  1  0
 16 17  2  0
 19 18  1  6
 18 16  1  0
 19 21  1  0
 20 19  1  0
 21 22  1  0
 23 21  2  0
M  END
$$$$
