TTN.pdb
     RDKit          3D

 23 22  0  0  1  0  0  0  0  0999 V2000
    7.7316  -18.0292   14.5659 C   0  0  0  0  0  0  0  0  0  0  0  0
    8.5481  -17.3310   15.6327 C   0  0  1  0  0  0  0  0  0  0  0  0
    9.8591  -17.8097   15.6118 O   0  0  0  0  0  0  0  0  0  0  0  0
    8.5641  -15.8574   15.3587 C   0  0  2  0  0  0  0  0  0  0  0  0
    9.1312  -15.5904   14.0711 N   0  0  0  0  0  0  0  0  0  0  0  0
    9.3069  -15.1538   16.4342 C   0  0  0  0  0  0  0  0  0  0  0  0
   10.4803  -14.7216   16.2101 O   0  0  0  0  0  0  0  0  0  0  0  0
    7.6139  -12.4320   19.0165 C   0  0  0  0  0  0  0  0  0  0  0  0
    8.4359  -13.5078   19.6616 C   0  0  1  0  0  0  0  0  0  0  0  0
    7.6006  -14.5791   20.0416 O   0  0  0  0  0  0  0  0  0  0  0  0
    9.4890  -14.0929   18.7147 C   0  0  2  0  0  0  0  0  0  0  0  0
    8.7633  -14.9351   17.7258 N   0  0  0  0  0  0  0  0  0  0  0  0
   10.3837  -15.0206   19.4445 C   0  0  0  0  0  0  0  0  0  0  0  0
   10.1513  -16.2767   19.4096 O   0  0  0  0  0  0  0  0  0  0  0  0
   14.5761  -13.5114   18.9957 N   0  0  0  0  0  0  0  0  0  0  0  0
   14.3071  -14.8109   19.4536 C   0  0  0  0  0  0  0  0  0  0  0  0
   14.5179  -15.7798   18.6685 O   0  0  0  0  0  0  0  0  0  0  0  0
   13.7990  -15.1097   20.7907 C   0  0  0  0  0  0  0  0  0  0  0  0
   12.3685  -15.5861   20.7990 C   0  0  2  0  0  0  0  0  0  0  0  0
   11.4973  -14.5771   20.1820 N   0  0  0  0  0  0  0  0  0  0  0  0
   11.8573  -15.8957   22.1438 C   0  0  0  0  0  0  0  0  0  0  0  0
   12.3613  -16.8926   22.9405 O   0  0  0  0  0  0  0  0  0  0  0  0
   10.8985  -15.2275   22.6300 O   0  0  0  0  0  0  0  0  0  0  0  0
  2  1  1  6
  2  3  1  0
  4  6  1  0
  4  2  1  0
  4  5  1  6
  6  7  2  0
  6 12  1  0
  9  8  1  6
  9 11  1  0
 10  9  1  0
 11 13  1  0
 11 12  1  6
 13 20  1  0
 13 14  2  0
 15 16  1  0
 16 17  2  0
 19 18  1  1
 18 16  1  0
 19 21  1  0
 20 19  1  0
 21 22  1  0
 23 21  2  0
M  END
$$$$
