EIK.pdb
     RDKit          3D

 27 26  0  0  1  0  0  0  0  0999 V2000
   28.7229  -21.6984  -15.3756 N   0  0  0  0  0  0  0  0  0  0  0  0
   27.6707  -20.7765  -15.0248 C   0  0  1  0  0  0  0  0  0  0  0  0
   27.1395  -20.0492  -16.2324 C   0  0  0  0  0  0  0  0  0  0  0  0
   28.2154  -19.2396  -16.8938 C   0  0  0  0  0  0  0  0  0  0  0  0
   27.9087  -17.7975  -16.7053 C   0  0  0  0  0  0  0  0  0  0  0  0
   28.7152  -17.0203  -16.1249 O   0  0  0  0  0  0  0  0  0  0  0  0
   26.5888  -21.3832  -14.2394 C   0  0  0  0  0  0  0  0  0  0  0  0
   26.0809  -22.5108  -14.5009 O   0  0  0  0  0  0  0  0  0  0  0  0
   26.6990  -17.2430  -17.1687 O   0  0  0  0  0  0  0  0  0  0  0  0
   26.7460  -20.7506   -8.9210 C   0  0  0  0  0  0  0  0  0  0  0  0
   26.5820  -21.4160  -10.2973 C   0  0  0  0  0  0  0  0  0  0  0  0
   25.3535  -20.8427  -10.8982 C   0  0  2  0  0  0  0  0  0  0  0  0
   24.1808  -21.1057   -9.9599 C   0  0  0  0  0  0  0  0  0  0  0  0
   25.0103  -21.2642  -12.2898 C   0  0  2  0  0  0  0  0  0  0  0  0
   26.0814  -20.6795  -13.1290 N   0  0  0  0  0  0  0  0  0  0  0  0
   23.7266  -20.7646  -12.8127 C   0  0  0  0  0  0  0  0  0  0  0  0
   23.4922  -19.5040  -12.8060 O   0  0  0  0  0  0  0  0  0  0  0  0
   22.6904  -21.5689  -13.3411 N   0  0  0  0  0  0  0  0  0  0  0  0
   21.4540  -20.9682  -13.8659 C   0  0  1  0  0  0  0  0  0  0  0  0
   20.8833  -21.8947  -14.8976 C   0  0  0  0  0  0  0  0  0  0  0  0
   19.5568  -21.4672  -15.4231 C   0  0  0  0  0  0  0  0  0  0  0  0
   18.8698  -22.5063  -16.2823 C   0  0  0  0  0  0  0  0  0  0  0  0
   17.5945  -21.9245  -16.9049 C   0  0  0  0  0  0  0  0  0  0  0  0
   16.9994  -22.9784  -17.7039 N   0  0  0  0  0  0  0  0  0  0  0  0
   20.5400  -20.7575  -12.7458 C   0  0  0  0  0  0  0  0  0  0  0  0
   20.5313  -21.5232  -11.7158 O   0  0  0  0  0  0  0  0  0  0  0  0
   19.6377  -19.7234  -12.7299 O   0  0  0  0  0  0  0  0  0  0  0  0
  2  1  1  6
  3  2  1  0
  4  3  1  0
  5  4  1  0
  5  6  2  0
  7  2  1  0
  7  8  2  0
  9  5  1  0
 10 11  1  0
 12 11  1  0
 12 14  1  0
 12 13  1  1
 14 15  1  6
 15  7  1  0
 16 14  1  0
 17 16  2  0
 18 16  1  0
 19 25  1  0
 19 18  1  0
 19 20  1  6
 21 20  1  0
 22 21  1  0
 23 24  1  0
 23 22  1  0
 25 27  1  0
 26 25  2  0
M  END
$$$$
