EIK.pdb
     RDKit          3D

 27 26  0  0  1  0  0  0  0  0999 V2000
   23.4271  -13.1358  -19.0211 N   0  0  0  0  0  0  0  0  0  0  0  0
   24.7592  -12.8805  -19.5114 C   0  0  1  0  0  0  0  0  0  0  0  0
   24.7404  -12.1005  -20.8001 C   0  0  0  0  0  0  0  0  0  0  0  0
   24.0361  -12.8619  -21.8838 C   0  0  0  0  0  0  0  0  0  0  0  0
   24.8031  -14.1029  -22.1682 C   0  0  0  0  0  0  0  0  0  0  0  0
   26.0311  -14.1984  -21.8956 O   0  0  0  0  0  0  0  0  0  0  0  0
   25.6478  -12.2638  -18.5187 C   0  0  0  0  0  0  0  0  0  0  0  0
   25.2461  -11.4873  -17.6057 O   0  0  0  0  0  0  0  0  0  0  0  0
   24.1842  -15.2234  -22.7573 O   0  0  0  0  0  0  0  0  0  0  0  0
   27.4600  -13.4989  -14.9502 C   0  0  0  0  0  0  0  0  0  0  0  0
   27.8763  -14.2365  -16.2333 C   0  0  0  0  0  0  0  0  0  0  0  0
   28.6570  -13.2685  -17.0409 C   0  0  2  0  0  0  0  0  0  0  0  0
   29.9082  -12.8778  -16.2619 C   0  0  0  0  0  0  0  0  0  0  0  0
   27.9443  -12.0482  -17.5255 C   0  0  2  0  0  0  0  0  0  0  0  0
   27.0270  -12.5473  -18.5757 N   0  0  0  0  0  0  0  0  0  0  0  0
   28.7921  -11.0140  -18.1443 C   0  0  0  0  0  0  0  0  0  0  0  0
   29.6708  -11.3574  -19.0127 O   0  0  0  0  0  0  0  0  0  0  0  0
   28.7284   -9.6294  -17.8642 N   0  0  0  0  0  0  0  0  0  0  0  0
   29.6390   -8.6781  -18.5207 C   0  0  1  0  0  0  0  0  0  0  0  0
   28.9054   -7.3851  -18.7163 C   0  0  0  0  0  0  0  0  0  0  0  0
   29.7112   -6.3323  -19.3951 C   0  0  0  0  0  0  0  0  0  0  0  0
   28.9820   -5.0187  -19.5767 C   0  0  0  0  0  0  0  0  0  0  0  0
   29.8625   -4.0213  -20.3397 C   0  0  0  0  0  0  0  0  0  0  0  0
   29.0488   -2.8465  -20.5861 N   0  0  0  0  0  0  0  0  0  0  0  0
   30.8198   -8.5215  -17.6746 C   0  0  0  0  0  0  0  0  0  0  0  0
   30.7538   -8.5590  -16.3934 O   0  0  0  0  0  0  0  0  0  0  0  0
   32.0712   -8.3277  -18.2037 O   0  0  0  0  0  0  0  0  0  0  0  0
  2  1  1  1
  3  2  1  0
  4  3  1  0
  5  4  1  0
  5  6  2  0
  7  2  1  0
  7  8  2  0
  9  5  1  0
 10 11  1  0
 12 11  1  0
 12 14  1  0
 12 13  1  1
 14 15  1  6
 15  7  1  0
 16 14  1  0
 17 16  2  0
 18 16  1  0
 19 25  1  0
 19 18  1  0
 19 20  1  1
 21 20  1  0
 22 21  1  0
 23 24  1  0
 23 22  1  0
 25 27  1  0
 26 25  2  0
M  END
$$$$
