EIK.pdb
     RDKit          3D

 27 26  0  0  1  0  0  0  0  0999 V2000
   12.8359  -11.2747  -11.7984 N   0  0  0  0  0  0  0  0  0  0  0  0
   14.1881  -11.0961  -11.3296 C   0  0  1  0  0  0  0  0  0  0  0  0
   15.1325  -12.0879  -11.9572 C   0  0  0  0  0  0  0  0  0  0  0  0
   14.7281  -13.4970  -11.6393 C   0  0  0  0  0  0  0  0  0  0  0  0
   15.6099  -14.4261  -12.3932 C   0  0  0  0  0  0  0  0  0  0  0  0
   16.4917  -14.0012  -13.1890 O   0  0  0  0  0  0  0  0  0  0  0  0
   14.6834   -9.7203  -11.4598 C   0  0  0  0  0  0  0  0  0  0  0  0
   14.3743   -8.9519  -12.4147 O   0  0  0  0  0  0  0  0  0  0  0  0
   15.4917  -15.8226  -12.2474 O   0  0  0  0  0  0  0  0  0  0  0  0
   13.8425   -8.0349   -8.1784 C   0  0  0  0  0  0  0  0  0  0  0  0
   14.5444   -6.8227   -8.8120 C   0  0  0  0  0  0  0  0  0  0  0  0
   15.9050   -7.2746   -9.1909 C   0  0  2  0  0  0  0  0  0  0  0  0
   16.8843   -6.1298   -8.9561 C   0  0  0  0  0  0  0  0  0  0  0  0
   16.0828   -7.8374  -10.5634 C   0  0  2  0  0  0  0  0  0  0  0  0
   15.5511   -9.2165  -10.4702 N   0  0  0  0  0  0  0  0  0  0  0  0
   17.4735   -7.9387  -11.0395 C   0  0  0  0  0  0  0  0  0  0  0  0
   18.3203   -8.6277  -10.3668 O   0  0  0  0  0  0  0  0  0  0  0  0
   17.9839   -7.3285  -12.2087 N   0  0  0  0  0  0  0  0  0  0  0  0
   19.3566   -7.5935  -12.6674 C   0  0  1  0  0  0  0  0  0  0  0  0
   19.2818   -8.3648  -13.9511 C   0  0  0  0  0  0  0  0  0  0  0  0
   20.6053   -8.5914  -14.5956 C   0  0  0  0  0  0  0  0  0  0  0  0
   20.5275   -9.2936  -15.9338 C   0  0  0  0  0  0  0  0  0  0  0  0
   21.9362   -9.5879  -16.4640 C   0  0  0  0  0  0  0  0  0  0  0  0
   21.7727  -10.2586  -17.7394 N   0  0  0  0  0  0  0  0  0  0  0  0
   20.0365   -6.3108  -12.8316 C   0  0  0  0  0  0  0  0  0  0  0  0
   21.3156   -6.2067  -12.8141 O   0  0  0  0  0  0  0  0  0  0  0  0
   19.3436   -5.1408  -13.0174 O   0  0  0  0  0  0  0  0  0  0  0  0
  2  1  1  6
  3  2  1  0
  4  3  1  0
  5  4  1  0
  5  6  2  0
  7  2  1  0
  7  8  2  0
  9  5  1  0
 10 11  1  0
 12 11  1  0
 12 14  1  0
 12 13  1  6
 14 15  1  1
 15  7  1  0
 16 14  1  0
 17 16  2  0
 18 16  1  0
 19 25  1  0
 19 18  1  0
 19 20  1  6
 21 20  1  0
 22 21  1  0
 23 24  1  0
 23 22  1  0
 25 27  1  0
 26 25  2  0
M  END
$$$$
