EIK.pdb
     RDKit          3D

 27 26  0  0  1  0  0  0  0  0999 V2000
   28.1215  -22.3111  -15.7842 N   0  0  0  0  0  0  0  0  0  0  0  0
   27.2138  -21.2394  -15.4559 C   0  0  1  0  0  0  0  0  0  0  0  0
   26.6085  -20.6222  -16.6896 C   0  0  0  0  0  0  0  0  0  0  0  0
   27.6715  -20.1770  -17.6498 C   0  0  0  0  0  0  0  0  0  0  0  0
   27.9787  -18.7463  -17.3888 C   0  0  0  0  0  0  0  0  0  0  0  0
   29.1147  -18.2578  -17.6380 O   0  0  0  0  0  0  0  0  0  0  0  0
   26.1851  -21.6131  -14.4775 C   0  0  0  0  0  0  0  0  0  0  0  0
   25.4492  -22.6346  -14.5904 O   0  0  0  0  0  0  0  0  0  0  0  0
   27.0081  -17.8792  -16.8489 O   0  0  0  0  0  0  0  0  0  0  0  0
   27.2610  -20.6016   -9.2892 C   0  0  0  0  0  0  0  0  0  0  0  0
   26.8128  -21.3479  -10.5564 C   0  0  0  0  0  0  0  0  0  0  0  0
   25.5839  -20.6684  -11.0328 C   0  0  2  0  0  0  0  0  0  0  0  0
   24.5411  -20.7066   -9.9210 C   0  0  0  0  0  0  0  0  0  0  0  0
   24.9909  -21.1462  -12.3181 C   0  0  2  0  0  0  0  0  0  0  0  0
   25.9997  -20.7961  -13.3444 N   0  0  0  0  0  0  0  0  0  0  0  0
   23.7248  -20.5068  -12.7168 C   0  0  0  0  0  0  0  0  0  0  0  0
   23.6835  -19.2344  -12.8703 O   0  0  0  0  0  0  0  0  0  0  0  0
   22.5066  -21.1840  -12.9560 N   0  0  0  0  0  0  0  0  0  0  0  0
   21.3009  -20.4539  -13.3780 C   0  0  1  0  0  0  0  0  0  0  0  0
   20.6054  -21.2650  -14.4301 C   0  0  0  0  0  0  0  0  0  0  0  0
   19.3189  -20.6742  -14.8934 C   0  0  0  0  0  0  0  0  0  0  0  0
   18.5684  -21.5334  -15.8877 C   0  0  0  0  0  0  0  0  0  0  0  0
   17.3096  -20.8065  -16.3768 C   0  0  0  0  0  0  0  0  0  0  0  0
   16.6744  -21.6754  -17.3487 N   0  0  0  0  0  0  0  0  0  0  0  0
   20.4631  -20.2408  -12.2002 C   0  0  0  0  0  0  0  0  0  0  0  0
   20.5044  -21.0193  -11.1807 O   0  0  0  0  0  0  0  0  0  0  0  0
   19.5833  -19.1908  -12.1158 O   0  0  0  0  0  0  0  0  0  0  0  0
  2  1  1  6
  3  2  1  0
  4  3  1  0
  5  4  1  0
  5  6  2  0
  7  2  1  0
  7  8  2  0
  9  5  1  0
 10 11  1  0
 12 11  1  0
 12 14  1  0
 12 13  1  1
 14 15  1  6
 15  7  1  0
 16 14  1  0
 17 16  2  0
 18 16  1  0
 19 25  1  0
 19 18  1  0
 19 20  1  6
 21 20  1  0
 22 21  1  0
 23 24  1  0
 23 22  1  0
 25 27  1  0
 26 25  2  0
M  END
$$$$
