EIK.pdb
     RDKit          3D

 27 26  0  0  1  0  0  0  0  0999 V2000
   28.4042  -20.5751  -17.6342 N   0  0  0  0  0  0  0  0  0  0  0  0
   27.4137  -19.9368  -16.8026 C   0  0  1  0  0  0  0  0  0  0  0  0
   26.2378  -19.4494  -17.6084 C   0  0  0  0  0  0  0  0  0  0  0  0
   26.6759  -18.5080  -18.6910 C   0  0  0  0  0  0  0  0  0  0  0  0
   27.1828  -17.2612  -18.0602 C   0  0  0  0  0  0  0  0  0  0  0  0
   28.4179  -17.0454  -17.9212 O   0  0  0  0  0  0  0  0  0  0  0  0
   26.9855  -20.7521  -15.6593 C   0  0  0  0  0  0  0  0  0  0  0  0
   26.5255  -21.9244  -15.7683 O   0  0  0  0  0  0  0  0  0  0  0  0
   26.2979  -16.2704  -17.5903 O   0  0  0  0  0  0  0  0  0  0  0  0
   30.0373  -20.6720  -11.3690 C   0  0  0  0  0  0  0  0  0  0  0  0
   29.1218  -21.2108  -12.4804 C   0  0  0  0  0  0  0  0  0  0  0  0
   27.7536  -20.7316  -12.1680 C   0  0  2  0  0  0  0  0  0  0  0  0
   27.3431  -21.2773  -10.8048 C   0  0  0  0  0  0  0  0  0  0  0  0
   26.6862  -21.0001  -13.1782 C   0  0  2  0  0  0  0  0  0  0  0  0
   27.0900  -20.2089  -14.3633 N   0  0  0  0  0  0  0  0  0  0  0  0
   25.3283  -20.5650  -12.8069 C   0  0  0  0  0  0  0  0  0  0  0  0
   25.0898  -19.3154  -12.6462 O   0  0  0  0  0  0  0  0  0  0  0  0
   24.2221  -21.4222  -12.6039 N   0  0  0  0  0  0  0  0  0  0  0  0
   22.8985  -20.8849  -12.2509 C   0  0  1  0  0  0  0  0  0  0  0  0
   21.8564  -21.8459  -12.7398 C   0  0  0  0  0  0  0  0  0  0  0  0
   20.4593  -21.4159  -12.4540 C   0  0  0  0  0  0  0  0  0  0  0  0
   19.4033  -22.3744  -12.9601 C   0  0  0  0  0  0  0  0  0  0  0  0
   18.0017  -21.8465  -12.6292 C   0  0  0  0  0  0  0  0  0  0  0  0
   17.0548  -22.7983  -13.1775 N   0  0  0  0  0  0  0  0  0  0  0  0
   22.8514  -20.7083  -10.8014 C   0  0  0  0  0  0  0  0  0  0  0  0
   22.0709  -19.8580  -10.2403 O   0  0  0  0  0  0  0  0  0  0  0  0
   23.6399  -21.4463   -9.9545 O   0  0  0  0  0  0  0  0  0  0  0  0
  2  1  1  6
  3  2  1  0
  4  3  1  0
  5  4  1  0
  5  6  2  0
  7  2  1  0
  7  8  2  0
  9  5  1  0
 10 11  1  0
 12 11  1  0
 12 14  1  0
 12 13  1  1
 14 15  1  6
 15  7  1  0
 16 14  1  0
 17 16  2  0
 18 16  1  0
 19 25  1  0
 19 18  1  0
 19 20  1  1
 21 20  1  0
 22 21  1  0
 23 24  1  0
 23 22  1  0
 25 27  1  0
 26 25  2  0
M  END
$$$$
