EIK.pdb
     RDKit          3D

 27 26  0  0  1  0  0  0  0  0999 V2000
   18.3534  -13.5395  -16.7883 N   0  0  0  0  0  0  0  0  0  0  0  0
   18.8705  -12.2883  -17.2855 C   0  0  1  0  0  0  0  0  0  0  0  0
   17.9629  -11.6816  -18.3236 C   0  0  0  0  0  0  0  0  0  0  0  0
   17.8063  -12.5925  -19.5051 C   0  0  0  0  0  0  0  0  0  0  0  0
   18.8367  -12.2401  -20.5167 C   0  0  0  0  0  0  0  0  0  0  0  0
   19.6945  -11.3407  -20.3011 O   0  0  0  0  0  0  0  0  0  0  0  0
   19.2057  -11.3244  -16.2301 C   0  0  0  0  0  0  0  0  0  0  0  0
   18.7402  -11.3811  -15.0563 O   0  0  0  0  0  0  0  0  0  0  0  0
   18.8925  -12.8998  -21.7606 O   0  0  0  0  0  0  0  0  0  0  0  0
   23.8118  -10.9715  -14.5080 C   0  0  0  0  0  0  0  0  0  0  0  0
   22.2854  -10.9445  -14.6890 C   0  0  0  0  0  0  0  0  0  0  0  0
   21.9508   -9.6108  -15.2443 C   0  0  2  0  0  0  0  0  0  0  0  0
   22.5754   -8.5402  -14.3564 C   0  0  0  0  0  0  0  0  0  0  0  0
   20.5070   -9.3105  -15.4832 C   0  0  2  0  0  0  0  0  0  0  0  0
   20.0962  -10.2743  -16.5300 N   0  0  0  0  0  0  0  0  0  0  0  0
   20.2089   -7.9608  -15.9936 C   0  0  0  0  0  0  0  0  0  0  0  0
   20.8377   -7.5239  -17.0221 O   0  0  0  0  0  0  0  0  0  0  0  0
   19.2622   -7.0680  -15.4400 N   0  0  0  0  0  0  0  0  0  0  0  0
   18.9836   -5.7680  -16.0704 C   0  0  1  0  0  0  0  0  0  0  0  0
   17.6419   -5.2948  -15.5970 C   0  0  0  0  0  0  0  0  0  0  0  0
   16.5123   -6.1707  -16.0155 C   0  0  0  0  0  0  0  0  0  0  0  0
   15.1556   -5.6958  -15.5422 C   0  0  0  0  0  0  0  0  0  0  0  0
   14.0512   -6.6110  -16.0855 C   0  0  0  0  0  0  0  0  0  0  0  0
   12.8218   -6.2255  -15.4199 N   0  0  0  0  0  0  0  0  0  0  0  0
   20.0562   -4.8461  -15.7040 C   0  0  0  0  0  0  0  0  0  0  0  0
   20.6940   -4.9441  -14.5946 O   0  0  0  0  0  0  0  0  0  0  0  0
   20.4458   -3.8212  -16.5295 O   0  0  0  0  0  0  0  0  0  0  0  0
  2  1  1  1
  3  2  1  0
  4  3  1  0
  5  4  1  0
  5  6  2  0
  7  2  1  0
  7  8  2  0
  9  5  1  0
 10 11  1  0
 12 11  1  0
 12 14  1  0
 12 13  1  1
 14 15  1  6
 15  7  1  0
 16 14  1  0
 17 16  2  0
 18 16  1  0
 19 25  1  0
 19 18  1  0
 19 20  1  1
 21 20  1  0
 22 21  1  0
 23 24  1  0
 23 22  1  0
 25 27  1  0
 26 25  2  0
M  END
$$$$
