EIK.pdb
     RDKit          3D

 27 26  0  0  1  0  0  0  0  0999 V2000
   21.0081  -11.4773  -14.7297 N   0  0  0  0  0  0  0  0  0  0  0  0
   21.5010  -11.4796  -16.0851 C   0  0  1  0  0  0  0  0  0  0  0  0
   21.0241  -10.2758  -16.8552 C   0  0  0  0  0  0  0  0  0  0  0  0
   19.5277  -10.2568  -16.9584 C   0  0  0  0  0  0  0  0  0  0  0  0
   19.1122   -8.9857  -17.6072 C   0  0  0  0  0  0  0  0  0  0  0  0
   19.9564   -8.1193  -17.9651 O   0  0  0  0  0  0  0  0  0  0  0  0
   22.9563  -11.6447  -16.1861 C   0  0  0  0  0  0  0  0  0  0  0  0
   23.7872  -10.9403  -15.5449 O   0  0  0  0  0  0  0  0  0  0  0  0
   17.7534   -8.6995  -17.8461 O   0  0  0  0  0  0  0  0  0  0  0  0
   25.2214  -15.8113  -14.7141 C   0  0  0  0  0  0  0  0  0  0  0  0
   24.9541  -14.3394  -15.0688 C   0  0  0  0  0  0  0  0  0  0  0  0
   25.1364  -14.2200  -16.5356 C   0  0  2  0  0  0  0  0  0  0  0  0
   26.5145  -14.7593  -16.9031 C   0  0  0  0  0  0  0  0  0  0  0  0
   24.9263  -12.8722  -17.1448 C   0  0  2  0  0  0  0  0  0  0  0  0
   23.4670  -12.6419  -17.0408 N   0  0  0  0  0  0  0  0  0  0  0  0
   25.2855  -12.7493  -18.5685 C   0  0  0  0  0  0  0  0  0  0  0  0
   24.6900  -13.4849  -19.4336 O   0  0  0  0  0  0  0  0  0  0  0  0
   26.2579  -11.8666  -19.0930 N   0  0  0  0  0  0  0  0  0  0  0  0
   26.5739  -11.8504  -20.5300 C   0  0  1  0  0  0  0  0  0  0  0  0
   27.3310  -10.5913  -20.8299 C   0  0  0  0  0  0  0  0  0  0  0  0
   27.7505  -10.4654  -22.2535 C   0  0  0  0  0  0  0  0  0  0  0  0
   28.4152   -9.1472  -22.5862 C   0  0  0  0  0  0  0  0  0  0  0  0
   28.7470   -9.0803  -24.0822 C   0  0  0  0  0  0  0  0  0  0  0  0
   27.4890   -8.9124  -24.7837 N   0  0  0  0  0  0  0  0  0  0  0  0
   27.3502  -13.0492  -20.8382 C   0  0  0  0  0  0  0  0  0  0  0  0
   28.2299  -13.5213  -20.0317 O   0  0  0  0  0  0  0  0  0  0  0  0
   27.1801  -13.7425  -22.0103 O   0  0  0  0  0  0  0  0  0  0  0  0
  2  1  1  1
  3  2  1  0
  4  3  1  0
  5  4  1  0
  5  6  2  0
  7  2  1  0
  7  8  2  0
  9  5  1  0
 10 11  1  0
 12 11  1  0
 12 14  1  0
 12 13  1  1
 14 15  1  6
 15  7  1  0
 16 14  1  0
 17 16  2  0
 18 16  1  0
 19 25  1  0
 19 18  1  0
 19 20  1  1
 21 20  1  0
 22 21  1  0
 23 24  1  0
 23 22  1  0
 25 27  1  0
 26 25  2  0
M  END
$$$$
