EIK.pdb
     RDKit          3D

 27 26  0  0  1  0  0  0  0  0999 V2000
   20.9193  -13.9811  -16.9938 N   0  0  0  0  0  0  0  0  0  0  0  0
   21.0256  -12.5811  -17.3235 C   0  0  1  0  0  0  0  0  0  0  0  0
   19.7552  -12.0538  -17.9380 C   0  0  0  0  0  0  0  0  0  0  0  0
   19.3109  -12.9129  -19.0847 C   0  0  0  0  0  0  0  0  0  0  0  0
   18.1564  -12.2558  -19.7514 C   0  0  0  0  0  0  0  0  0  0  0  0
   18.2896  -11.6279  -20.8374 O   0  0  0  0  0  0  0  0  0  0  0  0
   21.4750  -11.7417  -16.2061 C   0  0  0  0  0  0  0  0  0  0  0  0
   20.9440  -11.7593  -15.0591 O   0  0  0  0  0  0  0  0  0  0  0  0
   16.8645  -12.3088  -19.1913 O   0  0  0  0  0  0  0  0  0  0  0  0
   26.8095  -10.4617  -15.9469 C   0  0  0  0  0  0  0  0  0  0  0  0
   25.3617  -10.1925  -16.3887 C   0  0  0  0  0  0  0  0  0  0  0  0
   24.5120  -10.3898  -15.1895 C   0  0  2  0  0  0  0  0  0  0  0  0
   24.6565  -11.8330  -14.7192 C   0  0  0  0  0  0  0  0  0  0  0  0
   23.0684  -10.0227  -15.3045 C   0  0  2  0  0  0  0  0  0  0  0  0
   22.5589  -10.8648  -16.4111 N   0  0  0  0  0  0  0  0  0  0  0  0
   22.7901   -8.6205  -15.6614 C   0  0  0  0  0  0  0  0  0  0  0  0
   22.6922   -8.2932  -16.8973 O   0  0  0  0  0  0  0  0  0  0  0  0
   22.6134   -7.5620  -14.7404 N   0  0  0  0  0  0  0  0  0  0  0  0
   22.3056   -6.1983  -15.1992 C   0  0  1  0  0  0  0  0  0  0  0  0
   20.9468   -6.2120  -15.8333 C   0  0  0  0  0  0  0  0  0  0  0  0
   20.4935   -4.8774  -16.3147 C   0  0  0  0  0  0  0  0  0  0  0  0
   19.1448   -4.8948  -17.0009 C   0  0  0  0  0  0  0  0  0  0  0  0
   18.7936   -3.4956  -17.5216 C   0  0  0  0  0  0  0  0  0  0  0  0
   17.4286   -3.5591  -18.0071 N   0  0  0  0  0  0  0  0  0  0  0  0
   22.3681   -5.3054  -14.0445 C   0  0  0  0  0  0  0  0  0  0  0  0
   22.3022   -5.7399  -12.8386 O   0  0  0  0  0  0  0  0  0  0  0  0
   22.5041   -3.9468  -14.1842 O   0  0  0  0  0  0  0  0  0  0  0  0
  2  1  1  1
  3  2  1  0
  4  3  1  0
  5  4  1  0
  5  6  2  0
  7  2  1  0
  7  8  2  0
  9  5  1  0
 10 11  1  0
 12 11  1  0
 12 14  1  0
 12 13  1  6
 14 15  1  6
 15  7  1  0
 16 14  1  0
 17 16  2  0
 18 16  1  0
 19 25  1  0
 19 18  1  0
 19 20  1  1
 21 20  1  0
 22 21  1  0
 23 24  1  0
 23 22  1  0
 25 27  1  0
 26 25  2  0
M  END
$$$$
