EIK.pdb
     RDKit          3D

 27 26  0  0  1  0  0  0  0  0999 V2000
   24.7431  -16.3192  -16.2352 N   0  0  0  0  0  0  0  0  0  0  0  0
   23.9497  -15.1686  -16.5915 C   0  0  1  0  0  0  0  0  0  0  0  0
   22.4788  -15.4924  -16.6235 C   0  0  0  0  0  0  0  0  0  0  0  0
   22.2499  -16.9423  -16.9324 C   0  0  0  0  0  0  0  0  0  0  0  0
   20.7858  -17.1973  -16.9584 C   0  0  0  0  0  0  0  0  0  0  0  0
   19.9521  -16.2931  -16.6780 O   0  0  0  0  0  0  0  0  0  0  0  0
   24.2248  -13.9823  -15.7715 C   0  0  0  0  0  0  0  0  0  0  0  0
   24.1079  -13.9583  -14.5131 O   0  0  0  0  0  0  0  0  0  0  0  0
   20.2728  -18.4652  -17.2971 O   0  0  0  0  0  0  0  0  0  0  0  0
   28.7089  -11.7050  -16.3324 C   0  0  0  0  0  0  0  0  0  0  0  0
   27.4076  -12.2442  -15.7165 C   0  0  0  0  0  0  0  0  0  0  0  0
   26.3569  -11.2383  -16.0051 C   0  0  2  0  0  0  0  0  0  0  0  0
   26.7652   -9.9100  -15.3774 C   0  0  0  0  0  0  0  0  0  0  0  0
   24.9542  -11.5837  -15.6241 C   0  0  2  0  0  0  0  0  0  0  0  0
   24.6450  -12.7993  -16.4116 N   0  0  0  0  0  0  0  0  0  0  0  0
   23.9324  -10.5766  -15.9595 C   0  0  0  0  0  0  0  0  0  0  0  0
   23.7149  -10.2862  -17.1894 O   0  0  0  0  0  0  0  0  0  0  0  0
   23.1388   -9.8740  -15.0234 N   0  0  0  0  0  0  0  0  0  0  0  0
   22.1603   -8.8659  -15.4609 C   0  0  1  0  0  0  0  0  0  0  0  0
   20.8004   -9.4977  -15.4534 C   0  0  0  0  0  0  0  0  0  0  0  0
   19.6953   -8.5522  -15.7746 C   0  0  0  0  0  0  0  0  0  0  0  0
   18.3185   -9.1795  -15.7440 C   0  0  0  0  0  0  0  0  0  0  0  0
   17.2481   -8.1322  -16.0754 C   0  0  0  0  0  0  0  0  0  0  0  0
   15.9854   -8.8390  -16.1716 N   0  0  0  0  0  0  0  0  0  0  0  0
   22.2452   -7.7254  -14.5517 C   0  0  0  0  0  0  0  0  0  0  0  0
   22.7621   -7.8204  -13.3807 O   0  0  0  0  0  0  0  0  0  0  0  0
   21.7781   -6.4829  -14.9004 O   0  0  0  0  0  0  0  0  0  0  0  0
  2  1  1  1
  3  2  1  0
  4  3  1  0
  5  4  1  0
  5  6  2  0
  7  2  1  0
  7  8  2  0
  9  5  1  0
 10 11  1  0
 12 11  1  0
 12 14  1  0
 12 13  1  1
 14 15  1  6
 15  7  1  0
 16 14  1  0
 17 16  2  0
 18 16  1  0
 19 25  1  0
 19 18  1  0
 19 20  1  1
 21 20  1  0
 22 21  1  0
 23 24  1  0
 23 22  1  0
 25 27  1  0
 26 25  2  0
M  END
$$$$
