EIK.pdb
     RDKit          3D

 27 26  0  0  1  0  0  0  0  0999 V2000
   28.8798  -20.6995  -15.7023 N   0  0  0  0  0  0  0  0  0  0  0  0
   27.7840  -20.0047  -15.0724 C   0  0  1  0  0  0  0  0  0  0  0  0
   27.0961  -19.0642  -16.0273 C   0  0  0  0  0  0  0  0  0  0  0  0
   27.5826  -19.2666  -17.4318 C   0  0  0  0  0  0  0  0  0  0  0  0
   26.4254  -19.1492  -18.3572 C   0  0  0  0  0  0  0  0  0  0  0  0
   26.1693  -18.0724  -18.9623 O   0  0  0  0  0  0  0  0  0  0  0  0
   26.8256  -20.8930  -14.4033 C   0  0  0  0  0  0  0  0  0  0  0  0
   27.0825  -22.0896  -14.0871 O   0  0  0  0  0  0  0  0  0  0  0  0
   25.5665  -20.2412  -18.5923 O   0  0  0  0  0  0  0  0  0  0  0  0
   27.2674  -21.1860  -10.1602 C   0  0  0  0  0  0  0  0  0  0  0  0
   26.7339  -21.5695  -11.5501 C   0  0  0  0  0  0  0  0  0  0  0  0
   25.5071  -20.7651  -11.7668 C   0  0  2  0  0  0  0  0  0  0  0  0
   24.6040  -20.9113  -10.5470 C   0  0  0  0  0  0  0  0  0  0  0  0
   24.7336  -21.0189  -13.0195 C   0  0  2  0  0  0  0  0  0  0  0  0
   25.5455  -20.3945  -14.0893 N   0  0  0  0  0  0  0  0  0  0  0  0
   23.3931  -20.4103  -13.0796 C   0  0  0  0  0  0  0  0  0  0  0  0
   23.2426  -19.1843  -12.7353 O   0  0  0  0  0  0  0  0  0  0  0  0
   22.2136  -21.0701  -13.4956 N   0  0  0  0  0  0  0  0  0  0  0  0
   20.9435  -20.3406  -13.6366 C   0  0  1  0  0  0  0  0  0  0  0  0
   20.3434  -20.6955  -14.9641 C   0  0  0  0  0  0  0  0  0  0  0  0
   19.1048  -19.9342  -15.2879 C   0  0  0  0  0  0  0  0  0  0  0  0
   18.4920  -20.2930  -16.6243 C   0  0  0  0  0  0  0  0  0  0  0  0
   17.2902  -19.3871  -16.9199 C   0  0  0  0  0  0  0  0  0  0  0  0
   16.8093  -19.7459  -18.2402 N   0  0  0  0  0  0  0  0  0  0  0  0
   20.0781  -20.7148  -12.5205 C   0  0  0  0  0  0  0  0  0  0  0  0
   19.0294  -20.0424  -12.2120 O   0  0  0  0  0  0  0  0  0  0  0  0
   20.3369  -21.8120  -11.7378 O   0  0  0  0  0  0  0  0  0  0  0  0
  2  1  1  6
  3  2  1  0
  4  3  1  0
  5  4  1  0
  5  6  2  0
  7  2  1  0
  7  8  2  0
  9  5  1  0
 10 11  1  0
 12 11  1  0
 12 14  1  0
 12 13  1  1
 14 15  1  6
 15  7  1  0
 16 14  1  0
 17 16  2  0
 18 16  1  0
 19 25  1  0
 19 18  1  0
 19 20  1  6
 21 20  1  0
 22 21  1  0
 23 24  1  0
 23 22  1  0
 25 27  1  0
 26 25  2  0
M  END
$$$$
