MNC.pdb
     RDKit          3D

 23 22  0  0  1  0  0  0  0  0999 V2000
    7.9549  -11.7828   18.8593 C   0  0  0  0  0  0  0  0  0  0  0  0
    6.8719  -13.2027   19.0699 S   0  0  0  0  0  0  0  0  0  0  0  0
    7.6617  -14.4127   20.1582 C   0  0  0  0  0  0  0  0  0  0  0  0
    9.1669  -14.2404   20.1621 C   0  0  0  0  0  0  0  0  0  0  0  0
    9.7809  -15.3243   21.0364 C   0  0  2  0  0  0  0  0  0  0  0  0
    9.2448  -16.6159   20.6395 N   0  0  0  0  0  0  0  0  0  0  0  0
    9.3945  -15.0208   22.4253 C   0  0  0  0  0  0  0  0  0  0  0  0
    9.7904  -13.9703   22.9690 O   0  0  0  0  0  0  0  0  0  0  0  0
    6.2067  -14.8569   26.7023 N   0  0  0  0  0  0  0  0  0  0  0  0
    6.7809  -16.0977   26.3640 C   0  0  0  0  0  0  0  0  0  0  0  0
    7.0810  -16.9405   27.2509 O   0  0  0  0  0  0  0  0  0  0  0  0
    7.0409  -16.4288   24.9451 C   0  0  0  0  0  0  0  0  0  0  0  0
    8.2750  -15.6461   24.5267 C   0  0  2  0  0  0  0  0  0  0  0  0
    8.5788  -15.9129   23.1446 N   0  0  0  0  0  0  0  0  0  0  0  0
    9.4146  -16.0301   25.3945 C   0  0  0  0  0  0  0  0  0  0  0  0
   10.2142  -16.9291   25.0512 O   0  0  0  0  0  0  0  0  0  0  0  0
    9.6177  -15.3767   26.6397 N   0  0  0  0  0  0  0  0  0  0  0  0
   10.8391  -15.5812   27.3729 C   0  0  1  0  0  0  0  0  0  0  0  0
   11.1766  -14.3481   28.2249 C   0  0  0  0  0  0  0  0  0  0  0  0
    9.5882  -13.5133   28.5370 S   0  0  0  0  0  0  0  0  0  0  0  0
   10.7237  -16.7099   28.3335 C   0  0  0  0  0  0  0  0  0  0  0  0
    9.6781  -17.3581   28.4707 O   0  0  0  0  0  0  0  0  0  0  0  0
   11.8440  -17.0245   29.0888 O   0  0  0  0  0  0  0  0  0  0  0  0
  2  1  1  0
  3  2  1  0
  4  3  1  0
  5  7  1  0
  5  4  1  0
  5  6  1  6
  7  8  2  0
 10  9  1  0
 11 10  2  0
 12 10  1  0
 13 12  1  1
 13 15  1  0
 14 13  1  0
 14  7  1  0
 15 16  2  0
 15 17  1  0
 17 18  1  0
 18 21  1  0
 18 19  1  1
 20 19  1  0
 21 22  2  0
 21 23  1  0
M  END
$$$$
