MNC.pdb
     RDKit          3D

 23 22  0  0  1  0  0  0  0  0999 V2000
    7.1961  -11.5588   19.8065 C   0  0  0  0  0  0  0  0  0  0  0  0
    7.4197  -12.8147   18.5392 S   0  0  0  0  0  0  0  0  0  0  0  0
    8.7263  -13.9597   19.0428 C   0  0  0  0  0  0  0  0  0  0  0  0
    8.5327  -14.4100   20.4763 C   0  0  0  0  0  0  0  0  0  0  0  0
    9.6841  -15.3283   20.8602 C   0  0  2  0  0  0  0  0  0  0  0  0
    9.7718  -16.4105   19.8935 N   0  0  0  0  0  0  0  0  0  0  0  0
    9.3725  -15.8665   22.1958 C   0  0  0  0  0  0  0  0  0  0  0  0
    8.5552  -15.2780   22.9317 O   0  0  0  0  0  0  0  0  0  0  0  0
   12.2071  -17.6612   22.9921 N   0  0  0  0  0  0  0  0  0  0  0  0
   11.7288  -18.8462   23.5842 C   0  0  0  0  0  0  0  0  0  0  0  0
   12.4331  -19.8903   23.6138 O   0  0  0  0  0  0  0  0  0  0  0  0
   10.3768  -18.8778   24.1856 C   0  0  0  0  0  0  0  0  0  0  0  0
    9.7763  -17.4940   23.9980 C   0  0  2  0  0  0  0  0  0  0  0  0
    9.9943  -17.0445   22.6474 N   0  0  0  0  0  0  0  0  0  0  0  0
   10.3964  -16.5569   24.9658 C   0  0  0  0  0  0  0  0  0  0  0  0
   11.3777  -15.8508   24.6438 O   0  0  0  0  0  0  0  0  0  0  0  0
    9.8805  -16.4456   26.2850 N   0  0  0  0  0  0  0  0  0  0  0  0
   10.2188  -15.3088   27.1001 C   0  0  1  0  0  0  0  0  0  0  0  0
    9.0567  -14.3049   27.1450 C   0  0  0  0  0  0  0  0  0  0  0  0
    9.6901  -12.8557   28.0483 S   0  0  0  0  0  0  0  0  0  0  0  0
   10.4647  -15.6972   28.5140 C   0  0  0  0  0  0  0  0  0  0  0  0
   10.1615  -16.8128   28.9563 O   0  0  0  0  0  0  0  0  0  0  0  0
   11.0564  -14.7551   29.3427 O   0  0  0  0  0  0  0  0  0  0  0  0
  2  1  1  0
  3  2  1  0
  4  3  1  0
  5  7  1  0
  5  4  1  0
  5  6  1  6
  7  8  2  0
 10  9  1  0
 11 10  2  0
 12 10  1  0
 13 12  1  6
 13 15  1  0
 14 13  1  0
 14  7  1  0
 15 16  2  0
 15 17  1  0
 17 18  1  0
 18 21  1  0
 18 19  1  1
 20 19  1  0
 21 22  2  0
 21 23  1  0
M  END
$$$$
