MNC.pdb
     RDKit          3D

 23 22  0  0  1  0  0  0  0  0999 V2000
    8.0129  -11.4237   19.8102 C   0  0  0  0  0  0  0  0  0  0  0  0
    6.8828  -12.6929   19.2226 S   0  0  0  0  0  0  0  0  0  0  0  0
    7.5732  -13.4867   17.7511 C   0  0  0  0  0  0  0  0  0  0  0  0
    8.4312  -14.6774   18.1269 C   0  0  0  0  0  0  0  0  0  0  0  0
    9.8647  -14.2049   18.3224 C   0  0  2  0  0  0  0  0  0  0  0  0
   10.4144  -13.8090   17.0362 N   0  0  0  0  0  0  0  0  0  0  0  0
   10.6195  -15.3478   18.8654 C   0  0  0  0  0  0  0  0  0  0  0  0
   10.1663  -15.9939   19.8312 O   0  0  0  0  0  0  0  0  0  0  0  0
   15.2636  -15.4233   17.5459 N   0  0  0  0  0  0  0  0  0  0  0  0
   14.0811  -16.0595   17.1210 C   0  0  0  0  0  0  0  0  0  0  0  0
   13.3983  -15.5972   16.1687 O   0  0  0  0  0  0  0  0  0  0  0  0
   13.6226  -17.2937   17.7971 C   0  0  0  0  0  0  0  0  0  0  0  0
   12.5426  -16.8824   18.7847 C   0  0  2  0  0  0  0  0  0  0  0  0
   11.8533  -15.7152   18.2986 N   0  0  0  0  0  0  0  0  0  0  0  0
   13.1643  -16.6093   20.1031 C   0  0  0  0  0  0  0  0  0  0  0  0
   13.7001  -15.5058   20.3489 O   0  0  0  0  0  0  0  0  0  0  0  0
   13.1605  -17.6056   21.1161 N   0  0  0  0  0  0  0  0  0  0  0  0
   13.6281  -17.2919   22.4405 C   0  0  1  0  0  0  0  0  0  0  0  0
   12.5623  -17.6383   23.4914 C   0  0  0  0  0  0  0  0  0  0  0  0
   11.2795  -16.3547   23.3361 S   0  0  0  0  0  0  0  0  0  0  0  0
   14.8250  -18.0937   22.8075 C   0  0  0  0  0  0  0  0  0  0  0  0
   15.4655  -17.8894   23.8469 O   0  0  0  0  0  0  0  0  0  0  0  0
   15.2136  -19.0996   21.9348 O   0  0  0  0  0  0  0  0  0  0  0  0
  2  1  1  0
  3  2  1  0
  4  3  1  0
  5  7  1  0
  5  4  1  0
  5  6  1  6
  7  8  2  0
 10  9  1  0
 11 10  2  0
 12 10  1  0
 13 12  1  6
 13 15  1  0
 14 13  1  0
 14  7  1  0
 15 16  2  0
 15 17  1  0
 17 18  1  0
 18 21  1  0
 18 19  1  1
 20 19  1  0
 21 22  2  0
 21 23  1  0
M  END
$$$$
