MNC.pdb
     RDKit          3D

 23 22  0  0  1  0  0  0  0  0999 V2000
    9.2882  -11.9827   20.2932 C   0  0  0  0  0  0  0  0  0  0  0  0
    7.8000  -12.2421   19.3179 S   0  0  0  0  0  0  0  0  0  0  0  0
    8.0121  -13.6947   18.2610 C   0  0  0  0  0  0  0  0  0  0  0  0
    8.0879  -14.9624   19.0869 C   0  0  0  0  0  0  0  0  0  0  0  0
    9.5506  -15.3441   19.2638 C   0  0  2  0  0  0  0  0  0  0  0  0
   10.0786  -15.8067   17.9909 N   0  0  0  0  0  0  0  0  0  0  0  0
    9.5895  -16.4340   20.2543 C   0  0  0  0  0  0  0  0  0  0  0  0
    8.9336  -16.3418   21.3112 O   0  0  0  0  0  0  0  0  0  0  0  0
   10.8975  -20.4839   18.0892 N   0  0  0  0  0  0  0  0  0  0  0  0
   10.3746  -20.3684   19.3918 C   0  0  0  0  0  0  0  0  0  0  0  0
    9.1996  -20.7370   19.6575 O   0  0  0  0  0  0  0  0  0  0  0  0
   11.2105  -19.8061   20.4761 C   0  0  0  0  0  0  0  0  0  0  0  0
   10.4677  -18.5998   21.0275 C   0  0  2  0  0  0  0  0  0  0  0  0
   10.3656  -17.5822   20.0138 N   0  0  0  0  0  0  0  0  0  0  0  0
   11.1898  -18.0822   22.2149 C   0  0  0  0  0  0  0  0  0  0  0  0
   12.2250  -17.3905   22.0911 O   0  0  0  0  0  0  0  0  0  0  0  0
   10.7125  -18.3662   23.5227 N   0  0  0  0  0  0  0  0  0  0  0  0
   11.4319  -17.8894   24.6743 C   0  0  1  0  0  0  0  0  0  0  0  0
   10.4781  -17.2151   25.6723 C   0  0  0  0  0  0  0  0  0  0  0  0
    9.6381  -15.8958   24.7388 S   0  0  0  0  0  0  0  0  0  0  0  0
   12.0722  -19.0018   25.4245 C   0  0  0  0  0  0  0  0  0  0  0  0
   11.9117  -20.1890   25.1129 O   0  0  0  0  0  0  0  0  0  0  0  0
   12.8723  -18.6665   26.5070 O   0  0  0  0  0  0  0  0  0  0  0  0
  2  1  1  0
  3  2  1  0
  4  3  1  0
  5  7  1  0
  5  4  1  0
  5  6  1  6
  7  8  2  0
 10  9  1  0
 11 10  2  0
 12 10  1  0
 13 12  1  6
 13 15  1  0
 14 13  1  0
 14  7  1  0
 15 16  2  0
 15 17  1  0
 17 18  1  0
 18 21  1  0
 18 19  1  1
 20 19  1  0
 21 22  2  0
 21 23  1  0
M  END
$$$$
