MNC.pdb
     RDKit          3D

 23 22  0  0  1  0  0  0  0  0999 V2000
    7.3294  -12.0206   20.1461 C   0  0  0  0  0  0  0  0  0  0  0  0
    8.0396  -12.9118   18.7552 S   0  0  0  0  0  0  0  0  0  0  0  0
    9.2858  -14.0783   19.3538 C   0  0  0  0  0  0  0  0  0  0  0  0
   10.1512  -13.4478   20.4256 C   0  0  0  0  0  0  0  0  0  0  0  0
   11.1326  -14.4918   20.9386 C   0  0  2  0  0  0  0  0  0  0  0  0
   11.3035  -15.5215   19.9268 N   0  0  0  0  0  0  0  0  0  0  0  0
   10.5396  -15.0718   22.1561 C   0  0  0  0  0  0  0  0  0  0  0  0
   10.1850  -14.3292   23.0934 O   0  0  0  0  0  0  0  0  0  0  0  0
   10.4170  -17.9310   21.0827 N   0  0  0  0  0  0  0  0  0  0  0  0
   10.3854  -18.9165   22.0884 C   0  0  0  0  0  0  0  0  0  0  0  0
   10.6250  -20.1248   21.8245 O   0  0  0  0  0  0  0  0  0  0  0  0
   10.0667  -18.5383   23.4833 C   0  0  0  0  0  0  0  0  0  0  0  0
    9.8952  -17.0280   23.5044 C   0  0  2  0  0  0  0  0  0  0  0  0
   10.3711  -16.4638   22.2680 N   0  0  0  0  0  0  0  0  0  0  0  0
   10.6435  -16.4673   24.6555 C   0  0  0  0  0  0  0  0  0  0  0  0
   11.6731  -15.7778   24.4830 O   0  0  0  0  0  0  0  0  0  0  0  0
   10.1983  -16.7066   25.9834 N   0  0  0  0  0  0  0  0  0  0  0  0
   10.5590  -15.8000   27.0413 C   0  0  1  0  0  0  0  0  0  0  0  0
    9.5638  -14.6323   27.1217 C   0  0  0  0  0  0  0  0  0  0  0  0
   10.1840  -13.5446   28.4445 S   0  0  0  0  0  0  0  0  0  0  0  0
   10.5092  -16.4585   28.3733 C   0  0  0  0  0  0  0  0  0  0  0  0
    9.8209  -17.4645   28.5890 O   0  0  0  0  0  0  0  0  0  0  0  0
   11.2716  -15.9033   29.3905 O   0  0  0  0  0  0  0  0  0  0  0  0
  2  1  1  0
  3  2  1  0
  4  3  1  0
  5  7  1  0
  5  4  1  0
  5  6  1  6
  7  8  2  0
 10  9  1  0
 11 10  2  0
 12 10  1  0
 13 12  1  6
 13 15  1  0
 14 13  1  0
 14  7  1  0
 15 16  2  0
 15 17  1  0
 17 18  1  0
 18 21  1  0
 18 19  1  1
 20 19  1  0
 21 22  2  0
 21 23  1  0
M  END
$$$$
