MNC.pdb
     RDKit          3D

 23 22  0  0  1  0  0  0  0  0999 V2000
    7.5033  -11.1050   19.6693 C   0  0  0  0  0  0  0  0  0  0  0  0
    7.0929  -12.5095   20.7144 S   0  0  0  0  0  0  0  0  0  0  0  0
    8.0462  -13.9549   20.1911 C   0  0  0  0  0  0  0  0  0  0  0  0
    7.7231  -15.1602   21.0502 C   0  0  0  0  0  0  0  0  0  0  0  0
    8.4804  -16.3641   20.5085 C   0  0  2  0  0  0  0  0  0  0  0  0
    7.5402  -17.2672   19.8654 N   0  0  0  0  0  0  0  0  0  0  0  0
    9.1093  -17.0269   21.6642 C   0  0  0  0  0  0  0  0  0  0  0  0
    8.4914  -17.9114   22.2900 O   0  0  0  0  0  0  0  0  0  0  0  0
   13.9739  -17.0435   21.1367 N   0  0  0  0  0  0  0  0  0  0  0  0
   13.1146  -17.7479   22.0021 C   0  0  0  0  0  0  0  0  0  0  0  0
   12.8334  -18.9588   21.7979 O   0  0  0  0  0  0  0  0  0  0  0  0
   12.5258  -17.0646   23.1755 C   0  0  0  0  0  0  0  0  0  0  0  0
   11.0353  -17.3633   23.1599 C   0  0  2  0  0  0  0  0  0  0  0  0
   10.4075  -16.6658   22.0676 N   0  0  0  0  0  0  0  0  0  0  0  0
   10.4404  -16.9491   24.4536 C   0  0  0  0  0  0  0  0  0  0  0  0
   10.6783  -15.8226   24.9432 O   0  0  0  0  0  0  0  0  0  0  0  0
    9.5834  -17.8330   25.1628 N   0  0  0  0  0  0  0  0  0  0  0  0
    9.1486  -17.5050   26.4949 C   0  0  1  0  0  0  0  0  0  0  0  0
    7.6433  -17.7655   26.6568 C   0  0  0  0  0  0  0  0  0  0  0  0
    6.8643  -17.1203   25.1421 S   0  0  0  0  0  0  0  0  0  0  0  0
    9.8126  -18.3560   27.5173 C   0  0  0  0  0  0  0  0  0  0  0  0
    9.5834  -18.2368   28.7279 O   0  0  0  0  0  0  0  0  0  0  0  0
   10.7157  -19.3085   27.0685 O   0  0  0  0  0  0  0  0  0  0  0  0
  2  1  1  0
  3  2  1  0
  4  3  1  0
  5  7  1  0
  5  4  1  0
  5  6  1  1
  7  8  2  0
 10  9  1  0
 11 10  2  0
 12 10  1  0
 13 12  1  1
 13 15  1  0
 14 13  1  0
 14  7  1  0
 15 16  2  0
 15 17  1  0
 17 18  1  0
 18 21  1  0
 18 19  1  6
 20 19  1  0
 21 22  2  0
 21 23  1  0
M  END
$$$$
