MNC.pdb
     RDKit          3D

 23 22  0  0  1  0  0  0  0  0999 V2000
    7.6511  -11.5291   26.7906 C   0  0  0  0  0  0  0  0  0  0  0  0
    6.0676  -11.9397   26.0442 S   0  0  0  0  0  0  0  0  0  0  0  0
    6.3329  -12.9943   24.5986 C   0  0  0  0  0  0  0  0  0  0  0  0
    7.4337  -14.0029   24.8554 C   0  0  0  0  0  0  0  0  0  0  0  0
    7.6579  -14.8154   23.5881 C   0  0  2  0  0  0  0  0  0  0  0  0
    6.4256  -15.5036   23.2403 N   0  0  0  0  0  0  0  0  0  0  0  0
    8.7162  -15.7944   23.8916 C   0  0  0  0  0  0  0  0  0  0  0  0
    8.4143  -16.9494   24.2528 O   0  0  0  0  0  0  0  0  0  0  0  0
   14.5299  -17.2798   23.0368 N   0  0  0  0  0  0  0  0  0  0  0  0
   13.1500  -17.3930   23.2950 C   0  0  0  0  0  0  0  0  0  0  0  0
   12.6453  -18.4828   23.6753 O   0  0  0  0  0  0  0  0  0  0  0  0
   12.2671  -16.2180   23.1203 C   0  0  0  0  0  0  0  0  0  0  0  0
   11.0956  -16.3991   24.0720 C   0  0  2  0  0  0  0  0  0  0  0  0
   10.0704  -15.4321   23.7762 N   0  0  0  0  0  0  0  0  0  0  0  0
   11.5716  -16.2438   25.4679 C   0  0  0  0  0  0  0  0  0  0  0  0
   12.4778  -15.4304   25.7551 O   0  0  0  0  0  0  0  0  0  0  0  0
   11.0003  -17.0231   26.5096 N   0  0  0  0  0  0  0  0  0  0  0  0
   11.4891  -16.8980   27.8574 C   0  0  1  0  0  0  0  0  0  0  0  0
   10.5125  -16.0819   28.7180 C   0  0  0  0  0  0  0  0  0  0  0  0
   10.4622  -14.4223   27.9692 S   0  0  0  0  0  0  0  0  0  0  0  0
   11.6023  -18.2199   28.5282 C   0  0  0  0  0  0  0  0  0  0  0  0
   11.2346  -19.2707   27.9868 O   0  0  0  0  0  0  0  0  0  0  0  0
   12.1432  -18.2452   29.8054 O   0  0  0  0  0  0  0  0  0  0  0  0
  2  1  1  0
  3  2  1  0
  4  3  1  0
  5  7  1  0
  5  4  1  0
  5  6  1  1
  7  8  2  0
 10  9  1  0
 11 10  2  0
 12 10  1  0
 13 12  1  6
 13 15  1  0
 14 13  1  0
 14  7  1  0
 15 16  2  0
 15 17  1  0
 17 18  1  0
 18 21  1  0
 18 19  1  1
 20 19  1  0
 21 22  2  0
 21 23  1  0
M  END
$$$$
