MNC.pdb
     RDKit          3D

 23 22  0  0  1  0  0  0  0  0999 V2000
    6.3692  -11.3515   26.5685 C   0  0  0  0  0  0  0  0  0  0  0  0
    7.3292  -12.3878   25.4559 S   0  0  0  0  0  0  0  0  0  0  0  0
    6.2165  -13.2648   24.3313 C   0  0  0  0  0  0  0  0  0  0  0  0
    6.9766  -14.2627   23.4819 C   0  0  0  0  0  0  0  0  0  0  0  0
    7.9186  -15.0518   24.3798 C   0  0  2  0  0  0  0  0  0  0  0  0
    8.9096  -14.1480   24.9403 N   0  0  0  0  0  0  0  0  0  0  0  0
    8.5757  -16.0582   23.5278 C   0  0  0  0  0  0  0  0  0  0  0  0
    7.8909  -16.9024   22.9160 O   0  0  0  0  0  0  0  0  0  0  0  0
   11.2197  -17.7614   20.6275 N   0  0  0  0  0  0  0  0  0  0  0  0
   11.7607  -16.8392   21.5443 C   0  0  0  0  0  0  0  0  0  0  0  0
   12.0157  -15.6538   21.2027 O   0  0  0  0  0  0  0  0  0  0  0  0
   12.0386  -17.2583   22.9363 C   0  0  0  0  0  0  0  0  0  0  0  0
   10.7046  -17.2865   23.6648 C   0  0  2  0  0  0  0  0  0  0  0  0
    9.9764  -16.0726   23.4004 N   0  0  0  0  0  0  0  0  0  0  0  0
   10.9456  -17.4435   25.1197 C   0  0  0  0  0  0  0  0  0  0  0  0
   11.6589  -16.6301   25.7481 O   0  0  0  0  0  0  0  0  0  0  0  0
   10.3647  -18.5295   25.8281 N   0  0  0  0  0  0  0  0  0  0  0  0
   10.5793  -18.6662   27.2446 C   0  0  1  0  0  0  0  0  0  0  0  0
    9.4223  -18.0357   28.0347 C   0  0  0  0  0  0  0  0  0  0  0  0
    7.8988  -18.7367   27.3241 S   0  0  0  0  0  0  0  0  0  0  0  0
   10.6162  -20.0926   27.6620 C   0  0  0  0  0  0  0  0  0  0  0  0
   10.4146  -21.0202   26.8675 O   0  0  0  0  0  0  0  0  0  0  0  0
   10.8888  -20.3624   28.9951 O   0  0  0  0  0  0  0  0  0  0  0  0
  2  1  1  0
  3  2  1  0
  4  3  1  0
  5  7  1  0
  5  4  1  0
  5  6  1  6
  7  8  2  0
 10  9  1  0
 11 10  2  0
 12 10  1  0
 13 12  1  6
 13 15  1  0
 14 13  1  0
 14  7  1  0
 15 16  2  0
 15 17  1  0
 17 18  1  0
 18 21  1  0
 18 19  1  1
 20 19  1  0
 21 22  2  0
 21 23  1  0
M  END
$$$$
