MNC.pdb
     RDKit          3D

 23 22  0  0  1  0  0  0  0  0999 V2000
    6.7857  -11.8222   28.3376 C   0  0  0  0  0  0  0  0  0  0  0  0
    6.6971  -11.8047   26.5418 S   0  0  0  0  0  0  0  0  0  0  0  0
    5.7844  -13.2559   25.9647 C   0  0  0  0  0  0  0  0  0  0  0  0
    6.1804  -13.6203   24.5486 C   0  0  0  0  0  0  0  0  0  0  0  0
    7.1666  -14.7784   24.5992 C   0  0  2  0  0  0  0  0  0  0  0  0
    8.3362  -14.3739   25.3619 N   0  0  0  0  0  0  0  0  0  0  0  0
    7.5476  -15.0745   23.2071 C   0  0  0  0  0  0  0  0  0  0  0  0
    6.6909  -15.4837   22.3982 O   0  0  0  0  0  0  0  0  0  0  0  0
    7.1760  -12.9355   20.0230 N   0  0  0  0  0  0  0  0  0  0  0  0
    7.9276  -14.1213   19.9112 C   0  0  0  0  0  0  0  0  0  0  0  0
    7.4674  -15.1309   19.3146 O   0  0  0  0  0  0  0  0  0  0  0  0
    9.2833  -14.1948   20.5005 C   0  0  0  0  0  0  0  0  0  0  0  0
    9.2781  -15.3578   21.4795 C   0  0  2  0  0  0  0  0  0  0  0  0
    8.8773  -14.8980   22.7840 N   0  0  0  0  0  0  0  0  0  0  0  0
   10.6330  -15.9584   21.5319 C   0  0  0  0  0  0  0  0  0  0  0  0
   11.6585  -15.2417   21.5222 O   0  0  0  0  0  0  0  0  0  0  0  0
   10.7883  -17.3693   21.5948 N   0  0  0  0  0  0  0  0  0  0  0  0
   11.6540  -17.9581   22.5824 C   0  0  1  0  0  0  0  0  0  0  0  0
   11.1996  -17.5802   24.0005 C   0  0  0  0  0  0  0  0  0  0  0  0
   12.4171  -18.3332   25.1266 S   0  0  0  0  0  0  0  0  0  0  0  0
   11.6159  -19.4435   22.5342 C   0  0  0  0  0  0  0  0  0  0  0  0
   10.5569  -20.0810   22.5997 O   0  0  0  0  0  0  0  0  0  0  0  0
   12.8258  -20.1110   22.4111 O   0  0  0  0  0  0  0  0  0  0  0  0
  2  1  1  0
  3  2  1  0
  4  3  1  0
  5  7  1  0
  5  4  1  0
  5  6  1  1
  7  8  2  0
 10  9  1  0
 11 10  2  0
 12 10  1  0
 13 12  1  6
 13 15  1  0
 14 13  1  0
 14  7  1  0
 15 16  2  0
 15 17  1  0
 17 18  1  0
 18 21  1  0
 18 19  1  1
 20 19  1  0
 21 22  2  0
 21 23  1  0
M  END
$$$$
