MNC.pdb
     RDKit          3D

 23 22  0  0  1  0  0  0  0  0999 V2000
    7.2216  -11.2085   26.5463 C   0  0  0  0  0  0  0  0  0  0  0  0
    6.5754  -12.0266   25.0812 S   0  0  0  0  0  0  0  0  0  0  0  0
    6.0216  -13.6941   25.5114 C   0  0  0  0  0  0  0  0  0  0  0  0
    6.4886  -14.7047   24.4839 C   0  0  0  0  0  0  0  0  0  0  0  0
    7.9420  -14.4144   24.1379 C   0  0  2  0  0  0  0  0  0  0  0  0
    8.0792  -14.3303   22.6932 N   0  0  0  0  0  0  0  0  0  0  0  0
    8.7366  -15.5412   24.6571 C   0  0  0  0  0  0  0  0  0  0  0  0
    8.4204  -16.0851   25.7342 O   0  0  0  0  0  0  0  0  0  0  0  0
   11.2065  -17.2511   20.9805 N   0  0  0  0  0  0  0  0  0  0  0  0
   10.9063  -17.9076   22.1898 C   0  0  0  0  0  0  0  0  0  0  0  0
   10.0146  -18.7956   22.2455 O   0  0  0  0  0  0  0  0  0  0  0  0
   11.6449  -17.5569   23.4235 C   0  0  0  0  0  0  0  0  0  0  0  0
   10.6112  -17.1232   24.4503 C   0  0  2  0  0  0  0  0  0  0  0  0
    9.8543  -16.0084   23.9424 N   0  0  0  0  0  0  0  0  0  0  0  0
   11.2995  -16.7550   25.7112 C   0  0  0  0  0  0  0  0  0  0  0  0
   12.2896  -15.9901   25.7075 O   0  0  0  0  0  0  0  0  0  0  0  0
   10.8407  -17.2695   26.9535 N   0  0  0  0  0  0  0  0  0  0  0  0
   11.6120  -17.0629   28.1509 C   0  0  1  0  0  0  0  0  0  0  0  0
   10.8031  -16.2728   29.1909 C   0  0  0  0  0  0  0  0  0  0  0  0
   10.2245  -14.7742   28.3325 S   0  0  0  0  0  0  0  0  0  0  0  0
   11.9616  -18.3484   28.8107 C   0  0  0  0  0  0  0  0  0  0  0  0
   11.5535  -19.4397   28.3925 O   0  0  0  0  0  0  0  0  0  0  0  0
   12.7756  -18.2913   29.9326 O   0  0  0  0  0  0  0  0  0  0  0  0
  2  1  1  0
  3  2  1  0
  4  3  1  0
  5  7  1  0
  5  4  1  0
  5  6  1  6
  7  8  2  0
 10  9  1  0
 11 10  2  0
 12 10  1  0
 13 12  1  6
 13 15  1  0
 14 13  1  0
 14  7  1  0
 15 16  2  0
 15 17  1  0
 17 18  1  0
 18 21  1  0
 18 19  1  1
 20 19  1  0
 21 22  2  0
 21 23  1  0
M  END
$$$$
