MNC.pdb
     RDKit          3D

 23 22  0  0  1  0  0  0  0  0999 V2000
    7.6087  -11.6823   26.1829 C   0  0  0  0  0  0  0  0  0  0  0  0
    6.1660  -12.7013   26.5200 S   0  0  0  0  0  0  0  0  0  0  0  0
    6.5238  -14.4216   26.0903 C   0  0  0  0  0  0  0  0  0  0  0  0
    6.6357  -14.5957   24.5896 C   0  0  0  0  0  0  0  0  0  0  0  0
    6.6706  -16.0836   24.2711 C   0  0  2  0  0  0  0  0  0  0  0  0
    5.8240  -16.7922   25.2168 N   0  0  0  0  0  0  0  0  0  0  0  0
    8.0703  -16.5183   24.4201 C   0  0  0  0  0  0  0  0  0  0  0  0
    8.3860  -17.3068   25.3335 O   0  0  0  0  0  0  0  0  0  0  0  0
   13.2254  -17.0410   21.1970 N   0  0  0  0  0  0  0  0  0  0  0  0
   12.3818  -17.0523   22.3247 C   0  0  0  0  0  0  0  0  0  0  0  0
   12.6489  -17.7612   23.3313 O   0  0  0  0  0  0  0  0  0  0  0  0
   11.1575  -16.2209   22.3395 C   0  0  0  0  0  0  0  0  0  0  0  0
   10.3907  -16.5843   23.6009 C   0  0  2  0  0  0  0  0  0  0  0  0
    9.0564  -16.0469   23.5347 N   0  0  0  0  0  0  0  0  0  0  0  0
   11.1106  -16.0487   24.7816 C   0  0  0  0  0  0  0  0  0  0  0  0
   11.8507  -15.0445   24.6867 O   0  0  0  0  0  0  0  0  0  0  0  0
   10.9689  -16.6733   26.0500 N   0  0  0  0  0  0  0  0  0  0  0  0
   11.6908  -16.1697   27.1886 C   0  0  1  0  0  0  0  0  0  0  0  0
   11.1938  -14.7677   27.5727 C   0  0  0  0  0  0  0  0  0  0  0  0
    9.4586  -14.9812   28.0836 S   0  0  0  0  0  0  0  0  0  0  0  0
   11.4770  -17.0126   28.3944 C   0  0  0  0  0  0  0  0  0  0  0  0
   10.7722  -18.0300   28.3743 O   0  0  0  0  0  0  0  0  0  0  0  0
   12.1024  -16.6199   29.5688 O   0  0  0  0  0  0  0  0  0  0  0  0
  2  1  1  0
  3  2  1  0
  4  3  1  0
  5  7  1  0
  5  4  1  0
  5  6  1  1
  7  8  2  0
 10  9  1  0
 11 10  2  0
 12 10  1  0
 13 12  1  6
 13 15  1  0
 14 13  1  0
 14  7  1  0
 15 16  2  0
 15 17  1  0
 17 18  1  0
 18 21  1  0
 18 19  1  1
 20 19  1  0
 21 22  2  0
 21 23  1  0
M  END
$$$$
