MNC.pdb
     RDKit          3D

 23 22  0  0  1  0  0  0  0  0999 V2000
    8.4618  -11.7896   20.1410 C   0  0  0  0  0  0  0  0  0  0  0  0
    7.8838  -12.7159   18.7122 S   0  0  0  0  0  0  0  0  0  0  0  0
    7.7981  -14.4753   19.1233 C   0  0  0  0  0  0  0  0  0  0  0  0
    7.3851  -14.6775   20.5668 C   0  0  0  0  0  0  0  0  0  0  0  0
    7.3251  -16.1710   20.8537 C   0  0  2  0  0  0  0  0  0  0  0  0
    6.2228  -16.7547   20.1070 N   0  0  0  0  0  0  0  0  0  0  0  0
    7.0902  -16.3176   22.3007 C   0  0  0  0  0  0  0  0  0  0  0  0
    5.9328  -16.2327   22.7578 O   0  0  0  0  0  0  0  0  0  0  0  0
    6.7064  -18.5293   26.9203 N   0  0  0  0  0  0  0  0  0  0  0  0
    7.9952  -18.3879   26.3702 C   0  0  0  0  0  0  0  0  0  0  0  0
    9.0194  -18.3791   27.1036 O   0  0  0  0  0  0  0  0  0  0  0  0
    8.1620  -18.2467   24.9064 C   0  0  0  0  0  0  0  0  0  0  0  0
    7.9172  -16.7842   24.5719 C   0  0  2  0  0  0  0  0  0  0  0  0
    8.1683  -16.5531   23.1729 N   0  0  0  0  0  0  0  0  0  0  0  0
    8.8024  -15.9370   25.4074 C   0  0  0  0  0  0  0  0  0  0  0  0
   10.0031  -15.7605   25.1034 O   0  0  0  0  0  0  0  0  0  0  0  0
    8.2956  -15.3072   26.5758 N   0  0  0  0  0  0  0  0  0  0  0  0
    9.1424  -14.4456   27.3579 C   0  0  1  0  0  0  0  0  0  0  0  0
    8.3073  -13.4036   28.1175 C   0  0  0  0  0  0  0  0  0  0  0  0
    7.2124  -12.6462   26.8745 S   0  0  0  0  0  0  0  0  0  0  0  0
    9.8837  -15.2004   28.4023 C   0  0  0  0  0  0  0  0  0  0  0  0
    9.7166  -16.4130   28.5868 O   0  0  0  0  0  0  0  0  0  0  0  0
   10.7880  -14.4940   29.1819 O   0  0  0  0  0  0  0  0  0  0  0  0
  2  1  1  0
  3  2  1  0
  4  3  1  0
  5  7  1  0
  5  4  1  0
  5  6  1  6
  7  8  2  0
 10  9  1  0
 11 10  2  0
 12 10  1  0
 13 12  1  1
 13 15  1  0
 14 13  1  0
 14  7  1  0
 15 16  2  0
 15 17  1  0
 17 18  1  0
 18 21  1  0
 18 19  1  1
 20 19  1  0
 21 22  2  0
 21 23  1  0
M  END
$$$$
