MNC.pdb
     RDKit          3D

 23 22  0  0  1  0  0  0  0  0999 V2000
    8.4712  -11.7107   20.4278 C   0  0  0  0  0  0  0  0  0  0  0  0
    7.2035  -12.5471   19.4652 S   0  0  0  0  0  0  0  0  0  0  0  0
    7.5057  -14.3305   19.4826 C   0  0  0  0  0  0  0  0  0  0  0  0
    7.9914  -14.7870   20.8430 C   0  0  0  0  0  0  0  0  0  0  0  0
    8.1981  -16.2945   20.8080 C   0  0  2  0  0  0  0  0  0  0  0  0
    6.9156  -16.9455   20.5966 N   0  0  0  0  0  0  0  0  0  0  0  0
    8.7512  -16.6790   22.1182 C   0  0  0  0  0  0  0  0  0  0  0  0
    7.9859  -16.9272   23.0713 O   0  0  0  0  0  0  0  0  0  0  0  0
   12.7284  -19.0810   21.4487 N   0  0  0  0  0  0  0  0  0  0  0  0
   12.0284  -18.9419   22.6629 C   0  0  0  0  0  0  0  0  0  0  0  0
   11.3374  -19.8865   23.1289 O   0  0  0  0  0  0  0  0  0  0  0  0
   12.0983  -17.6684   23.4140 C   0  0  0  0  0  0  0  0  0  0  0  0
   10.6709  -17.1723   23.5782 C   0  0  2  0  0  0  0  0  0  0  0  0
   10.1431  -16.7676   22.3009 N   0  0  0  0  0  0  0  0  0  0  0  0
   10.6549  -16.0370   24.5322 C   0  0  0  0  0  0  0  0  0  0  0  0
   11.0404  -14.8977   24.1877 O   0  0  0  0  0  0  0  0  0  0  0  0
   10.1970  -16.2277   25.8637 N   0  0  0  0  0  0  0  0  0  0  0  0
   10.1449  -15.1163   26.7765 C   0  0  1  0  0  0  0  0  0  0  0  0
    8.7914  -14.3956   26.6814 C   0  0  0  0  0  0  0  0  0  0  0  0
    8.8913  -13.0005   27.8481 S   0  0  0  0  0  0  0  0  0  0  0  0
   10.2626  -15.5580   28.1911 C   0  0  0  0  0  0  0  0  0  0  0  0
   10.1740  -16.7474   28.5227 O   0  0  0  0  0  0  0  0  0  0  0  0
   10.4794  -14.5803   29.1510 O   0  0  0  0  0  0  0  0  0  0  0  0
  2  1  1  0
  3  2  1  0
  4  3  1  0
  5  7  1  0
  5  4  1  0
  5  6  1  1
  7  8  2  0
 10  9  1  0
 11 10  2  0
 12 10  1  0
 13 12  1  6
 13 15  1  0
 14 13  1  0
 14  7  1  0
 15 16  2  0
 15 17  1  0
 17 18  1  0
 18 21  1  0
 18 19  1  1
 20 19  1  0
 21 22  2  0
 21 23  1  0
M  END
$$$$
