MNC.pdb
     RDKit          3D

 23 22  0  0  1  0  0  0  0  0999 V2000
    8.8513  -11.5837   19.7353 C   0  0  0  0  0  0  0  0  0  0  0  0
    7.4216  -12.1349   18.7943 S   0  0  0  0  0  0  0  0  0  0  0  0
    7.5950  -13.8917   18.3996 C   0  0  0  0  0  0  0  0  0  0  0  0
    8.0163  -14.6846   19.6198 C   0  0  0  0  0  0  0  0  0  0  0  0
    8.4087  -16.0877   19.1796 C   0  0  2  0  0  0  0  0  0  0  0  0
    7.2135  -16.8127   18.7809 N   0  0  0  0  0  0  0  0  0  0  0  0
    9.0321  -16.7405   20.3440 C   0  0  0  0  0  0  0  0  0  0  0  0
    8.3199  -17.2895   21.2083 O   0  0  0  0  0  0  0  0  0  0  0  0
   12.1221  -19.1025   23.3331 N   0  0  0  0  0  0  0  0  0  0  0  0
   12.9934  -18.6394   22.3281 C   0  0  0  0  0  0  0  0  0  0  0  0
   14.1841  -19.0451   22.2600 O   0  0  0  0  0  0  0  0  0  0  0  0
   12.5133  -17.6590   21.3286 C   0  0  0  0  0  0  0  0  0  0  0  0
   11.0320  -17.4447   21.5947 C   0  0  2  0  0  0  0  0  0  0  0  0
   10.4314  -16.7476   20.4870 N   0  0  0  0  0  0  0  0  0  0  0  0
   10.8678  -16.6704   22.8488 C   0  0  0  0  0  0  0  0  0  0  0  0
   11.5887  -15.6779   23.0946 O   0  0  0  0  0  0  0  0  0  0  0  0
    9.8802  -17.0473   23.7983 N   0  0  0  0  0  0  0  0  0  0  0  0
    9.8150  -16.3859   25.0748 C   0  0  1  0  0  0  0  0  0  0  0  0
    8.5413  -15.5338   25.1830 C   0  0  0  0  0  0  0  0  0  0  0  0
    7.1549  -16.6773   24.8865 S   0  0  0  0  0  0  0  0  0  0  0  0
    9.7403  -17.3584   26.1969 C   0  0  0  0  0  0  0  0  0  0  0  0
    9.5738  -18.5710   26.0119 O   0  0  0  0  0  0  0  0  0  0  0  0
    9.8652  -16.8596   27.4853 O   0  0  0  0  0  0  0  0  0  0  0  0
  2  1  1  0
  3  2  1  0
  4  3  1  0
  5  7  1  0
  5  4  1  0
  5  6  1  1
  7  8  2  0
 10  9  1  0
 11 10  2  0
 12 10  1  0
 13 12  1  6
 13 15  1  0
 14 13  1  0
 14  7  1  0
 15 16  2  0
 15 17  1  0
 17 18  1  0
 18 21  1  0
 18 19  1  6
 20 19  1  0
 21 22  2  0
 21 23  1  0
M  END
$$$$
