RNY.pdb
     RDKit          3D

 32 32  0  0  1  0  0  0  0  0999 V2000
    5.6779  -16.4685   22.9477 N   0  0  0  0  0  0  0  0  0  0  0  0
    6.1576  -16.1326   21.6600 C   0  0  0  0  0  0  0  0  0  0  0  0
    5.5106  -16.4750   20.5796 N   0  0  0  0  0  0  0  0  0  0  0  0
    7.3664  -15.4052   21.5408 N   0  0  0  0  0  0  0  0  0  0  0  0
    7.4401  -14.0264   21.1560 C   0  0  0  0  0  0  0  0  0  0  0  0
    7.5113  -13.8625   19.6820 C   0  0  0  0  0  0  0  0  0  0  0  0
    8.7447  -13.1839   19.2174 C   0  0  0  0  0  0  0  0  0  0  0  0
    9.5545  -14.1068   18.2887 C   0  0  2  0  0  0  0  0  0  0  0  0
    8.7211  -14.8522   17.3893 N   0  0  0  0  0  0  0  0  0  0  0  0
   10.2971  -15.0261   19.1738 C   0  0  0  0  0  0  0  0  0  0  0  0
    9.8142  -16.1806   19.4312 O   0  0  0  0  0  0  0  0  0  0  0  0
    5.9026  -16.3350   19.6292 N   0  0  0  0  0  0  0  0  0  0  0  0
   14.8311  -14.1206   18.6775 C   0  0  0  0  0  0  0  0  0  0  0  0
   14.3726  -15.2394   19.4091 O   0  0  0  0  0  0  0  0  0  0  0  0
   14.5803  -16.3857   18.9447 C   0  0  0  0  0  0  0  0  0  0  0  0
   13.6664  -15.0747   20.6891 C   0  0  2  0  0  0  0  0  0  0  0  0
   12.2136  -15.5770   20.6499 N   0  0  0  0  0  0  0  0  0  0  0  0
   11.5335  -14.6341   19.7314 C   0  0  0  0  0  0  0  0  0  0  0  0
   11.6354  -15.4298   21.9877 O   0  0  0  0  0  0  0  0  0  0  0  0
   11.0188  -14.3461   22.2494 O   0  0  0  0  0  0  0  0  0  0  0  0
    5.8847  -12.4048   25.3342 C   0  0  0  0  0  0  0  0  0  0  0  0
    6.7082  -13.4268   24.8735 C   0  0  0  0  0  0  0  0  0  0  0  0
    6.9813  -14.5427   25.6388 C   0  0  0  0  0  0  0  0  0  0  0  0
    7.8000  -15.5692   25.1907 C   0  0  0  0  0  0  0  0  0  0  0  0
    8.3866  -15.5085   23.9289 C   0  0  0  0  0  0  0  0  0  0  0  0
    9.2799  -16.5802   23.4402 C   0  0  2  0  0  0  0  0  0  0  0  0
   10.6432  -16.3877   24.0821 N   0  0  0  0  0  0  0  0  0  0  0  0
   11.6809  -16.3765   23.0451 C   0  0  0  0  0  0  0  0  0  0  0  0
   10.8949  -17.4045   25.1128 O   0  0  0  0  0  0  0  0  0  0  0  0
   11.4907  -18.4981   24.8205 C   0  0  0  0  0  0  0  0  0  0  0  0
    8.1126  -14.3951   23.1703 C   0  0  0  0  0  0  0  0  0  0  0  0
    7.2946  -13.3734   23.6211 O   0  0  0  0  0  0  0  0  0  0  0  0
  2  1  1  0
  3  2  2  0
  4  2  1  0
  5  4  1  0
  6  5  1  0
  7  6  1  0
  8 10  1  0
  8  9  1  6
  8  7  1  0
 10 11  2  0
 12 13  1  0
 13 14  2  0
 15 13  1  0
 16 15  1  6
 16 18  1  0
 17 16  1  0
 17 10  1  0
 18 19  2  0
 18 27  1  0
 20 21  1  0
 21 22  2  0
 21 31  1  0
 22 23  1  0
 23 24  2  0
 24 25  1  0
 26 25  1  6
 26 28  1  0
 27 26  1  0
 28 29  2  0
 28 32  1  0
 30 24  1  0
 31 30  2  0
M  END
$$$$
