RNY.pdb
     RDKit          3D

 32 32  0  0  1  0  0  0  0  0999 V2000
    8.2750  -12.7174   16.4469 N   0  0  0  0  0  0  0  0  0  0  0  0
    8.1636  -14.0351   15.9446 C   0  0  0  0  0  0  0  0  0  0  0  0
    8.5852  -14.3484   14.7499 N   0  0  0  0  0  0  0  0  0  0  0  0
    7.5839  -15.0383   16.7584 N   0  0  0  0  0  0  0  0  0  0  0  0
    7.3334  -14.8893   18.1618 C   0  0  0  0  0  0  0  0  0  0  0  0
    8.5897  -14.7460   18.9399 C   0  0  0  0  0  0  0  0  0  0  0  0
    8.3842  -14.7476   20.4080 C   0  0  0  0  0  0  0  0  0  0  0  0
    9.7349  -14.6968   21.1448 C   0  0  2  0  0  0  0  0  0  0  0  0
   10.8222  -15.1675   20.3353 N   0  0  0  0  0  0  0  0  0  0  0  0
    9.5811  -15.5530   22.3378 C   0  0  0  0  0  0  0  0  0  0  0  0
    8.5831  -15.3765   23.1157 O   0  0  0  0  0  0  0  0  0  0  0  0
    8.4808  -15.3027   14.3563 N   0  0  0  0  0  0  0  0  0  0  0  0
    9.8125  -20.1277   21.9705 C   0  0  0  0  0  0  0  0  0  0  0  0
   10.9553  -19.3260   22.1910 O   0  0  0  0  0  0  0  0  0  0  0  0
   11.7739  -19.1776   21.2524 C   0  0  0  0  0  0  0  0  0  0  0  0
   11.1894  -18.6745   23.4889 C   0  0  2  0  0  0  0  0  0  0  0  0
   10.2546  -17.4810   23.7465 N   0  0  0  0  0  0  0  0  0  0  0  0
   10.5286  -16.5616   22.6174 C   0  0  0  0  0  0  0  0  0  0  0  0
   10.6652  -16.8305   24.9930 O   0  0  0  0  0  0  0  0  0  0  0  0
   11.8954  -16.5267   25.1241 O   0  0  0  0  0  0  0  0  0  0  0  0
    5.7941  -11.8467   25.9181 C   0  0  0  0  0  0  0  0  0  0  0  0
    6.9837  -12.4939   26.2355 C   0  0  0  0  0  0  0  0  0  0  0  0
    7.5011  -12.4801   27.5152 C   0  0  0  0  0  0  0  0  0  0  0  0
    8.6858  -13.1222   27.8450 C   0  0  0  0  0  0  0  0  0  0  0  0
    9.4087  -13.8165   26.8779 C   0  0  0  0  0  0  0  0  0  0  0  0
   10.6846  -14.4890   27.2023 C   0  0  1  0  0  0  0  0  0  0  0  0
   10.4126  -15.9774   27.3376 N   0  0  0  0  0  0  0  0  0  0  0  0
    9.8321  -16.4893   26.0912 C   0  0  0  0  0  0  0  0  0  0  0  0
    9.5661  -16.2601   28.5051 O   0  0  0  0  0  0  0  0  0  0  0  0
    8.4021  -16.7705   28.3603 C   0  0  0  0  0  0  0  0  0  0  0  0
    8.8904  -13.8271   25.6046 C   0  0  0  0  0  0  0  0  0  0  0  0
    7.7075  -13.1854   25.2799 O   0  0  0  0  0  0  0  0  0  0  0  0
  2  1  1  0
  3  2  2  0
  4  2  1  0
  5  4  1  0
  6  5  1  0
  7  6  1  0
  8 10  1  0
  8  9  1  6
  8  7  1  0
 10 11  2  0
 12 13  1  0
 13 14  2  0
 15 13  1  0
 16 15  1  6
 16 18  1  0
 17 16  1  0
 17 10  1  0
 18 19  2  0
 18 27  1  0
 20 21  1  0
 21 22  2  0
 21 31  1  0
 22 23  1  0
 23 24  2  0
 24 25  1  0
 26 25  1  6
 26 28  1  0
 27 26  1  0
 28 29  2  0
 28 32  1  0
 30 24  1  0
 31 30  2  0
M  END
$$$$
