RNY.pdb
     RDKit          3D

 32 32  0  0  1  0  0  0  0  0999 V2000
    9.7105  -13.3243   17.7470 N   0  0  0  0  0  0  0  0  0  0  0  0
    8.7400  -14.3443   17.8845 C   0  0  0  0  0  0  0  0  0  0  0  0
    7.5328  -14.2068   17.4082 N   0  0  0  0  0  0  0  0  0  0  0  0
    9.0876  -15.5436   18.5519 N   0  0  0  0  0  0  0  0  0  0  0  0
   10.0581  -15.6259   19.6036 C   0  0  0  0  0  0  0  0  0  0  0  0
   10.7761  -16.9254   19.5985 C   0  0  0  0  0  0  0  0  0  0  0  0
   11.9159  -16.9794   20.5449 C   0  0  0  0  0  0  0  0  0  0  0  0
   11.4146  -17.1808   21.9866 C   0  0  2  0  0  0  0  0  0  0  0  0
   10.3683  -18.1588   22.0746 N   0  0  0  0  0  0  0  0  0  0  0  0
   10.9189  -15.8639   22.4336 C   0  0  0  0  0  0  0  0  0  0  0  0
   11.4026  -14.8000   21.9173 O   0  0  0  0  0  0  0  0  0  0  0  0
    6.8070  -14.9408   17.5133 N   0  0  0  0  0  0  0  0  0  0  0  0
    6.5798  -13.3301   22.3622 C   0  0  0  0  0  0  0  0  0  0  0  0
    6.7939  -14.5922   21.7633 O   0  0  0  0  0  0  0  0  0  0  0  0
    5.9664  -15.0012   20.9143 C   0  0  0  0  0  0  0  0  0  0  0  0
    7.9590  -15.4164   22.1201 C   0  0  1  0  0  0  0  0  0  0  0  0
    8.8256  -14.7953   23.2281 N   0  0  0  0  0  0  0  0  0  0  0  0
    9.9160  -15.7792   23.4236 C   0  0  0  0  0  0  0  0  0  0  0  0
    8.0295  -14.7254   24.4556 O   0  0  0  0  0  0  0  0  0  0  0  0
    7.2856  -15.7211   24.7355 O   0  0  0  0  0  0  0  0  0  0  0  0
   12.2304  -16.6325   28.8436 C   0  0  0  0  0  0  0  0  0  0  0  0
   11.1514  -15.7956   28.5784 C   0  0  0  0  0  0  0  0  0  0  0  0
   11.2843  -14.6587   27.8069 C   0  0  0  0  0  0  0  0  0  0  0  0
   10.2162  -13.8164   27.5343 C   0  0  0  0  0  0  0  0  0  0  0  0
    8.9482  -14.0935   28.0394 C   0  0  0  0  0  0  0  0  0  0  0  0
    7.8009  -13.1980   27.7800 C   0  0  2  0  0  0  0  0  0  0  0  0
    7.0829  -13.6981   26.5383 N   0  0  0  0  0  0  0  0  0  0  0  0
    7.9944  -13.6562   25.3895 C   0  0  0  0  0  0  0  0  0  0  0  0
    5.8460  -12.9420   26.2974 O   0  0  0  0  0  0  0  0  0  0  0  0
    5.7102  -12.2294   25.2438 C   0  0  0  0  0  0  0  0  0  0  0  0
    8.8204  -15.2263   28.8079 C   0  0  0  0  0  0  0  0  0  0  0  0
    9.8888  -16.0644   29.0770 O   0  0  0  0  0  0  0  0  0  0  0  0
  2  1  1  0
  3  2  2  0
  4  2  1  0
  5  4  1  0
  6  5  1  0
  7  6  1  0
  8 10  1  0
  8  9  1  6
  8  7  1  0
 10 11  2  0
 12 13  1  0
 13 14  2  0
 15 13  1  0
 16 15  1  6
 16 18  1  0
 17 16  1  0
 17 10  1  0
 18 19  2  0
 18 27  1  0
 20 21  1  0
 21 22  2  0
 21 31  1  0
 22 23  1  0
 23 24  2  0
 24 25  1  0
 26 25  1  1
 26 28  1  0
 27 26  1  0
 28 29  2  0
 28 32  1  0
 30 24  1  0
 31 30  2  0
M  END
$$$$
