RNY.pdb
     RDKit          3D

 32 32  0  0  1  0  0  0  0  0999 V2000
    8.0985  -12.0278   18.1831 N   0  0  0  0  0  0  0  0  0  0  0  0
    7.7782  -13.1998   17.4585 C   0  0  0  0  0  0  0  0  0  0  0  0
    8.0297  -13.3035   16.1822 N   0  0  0  0  0  0  0  0  0  0  0  0
    7.1734  -14.2867   18.1347 N   0  0  0  0  0  0  0  0  0  0  0  0
    7.4005  -14.6016   19.5145 C   0  0  0  0  0  0  0  0  0  0  0  0
    6.6281  -15.7930   19.9484 C   0  0  0  0  0  0  0  0  0  0  0  0
    6.8368  -16.1517   21.3716 C   0  0  0  0  0  0  0  0  0  0  0  0
    8.3225  -16.0183   21.7523 C   0  0  2  0  0  0  0  0  0  0  0  0
    9.1799  -16.8005   20.9086 N   0  0  0  0  0  0  0  0  0  0  0  0
    8.4279  -16.4785   23.1512 C   0  0  0  0  0  0  0  0  0  0  0  0
    7.6734  -15.9615   24.0433 O   0  0  0  0  0  0  0  0  0  0  0  0
    7.8213  -14.1652   15.6430 N   0  0  0  0  0  0  0  0  0  0  0  0
    9.1513  -20.0449   23.2805 C   0  0  0  0  0  0  0  0  0  0  0  0
   10.3494  -19.9928   24.0284 O   0  0  0  0  0  0  0  0  0  0  0  0
   11.1837  -20.9189   23.8897 C   0  0  0  0  0  0  0  0  0  0  0  0
   10.6227  -18.8808   24.9518 C   0  0  2  0  0  0  0  0  0  0  0  0
    9.5302  -17.7988   24.9393 N   0  0  0  0  0  0  0  0  0  0  0  0
    9.3544  -17.4844   23.5021 C   0  0  0  0  0  0  0  0  0  0  0  0
   10.0467  -16.6097   25.6210 O   0  0  0  0  0  0  0  0  0  0  0  0
    9.7122  -15.4708   25.1584 O   0  0  0  0  0  0  0  0  0  0  0  0
    6.8959  -11.2845   25.6224 C   0  0  0  0  0  0  0  0  0  0  0  0
    7.3865  -12.4436   26.2146 C   0  0  0  0  0  0  0  0  0  0  0  0
    6.8160  -13.6786   25.9802 C   0  0  0  0  0  0  0  0  0  0  0  0
    7.2961  -14.8420   26.5637 C   0  0  0  0  0  0  0  0  0  0  0  0
    8.3913  -14.8040   27.4233 C   0  0  0  0  0  0  0  0  0  0  0  0
    8.9056  -16.0281   28.0734 C   0  0  2  0  0  0  0  0  0  0  0  0
   10.4232  -15.9884   28.0212 N   0  0  0  0  0  0  0  0  0  0  0  0
   10.8904  -16.5806   26.7629 C   0  0  0  0  0  0  0  0  0  0  0  0
   11.0138  -16.6406   29.1983 O   0  0  0  0  0  0  0  0  0  0  0  0
   11.4562  -17.8388   29.1285 C   0  0  0  0  0  0  0  0  0  0  0  0
    8.9560  -13.5720   27.6547 C   0  0  0  0  0  0  0  0  0  0  0  0
    8.4741  -12.4136   27.0698 O   0  0  0  0  0  0  0  0  0  0  0  0
  2  1  1  0
  3  2  2  0
  4  2  1  0
  5  4  1  0
  6  5  1  0
  7  6  1  0
  8 10  1  0
  8  9  1  6
  8  7  1  0
 10 11  2  0
 12 13  1  0
 13 14  2  0
 15 13  1  0
 16 15  1  6
 16 18  1  0
 17 16  1  0
 17 10  1  0
 18 19  2  0
 18 27  1  0
 20 21  1  0
 21 22  2  0
 21 31  1  0
 22 23  1  0
 23 24  2  0
 24 25  1  0
 26 25  1  6
 26 28  1  0
 27 26  1  0
 28 29  2  0
 28 32  1  0
 30 24  1  0
 31 30  2  0
M  END
$$$$
