RNY.pdb
     RDKit          3D

 32 32  0  0  1  0  0  0  0  0999 V2000
    8.9420  -12.9597   17.1163 N   0  0  0  0  0  0  0  0  0  0  0  0
    7.8209  -13.7979   16.9116 C   0  0  0  0  0  0  0  0  0  0  0  0
    6.7520  -13.3705   16.2969 N   0  0  0  0  0  0  0  0  0  0  0  0
    7.8609  -15.1327   17.3821 N   0  0  0  0  0  0  0  0  0  0  0  0
    7.9556  -15.4947   18.7657 C   0  0  0  0  0  0  0  0  0  0  0  0
    6.9736  -14.7598   19.6023 C   0  0  0  0  0  0  0  0  0  0  0  0
    6.8981  -15.2489   20.9998 C   0  0  0  0  0  0  0  0  0  0  0  0
    8.0024  -14.6073   21.8593 C   0  0  2  0  0  0  0  0  0  0  0  0
    9.1092  -14.1393   21.0749 N   0  0  0  0  0  0  0  0  0  0  0  0
    8.4507  -15.6562   22.7967 C   0  0  0  0  0  0  0  0  0  0  0  0
    7.5833  -16.3427   23.4360 O   0  0  0  0  0  0  0  0  0  0  0  0
    5.9444  -13.9887   16.0918 N   0  0  0  0  0  0  0  0  0  0  0  0
   12.2074  -17.5489   20.8795 C   0  0  0  0  0  0  0  0  0  0  0  0
   11.6124  -18.1219   22.0262 O   0  0  0  0  0  0  0  0  0  0  0  0
   11.0678  -19.2467   21.9208 C   0  0  0  0  0  0  0  0  0  0  0  0
   11.6261  -17.4232   23.3207 C   0  0  2  0  0  0  0  0  0  0  0  0
   10.2215  -17.0555   23.8270 N   0  0  0  0  0  0  0  0  0  0  0  0
    9.8282  -15.9015   22.9850 C   0  0  0  0  0  0  0  0  0  0  0  0
   10.3318  -16.6073   25.2172 O   0  0  0  0  0  0  0  0  0  0  0  0
   11.1885  -15.7018   25.4803 O   0  0  0  0  0  0  0  0  0  0  0  0
    6.9238  -11.3878   25.5347 C   0  0  0  0  0  0  0  0  0  0  0  0
    7.3242  -12.5310   26.2185 C   0  0  0  0  0  0  0  0  0  0  0  0
    8.4993  -12.5727   26.9417 C   0  0  0  0  0  0  0  0  0  0  0  0
    8.9095  -13.7060   27.6287 C   0  0  0  0  0  0  0  0  0  0  0  0
    8.1354  -14.8638   27.6123 C   0  0  0  0  0  0  0  0  0  0  0  0
    8.5642  -16.0896   28.3187 C   0  0  2  0  0  0  0  0  0  0  0  0
    9.8526  -16.5771   27.6785 N   0  0  0  0  0  0  0  0  0  0  0  0
    9.5759  -17.0725   26.3256 C   0  0  0  0  0  0  0  0  0  0  0  0
   10.5159  -17.5852   28.5173 O   0  0  0  0  0  0  0  0  0  0  0  0
   10.6879  -18.7791   28.0916 C   0  0  0  0  0  0  0  0  0  0  0  0
    6.9664  -14.8182   26.8902 C   0  0  0  0  0  0  0  0  0  0  0  0
    6.5605  -13.6850   26.2066 O   0  0  0  0  0  0  0  0  0  0  0  0
  2  1  1  0
  3  2  2  0
  4  2  1  0
  5  4  1  0
  6  5  1  0
  7  6  1  0
  8 10  1  0
  8  9  1  6
  8  7  1  0
 10 11  2  0
 12 13  1  0
 13 14  2  0
 15 13  1  0
 16 15  1  6
 16 18  1  0
 17 16  1  0
 17 10  1  0
 18 19  2  0
 18 27  1  0
 20 21  1  0
 21 22  2  0
 21 31  1  0
 22 23  1  0
 23 24  2  0
 24 25  1  0
 26 25  1  6
 26 28  1  0
 27 26  1  0
 28 29  2  0
 28 32  1  0
 30 24  1  0
 31 30  2  0
M  END
$$$$
