RNY.pdb
     RDKit          3D

 32 32  0  0  1  0  0  0  0  0999 V2000
    9.1438  -14.4827   16.4809 N   0  0  0  0  0  0  0  0  0  0  0  0
    8.4748  -13.6786   17.4334 C   0  0  0  0  0  0  0  0  0  0  0  0
    8.8625  -12.4593   17.6904 N   0  0  0  0  0  0  0  0  0  0  0  0
    7.3566  -14.2082   18.1217 N   0  0  0  0  0  0  0  0  0  0  0  0
    7.4292  -15.2868   19.0630 C   0  0  0  0  0  0  0  0  0  0  0  0
    7.4183  -16.6120   18.3936 C   0  0  0  0  0  0  0  0  0  0  0  0
    8.2509  -17.6307   19.0768 C   0  0  0  0  0  0  0  0  0  0  0  0
    7.9638  -17.6402   20.5893 C   0  0  2  0  0  0  0  0  0  0  0  0
    7.0177  -16.6334   20.9769 N   0  0  0  0  0  0  0  0  0  0  0  0
    9.2613  -17.4012   21.2521 C   0  0  0  0  0  0  0  0  0  0  0  0
   10.1921  -18.2701   21.1471 O   0  0  0  0  0  0  0  0  0  0  0  0
    8.3571  -11.8440   18.3558 N   0  0  0  0  0  0  0  0  0  0  0  0
   11.4083  -13.3027   20.2847 C   0  0  0  0  0  0  0  0  0  0  0  0
   11.7186  -14.4515   21.0472 O   0  0  0  0  0  0  0  0  0  0  0  0
   12.4582  -15.3272   20.5382 C   0  0  0  0  0  0  0  0  0  0  0  0
   11.1916  -14.6264   22.4094 C   0  0  2  0  0  0  0  0  0  0  0  0
   10.7619  -16.0713   22.7132 N   0  0  0  0  0  0  0  0  0  0  0  0
    9.4741  -16.2201   21.9957 C   0  0  0  0  0  0  0  0  0  0  0  0
   10.5147  -16.1891   24.1522 O   0  0  0  0  0  0  0  0  0  0  0  0
   11.4185  -15.7657   24.9440 O   0  0  0  0  0  0  0  0  0  0  0  0
    6.5372  -11.1326   25.9667 C   0  0  0  0  0  0  0  0  0  0  0  0
    6.8590  -12.4734   26.1497 C   0  0  0  0  0  0  0  0  0  0  0  0
    8.1218  -12.8725   26.5392 C   0  0  0  0  0  0  0  0  0  0  0  0
    8.4553  -14.2061   26.7260 C   0  0  0  0  0  0  0  0  0  0  0  0
    7.5097  -15.2083   26.5229 C   0  0  0  0  0  0  0  0  0  0  0  0
    7.8495  -16.6368   26.6945 C   0  0  2  0  0  0  0  0  0  0  0  0
    9.2844  -16.8388   26.2385 N   0  0  0  0  0  0  0  0  0  0  0  0
    9.3593  -16.7279   24.7775 C   0  0  0  0  0  0  0  0  0  0  0  0
    9.8249  -18.1139   26.7300 O   0  0  0  0  0  0  0  0  0  0  0  0
   10.1006  -19.0633   25.9183 C   0  0  0  0  0  0  0  0  0  0  0  0
    6.2536  -14.8066   26.1342 C   0  0  0  0  0  0  0  0  0  0  0  0
    5.9249  -13.4747   25.9496 O   0  0  0  0  0  0  0  0  0  0  0  0
  2  1  1  0
  3  2  2  0
  4  2  1  0
  5  4  1  0
  6  5  1  0
  7  6  1  0
  8 10  1  0
  8  9  1  6
  8  7  1  0
 10 11  2  0
 12 13  1  0
 13 14  2  0
 15 13  1  0
 16 15  1  6
 16 18  1  0
 17 16  1  0
 17 10  1  0
 18 19  2  0
 18 27  1  0
 20 21  1  0
 21 22  2  0
 21 31  1  0
 22 23  1  0
 23 24  2  0
 24 25  1  0
 26 25  1  1
 26 28  1  0
 27 26  1  0
 28 29  2  0
 28 32  1  0
 30 24  1  0
 31 30  2  0
M  END
$$$$
