RNY.pdb
     RDKit          3D

 32 32  0  0  1  0  0  0  0  0999 V2000
    7.9593  -15.1245   14.2118 N   0  0  0  0  0  0  0  0  0  0  0  0
    9.1076  -15.8141   13.7566 C   0  0  0  0  0  0  0  0  0  0  0  0
    9.3120  -16.0363   12.4870 N   0  0  0  0  0  0  0  0  0  0  0  0
   10.0587  -16.2712   14.7005 N   0  0  0  0  0  0  0  0  0  0  0  0
    9.8894  -16.1799   16.1209 C   0  0  0  0  0  0  0  0  0  0  0  0
    8.9199  -17.1816   16.6318 C   0  0  0  0  0  0  0  0  0  0  0  0
    9.4722  -18.0574   17.6928 C   0  0  0  0  0  0  0  0  0  0  0  0
    8.4210  -19.0853   18.1493 C   0  0  2  0  0  0  0  0  0  0  0  0
    7.4223  -19.3334   17.1493 N   0  0  0  0  0  0  0  0  0  0  0  0
    7.7972  -18.5194   19.3619 C   0  0  0  0  0  0  0  0  0  0  0  0
    6.8982  -17.6189   19.2465 O   0  0  0  0  0  0  0  0  0  0  0  0
   10.1944  -16.4493   12.1301 N   0  0  0  0  0  0  0  0  0  0  0  0
    7.1805  -20.0577   25.2103 C   0  0  0  0  0  0  0  0  0  0  0  0
    6.6979  -19.4650   24.0216 O   0  0  0  0  0  0  0  0  0  0  0  0
    5.7122  -18.6929   24.0938 C   0  0  0  0  0  0  0  0  0  0  0  0
    7.3307  -19.7400   22.7224 C   0  0  2  0  0  0  0  0  0  0  0  0
    7.4122  -18.5028   21.8128 N   0  0  0  0  0  0  0  0  0  0  0  0
    8.1891  -18.9705   20.6411 C   0  0  0  0  0  0  0  0  0  0  0  0
    8.1831  -17.4676   22.5053 O   0  0  0  0  0  0  0  0  0  0  0  0
    9.4473  -17.6132   22.5664 O   0  0  0  0  0  0  0  0  0  0  0  0
    7.9359  -13.0469   17.9306 C   0  0  0  0  0  0  0  0  0  0  0  0
    7.9753  -13.2569   19.3052 C   0  0  0  0  0  0  0  0  0  0  0  0
    9.1373  -13.0967   20.0331 C   0  0  0  0  0  0  0  0  0  0  0  0
    9.1898  -13.3020   21.4041 C   0  0  0  0  0  0  0  0  0  0  0  0
    8.0502  -13.6845   22.1076 C   0  0  0  0  0  0  0  0  0  0  0  0
    8.0885  -13.9302   23.5649 C   0  0  2  0  0  0  0  0  0  0  0  0
    8.5761  -15.3510   23.7914 N   0  0  0  0  0  0  0  0  0  0  0  0
    7.6733  -16.2958   23.1246 C   0  0  0  0  0  0  0  0  0  0  0  0
    8.7275  -15.6400   25.2243 O   0  0  0  0  0  0  0  0  0  0  0  0
    9.5401  -14.9644   25.9451 C   0  0  0  0  0  0  0  0  0  0  0  0
    6.8954  -13.8436   21.3788 C   0  0  0  0  0  0  0  0  0  0  0  0
    6.8473  -13.6372   20.0108 O   0  0  0  0  0  0  0  0  0  0  0  0
  2  1  1  0
  3  2  2  0
  4  2  1  0
  5  4  1  0
  6  5  1  0
  7  6  1  0
  8 10  1  0
  8  9  1  6
  8  7  1  0
 10 11  2  0
 12 13  1  0
 13 14  2  0
 15 13  1  0
 16 15  1  6
 16 18  1  0
 17 16  1  0
 17 10  1  0
 18 19  2  0
 18 27  1  0
 20 21  1  0
 21 22  2  0
 21 31  1  0
 22 23  1  0
 23 24  2  0
 24 25  1  0
 26 25  1  6
 26 28  1  0
 27 26  1  0
 28 29  2  0
 28 32  1  0
 30 24  1  0
 31 30  2  0
M  END
$$$$
