RNY.pdb
     RDKit          3D

 32 32  0  0  1  0  0  0  0  0999 V2000
    8.2212  -12.0044   19.2696 N   0  0  0  0  0  0  0  0  0  0  0  0
    8.2264  -13.2007   18.5147 C   0  0  0  0  0  0  0  0  0  0  0  0
    8.7885  -13.2635   17.3386 N   0  0  0  0  0  0  0  0  0  0  0  0
    7.6099  -14.3578   19.0491 N   0  0  0  0  0  0  0  0  0  0  0  0
    7.1383  -14.4669   20.3983 C   0  0  0  0  0  0  0  0  0  0  0  0
    8.2129  -14.8900   21.3315 C   0  0  0  0  0  0  0  0  0  0  0  0
    7.8032  -15.9701   22.2606 C   0  0  0  0  0  0  0  0  0  0  0  0
    8.7822  -17.1555   22.1795 C   0  0  2  0  0  0  0  0  0  0  0  0
    8.2173  -18.2917   21.5094 N   0  0  0  0  0  0  0  0  0  0  0  0
    9.1183  -17.5029   23.5745 C   0  0  0  0  0  0  0  0  0  0  0  0
    8.1826  -17.7931   24.3947 O   0  0  0  0  0  0  0  0  0  0  0  0
    8.7849  -14.1291   16.7665 N   0  0  0  0  0  0  0  0  0  0  0  0
   11.7516  -19.5377   27.5084 C   0  0  0  0  0  0  0  0  0  0  0  0
   12.6531  -19.2281   26.4649 O   0  0  0  0  0  0  0  0  0  0  0  0
   13.8276  -19.6617   26.5389 C   0  0  0  0  0  0  0  0  0  0  0  0
   12.2336  -18.4164   25.3121 C   0  0  2  0  0  0  0  0  0  0  0  0
   10.7560  -17.9947   25.3721 N   0  0  0  0  0  0  0  0  0  0  0  0
   10.4643  -17.5166   24.0004 C   0  0  0  0  0  0  0  0  0  0  0  0
   10.6323  -16.8675   26.2993 O   0  0  0  0  0  0  0  0  0  0  0  0
   11.2219  -15.7810   25.9912 O   0  0  0  0  0  0  0  0  0  0  0  0
    6.7603  -12.7814   24.1658 C   0  0  0  0  0  0  0  0  0  0  0  0
    7.2809  -13.3446   25.3263 C   0  0  0  0  0  0  0  0  0  0  0  0
    8.2727  -12.7213   26.0566 C   0  0  0  0  0  0  0  0  0  0  0  0
    8.7996  -13.2718   27.2159 C   0  0  0  0  0  0  0  0  0  0  0  0
    8.3377  -14.4963   27.6925 C   0  0  0  0  0  0  0  0  0  0  0  0
    8.9005  -15.1118   28.9131 C   0  0  2  0  0  0  0  0  0  0  0  0
   10.1906  -15.8183   28.5337 N   0  0  0  0  0  0  0  0  0  0  0  0
    9.9133  -16.8455   27.5236 C   0  0  0  0  0  0  0  0  0  0  0  0
   10.8650  -16.3679   29.7182 O   0  0  0  0  0  0  0  0  0  0  0  0
   11.0338  -17.6292   29.8479 C   0  0  0  0  0  0  0  0  0  0  0  0
    7.3506  -15.1140   26.9618 C   0  0  0  0  0  0  0  0  0  0  0  0
    6.8271  -14.5609   25.8058 O   0  0  0  0  0  0  0  0  0  0  0  0
  2  1  1  0
  3  2  2  0
  4  2  1  0
  5  4  1  0
  6  5  1  0
  7  6  1  0
  8 10  1  0
  8  9  1  1
  8  7  1  0
 10 11  2  0
 12 13  1  0
 13 14  2  0
 15 13  1  0
 16 15  1  6
 16 18  1  0
 17 16  1  0
 17 10  1  0
 18 19  2  0
 18 27  1  0
 20 21  1  0
 21 22  2  0
 21 31  1  0
 22 23  1  0
 23 24  2  0
 24 25  1  0
 26 25  1  6
 26 28  1  0
 27 26  1  0
 28 29  2  0
 28 32  1  0
 30 24  1  0
 31 30  2  0
M  END
$$$$
