RNY.pdb
     RDKit          3D

 32 32  0  0  1  0  0  0  0  0999 V2000
    9.0605  -12.7853   16.2852 N   0  0  0  0  0  0  0  0  0  0  0  0
    8.1989  -13.9061   16.3382 C   0  0  0  0  0  0  0  0  0  0  0  0
    8.2136  -14.8231   15.4099 N   0  0  0  0  0  0  0  0  0  0  0  0
    7.3019  -14.0373   17.4257 N   0  0  0  0  0  0  0  0  0  0  0  0
    7.2686  -13.1510   18.5517 C   0  0  0  0  0  0  0  0  0  0  0  0
    8.1827  -13.5923   19.6352 C   0  0  0  0  0  0  0  0  0  0  0  0
    7.5046  -14.3491   20.7147 C   0  0  0  0  0  0  0  0  0  0  0  0
    8.4928  -14.6809   21.8476 C   0  0  2  0  0  0  0  0  0  0  0  0
    9.6038  -15.4691   21.3964 N   0  0  0  0  0  0  0  0  0  0  0  0
    7.7178  -15.4264   22.8593 C   0  0  0  0  0  0  0  0  0  0  0  0
    6.6373  -14.9246   23.3210 O   0  0  0  0  0  0  0  0  0  0  0  0
    7.5345  -15.6074   15.3926 N   0  0  0  0  0  0  0  0  0  0  0  0
    6.3911  -19.1282   26.3337 C   0  0  0  0  0  0  0  0  0  0  0  0
    7.2738  -19.6664   25.3701 O   0  0  0  0  0  0  0  0  0  0  0  0
    7.5334  -20.8926   25.4133 C   0  0  0  0  0  0  0  0  0  0  0  0
    7.8801  -18.8162   24.3340 C   0  0  1  0  0  0  0  0  0  0  0  0
    7.3847  -17.3611   24.3763 N   0  0  0  0  0  0  0  0  0  0  0  0
    8.1653  -16.6861   23.3132 C   0  0  0  0  0  0  0  0  0  0  0  0
    7.7540  -16.7824   25.6702 O   0  0  0  0  0  0  0  0  0  0  0  0
    7.0232  -15.8452   26.1291 O   0  0  0  0  0  0  0  0  0  0  0  0
    6.7960  -11.0486   24.7650 C   0  0  0  0  0  0  0  0  0  0  0  0
    7.2216  -12.0925   25.5800 C   0  0  0  0  0  0  0  0  0  0  0  0
    8.5609  -12.3606   25.7798 C   0  0  0  0  0  0  0  0  0  0  0  0
    8.9985  -13.3978   26.5907 C   0  0  0  0  0  0  0  0  0  0  0  0
    8.0843  -14.2208   27.2439 C   0  0  0  0  0  0  0  0  0  0  0  0
    8.5281  -15.3454   28.0947 C   0  0  2  0  0  0  0  0  0  0  0  0
    9.5447  -16.1577   27.3109 N   0  0  0  0  0  0  0  0  0  0  0  0
    8.8521  -17.1565   26.4893 C   0  0  0  0  0  0  0  0  0  0  0  0
   10.5435  -16.7637   28.2024 O   0  0  0  0  0  0  0  0  0  0  0  0
   10.6225  -18.0343   28.3277 C   0  0  0  0  0  0  0  0  0  0  0  0
    6.7515  -13.9509   27.0416 C   0  0  0  0  0  0  0  0  0  0  0  0
    6.3192  -12.9145   26.2320 O   0  0  0  0  0  0  0  0  0  0  0  0
  2  1  1  0
  3  2  2  0
  4  2  1  0
  5  4  1  0
  6  5  1  0
  7  6  1  0
  8 10  1  0
  8  9  1  6
  8  7  1  0
 10 11  2  0
 12 13  1  0
 13 14  2  0
 15 13  1  0
 16 15  1  6
 16 18  1  0
 17 16  1  0
 17 10  1  0
 18 19  2  0
 18 27  1  0
 20 21  1  0
 21 22  2  0
 21 31  1  0
 22 23  1  0
 23 24  2  0
 24 25  1  0
 26 25  1  6
 26 28  1  0
 27 26  1  0
 28 29  2  0
 28 32  1  0
 30 24  1  0
 31 30  2  0
M  END
$$$$
