RNY.pdb
     RDKit          3D

 32 32  0  0  1  0  0  0  0  0999 V2000
    7.6113  -13.4023   12.4796 N   0  0  0  0  0  0  0  0  0  0  0  0
    7.9387  -13.9365   13.7479 C   0  0  0  0  0  0  0  0  0  0  0  0
    8.1203  -15.2168   13.9233 N   0  0  0  0  0  0  0  0  0  0  0  0
    8.0755  -13.0610   14.8522 N   0  0  0  0  0  0  0  0  0  0  0  0
    8.3220  -13.4947   16.1960 C   0  0  0  0  0  0  0  0  0  0  0  0
    7.0918  -14.0068   16.8506 C   0  0  0  0  0  0  0  0  0  0  0  0
    7.0958  -13.8569   18.3255 C   0  0  0  0  0  0  0  0  0  0  0  0
    8.5365  -13.8698   18.8680 C   0  0  2  0  0  0  0  0  0  0  0  0
    9.5073  -14.1423   17.8470 N   0  0  0  0  0  0  0  0  0  0  0  0
    8.5741  -14.9248   19.9001 C   0  0  0  0  0  0  0  0  0  0  0  0
    7.6162  -15.0187   20.7404 O   0  0  0  0  0  0  0  0  0  0  0  0
    8.3293  -15.6262   14.8535 N   0  0  0  0  0  0  0  0  0  0  0  0
   10.4431  -20.4120   20.9261 C   0  0  0  0  0  0  0  0  0  0  0  0
   10.8074  -19.1027   21.3139 O   0  0  0  0  0  0  0  0  0  0  0  0
   11.3054  -18.9311   22.4521 C   0  0  0  0  0  0  0  0  0  0  0  0
   10.6119  -17.9587   20.4100 C   0  0  1  0  0  0  0  0  0  0  0  0
    9.5912  -16.9364   20.9367 N   0  0  0  0  0  0  0  0  0  0  0  0
    9.6595  -15.8258   19.9584 C   0  0  0  0  0  0  0  0  0  0  0  0
   10.0537  -16.4465   22.2373 O   0  0  0  0  0  0  0  0  0  0  0  0
   11.1092  -15.7334   22.2593 O   0  0  0  0  0  0  0  0  0  0  0  0
   11.2061  -13.9832   30.5962 C   0  0  0  0  0  0  0  0  0  0  0  0
   10.6557  -14.3644   29.3768 C   0  0  0  0  0  0  0  0  0  0  0  0
   10.4810  -13.4652   28.3441 C   0  0  0  0  0  0  0  0  0  0  0  0
    9.9343  -13.8326   27.1231 C   0  0  0  0  0  0  0  0  0  0  0  0
    9.5347  -15.1467   26.8922 C   0  0  0  0  0  0  0  0  0  0  0  0
    8.9294  -15.5552   25.6068 C   0  0  1  0  0  0  0  0  0  0  0  0
   10.0310  -16.1146   24.7229 N   0  0  0  0  0  0  0  0  0  0  0  0
    9.4465  -16.6765   23.5002 C   0  0  0  0  0  0  0  0  0  0  0  0
   10.8520  -17.0929   25.4499 O   0  0  0  0  0  0  0  0  0  0  0  0
   10.4670  -18.3066   25.5726 C   0  0  0  0  0  0  0  0  0  0  0  0
    9.7098  -16.0388   27.9235 C   0  0  0  0  0  0  0  0  0  0  0  0
   10.2562  -15.6681   29.1401 O   0  0  0  0  0  0  0  0  0  0  0  0
  2  1  1  0
  3  2  2  0
  4  2  1  0
  5  4  1  0
  6  5  1  0
  7  6  1  0
  8 10  1  0
  8  9  1  6
  8  7  1  0
 10 11  2  0
 12 13  1  0
 13 14  2  0
 15 13  1  0
 16 15  1  6
 16 18  1  0
 17 16  1  0
 17 10  1  0
 18 19  2  0
 18 27  1  0
 20 21  1  0
 21 22  2  0
 21 31  1  0
 22 23  1  0
 23 24  2  0
 24 25  1  0
 26 25  1  6
 26 28  1  0
 27 26  1  0
 28 29  2  0
 28 32  1  0
 30 24  1  0
 31 30  2  0
M  END
$$$$
