RNY.pdb
     RDKit          3D

 32 32  0  0  1  0  0  0  0  0999 V2000
    8.1695  -13.7456   15.3286 N   0  0  0  0  0  0  0  0  0  0  0  0
    8.2523  -13.6744   16.7390 C   0  0  0  0  0  0  0  0  0  0  0  0
    8.3937  -12.5343   17.3580 N   0  0  0  0  0  0  0  0  0  0  0  0
    8.1769  -14.8679   17.4969 N   0  0  0  0  0  0  0  0  0  0  0  0
    7.9502  -16.1657   16.9321 C   0  0  0  0  0  0  0  0  0  0  0  0
    7.8762  -17.2212   17.9736 C   0  0  0  0  0  0  0  0  0  0  0  0
    9.1319  -17.3864   18.7441 C   0  0  0  0  0  0  0  0  0  0  0  0
    8.8281  -17.8191   20.1900 C   0  0  2  0  0  0  0  0  0  0  0  0
    7.7227  -17.1025   20.7589 N   0  0  0  0  0  0  0  0  0  0  0  0
   10.0581  -17.5534   20.9621 C   0  0  0  0  0  0  0  0  0  0  0  0
   10.9603  -18.4547   21.0401 O   0  0  0  0  0  0  0  0  0  0  0  0
    8.5125  -12.4714   18.3868 N   0  0  0  0  0  0  0  0  0  0  0  0
   13.0999  -15.7139   19.9857 C   0  0  0  0  0  0  0  0  0  0  0  0
   12.3859  -14.6546   20.5904 O   0  0  0  0  0  0  0  0  0  0  0  0
   12.1118  -13.6447   19.8992 C   0  0  0  0  0  0  0  0  0  0  0  0
   11.9679  -14.7248   21.9991 C   0  0  2  0  0  0  0  0  0  0  0  0
   11.4666  -16.1178   22.4149 N   0  0  0  0  0  0  0  0  0  0  0  0
   10.2385  -16.3115   21.6090 C   0  0  0  0  0  0  0  0  0  0  0  0
   11.0973  -16.0743   23.8317 O   0  0  0  0  0  0  0  0  0  0  0  0
   11.9911  -15.7137   24.6649 O   0  0  0  0  0  0  0  0  0  0  0  0
    6.8378  -10.6966   25.6233 C   0  0  0  0  0  0  0  0  0  0  0  0
    7.1627  -12.0421   25.7609 C   0  0  0  0  0  0  0  0  0  0  0  0
    8.4490  -12.4552   26.0446 C   0  0  0  0  0  0  0  0  0  0  0  0
    8.7859  -13.7936   26.1852 C   0  0  0  0  0  0  0  0  0  0  0  0
    7.8198  -14.7865   26.0420 C   0  0  0  0  0  0  0  0  0  0  0  0
    8.1610  -16.2196   26.1655 C   0  0  2  0  0  0  0  0  0  0  0  0
    9.6374  -16.3825   25.8472 N   0  0  0  0  0  0  0  0  0  0  0  0
    9.8318  -16.3902   24.3931 C   0  0  0  0  0  0  0  0  0  0  0  0
   10.1919  -17.5816   26.4909 O   0  0  0  0  0  0  0  0  0  0  0  0
   10.4180  -18.6423   25.8126 C   0  0  0  0  0  0  0  0  0  0  0  0
    6.5403  -14.3709   25.7586 C   0  0  0  0  0  0  0  0  0  0  0  0
    6.2082  -13.0342   25.6197 O   0  0  0  0  0  0  0  0  0  0  0  0
  2  1  1  0
  3  2  2  0
  4  2  1  0
  5  4  1  0
  6  5  1  0
  7  6  1  0
  8 10  1  0
  8  9  1  1
  8  7  1  0
 10 11  2  0
 12 13  1  0
 13 14  2  0
 15 13  1  0
 16 15  1  6
 16 18  1  0
 17 16  1  0
 17 10  1  0
 18 19  2  0
 18 27  1  0
 20 21  1  0
 21 22  2  0
 21 31  1  0
 22 23  1  0
 23 24  2  0
 24 25  1  0
 26 25  1  1
 26 28  1  0
 27 26  1  0
 28 29  2  0
 28 32  1  0
 30 24  1  0
 31 30  2  0
M  END
$$$$
