RNY.pdb
     RDKit          3D

 32 32  0  0  1  0  0  0  0  0999 V2000
    6.8668  -13.9527   13.3584 N   0  0  0  0  0  0  0  0  0  0  0  0
    6.9961  -13.3467   14.6301 C   0  0  0  0  0  0  0  0  0  0  0  0
    6.9229  -12.0524   14.7803 N   0  0  0  0  0  0  0  0  0  0  0  0
    7.2066  -14.1639   15.7670 N   0  0  0  0  0  0  0  0  0  0  0  0
    8.0939  -15.2893   15.7947 C   0  0  0  0  0  0  0  0  0  0  0  0
    9.4376  -14.9265   16.3118 C   0  0  0  0  0  0  0  0  0  0  0  0
    9.3999  -14.1512   17.5748 C   0  0  0  0  0  0  0  0  0  0  0  0
   10.4336  -14.6966   18.5769 C   0  0  2  0  0  0  0  0  0  0  0  0
   11.1982  -15.7865   18.0416 N   0  0  0  0  0  0  0  0  0  0  0  0
    9.6632  -15.1453   19.7538 C   0  0  0  0  0  0  0  0  0  0  0  0
    8.7935  -14.3660   20.2722 O   0  0  0  0  0  0  0  0  0  0  0  0
    6.9600  -11.5982   15.7124 N   0  0  0  0  0  0  0  0  0  0  0  0
    7.4691  -18.1330   19.3832 C   0  0  0  0  0  0  0  0  0  0  0  0
    8.2918  -18.9603   20.1808 O   0  0  0  0  0  0  0  0  0  0  0  0
    8.3652  -20.1808   19.9018 C   0  0  0  0  0  0  0  0  0  0  0  0
    9.0504  -18.4122   21.3158 C   0  0  2  0  0  0  0  0  0  0  0  0
    8.9945  -16.8778   21.3990 N   0  0  0  0  0  0  0  0  0  0  0  0
    9.8835  -16.4273   20.3026 C   0  0  0  0  0  0  0  0  0  0  0  0
    9.5759  -16.4608   22.6771 O   0  0  0  0  0  0  0  0  0  0  0  0
   10.8453  -16.3842   22.7524 O   0  0  0  0  0  0  0  0  0  0  0  0
   11.3899  -14.6719   31.0942 C   0  0  0  0  0  0  0  0  0  0  0  0
   10.7299  -14.7970   29.8762 C   0  0  0  0  0  0  0  0  0  0  0  0
   10.7637  -13.7983   28.9238 C   0  0  0  0  0  0  0  0  0  0  0  0
   10.1106  -13.9110   27.7050 C   0  0  0  0  0  0  0  0  0  0  0  0
    9.3838  -15.0576   27.3938 C   0  0  0  0  0  0  0  0  0  0  0  0
    8.6619  -15.1896   26.1104 C   0  0  1  0  0  0  0  0  0  0  0  0
    9.5990  -15.8387   25.1064 N   0  0  0  0  0  0  0  0  0  0  0  0
    8.8728  -16.1218   23.8634 C   0  0  0  0  0  0  0  0  0  0  0  0
   10.2327  -17.0396   25.6685 O   0  0  0  0  0  0  0  0  0  0  0  0
    9.6180  -18.1615   25.6737 C   0  0  0  0  0  0  0  0  0  0  0  0
    9.3520  -16.0494   28.3453 C   0  0  0  0  0  0  0  0  0  0  0  0
   10.0056  -15.9331   29.5600 O   0  0  0  0  0  0  0  0  0  0  0  0
  2  1  1  0
  3  2  2  0
  4  2  1  0
  5  4  1  0
  6  5  1  0
  7  6  1  0
  8 10  1  0
  8  9  1  6
  8  7  1  0
 10 11  2  0
 12 13  1  0
 13 14  2  0
 15 13  1  0
 16 15  1  6
 16 18  1  0
 17 16  1  0
 17 10  1  0
 18 19  2  0
 18 27  1  0
 20 21  1  0
 21 22  2  0
 21 31  1  0
 22 23  1  0
 23 24  2  0
 24 25  1  0
 26 25  1  6
 26 28  1  0
 27 26  1  0
 28 29  2  0
 28 32  1  0
 30 24  1  0
 31 30  2  0
M  END
$$$$
