RNY.pdb
     RDKit          3D

 32 32  0  0  1  0  0  0  0  0999 V2000
    7.3069  -14.9736   17.6215 N   0  0  0  0  0  0  0  0  0  0  0  0
    7.9836  -13.7498   17.4074 C   0  0  0  0  0  0  0  0  0  0  0  0
    7.8804  -13.1008   16.2799 N   0  0  0  0  0  0  0  0  0  0  0  0
    8.7891  -13.2153   18.4418 N   0  0  0  0  0  0  0  0  0  0  0  0
    8.3055  -12.8933   19.7521 C   0  0  0  0  0  0  0  0  0  0  0  0
    7.1896  -13.7802   20.1675 C   0  0  0  0  0  0  0  0  0  0  0  0
    7.4808  -14.5720   21.3866 C   0  0  0  0  0  0  0  0  0  0  0  0
    8.4851  -15.6966   21.0757 C   0  0  2  0  0  0  0  0  0  0  0  0
    7.9829  -16.6329   20.1113 N   0  0  0  0  0  0  0  0  0  0  0  0
    8.7441  -16.3783   22.3595 C   0  0  0  0  0  0  0  0  0  0  0  0
    7.7799  -16.9432   22.9788 O   0  0  0  0  0  0  0  0  0  0  0  0
    8.3650  -12.1990   16.1115 N   0  0  0  0  0  0  0  0  0  0  0  0
   13.0571  -19.5643   24.9097 C   0  0  0  0  0  0  0  0  0  0  0  0
   11.7027  -19.1971   24.7420 O   0  0  0  0  0  0  0  0  0  0  0  0
   10.8527  -19.6604   25.5393 C   0  0  0  0  0  0  0  0  0  0  0  0
   11.2878  -18.2913   23.6597 C   0  0  2  0  0  0  0  0  0  0  0  0
   10.2803  -17.2226   24.1152 N   0  0  0  0  0  0  0  0  0  0  0  0
   10.0483  -16.4082   22.8994 C   0  0  0  0  0  0  0  0  0  0  0  0
   10.9217  -16.3821   25.1289 O   0  0  0  0  0  0  0  0  0  0  0  0
   12.1357  -16.6329   25.4231 O   0  0  0  0  0  0  0  0  0  0  0  0
    5.8805  -10.8571   25.5789 C   0  0  0  0  0  0  0  0  0  0  0  0
    6.5085  -12.0230   26.0046 C   0  0  0  0  0  0  0  0  0  0  0  0
    6.1568  -13.2623   25.5086 C   0  0  0  0  0  0  0  0  0  0  0  0
    6.7758  -14.4323   25.9240 C   0  0  0  0  0  0  0  0  0  0  0  0
    7.7932  -14.3968   26.8745 C   0  0  0  0  0  0  0  0  0  0  0  0
    8.4511  -15.6332   27.3479 C   0  0  2  0  0  0  0  0  0  0  0  0
    9.9539  -15.4388   27.2413 N   0  0  0  0  0  0  0  0  0  0  0  0
   10.3354  -15.2965   25.8318 C   0  0  0  0  0  0  0  0  0  0  0  0
   10.6805  -16.5277   27.9091 O   0  0  0  0  0  0  0  0  0  0  0  0
   10.6287  -16.6652   29.1798 C   0  0  0  0  0  0  0  0  0  0  0  0
    8.1399  -13.1608   27.3665 C   0  0  0  0  0  0  0  0  0  0  0  0
    7.5200  -11.9956   26.9487 O   0  0  0  0  0  0  0  0  0  0  0  0
  2  1  1  0
  3  2  2  0
  4  2  1  0
  5  4  1  0
  6  5  1  0
  7  6  1  0
  8 10  1  0
  8  9  1  6
  8  7  1  0
 10 11  2  0
 12 13  1  0
 13 14  2  0
 15 13  1  0
 16 15  1  6
 16 18  1  0
 17 16  1  0
 17 10  1  0
 18 19  2  0
 18 27  1  0
 20 21  1  0
 21 22  2  0
 21 31  1  0
 22 23  1  0
 23 24  2  0
 24 25  1  0
 26 25  1  1
 26 28  1  0
 27 26  1  0
 28 29  2  0
 28 32  1  0
 30 24  1  0
 31 30  2  0
M  END
$$$$
