MPI.pdb
     RDKit          3D

 24 24  0  0  1  0  0  0  0  0999 V2000
   29.1886  -18.6147  -12.6460 C   0  0  0  0  0  0  0  0  0  0  0  0
   29.7632  -20.2727  -12.2748 S   0  0  0  0  0  0  0  0  0  0  0  0
   28.7073  -21.5509  -12.9980 C   0  0  0  0  0  0  0  0  0  0  0  0
   27.5266  -20.9358  -13.7271 C   0  0  0  0  0  0  0  0  0  0  0  0
   26.7293  -22.0242  -14.4547 C   0  0  2  0  0  0  0  0  0  0  0  0
   27.5830  -22.5458  -15.4621 N   0  0  0  0  0  0  0  0  0  0  0  0
   25.4135  -21.5570  -14.8718 C   0  0  0  0  0  0  0  0  0  0  0  0
   25.2437  -21.4671  -16.1390 O   0  0  0  0  0  0  0  0  0  0  0  0
   24.3166  -21.1950  -14.0544 N   0  0  0  0  0  0  0  0  0  0  0  0
   24.2012  -21.1269  -12.6184 C   0  0  0  0  0  0  0  0  0  0  0  0
   22.7934  -21.5996  -12.3666 C   0  0  0  0  0  0  0  0  0  0  0  0
   22.0618  -21.4634  -13.6726 C   0  0  0  0  0  0  0  0  0  0  0  0
   23.0284  -20.7903  -14.5694 C   0  0  1  0  0  0  0  0  0  0  0  0
   22.9755  -19.2848  -14.5033 C   0  0  0  0  0  0  0  0  0  0  0  0
   22.7970  -18.7304  -13.3923 O   0  0  0  0  0  0  0  0  0  0  0  0
   26.9868  -16.7290  -15.0951 C   0  0  0  0  0  0  0  0  0  0  0  0
   25.5777  -17.1280  -14.8947 C   0  0  0  0  0  0  0  0  0  0  0  0
   24.5153  -16.5234  -15.6920 C   0  0  2  0  0  0  0  0  0  0  0  0
   24.5921  -14.9864  -15.6153 C   0  0  0  0  0  0  0  0  0  0  0  0
   23.1497  -17.0294  -15.6187 C   0  0  2  0  0  0  0  0  0  0  0  0
   23.1203  -18.4949  -15.6492 N   0  0  0  0  0  0  0  0  0  0  0  0
   22.0346  -16.4330  -16.3304 C   0  0  0  0  0  0  0  0  0  0  0  0
   21.2526  -15.6490  -15.7367 O   0  0  0  0  0  0  0  0  0  0  0  0
   21.7415  -16.6455  -17.6532 O   0  0  0  0  0  0  0  0  0  0  0  0
  1  2  1  0
  3  2  1  0
  4  3  1  0
  5  6  1  6
  5  4  1  0
  7  5  1  0
  8  7  2  0
  9 10  1  0
  9  7  1  0
 11 10  1  0
 12 11  1  0
 12 13  1  0
 13  9  1  0
 13 14  1  1
 14 15  2  0
 17 18  1  0
 17 16  1  0
 18 20  1  0
 18 19  1  1
 20 21  1  6
 21 14  1  0
 22 20  1  0
 23 22  2  0
 24 22  1  0
M  END
$$$$
