MPI.pdb
     RDKit          3D

 24 24  0  0  1  0  0  0  0  0999 V2000
   27.2582  -25.3319  -19.2556 C   0  0  0  0  0  0  0  0  0  0  0  0
   25.6240  -24.5930  -19.2662 S   0  0  0  0  0  0  0  0  0  0  0  0
   25.5747  -23.0058  -18.4002 C   0  0  0  0  0  0  0  0  0  0  0  0
   26.1987  -23.1166  -17.0209 C   0  0  0  0  0  0  0  0  0  0  0  0
   27.4869  -22.2882  -16.9553 C   0  0  2  0  0  0  0  0  0  0  0  0
   28.5502  -23.1664  -17.2928 N   0  0  0  0  0  0  0  0  0  0  0  0
   27.6034  -21.5496  -15.7046 C   0  0  0  0  0  0  0  0  0  0  0  0
   28.3991  -22.0630  -14.8408 O   0  0  0  0  0  0  0  0  0  0  0  0
   26.9504  -20.3497  -15.3358 N   0  0  0  0  0  0  0  0  0  0  0  0
   25.9470  -19.5787  -16.0278 C   0  0  0  0  0  0  0  0  0  0  0  0
   26.3247  -18.1573  -15.7028 C   0  0  0  0  0  0  0  0  0  0  0  0
   27.2171  -18.2226  -14.4951 C   0  0  0  0  0  0  0  0  0  0  0  0
   27.1958  -19.6482  -14.0963 C   0  0  1  0  0  0  0  0  0  0  0  0
   26.0722  -20.0015  -13.1548 C   0  0  0  0  0  0  0  0  0  0  0  0
   24.9806  -20.3954  -13.6309 O   0  0  0  0  0  0  0  0  0  0  0  0
   26.1391  -19.8141   -7.2115 C   0  0  0  0  0  0  0  0  0  0  0  0
   26.3886  -19.7303   -8.6661 C   0  0  0  0  0  0  0  0  0  0  0  0
   26.0114  -20.8307   -9.5476 C   0  0  2  0  0  0  0  0  0  0  0  0
   27.1717  -21.8355   -9.6820 C   0  0  0  0  0  0  0  0  0  0  0  0
   25.3328  -20.5723  -10.8121 C   0  0  2  0  0  0  0  0  0  0  0  0
   26.2191  -19.9000  -11.7670 N   0  0  0  0  0  0  0  0  0  0  0  0
   23.9594  -20.1131  -10.9054 C   0  0  0  0  0  0  0  0  0  0  0  0
   23.7079  -18.9503  -11.3094 O   0  0  0  0  0  0  0  0  0  0  0  0
   22.8559  -20.8630  -10.5882 O   0  0  0  0  0  0  0  0  0  0  0  0
  1  2  1  0
  3  2  1  0
  4  3  1  0
  5  6  1  1
  5  4  1  0
  7  5  1  0
  8  7  2  0
  9 10  1  0
  9  7  1  0
 11 10  1  0
 12 11  1  0
 12 13  1  0
 13  9  1  0
 13 14  1  1
 14 15  2  0
 17 18  1  0
 17 16  1  0
 18 20  1  0
 18 19  1  6
 20 21  1  1
 21 14  1  0
 22 20  1  0
 23 22  2  0
 24 22  1  0
M  END
$$$$
