MPI.pdb
     RDKit          3D

 24 24  0  0  1  0  0  0  0  0999 V2000
   20.2845  -17.0974  -13.8873 C   0  0  0  0  0  0  0  0  0  0  0  0
   19.4999  -17.7728  -15.3519 S   0  0  0  0  0  0  0  0  0  0  0  0
   19.7459  -19.5577  -15.5101 C   0  0  0  0  0  0  0  0  0  0  0  0
   20.5339  -20.1067  -14.3347 C   0  0  0  0  0  0  0  0  0  0  0  0
   20.6975  -21.6248  -14.4706 C   0  0  2  0  0  0  0  0  0  0  0  0
   19.4275  -22.1950  -14.1920 N   0  0  0  0  0  0  0  0  0  0  0  0
   21.8350  -22.1263  -13.7103 C   0  0  0  0  0  0  0  0  0  0  0  0
   21.5779  -22.4551  -12.4984 O   0  0  0  0  0  0  0  0  0  0  0  0
   23.1714  -22.2902  -14.1455 N   0  0  0  0  0  0  0  0  0  0  0  0
   23.7861  -21.9909  -15.4155 C   0  0  0  0  0  0  0  0  0  0  0  0
   24.7726  -23.1155  -15.5903 C   0  0  0  0  0  0  0  0  0  0  0  0
   24.9828  -23.7097  -14.2257 C   0  0  0  0  0  0  0  0  0  0  0  0
   24.2291  -22.8187  -13.3146 C   0  0  1  0  0  0  0  0  0  0  0  0
   25.0289  -21.6438  -12.8109 C   0  0  0  0  0  0  0  0  0  0  0  0
   24.9980  -20.5666  -13.4530 O   0  0  0  0  0  0  0  0  0  0  0  0
   27.7722  -20.0110   -7.7067 C   0  0  0  0  0  0  0  0  0  0  0  0
   27.0461  -20.8943   -8.6435 C   0  0  0  0  0  0  0  0  0  0  0  0
   26.2513  -20.3298   -9.7296 C   0  0  2  0  0  0  0  0  0  0  0  0
   24.7472  -20.4830   -9.4327 C   0  0  0  0  0  0  0  0  0  0  0  0
   26.5882  -20.6079  -11.1208 C   0  0  2  0  0  0  0  0  0  0  0  0
   25.8021  -21.7277  -11.6477 N   0  0  0  0  0  0  0  0  0  0  0  0
   27.9441  -20.5851  -11.6371 C   0  0  0  0  0  0  0  0  0  0  0  0
   28.4903  -21.6477  -12.0260 O   0  0  0  0  0  0  0  0  0  0  0  0
   28.7222  -19.4619  -11.7552 O   0  0  0  0  0  0  0  0  0  0  0  0
  1  2  1  0
  3  2  1  0
  4  3  1  0
  5  6  1  1
  5  4  1  0
  7  5  1  0
  8  7  2  0
  9 10  1  0
  9  7  1  0
 11 10  1  0
 12 11  1  0
 12 13  1  0
 13  9  1  0
 13 14  1  6
 14 15  2  0
 17 18  1  0
 17 16  1  0
 18 20  1  0
 18 19  1  1
 20 21  1  1
 21 14  1  0
 22 20  1  0
 23 22  2  0
 24 22  1  0
M  END
$$$$
