MPI.pdb
     RDKit          3D

 24 24  0  0  1  0  0  0  0  0999 V2000
   16.3526  -11.6235  -16.5981 C   0  0  0  0  0  0  0  0  0  0  0  0
   16.4004  -12.2966  -18.2599 S   0  0  0  0  0  0  0  0  0  0  0  0
   18.0599  -12.2545  -18.9780 C   0  0  0  0  0  0  0  0  0  0  0  0
   18.9862  -11.3722  -18.1609 C   0  0  0  0  0  0  0  0  0  0  0  0
   20.4105  -11.4365  -18.7240 C   0  0  2  0  0  0  0  0  0  0  0  0
   20.8118  -12.7966  -18.6549 N   0  0  0  0  0  0  0  0  0  0  0  0
   21.2901  -10.4496  -18.1109 C   0  0  0  0  0  0  0  0  0  0  0  0
   22.2199  -10.9325  -17.3726 O   0  0  0  0  0  0  0  0  0  0  0  0
   21.2392   -9.0407  -18.2319 N   0  0  0  0  0  0  0  0  0  0  0  0
   20.3347   -8.1965  -18.9731 C   0  0  0  0  0  0  0  0  0  0  0  0
   21.2273   -7.0855  -19.4606 C   0  0  0  0  0  0  0  0  0  0  0  0
   22.4561   -7.1199  -18.5956 C   0  0  0  0  0  0  0  0  0  0  0  0
   22.1561   -8.1424  -17.5678 C   0  0  1  0  0  0  0  0  0  0  0  0
   21.4454   -7.5976  -16.3546 C   0  0  0  0  0  0  0  0  0  0  0  0
   20.1918   -7.5515  -16.3534 O   0  0  0  0  0  0  0  0  0  0  0  0
   22.8850   -9.5938  -11.5266 C   0  0  0  0  0  0  0  0  0  0  0  0
   22.8381   -8.6057  -12.6251 C   0  0  0  0  0  0  0  0  0  0  0  0
   21.5623   -8.0609  -13.0784 C   0  0  2  0  0  0  0  0  0  0  0  0
   20.6345   -9.1922  -13.5616 C   0  0  0  0  0  0  0  0  0  0  0  0
   21.5188   -6.8832  -13.9370 C   0  0  2  0  0  0  0  0  0  0  0  0
   22.1501   -7.1436  -15.2343 N   0  0  0  0  0  0  0  0  0  0  0  0
   21.7585   -5.5340  -13.4595 C   0  0  0  0  0  0  0  0  0  0  0  0
   21.0651   -5.0621  -12.5240 O   0  0  0  0  0  0  0  0  0  0  0  0
   22.7193   -4.6858  -13.9477 O   0  0  0  0  0  0  0  0  0  0  0  0
  1  2  1  0
  3  2  1  0
  4  3  1  0
  5  6  1  1
  5  4  1  0
  7  5  1  0
  8  7  2  0
  9 10  1  0
  9  7  1  0
 11 10  1  0
 12 11  1  0
 12 13  1  0
 13  9  1  0
 13 14  1  1
 14 15  2  0
 17 18  1  0
 17 16  1  0
 18 20  1  0
 18 19  1  6
 20 21  1  6
 21 14  1  0
 22 20  1  0
 23 22  2  0
 24 22  1  0
M  END
$$$$
