MPI.pdb
     RDKit          3D

 24 24  0  0  1  0  0  0  0  0999 V2000
   32.1804  -22.9305  -10.1518 C   0  0  0  0  0  0  0  0  0  0  0  0
   32.5181  -22.8420  -11.9110 S   0  0  0  0  0  0  0  0  0  0  0  0
   31.1963  -22.0181  -12.8305 C   0  0  0  0  0  0  0  0  0  0  0  0
   30.3727  -21.1250  -11.9205 C   0  0  0  0  0  0  0  0  0  0  0  0
   29.2181  -20.4917  -12.7052 C   0  0  2  0  0  0  0  0  0  0  0  0
   29.8046  -19.5832  -13.6252 N   0  0  0  0  0  0  0  0  0  0  0  0
   28.1756  -19.9735  -11.8287 C   0  0  0  0  0  0  0  0  0  0  0  0
   28.3469  -18.7665  -11.4330 O   0  0  0  0  0  0  0  0  0  0  0  0
   27.0132  -20.6364  -11.3686 N   0  0  0  0  0  0  0  0  0  0  0  0
   26.5033  -21.9512  -11.6711 C   0  0  0  0  0  0  0  0  0  0  0  0
   25.0123  -21.7398  -11.7021 C   0  0  0  0  0  0  0  0  0  0  0  0
   24.7525  -20.4521  -10.9717 C   0  0  0  0  0  0  0  0  0  0  0  0
   26.0746  -20.0590  -10.4336 C   0  0  1  0  0  0  0  0  0  0  0  0
   26.3797  -20.6442   -9.0778 C   0  0  0  0  0  0  0  0  0  0  0  0
   26.7826  -21.8298   -9.0035 O   0  0  0  0  0  0  0  0  0  0  0  0
   29.4755  -18.1680   -5.6470 C   0  0  0  0  0  0  0  0  0  0  0  0
   28.6319  -19.1452   -6.3670 C   0  0  0  0  0  0  0  0  0  0  0  0
   27.3646  -19.5923   -5.7976 C   0  0  2  0  0  0  0  0  0  0  0  0
   27.5667  -20.0813   -4.3505 C   0  0  0  0  0  0  0  0  0  0  0  0
   26.4626  -20.4428   -6.5652 C   0  0  2  0  0  0  0  0  0  0  0  0
   26.2240  -19.8973   -7.9049 N   0  0  0  0  0  0  0  0  0  0  0  0
   25.2850  -21.0764   -6.0018 C   0  0  0  0  0  0  0  0  0  0  0  0
   25.4015  -21.9143   -5.0728 O   0  0  0  0  0  0  0  0  0  0  0  0
   23.9948  -20.8325   -6.3978 O   0  0  0  0  0  0  0  0  0  0  0  0
  1  2  1  0
  3  2  1  0
  4  3  1  0
  5  6  1  1
  5  4  1  0
  7  5  1  0
  8  7  2  0
  9 10  1  0
  9  7  1  0
 11 10  1  0
 12 11  1  0
 12 13  1  0
 13  9  1  0
 13 14  1  1
 14 15  2  0
 17 18  1  0
 17 16  1  0
 18 20  1  0
 18 19  1  1
 20 21  1  6
 21 14  1  0
 22 20  1  0
 23 22  2  0
 24 22  1  0
M  END
$$$$
