MPI.pdb
     RDKit          3D

 24 24  0  0  1  0  0  0  0  0999 V2000
   23.2383  -15.8300  -14.7625 C   0  0  0  0  0  0  0  0  0  0  0  0
   24.9785  -15.4369  -14.5773 S   0  0  0  0  0  0  0  0  0  0  0  0
   26.0561  -16.7368  -15.2257 C   0  0  0  0  0  0  0  0  0  0  0  0
   25.7496  -18.0744  -14.5769 C   0  0  0  0  0  0  0  0  0  0  0  0
   26.6385  -19.1694  -15.1776 C   0  0  2  0  0  0  0  0  0  0  0  0
   26.0728  -19.5046  -16.4359 N   0  0  0  0  0  0  0  0  0  0  0  0
   26.8765  -20.2605  -14.2414 C   0  0  0  0  0  0  0  0  0  0  0  0
   26.0851  -21.2618  -14.3592 O   0  0  0  0  0  0  0  0  0  0  0  0
   27.8639  -20.3438  -13.2313 N   0  0  0  0  0  0  0  0  0  0  0  0
   28.7164  -19.3254  -12.6688 C   0  0  0  0  0  0  0  0  0  0  0  0
   30.0114  -20.0572  -12.4320 C   0  0  0  0  0  0  0  0  0  0  0  0
   29.6763  -21.5225  -12.4388 C   0  0  0  0  0  0  0  0  0  0  0  0
   28.1994  -21.5636  -12.5326 C   0  0  1  0  0  0  0  0  0  0  0  0
   27.5018  -21.5177  -11.1966 C   0  0  0  0  0  0  0  0  0  0  0  0
   27.7656  -22.3972  -10.3419 O   0  0  0  0  0  0  0  0  0  0  0  0
   27.4077  -19.2524   -6.9744 C   0  0  0  0  0  0  0  0  0  0  0  0
   27.0230  -20.1858   -8.0542 C   0  0  0  0  0  0  0  0  0  0  0  0
   25.7046  -20.0996   -8.6741 C   0  0  2  0  0  0  0  0  0  0  0  0
   24.6018  -20.3899   -7.6379 C   0  0  0  0  0  0  0  0  0  0  0  0
   25.4482  -20.7217   -9.9677 C   0  0  2  0  0  0  0  0  0  0  0  0
   26.5701  -20.5199  -10.8898 N   0  0  0  0  0  0  0  0  0  0  0  0
   24.1609  -20.6800  -10.6362 C   0  0  0  0  0  0  0  0  0  0  0  0
   23.1313  -21.1002  -10.0514 O   0  0  0  0  0  0  0  0  0  0  0  0
   23.9468  -20.1961  -11.9014 O   0  0  0  0  0  0  0  0  0  0  0  0
  1  2  1  0
  3  2  1  0
  4  3  1  0
  5  6  1  6
  5  4  1  0
  7  5  1  0
  8  7  2  0
  9 10  1  0
  9  7  1  0
 11 10  1  0
 12 11  1  0
 12 13  1  0
 13  9  1  0
 13 14  1  1
 14 15  2  0
 17 18  1  0
 17 16  1  0
 18 20  1  0
 18 19  1  1
 20 21  1  6
 21 14  1  0
 22 20  1  0
 23 22  2  0
 24 22  1  0
M  END
$$$$
