MPI.pdb
     RDKit          3D

 24 24  0  0  1  0  0  0  0  0999 V2000
   20.6608  -21.1502  -12.6933 C   0  0  0  0  0  0  0  0  0  0  0  0
   21.6306  -19.8218  -13.4086 S   0  0  0  0  0  0  0  0  0  0  0  0
   23.4068  -20.0407  -13.1462 C   0  0  0  0  0  0  0  0  0  0  0  0
   23.7194  -21.4483  -12.6719 C   0  0  0  0  0  0  0  0  0  0  0  0
   25.0470  -21.9256  -13.2716 C   0  0  2  0  0  0  0  0  0  0  0  0
   24.7406  -23.0384  -14.0983 N   0  0  0  0  0  0  0  0  0  0  0  0
   26.0746  -22.1125  -12.2554 C   0  0  0  0  0  0  0  0  0  0  0  0
   25.9758  -23.1931  -11.5731 O   0  0  0  0  0  0  0  0  0  0  0  0
   27.1530  -21.2537  -11.9366 N   0  0  0  0  0  0  0  0  0  0  0  0
   27.5861  -20.0250  -12.5556 C   0  0  0  0  0  0  0  0  0  0  0  0
   29.0872  -20.1065  -12.4615 C   0  0  0  0  0  0  0  0  0  0  0  0
   29.3896  -21.1301  -11.4032 C   0  0  0  0  0  0  0  0  0  0  0  0
   28.0663  -21.4817  -10.8401 C   0  0  1  0  0  0  0  0  0  0  0  0
   27.6302  -20.5904   -9.7047 C   0  0  0  0  0  0  0  0  0  0  0  0
   26.5682  -19.9329   -9.8208 O   0  0  0  0  0  0  0  0  0  0  0  0
   29.4436  -20.8618   -3.6976 C   0  0  0  0  0  0  0  0  0  0  0  0
   28.4126  -20.7296   -4.7486 C   0  0  0  0  0  0  0  0  0  0  0  0
   28.7944  -20.6356   -6.1541 C   0  0  2  0  0  0  0  0  0  0  0  0
   29.9955  -19.6856   -6.3239 C   0  0  0  0  0  0  0  0  0  0  0  0
   27.7828  -20.4652   -7.1904 C   0  0  2  0  0  0  0  0  0  0  0  0
   28.3807  -20.4804   -8.5290 N   0  0  0  0  0  0  0  0  0  0  0  0
   26.6749  -19.5342   -7.0836 C   0  0  0  0  0  0  0  0  0  0  0  0
   25.6540  -19.8403   -6.4182 O   0  0  0  0  0  0  0  0  0  0  0  0
   26.6347  -18.2899   -7.6589 O   0  0  0  0  0  0  0  0  0  0  0  0
  1  2  1  0
  3  2  1  0
  4  3  1  0
  5  6  1  1
  5  4  1  0
  7  5  1  0
  8  7  2  0
  9 10  1  0
  9  7  1  0
 11 10  1  0
 12 11  1  0
 12 13  1  0
 13  9  1  0
 13 14  1  1
 14 15  2  0
 17 18  1  0
 17 16  1  0
 18 20  1  0
 18 19  1  1
 20 21  1  6
 21 14  1  0
 22 20  1  0
 23 22  2  0
 24 22  1  0
M  END
$$$$
