MPI.pdb
     RDKit          3D

 24 24  0  0  1  0  0  0  0  0999 V2000
   14.6032  -11.9096  -13.7174 C   0  0  0  0  0  0  0  0  0  0  0  0
   13.7080  -12.8408  -14.9618 S   0  0  0  0  0  0  0  0  0  0  0  0
   14.7222  -13.2138  -16.4122 C   0  0  0  0  0  0  0  0  0  0  0  0
   15.9692  -12.3489  -16.4436 C   0  0  0  0  0  0  0  0  0  0  0  0
   16.9005  -12.8049  -17.5726 C   0  0  2  0  0  0  0  0  0  0  0  0
   17.1725  -14.1792  -17.3425 N   0  0  0  0  0  0  0  0  0  0  0  0
   18.0443  -11.9168  -17.7353 C   0  0  0  0  0  0  0  0  0  0  0  0
   19.1868  -12.4535  -17.5126 O   0  0  0  0  0  0  0  0  0  0  0  0
   18.0429  -10.5507  -18.1043 N   0  0  0  0  0  0  0  0  0  0  0  0
   16.9451   -9.6533  -18.3687 C   0  0  0  0  0  0  0  0  0  0  0  0
   17.4650   -8.8017  -19.4971 C   0  0  0  0  0  0  0  0  0  0  0  0
   18.9602   -8.9557  -19.4888 C   0  0  0  0  0  0  0  0  0  0  0  0
   19.2420   -9.7635  -18.2805 C   0  0  1  0  0  0  0  0  0  0  0  0
   19.4247   -8.9441  -17.0280 C   0  0  0  0  0  0  0  0  0  0  0  0
   18.4446   -8.7741  -16.2637 O   0  0  0  0  0  0  0  0  0  0  0  0
   23.2631  -10.8230  -14.3455 C   0  0  0  0  0  0  0  0  0  0  0  0
   22.1167  -10.0648  -14.8896 C   0  0  0  0  0  0  0  0  0  0  0  0
   22.0487   -8.6146  -14.7400 C   0  0  2  0  0  0  0  0  0  0  0  0
   22.2963   -8.2119  -13.2735 C   0  0  0  0  0  0  0  0  0  0  0  0
   20.9759   -7.8512  -15.3666 C   0  0  2  0  0  0  0  0  0  0  0  0
   20.6583   -8.3709  -16.7002 N   0  0  0  0  0  0  0  0  0  0  0  0
   20.8702   -6.4060  -15.2901 C   0  0  0  0  0  0  0  0  0  0  0  0
   21.2959   -5.6905  -16.2311 O   0  0  0  0  0  0  0  0  0  0  0  0
   20.3172   -5.7119  -14.2445 O   0  0  0  0  0  0  0  0  0  0  0  0
  1  2  1  0
  3  2  1  0
  4  3  1  0
  5  6  1  1
  5  4  1  0
  7  5  1  0
  8  7  2  0
  9 10  1  0
  9  7  1  0
 11 10  1  0
 12 11  1  0
 12 13  1  0
 13  9  1  0
 13 14  1  1
 14 15  2  0
 17 18  1  0
 17 16  1  0
 18 20  1  0
 18 19  1  1
 20 21  1  6
 21 14  1  0
 22 20  1  0
 23 22  2  0
 24 22  1  0
M  END
$$$$
