MPI.pdb
     RDKit          3D

 24 24  0  0  1  0  0  0  0  0999 V2000
   12.9041  -12.7056    8.9518 C   0  0  0  0  0  0  0  0  0  0  0  0
   11.8986  -12.0058    7.6418 S   0  0  0  0  0  0  0  0  0  0  0  0
   12.5363  -12.3952    5.9946 C   0  0  0  0  0  0  0  0  0  0  0  0
   13.5092  -13.5592    6.0468 C   0  0  0  0  0  0  0  0  0  0  0  0
   13.9592  -13.9359    4.6307 C   0  0  2  0  0  0  0  0  0  0  0  0
   12.8567  -14.5850    4.0151 N   0  0  0  0  0  0  0  0  0  0  0  0
   15.2348  -14.6406    4.6275 C   0  0  0  0  0  0  0  0  0  0  0  0
   15.2227  -15.7863    4.0530 O   0  0  0  0  0  0  0  0  0  0  0  0
   16.4677  -14.2158    5.1767 N   0  0  0  0  0  0  0  0  0  0  0  0
   16.7878  -13.0584    5.9756 C   0  0  0  0  0  0  0  0  0  0  0  0
   18.1553  -12.6688    5.4790 C   0  0  0  0  0  0  0  0  0  0  0  0
   18.7096  -13.8760    4.7758 C   0  0  0  0  0  0  0  0  0  0  0  0
   17.7092  -14.9392    5.0223 C   0  0  1  0  0  0  0  0  0  0  0  0
   17.9383  -15.7081    6.2991 C   0  0  0  0  0  0  0  0  0  0  0  0
   17.4378  -15.2785    7.3661 O   0  0  0  0  0  0  0  0  0  0  0  0
   16.3441  -20.5098    6.3291 C   0  0  0  0  0  0  0  0  0  0  0  0
   16.9079  -19.1786    6.6372 C   0  0  0  0  0  0  0  0  0  0  0  0
   18.2185  -19.0562    7.2675 C   0  0  2  0  0  0  0  0  0  0  0  0
   18.3179  -19.9890    8.4898 C   0  0  0  0  0  0  0  0  0  0  0  0
   18.8121  -17.7452    7.5022 C   0  0  2  0  0  0  0  0  0  0  0  0
   18.6939  -16.8855    6.3205 N   0  0  0  0  0  0  0  0  0  0  0  0
   20.0600  -17.5464    8.2155 C   0  0  0  0  0  0  0  0  0  0  0  0
   21.1574  -17.7417    7.6357 O   0  0  0  0  0  0  0  0  0  0  0  0
   20.1637  -17.1388    9.5209 O   0  0  0  0  0  0  0  0  0  0  0  0
  1  2  1  0
  3  2  1  0
  4  3  1  0
  5  6  1  1
  5  4  1  0
  7  5  1  0
  8  7  2  0
  9 10  1  0
  9  7  1  0
 11 10  1  0
 12 11  1  0
 12 13  1  0
 13  9  1  0
 13 14  1  1
 14 15  2  0
 17 18  1  0
 17 16  1  0
 18 20  1  0
 18 19  1  1
 20 21  1  6
 21 14  1  0
 22 20  1  0
 23 22  2  0
 24 22  1  0
M  END
$$$$
