MPI.pdb
     RDKit          3D

 24 24  0  0  1  0  0  0  0  0999 V2000
   21.6423  -17.0885  -12.6591 C   0  0  0  0  0  0  0  0  0  0  0  0
   22.3386  -17.6194  -14.2244 S   0  0  0  0  0  0  0  0  0  0  0  0
   23.0283  -19.2896  -14.1460 C   0  0  0  0  0  0  0  0  0  0  0  0
   23.4314  -19.6479  -12.7271 C   0  0  0  0  0  0  0  0  0  0  0  0
   23.8509  -21.1204  -12.6526 C   0  0  2  0  0  0  0  0  0  0  0  0
   22.6601  -21.8862  -12.7593 N   0  0  0  0  0  0  0  0  0  0  0  0
   24.7166  -21.3892  -11.5116 C   0  0  0  0  0  0  0  0  0  0  0  0
   24.1460  -21.9641  -10.5183 O   0  0  0  0  0  0  0  0  0  0  0  0
   26.0934  -21.0939  -11.3723 N   0  0  0  0  0  0  0  0  0  0  0  0
   26.9531  -20.2437  -12.1588 C   0  0  0  0  0  0  0  0  0  0  0  0
   28.2606  -20.9914  -12.1632 C   0  0  0  0  0  0  0  0  0  0  0  0
   28.1964  -21.9624  -11.0177 C   0  0  0  0  0  0  0  0  0  0  0  0
   26.9301  -21.6333  -10.3247 C   0  0  1  0  0  0  0  0  0  0  0  0
   27.0712  -20.5629   -9.2721 C   0  0  0  0  0  0  0  0  0  0  0  0
   26.7890  -19.3771   -9.5685 O   0  0  0  0  0  0  0  0  0  0  0  0
   26.5296  -22.0027   -3.8834 C   0  0  0  0  0  0  0  0  0  0  0  0
   26.4714  -21.2291   -5.1417 C   0  0  0  0  0  0  0  0  0  0  0  0
   27.6290  -20.4658   -5.5969 C   0  0  2  0  0  0  0  0  0  0  0  0
   28.1163  -19.5131   -4.4883 C   0  0  0  0  0  0  0  0  0  0  0  0
   27.6434  -19.8537   -6.9204 C   0  0  2  0  0  0  0  0  0  0  0  0
   27.5085  -20.8612   -7.9769 N   0  0  0  0  0  0  0  0  0  0  0  0
   28.5330  -18.7694   -7.2923 C   0  0  0  0  0  0  0  0  0  0  0  0
   28.2925  -17.5961   -6.9125 O   0  0  0  0  0  0  0  0  0  0  0  0
   29.6694  -18.9079   -8.0475 O   0  0  0  0  0  0  0  0  0  0  0  0
  1  2  1  0
  3  2  1  0
  4  3  1  0
  5  6  1  1
  5  4  1  0
  7  5  1  0
  8  7  2  0
  9 10  1  0
  9  7  1  0
 11 10  1  0
 12 11  1  0
 12 13  1  0
 13  9  1  0
 13 14  1  1
 14 15  2  0
 17 18  1  0
 17 16  1  0
 18 20  1  0
 18 19  1  1
 20 21  1  6
 21 14  1  0
 22 20  1  0
 23 22  2  0
 24 22  1  0
M  END
$$$$
