MPI.pdb
     RDKit          3D

 24 24  0  0  1  0  0  0  0  0999 V2000
   22.3001  -18.6858  -13.7040 C   0  0  0  0  0  0  0  0  0  0  0  0
   23.8683  -18.3190  -14.4932 S   0  0  0  0  0  0  0  0  0  0  0  0
   25.2735  -19.0425  -13.6136 C   0  0  0  0  0  0  0  0  0  0  0  0
   24.8206  -19.7508  -12.3497 C   0  0  0  0  0  0  0  0  0  0  0  0
   25.2982  -21.2074  -12.3600 C   0  0  2  0  0  0  0  0  0  0  0  0
   24.1543  -22.0063  -12.6227 N   0  0  0  0  0  0  0  0  0  0  0  0
   26.0850  -21.5372  -11.1786 C   0  0  0  0  0  0  0  0  0  0  0  0
   25.4628  -22.2049  -10.2786 O   0  0  0  0  0  0  0  0  0  0  0  0
   27.4357  -21.2112  -10.9108 N   0  0  0  0  0  0  0  0  0  0  0  0
   28.3520  -20.3564  -11.6250 C   0  0  0  0  0  0  0  0  0  0  0  0
   29.6676  -21.0769  -11.4879 C   0  0  0  0  0  0  0  0  0  0  0  0
   29.5098  -22.0301  -10.3365 C   0  0  0  0  0  0  0  0  0  0  0  0
   28.1757  -21.7160   -9.7767 C   0  0  1  0  0  0  0  0  0  0  0  0
   28.1925  -20.6258   -8.7352 C   0  0  0  0  0  0  0  0  0  0  0  0
   27.8867  -19.4570   -9.0727 O   0  0  0  0  0  0  0  0  0  0  0  0
   26.8124  -22.3924   -3.7192 C   0  0  0  0  0  0  0  0  0  0  0  0
   26.9752  -21.5806   -4.9438 C   0  0  0  0  0  0  0  0  0  0  0  0
   28.0631  -20.6139   -5.0533 C   0  0  2  0  0  0  0  0  0  0  0  0
   28.0615  -19.6612   -3.8424 C   0  0  0  0  0  0  0  0  0  0  0  0
   28.3282  -19.9314   -6.3144 C   0  0  2  0  0  0  0  0  0  0  0  0
   28.5406  -20.8874   -7.4054 N   0  0  0  0  0  0  0  0  0  0  0  0
   29.1727  -18.7569   -6.4280 C   0  0  0  0  0  0  0  0  0  0  0  0
   30.3717  -18.8728   -6.7854 O   0  0  0  0  0  0  0  0  0  0  0  0
   28.7686  -17.4702   -6.1791 O   0  0  0  0  0  0  0  0  0  0  0  0
  1  2  1  0
  3  2  1  0
  4  3  1  0
  5  6  1  1
  5  4  1  0
  7  5  1  0
  8  7  2  0
  9 10  1  0
  9  7  1  0
 11 10  1  0
 12 11  1  0
 12 13  1  0
 13  9  1  0
 13 14  1  1
 14 15  2  0
 17 18  1  0
 17 16  1  0
 18 20  1  0
 18 19  1  1
 20 21  1  6
 21 14  1  0
 22 20  1  0
 23 22  2  0
 24 22  1  0
M  END
$$$$
