GHN.pdb
     RDKit          3D

 23 23  0  0  1  0  0  0  0  0999 V2000
   12.2309  -16.4406   15.4415 N   0  0  0  0  0  0  0  0  0  0  0  0
   12.0618  -17.2743   16.5896 C   0  0  0  0  0  0  0  0  0  0  0  0
   11.9215  -16.5105   17.8477 C   0  0  0  0  0  0  0  0  0  0  0  0
   12.9085  -15.8781   18.3032 O   0  0  0  0  0  0  0  0  0  0  0  0
   10.7343  -16.4277   18.6065 N   0  0  0  0  0  0  0  0  0  0  0  0
   10.6029  -15.7091   19.8397 C   0  0  1  0  0  0  0  0  0  0  0  0
    9.2560  -15.2589   20.2007 C   0  0  0  0  0  0  0  0  0  0  0  0
    8.5535  -14.3434   19.3022 C   0  0  0  0  0  0  0  0  0  0  0  0
    8.8358  -13.7750   18.1029 C   0  0  0  0  0  0  0  0  0  0  0  0
    7.7947  -13.0071   17.7029 N   0  0  0  0  0  0  0  0  0  0  0  0
    6.8674  -13.1086   18.6681 C   0  0  0  0  0  0  0  0  0  0  0  0
    7.2963  -13.9050   19.6410 N   0  0  0  0  0  0  0  0  0  0  0  0
   11.3266  -16.3863   20.9552 C   0  0  0  0  0  0  0  0  0  0  0  0
   11.3963  -17.6373   21.0069 O   0  0  0  0  0  0  0  0  0  0  0  0
   15.1769  -14.2501   21.5896 N   0  0  0  0  0  0  0  0  0  0  0  0
   14.9864  -15.4355   22.3327 C   0  0  0  0  0  0  0  0  0  0  0  0
   15.6834  -16.4360   22.0741 O   0  0  0  0  0  0  0  0  0  0  0  0
   13.9774  -15.5026   23.4056 C   0  0  0  0  0  0  0  0  0  0  0  0
   12.7428  -16.2454   23.0365 C   0  0  2  0  0  0  0  0  0  0  0  0
   11.9573  -15.6601   21.9885 N   0  0  0  0  0  0  0  0  0  0  0  0
   11.8947  -16.3624   24.2516 C   0  0  0  0  0  0  0  0  0  0  0  0
   10.7485  -15.8467   24.3059 O   0  0  0  0  0  0  0  0  0  0  0  0
   12.3336  -17.0464   25.3771 O   0  0  0  0  0  0  0  0  0  0  0  0
  2  1  1  0
  3  2  1  0
  4  3  2  0
  5  3  1  0
  6 13  1  0
  6  5  1  0
  6  7  1  1
  8 12  1  0
  8  7  1  0
  9  8  2  0
 10  9  1  0
 10 11  1  0
 11 12  2  0
 13 20  1  0
 14 13  2  0
 16 15  1  0
 17 16  2  0
 18 16  1  0
 19 21  1  0
 19 18  1  1
 20 19  1  0
 21 23  1  0
 22 21  2  0
M  END
$$$$
