GHN.pdb
     RDKit          3D

 23 23  0  0  1  0  0  0  0  0999 V2000
   10.6094  -19.0517   17.9249 N   0  0  0  0  0  0  0  0  0  0  0  0
    9.7732  -18.3867   18.8738 C   0  0  0  0  0  0  0  0  0  0  0  0
   10.3893  -17.1666   19.4377 C   0  0  0  0  0  0  0  0  0  0  0  0
   11.5982  -16.9148   19.1995 O   0  0  0  0  0  0  0  0  0  0  0  0
    9.7134  -16.2290   20.2477 N   0  0  0  0  0  0  0  0  0  0  0  0
   10.3234  -15.0777   20.8452 C   0  0  1  0  0  0  0  0  0  0  0  0
    9.4895  -13.8793   20.9702 C   0  0  0  0  0  0  0  0  0  0  0  0
    8.7742  -13.3912   19.7916 C   0  0  0  0  0  0  0  0  0  0  0  0
    9.0858  -12.5763   18.7523 C   0  0  0  0  0  0  0  0  0  0  0  0
    8.0288  -12.4807   17.9115 N   0  0  0  0  0  0  0  0  0  0  0  0
    7.0624  -13.2457   18.4432 C   0  0  0  0  0  0  0  0  0  0  0  0
    7.4825  -13.8048   19.5726 N   0  0  0  0  0  0  0  0  0  0  0  0
   11.0602  -15.4270   22.0948 C   0  0  0  0  0  0  0  0  0  0  0  0
   10.4395  -15.7621   23.1316 O   0  0  0  0  0  0  0  0  0  0  0  0
   13.7460  -17.7982   25.7698 N   0  0  0  0  0  0  0  0  0  0  0  0
   13.9590  -18.0626   24.3993 C   0  0  0  0  0  0  0  0  0  0  0  0
   14.8970  -18.8105   24.0611 O   0  0  0  0  0  0  0  0  0  0  0  0
   13.0887  -17.4669   23.3691 C   0  0  0  0  0  0  0  0  0  0  0  0
   13.2478  -15.9965   23.2117 C   0  0  2  0  0  0  0  0  0  0  0  0
   12.4699  -15.3973   22.1660 N   0  0  0  0  0  0  0  0  0  0  0  0
   14.6838  -15.7135   22.9519 C   0  0  0  0  0  0  0  0  0  0  0  0
   15.5712  -15.9803   23.8028 O   0  0  0  0  0  0  0  0  0  0  0  0
   15.1043  -15.1428   21.7583 O   0  0  0  0  0  0  0  0  0  0  0  0
  2  1  1  0
  3  2  1  0
  4  3  2  0
  5  3  1  0
  6 13  1  0
  6  5  1  0
  6  7  1  1
  8 12  1  0
  8  7  1  0
  9  8  2  0
 10  9  1  0
 10 11  1  0
 11 12  2  0
 13 20  1  0
 14 13  2  0
 16 15  1  0
 17 16  2  0
 18 16  1  0
 19 21  1  0
 19 18  1  6
 20 19  1  0
 21 23  1  0
 22 21  2  0
M  END
$$$$
