GHN.pdb
     RDKit          3D

 23 23  0  0  1  0  0  0  0  0999 V2000
   10.5142  -15.4450   14.2619 N   0  0  0  0  0  0  0  0  0  0  0  0
   10.7131  -16.3671   15.3352 C   0  0  0  0  0  0  0  0  0  0  0  0
   11.1666  -15.7177   16.5836 C   0  0  0  0  0  0  0  0  0  0  0  0
   12.1893  -14.9859   16.5665 O   0  0  0  0  0  0  0  0  0  0  0  0
   10.5282  -15.8536   17.8350 N   0  0  0  0  0  0  0  0  0  0  0  0
   10.9360  -15.1852   19.0356 C   0  0  1  0  0  0  0  0  0  0  0  0
    9.9086  -14.9854   20.0611 C   0  0  0  0  0  0  0  0  0  0  0  0
    8.6280  -14.3959   19.6716 C   0  0  0  0  0  0  0  0  0  0  0  0
    7.4267  -14.8902   19.2794 C   0  0  0  0  0  0  0  0  0  0  0  0
    6.5624  -13.8720   19.0567 N   0  0  0  0  0  0  0  0  0  0  0  0
    7.2434  -12.7448   19.3162 C   0  0  0  0  0  0  0  0  0  0  0  0
    8.4866  -13.0295   19.6877 N   0  0  0  0  0  0  0  0  0  0  0  0
   12.2152  -15.7375   19.5698 C   0  0  0  0  0  0  0  0  0  0  0  0
   12.4352  -16.9719   19.5550 O   0  0  0  0  0  0  0  0  0  0  0  0
   16.4898  -15.5397   18.1618 N   0  0  0  0  0  0  0  0  0  0  0  0
   15.9939  -14.4122   18.8521 C   0  0  0  0  0  0  0  0  0  0  0  0
   15.8441  -13.3382   18.2376 O   0  0  0  0  0  0  0  0  0  0  0  0
   15.6531  -14.4908   20.2843 C   0  0  0  0  0  0  0  0  0  0  0  0
   14.4924  -15.3700   20.5879 C   0  0  2  0  0  0  0  0  0  0  0  0
   13.2222  -14.9073   20.1080 N   0  0  0  0  0  0  0  0  0  0  0  0
   14.4088  -15.5299   22.0634 C   0  0  0  0  0  0  0  0  0  0  0  0
   13.4116  -15.1232   22.7136 O   0  0  0  0  0  0  0  0  0  0  0  0
   15.4290  -16.1352   22.7845 O   0  0  0  0  0  0  0  0  0  0  0  0
  2  1  1  0
  3  2  1  0
  4  3  2  0
  5  3  1  0
  6 13  1  0
  6  5  1  0
  6  7  1  1
  8 12  1  0
  8  7  1  0
  9  8  2  0
 10  9  1  0
 10 11  1  0
 11 12  2  0
 13 20  1  0
 14 13  2  0
 16 15  1  0
 17 16  2  0
 18 16  1  0
 19 21  1  0
 19 18  1  1
 20 19  1  0
 21 23  1  0
 22 21  2  0
M  END
$$$$
