GHN.pdb
     RDKit          3D

 23 23  0  0  1  0  0  0  0  0999 V2000
    5.9439  -18.7296   20.3004 N   0  0  0  0  0  0  0  0  0  0  0  0
    6.0958  -19.1465   21.6587 C   0  0  0  0  0  0  0  0  0  0  0  0
    6.7771  -18.1419   22.5028 C   0  0  0  0  0  0  0  0  0  0  0  0
    7.9778  -17.8482   22.2714 O   0  0  0  0  0  0  0  0  0  0  0  0
    6.1743  -17.4615   23.5826 N   0  0  0  0  0  0  0  0  0  0  0  0
    6.8667  -16.5909   24.4866 C   0  0  1  0  0  0  0  0  0  0  0  0
    6.0597  -15.5841   25.1812 C   0  0  0  0  0  0  0  0  0  0  0  0
    6.7399  -14.5379   25.9439 C   0  0  0  0  0  0  0  0  0  0  0  0
    8.0302  -14.2816   26.2767 C   0  0  0  0  0  0  0  0  0  0  0  0
    8.0995  -13.1365   26.9960 N   0  0  0  0  0  0  0  0  0  0  0  0
    6.8384  -12.6893   27.1026 C   0  0  0  0  0  0  0  0  0  0  0  0
    6.0009  -13.5113   26.4799 N   0  0  0  0  0  0  0  0  0  0  0  0
    7.7867  -17.3455   25.3870 C   0  0  0  0  0  0  0  0  0  0  0  0
    7.3813  -18.3479   26.0221 O   0  0  0  0  0  0  0  0  0  0  0  0
   12.3879  -17.0313   23.6198 N   0  0  0  0  0  0  0  0  0  0  0  0
   11.7510  -17.9318   24.5013 C   0  0  0  0  0  0  0  0  0  0  0  0
   11.3893  -19.0468   24.0777 O   0  0  0  0  0  0  0  0  0  0  0  0
   11.5103  -17.5697   25.9101 C   0  0  0  0  0  0  0  0  0  0  0  0
   10.0930  -17.7037   26.3409 C   0  0  2  0  0  0  0  0  0  0  0  0
    9.1366  -16.9712   25.5621 N   0  0  0  0  0  0  0  0  0  0  0  0
    9.9959  -17.2513   27.7535 C   0  0  0  0  0  0  0  0  0  0  0  0
    9.2495  -16.2956   28.0883 O   0  0  0  0  0  0  0  0  0  0  0  0
   10.7258  -17.8659   28.7618 O   0  0  0  0  0  0  0  0  0  0  0  0
  2  1  1  0
  3  2  1  0
  4  3  2  0
  5  3  1  0
  6 13  1  0
  6  5  1  0
  6  7  1  1
  8 12  1  0
  8  7  1  0
  9  8  2  0
 10  9  1  0
 10 11  1  0
 11 12  2  0
 13 20  1  0
 14 13  2  0
 16 15  1  0
 17 16  2  0
 18 16  1  0
 19 21  1  0
 19 18  1  6
 20 19  1  0
 21 23  1  0
 22 21  2  0
M  END
$$$$
