GHN.pdb
     RDKit          3D

 23 23  0  0  1  0  0  0  0  0999 V2000
    3.5685  -23.4317   22.5063 N   0  0  0  0  0  0  0  0  0  0  0  0
    3.4518  -22.1628   23.1528 C   0  0  0  0  0  0  0  0  0  0  0  0
    4.6632  -21.3264   23.0155 C   0  0  0  0  0  0  0  0  0  0  0  0
    5.6264  -21.7384   22.3197 O   0  0  0  0  0  0  0  0  0  0  0  0
    4.8366  -20.0624   23.6192 N   0  0  0  0  0  0  0  0  0  0  0  0
    6.0183  -19.2592   23.5051 C   0  0  1  0  0  0  0  0  0  0  0  0
    5.8400  -17.8884   23.0190 C   0  0  0  0  0  0  0  0  0  0  0  0
    7.0234  -17.1067   22.6620 C   0  0  0  0  0  0  0  0  0  0  0  0
    7.8863  -17.1007   21.6148 C   0  0  0  0  0  0  0  0  0  0  0  0
    8.8125  -16.1286   21.7892 N   0  0  0  0  0  0  0  0  0  0  0  0
    8.5112  -15.5349   22.9547 C   0  0  0  0  0  0  0  0  0  0  0  0
    7.4411  -16.1020   23.5007 N   0  0  0  0  0  0  0  0  0  0  0  0
    6.8732  -19.3553   24.7243 C   0  0  0  0  0  0  0  0  0  0  0  0
    6.4154  -19.0551   25.8525 O   0  0  0  0  0  0  0  0  0  0  0  0
   12.0079  -19.8236   25.7181 N   0  0  0  0  0  0  0  0  0  0  0  0
   11.4953  -18.5514   25.3827 C   0  0  0  0  0  0  0  0  0  0  0  0
   12.2844  -17.6403   25.0653 O   0  0  0  0  0  0  0  0  0  0  0  0
   10.0444  -18.2902   25.4036 C   0  0  0  0  0  0  0  0  0  0  0  0
    9.2110  -19.4956   25.6582 C   0  0  2  0  0  0  0  0  0  0  0  0
    8.2172  -19.7831   24.6645 N   0  0  0  0  0  0  0  0  0  0  0  0
    8.5303  -19.3171   26.9676 C   0  0  0  0  0  0  0  0  0  0  0  0
    7.2909  -19.1146   27.0422 O   0  0  0  0  0  0  0  0  0  0  0  0
    9.2354  -19.3667   28.1623 O   0  0  0  0  0  0  0  0  0  0  0  0
  2  1  1  0
  3  2  1  0
  4  3  2  0
  5  3  1  0
  6 13  1  0
  6  5  1  0
  6  7  1  1
  8 12  1  0
  8  7  1  0
  9  8  2  0
 10  9  1  0
 10 11  1  0
 11 12  2  0
 13 20  1  0
 14 13  2  0
 16 15  1  0
 17 16  2  0
 18 16  1  0
 19 21  1  0
 19 18  1  6
 20 19  1  0
 21 23  1  0
 22 21  2  0
M  END
$$$$
