GHN.pdb
     RDKit          3D

 23 23  0  0  1  0  0  0  0  0999 V2000
    7.2823  -20.7684   17.0310 N   0  0  0  0  0  0  0  0  0  0  0  0
    7.1586  -20.4031   18.4068 C   0  0  0  0  0  0  0  0  0  0  0  0
    7.8056  -19.1127   18.7265 C   0  0  0  0  0  0  0  0  0  0  0  0
    9.0054  -18.9224   18.4010 O   0  0  0  0  0  0  0  0  0  0  0  0
    7.1701  -18.0401   19.3882 N   0  0  0  0  0  0  0  0  0  0  0  0
    7.7973  -16.7909   19.7055 C   0  0  1  0  0  0  0  0  0  0  0  0
    6.9251  -15.6161   19.7852 C   0  0  0  0  0  0  0  0  0  0  0  0
    7.5342  -14.2915   19.9010 C   0  0  0  0  0  0  0  0  0  0  0  0
    7.6300  -13.3651   20.8877 C   0  0  0  0  0  0  0  0  0  0  0  0
    8.3411  -12.2996   20.4492 N   0  0  0  0  0  0  0  0  0  0  0  0
    8.6832  -12.5792   19.1817 C   0  0  0  0  0  0  0  0  0  0  0  0
    8.2120  -13.7693   18.8261 N   0  0  0  0  0  0  0  0  0  0  0  0
    8.7351  -16.9192   20.8591 C   0  0  0  0  0  0  0  0  0  0  0  0
    8.5183  -17.7525   21.7708 O   0  0  0  0  0  0  0  0  0  0  0  0
   12.8171  -14.5591   19.6757 N   0  0  0  0  0  0  0  0  0  0  0  0
   12.7532  -15.5663   20.6632 C   0  0  0  0  0  0  0  0  0  0  0  0
   13.3129  -16.6605   20.4554 O   0  0  0  0  0  0  0  0  0  0  0  0
   12.0356  -15.3393   21.9309 C   0  0  0  0  0  0  0  0  0  0  0  0
   10.7996  -16.1520   22.0864 C   0  0  2  0  0  0  0  0  0  0  0  0
    9.8931  -16.1202   20.9751 N   0  0  0  0  0  0  0  0  0  0  0  0
   10.0805  -15.6706   23.2950 C   0  0  0  0  0  0  0  0  0  0  0  0
    9.8623  -14.4465   23.4865 O   0  0  0  0  0  0  0  0  0  0  0  0
    9.6199  -16.5533   24.2623 O   0  0  0  0  0  0  0  0  0  0  0  0
  2  1  1  0
  3  2  1  0
  4  3  2  0
  5  3  1  0
  6 13  1  0
  6  5  1  0
  6  7  1  1
  8 12  1  0
  8  7  1  0
  9  8  2  0
 10  9  1  0
 10 11  1  0
 11 12  2  0
 13 20  1  0
 14 13  2  0
 16 15  1  0
 17 16  2  0
 18 16  1  0
 19 21  1  0
 19 18  1  6
 20 19  1  0
 21 23  1  0
 22 21  2  0
M  END
$$$$
