GHN.pdb
     RDKit          3D

 23 23  0  0  1  0  0  0  0  0999 V2000
   11.1162  -16.4875   14.9535 N   0  0  0  0  0  0  0  0  0  0  0  0
   10.8088  -17.2255   16.1379 C   0  0  0  0  0  0  0  0  0  0  0  0
   10.8858  -16.4093   17.3683 C   0  0  0  0  0  0  0  0  0  0  0  0
   11.8494  -15.6171   17.5284 O   0  0  0  0  0  0  0  0  0  0  0  0
    9.9382  -16.4446   18.4137 N   0  0  0  0  0  0  0  0  0  0  0  0
   10.0615  -15.7312   19.6508 C   0  0  1  0  0  0  0  0  0  0  0  0
    8.8322  -15.1621   20.2096 C   0  0  0  0  0  0  0  0  0  0  0  0
    8.0458  -14.2400   19.3908 C   0  0  0  0  0  0  0  0  0  0  0  0
    7.9924  -12.8913   19.2514 C   0  0  0  0  0  0  0  0  0  0  0  0
    7.0741  -12.5633   18.3120 N   0  0  0  0  0  0  0  0  0  0  0  0
    6.5624  -13.7241   17.8732 C   0  0  0  0  0  0  0  0  0  0  0  0
    7.1277  -14.7476   18.5038 N   0  0  0  0  0  0  0  0  0  0  0  0
   10.8780  -16.4856   20.6462 C   0  0  0  0  0  0  0  0  0  0  0  0
   10.8828  -17.7395   20.6517 O   0  0  0  0  0  0  0  0  0  0  0  0
   15.6311  -15.7507   24.1419 N   0  0  0  0  0  0  0  0  0  0  0  0
   15.2151  -16.2261   22.8791 C   0  0  0  0  0  0  0  0  0  0  0  0
   15.8289  -17.1742   22.3519 O   0  0  0  0  0  0  0  0  0  0  0  0
   14.0686  -15.6165   22.1808 C   0  0  0  0  0  0  0  0  0  0  0  0
   12.8134  -16.4105   22.2605 C   0  0  2  0  0  0  0  0  0  0  0  0
   11.6716  -15.8314   21.6132 N   0  0  0  0  0  0  0  0  0  0  0  0
   12.4877  -16.6149   23.6964 C   0  0  0  0  0  0  0  0  0  0  0  0
   11.4639  -16.1026   24.2180 O   0  0  0  0  0  0  0  0  0  0  0  0
   13.3009  -17.3804   24.5208 O   0  0  0  0  0  0  0  0  0  0  0  0
  2  1  1  0
  3  2  1  0
  4  3  2  0
  5  3  1  0
  6 13  1  0
  6  5  1  0
  6  7  1  1
  8 12  1  0
  8  7  1  0
  9  8  2  0
 10  9  1  0
 10 11  1  0
 11 12  2  0
 13 20  1  0
 14 13  2  0
 16 15  1  0
 17 16  2  0
 18 16  1  0
 19 21  1  0
 19 18  1  1
 20 19  1  0
 21 23  1  0
 22 21  2  0
M  END
$$$$
