GHN.pdb
     RDKit          3D

 23 23  0  0  1  0  0  0  0  0999 V2000
    9.3342  -17.0589   16.7640 N   0  0  0  0  0  0  0  0  0  0  0  0
   10.5774  -17.2508   17.4417 C   0  0  0  0  0  0  0  0  0  0  0  0
   10.6763  -16.4863   18.7034 C   0  0  0  0  0  0  0  0  0  0  0  0
   11.4824  -15.5244   18.7847 O   0  0  0  0  0  0  0  0  0  0  0  0
    9.9175  -16.7529   19.8632 N   0  0  0  0  0  0  0  0  0  0  0  0
    9.9857  -15.9911   21.0755 C   0  0  1  0  0  0  0  0  0  0  0  0
    8.7420  -15.3647   21.5319 C   0  0  0  0  0  0  0  0  0  0  0  0
    8.0022  -14.5080   20.6058 C   0  0  0  0  0  0  0  0  0  0  0  0
    6.9885  -14.7019   19.7248 C   0  0  0  0  0  0  0  0  0  0  0  0
    6.6682  -13.5291   19.1288 N   0  0  0  0  0  0  0  0  0  0  0  0
    7.4948  -12.6100   19.6521 C   0  0  0  0  0  0  0  0  0  0  0  0
    8.3067  -13.1699   20.5420 N   0  0  0  0  0  0  0  0  0  0  0  0
   10.7157  -16.7247   22.1504 C   0  0  0  0  0  0  0  0  0  0  0  0
   10.4498  -17.9242   22.4011 O   0  0  0  0  0  0  0  0  0  0  0  0
   14.9674  -14.8702   22.3390 N   0  0  0  0  0  0  0  0  0  0  0  0
   14.7094  -16.1157   22.9522 C   0  0  0  0  0  0  0  0  0  0  0  0
   15.2044  -17.1500   22.4637 O   0  0  0  0  0  0  0  0  0  0  0  0
   13.8654  -16.2056   24.1577 C   0  0  0  0  0  0  0  0  0  0  0  0
   12.5152  -16.7805   23.9157 C   0  0  2  0  0  0  0  0  0  0  0  0
   11.7253  -16.1108   22.9230 N   0  0  0  0  0  0  0  0  0  0  0  0
   11.7696  -16.7631   25.2015 C   0  0  0  0  0  0  0  0  0  0  0  0
   10.6881  -16.1327   25.3262 O   0  0  0  0  0  0  0  0  0  0  0  0
   12.2371  -17.4425   26.3181 O   0  0  0  0  0  0  0  0  0  0  0  0
  2  1  1  0
  3  2  1  0
  4  3  2  0
  5  3  1  0
  6 13  1  0
  6  5  1  0
  6  7  1  1
  8 12  1  0
  8  7  1  0
  9  8  2  0
 10  9  1  0
 10 11  1  0
 11 12  2  0
 13 20  1  0
 14 13  2  0
 16 15  1  0
 17 16  2  0
 18 16  1  0
 19 21  1  0
 19 18  1  1
 20 19  1  0
 21 23  1  0
 22 21  2  0
M  END
$$$$
