GHN.pdb
     RDKit          3D

 23 23  0  0  1  0  0  0  0  0999 V2000
    2.7758  -19.6402   21.0085 N   0  0  0  0  0  0  0  0  0  0  0  0
    3.1603  -18.6597   21.9742 C   0  0  0  0  0  0  0  0  0  0  0  0
    4.4872  -18.0662   21.7041 C   0  0  0  0  0  0  0  0  0  0  0  0
    5.4196  -18.7969   21.2814 O   0  0  0  0  0  0  0  0  0  0  0  0
    4.8076  -16.7038   21.8863 N   0  0  0  0  0  0  0  0  0  0  0  0
    6.1036  -16.1337   21.6631 C   0  0  1  0  0  0  0  0  0  0  0  0
    6.1453  -14.8348   20.9860 C   0  0  0  0  0  0  0  0  0  0  0  0
    7.4229  -14.3529   20.4620 C   0  0  0  0  0  0  0  0  0  0  0  0
    8.6875  -14.8432   20.4231 C   0  0  0  0  0  0  0  0  0  0  0  0
    9.4989  -13.9691   19.7820 N   0  0  0  0  0  0  0  0  0  0  0  0
    8.7210  -12.9348   19.4257 C   0  0  0  0  0  0  0  0  0  0  0  0
    7.4692  -13.1386   19.8212 N   0  0  0  0  0  0  0  0  0  0  0  0
    6.9554  -16.1984   22.8865 C   0  0  0  0  0  0  0  0  0  0  0  0
    6.5217  -15.7921   23.9907 O   0  0  0  0  0  0  0  0  0  0  0  0
    7.2722  -19.6956   24.4234 N   0  0  0  0  0  0  0  0  0  0  0  0
    8.0135  -18.7260   25.1333 C   0  0  0  0  0  0  0  0  0  0  0  0
    7.5988  -18.3314   26.2405 O   0  0  0  0  0  0  0  0  0  0  0  0
    9.2663  -18.1778   24.5822 C   0  0  0  0  0  0  0  0  0  0  0  0
    9.1320  -16.8161   23.9991 C   0  0  2  0  0  0  0  0  0  0  0  0
    8.2696  -16.7130   22.8574 N   0  0  0  0  0  0  0  0  0  0  0  0
   10.4873  -16.3457   23.6099 C   0  0  0  0  0  0  0  0  0  0  0  0
   10.7800  -16.1028   22.4107 O   0  0  0  0  0  0  0  0  0  0  0  0
   11.4861  -16.1551   24.5550 O   0  0  0  0  0  0  0  0  0  0  0  0
  2  1  1  0
  3  2  1  0
  4  3  2  0
  5  3  1  0
  6 13  1  0
  6  5  1  0
  6  7  1  1
  8 12  1  0
  8  7  1  0
  9  8  2  0
 10  9  1  0
 10 11  1  0
 11 12  2  0
 13 20  1  0
 14 13  2  0
 16 15  1  0
 17 16  2  0
 18 16  1  0
 19 21  1  0
 19 18  1  6
 20 19  1  0
 21 23  1  0
 22 21  2  0
M  END
$$$$
