GHN.pdb
     RDKit          3D

 23 23  0  0  1  0  0  0  0  0999 V2000
    6.0091  -19.1951   18.3241 N   0  0  0  0  0  0  0  0  0  0  0  0
    6.0203  -18.5056   19.5756 C   0  0  0  0  0  0  0  0  0  0  0  0
    7.2924  -17.7998   19.8396 C   0  0  0  0  0  0  0  0  0  0  0  0
    8.3054  -18.0649   19.1431 O   0  0  0  0  0  0  0  0  0  0  0  0
    7.4727  -16.8209   20.8403 N   0  0  0  0  0  0  0  0  0  0  0  0
    8.6964  -16.1136   21.0783 C   0  0  1  0  0  0  0  0  0  0  0  0
    8.6306  -14.6502   21.0413 C   0  0  0  0  0  0  0  0  0  0  0  0
    8.1631  -13.9955   19.8199 C   0  0  0  0  0  0  0  0  0  0  0  0
    7.0622  -13.2793   19.4792 C   0  0  0  0  0  0  0  0  0  0  0  0
    7.1548  -12.8822   18.1880 N   0  0  0  0  0  0  0  0  0  0  0  0
    8.3248  -13.3608   17.7365 C   0  0  0  0  0  0  0  0  0  0  0  0
    8.9515  -14.0335   18.6954 N   0  0  0  0  0  0  0  0  0  0  0  0
    9.4244  -16.6501   22.2653 C   0  0  0  0  0  0  0  0  0  0  0  0
    8.8576  -16.7314   23.3809 O   0  0  0  0  0  0  0  0  0  0  0  0
   14.5579  -19.5480   23.9580 N   0  0  0  0  0  0  0  0  0  0  0  0
   13.1575  -19.3767   24.0151 C   0  0  0  0  0  0  0  0  0  0  0  0
   12.5408  -19.7325   25.0381 O   0  0  0  0  0  0  0  0  0  0  0  0
   12.4205  -18.7847   22.8837 C   0  0  0  0  0  0  0  0  0  0  0  0
   11.4924  -17.6875   23.2674 C   0  0  2  0  0  0  0  0  0  0  0  0
   10.7652  -17.0849   22.1877 N   0  0  0  0  0  0  0  0  0  0  0  0
   12.2849  -16.6309   23.9494 C   0  0  0  0  0  0  0  0  0  0  0  0
   12.5504  -16.6973   25.1773 O   0  0  0  0  0  0  0  0  0  0  0  0
   12.7646  -15.5267   23.2582 O   0  0  0  0  0  0  0  0  0  0  0  0
  2  1  1  0
  3  2  1  0
  4  3  2  0
  5  3  1  0
  6 13  1  0
  6  5  1  0
  6  7  1  1
  8 12  1  0
  8  7  1  0
  9  8  2  0
 10  9  1  0
 10 11  1  0
 11 12  2  0
 13 20  1  0
 14 13  2  0
 16 15  1  0
 17 16  2  0
 18 16  1  0
 19 21  1  0
 19 18  1  6
 20 19  1  0
 21 23  1  0
 22 21  2  0
M  END
$$$$
