GHN.pdb
     RDKit          3D

 23 23  0  0  1  0  0  0  0  0999 V2000
    8.1041  -19.3344   18.8609 N   0  0  0  0  0  0  0  0  0  0  0  0
    7.6796  -18.7509   20.0942 C   0  0  0  0  0  0  0  0  0  0  0  0
    8.5210  -17.6116   20.5188 C   0  0  0  0  0  0  0  0  0  0  0  0
    9.7438  -17.5998   20.2253 O   0  0  0  0  0  0  0  0  0  0  0  0
    8.0529  -16.4987   21.2500 N   0  0  0  0  0  0  0  0  0  0  0  0
    8.8726  -15.4077   21.6886 C   0  0  1  0  0  0  0  0  0  0  0  0
    8.3137  -14.0613   21.5400 C   0  0  0  0  0  0  0  0  0  0  0  0
    7.9730  -13.5826   20.2007 C   0  0  0  0  0  0  0  0  0  0  0  0
    8.3880  -12.5554   19.4172 C   0  0  0  0  0  0  0  0  0  0  0  0
    7.7387  -12.5930   18.2296 N   0  0  0  0  0  0  0  0  0  0  0  0
    6.9194  -13.6546   18.2890 C   0  0  0  0  0  0  0  0  0  0  0  0
    7.0394  -14.2676   19.4614 N   0  0  0  0  0  0  0  0  0  0  0  0
    9.4636  -15.6651   23.0343 C   0  0  0  0  0  0  0  0  0  0  0  0
    8.7278  -15.8167   24.0384 O   0  0  0  0  0  0  0  0  0  0  0  0
   12.7929  -18.3183   26.0099 N   0  0  0  0  0  0  0  0  0  0  0  0
   11.8945  -18.8859   25.0801 C   0  0  0  0  0  0  0  0  0  0  0  0
   11.6897  -20.1151   25.1024 O   0  0  0  0  0  0  0  0  0  0  0  0
   11.1997  -18.0449   24.0883 C   0  0  0  0  0  0  0  0  0  0  0  0
   11.4941  -16.5918   24.2072 C   0  0  2  0  0  0  0  0  0  0  0  0
   10.8583  -15.7491   23.2359 N   0  0  0  0  0  0  0  0  0  0  0  0
   12.9653  -16.4092   24.0986 C   0  0  0  0  0  0  0  0  0  0  0  0
   13.5755  -16.6142   23.0177 O   0  0  0  0  0  0  0  0  0  0  0  0
   13.7264  -16.0045   25.1868 O   0  0  0  0  0  0  0  0  0  0  0  0
  2  1  1  0
  3  2  1  0
  4  3  2  0
  5  3  1  0
  6 13  1  0
  6  5  1  0
  6  7  1  1
  8 12  1  0
  8  7  1  0
  9  8  2  0
 10  9  1  0
 10 11  1  0
 11 12  2  0
 13 20  1  0
 14 13  2  0
 16 15  1  0
 17 16  2  0
 18 16  1  0
 19 21  1  0
 19 18  1  6
 20 19  1  0
 21 23  1  0
 22 21  2  0
M  END
$$$$
