GHN.pdb
     RDKit          3D

 23 23  0  0  1  0  0  0  0  0999 V2000
    6.7997  -12.4129   20.3304 N   0  0  0  0  0  0  0  0  0  0  0  0
    7.9737  -12.1472   19.5604 C   0  0  0  0  0  0  0  0  0  0  0  0
    8.8443  -13.3313   19.3995 C   0  0  0  0  0  0  0  0  0  0  0  0
    8.5119  -14.4227   19.9288 O   0  0  0  0  0  0  0  0  0  0  0  0
   10.0575  -13.3417   18.6783 N   0  0  0  0  0  0  0  0  0  0  0  0
   10.9145  -14.4823   18.5400 C   0  0  1  0  0  0  0  0  0  0  0  0
   11.3216  -14.8405   17.1787 C   0  0  0  0  0  0  0  0  0  0  0  0
   10.3086  -15.3327   16.2457 C   0  0  0  0  0  0  0  0  0  0  0  0
    9.4470  -16.3810   16.2339 C   0  0  0  0  0  0  0  0  0  0  0  0
    8.6998  -16.3479   15.1052 N   0  0  0  0  0  0  0  0  0  0  0  0
    9.1095  -15.2678   14.4215 C   0  0  0  0  0  0  0  0  0  0  0  0
   10.0748  -14.6392   15.0830 N   0  0  0  0  0  0  0  0  0  0  0  0
   12.0453  -14.4467   19.5130 C   0  0  0  0  0  0  0  0  0  0  0  0
   12.8678  -13.5002   19.5043 O   0  0  0  0  0  0  0  0  0  0  0  0
   14.0820  -15.7179   24.7488 N   0  0  0  0  0  0  0  0  0  0  0  0
   14.1995  -16.4584   23.5523 C   0  0  0  0  0  0  0  0  0  0  0  0
   15.2395  -17.1113   23.3387 O   0  0  0  0  0  0  0  0  0  0  0  0
   13.1110  -16.4677   22.5578 C   0  0  0  0  0  0  0  0  0  0  0  0
   13.2565  -15.4485   21.4844 C   0  0  2  0  0  0  0  0  0  0  0  0
   12.2379  -15.4623   20.4744 N   0  0  0  0  0  0  0  0  0  0  0  0
   14.5739  -15.6555   20.8278 C   0  0  0  0  0  0  0  0  0  0  0  0
   14.7102  -16.4516   19.8633 O   0  0  0  0  0  0  0  0  0  0  0  0
   15.7086  -14.9780   21.2528 O   0  0  0  0  0  0  0  0  0  0  0  0
  2  1  1  0
  3  2  1  0
  4  3  2  0
  5  3  1  0
  6 13  1  0
  6  5  1  0
  6  7  1  6
  8 12  1  0
  8  7  1  0
  9  8  2  0
 10  9  1  0
 10 11  1  0
 11 12  2  0
 13 20  1  0
 14 13  2  0
 16 15  1  0
 17 16  2  0
 18 16  1  0
 19 21  1  0
 19 18  1  1
 20 19  1  0
 21 23  1  0
 22 21  2  0
M  END
$$$$
