CTD.pdb
     RDKit          3D

 22 21  0  0  1  0  0  0  0  0999 V2000
    8.5488  -15.7475   15.9504 N   0  0  0  0  0  0  0  0  0  0  0  0
    7.9901  -16.2270   17.1978 C   0  0  1  0  0  0  0  0  0  0  0  0
    8.0752  -17.7485   17.1748 C   0  0  0  0  0  0  0  0  0  0  0  0
    6.7811  -18.3420   16.0593 S   0  0  0  0  0  0  0  0  0  0  0  0
    8.8143  -15.7051   18.3223 C   0  0  0  0  0  0  0  0  0  0  0  0
   10.0127  -15.3856   18.2029 O   0  0  0  0  0  0  0  0  0  0  0  0
    7.4695  -12.8920   20.5781 C   0  0  0  0  0  0  0  0  0  0  0  0
    7.9148  -14.0441   21.4442 C   0  0  1  0  0  0  0  0  0  0  0  0
    6.8082  -14.8519   21.6901 O   0  0  0  0  0  0  0  0  0  0  0  0
    8.9333  -14.9182   20.7072 C   0  0  2  0  0  0  0  0  0  0  0  0
    8.2288  -15.5504   19.6213 N   0  0  0  0  0  0  0  0  0  0  0  0
    9.4895  -15.9433   21.5948 C   0  0  0  0  0  0  0  0  0  0  0  0
    9.0707  -17.1177   21.5785 O   0  0  0  0  0  0  0  0  0  0  0  0
   10.5337  -15.6305   22.5115 N   0  0  0  0  0  0  0  0  0  0  0  0
   11.2014  -16.6177   23.3103 C   0  0  1  0  0  0  0  0  0  0  0  0
   12.6414  -16.3175   23.5735 C   0  0  0  0  0  0  0  0  0  0  0  0
   13.4863  -16.2004   22.3970 C   0  0  0  0  0  0  0  0  0  0  0  0
   13.3226  -16.9844   21.4330 O   0  0  0  0  0  0  0  0  0  0  0  0
   10.4194  -16.9296   24.5059 C   0  0  0  0  0  0  0  0  0  0  0  0
   10.7014  -18.0106   25.3220 O   0  0  0  0  0  0  0  0  0  0  0  0
   14.4848  -15.2518   22.2753 O   0  0  0  0  0  0  0  0  0  0  0  0
    9.4506  -16.2040   24.8252 O   0  0  0  0  0  0  0  0  0  0  0  0
  2  1  1  6
  2  5  1  0
  2  3  1  0
  4  3  1  0
  5 11  1  0
  6  5  2  0
  8  7  1  6
  8  9  1  0
 10  8  1  0
 10 12  1  0
 10 11  1  6
 12 13  2  0
 12 14  1  0
 14 15  1  0
 15 16  1  1
 17 16  1  0
 17 21  1  0
 18 17  2  0
 19 15  1  0
 19 20  1  0
 22 19  2  0
M  END
$$$$
