CTD.pdb
     RDKit          3D

 22 21  0  0  1  0  0  0  0  0999 V2000
    8.6715  -16.2793   16.0609 N   0  0  0  0  0  0  0  0  0  0  0  0
    8.1327  -16.6729   17.3466 C   0  0  1  0  0  0  0  0  0  0  0  0
    8.4134  -18.1612   17.5169 C   0  0  0  0  0  0  0  0  0  0  0  0
    7.6661  -19.0135   16.1075 S   0  0  0  0  0  0  0  0  0  0  0  0
    8.8401  -15.9135   18.4138 C   0  0  0  0  0  0  0  0  0  0  0  0
    9.9318  -15.3393   18.2374 O   0  0  0  0  0  0  0  0  0  0  0  0
    7.2064  -13.2624   20.6222 C   0  0  0  0  0  0  0  0  0  0  0  0
    7.8018  -14.3194   21.5189 C   0  0  1  0  0  0  0  0  0  0  0  0
    6.8038  -15.2418   21.8201 O   0  0  0  0  0  0  0  0  0  0  0  0
    8.9025  -15.0953   20.7903 C   0  0  2  0  0  0  0  0  0  0  0  0
    8.2623  -15.8192   19.7219 N   0  0  0  0  0  0  0  0  0  0  0  0
    9.5690  -16.0386   21.6924 C   0  0  0  0  0  0  0  0  0  0  0  0
    9.2295  -17.2371   21.7503 O   0  0  0  0  0  0  0  0  0  0  0  0
   10.6336  -15.6155   22.5387 N   0  0  0  0  0  0  0  0  0  0  0  0
   11.2250  -16.4565   23.5394 C   0  0  1  0  0  0  0  0  0  0  0  0
   12.6459  -16.1200   23.8571 C   0  0  0  0  0  0  0  0  0  0  0  0
   13.5939  -16.2966   22.7700 C   0  0  0  0  0  0  0  0  0  0  0  0
   14.6938  -15.6966   22.7999 O   0  0  0  0  0  0  0  0  0  0  0  0
   10.3518  -16.5615   24.7075 C   0  0  0  0  0  0  0  0  0  0  0  0
    9.2729  -15.7197   24.9118 O   0  0  0  0  0  0  0  0  0  0  0  0
   13.3480  -17.1076   21.6774 O   0  0  0  0  0  0  0  0  0  0  0  0
   10.5685  -17.4404   25.5721 O   0  0  0  0  0  0  0  0  0  0  0  0
  2  1  1  6
  2  5  1  0
  2  3  1  0
  4  3  1  0
  5 11  1  0
  6  5  2  0
  8  7  1  6
  8  9  1  0
 10  8  1  0
 10 12  1  0
 10 11  1  6
 12 13  2  0
 12 14  1  0
 14 15  1  0
 15 16  1  1
 17 16  1  0
 17 21  1  0
 18 17  2  0
 19 15  1  0
 19 20  1  0
 22 19  2  0
M  END
$$$$
