CTD.pdb
     RDKit          3D

 22 21  0  0  1  0  0  0  0  0999 V2000
    8.9481  -14.8382   13.9997 N   0  0  0  0  0  0  0  0  0  0  0  0
    8.3269  -15.2031   15.2563 C   0  0  1  0  0  0  0  0  0  0  0  0
    8.2195  -16.7231   15.2818 C   0  0  0  0  0  0  0  0  0  0  0  0
    7.1026  -17.2053   13.9434 S   0  0  0  0  0  0  0  0  0  0  0  0
    9.2043  -14.7530   16.3714 C   0  0  0  0  0  0  0  0  0  0  0  0
   10.4201  -14.5172   16.2344 O   0  0  0  0  0  0  0  0  0  0  0  0
    7.8064  -12.2650   19.1635 C   0  0  0  0  0  0  0  0  0  0  0  0
    8.4890  -13.4582   19.7849 C   0  0  1  0  0  0  0  0  0  0  0  0
    7.5151  -14.4089   20.0766 O   0  0  0  0  0  0  0  0  0  0  0  0
    9.4507  -14.1149   18.7908 C   0  0  2  0  0  0  0  0  0  0  0  0
    8.6529  -14.5722   17.6819 N   0  0  0  0  0  0  0  0  0  0  0  0
   10.1435  -15.2537   19.4001 C   0  0  0  0  0  0  0  0  0  0  0  0
    9.7444  -16.4237   19.2368 O   0  0  0  0  0  0  0  0  0  0  0  0
   11.3031  -15.0609   20.2043 N   0  0  0  0  0  0  0  0  0  0  0  0
   12.0492  -16.1422   20.7810 C   0  0  1  0  0  0  0  0  0  0  0  0
   13.4689  -16.2177   20.3205 C   0  0  0  0  0  0  0  0  0  0  0  0
   14.2822  -15.0439   20.5897 C   0  0  0  0  0  0  0  0  0  0  0  0
   14.4848  -14.2055   19.6804 O   0  0  0  0  0  0  0  0  0  0  0  0
   11.8815  -16.1685   22.2333 C   0  0  0  0  0  0  0  0  0  0  0  0
   12.3409  -17.2101   23.0197 O   0  0  0  0  0  0  0  0  0  0  0  0
   14.8602  -14.7911   21.8201 O   0  0  0  0  0  0  0  0  0  0  0  0
   11.3021  -15.2218   22.8123 O   0  0  0  0  0  0  0  0  0  0  0  0
  2  1  1  6
  2  5  1  0
  2  3  1  0
  4  3  1  0
  5 11  1  0
  6  5  2  0
  8  7  1  6
  8  9  1  0
 10  8  1  0
 10 12  1  0
 10 11  1  6
 12 13  2  0
 12 14  1  0
 14 15  1  0
 15 16  1  1
 17 16  1  0
 17 21  1  0
 18 17  2  0
 19 15  1  0
 19 20  1  0
 22 19  2  0
M  END
$$$$
