CTD.pdb
     RDKit          3D

 22 21  0  0  1  0  0  0  0  0999 V2000
    8.1333  -13.8520   17.6489 N   0  0  0  0  0  0  0  0  0  0  0  0
    9.1270  -13.4482   18.6223 C   0  0  1  0  0  0  0  0  0  0  0  0
    8.3778  -12.9770   19.8630 C   0  0  0  0  0  0  0  0  0  0  0  0
    7.5281  -11.4412   19.4264 S   0  0  0  0  0  0  0  0  0  0  0  0
    9.9620  -14.6303   18.9710 C   0  0  0  0  0  0  0  0  0  0  0  0
    9.5635  -15.8061   18.8649 O   0  0  0  0  0  0  0  0  0  0  0  0
   11.8311  -16.1907   17.2442 C   0  0  0  0  0  0  0  0  0  0  0  0
   12.8638  -15.7908   18.2686 C   0  0  1  0  0  0  0  0  0  0  0  0
   13.4205  -14.5790   17.8696 O   0  0  0  0  0  0  0  0  0  0  0  0
   12.2113  -15.5394   19.6308 C   0  0  2  0  0  0  0  0  0  0  0  0
   11.2970  -14.4399   19.4564 N   0  0  0  0  0  0  0  0  0  0  0  0
   13.2145  -15.1887   20.6400 C   0  0  0  0  0  0  0  0  0  0  0  0
   13.7087  -14.0454   20.6991 O   0  0  0  0  0  0  0  0  0  0  0  0
   13.6615  -16.1481   21.5931 N   0  0  0  0  0  0  0  0  0  0  0  0
   14.6608  -15.8667   22.5834 C   0  0  1  0  0  0  0  0  0  0  0  0
   14.5556  -16.7094   23.8130 C   0  0  0  0  0  0  0  0  0  0  0  0
   13.2183  -16.8605   24.3612 C   0  0  0  0  0  0  0  0  0  0  0  0
   12.5713  -15.8460   24.7116 O   0  0  0  0  0  0  0  0  0  0  0  0
   15.9924  -15.8395   21.9800 C   0  0  0  0  0  0  0  0  0  0  0  0
   16.2240  -16.2003   20.6645 O   0  0  0  0  0  0  0  0  0  0  0  0
   12.6023  -18.0878   24.5232 O   0  0  0  0  0  0  0  0  0  0  0  0
   16.9792  -15.4790   22.6607 O   0  0  0  0  0  0  0  0  0  0  0  0
  2  1  1  6
  2  5  1  0
  2  3  1  0
  4  3  1  0
  5 11  1  0
  6  5  2  0
  8  7  1  6
  8  9  1  0
 10  8  1  0
 10 12  1  0
 10 11  1  6
 12 13  2  0
 12 14  1  0
 14 15  1  0
 15 16  1  1
 17 16  1  0
 17 21  1  0
 18 17  2  0
 19 15  1  0
 19 20  1  0
 22 19  2  0
M  END
$$$$
