CTD.pdb
     RDKit          3D

 22 21  0  0  1  0  0  0  0  0999 V2000
    8.3972  -14.4118   14.4042 N   0  0  0  0  0  0  0  0  0  0  0  0
    8.3674  -15.2823   15.5615 C   0  0  1  0  0  0  0  0  0  0  0  0
    9.1062  -16.5606   15.1836 C   0  0  0  0  0  0  0  0  0  0  0  0
    7.8646  -17.7573   14.6380 S   0  0  0  0  0  0  0  0  0  0  0  0
    9.0838  -14.6128   16.6816 C   0  0  0  0  0  0  0  0  0  0  0  0
   10.0991  -13.9083   16.5219 O   0  0  0  0  0  0  0  0  0  0  0  0
    7.2953  -12.6625   19.5869 C   0  0  0  0  0  0  0  0  0  0  0  0
    8.1663  -13.7618   20.1425 C   0  0  1  0  0  0  0  0  0  0  0  0
    7.3757  -14.8948   20.3115 O   0  0  0  0  0  0  0  0  0  0  0  0
    9.2634  -14.1445   19.1452 C   0  0  2  0  0  0  0  0  0  0  0  0
    8.6065  -14.7666   18.0242 N   0  0  0  0  0  0  0  0  0  0  0  0
   10.2142  -15.0866   19.7422 C   0  0  0  0  0  0  0  0  0  0  0  0
   10.1611  -16.3087   19.5001 O   0  0  0  0  0  0  0  0  0  0  0  0
   11.2372  -14.6351   20.6243 N   0  0  0  0  0  0  0  0  0  0  0  0
   12.2054  -15.5105   21.2197 C   0  0  1  0  0  0  0  0  0  0  0  0
   13.5218  -14.8621   21.5024 C   0  0  0  0  0  0  0  0  0  0  0  0
   14.5450  -15.7298   22.0607 C   0  0  0  0  0  0  0  0  0  0  0  0
   15.2842  -15.3082   22.9809 O   0  0  0  0  0  0  0  0  0  0  0  0
   11.6258  -16.2248   22.3564 C   0  0  0  0  0  0  0  0  0  0  0  0
   10.3603  -15.9511   22.8441 O   0  0  0  0  0  0  0  0  0  0  0  0
   14.7566  -17.0253   21.6261 O   0  0  0  0  0  0  0  0  0  0  0  0
   12.2814  -17.1249   22.9284 O   0  0  0  0  0  0  0  0  0  0  0  0
  2  1  1  6
  2  5  1  0
  2  3  1  0
  4  3  1  0
  5 11  1  0
  6  5  2  0
  8  7  1  6
  8  9  1  0
 10  8  1  0
 10 12  1  0
 10 11  1  6
 12 13  2  0
 12 14  1  0
 14 15  1  0
 15 16  1  1
 17 16  1  0
 17 21  1  0
 18 17  2  0
 19 15  1  0
 19 20  1  0
 22 19  2  0
M  END
$$$$
