CTD.pdb
     RDKit          3D

 22 21  0  0  1  0  0  0  0  0999 V2000
    4.8770  -18.4035   18.7159 N   0  0  0  0  0  0  0  0  0  0  0  0
    5.0869  -17.5704   19.8821 C   0  0  1  0  0  0  0  0  0  0  0  0
    4.7240  -18.4055   21.1043 C   0  0  0  0  0  0  0  0  0  0  0  0
    2.9521  -18.1890   21.3959 S   0  0  0  0  0  0  0  0  0  0  0  0
    6.5266  -17.1981   19.9504 C   0  0  0  0  0  0  0  0  0  0  0  0
    7.4331  -17.8652   19.4156 O   0  0  0  0  0  0  0  0  0  0  0  0
    7.4705  -13.3790   19.7798 C   0  0  0  0  0  0  0  0  0  0  0  0
    8.2473  -14.0466   20.8874 C   0  0  1  0  0  0  0  0  0  0  0  0
    7.5685  -13.8281   22.0827 O   0  0  0  0  0  0  0  0  0  0  0  0
    8.2901  -15.5638   20.6852 C   0  0  2  0  0  0  0  0  0  0  0  0
    6.9232  -16.0178   20.6601 N   0  0  0  0  0  0  0  0  0  0  0  0
    9.0065  -16.2223   21.7812 C   0  0  0  0  0  0  0  0  0  0  0  0
    8.4066  -16.6594   22.7833 O   0  0  0  0  0  0  0  0  0  0  0  0
   10.4206  -16.3862   21.7383 N   0  0  0  0  0  0  0  0  0  0  0  0
   11.1694  -17.0341   22.7765 C   0  0  1  0  0  0  0  0  0  0  0  0
   12.3956  -17.7397   22.2949 C   0  0  0  0  0  0  0  0  0  0  0  0
   12.1819  -18.7452   21.2678 C   0  0  0  0  0  0  0  0  0  0  0  0
   11.0845  -19.3472   21.2052 O   0  0  0  0  0  0  0  0  0  0  0  0
   11.3964  -16.1213   23.8960 C   0  0  0  0  0  0  0  0  0  0  0  0
   11.1410  -14.7638   23.8167 O   0  0  0  0  0  0  0  0  0  0  0  0
   13.1416  -19.0855   20.3324 O   0  0  0  0  0  0  0  0  0  0  0  0
   11.8392  -16.5617   24.9809 O   0  0  0  0  0  0  0  0  0  0  0  0
  2  1  1  6
  2  5  1  0
  2  3  1  0
  4  3  1  0
  5 11  1  0
  6  5  2  0
  8  7  1  6
  8  9  1  0
 10  8  1  0
 10 12  1  0
 10 11  1  1
 12 13  2  0
 12 14  1  0
 14 15  1  0
 15 16  1  6
 17 16  1  0
 17 21  1  0
 18 17  2  0
 19 15  1  0
 19 20  1  0
 22 19  2  0
M  END
$$$$
