CTD.pdb
     RDKit          3D

 22 21  0  0  1  0  0  0  0  0999 V2000
    5.4345  -14.6431   26.3845 N   0  0  0  0  0  0  0  0  0  0  0  0
    6.4359  -13.9576   25.5937 C   0  0  1  0  0  0  0  0  0  0  0  0
    7.3163  -13.1750   26.5606 C   0  0  0  0  0  0  0  0  0  0  0  0
    6.3654  -11.7379   27.1099 S   0  0  0  0  0  0  0  0  0  0  0  0
    7.2634  -14.9730   24.8865 C   0  0  0  0  0  0  0  0  0  0  0  0
    7.3772  -16.1528   25.2710 O   0  0  0  0  0  0  0  0  0  0  0  0
    9.3125  -16.0966   20.5461 C   0  0  0  0  0  0  0  0  0  0  0  0
    8.6072  -15.1227   21.4571 C   0  0  1  0  0  0  0  0  0  0  0  0
    7.2532  -15.1332   21.1345 O   0  0  0  0  0  0  0  0  0  0  0  0
    8.7075  -15.5719   22.9175 C   0  0  2  0  0  0  0  0  0  0  0  0
    7.9784  -14.6066   23.6996 N   0  0  0  0  0  0  0  0  0  0  0  0
   10.1033  -15.6115   23.3629 C   0  0  0  0  0  0  0  0  0  0  0  0
   10.7411  -14.5676   23.6044 O   0  0  0  0  0  0  0  0  0  0  0  0
   10.7823  -16.8516   23.5359 N   0  0  0  0  0  0  0  0  0  0  0  0
   12.1614  -16.9465   23.9197 C   0  0  1  0  0  0  0  0  0  0  0  0
   12.5192  -18.2296   24.5971 C   0  0  0  0  0  0  0  0  0  0  0  0
   12.2387  -18.2900   26.0216 C   0  0  0  0  0  0  0  0  0  0  0  0
   11.8608  -17.2589   26.6256 O   0  0  0  0  0  0  0  0  0  0  0  0
   13.0341  -16.5875   22.8027 C   0  0  0  0  0  0  0  0  0  0  0  0
   12.6057  -16.5962   21.4872 O   0  0  0  0  0  0  0  0  0  0  0  0
   12.3673  -19.4464   26.7686 O   0  0  0  0  0  0  0  0  0  0  0  0
   14.2214  -16.2553   23.0197 O   0  0  0  0  0  0  0  0  0  0  0  0
  2  1  1  1
  2  5  1  0
  2  3  1  0
  4  3  1  0
  5 11  1  0
  6  5  2  0
  8  7  1  6
  8  9  1  0
 10  8  1  0
 10 12  1  0
 10 11  1  1
 12 13  2  0
 12 14  1  0
 14 15  1  0
 15 16  1  6
 17 16  1  0
 17 21  1  0
 18 17  2  0
 19 15  1  0
 19 20  1  0
 22 19  2  0
M  END
$$$$
