CTD.pdb
     RDKit          3D

 22 21  0  0  1  0  0  0  0  0999 V2000
    8.8627  -14.9489   15.0403 N   0  0  0  0  0  0  0  0  0  0  0  0
    8.4462  -15.6652   16.2283 C   0  0  1  0  0  0  0  0  0  0  0  0
    8.8402  -17.1249   16.0364 C   0  0  0  0  0  0  0  0  0  0  0  0
    7.6845  -17.8408   14.8434 S   0  0  0  0  0  0  0  0  0  0  0  0
    9.1746  -15.1091   17.4015 C   0  0  0  0  0  0  0  0  0  0  0  0
   10.3246  -14.6345   17.3321 O   0  0  0  0  0  0  0  0  0  0  0  0
    7.3394  -12.7756   19.8257 C   0  0  0  0  0  0  0  0  0  0  0  0
    8.0397  -13.8325   20.6434 C   0  0  1  0  0  0  0  0  0  0  0  0
    7.1203  -14.8386   20.9262 O   0  0  0  0  0  0  0  0  0  0  0  0
    9.1646  -14.4883   19.8378 C   0  0  2  0  0  0  0  0  0  0  0  0
    8.5486  -15.1048   18.6907 N   0  0  0  0  0  0  0  0  0  0  0  0
    9.8567  -15.5079   20.6310 C   0  0  0  0  0  0  0  0  0  0  0  0
    9.6053  -16.7218   20.4958 O   0  0  0  0  0  0  0  0  0  0  0  0
   10.8460  -15.1443   21.5891 N   0  0  0  0  0  0  0  0  0  0  0  0
   11.4340  -16.0780   22.5060 C   0  0  1  0  0  0  0  0  0  0  0  0
   12.8810  -15.8301   22.7851 C   0  0  0  0  0  0  0  0  0  0  0  0
   13.7676  -15.9119   21.6367 C   0  0  0  0  0  0  0  0  0  0  0  0
   13.5564  -16.7694   20.7474 O   0  0  0  0  0  0  0  0  0  0  0  0
   10.6029  -16.2220   23.7003 C   0  0  0  0  0  0  0  0  0  0  0  0
   10.8088  -17.2181   24.6382 O   0  0  0  0  0  0  0  0  0  0  0  0
   14.8576  -15.0791   21.4628 O   0  0  0  0  0  0  0  0  0  0  0  0
    9.6604  -15.4239   23.9052 O   0  0  0  0  0  0  0  0  0  0  0  0
  2  1  1  6
  2  5  1  0
  2  3  1  0
  4  3  1  0
  5 11  1  0
  6  5  2  0
  8  7  1  6
  8  9  1  0
 10  8  1  0
 10 12  1  0
 10 11  1  6
 12 13  2  0
 12 14  1  0
 14 15  1  0
 15 16  1  1
 17 16  1  0
 17 21  1  0
 18 17  2  0
 19 15  1  0
 19 20  1  0
 22 19  2  0
M  END
$$$$
