CTD.pdb
     RDKit          3D

 22 21  0  0  1  0  0  0  0  0999 V2000
    8.3573  -14.7871   15.0886 N   0  0  0  0  0  0  0  0  0  0  0  0
    8.3450  -15.6313   16.2656 C   0  0  1  0  0  0  0  0  0  0  0  0
    9.1129  -16.9010   15.9181 C   0  0  0  0  0  0  0  0  0  0  0  0
    8.8968  -18.0534   17.2953 S   0  0  0  0  0  0  0  0  0  0  0  0
    9.0442  -14.9203   17.3709 C   0  0  0  0  0  0  0  0  0  0  0  0
    9.5843  -13.8056   17.2351 O   0  0  0  0  0  0  0  0  0  0  0  0
    7.6996  -13.0845   18.9800 C   0  0  0  0  0  0  0  0  0  0  0  0
    8.0616  -13.9726   20.1445 C   0  0  1  0  0  0  0  0  0  0  0  0
    7.0569  -14.9250   20.2894 O   0  0  0  0  0  0  0  0  0  0  0  0
    9.3525  -14.7453   19.8599 C   0  0  2  0  0  0  0  0  0  0  0  0
    9.1175  -15.5219   18.6696 N   0  0  0  0  0  0  0  0  0  0  0  0
    9.6885  -15.6395   20.9715 C   0  0  0  0  0  0  0  0  0  0  0  0
    9.1774  -16.7721   21.0752 O   0  0  0  0  0  0  0  0  0  0  0  0
   10.6159  -15.2422   21.9769 N   0  0  0  0  0  0  0  0  0  0  0  0
   11.0961  -16.1278   22.9984 C   0  0  1  0  0  0  0  0  0  0  0  0
   12.4837  -15.8265   23.4640 C   0  0  0  0  0  0  0  0  0  0  0  0
   13.5521  -16.2358   22.5681 C   0  0  0  0  0  0  0  0  0  0  0  0
   13.5617  -17.3990   22.1017 O   0  0  0  0  0  0  0  0  0  0  0  0
   10.1122  -16.2593   24.0720 C   0  0  0  0  0  0  0  0  0  0  0  0
   10.1640  -17.2726   25.0128 O   0  0  0  0  0  0  0  0  0  0  0  0
   14.5845  -15.3970   22.1905 O   0  0  0  0  0  0  0  0  0  0  0  0
    9.1755  -15.4341   24.1652 O   0  0  0  0  0  0  0  0  0  0  0  0
  2  1  1  6
  2  5  1  0
  2  3  1  0
  4  3  1  0
  5 11  1  0
  6  5  2  0
  8  7  1  6
  8  9  1  0
 10  8  1  0
 10 12  1  0
 10 11  1  6
 12 13  2  0
 12 14  1  0
 14 15  1  0
 15 16  1  1
 17 16  1  0
 17 21  1  0
 18 17  2  0
 19 15  1  0
 19 20  1  0
 22 19  2  0
M  END
$$$$
