AGH.pdb
     RDKit          3D

 20 20  0  0  1  0  0  0  0  0999 V2000
   19.3394  -14.3917  -21.8302 C   0  0  0  0  0  0  0  0  0  0  0  0
   18.8061  -14.1696  -20.4450 C   0  0  2  0  0  0  0  0  0  0  0  0
   17.3682  -14.1985  -20.4580 N   0  0  0  0  0  0  0  0  0  0  0  0
   19.2593  -12.8608  -19.8872 C   0  0  0  0  0  0  0  0  0  0  0  0
   20.0317  -12.7869  -18.8961 O   0  0  0  0  0  0  0  0  0  0  0  0
   18.8265  -11.6419  -20.4663 N   0  0  0  0  0  0  0  0  0  0  0  0
   19.2624  -10.3910  -19.9299 C   0  0  0  0  0  0  0  0  0  0  0  0
   18.3721   -9.9212  -18.8138 C   0  0  0  0  0  0  0  0  0  0  0  0
   17.1536   -9.7251  -18.9622 O   0  0  0  0  0  0  0  0  0  0  0  0
   18.9278   -9.6856  -17.5270 N   0  0  0  0  0  0  0  0  0  0  0  0
   18.1769   -9.2284  -16.3997 C   0  0  1  0  0  0  0  0  0  0  0  0
   18.3559  -10.1332  -15.1874 C   0  0  0  0  0  0  0  0  0  0  0  0
   17.7079  -11.4404  -15.3585 C   0  0  0  0  0  0  0  0  0  0  0  0
   16.8358  -11.8210  -16.3563 C   0  0  0  0  0  0  0  0  0  0  0  0
   16.4831  -13.1115  -16.1271 N   0  0  0  0  0  0  0  0  0  0  0  0
   17.1104  -13.5290  -15.0246 C   0  0  0  0  0  0  0  0  0  0  0  0
   17.8600  -12.5071  -14.5537 N   0  0  0  0  0  0  0  0  0  0  0  0
   18.5120   -7.8565  -15.9862 C   0  0  0  0  0  0  0  0  0  0  0  0
   19.4856   -7.2426  -16.4717 O   0  0  0  0  0  0  0  0  0  0  0  0
   17.7379   -7.2177  -15.0364 O   0  0  0  0  0  0  0  0  0  0  0  0
  2  1  1  6
  3  2  1  0
  4  5  2  0
  4  2  1  0
  6  4  1  0
  7  6  1  0
  8 10  1  0
  8  7  1  0
  9  8  2  0
 11 10  1  0
 11 12  1  1
 12 13  1  0
 13 17  1  0
 13 14  2  0
 14 15  1  0
 16 15  1  0
 17 16  2  0
 18 11  1  0
 19 18  2  0
 20 18  1  0
M  END
$$$$
