AGH.pdb
     RDKit          3D

 20 20  0  0  1  0  0  0  0  0999 V2000
   19.8631  -13.2239  -17.0361 C   0  0  0  0  0  0  0  0  0  0  0  0
   20.1643  -11.9391  -17.7511 C   0  0  2  0  0  0  0  0  0  0  0  0
   21.2628  -12.1249  -18.6606 N   0  0  0  0  0  0  0  0  0  0  0  0
   20.5082  -10.8469  -16.7927 C   0  0  0  0  0  0  0  0  0  0  0  0
   19.6765  -10.4002  -15.9603 O   0  0  0  0  0  0  0  0  0  0  0  0
   21.8029  -10.2706  -16.7913 N   0  0  0  0  0  0  0  0  0  0  0  0
   22.0948   -9.1490  -15.9550 C   0  0  0  0  0  0  0  0  0  0  0  0
   21.6093   -7.8609  -16.5586 C   0  0  0  0  0  0  0  0  0  0  0  0
   21.9380   -7.4855  -17.6972 O   0  0  0  0  0  0  0  0  0  0  0  0
   20.7371   -7.0230  -15.8121 N   0  0  0  0  0  0  0  0  0  0  0  0
   20.1425   -5.8268  -16.3211 C   0  0  1  0  0  0  0  0  0  0  0  0
   18.6224   -5.8581  -16.2274 C   0  0  0  0  0  0  0  0  0  0  0  0
   18.0235   -6.8680  -17.1101 C   0  0  0  0  0  0  0  0  0  0  0  0
   18.4389   -7.2313  -18.3736 C   0  0  0  0  0  0  0  0  0  0  0  0
   17.5999   -8.1992  -18.8223 N   0  0  0  0  0  0  0  0  0  0  0  0
   16.6887   -8.4374  -17.8757 C   0  0  0  0  0  0  0  0  0  0  0  0
   16.9472   -7.6232  -16.8277 N   0  0  0  0  0  0  0  0  0  0  0  0
   20.6064   -4.6049  -15.6450 C   0  0  0  0  0  0  0  0  0  0  0  0
   21.3301   -4.6506  -14.6278 O   0  0  0  0  0  0  0  0  0  0  0  0
   20.2396   -3.3668  -16.1372 O   0  0  0  0  0  0  0  0  0  0  0  0
  2  1  1  1
  3  2  1  0
  4  5  2  0
  4  2  1  0
  6  4  1  0
  7  6  1  0
  8 10  1  0
  8  7  1  0
  9  8  2  0
 11 10  1  0
 11 12  1  1
 12 13  1  0
 13 17  1  0
 13 14  2  0
 14 15  1  0
 16 15  1  0
 17 16  2  0
 18 11  1  0
 19 18  2  0
 20 18  1  0
M  END
$$$$
