AGH.pdb
     RDKit          3D

 20 20  0  0  1  0  0  0  0  0999 V2000
   17.3702  -12.1864  -18.1841 C   0  0  0  0  0  0  0  0  0  0  0  0
   17.2758  -11.6874  -16.7718 C   0  0  2  0  0  0  0  0  0  0  0  0
   15.9700  -11.1358  -16.5283 N   0  0  0  0  0  0  0  0  0  0  0  0
   18.3036  -10.6413  -16.4909 C   0  0  0  0  0  0  0  0  0  0  0  0
   19.5368  -10.8674  -16.6023 O   0  0  0  0  0  0  0  0  0  0  0  0
   17.9155   -9.3406  -16.0835 N   0  0  0  0  0  0  0  0  0  0  0  0
   18.9021   -8.3442  -15.8075 C   0  0  0  0  0  0  0  0  0  0  0  0
   18.5969   -7.0478  -16.5043 C   0  0  0  0  0  0  0  0  0  0  0  0
   18.5350   -6.9474  -17.7418 O   0  0  0  0  0  0  0  0  0  0  0  0
   18.3661   -5.8763  -15.7335 N   0  0  0  0  0  0  0  0  0  0  0  0
   17.8389   -4.6576  -16.2632 C   0  0  1  0  0  0  0  0  0  0  0  0
   16.5159   -4.2753  -15.6124 C   0  0  0  0  0  0  0  0  0  0  0  0
   15.4954   -5.3228  -15.7513 C   0  0  0  0  0  0  0  0  0  0  0  0
   14.8307   -5.7006  -16.8986 C   0  0  0  0  0  0  0  0  0  0  0  0
   13.9776   -6.7041  -16.5708 N   0  0  0  0  0  0  0  0  0  0  0  0
   14.1003   -6.9498  -15.2640 C   0  0  0  0  0  0  0  0  0  0  0  0
   15.0288   -6.1050  -14.7618 N   0  0  0  0  0  0  0  0  0  0  0  0
   18.7519   -3.5119  -16.1252 C   0  0  0  0  0  0  0  0  0  0  0  0
   19.8118   -3.5910  -15.4687 O   0  0  0  0  0  0  0  0  0  0  0  0
   18.4416   -2.3101  -16.7325 O   0  0  0  0  0  0  0  0  0  0  0  0
  2  1  1  6
  3  2  1  0
  4  5  2  0
  4  2  1  0
  6  4  1  0
  7  6  1  0
  8 10  1  0
  8  7  1  0
  9  8  2  0
 11 10  1  0
 11 12  1  1
 12 13  1  0
 13 17  1  0
 13 14  2  0
 14 15  1  0
 16 15  1  0
 17 16  2  0
 18 11  1  0
 19 18  2  0
 20 18  1  0
M  END
$$$$
