AGH.pdb
     RDKit          3D

 20 20  0  0  1  0  0  0  0  0999 V2000
   24.2069  -17.0753  -21.4335 C   0  0  0  0  0  0  0  0  0  0  0  0
   23.4488  -18.0922  -20.6310 C   0  0  2  0  0  0  0  0  0  0  0  0
   22.0401  -17.9847  -20.9002 N   0  0  0  0  0  0  0  0  0  0  0  0
   23.6771  -17.9143  -19.1661 C   0  0  0  0  0  0  0  0  0  0  0  0
   24.8014  -18.1095  -18.6351 O   0  0  0  0  0  0  0  0  0  0  0  0
   22.6171  -17.5136  -18.3150 N   0  0  0  0  0  0  0  0  0  0  0  0
   22.8311  -17.3748  -16.9088 C   0  0  0  0  0  0  0  0  0  0  0  0
   21.8213  -18.1512  -16.1109 C   0  0  0  0  0  0  0  0  0  0  0  0
   21.3699  -19.2483  -16.4821 O   0  0  0  0  0  0  0  0  0  0  0  0
   21.3501  -17.6256  -14.8772 N   0  0  0  0  0  0  0  0  0  0  0  0
   20.4441  -18.3084  -14.0075 C   0  0  1  0  0  0  0  0  0  0  0  0
   20.0678  -17.4650  -12.7961 C   0  0  0  0  0  0  0  0  0  0  0  0
   19.3740  -16.2241  -13.1662 C   0  0  0  0  0  0  0  0  0  0  0  0
   19.9283  -15.0781  -13.6957 C   0  0  0  0  0  0  0  0  0  0  0  0
   18.9257  -14.1828  -13.8839 N   0  0  0  0  0  0  0  0  0  0  0  0
   17.7809  -14.7443  -13.4874 C   0  0  0  0  0  0  0  0  0  0  0  0
   18.0544  -15.9934  -13.0481 N   0  0  0  0  0  0  0  0  0  0  0  0
   19.1961  -18.7248  -14.6667 C   0  0  0  0  0  0  0  0  0  0  0  0
   18.8580  -18.2718  -15.7807 O   0  0  0  0  0  0  0  0  0  0  0  0
   18.3660  -19.6405  -14.0486 O   0  0  0  0  0  0  0  0  0  0  0  0
  2  1  1  6
  3  2  1  0
  4  5  2  0
  4  2  1  0
  6  4  1  0
  7  6  1  0
  8 10  1  0
  8  7  1  0
  9  8  2  0
 11 10  1  0
 11 12  1  1
 12 13  1  0
 13 17  1  0
 13 14  2  0
 14 15  1  0
 16 15  1  0
 17 16  2  0
 18 11  1  0
 19 18  2  0
 20 18  1  0
M  END
$$$$
