AGH.pdb
     RDKit          3D

 20 20  0  0  1  0  0  0  0  0999 V2000
   18.8794  -12.8029  -17.7188 C   0  0  0  0  0  0  0  0  0  0  0  0
   20.3502  -13.0955  -17.6563 C   0  0  2  0  0  0  0  0  0  0  0  0
   20.7135  -13.5244  -16.3325 N   0  0  0  0  0  0  0  0  0  0  0  0
   21.1628  -11.8959  -18.0170 C   0  0  0  0  0  0  0  0  0  0  0  0
   21.0813  -11.3470  -19.1468 O   0  0  0  0  0  0  0  0  0  0  0  0
   22.0655  -11.3294  -17.0828 N   0  0  0  0  0  0  0  0  0  0  0  0
   22.8356  -10.1761  -17.4284 C   0  0  0  0  0  0  0  0  0  0  0  0
   22.3052   -8.9329  -16.7710 C   0  0  0  0  0  0  0  0  0  0  0  0
   22.8937   -7.8393  -16.8260 O   0  0  0  0  0  0  0  0  0  0  0  0
   21.0808   -8.9894  -16.0515 N   0  0  0  0  0  0  0  0  0  0  0  0
   20.4580   -7.8591  -15.4366 C   0  0  1  0  0  0  0  0  0  0  0  0
   18.9480   -8.0267  -15.3263 C   0  0  0  0  0  0  0  0  0  0  0  0
   18.2742   -7.9396  -16.6287 C   0  0  0  0  0  0  0  0  0  0  0  0
   18.7722   -7.4042  -17.7976 C   0  0  0  0  0  0  0  0  0  0  0  0
   17.8153   -7.5323  -18.7516 N   0  0  0  0  0  0  0  0  0  0  0  0
   16.7526   -8.1270  -18.2037 C   0  0  0  0  0  0  0  0  0  0  0  0
   17.0326   -8.3765  -16.9047 N   0  0  0  0  0  0  0  0  0  0  0  0
   20.9738   -7.5625  -14.0907 C   0  0  0  0  0  0  0  0  0  0  0  0
   21.7937   -8.3129  -13.5205 O   0  0  0  0  0  0  0  0  0  0  0  0
   20.5486   -6.4270  -13.4277 O   0  0  0  0  0  0  0  0  0  0  0  0
  2  1  1  1
  3  2  1  0
  4  5  2  0
  4  2  1  0
  6  4  1  0
  7  6  1  0
  8 10  1  0
  8  7  1  0
  9  8  2  0
 11 10  1  0
 11 12  1  1
 12 13  1  0
 13 17  1  0
 13 14  2  0
 14 15  1  0
 16 15  1  0
 17 16  2  0
 18 11  1  0
 19 18  2  0
 20 18  1  0
M  END
$$$$
