AGH.pdb
     RDKit          3D

 20 20  0  0  1  0  0  0  0  0999 V2000
   15.5524  -13.9100  -16.6449 C   0  0  0  0  0  0  0  0  0  0  0  0
   16.7159  -13.2813  -17.3546 C   0  0  2  0  0  0  0  0  0  0  0  0
   17.9488  -13.8590  -16.8913 N   0  0  0  0  0  0  0  0  0  0  0  0
   16.7593  -11.8052  -17.1337 C   0  0  0  0  0  0  0  0  0  0  0  0
   16.2446  -10.9915  -17.9443 O   0  0  0  0  0  0  0  0  0  0  0  0
   17.3919  -11.2667  -15.9856 N   0  0  0  0  0  0  0  0  0  0  0  0
   17.3270   -9.8650  -15.7141 C   0  0  0  0  0  0  0  0  0  0  0  0
   18.5259   -9.3896  -14.9423 C   0  0  0  0  0  0  0  0  0  0  0  0
   18.7250   -9.6939  -13.7536 O   0  0  0  0  0  0  0  0  0  0  0  0
   19.4839   -8.5561  -15.5807 N   0  0  0  0  0  0  0  0  0  0  0  0
   20.6769   -8.0785  -14.9544 C   0  0  1  0  0  0  0  0  0  0  0  0
   21.8828   -8.1609  -15.8815 C   0  0  0  0  0  0  0  0  0  0  0  0
   22.1021   -9.5167  -16.4026 C   0  0  0  0  0  0  0  0  0  0  0  0
   21.9184  -10.7112  -15.7389 C   0  0  0  0  0  0  0  0  0  0  0  0
   22.2390  -11.7138  -16.5959 N   0  0  0  0  0  0  0  0  0  0  0  0
   22.6113  -11.1707  -17.7576 C   0  0  0  0  0  0  0  0  0  0  0  0
   22.5279   -9.8263  -17.6401 N   0  0  0  0  0  0  0  0  0  0  0  0
   20.5757   -6.6907  -14.4759 C   0  0  0  0  0  0  0  0  0  0  0  0
   21.4695   -6.1696  -13.7758 O   0  0  0  0  0  0  0  0  0  0  0  0
   19.4680   -5.9315  -14.8017 O   0  0  0  0  0  0  0  0  0  0  0  0
  2  1  1  1
  3  2  1  0
  4  5  2  0
  4  2  1  0
  6  4  1  0
  7  6  1  0
  8 10  1  0
  8  7  1  0
  9  8  2  0
 11 10  1  0
 11 12  1  6
 12 13  1  0
 13 17  1  0
 13 14  2  0
 14 15  1  0
 16 15  1  0
 17 16  2  0
 18 11  1  0
 19 18  2  0
 20 18  1  0
M  END
$$$$
