AGH.pdb
     RDKit          3D

 20 20  0  0  1  0  0  0  0  0999 V2000
   13.8186  -15.5406    5.1445 C   0  0  0  0  0  0  0  0  0  0  0  0
   13.6746  -16.5117    4.0093 C   0  0  2  0  0  0  0  0  0  0  0  0
   12.5006  -17.3212    4.1965 N   0  0  0  0  0  0  0  0  0  0  0  0
   14.8661  -17.4048    3.8983 C   0  0  0  0  0  0  0  0  0  0  0  0
   16.0181  -16.9575    3.6591 O   0  0  0  0  0  0  0  0  0  0  0  0
   14.7340  -18.8063    4.0616 N   0  0  0  0  0  0  0  0  0  0  0  0
   15.8904  -19.6462    4.0690 C   0  0  0  0  0  0  0  0  0  0  0  0
   15.5268  -21.0957    4.2294 C   0  0  0  0  0  0  0  0  0  0  0  0
   14.4596  -21.4685    4.7468 O   0  0  0  0  0  0  0  0  0  0  0  0
   16.4277  -22.0976    3.7770 N   0  0  0  0  0  0  0  0  0  0  0  0
   16.1467  -23.4991    3.7990 C   0  0  1  0  0  0  0  0  0  0  0  0
   16.2760  -24.1307    2.4189 C   0  0  0  0  0  0  0  0  0  0  0  0
   15.4971  -23.4183    1.3972 C   0  0  0  0  0  0  0  0  0  0  0  0
   14.1665  -23.5943    1.0816 C   0  0  0  0  0  0  0  0  0  0  0  0
   13.8613  -22.7300    0.0806 N   0  0  0  0  0  0  0  0  0  0  0  0
   14.9599  -22.0344   -0.2236 C   0  0  0  0  0  0  0  0  0  0  0  0
   15.9612  -22.4551    0.5816 N   0  0  0  0  0  0  0  0  0  0  0  0
   17.0079  -24.2579    4.7198 C   0  0  0  0  0  0  0  0  0  0  0  0
   18.0291  -23.7526    5.2319 O   0  0  0  0  0  0  0  0  0  0  0  0
   16.6909  -25.5654    5.0355 O   0  0  0  0  0  0  0  0  0  0  0  0
  2  1  1  1
  3  2  1  0
  4  5  2  0
  4  2  1  0
  6  4  1  0
  7  6  1  0
  8 10  1  0
  8  7  1  0
  9  8  2  0
 11 10  1  0
 11 12  1  6
 12 13  1  0
 13 17  1  0
 13 14  2  0
 14 15  1  0
 16 15  1  0
 17 16  2  0
 18 11  1  0
 19 18  2  0
 20 18  1  0
M  END
$$$$
