AGH.pdb
     RDKit          3D

 20 20  0  0  1  0  0  0  0  0999 V2000
   13.8914  -12.2192  -11.2670 C   0  0  0  0  0  0  0  0  0  0  0  0
   15.3398  -12.0012  -11.5941 C   0  0  2  0  0  0  0  0  0  0  0  0
   16.1663  -12.4607  -10.5105 N   0  0  0  0  0  0  0  0  0  0  0  0
   15.6325  -10.5593  -11.8490 C   0  0  0  0  0  0  0  0  0  0  0  0
   15.2474   -9.9725  -12.8937 O   0  0  0  0  0  0  0  0  0  0  0  0
   16.3651   -9.7952  -10.9067 N   0  0  0  0  0  0  0  0  0  0  0  0
   16.6984   -8.4330  -11.1822 C   0  0  0  0  0  0  0  0  0  0  0  0
   18.1848   -8.2098  -11.1773 C   0  0  0  0  0  0  0  0  0  0  0  0
   18.9204   -8.5983  -10.2536 O   0  0  0  0  0  0  0  0  0  0  0  0
   18.7938   -7.5278  -12.2653 N   0  0  0  0  0  0  0  0  0  0  0  0
   20.2043   -7.3454  -12.4102 C   0  0  1  0  0  0  0  0  0  0  0  0
   20.9242   -8.6558  -12.7014 C   0  0  0  0  0  0  0  0  0  0  0  0
   20.4680   -9.2852  -13.9479 C   0  0  0  0  0  0  0  0  0  0  0  0
   19.4806   -8.8398  -14.8009 C   0  0  0  0  0  0  0  0  0  0  0  0
   19.3892   -9.7253  -15.8256 N   0  0  0  0  0  0  0  0  0  0  0  0
   20.2865  -10.6937  -15.6254 C   0  0  0  0  0  0  0  0  0  0  0  0
   20.9470  -10.4251  -14.4767 N   0  0  0  0  0  0  0  0  0  0  0  0
   20.5689   -6.3908  -13.4691 C   0  0  0  0  0  0  0  0  0  0  0  0
   19.7133   -5.9023  -14.2371 O   0  0  0  0  0  0  0  0  0  0  0  0
   21.8890   -6.0156  -13.6299 O   0  0  0  0  0  0  0  0  0  0  0  0
  2  1  1  1
  3  2  1  0
  4  5  2  0
  4  2  1  0
  6  4  1  0
  7  6  1  0
  8 10  1  0
  8  7  1  0
  9  8  2  0
 11 10  1  0
 11 12  1  6
 12 13  1  0
 13 17  1  0
 13 14  2  0
 14 15  1  0
 16 15  1  0
 17 16  2  0
 18 11  1  0
 19 18  2  0
 20 18  1  0
M  END
$$$$
