AGH.pdb
     RDKit          3D

 20 20  0  0  1  0  0  0  0  0999 V2000
   19.2041   -9.2258  -18.5840 C   0  0  0  0  0  0  0  0  0  0  0  0
   18.3083   -8.0238  -18.5094 C   0  0  2  0  0  0  0  0  0  0  0  0
   19.0029   -6.8587  -18.9875 N   0  0  0  0  0  0  0  0  0  0  0  0
   17.8449   -7.7724  -17.1124 C   0  0  0  0  0  0  0  0  0  0  0  0
   17.2016   -8.6319  -16.4555 O   0  0  0  0  0  0  0  0  0  0  0  0
   18.1198   -6.5378  -16.4731 N   0  0  0  0  0  0  0  0  0  0  0  0
   17.7217   -6.3202  -15.1179 C   0  0  0  0  0  0  0  0  0  0  0  0
   18.7981   -5.6363  -14.3224 C   0  0  0  0  0  0  0  0  0  0  0  0
   18.6322   -5.2614  -13.1489 O   0  0  0  0  0  0  0  0  0  0  0  0
   20.0660   -5.3994  -14.9193 N   0  0  0  0  0  0  0  0  0  0  0  0
   21.1618   -4.7682  -14.2526 C   0  0  1  0  0  0  0  0  0  0  0  0
   22.4851   -5.4663  -14.5388 C   0  0  0  0  0  0  0  0  0  0  0  0
   22.3912   -6.9269  -14.4129 C   0  0  0  0  0  0  0  0  0  0  0  0
   21.7373   -7.6449  -13.4342 C   0  0  0  0  0  0  0  0  0  0  0  0
   21.9079   -8.9639  -13.7055 N   0  0  0  0  0  0  0  0  0  0  0  0
   22.6427   -9.0730  -14.8151 C   0  0  0  0  0  0  0  0  0  0  0  0
   22.9389   -7.8271  -15.2485 N   0  0  0  0  0  0  0  0  0  0  0  0
   21.3225   -3.3472  -14.5994 C   0  0  0  0  0  0  0  0  0  0  0  0
   22.1804   -2.6281  -14.0451 O   0  0  0  0  0  0  0  0  0  0  0  0
   20.5098   -2.7796  -15.5621 O   0  0  0  0  0  0  0  0  0  0  0  0
  2  1  1  1
  3  2  1  0
  4  5  2  0
  4  2  1  0
  6  4  1  0
  7  6  1  0
  8 10  1  0
  8  7  1  0
  9  8  2  0
 11 10  1  0
 11 12  1  6
 12 13  1  0
 13 17  1  0
 13 14  2  0
 14 15  1  0
 16 15  1  0
 17 16  2  0
 18 11  1  0
 19 18  2  0
 20 18  1  0
M  END
$$$$
