AGH.pdb
     RDKit          3D

 20 20  0  0  1  0  0  0  0  0999 V2000
   16.4376  -12.9946  -18.0823 C   0  0  0  0  0  0  0  0  0  0  0  0
   17.4439  -12.6069  -17.0384 C   0  0  2  0  0  0  0  0  0  0  0  0
   16.7772  -12.2731  -15.8085 N   0  0  0  0  0  0  0  0  0  0  0  0
   18.2652  -11.4395  -17.4766 C   0  0  0  0  0  0  0  0  0  0  0  0
   19.0391  -11.4995  -18.4673 O   0  0  0  0  0  0  0  0  0  0  0  0
   18.1973  -10.2079  -16.7786 N   0  0  0  0  0  0  0  0  0  0  0  0
   19.0425   -9.1174  -17.1512 C   0  0  0  0  0  0  0  0  0  0  0  0
   19.5283   -8.3523  -15.9521 C   0  0  0  0  0  0  0  0  0  0  0  0
   19.0000   -8.4518  -14.8312 O   0  0  0  0  0  0  0  0  0  0  0  0
   20.6370   -7.4730  -16.0848 N   0  0  0  0  0  0  0  0  0  0  0  0
   21.1736   -6.6906  -15.0155 C   0  0  1  0  0  0  0  0  0  0  0  0
   22.6903   -6.8023  -14.9293 C   0  0  0  0  0  0  0  0  0  0  0  0
   23.1464   -8.1913  -14.7864 C   0  0  0  0  0  0  0  0  0  0  0  0
   22.3765   -9.3056  -14.5283 C   0  0  0  0  0  0  0  0  0  0  0  0
   23.2060  -10.3787  -14.4782 N   0  0  0  0  0  0  0  0  0  0  0  0
   24.4536   -9.9560  -14.6969 C   0  0  0  0  0  0  0  0  0  0  0  0
   24.4180   -8.6176  -14.8855 N   0  0  0  0  0  0  0  0  0  0  0  0
   20.8355   -5.2612  -15.1046 C   0  0  0  0  0  0  0  0  0  0  0  0
   20.3212   -4.7699  -16.1315 O   0  0  0  0  0  0  0  0  0  0  0  0
   21.0882   -4.4280  -14.0315 O   0  0  0  0  0  0  0  0  0  0  0  0
  2  1  1  6
  3  2  1  0
  4  5  2  0
  4  2  1  0
  6  4  1  0
  7  6  1  0
  8 10  1  0
  8  7  1  0
  9  8  2  0
 11 10  1  0
 11 12  1  6
 12 13  1  0
 13 17  1  0
 13 14  2  0
 14 15  1  0
 16 15  1  0
 17 16  2  0
 18 11  1  0
 19 18  2  0
 20 18  1  0
M  END
$$$$
