AGH.pdb
     RDKit          3D

 20 20  0  0  1  0  0  0  0  0999 V2000
   22.4082  -13.6082  -20.0698 C   0  0  0  0  0  0  0  0  0  0  0  0
   21.1882  -12.9189  -19.5320 C   0  0  2  0  0  0  0  0  0  0  0  0
   20.1746  -12.8418  -20.5495 N   0  0  0  0  0  0  0  0  0  0  0  0
   21.5038  -11.5389  -19.0570 C   0  0  0  0  0  0  0  0  0  0  0  0
   22.2749  -11.3253  -18.0854 O   0  0  0  0  0  0  0  0  0  0  0  0
   20.9354  -10.4091  -19.6964 N   0  0  0  0  0  0  0  0  0  0  0  0
   21.3118   -9.0883  -19.3010 C   0  0  0  0  0  0  0  0  0  0  0  0
   20.6211   -8.6662  -18.0345 C   0  0  0  0  0  0  0  0  0  0  0  0
   19.4807   -9.0549  -17.7284 O   0  0  0  0  0  0  0  0  0  0  0  0
   21.2831   -7.7861  -17.1361 N   0  0  0  0  0  0  0  0  0  0  0  0
   20.7538   -7.3833  -15.8707 C   0  0  1  0  0  0  0  0  0  0  0  0
   21.7357   -7.6337  -14.7333 C   0  0  0  0  0  0  0  0  0  0  0  0
   22.0896   -9.0527  -14.5958 C   0  0  0  0  0  0  0  0  0  0  0  0
   21.6336  -10.1093  -15.3552 C   0  0  0  0  0  0  0  0  0  0  0  0
   22.2179  -11.2400  -14.8836 N   0  0  0  0  0  0  0  0  0  0  0  0
   23.0134  -10.9079  -13.8637 C   0  0  0  0  0  0  0  0  0  0  0  0
   22.9355   -9.5698  -13.6870 N   0  0  0  0  0  0  0  0  0  0  0  0
   20.3640   -5.9653  -15.8199 C   0  0  0  0  0  0  0  0  0  0  0  0
   19.7006   -5.4993  -14.8696 O   0  0  0  0  0  0  0  0  0  0  0  0
   20.7348   -5.1146  -16.8439 O   0  0  0  0  0  0  0  0  0  0  0  0
  2  1  1  6
  3  2  1  0
  4  5  2  0
  4  2  1  0
  6  4  1  0
  7  6  1  0
  8 10  1  0
  8  7  1  0
  9  8  2  0
 11 10  1  0
 11 12  1  1
 12 13  1  0
 13 17  1  0
 13 14  2  0
 14 15  1  0
 16 15  1  0
 17 16  2  0
 18 11  1  0
 19 18  2  0
 20 18  1  0
M  END
$$$$
