AGH.pdb
     RDKit          3D

 20 20  0  0  1  0  0  0  0  0999 V2000
   19.4924  -16.2597  -17.8768 C   0  0  0  0  0  0  0  0  0  0  0  0
   19.3213  -15.0748  -16.9716 C   0  0  2  0  0  0  0  0  0  0  0  0
   17.9246  -14.7696  -16.8146 N   0  0  0  0  0  0  0  0  0  0  0  0
   20.0231  -13.8706  -17.5076 C   0  0  0  0  0  0  0  0  0  0  0  0
   19.9621  -13.5453  -18.7219 O   0  0  0  0  0  0  0  0  0  0  0  0
   20.7918  -13.0437  -16.6510 N   0  0  0  0  0  0  0  0  0  0  0  0
   21.4056  -11.8545  -17.1526 C   0  0  0  0  0  0  0  0  0  0  0  0
   21.7678  -10.9036  -16.0463 C   0  0  0  0  0  0  0  0  0  0  0  0
   21.4147  -11.0775  -14.8671 O   0  0  0  0  0  0  0  0  0  0  0  0
   22.5461   -9.7514  -16.3405 N   0  0  0  0  0  0  0  0  0  0  0  0
   22.9200   -8.7669  -15.3738 C   0  0  1  0  0  0  0  0  0  0  0  0
   24.3811   -8.3578  -15.5086 C   0  0  0  0  0  0  0  0  0  0  0  0
   25.2891   -9.5120  -15.5440 C   0  0  0  0  0  0  0  0  0  0  0  0
   25.2968  -10.6005  -14.6978 C   0  0  0  0  0  0  0  0  0  0  0  0
   26.3010  -11.4240  -15.0926 N   0  0  0  0  0  0  0  0  0  0  0  0
   26.9043  -10.8742  -16.1494 C   0  0  0  0  0  0  0  0  0  0  0  0
   26.2857   -9.7043  -16.4263 N   0  0  0  0  0  0  0  0  0  0  0  0
   22.1061   -7.5425  -15.4353 C   0  0  0  0  0  0  0  0  0  0  0  0
   21.4094   -7.2654  -16.4344 O   0  0  0  0  0  0  0  0  0  0  0  0
   22.1025   -6.6664  -14.3666 O   0  0  0  0  0  0  0  0  0  0  0  0
  2  1  1  6
  3  2  1  0
  4  5  2  0
  4  2  1  0
  6  4  1  0
  7  6  1  0
  8 10  1  0
  8  7  1  0
  9  8  2  0
 11 10  1  0
 11 12  1  6
 12 13  1  0
 13 17  1  0
 13 14  2  0
 14 15  1  0
 16 15  1  0
 17 16  2  0
 18 11  1  0
 19 18  2  0
 20 18  1  0
M  END
$$$$
