AGH.pdb
     RDKit          3D

 20 20  0  0  1  0  0  0  0  0999 V2000
   19.9844  -18.8329  -18.0353 C   0  0  0  0  0  0  0  0  0  0  0  0
   19.6083  -19.6420  -16.8285 C   0  0  2  0  0  0  0  0  0  0  0  0
   18.8627  -18.8324  -15.9027 N   0  0  0  0  0  0  0  0  0  0  0  0
   20.8145  -20.1844  -16.1353 C   0  0  0  0  0  0  0  0  0  0  0  0
   21.5093  -21.1113  -16.6275 O   0  0  0  0  0  0  0  0  0  0  0  0
   21.2205  -19.6632  -14.8815 N   0  0  0  0  0  0  0  0  0  0  0  0
   22.3168  -20.2481  -14.1754 C   0  0  0  0  0  0  0  0  0  0  0  0
   23.6118  -19.5463  -14.4744 C   0  0  0  0  0  0  0  0  0  0  0  0
   23.8699  -18.4039  -14.0576 O   0  0  0  0  0  0  0  0  0  0  0  0
   24.5956  -20.1995  -15.2653 N   0  0  0  0  0  0  0  0  0  0  0  0
   25.8769  -19.6448  -15.5724 C   0  0  1  0  0  0  0  0  0  0  0  0
   27.0139  -20.5830  -15.1888 C   0  0  0  0  0  0  0  0  0  0  0  0
   26.8571  -21.9249  -15.7657 C   0  0  0  0  0  0  0  0  0  0  0  0
   26.9662  -22.2868  -17.0916 C   0  0  0  0  0  0  0  0  0  0  0  0
   26.7463  -23.6236  -17.1747 N   0  0  0  0  0  0  0  0  0  0  0  0
   26.5073  -24.0873  -15.9455 C   0  0  0  0  0  0  0  0  0  0  0  0
   26.5749  -23.0485  -15.0828 N   0  0  0  0  0  0  0  0  0  0  0  0
   26.0435  -19.2987  -16.9929 C   0  0  0  0  0  0  0  0  0  0  0  0
   25.1971  -19.6232  -17.8524 O   0  0  0  0  0  0  0  0  0  0  0  0
   27.1612  -18.5964  -17.4015 O   0  0  0  0  0  0  0  0  0  0  0  0
  2  1  1  6
  3  2  1  0
  4  5  2  0
  4  2  1  0
  6  4  1  0
  7  6  1  0
  8 10  1  0
  8  7  1  0
  9  8  2  0
 11 10  1  0
 11 12  1  6
 12 13  1  0
 13 17  1  0
 13 14  2  0
 14 15  1  0
 16 15  1  0
 17 16  2  0
 18 11  1  0
 19 18  2  0
 20 18  1  0
M  END
$$$$
