AGH.pdb
     RDKit          3D

 20 20  0  0  1  0  0  0  0  0999 V2000
   36.3607  -29.0736    2.4936 C   0  0  0  0  0  0  0  0  0  0  0  0
   36.2743  -28.6716    3.9370 C   0  0  2  0  0  0  0  0  0  0  0  0
   34.9695  -28.1397    4.2252 N   0  0  0  0  0  0  0  0  0  0  0  0
   37.3028  -27.6456    4.2821 C   0  0  0  0  0  0  0  0  0  0  0  0
   38.5345  -27.9046    4.2783 O   0  0  0  0  0  0  0  0  0  0  0  0
   36.9170  -26.3270    4.6300 N   0  0  0  0  0  0  0  0  0  0  0  0
   37.8908  -25.3835    5.0815 C   0  0  0  0  0  0  0  0  0  0  0  0
   37.3078  -24.4051    6.0623 C   0  0  0  0  0  0  0  0  0  0  0  0
   37.9452  -23.4328    6.5025 O   0  0  0  0  0  0  0  0  0  0  0  0
   35.9731  -24.5817    6.5177 N   0  0  0  0  0  0  0  0  0  0  0  0
   35.3288  -23.7278    7.4661 C   0  0  1  0  0  0  0  0  0  0  0  0
   33.8537  -23.5252    7.1449 C   0  0  0  0  0  0  0  0  0  0  0  0
   33.6398  -22.9722    5.8009 C   0  0  0  0  0  0  0  0  0  0  0  0
   34.5816  -22.7797    4.8125 C   0  0  0  0  0  0  0  0  0  0  0  0
   33.9486  -22.2469    3.7365 N   0  0  0  0  0  0  0  0  0  0  0  0
   32.6546  -22.1086    4.0360 C   0  0  0  0  0  0  0  0  0  0  0  0
   32.4649  -22.5522    5.2991 N   0  0  0  0  0  0  0  0  0  0  0  0
   35.4214  -24.2121    8.8526 C   0  0  0  0  0  0  0  0  0  0  0  0
   35.9720  -25.2973    9.1347 O   0  0  0  0  0  0  0  0  0  0  0  0
   34.8895  -23.4568    9.8803 O   0  0  0  0  0  0  0  0  0  0  0  0
  2  1  1  6
  3  2  1  0
  4  5  2  0
  4  2  1  0
  6  4  1  0
  7  6  1  0
  8 10  1  0
  8  7  1  0
  9  8  2  0
 11 10  1  0
 11 12  1  6
 12 13  1  0
 13 17  1  0
 13 14  2  0
 14 15  1  0
 16 15  1  0
 17 16  2  0
 18 11  1  0
 19 18  2  0
 20 18  1  0
M  END
$$$$
