KCK.pdb
     RDKit          3D

 25 24  0  0  1  0  0  0  0  0999 V2000
   22.6633  -10.7477  -15.0639 N   0  0  0  0  0  0  0  0  0  0  0  0
   21.8970   -9.8861  -15.9091 C   0  0  1  0  0  0  0  0  0  0  0  0
   20.6980  -10.5214  -16.5371 C   0  0  0  0  0  0  0  0  0  0  0  0
   21.0353  -11.6148  -17.5027 C   0  0  0  0  0  0  0  0  0  0  0  0
   19.8084  -12.1940  -18.1771 C   0  0  0  0  0  0  0  0  0  0  0  0
   20.3330  -13.2362  -19.1718 C   0  0  0  0  0  0  0  0  0  0  0  0
   19.2057  -13.8691  -19.8174 N   0  0  0  0  0  0  0  0  0  0  0  0
   21.4865   -8.6925  -15.1358 C   0  0  0  0  0  0  0  0  0  0  0  0
   20.7114   -8.7990  -14.1495 O   0  0  0  0  0  0  0  0  0  0  0  0
   21.9251   -7.3816  -15.4429 N   0  0  0  0  0  0  0  0  0  0  0  0
   21.4950   -6.2217  -14.6493 C   0  0  1  0  0  0  0  0  0  0  0  0
   22.7353   -5.6361  -14.0680 C   0  0  0  0  0  0  0  0  0  0  0  0
   22.5028   -4.1151  -13.1494 S   0  0  0  0  0  0  0  0  0  0  0  0
   20.6702   -5.3139  -15.4501 C   0  0  0  0  0  0  0  0  0  0  0  0
   20.9757   -5.1362  -16.6813 O   0  0  0  0  0  0  0  0  0  0  0  0
   19.5554   -4.6012  -15.0045 N   0  0  0  0  0  0  0  0  0  0  0  0
   18.8136   -3.6488  -15.8161 C   0  0  1  0  0  0  0  0  0  0  0  0
   17.3412   -3.8156  -15.6743 C   0  0  0  0  0  0  0  0  0  0  0  0
   16.5027   -2.8455  -16.4225 C   0  0  0  0  0  0  0  0  0  0  0  0
   15.0185   -3.1161  -16.3027 C   0  0  0  0  0  0  0  0  0  0  0  0
   14.2585   -2.1346  -17.1935 C   0  0  0  0  0  0  0  0  0  0  0  0
   12.8346   -2.4095  -17.1846 N   0  0  0  0  0  0  0  0  0  0  0  0
   19.2045   -2.3002  -15.3734 C   0  0  0  0  0  0  0  0  0  0  0  0
   19.6158   -2.0419  -14.0827 O   0  0  0  0  0  0  0  0  0  0  0  0
   19.1663   -1.3471  -16.1828 O   0  0  0  0  0  0  0  0  0  0  0  0
  2  8  1  0
  2  1  1  1
  3  2  1  0
  4  3  1  0
  5  4  1  0
  6  5  1  0
  6  7  1  0
  8  9  2  0
 10 11  1  0
 10  8  1  0
 11 12  1  6
 12 13  1  0
 14 15  2  0
 14 11  1  0
 16 14  1  0
 17 23  1  0
 17 16  1  0
 17 18  1  1
 19 20  1  0
 19 18  1  0
 20 21  1  0
 22 21  1  0
 23 24  1  0
 25 23  2  0
M  END
$$$$
