KCK.pdb
     RDKit          3D

 25 24  0  0  1  0  0  0  0  0999 V2000
   20.7920  -27.2656  -12.4768 N   0  0  0  0  0  0  0  0  0  0  0  0
   19.4618  -27.1812  -11.9597 C   0  0  1  0  0  0  0  0  0  0  0  0
   18.7237  -28.4802  -11.9015 C   0  0  0  0  0  0  0  0  0  0  0  0
   18.1527  -28.9049  -13.2188 C   0  0  0  0  0  0  0  0  0  0  0  0
   17.3621  -27.8020  -13.8927 C   0  0  0  0  0  0  0  0  0  0  0  0
   16.7824  -28.4249  -15.1682 C   0  0  0  0  0  0  0  0  0  0  0  0
   15.9014  -27.4652  -15.7934 N   0  0  0  0  0  0  0  0  0  0  0  0
   19.5059  -26.5673  -10.6134 C   0  0  0  0  0  0  0  0  0  0  0  0
   20.2135  -27.0673   -9.7001 O   0  0  0  0  0  0  0  0  0  0  0  0
   18.7746  -25.4051  -10.2674 N   0  0  0  0  0  0  0  0  0  0  0  0
   18.9094  -24.7778   -8.9451 C   0  0  1  0  0  0  0  0  0  0  0  0
   18.6076  -23.3322   -9.1410 C   0  0  0  0  0  0  0  0  0  0  0  0
   19.7925  -22.4344  -10.1419 S   0  0  0  0  0  0  0  0  0  0  0  0
   18.0940  -25.4747   -7.9474 C   0  0  0  0  0  0  0  0  0  0  0  0
   16.9671  -25.9623   -8.3117 O   0  0  0  0  0  0  0  0  0  0  0  0
   18.4216  -25.6709   -6.6044 N   0  0  0  0  0  0  0  0  0  0  0  0
   17.5121  -26.2207   -5.6111 C   0  0  1  0  0  0  0  0  0  0  0  0
   18.2039  -26.5454   -4.3336 C   0  0  0  0  0  0  0  0  0  0  0  0
   17.3440  -27.0760   -3.2461 C   0  0  0  0  0  0  0  0  0  0  0  0
   18.0854  -27.2916   -1.9445 C   0  0  0  0  0  0  0  0  0  0  0  0
   17.1357  -27.9222   -0.9273 C   0  0  0  0  0  0  0  0  0  0  0  0
   17.8338  -28.2840    0.2912 N   0  0  0  0  0  0  0  0  0  0  0  0
   16.4694  -25.2104   -5.3671 C   0  0  0  0  0  0  0  0  0  0  0  0
   16.7002  -23.8615   -5.5378 O   0  0  0  0  0  0  0  0  0  0  0  0
   15.3323  -25.5719   -4.9912 O   0  0  0  0  0  0  0  0  0  0  0  0
  2  8  1  0
  2  1  1  1
  3  2  1  0
  4  3  1  0
  5  4  1  0
  6  5  1  0
  6  7  1  0
  8  9  2  0
 10 11  1  0
 10  8  1  0
 11 12  1  6
 12 13  1  0
 14 15  2  0
 14 11  1  0
 16 14  1  0
 17 23  1  0
 17 16  1  0
 17 18  1  1
 19 20  1  0
 19 18  1  0
 20 21  1  0
 22 21  1  0
 23 24  1  0
 25 23  2  0
M  END
$$$$
