KCK.pdb
     RDKit          3D

 25 24  0  0  1  0  0  0  0  0999 V2000
   28.4403  -20.7273  -15.6105 N   0  0  0  0  0  0  0  0  0  0  0  0
   28.1423  -20.1061  -14.3577 C   0  0  1  0  0  0  0  0  0  0  0  0
   27.9597  -18.6233  -14.4162 C   0  0  0  0  0  0  0  0  0  0  0  0
   28.2234  -18.0396  -15.7696 C   0  0  0  0  0  0  0  0  0  0  0  0
   27.0149  -18.1141  -16.6804 C   0  0  0  0  0  0  0  0  0  0  0  0
   27.1377  -16.9192  -17.6335 C   0  0  0  0  0  0  0  0  0  0  0  0
   28.3110  -17.1021  -18.4569 N   0  0  0  0  0  0  0  0  0  0  0  0
   26.9348  -20.7390  -13.7809 C   0  0  0  0  0  0  0  0  0  0  0  0
   26.1919  -21.4712  -14.4858 O   0  0  0  0  0  0  0  0  0  0  0  0
   26.5409  -20.5699  -12.4312 N   0  0  0  0  0  0  0  0  0  0  0  0
   25.3624  -21.2559  -11.8830 C   0  0  1  0  0  0  0  0  0  0  0  0
   25.5924  -21.3630  -10.4151 C   0  0  0  0  0  0  0  0  0  0  0  0
   25.7618  -19.8008   -9.5536 S   0  0  0  0  0  0  0  0  0  0  0  0
   24.1262  -20.5849  -12.2922 C   0  0  0  0  0  0  0  0  0  0  0  0
   24.1218  -19.3064  -12.3703 O   0  0  0  0  0  0  0  0  0  0  0  0
   22.9181  -21.2054  -12.6159 N   0  0  0  0  0  0  0  0  0  0  0  0
   21.7177  -20.4958  -13.0301 C   0  0  1  0  0  0  0  0  0  0  0  0
   21.4813  -20.5984  -14.4962 C   0  0  0  0  0  0  0  0  0  0  0  0
   20.2217  -19.9912  -14.9950 C   0  0  0  0  0  0  0  0  0  0  0  0
   19.9800  -20.2338  -16.4691 C   0  0  0  0  0  0  0  0  0  0  0  0
   18.7344  -19.4634  -16.9043 C   0  0  0  0  0  0  0  0  0  0  0  0
   18.4720  -19.6427  -18.3192 N   0  0  0  0  0  0  0  0  0  0  0  0
   20.5851  -21.0919  -12.3025 C   0  0  0  0  0  0  0  0  0  0  0  0
   19.4197  -20.3953  -12.0609 O   0  0  0  0  0  0  0  0  0  0  0  0
   20.6682  -22.2674  -11.8827 O   0  0  0  0  0  0  0  0  0  0  0  0
  2  8  1  0
  2  1  1  6
  3  2  1  0
  4  3  1  0
  5  4  1  0
  6  5  1  0
  6  7  1  0
  8  9  2  0
 10 11  1  0
 10  8  1  0
 11 12  1  1
 12 13  1  0
 14 15  2  0
 14 11  1  0
 16 14  1  0
 17 23  1  0
 17 16  1  0
 17 18  1  6
 19 20  1  0
 19 18  1  0
 20 21  1  0
 22 21  1  0
 23 24  1  0
 25 23  2  0
M  END
$$$$
