KCK.pdb
     RDKit          3D

 25 24  0  0  1  0  0  0  0  0999 V2000
   13.7271  -20.5872   -8.3625 N   0  0  0  0  0  0  0  0  0  0  0  0
   12.4831  -20.3350   -7.7047 C   0  0  1  0  0  0  0  0  0  0  0  0
   11.2980  -20.2387   -8.6113 C   0  0  0  0  0  0  0  0  0  0  0  0
   11.2271  -18.9503   -9.3708 C   0  0  0  0  0  0  0  0  0  0  0  0
   10.6429  -17.8210   -8.5469 C   0  0  0  0  0  0  0  0  0  0  0  0
   10.5820  -16.6096   -9.4849 C   0  0  0  0  0  0  0  0  0  0  0  0
   10.0099  -15.4948   -8.7653 N   0  0  0  0  0  0  0  0  0  0  0  0
   12.2538  -21.3855   -6.6875 C   0  0  0  0  0  0  0  0  0  0  0  0
   11.4824  -22.3524   -6.9221 O   0  0  0  0  0  0  0  0  0  0  0  0
   12.8699  -21.3773   -5.4124 N   0  0  0  0  0  0  0  0  0  0  0  0
   12.6207  -22.4432   -4.4317 C   0  0  1  0  0  0  0  0  0  0  0  0
   13.9540  -22.8230   -3.8866 C   0  0  0  0  0  0  0  0  0  0  0  0
   14.9326  -21.4639   -3.2486 S   0  0  0  0  0  0  0  0  0  0  0  0
   11.6190  -22.0274   -3.4470 C   0  0  0  0  0  0  0  0  0  0  0  0
   11.4285  -20.7746   -3.2605 O   0  0  0  0  0  0  0  0  0  0  0  0
   10.8264  -22.8726   -2.6680 N   0  0  0  0  0  0  0  0  0  0  0  0
    9.8564  -22.4120   -1.6866 C   0  0  1  0  0  0  0  0  0  0  0  0
    9.0173  -23.5234   -1.1607 C   0  0  0  0  0  0  0  0  0  0  0  0
    7.9225  -23.1301   -0.2384 C   0  0  0  0  0  0  0  0  0  0  0  0
    7.0880  -24.2996    0.2374 C   0  0  0  0  0  0  0  0  0  0  0  0
    5.9168  -23.7733    1.0654 C   0  0  0  0  0  0  0  0  0  0  0  0
    5.1122  -24.8600    1.5896 N   0  0  0  0  0  0  0  0  0  0  0  0
   10.6111  -21.7958   -0.5828 C   0  0  0  0  0  0  0  0  0  0  0  0
   10.0891  -20.7742    0.1826 O   0  0  0  0  0  0  0  0  0  0  0  0
   11.7651  -22.2005   -0.3195 O   0  0  0  0  0  0  0  0  0  0  0  0
  2  8  1  0
  2  1  1  6
  3  2  1  0
  4  3  1  0
  5  4  1  0
  6  5  1  0
  6  7  1  0
  8  9  2  0
 10 11  1  0
 10  8  1  0
 11 12  1  1
 12 13  1  0
 14 15  2  0
 14 11  1  0
 16 14  1  0
 17 23  1  0
 17 16  1  0
 17 18  1  1
 19 20  1  0
 19 18  1  0
 20 21  1  0
 22 21  1  0
 23 24  1  0
 25 23  2  0
M  END
$$$$
