KCK.pdb
     RDKit          3D

 25 24  0  0  1  0  0  0  0  0999 V2000
   22.8614  -22.3477  -14.7773 N   0  0  0  0  0  0  0  0  0  0  0  0
   23.3204  -21.1541  -14.1380 C   0  0  1  0  0  0  0  0  0  0  0  0
   23.5480  -19.9949  -15.0544 C   0  0  0  0  0  0  0  0  0  0  0  0
   24.8392  -20.0710  -15.8085 C   0  0  0  0  0  0  0  0  0  0  0  0
   25.4768  -21.4434  -15.7327 C   0  0  0  0  0  0  0  0  0  0  0  0
   26.6991  -21.3861  -16.6566 C   0  0  0  0  0  0  0  0  0  0  0  0
   27.4486  -22.6128  -16.5099 N   0  0  0  0  0  0  0  0  0  0  0  0
   22.3600  -20.7755  -13.0772 C   0  0  0  0  0  0  0  0  0  0  0  0
   22.4594  -19.6703  -12.4825 O   0  0  0  0  0  0  0  0  0  0  0  0
   21.2900  -21.6077  -12.6675 N   0  0  0  0  0  0  0  0  0  0  0  0
   20.3251  -21.1726  -11.6478 C   0  0  1  0  0  0  0  0  0  0  0  0
   19.5859  -20.0239  -12.2422 C   0  0  0  0  0  0  0  0  0  0  0  0
   18.0401  -19.6115  -11.4346 S   0  0  0  0  0  0  0  0  0  0  0  0
   19.5047  -22.2956  -11.1878 C   0  0  0  0  0  0  0  0  0  0  0  0
   18.9835  -23.0710  -12.0639 O   0  0  0  0  0  0  0  0  0  0  0  0
   19.2214  -22.6218   -9.8601 N   0  0  0  0  0  0  0  0  0  0  0  0
   18.4692  -23.7966   -9.4476 C   0  0  1  0  0  0  0  0  0  0  0  0
   18.6406  -24.0943   -7.9992 C   0  0  0  0  0  0  0  0  0  0  0  0
   17.8925  -25.2687   -7.4846 C   0  0  0  0  0  0  0  0  0  0  0  0
   18.0990  -25.5120   -6.0052 C   0  0  0  0  0  0  0  0  0  0  0  0
   17.1164  -26.5825   -5.5331 C   0  0  0  0  0  0  0  0  0  0  0  0
   17.1756  -26.7538   -4.0943 N   0  0  0  0  0  0  0  0  0  0  0  0
   17.0501  -23.5292   -9.7340 C   0  0  0  0  0  0  0  0  0  0  0  0
   16.1438  -24.5432   -9.9628 O   0  0  0  0  0  0  0  0  0  0  0  0
   16.6383  -22.3487   -9.7758 O   0  0  0  0  0  0  0  0  0  0  0  0
  2  8  1  0
  2  1  1  6
  3  2  1  0
  4  3  1  0
  5  4  1  0
  6  5  1  0
  6  7  1  0
  8  9  2  0
 10 11  1  0
 10  8  1  0
 11 12  1  6
 12 13  1  0
 14 15  2  0
 14 11  1  0
 16 14  1  0
 17 23  1  0
 17 16  1  0
 17 18  1  1
 19 20  1  0
 19 18  1  0
 20 21  1  0
 22 21  1  0
 23 24  1  0
 25 23  2  0
M  END
$$$$
