KCK.pdb
     RDKit          3D

 25 24  0  0  1  0  0  0  0  0999 V2000
   21.1474  -13.4814  -17.8208 N   0  0  0  0  0  0  0  0  0  0  0  0
   19.9581  -12.9850  -17.2020 C   0  0  1  0  0  0  0  0  0  0  0  0
   19.2173  -13.9811  -16.3687 C   0  0  0  0  0  0  0  0  0  0  0  0
   18.8638  -15.2353  -17.1061 C   0  0  0  0  0  0  0  0  0  0  0  0
   19.6852  -16.4260  -16.6553 C   0  0  0  0  0  0  0  0  0  0  0  0
   19.2919  -17.5793  -17.5860 C   0  0  0  0  0  0  0  0  0  0  0  0
   20.0318  -18.7589  -17.2001 N   0  0  0  0  0  0  0  0  0  0  0  0
   20.2990  -11.7995  -16.3839 C   0  0  0  0  0  0  0  0  0  0  0  0
   19.4858  -11.3456  -15.5368 O   0  0  0  0  0  0  0  0  0  0  0  0
   21.5314  -11.1106  -16.4935 N   0  0  0  0  0  0  0  0  0  0  0  0
   21.8110   -9.9049  -15.7008 C   0  0  1  0  0  0  0  0  0  0  0  0
   23.2942   -9.8156  -15.5939 C   0  0  0  0  0  0  0  0  0  0  0  0
   24.0209  -10.7622  -14.2569 S   0  0  0  0  0  0  0  0  0  0  0  0
   21.1363   -8.7350  -16.2682 C   0  0  0  0  0  0  0  0  0  0  0  0
   21.1668   -8.5679  -17.5378 O   0  0  0  0  0  0  0  0  0  0  0  0
   20.4436   -7.7547  -15.5551 N   0  0  0  0  0  0  0  0  0  0  0  0
   19.7562   -6.6282  -16.1671 C   0  0  1  0  0  0  0  0  0  0  0  0
   18.3298   -6.5454  -15.7493 C   0  0  0  0  0  0  0  0  0  0  0  0
   17.5621   -5.3932  -16.2849 C   0  0  0  0  0  0  0  0  0  0  0  0
   16.1166   -5.3736  -15.8373 C   0  0  0  0  0  0  0  0  0  0  0  0
   15.4169   -4.1670  -16.4608 C   0  0  0  0  0  0  0  0  0  0  0  0
   14.0832   -3.9935  -15.9186 N   0  0  0  0  0  0  0  0  0  0  0  0
   20.4656   -5.4064  -15.7530 C   0  0  0  0  0  0  0  0  0  0  0  0
   20.5925   -4.3139  -16.5849 O   0  0  0  0  0  0  0  0  0  0  0  0
   20.9763   -5.3429  -14.6127 O   0  0  0  0  0  0  0  0  0  0  0  0
  2  8  1  0
  2  1  1  1
  3  2  1  0
  4  3  1  0
  5  4  1  0
  6  5  1  0
  6  7  1  0
  8  9  2  0
 10 11  1  0
 10  8  1  0
 11 12  1  6
 12 13  1  0
 14 15  2  0
 14 11  1  0
 16 14  1  0
 17 23  1  0
 17 16  1  0
 17 18  1  1
 19 20  1  0
 19 18  1  0
 20 21  1  0
 22 21  1  0
 23 24  1  0
 25 23  2  0
M  END
$$$$
