KCK.pdb
     RDKit          3D

 25 24  0  0  1  0  0  0  0  0999 V2000
   25.9607  -25.3869  -16.1588 N   0  0  0  0  0  0  0  0  0  0  0  0
   26.0576  -24.0445  -15.6766 C   0  0  1  0  0  0  0  0  0  0  0  0
   26.9586  -23.1527  -16.4694 C   0  0  0  0  0  0  0  0  0  0  0  0
   27.9370  -23.8961  -17.3247 C   0  0  0  0  0  0  0  0  0  0  0  0
   29.1300  -24.4010  -16.5389 C   0  0  0  0  0  0  0  0  0  0  0  0
   30.0398  -25.0922  -17.5615 C   0  0  0  0  0  0  0  0  0  0  0  0
   31.2054  -25.6008  -16.8754 N   0  0  0  0  0  0  0  0  0  0  0  0
   24.7006  -23.4570  -15.6097 C   0  0  0  0  0  0  0  0  0  0  0  0
   23.8282  -23.7508  -16.4684 O   0  0  0  0  0  0  0  0  0  0  0  0
   24.2989  -22.5471  -14.6017 N   0  0  0  0  0  0  0  0  0  0  0  0
   22.9243  -22.0309  -14.5359 C   0  0  1  0  0  0  0  0  0  0  0  0
   22.5295  -22.0891  -13.1007 C   0  0  0  0  0  0  0  0  0  0  0  0
   20.9249  -21.3866  -12.7218 S   0  0  0  0  0  0  0  0  0  0  0  0
   22.8252  -20.7174  -15.1766 C   0  0  0  0  0  0  0  0  0  0  0  0
   23.6580  -19.8062  -14.8349 O   0  0  0  0  0  0  0  0  0  0  0  0
   21.8951  -20.3402  -16.1473 N   0  0  0  0  0  0  0  0  0  0  0  0
   21.8572  -19.0314  -16.7810 C   0  0  1  0  0  0  0  0  0  0  0  0
   21.6816  -19.1256  -18.2562 C   0  0  0  0  0  0  0  0  0  0  0  0
   21.5177  -17.8366  -18.9743 C   0  0  0  0  0  0  0  0  0  0  0  0
   21.2128  -18.0036  -20.4472 C   0  0  0  0  0  0  0  0  0  0  0  0
   21.1786  -16.6271  -21.1094 C   0  0  0  0  0  0  0  0  0  0  0  0
   20.8387  -16.7275  -22.5155 N   0  0  0  0  0  0  0  0  0  0  0  0
   20.7264  -18.2943  -16.1933 C   0  0  0  0  0  0  0  0  0  0  0  0
   20.6744  -16.9162  -16.1831 O   0  0  0  0  0  0  0  0  0  0  0  0
   19.7747  -18.9248  -15.6817 O   0  0  0  0  0  0  0  0  0  0  0  0
  2  8  1  0
  2  1  1  6
  3  2  1  0
  4  3  1  0
  5  4  1  0
  6  5  1  0
  6  7  1  0
  8  9  2  0
 10 11  1  0
 10  8  1  0
 11 12  1  1
 12 13  1  0
 14 15  2  0
 14 11  1  0
 16 14  1  0
 17 23  1  0
 17 16  1  0
 17 18  1  6
 19 20  1  0
 19 18  1  0
 20 21  1  0
 22 21  1  0
 23 24  1  0
 25 23  2  0
M  END
$$$$
