KCK.pdb
     RDKit          3D

 25 24  0  0  1  0  0  0  0  0999 V2000
   25.8295  -22.1887  -12.8928 N   0  0  0  0  0  0  0  0  0  0  0  0
   24.8063  -21.7009  -13.7640 C   0  0  1  0  0  0  0  0  0  0  0  0
   23.4138  -22.0876  -13.3807 C   0  0  0  0  0  0  0  0  0  0  0  0
   22.8314  -23.1639  -14.2433 C   0  0  0  0  0  0  0  0  0  0  0  0
   23.0596  -24.5504  -13.6768 C   0  0  0  0  0  0  0  0  0  0  0  0
   22.4316  -25.5205  -14.6845 C   0  0  0  0  0  0  0  0  0  0  0  0
   22.6989  -26.8736  -14.2535 N   0  0  0  0  0  0  0  0  0  0  0  0
   24.9120  -20.2271  -13.8541 C   0  0  0  0  0  0  0  0  0  0  0  0
   24.1395  -19.4841  -13.1938 O   0  0  0  0  0  0  0  0  0  0  0  0
   25.8645  -19.5668  -14.6679 N   0  0  0  0  0  0  0  0  0  0  0  0
   26.0480  -18.1098  -14.6080 C   0  0  1  0  0  0  0  0  0  0  0  0
   27.4748  -17.8586  -14.9550 C   0  0  0  0  0  0  0  0  0  0  0  0
   28.6658  -18.8373  -14.0412 S   0  0  0  0  0  0  0  0  0  0  0  0
   25.0548  -17.4208  -15.4353 C   0  0  0  0  0  0  0  0  0  0  0  0
   24.5794  -18.0318  -16.4557 O   0  0  0  0  0  0  0  0  0  0  0  0
   24.5555  -16.1338  -15.2260 N   0  0  0  0  0  0  0  0  0  0  0  0
   23.5591  -15.4940  -16.0709 C   0  0  1  0  0  0  0  0  0  0  0  0
   22.5461  -14.7452  -15.2778 C   0  0  0  0  0  0  0  0  0  0  0  0
   21.4558  -14.1051  -16.0557 C   0  0  0  0  0  0  0  0  0  0  0  0
   20.4725  -13.3407  -15.1960 C   0  0  0  0  0  0  0  0  0  0  0  0
   19.4718  -12.6224  -16.0998 C   0  0  0  0  0  0  0  0  0  0  0  0
   18.4771  -11.9094  -15.3220 N   0  0  0  0  0  0  0  0  0  0  0  0
   24.2738  -14.5667  -16.9636 C   0  0  0  0  0  0  0  0  0  0  0  0
   25.5155  -14.0558  -16.6490 O   0  0  0  0  0  0  0  0  0  0  0  0
   23.7499  -14.2208  -18.0456 O   0  0  0  0  0  0  0  0  0  0  0  0
  2  8  1  0
  2  1  1  1
  3  2  1  0
  4  3  1  0
  5  4  1  0
  6  5  1  0
  6  7  1  0
  8  9  2  0
 10 11  1  0
 10  8  1  0
 11 12  1  6
 12 13  1  0
 14 15  2  0
 14 11  1  0
 16 14  1  0
 17 23  1  0
 17 16  1  0
 17 18  1  1
 19 20  1  0
 19 18  1  0
 20 21  1  0
 22 21  1  0
 23 24  1  0
 25 23  2  0
M  END
$$$$
