KCK.pdb
     RDKit          3D

 25 24  0  0  1  0  0  0  0  0999 V2000
   26.7366  -16.3891  -17.0274 N   0  0  0  0  0  0  0  0  0  0  0  0
   27.0794  -15.1907  -17.7277 C   0  0  1  0  0  0  0  0  0  0  0  0
   26.7769  -15.2068  -19.1918 C   0  0  0  0  0  0  0  0  0  0  0  0
   26.4501  -16.5684  -19.7217 C   0  0  0  0  0  0  0  0  0  0  0  0
   26.1519  -16.5581  -21.2072 C   0  0  0  0  0  0  0  0  0  0  0  0
   25.8823  -18.0188  -21.5878 C   0  0  0  0  0  0  0  0  0  0  0  0
   25.5053  -18.0723  -22.9817 N   0  0  0  0  0  0  0  0  0  0  0  0
   26.3964  -14.0451  -17.0857 C   0  0  0  0  0  0  0  0  0  0  0  0
   25.2907  -14.1979  -16.5035 O   0  0  0  0  0  0  0  0  0  0  0  0
   26.9247  -12.7312  -17.0814 N   0  0  0  0  0  0  0  0  0  0  0  0
   26.2761  -11.6446  -16.3338 C   0  0  1  0  0  0  0  0  0  0  0  0
   27.3436  -11.0196  -15.5038 C   0  0  0  0  0  0  0  0  0  0  0  0
   26.8571   -9.5341  -14.6275 S   0  0  0  0  0  0  0  0  0  0  0  0
   25.5540  -10.7443  -17.2360 C   0  0  0  0  0  0  0  0  0  0  0  0
   26.1435  -10.3434  -18.3001 O   0  0  0  0  0  0  0  0  0  0  0  0
   24.2559  -10.2625  -17.0568 N   0  0  0  0  0  0  0  0  0  0  0  0
   23.5874   -9.3495  -17.9710 C   0  0  1  0  0  0  0  0  0  0  0  0
   22.1067   -9.3890  -17.8228 C   0  0  0  0  0  0  0  0  0  0  0  0
   21.3421   -8.4581  -18.6903 C   0  0  0  0  0  0  0  0  0  0  0  0
   19.8469   -8.5168  -18.4642 C   0  0  0  0  0  0  0  0  0  0  0  0
   19.1596   -7.5341  -19.4110 C   0  0  0  0  0  0  0  0  0  0  0  0
   17.7188   -7.6961  -19.3829 N   0  0  0  0  0  0  0  0  0  0  0  0
   24.0793   -7.9944  -17.6722 C   0  0  0  0  0  0  0  0  0  0  0  0
   24.4955   -7.6264  -16.4100 O   0  0  0  0  0  0  0  0  0  0  0  0
   24.1261   -7.1376  -18.5826 O   0  0  0  0  0  0  0  0  0  0  0  0
  2  8  1  0
  2  1  1  1
  3  2  1  0
  4  3  1  0
  5  4  1  0
  6  5  1  0
  6  7  1  0
  8  9  2  0
 10 11  1  0
 10  8  1  0
 11 12  1  6
 12 13  1  0
 14 15  2  0
 14 11  1  0
 16 14  1  0
 17 23  1  0
 17 16  1  0
 17 18  1  1
 19 20  1  0
 19 18  1  0
 20 21  1  0
 22 21  1  0
 23 24  1  0
 25 23  2  0
M  END
$$$$
