KCK.pdb
     RDKit          3D

 25 24  0  0  1  0  0  0  0  0999 V2000
   23.1849  -22.9522  -13.9528 N   0  0  0  0  0  0  0  0  0  0  0  0
   22.5961  -21.6559  -14.0824 C   0  0  1  0  0  0  0  0  0  0  0  0
   21.3918  -21.4214  -13.2278 C   0  0  0  0  0  0  0  0  0  0  0  0
   20.3684  -22.5102  -13.3222 C   0  0  0  0  0  0  0  0  0  0  0  0
   19.1982  -22.2911  -12.3850 C   0  0  0  0  0  0  0  0  0  0  0  0
   18.2156  -23.4326  -12.6720 C   0  0  0  0  0  0  0  0  0  0  0  0
   17.1473  -23.3796  -11.7004 N   0  0  0  0  0  0  0  0  0  0  0  0
   23.6232  -20.6290  -13.7963 C   0  0  0  0  0  0  0  0  0  0  0  0
   23.3245  -19.4062  -13.7789 O   0  0  0  0  0  0  0  0  0  0  0  0
   24.9782  -20.9417  -13.5290 N   0  0  0  0  0  0  0  0  0  0  0  0
   25.9720  -19.8911  -13.2669 C   0  0  1  0  0  0  0  0  0  0  0  0
   27.1195  -20.5655  -12.5978 C   0  0  0  0  0  0  0  0  0  0  0  0
   26.8004  -21.1389  -10.9302 S   0  0  0  0  0  0  0  0  0  0  0  0
   26.2873  -19.1493  -14.4901 C   0  0  0  0  0  0  0  0  0  0  0  0
   26.3025  -19.7836  -15.6028 O   0  0  0  0  0  0  0  0  0  0  0  0
   26.5811  -17.7871  -14.5771 N   0  0  0  0  0  0  0  0  0  0  0  0
   26.6868  -17.0500  -15.8267 C   0  0  1  0  0  0  0  0  0  0  0  0
   26.5480  -15.5814  -15.6269 C   0  0  0  0  0  0  0  0  0  0  0  0
   26.6681  -14.7456  -16.8479 C   0  0  0  0  0  0  0  0  0  0  0  0
   26.4801  -13.2671  -16.5853 C   0  0  0  0  0  0  0  0  0  0  0  0
   26.4556  -12.5221  -17.9190 C   0  0  0  0  0  0  0  0  0  0  0  0
   26.4876  -11.0859  -17.7206 N   0  0  0  0  0  0  0  0  0  0  0  0
   28.0095  -17.3493  -16.3998 C   0  0  0  0  0  0  0  0  0  0  0  0
   28.2260  -17.3961  -17.7609 O   0  0  0  0  0  0  0  0  0  0  0  0
   28.9779  -17.5718  -15.6398 O   0  0  0  0  0  0  0  0  0  0  0  0
  2  8  1  0
  2  1  1  1
  3  2  1  0
  4  3  1  0
  5  4  1  0
  6  5  1  0
  6  7  1  0
  8  9  2  0
 10 11  1  0
 10  8  1  0
 11 12  1  6
 12 13  1  0
 14 15  2  0
 14 11  1  0
 16 14  1  0
 17 23  1  0
 17 16  1  0
 17 18  1  1
 19 20  1  0
 19 18  1  0
 20 21  1  0
 22 21  1  0
 23 24  1  0
 25 23  2  0
M  END
$$$$
