KCK.pdb
     RDKit          3D

 25 24  0  0  1  0  0  0  0  0999 V2000
   24.5371  -21.4120  -16.1260 N   0  0  0  0  0  0  0  0  0  0  0  0
   24.4880  -20.5767  -14.9667 C   0  0  1  0  0  0  0  0  0  0  0  0
   25.4489  -19.4312  -14.9732 C   0  0  0  0  0  0  0  0  0  0  0  0
   26.8813  -19.8507  -15.0918 C   0  0  0  0  0  0  0  0  0  0  0  0
   27.1227  -20.7676  -16.2736 C   0  0  0  0  0  0  0  0  0  0  0  0
   28.6134  -21.1233  -16.2269 C   0  0  0  0  0  0  0  0  0  0  0  0
   28.8671  -22.1820  -17.1771 N   0  0  0  0  0  0  0  0  0  0  0  0
   23.1068  -20.0733  -14.7933 C   0  0  0  0  0  0  0  0  0  0  0  0
   22.8074  -19.3360  -13.8178 O   0  0  0  0  0  0  0  0  0  0  0  0
   22.0530  -20.3776  -15.6889 N   0  0  0  0  0  0  0  0  0  0  0  0
   20.7128  -19.7971  -15.5241 C   0  0  1  0  0  0  0  0  0  0  0  0
   20.5708  -18.7743  -16.5979 C   0  0  0  0  0  0  0  0  0  0  0  0
   21.3319  -17.1901  -16.2479 S   0  0  0  0  0  0  0  0  0  0  0  0
   19.6875  -20.8428  -15.4934 C   0  0  0  0  0  0  0  0  0  0  0  0
   19.8781  -21.9061  -16.1817 O   0  0  0  0  0  0  0  0  0  0  0  0
   18.4911  -20.8053  -14.7745 N   0  0  0  0  0  0  0  0  0  0  0  0
   17.5467  -21.9090  -14.6973 C   0  0  1  0  0  0  0  0  0  0  0  0
   16.3653  -21.5805  -13.8534 C   0  0  0  0  0  0  0  0  0  0  0  0
   15.3573  -22.6593  -13.6989 C   0  0  0  0  0  0  0  0  0  0  0  0
   14.1184  -22.2215  -12.9482 C   0  0  0  0  0  0  0  0  0  0  0  0
   13.1027  -23.3629  -12.9519 C   0  0  0  0  0  0  0  0  0  0  0  0
   11.8573  -22.9615  -12.3268 N   0  0  0  0  0  0  0  0  0  0  0  0
   17.1076  -22.2048  -16.0711 C   0  0  0  0  0  0  0  0  0  0  0  0
   16.8421  -23.4896  -16.4962 O   0  0  0  0  0  0  0  0  0  0  0  0
   16.9674  -21.2706  -16.8913 O   0  0  0  0  0  0  0  0  0  0  0  0
  2  8  1  0
  2  1  1  6
  3  2  1  0
  4  3  1  0
  5  4  1  0
  6  5  1  0
  6  7  1  0
  8  9  2  0
 10 11  1  0
 10  8  1  0
 11 12  1  6
 12 13  1  0
 14 15  2  0
 14 11  1  0
 16 14  1  0
 17 23  1  0
 17 16  1  0
 17 18  1  1
 19 20  1  0
 19 18  1  0
 20 21  1  0
 22 21  1  0
 23 24  1  0
 25 23  2  0
M  END
$$$$
