KCK.pdb
     RDKit          3D

 25 24  0  0  1  0  0  0  0  0999 V2000
   21.5335  -19.6159  -15.6556 N   0  0  0  0  0  0  0  0  0  0  0  0
   22.5091  -20.5518  -15.1905 C   0  0  1  0  0  0  0  0  0  0  0  0
   23.9290  -20.1045  -15.3288 C   0  0  0  0  0  0  0  0  0  0  0  0
   24.4121  -20.0716  -16.7456 C   0  0  0  0  0  0  0  0  0  0  0  0
   23.8500  -18.8998  -17.5245 C   0  0  0  0  0  0  0  0  0  0  0  0
   24.3840  -19.0552  -18.9534 C   0  0  0  0  0  0  0  0  0  0  0  0
   23.8482  -17.9878  -19.7668 N   0  0  0  0  0  0  0  0  0  0  0  0
   22.2223  -20.8848  -13.7770 C   0  0  0  0  0  0  0  0  0  0  0  0
   22.9792  -21.6552  -13.1301 O   0  0  0  0  0  0  0  0  0  0  0  0
   21.1059  -20.3736  -13.0715 N   0  0  0  0  0  0  0  0  0  0  0  0
   20.8232  -20.7744  -11.6860 C   0  0  1  0  0  0  0  0  0  0  0  0
   20.7569  -19.5129  -10.8965 C   0  0  0  0  0  0  0  0  0  0  0  0
   20.2212  -19.7039   -9.1971 S   0  0  0  0  0  0  0  0  0  0  0  0
   19.6410  -21.6367  -11.6193 C   0  0  0  0  0  0  0  0  0  0  0  0
   18.6489  -21.3741  -12.3858 O   0  0  0  0  0  0  0  0  0  0  0  0
   19.4736  -22.7457  -10.7877 N   0  0  0  0  0  0  0  0  0  0  0  0
   18.2877  -23.5880  -10.7738 C   0  0  1  0  0  0  0  0  0  0  0  0
   18.4835  -24.8218   -9.9644 C   0  0  0  0  0  0  0  0  0  0  0  0
   17.3323  -25.7580   -9.9186 C   0  0  0  0  0  0  0  0  0  0  0  0
   17.5720  -26.9629   -9.0349 C   0  0  0  0  0  0  0  0  0  0  0  0
   16.2988  -27.8059   -8.9835 C   0  0  0  0  0  0  0  0  0  0  0  0
   16.5176  -29.0470   -8.2661 N   0  0  0  0  0  0  0  0  0  0  0  0
   17.1913  -22.7889  -10.2019 C   0  0  0  0  0  0  0  0  0  0  0  0
   15.8694  -23.0261  -10.5153 O   0  0  0  0  0  0  0  0  0  0  0  0
   17.4518  -21.8604   -9.4051 O   0  0  0  0  0  0  0  0  0  0  0  0
  2  8  1  0
  2  1  1  1
  3  2  1  0
  4  3  1  0
  5  4  1  0
  6  5  1  0
  6  7  1  0
  8  9  2  0
 10 11  1  0
 10  8  1  0
 11 12  1  1
 12 13  1  0
 14 15  2  0
 14 11  1  0
 16 14  1  0
 17 23  1  0
 17 16  1  0
 17 18  1  1
 19 20  1  0
 19 18  1  0
 20 21  1  0
 22 21  1  0
 23 24  1  0
 25 23  2  0
M  END
$$$$
