IQY.pdb
     RDKit          3D

 30 30  0  0  1  0  0  0  0  0999 V2000
   20.0148  -12.1769  -22.1070 C   0  0  0  0  0  0  0  0  0  0  0  0
   20.7307  -11.9609  -20.8115 C   0  0  0  0  0  0  0  0  0  0  0  0
   20.2883  -10.6618  -20.1179 C   0  0  2  0  0  0  0  0  0  0  0  0
   21.3403   -9.6145  -20.2367 C   0  0  0  0  0  0  0  0  0  0  0  0
   19.9561  -11.0494  -18.7036 C   0  0  2  0  0  0  0  0  0  0  0  0
   18.8882  -12.0498  -18.7673 N   0  0  0  0  0  0  0  0  0  0  0  0
   19.4657   -9.9593  -17.8547 C   0  0  0  0  0  0  0  0  0  0  0  0
   18.2750   -9.5214  -17.9013 O   0  0  0  0  0  0  0  0  0  0  0  0
   16.2631   -9.3812  -14.1437 N   0  0  0  0  0  0  0  0  0  0  0  0
   17.4402  -10.0971  -13.8339 C   0  0  0  0  0  0  0  0  0  0  0  0
   17.3654  -11.0608  -13.0204 O   0  0  0  0  0  0  0  0  0  0  0  0
   18.7662   -9.7456  -14.4408 C   0  0  0  0  0  0  0  0  0  0  0  0
   18.5592   -8.6290  -15.4353 C   0  0  0  0  0  0  0  0  0  0  0  0
   19.8390   -8.1992  -16.0905 C   0  0  2  0  0  0  0  0  0  0  0  0
   20.2958   -9.3074  -16.9065 N   0  0  0  0  0  0  0  0  0  0  0  0
   20.8491   -7.6966  -15.1772 C   0  0  0  0  0  0  0  0  0  0  0  0
   21.9115   -8.3293  -15.0182 O   0  0  0  0  0  0  0  0  0  0  0  0
   21.5871   -1.8906  -18.8125 O   0  0  0  0  0  0  0  0  0  0  0  0
   21.9093   -2.8087  -17.8023 C   0  0  0  0  0  0  0  0  0  0  0  0
   21.7949   -2.4409  -16.4832 C   0  0  0  0  0  0  0  0  0  0  0  0
   22.1109   -3.3405  -15.4700 C   0  0  0  0  0  0  0  0  0  0  0  0
   22.5443   -4.6158  -15.7493 C   0  0  0  0  0  0  0  0  0  0  0  0
   22.8835   -5.5648  -14.6758 C   0  0  0  0  0  0  0  0  0  0  0  0
   21.7781   -5.8637  -13.7141 C   0  0  2  0  0  0  0  0  0  0  0  0
   20.6696   -6.5004  -14.4520 N   0  0  0  0  0  0  0  0  0  0  0  0
   21.3161   -4.6105  -13.0820 C   0  0  0  0  0  0  0  0  0  0  0  0
   22.0687   -3.9522  -12.2870 O   0  0  0  0  0  0  0  0  0  0  0  0
   22.6537   -4.9698  -17.0750 C   0  0  0  0  0  0  0  0  0  0  0  0
   22.3411   -4.0805  -18.0971 C   0  0  0  0  0  0  0  0  0  0  0  0
   20.0667   -4.1072  -13.3254 O   0  0  0  0  0  0  0  0  0  0  0  0
  1  2  1  0
  2  3  1  0
  3  4  1  1
  5  3  1  0
  5  6  1  6
  7  8  2  0
  7  5  1  0
 10  9  1  0
 10 12  1  0
 11 10  2  0
 13 12  1  0
 14 13  1  1
 14 15  1  0
 15  7  1  0
 16 25  1  0
 16 14  1  0
 17 16  2  0
 19 18  1  0
 20 19  2  0
 21 20  1  0
 22 28  1  0
 22 21  2  0
 24 23  1  6
 23 22  1  0
 24 25  1  0
 24 26  1  0
 26 30  1  0
 27 26  2  0
 28 29  2  0
 29 19  1  0
M  END
$$$$
