IQY.pdb
     RDKit          3D

 30 30  0  0  1  0  0  0  0  0999 V2000
   19.6410  -15.6046  -20.2532 C   0  0  0  0  0  0  0  0  0  0  0  0
   20.2989  -16.0701  -18.9931 C   0  0  0  0  0  0  0  0  0  0  0  0
   21.5492  -16.9195  -19.2753 C   0  0  2  0  0  0  0  0  0  0  0  0
   21.2137  -18.0820  -20.1433 C   0  0  0  0  0  0  0  0  0  0  0  0
   22.1005  -17.2913  -17.9266 C   0  0  2  0  0  0  0  0  0  0  0  0
   22.4618  -16.0452  -17.2470 N   0  0  0  0  0  0  0  0  0  0  0  0
   23.3059  -18.1255  -17.9516 C   0  0  0  0  0  0  0  0  0  0  0  0
   23.3291  -19.3024  -18.4269 O   0  0  0  0  0  0  0  0  0  0  0  0
   29.1394  -16.1093  -17.9966 N   0  0  0  0  0  0  0  0  0  0  0  0
   29.3532  -17.4752  -17.7089 C   0  0  0  0  0  0  0  0  0  0  0  0
   30.5376  -17.9147  -17.7073 O   0  0  0  0  0  0  0  0  0  0  0  0
   28.2193  -18.4100  -17.4078 C   0  0  0  0  0  0  0  0  0  0  0  0
   26.9238  -17.6411  -17.5025 C   0  0  0  0  0  0  0  0  0  0  0  0
   25.7199  -18.5235  -17.3485 C   0  0  2  0  0  0  0  0  0  0  0  0
   24.5498  -17.6721  -17.4414 N   0  0  0  0  0  0  0  0  0  0  0  0
   25.7320  -19.3652  -16.1660 C   0  0  0  0  0  0  0  0  0  0  0  0
   25.7584  -18.8441  -15.0338 O   0  0  0  0  0  0  0  0  0  0  0  0
   25.1107  -20.1036   -8.7900 O   0  0  0  0  0  0  0  0  0  0  0  0
   25.5188  -20.3526  -10.1084 C   0  0  0  0  0  0  0  0  0  0  0  0
   25.6966  -21.6466  -10.5356 C   0  0  0  0  0  0  0  0  0  0  0  0
   26.1013  -21.9094  -11.8405 C   0  0  0  0  0  0  0  0  0  0  0  0
   26.3354  -20.8949  -12.7396 C   0  0  0  0  0  0  0  0  0  0  0  0
   26.7690  -21.1747  -14.1187 C   0  0  0  0  0  0  0  0  0  0  0  0
   25.6889  -21.6266  -15.0488 C   0  0  2  0  0  0  0  0  0  0  0  0
   25.7147  -20.7729  -16.2527 N   0  0  0  0  0  0  0  0  0  0  0  0
   24.3770  -21.5206  -14.3770 C   0  0  0  0  0  0  0  0  0  0  0  0
   24.0232  -22.3559  -13.4777 O   0  0  0  0  0  0  0  0  0  0  0  0
   26.1531  -19.6042  -12.2973 C   0  0  0  0  0  0  0  0  0  0  0  0
   25.7488  -19.3278  -10.9960 C   0  0  0  0  0  0  0  0  0  0  0  0
   23.4933  -20.5236  -14.6911 O   0  0  0  0  0  0  0  0  0  0  0  0
  1  2  1  0
  2  3  1  0
  3  4  1  1
  5  3  1  0
  5  6  1  6
  7  8  2  0
  7  5  1  0
 10  9  1  0
 10 12  1  0
 11 10  2  0
 13 12  1  0
 14 13  1  1
 14 15  1  0
 15  7  1  0
 16 25  1  0
 16 14  1  0
 17 16  2  0
 19 18  1  0
 20 19  2  0
 21 20  1  0
 22 28  1  0
 22 21  2  0
 24 23  1  1
 23 22  1  0
 24 25  1  0
 24 26  1  0
 26 30  1  0
 27 26  2  0
 28 29  2  0
 29 19  1  0
M  END
$$$$
