IQY.pdb
     RDKit          3D

 30 30  0  0  1  0  0  0  0  0999 V2000
   20.8068   -9.2740    8.6590 C   0  0  0  0  0  0  0  0  0  0  0  0
   20.6315  -10.1683    7.4728 C   0  0  0  0  0  0  0  0  0  0  0  0
   19.8399  -11.4396    7.8212 C   0  0  2  0  0  0  0  0  0  0  0  0
   20.4345  -12.1257    9.0016 C   0  0  0  0  0  0  0  0  0  0  0  0
   19.8262  -12.2665    6.5653 C   0  0  2  0  0  0  0  0  0  0  0  0
   19.0267  -11.5399    5.5763 N   0  0  0  0  0  0  0  0  0  0  0  0
   19.2273  -13.5980    6.6991 C   0  0  0  0  0  0  0  0  0  0  0  0
   19.5493  -14.4182    7.6130 O   0  0  0  0  0  0  0  0  0  0  0  0
   15.1661  -17.5870    3.7653 N   0  0  0  0  0  0  0  0  0  0  0  0
   14.5135  -16.7134    4.6628 C   0  0  0  0  0  0  0  0  0  0  0  0
   13.3126  -16.9523    4.9736 O   0  0  0  0  0  0  0  0  0  0  0  0
   15.2041  -15.5190    5.2514 C   0  0  0  0  0  0  0  0  0  0  0  0
   16.6453  -15.5266    4.8022 C   0  0  0  0  0  0  0  0  0  0  0  0
   17.6039  -15.3720    5.9462 C   0  0  2  0  0  0  0  0  0  0  0  0
   18.2310  -14.0719    5.8071 N   0  0  0  0  0  0  0  0  0  0  0  0
   18.5527  -16.4605    6.0940 C   0  0  0  0  0  0  0  0  0  0  0  0
   19.6873  -16.3679    5.5855 O   0  0  0  0  0  0  0  0  0  0  0  0
   24.2389  -20.4976   11.0196 O   0  0  0  0  0  0  0  0  0  0  0  0
   23.2325  -19.8110   10.3248 C   0  0  0  0  0  0  0  0  0  0  0  0
   22.9997  -18.4838   10.5947 C   0  0  0  0  0  0  0  0  0  0  0  0
   22.0048  -17.7894    9.9138 C   0  0  0  0  0  0  0  0  0  0  0  0
   21.2273  -18.3996    8.9571 C   0  0  0  0  0  0  0  0  0  0  0  0
   20.1711  -17.6645    8.2413 C   0  0  0  0  0  0  0  0  0  0  0  0
   19.2768  -18.5031    7.3851 C   0  0  2  0  0  0  0  0  0  0  0  0
   18.2329  -17.6372    6.8027 N   0  0  0  0  0  0  0  0  0  0  0  0
   18.6585  -19.5667    8.2036 C   0  0  0  0  0  0  0  0  0  0  0  0
   17.8428  -19.2882    9.1464 O   0  0  0  0  0  0  0  0  0  0  0  0
   21.4722  -19.7290    8.6975 C   0  0  0  0  0  0  0  0  0  0  0  0
   22.4634  -20.4345    9.3707 C   0  0  0  0  0  0  0  0  0  0  0  0
   18.9345  -20.8889    7.9817 O   0  0  0  0  0  0  0  0  0  0  0  0
  1  2  1  0
  2  3  1  0
  3  4  1  1
  5  3  1  0
  5  6  1  6
  7  8  2  0
  7  5  1  0
 10  9  1  0
 10 12  1  0
 11 10  2  0
 13 12  1  0
 14 13  1  6
 14 15  1  0
 15  7  1  0
 16 25  1  0
 16 14  1  0
 17 16  2  0
 19 18  1  0
 20 19  2  0
 21 20  1  0
 22 28  1  0
 22 21  2  0
 24 23  1  1
 23 22  1  0
 24 25  1  0
 24 26  1  0
 26 30  1  0
 27 26  2  0
 28 29  2  0
 29 19  1  0
M  END
$$$$
