IQY.pdb
     RDKit          3D

 30 30  0  0  1  0  0  0  0  0999 V2000
   18.4213  -18.1652  -16.8287 C   0  0  0  0  0  0  0  0  0  0  0  0
   18.1333  -16.8657  -16.1462 C   0  0  0  0  0  0  0  0  0  0  0  0
   18.8016  -15.6790  -16.8600 C   0  0  2  0  0  0  0  0  0  0  0  0
   20.2703  -15.8933  -16.9801 C   0  0  0  0  0  0  0  0  0  0  0  0
   18.4155  -14.4596  -16.0694 C   0  0  2  0  0  0  0  0  0  0  0  0
   16.9553  -14.3554  -16.1181 N   0  0  0  0  0  0  0  0  0  0  0  0
   18.9482  -13.1910  -16.5755 C   0  0  0  0  0  0  0  0  0  0  0  0
   20.1761  -12.8753  -16.5102 O   0  0  0  0  0  0  0  0  0  0  0  0
   15.8671   -9.3597  -20.4388 N   0  0  0  0  0  0  0  0  0  0  0  0
   16.9364   -8.5270  -20.0417 C   0  0  0  0  0  0  0  0  0  0  0  0
   16.9898   -7.3512  -20.5006 O   0  0  0  0  0  0  0  0  0  0  0  0
   18.0016   -8.9991  -19.0969 C   0  0  0  0  0  0  0  0  0  0  0  0
   17.6582  -10.3978  -18.6448 C   0  0  0  0  0  0  0  0  0  0  0  0
   18.6159  -10.9193  -17.6140 C   0  0  2  0  0  0  0  0  0  0  0  0
   18.1204  -12.2125  -17.1839 N   0  0  0  0  0  0  0  0  0  0  0  0
   18.8830  -10.0068  -16.5173 C   0  0  0  0  0  0  0  0  0  0  0  0
   18.0596   -9.8963  -15.5877 O   0  0  0  0  0  0  0  0  0  0  0  0
   22.5239   -2.4344  -13.5488 O   0  0  0  0  0  0  0  0  0  0  0  0
   22.3113   -3.7266  -14.0508 C   0  0  0  0  0  0  0  0  0  0  0  0
   22.1616   -4.7809  -13.1823 C   0  0  0  0  0  0  0  0  0  0  0  0
   21.9502   -6.0684  -13.6653 C   0  0  0  0  0  0  0  0  0  0  0  0
   21.8844   -6.3291  -15.0144 C   0  0  0  0  0  0  0  0  0  0  0  0
   21.6660   -7.6932  -15.5240 C   0  0  0  0  0  0  0  0  0  0  0  0
   20.2592   -8.1918  -15.4330 C   0  0  2  0  0  0  0  0  0  0  0  0
   20.0581   -9.2286  -16.4642 N   0  0  0  0  0  0  0  0  0  0  0  0
   19.3195   -7.0716  -15.6465 C   0  0  0  0  0  0  0  0  0  0  0  0
   19.0459   -6.6504  -16.8210 O   0  0  0  0  0  0  0  0  0  0  0  0
   22.0360   -5.2632  -15.8720 C   0  0  0  0  0  0  0  0  0  0  0  0
   22.2477   -3.9717  -15.4024 C   0  0  0  0  0  0  0  0  0  0  0  0
   18.7060   -6.4450  -14.5955 O   0  0  0  0  0  0  0  0  0  0  0  0
  1  2  1  0
  2  3  1  0
  3  4  1  1
  5  3  1  0
  5  6  1  6
  7  8  2  0
  7  5  1  0
 10  9  1  0
 10 12  1  0
 11 10  2  0
 13 12  1  0
 14 13  1  6
 14 15  1  0
 15  7  1  0
 16 25  1  0
 16 14  1  0
 17 16  2  0
 19 18  1  0
 20 19  2  0
 21 20  1  0
 22 28  1  0
 22 21  2  0
 24 23  1  6
 23 22  1  0
 24 25  1  0
 24 26  1  0
 26 30  1  0
 27 26  2  0
 28 29  2  0
 29 19  1  0
M  END
$$$$
