IQY.pdb
     RDKit          3D

 30 30  0  0  1  0  0  0  0  0999 V2000
   17.9595  -20.7994  -15.7817 C   0  0  0  0  0  0  0  0  0  0  0  0
   18.9215  -21.4998  -14.8754 C   0  0  0  0  0  0  0  0  0  0  0  0
   18.2194  -22.5278  -13.9729 C   0  0  2  0  0  0  0  0  0  0  0  0
   17.3718  -21.8465  -12.9556 C   0  0  0  0  0  0  0  0  0  0  0  0
   19.3169  -23.3787  -13.3962 C   0  0  2  0  0  0  0  0  0  0  0  0
   20.0233  -23.9964  -14.5208 N   0  0  0  0  0  0  0  0  0  0  0  0
   18.8705  -24.4701  -12.5250 C   0  0  0  0  0  0  0  0  0  0  0  0
   18.4621  -25.5892  -12.9636 O   0  0  0  0  0  0  0  0  0  0  0  0
   21.3102  -28.5451  -10.6585 N   0  0  0  0  0  0  0  0  0  0  0  0
   20.2086  -28.7872   -9.8086 C   0  0  0  0  0  0  0  0  0  0  0  0
   20.1516  -29.8879   -9.1912 O   0  0  0  0  0  0  0  0  0  0  0  0
   19.1136  -27.7792   -9.6217 C   0  0  0  0  0  0  0  0  0  0  0  0
   19.4093  -26.5808  -10.4908 C   0  0  0  0  0  0  0  0  0  0  0  0
   18.4696  -25.4395  -10.2339 C   0  0  2  0  0  0  0  0  0  0  0  0
   18.8639  -24.3541  -11.1109 N   0  0  0  0  0  0  0  0  0  0  0  0
   18.3575  -25.0477   -8.8408 C   0  0  0  0  0  0  0  0  0  0  0  0
   19.2815  -24.4092   -8.2997 O   0  0  0  0  0  0  0  0  0  0  0  0
   14.6393  -23.7821   -0.7979 O   0  0  0  0  0  0  0  0  0  0  0  0
   14.8992  -24.1215   -2.1337 C   0  0  0  0  0  0  0  0  0  0  0  0
   15.2409  -25.4128   -2.4563 C   0  0  0  0  0  0  0  0  0  0  0  0
   15.5017  -25.7646   -3.7769 C   0  0  0  0  0  0  0  0  0  0  0  0
   15.4278  -24.8428   -4.7952 C   0  0  0  0  0  0  0  0  0  0  0  0
   15.7095  -25.2157   -6.1916 C   0  0  0  0  0  0  0  0  0  0  0  0
   17.1115  -24.9678   -6.6488 C   0  0  2  0  0  0  0  0  0  0  0  0
   17.2240  -25.3681   -8.0651 N   0  0  0  0  0  0  0  0  0  0  0  0
   18.0509  -25.7528   -5.8213 C   0  0  0  0  0  0  0  0  0  0  0  0
   18.6445  -25.2321   -4.8172 O   0  0  0  0  0  0  0  0  0  0  0  0
   15.0842  -23.5536   -4.4568 C   0  0  0  0  0  0  0  0  0  0  0  0
   14.8210  -23.1888   -3.1411 C   0  0  0  0  0  0  0  0  0  0  0  0
   18.3189  -27.0664   -6.0978 O   0  0  0  0  0  0  0  0  0  0  0  0
  1  2  1  0
  2  3  1  0
  3  4  1  1
  5  3  1  0
  5  6  1  6
  7  8  2  0
  7  5  1  0
 10  9  1  0
 10 12  1  0
 11 10  2  0
 13 12  1  0
 14 13  1  1
 14 15  1  0
 15  7  1  0
 16 25  1  0
 16 14  1  0
 17 16  2  0
 19 18  1  0
 20 19  2  0
 21 20  1  0
 22 28  1  0
 22 21  2  0
 24 23  1  1
 23 22  1  0
 24 25  1  0
 24 26  1  0
 26 30  1  0
 27 26  2  0
 28 29  2  0
 29 19  1  0
M  END
$$$$
