IQY.pdb
     RDKit          3D

 30 30  0  0  1  0  0  0  0  0999 V2000
   25.6420  -15.9275  -19.1945 C   0  0  0  0  0  0  0  0  0  0  0  0
   25.3744  -14.8959  -18.1447 C   0  0  0  0  0  0  0  0  0  0  0  0
   24.1112  -14.0749  -18.4521 C   0  0  2  0  0  0  0  0  0  0  0  0
   24.1996  -13.4544  -19.8029 C   0  0  0  0  0  0  0  0  0  0  0  0
   23.9832  -13.0889  -17.3240 C   0  0  2  0  0  0  0  0  0  0  0  0
   23.9803  -13.8555  -16.0760 N   0  0  0  0  0  0  0  0  0  0  0  0
   22.7567  -12.2857  -17.3310 C   0  0  0  0  0  0  0  0  0  0  0  0
   22.5985  -11.2618  -18.0646 O   0  0  0  0  0  0  0  0  0  0  0  0
   15.9358  -12.3954  -14.5850 N   0  0  0  0  0  0  0  0  0  0  0  0
   17.0267  -12.9533  -15.2871 C   0  0  0  0  0  0  0  0  0  0  0  0
   17.2205  -14.1994  -15.2121 O   0  0  0  0  0  0  0  0  0  0  0  0
   17.9535  -12.1111  -16.1129 C   0  0  0  0  0  0  0  0  0  0  0  0
   19.3008  -12.7898  -16.1669 C   0  0  0  0  0  0  0  0  0  0  0  0
   20.4049  -11.8449  -16.5407 C   0  0  2  0  0  0  0  0  0  0  0  0
   21.6432  -12.5989  -16.5094 N   0  0  0  0  0  0  0  0  0  0  0  0
   20.4497  -10.6238  -15.7574 C   0  0  0  0  0  0  0  0  0  0  0  0
   20.9304  -10.6419  -14.6072 O   0  0  0  0  0  0  0  0  0  0  0  0
   22.7969   -2.4800  -13.9494 O   0  0  0  0  0  0  0  0  0  0  0  0
   22.4825   -3.8105  -14.2622 C   0  0  0  0  0  0  0  0  0  0  0  0
   22.8070   -4.3167  -15.4979 C   0  0  0  0  0  0  0  0  0  0  0  0
   22.5015   -5.6346  -15.8229 C   0  0  0  0  0  0  0  0  0  0  0  0
   21.8707   -6.4685  -14.9291 C   0  0  0  0  0  0  0  0  0  0  0  0
   21.5433   -7.8614  -15.2767 C   0  0  0  0  0  0  0  0  0  0  0  0
   20.0908   -8.1405  -15.4969 C   0  0  2  0  0  0  0  0  0  0  0  0
   19.9618   -9.3987  -16.2577 N   0  0  0  0  0  0  0  0  0  0  0  0
   19.4781   -7.0254  -16.2484 C   0  0  0  0  0  0  0  0  0  0  0  0
   18.8590   -6.0827  -15.6487 O   0  0  0  0  0  0  0  0  0  0  0  0
   21.5522   -5.9476  -13.6954 C   0  0  0  0  0  0  0  0  0  0  0  0
   21.8519   -4.6324  -13.3580 C   0  0  0  0  0  0  0  0  0  0  0  0
   19.5524   -6.9595  -17.6136 O   0  0  0  0  0  0  0  0  0  0  0  0
  1  2  1  0
  2  3  1  0
  3  4  1  6
  5  3  1  0
  5  6  1  1
  7  8  2  0
  7  5  1  0
 10  9  1  0
 10 12  1  0
 11 10  2  0
 13 12  1  0
 14 13  1  1
 14 15  1  0
 15  7  1  0
 16 25  1  0
 16 14  1  0
 17 16  2  0
 19 18  1  0
 20 19  2  0
 21 20  1  0
 22 28  1  0
 22 21  2  0
 24 23  1  6
 23 22  1  0
 24 25  1  0
 24 26  1  0
 26 30  1  0
 27 26  2  0
 28 29  2  0
 29 19  1  0
M  END
$$$$
