IQY.pdb
     RDKit          3D

 30 30  0  0  1  0  0  0  0  0999 V2000
   26.3424   -9.5761  -24.3143 C   0  0  0  0  0  0  0  0  0  0  0  0
   25.0063   -9.4266  -23.6583 C   0  0  0  0  0  0  0  0  0  0  0  0
   25.0309   -8.3800  -22.5322 C   0  0  2  0  0  0  0  0  0  0  0  0
   25.9689   -8.7893  -21.4504 C   0  0  0  0  0  0  0  0  0  0  0  0
   23.6022   -8.2268  -22.0889 C   0  0  2  0  0  0  0  0  0  0  0  0
   22.8426   -7.7281  -23.2376 N   0  0  0  0  0  0  0  0  0  0  0  0
   23.3853   -7.2775  -20.9928 C   0  0  0  0  0  0  0  0  0  0  0  0
   23.9403   -7.3868  -19.8563 O   0  0  0  0  0  0  0  0  0  0  0  0
   20.3927   -1.7875  -21.5952 N   0  0  0  0  0  0  0  0  0  0  0  0
   20.4629   -1.9052  -20.1897 C   0  0  0  0  0  0  0  0  0  0  0  0
   19.9615   -0.9879  -19.4803 O   0  0  0  0  0  0  0  0  0  0  0  0
   21.1121   -3.0816  -19.5230 C   0  0  0  0  0  0  0  0  0  0  0  0
   21.5491   -4.0577  -20.5884 C   0  0  0  0  0  0  0  0  0  0  0  0
   22.1967   -5.2831  -20.0134 C   0  0  2  0  0  0  0  0  0  0  0  0
   22.5303   -6.1530  -21.1247 N   0  0  0  0  0  0  0  0  0  0  0  0
   21.4306   -5.9419  -18.9712 C   0  0  0  0  0  0  0  0  0  0  0  0
   20.5387   -6.7571  -19.2781 O   0  0  0  0  0  0  0  0  0  0  0  0
   18.6146   -9.4893  -11.4184 O   0  0  0  0  0  0  0  0  0  0  0  0
   19.3110   -8.9622  -12.5158 C   0  0  0  0  0  0  0  0  0  0  0  0
   20.2531   -7.9812  -12.3197 C   0  0  0  0  0  0  0  0  0  0  0  0
   20.9519   -7.4485  -13.3985 C   0  0  0  0  0  0  0  0  0  0  0  0
   20.7273   -7.8799  -14.6852 C   0  0  0  0  0  0  0  0  0  0  0  0
   21.4640   -7.3112  -15.8263 C   0  0  0  0  0  0  0  0  0  0  0  0
   20.7637   -6.2076  -16.5529 C   0  0  2  0  0  0  0  0  0  0  0  0
   21.6621   -5.6893  -17.6031 N   0  0  0  0  0  0  0  0  0  0  0  0
   20.4141   -5.1303  -15.6040 C   0  0  0  0  0  0  0  0  0  0  0  0
   19.3444   -5.1813  -14.9077 O   0  0  0  0  0  0  0  0  0  0  0  0
   19.7809   -8.8630  -14.8659 C   0  0  0  0  0  0  0  0  0  0  0  0
   19.0756   -9.4038  -13.7966 C   0  0  0  0  0  0  0  0  0  0  0  0
   21.2229   -4.0392  -15.4340 O   0  0  0  0  0  0  0  0  0  0  0  0
  1  2  1  0
  2  3  1  0
  3  4  1  1
  5  3  1  0
  5  6  1  6
  7  8  2  0
  7  5  1  0
 10  9  1  0
 10 12  1  0
 11 10  2  0
 13 12  1  0
 14 13  1  6
 14 15  1  0
 15  7  1  0
 16 25  1  0
 16 14  1  0
 17 16  2  0
 19 18  1  0
 20 19  2  0
 21 20  1  0
 22 28  1  0
 22 21  2  0
 24 23  1  1
 23 22  1  0
 24 25  1  0
 24 26  1  0
 26 30  1  0
 27 26  2  0
 28 29  2  0
 29 19  1  0
M  END
$$$$
