IQY.pdb
     RDKit          3D

 30 30  0  0  1  0  0  0  0  0999 V2000
   22.3562  -14.7392  -21.7438 C   0  0  0  0  0  0  0  0  0  0  0  0
   22.2394  -14.0436  -20.4246 C   0  0  0  0  0  0  0  0  0  0  0  0
   21.5301  -12.6851  -20.5500 C   0  0  2  0  0  0  0  0  0  0  0  0
   22.2088  -11.8255  -21.5590 C   0  0  0  0  0  0  0  0  0  0  0  0
   21.5062  -12.1098  -19.1609 C   0  0  2  0  0  0  0  0  0  0  0  0
   20.9114  -13.1202  -18.2830 N   0  0  0  0  0  0  0  0  0  0  0  0
   20.7099  -10.8890  -19.0028 C   0  0  0  0  0  0  0  0  0  0  0  0
   21.0768   -9.7559  -19.4421 O   0  0  0  0  0  0  0  0  0  0  0  0
   14.6162  -11.0914  -17.7376 N   0  0  0  0  0  0  0  0  0  0  0  0
   14.8104   -9.7000  -17.8815 C   0  0  0  0  0  0  0  0  0  0  0  0
   13.8059   -8.9379  -17.8026 O   0  0  0  0  0  0  0  0  0  0  0  0
   16.1675   -9.1087  -18.1237 C   0  0  0  0  0  0  0  0  0  0  0  0
   17.1797  -10.2279  -18.1642 C   0  0  0  0  0  0  0  0  0  0  0  0
   18.5863   -9.7248  -18.3065 C   0  0  2  0  0  0  0  0  0  0  0  0
   19.4550  -10.8854  -18.3406 N   0  0  0  0  0  0  0  0  0  0  0  0
   18.9794   -8.7351  -17.3202 C   0  0  0  0  0  0  0  0  0  0  0  0
   19.5280   -9.0985  -16.2613 O   0  0  0  0  0  0  0  0  0  0  0  0
   23.3423   -2.4120  -13.4560 O   0  0  0  0  0  0  0  0  0  0  0  0
   22.7075   -3.4064  -14.2145 C   0  0  0  0  0  0  0  0  0  0  0  0
   22.4362   -3.1833  -15.5430 C   0  0  0  0  0  0  0  0  0  0  0  0
   21.8069   -4.1601  -16.3082 C   0  0  0  0  0  0  0  0  0  0  0  0
   21.4380   -5.3703  -15.7684 C   0  0  0  0  0  0  0  0  0  0  0  0
   20.7672   -6.4009  -16.5784 C   0  0  0  0  0  0  0  0  0  0  0  0
   19.2729   -6.3424  -16.5771 C   0  0  2  0  0  0  0  0  0  0  0  0
   18.7599   -7.3562  -17.5193 N   0  0  0  0  0  0  0  0  0  0  0  0
   18.8274   -4.9944  -16.9867 C   0  0  0  0  0  0  0  0  0  0  0  0
   18.5848   -4.7195  -18.2104 O   0  0  0  0  0  0  0  0  0  0  0  0
   21.7164   -5.5794  -14.4366 C   0  0  0  0  0  0  0  0  0  0  0  0
   22.3448   -4.6117  -13.6608 C   0  0  0  0  0  0  0  0  0  0  0  0
   18.6562   -3.9910  -16.0715 O   0  0  0  0  0  0  0  0  0  0  0  0
  1  2  1  0
  2  3  1  0
  3  4  1  6
  5  3  1  0
  5  6  1  1
  7  8  2  0
  7  5  1  0
 10  9  1  0
 10 12  1  0
 11 10  2  0
 13 12  1  0
 14 13  1  1
 14 15  1  0
 15  7  1  0
 16 25  1  0
 16 14  1  0
 17 16  2  0
 19 18  1  0
 20 19  2  0
 21 20  1  0
 22 28  1  0
 22 21  2  0
 24 23  1  6
 23 22  1  0
 24 25  1  0
 24 26  1  0
 26 30  1  0
 27 26  2  0
 28 29  2  0
 29 19  1  0
M  END
$$$$
