IQY.pdb
     RDKit          3D

 30 30  0  0  1  0  0  0  0  0999 V2000
   25.2905  -16.4306  -18.8494 C   0  0  0  0  0  0  0  0  0  0  0  0
   25.4007  -15.3323  -17.8399 C   0  0  0  0  0  0  0  0  0  0  0  0
   24.4832  -14.1453  -18.1770 C   0  0  2  0  0  0  0  0  0  0  0  0
   24.7806  -13.6168  -19.5371 C   0  0  0  0  0  0  0  0  0  0  0  0
   24.6828  -13.1499  -17.0677 C   0  0  2  0  0  0  0  0  0  0  0  0
   24.3864  -13.8378  -15.8090 N   0  0  0  0  0  0  0  0  0  0  0  0
   23.8136  -11.9705  -17.1212 C   0  0  0  0  0  0  0  0  0  0  0  0
   23.8725  -11.1028  -18.0460 O   0  0  0  0  0  0  0  0  0  0  0  0
   18.4013  -11.7852  -14.1152 N   0  0  0  0  0  0  0  0  0  0  0  0
   18.5536  -12.2670  -15.4339 C   0  0  0  0  0  0  0  0  0  0  0  0
   17.6637  -13.0295  -15.9057 O   0  0  0  0  0  0  0  0  0  0  0  0
   19.7353  -11.8997  -16.2817 C   0  0  0  0  0  0  0  0  0  0  0  0
   20.6561  -11.0218  -15.4692 C   0  0  0  0  0  0  0  0  0  0  0  0
   21.8835  -10.6167  -16.2315 C   0  0  2  0  0  0  0  0  0  0  0  0
   22.8302  -11.7106  -16.1321 N   0  0  0  0  0  0  0  0  0  0  0  0
   22.4396   -9.3321  -15.8477 C   0  0  0  0  0  0  0  0  0  0  0  0
   23.1057   -9.2330  -14.7985 O   0  0  0  0  0  0  0  0  0  0  0  0
   25.0725   -0.8276  -16.6219 O   0  0  0  0  0  0  0  0  0  0  0  0
   24.6476   -2.1484  -16.8269 C   0  0  0  0  0  0  0  0  0  0  0  0
   23.3317   -2.4035  -17.1295 C   0  0  0  0  0  0  0  0  0  0  0  0
   22.8953   -3.7084  -17.3354 C   0  0  0  0  0  0  0  0  0  0  0  0
   23.7557   -4.7778  -17.2443 C   0  0  0  0  0  0  0  0  0  0  0  0
   23.2910   -6.1588  -17.4572 C   0  0  0  0  0  0  0  0  0  0  0  0
   22.8067   -6.8660  -16.2319 C   0  0  2  0  0  0  0  0  0  0  0  0
   22.2510   -8.1741  -16.6304 N   0  0  0  0  0  0  0  0  0  0  0  0
   21.7684   -6.0528  -15.5656 C   0  0  0  0  0  0  0  0  0  0  0  0
   20.5465   -6.1062  -15.9342 O   0  0  0  0  0  0  0  0  0  0  0  0
   25.0707   -4.5067  -16.9407 C   0  0  0  0  0  0  0  0  0  0  0  0
   25.5198   -3.2073  -16.7327 C   0  0  0  0  0  0  0  0  0  0  0  0
   22.0757   -5.2141  -14.5284 O   0  0  0  0  0  0  0  0  0  0  0  0
  1  2  1  0
  2  3  1  0
  3  4  1  6
  5  3  1  0
  5  6  1  1
  7  8  2  0
  7  5  1  0
 10  9  1  0
 10 12  1  0
 11 10  2  0
 13 12  1  0
 14 13  1  1
 14 15  1  0
 15  7  1  0
 16 25  1  0
 16 14  1  0
 17 16  2  0
 19 18  1  0
 20 19  2  0
 21 20  1  0
 22 28  1  0
 22 21  2  0
 24 23  1  6
 23 22  1  0
 24 25  1  0
 24 26  1  0
 26 30  1  0
 27 26  2  0
 28 29  2  0
 29 19  1  0
M  END
$$$$
