IQY.pdb
     RDKit          3D

 30 30  0  0  1  0  0  0  0  0999 V2000
   22.5125  -13.5848   10.5222 C   0  0  0  0  0  0  0  0  0  0  0  0
   21.6266  -14.7526   10.8206 C   0  0  0  0  0  0  0  0  0  0  0  0
   20.9199  -15.2770    9.5597 C   0  0  2  0  0  0  0  0  0  0  0  0
   19.9996  -14.2473    9.0026 C   0  0  0  0  0  0  0  0  0  0  0  0
   20.2431  -16.5540    9.9749 C   0  0  2  0  0  0  0  0  0  0  0  0
   21.1947  -17.3006   10.8009 N   0  0  0  0  0  0  0  0  0  0  0  0
   19.8499  -17.4402    8.8751 C   0  0  0  0  0  0  0  0  0  0  0  0
   20.6763  -18.1477    8.2208 O   0  0  0  0  0  0  0  0  0  0  0  0
   15.8222  -21.6196    8.9634 N   0  0  0  0  0  0  0  0  0  0  0  0
   15.8938  -21.5157    7.5568 C   0  0  0  0  0  0  0  0  0  0  0  0
   15.3926  -22.4396    6.8559 O   0  0  0  0  0  0  0  0  0  0  0  0
   16.5444  -20.3461    6.8794 C   0  0  0  0  0  0  0  0  0  0  0  0
   17.1254  -19.4394    7.9373 C   0  0  0  0  0  0  0  0  0  0  0  0
   18.0954  -18.4445    7.3708 C   0  0  2  0  0  0  0  0  0  0  0  0
   18.5005  -17.5743    8.4578 N   0  0  0  0  0  0  0  0  0  0  0  0
   17.6172  -17.7284    6.2023 C   0  0  0  0  0  0  0  0  0  0  0  0
   16.8947  -16.7223    6.3440 O   0  0  0  0  0  0  0  0  0  0  0  0
   20.1600  -11.9330    5.6065 O   0  0  0  0  0  0  0  0  0  0  0  0
   19.7614  -13.1209    4.9765 C   0  0  0  0  0  0  0  0  0  0  0  0
   18.8000  -13.0844    3.9953 C   0  0  0  0  0  0  0  0  0  0  0  0
   18.3942  -14.2545    3.3613 C   0  0  0  0  0  0  0  0  0  0  0  0
   18.9346  -15.4759    3.6904 C   0  0  0  0  0  0  0  0  0  0  0  0
   18.5000  -16.7140    3.0222 C   0  0  0  0  0  0  0  0  0  0  0  0
   17.3944  -17.4542    3.7046 C   0  0  2  0  0  0  0  0  0  0  0  0
   17.9452  -18.1356    4.8925 N   0  0  0  0  0  0  0  0  0  0  0  0
   16.8098  -18.4431    2.7752 C   0  0  0  0  0  0  0  0  0  0  0  0
   16.9479  -19.6981    2.9694 O   0  0  0  0  0  0  0  0  0  0  0  0
   19.8965  -15.4967    4.6748 C   0  0  0  0  0  0  0  0  0  0  0  0
   20.3110  -14.3347    5.3162 C   0  0  0  0  0  0  0  0  0  0  0  0
   16.0975  -18.0525    1.6735 O   0  0  0  0  0  0  0  0  0  0  0  0
  1  2  1  0
  2  3  1  0
  3  4  1  1
  5  3  1  0
  5  6  1  1
  7  8  2  0
  7  5  1  0
 10  9  1  0
 10 12  1  0
 11 10  2  0
 13 12  1  0
 14 13  1  1
 14 15  1  0
 15  7  1  0
 16 25  1  0
 16 14  1  0
 17 16  2  0
 19 18  1  0
 20 19  2  0
 21 20  1  0
 22 28  1  0
 22 21  2  0
 24 23  1  6
 23 22  1  0
 24 25  1  0
 24 26  1  0
 26 30  1  0
 27 26  2  0
 28 29  2  0
 29 19  1  0
M  END
$$$$
