IQY.pdb
     RDKit          3D

 30 30  0  0  1  0  0  0  0  0999 V2000
   22.6308   -9.3735  -21.2817 C   0  0  0  0  0  0  0  0  0  0  0  0
   22.2458   -9.3196  -19.8373 C   0  0  0  0  0  0  0  0  0  0  0  0
   20.8614   -8.6826  -19.6330 C   0  0  2  0  0  0  0  0  0  0  0  0
   20.8080   -7.3261  -20.2452 C   0  0  0  0  0  0  0  0  0  0  0  0
   20.6198   -8.7030  -18.1490 C   0  0  2  0  0  0  0  0  0  0  0  0
   20.8719  -10.0699  -17.6872 N   0  0  0  0  0  0  0  0  0  0  0  0
   19.2571   -8.3591  -17.7319 C   0  0  0  0  0  0  0  0  0  0  0  0
   18.6963   -7.2579  -18.0226 O   0  0  0  0  0  0  0  0  0  0  0  0
   15.0973  -12.7258  -16.7222 N   0  0  0  0  0  0  0  0  0  0  0  0
   14.8510  -11.8416  -17.7953 C   0  0  0  0  0  0  0  0  0  0  0  0
   14.0731  -12.2133  -18.7188 O   0  0  0  0  0  0  0  0  0  0  0  0
   15.4842  -10.4836  -17.8664 C   0  0  0  0  0  0  0  0  0  0  0  0
   16.3483  -10.2912  -16.6437 C   0  0  0  0  0  0  0  0  0  0  0  0
   17.0659   -8.9733  -16.6496 C   0  0  2  0  0  0  0  0  0  0  0  0
   18.4553   -9.2434  -16.9648 N   0  0  0  0  0  0  0  0  0  0  0  0
   16.8879   -8.1801  -15.4471 C   0  0  0  0  0  0  0  0  0  0  0  0
   17.6510   -8.3467  -14.4754 O   0  0  0  0  0  0  0  0  0  0  0  0
   16.3016   -1.8424   -9.6164 O   0  0  0  0  0  0  0  0  0  0  0  0
   16.4491   -2.8001  -10.6303 C   0  0  0  0  0  0  0  0  0  0  0  0
   16.1935   -2.4572  -11.9363 C   0  0  0  0  0  0  0  0  0  0  0  0
   16.3353   -3.3963  -12.9529 C   0  0  0  0  0  0  0  0  0  0  0  0
   16.7317   -4.6871  -12.6902 C   0  0  0  0  0  0  0  0  0  0  0  0
   16.8760   -5.6812  -13.7668 C   0  0  0  0  0  0  0  0  0  0  0  0
   15.6404   -6.4604  -14.0869 C   0  0  2  0  0  0  0  0  0  0  0  0
   15.8672   -7.2130  -15.3362 N   0  0  0  0  0  0  0  0  0  0  0  0
   14.4979   -5.5375  -14.2482 C   0  0  0  0  0  0  0  0  0  0  0  0
   14.1138   -5.1535  -15.4045 O   0  0  0  0  0  0  0  0  0  0  0  0
   16.9842   -5.0157  -11.3776 C   0  0  0  0  0  0  0  0  0  0  0  0
   16.8464   -4.0868  -10.3522 C   0  0  0  0  0  0  0  0  0  0  0  0
   13.8074   -5.0611  -13.1665 O   0  0  0  0  0  0  0  0  0  0  0  0
  1  2  1  0
  2  3  1  0
  3  4  1  1
  5  3  1  0
  5  6  1  6
  7  8  2  0
  7  5  1  0
 10  9  1  0
 10 12  1  0
 11 10  2  0
 13 12  1  0
 14 13  1  1
 14 15  1  0
 15  7  1  0
 16 25  1  0
 16 14  1  0
 17 16  2  0
 19 18  1  0
 20 19  2  0
 21 20  1  0
 22 28  1  0
 22 21  2  0
 24 23  1  6
 23 22  1  0
 24 25  1  0
 24 26  1  0
 26 30  1  0
 27 26  2  0
 28 29  2  0
 29 19  1  0
M  END
$$$$
