IQY.pdb
     RDKit          3D

 30 30  0  0  1  0  0  0  0  0999 V2000
   27.5800  -15.6177  -15.9318 C   0  0  0  0  0  0  0  0  0  0  0  0
   26.2710  -15.5037  -16.6469 C   0  0  0  0  0  0  0  0  0  0  0  0
   25.7503  -14.0571  -16.6690 C   0  0  2  0  0  0  0  0  0  0  0  0
   25.4707  -13.5748  -15.2881 C   0  0  0  0  0  0  0  0  0  0  0  0
   24.5507  -14.0711  -17.5756 C   0  0  2  0  0  0  0  0  0  0  0  0
   25.0058  -14.5292  -18.8902 N   0  0  0  0  0  0  0  0  0  0  0  0
   23.9054  -12.7706  -17.7798 C   0  0  0  0  0  0  0  0  0  0  0  0
   24.3873  -11.8629  -18.5251 O   0  0  0  0  0  0  0  0  0  0  0  0
   18.7823  -11.0774  -19.8515 N   0  0  0  0  0  0  0  0  0  0  0  0
   18.7296  -11.9490  -18.7416 C   0  0  0  0  0  0  0  0  0  0  0  0
   17.6697  -12.6056  -18.5382 O   0  0  0  0  0  0  0  0  0  0  0  0
   19.8903  -12.1137  -17.8057 C   0  0  0  0  0  0  0  0  0  0  0  0
   20.9811  -11.1554  -18.2189 C   0  0  0  0  0  0  0  0  0  0  0  0
   22.1031  -11.0995  -17.2240 C   0  0  2  0  0  0  0  0  0  0  0  0
   22.6794  -12.4283  -17.1530 N   0  0  0  0  0  0  0  0  0  0  0  0
   21.7388  -10.5556  -15.9286 C   0  0  0  0  0  0  0  0  0  0  0  0
   21.3275  -11.3157  -15.0300 O   0  0  0  0  0  0  0  0  0  0  0  0
   25.3584   -4.0571  -16.7468 O   0  0  0  0  0  0  0  0  0  0  0  0
   24.7043   -5.0368  -15.9858 C   0  0  0  0  0  0  0  0  0  0  0  0
   24.9971   -6.3646  -16.1846 C   0  0  0  0  0  0  0  0  0  0  0  0
   24.3564   -7.3479  -15.4374 C   0  0  0  0  0  0  0  0  0  0  0  0
   23.4174   -7.0298  -14.4838 C   0  0  0  0  0  0  0  0  0  0  0  0
   22.7363   -8.0721  -13.6978 C   0  0  0  0  0  0  0  0  0  0  0  0
   21.4949   -8.6304  -14.3168 C   0  0  2  0  0  0  0  0  0  0  0  0
   21.8344   -9.1773  -15.6451 N   0  0  0  0  0  0  0  0  0  0  0  0
   20.4814   -7.5633  -14.4489 C   0  0  0  0  0  0  0  0  0  0  0  0
   20.0299   -6.9471  -13.4250 O   0  0  0  0  0  0  0  0  0  0  0  0
   23.1347   -5.6958  -14.2958 C   0  0  0  0  0  0  0  0  0  0  0  0
   23.7678   -4.7032  -15.0357 C   0  0  0  0  0  0  0  0  0  0  0  0
   19.9900   -7.1937  -15.6719 O   0  0  0  0  0  0  0  0  0  0  0  0
  1  2  1  0
  2  3  1  0
  3  4  1  1
  5  3  1  0
  5  6  1  6
  7  8  2  0
  7  5  1  0
 10  9  1  0
 10 12  1  0
 11 10  2  0
 13 12  1  0
 14 13  1  6
 14 15  1  0
 15  7  1  0
 16 25  1  0
 16 14  1  0
 17 16  2  0
 19 18  1  0
 20 19  2  0
 21 20  1  0
 22 28  1  0
 22 21  2  0
 24 23  1  6
 23 22  1  0
 24 25  1  0
 24 26  1  0
 26 30  1  0
 27 26  2  0
 28 29  2  0
 29 19  1  0
M  END
$$$$
