IQY.pdb
     RDKit          3D

 30 30  0  0  1  0  0  0  0  0999 V2000
   29.6057  -19.7951  -18.2623 C   0  0  0  0  0  0  0  0  0  0  0  0
   28.4246  -20.6712  -17.9885 C   0  0  0  0  0  0  0  0  0  0  0  0
   27.7324  -20.3085  -16.6642 C   0  0  2  0  0  0  0  0  0  0  0  0
   28.7108  -20.2988  -15.5416 C   0  0  0  0  0  0  0  0  0  0  0  0
   26.6152  -21.3022  -16.5044 C   0  0  2  0  0  0  0  0  0  0  0  0
   25.7076  -21.1208  -17.6396 N   0  0  0  0  0  0  0  0  0  0  0  0
   25.8099  -21.1484  -15.2890 C   0  0  0  0  0  0  0  0  0  0  0  0
   25.1080  -20.1195  -15.0437 O   0  0  0  0  0  0  0  0  0  0  0  0
   23.2895  -25.5619  -13.8683 N   0  0  0  0  0  0  0  0  0  0  0  0
   22.6576  -24.4385  -14.4453 C   0  0  0  0  0  0  0  0  0  0  0  0
   21.7811  -24.6284  -15.3350 O   0  0  0  0  0  0  0  0  0  0  0  0
   22.9978  -23.0371  -14.0323 C   0  0  0  0  0  0  0  0  0  0  0  0
   24.0403  -23.0965  -12.9421 C   0  0  0  0  0  0  0  0  0  0  0  0
   25.0365  -21.9785  -13.0390 C   0  0  2  0  0  0  0  0  0  0  0  0
   25.7545  -22.1514  -14.2869 N   0  0  0  0  0  0  0  0  0  0  0  0
   25.9054  -21.8383  -11.8848 C   0  0  0  0  0  0  0  0  0  0  0  0
   26.8150  -22.6680  -11.6887 O   0  0  0  0  0  0  0  0  0  0  0  0
   29.2192  -19.4463   -4.0226 O   0  0  0  0  0  0  0  0  0  0  0  0
   28.7557  -19.5568   -5.3416 C   0  0  0  0  0  0  0  0  0  0  0  0
   27.7628  -18.7188   -5.7893 C   0  0  0  0  0  0  0  0  0  0  0  0
   27.2927  -18.8165   -7.0951 C   0  0  0  0  0  0  0  0  0  0  0  0
   27.7991  -19.7449   -7.9747 C   0  0  0  0  0  0  0  0  0  0  0  0
   27.2965  -19.8505   -9.3548 C   0  0  0  0  0  0  0  0  0  0  0  0
   26.2405  -20.8867   -9.5727 C   0  0  2  0  0  0  0  0  0  0  0  0
   25.7557  -20.7815  -10.9629 N   0  0  0  0  0  0  0  0  0  0  0  0
   25.1266  -20.6687   -8.6266 C   0  0  0  0  0  0  0  0  0  0  0  0
   24.1063  -19.9725   -8.9527 O   0  0  0  0  0  0  0  0  0  0  0  0
   28.7931  -20.5772   -7.5122 C   0  0  0  0  0  0  0  0  0  0  0  0
   29.2720  -20.4900   -6.2097 C   0  0  0  0  0  0  0  0  0  0  0  0
   25.1448  -21.2051   -7.3675 O   0  0  0  0  0  0  0  0  0  0  0  0
  1  2  1  0
  2  3  1  0
  3  4  1  1
  5  3  1  0
  5  6  1  6
  7  8  2  0
  7  5  1  0
 10  9  1  0
 10 12  1  0
 11 10  2  0
 13 12  1  0
 14 13  1  1
 14 15  1  0
 15  7  1  0
 16 25  1  0
 16 14  1  0
 17 16  2  0
 19 18  1  0
 20 19  2  0
 21 20  1  0
 22 28  1  0
 22 21  2  0
 24 23  1  1
 23 22  1  0
 24 25  1  0
 24 26  1  0
 26 30  1  0
 27 26  2  0
 28 29  2  0
 29 19  1  0
M  END
$$$$
