IQY.pdb
     RDKit          3D

 30 30  0  0  1  0  0  0  0  0999 V2000
   29.4778  -15.9261  -18.2165 C   0  0  0  0  0  0  0  0  0  0  0  0
   29.7266  -17.2857  -18.7884 C   0  0  0  0  0  0  0  0  0  0  0  0
   28.6498  -18.2968  -18.3612 C   0  0  2  0  0  0  0  0  0  0  0  0
   28.5891  -18.4091  -16.8775 C   0  0  0  0  0  0  0  0  0  0  0  0
   28.9942  -19.5793  -19.0665 C   0  0  2  0  0  0  0  0  0  0  0  0
   29.0011  -19.2958  -20.5035 N   0  0  0  0  0  0  0  0  0  0  0  0
   28.0511  -20.6819  -18.8564 C   0  0  0  0  0  0  0  0  0  0  0  0
   26.8655  -20.6808  -19.3102 O   0  0  0  0  0  0  0  0  0  0  0  0
   24.7361  -25.8125  -17.8131 N   0  0  0  0  0  0  0  0  0  0  0  0
   26.1458  -25.7418  -17.7657 C   0  0  0  0  0  0  0  0  0  0  0  0
   26.7456  -26.2760  -16.7906 O   0  0  0  0  0  0  0  0  0  0  0  0
   26.9425  -25.0542  -18.8347 C   0  0  0  0  0  0  0  0  0  0  0  0
   27.9832  -24.1831  -18.1738 C   0  0  0  0  0  0  0  0  0  0  0  0
   27.4312  -22.8558  -17.7431 C   0  0  2  0  0  0  0  0  0  0  0  0
   28.3995  -21.8454  -18.1229 N   0  0  0  0  0  0  0  0  0  0  0  0
   27.0379  -22.7863  -16.3476 C   0  0  0  0  0  0  0  0  0  0  0  0
   27.9062  -22.6406  -15.4649 O   0  0  0  0  0  0  0  0  0  0  0  0
   24.2525  -20.0570   -8.7349 O   0  0  0  0  0  0  0  0  0  0  0  0
   24.6178  -20.3885  -10.0478 C   0  0  0  0  0  0  0  0  0  0  0  0
   25.8864  -20.8479  -10.3085 C   0  0  0  0  0  0  0  0  0  0  0  0
   26.2634  -21.1807  -11.6057 C   0  0  0  0  0  0  0  0  0  0  0  0
   25.3898  -21.0630  -12.6617 C   0  0  0  0  0  0  0  0  0  0  0  0
   25.7923  -21.4105  -14.0348 C   0  0  0  0  0  0  0  0  0  0  0  0
   25.2821  -22.7232  -14.5374 C   0  0  2  0  0  0  0  0  0  0  0  0
   25.6886  -22.8790  -15.9478 N   0  0  0  0  0  0  0  0  0  0  0  0
   23.8093  -22.7610  -14.4244 C   0  0  0  0  0  0  0  0  0  0  0  0
   23.0613  -22.2829  -15.3430 O   0  0  0  0  0  0  0  0  0  0  0  0
   24.1227  -20.6017  -12.3851 C   0  0  0  0  0  0  0  0  0  0  0  0
   23.7331  -20.2657  -11.0934 C   0  0  0  0  0  0  0  0  0  0  0  0
   23.1914  -23.3105  -13.3336 O   0  0  0  0  0  0  0  0  0  0  0  0
  1  2  1  0
  2  3  1  0
  3  4  1  1
  5  3  1  0
  5  6  1  6
  7  8  2  0
  7  5  1  0
 10  9  1  0
 10 12  1  0
 11 10  2  0
 13 12  1  0
 14 13  1  1
 14 15  1  0
 15  7  1  0
 16 25  1  0
 16 14  1  0
 17 16  2  0
 19 18  1  0
 20 19  2  0
 21 20  1  0
 22 28  1  0
 22 21  2  0
 24 23  1  6
 23 22  1  0
 24 25  1  0
 24 26  1  0
 26 30  1  0
 27 26  2  0
 28 29  2  0
 29 19  1  0
M  END
$$$$
