FQG.pdb
     RDKit          3D

 25 25  0  0  1  0  0  0  0  0999 V2000
    8.4374  -16.5729   26.5333 N   0  0  0  0  0  0  0  0  0  0  0  0
    7.4250  -16.7287   25.5050 C   0  0  1  0  0  0  0  0  0  0  0  0
    6.3273  -15.7316   25.6280 C   0  0  0  0  0  0  0  0  0  0  0  0
    6.7336  -14.4239   26.1808 C   0  0  0  0  0  0  0  0  0  0  0  0
    5.7666  -13.4377   26.3605 C   0  0  0  0  0  0  0  0  0  0  0  0
    6.1097  -12.2081   26.8857 C   0  0  0  0  0  0  0  0  0  0  0  0
    7.4021  -11.9287   27.2410 C   0  0  0  0  0  0  0  0  0  0  0  0
    8.3683  -12.8736   27.0766 C   0  0  0  0  0  0  0  0  0  0  0  0
    8.0199  -14.1060   26.5495 C   0  0  0  0  0  0  0  0  0  0  0  0
    8.0711  -16.6527   24.1863 C   0  0  0  0  0  0  0  0  0  0  0  0
    8.2726  -17.6874   23.5314 O   0  0  0  0  0  0  0  0  0  0  0  0
    5.3978  -15.8437   20.9525 N   0  0  0  0  0  0  0  0  0  0  0  0
    6.5410  -15.0759   20.6263 C   0  0  0  0  0  0  0  0  0  0  0  0
    7.1657  -15.2743   19.5697 O   0  0  0  0  0  0  0  0  0  0  0  0
    7.0305  -14.0013   21.5468 C   0  0  0  0  0  0  0  0  0  0  0  0
    8.5328  -14.0619   21.6031 C   0  0  0  0  0  0  0  0  0  0  0  0
    8.9850  -15.2886   22.2752 C   0  0  2  0  0  0  0  0  0  0  0  0
    8.4729  -15.4255   23.6375 N   0  0  0  0  0  0  0  0  0  0  0  0
   10.4608  -15.4243   22.3101 C   0  0  0  0  0  0  0  0  0  0  0  0
   11.1919  -15.4181   21.2924 O   0  0  0  0  0  0  0  0  0  0  0  0
   11.1647  -15.5767   23.5605 N   0  0  0  0  0  0  0  0  0  0  0  0
   12.6190  -15.7122   23.5787 C   0  0  0  0  0  0  0  0  0  0  0  0
   13.0413  -17.0550   23.9737 C   0  0  0  0  0  0  0  0  0  0  0  0
   12.6762  -18.0792   23.3594 O   0  0  0  0  0  0  0  0  0  0  0  0
   13.8750  -17.1898   25.0677 O   0  0  0  0  0  0  0  0  0  0  0  0
  2  1  1  1
  2 10  1  0
  3  2  1  0
  4  3  1  0
  5  4  2  0
  6  5  1  0
  7  6  2  0
  7  8  1  0
  8  9  2  0
  9  4  1  0
 10 11  2  0
 13 15  1  0
 13 12  1  0
 14 13  2  0
 16 15  1  0
 17 16  1  1
 18 10  1  0
 18 17  1  0
 19 17  1  0
 19 21  1  0
 20 19  2  0
 22 23  1  0
 22 21  1  0
 23 25  1  0
 24 23  2  0
M  END
$$$$
