FQG.pdb
     RDKit          3D

 25 25  0  0  1  0  0  0  0  0999 V2000
    6.4053  -16.1803   25.6439 N   0  0  0  0  0  0  0  0  0  0  0  0
    7.1782  -15.3689   24.7215 C   0  0  1  0  0  0  0  0  0  0  0  0
    7.9862  -14.3288   25.4141 C   0  0  0  0  0  0  0  0  0  0  0  0
    7.1996  -13.2782   26.0908 C   0  0  0  0  0  0  0  0  0  0  0  0
    7.4416  -13.0163   27.4373 C   0  0  0  0  0  0  0  0  0  0  0  0
    6.7326  -12.0331   28.0978 C   0  0  0  0  0  0  0  0  0  0  0  0
    5.7791  -11.2949   27.4494 C   0  0  0  0  0  0  0  0  0  0  0  0
    5.5214  -11.5289   26.1332 C   0  0  0  0  0  0  0  0  0  0  0  0
    6.2350  -12.5161   25.4742 C   0  0  0  0  0  0  0  0  0  0  0  0
    8.0273  -16.2519   23.9081 C   0  0  0  0  0  0  0  0  0  0  0  0
    7.7086  -17.4394   23.7394 O   0  0  0  0  0  0  0  0  0  0  0  0
    8.4278  -12.5730   18.7842 N   0  0  0  0  0  0  0  0  0  0  0  0
    8.1720  -13.9598   18.9036 C   0  0  0  0  0  0  0  0  0  0  0  0
    7.1611  -14.4711   18.3913 O   0  0  0  0  0  0  0  0  0  0  0  0
    9.1142  -14.8510   19.6518 C   0  0  0  0  0  0  0  0  0  0  0  0
    8.8058  -14.7535   21.1211 C   0  0  0  0  0  0  0  0  0  0  0  0
    9.4474  -15.8459   21.8669 C   0  0  2  0  0  0  0  0  0  0  0  0
    9.2059  -15.7844   23.3073 N   0  0  0  0  0  0  0  0  0  0  0  0
   10.9096  -15.9288   21.6369 C   0  0  0  0  0  0  0  0  0  0  0  0
   11.4384  -16.0429   20.5066 O   0  0  0  0  0  0  0  0  0  0  0  0
   11.8401  -15.8815   22.7388 N   0  0  0  0  0  0  0  0  0  0  0  0
   13.2797  -15.9010   22.4924 C   0  0  0  0  0  0  0  0  0  0  0  0
   13.8229  -17.2581   22.5120 C   0  0  0  0  0  0  0  0  0  0  0  0
   13.0926  -18.2710   22.5328 O   0  0  0  0  0  0  0  0  0  0  0  0
   15.1953  -17.4201   22.5074 O   0  0  0  0  0  0  0  0  0  0  0  0
  2  1  1  1
  2 10  1  0
  3  2  1  0
  4  3  1  0
  5  4  2  0
  6  5  1  0
  7  6  2  0
  7  8  1  0
  8  9  2  0
  9  4  1  0
 10 11  2  0
 13 15  1  0
 13 12  1  0
 14 13  2  0
 16 15  1  0
 17 16  1  6
 18 10  1  0
 18 17  1  0
 19 17  1  0
 19 21  1  0
 20 19  2  0
 22 23  1  0
 22 21  1  0
 23 25  1  0
 24 23  2  0
M  END
$$$$
