FQG.pdb
     RDKit          3D

 25 25  0  0  1  0  0  0  0  0999 V2000
    6.8453  -16.7168   25.7118 N   0  0  0  0  0  0  0  0  0  0  0  0
    7.0319  -15.5508   24.8678 C   0  0  1  0  0  0  0  0  0  0  0  0
    7.9109  -14.5266   25.4944 C   0  0  0  0  0  0  0  0  0  0  0  0
    7.2166  -13.5645   26.3735 C   0  0  0  0  0  0  0  0  0  0  0  0
    5.9458  -13.1200   26.0164 C   0  0  0  0  0  0  0  0  0  0  0  0
    5.2637  -12.2296   26.8211 C   0  0  0  0  0  0  0  0  0  0  0  0
    5.8162  -11.7638   27.9839 C   0  0  0  0  0  0  0  0  0  0  0  0
    7.0569  -12.1810   28.3582 C   0  0  0  0  0  0  0  0  0  0  0  0
    7.7379  -13.0745   27.5481 C   0  0  0  0  0  0  0  0  0  0  0  0
    7.5609  -15.9856   23.5665 C   0  0  0  0  0  0  0  0  0  0  0  0
    8.0924  -17.1012   23.4520 O   0  0  0  0  0  0  0  0  0  0  0  0
    7.6307  -12.6236   18.1520 N   0  0  0  0  0  0  0  0  0  0  0  0
    8.4502  -13.7400   17.8606 C   0  0  0  0  0  0  0  0  0  0  0  0
    8.9033  -13.9208   16.7169 O   0  0  0  0  0  0  0  0  0  0  0  0
    8.7948  -14.7360   18.9241 C   0  0  0  0  0  0  0  0  0  0  0  0
    8.0329  -14.3895   20.1743 C   0  0  0  0  0  0  0  0  0  0  0  0
    8.3146  -15.3549   21.2466 C   0  0  2  0  0  0  0  0  0  0  0  0
    7.4813  -15.1636   22.4322 N   0  0  0  0  0  0  0  0  0  0  0  0
    9.7366  -15.3626   21.6656 C   0  0  0  0  0  0  0  0  0  0  0  0
   10.2223  -14.5848   22.5195 O   0  0  0  0  0  0  0  0  0  0  0  0
   10.6755  -16.2979   21.0948 N   0  0  0  0  0  0  0  0  0  0  0  0
   12.0762  -16.2854   21.5086 C   0  0  0  0  0  0  0  0  0  0  0  0
   12.8802  -17.2486   20.7582 C   0  0  0  0  0  0  0  0  0  0  0  0
   12.3812  -18.0265   19.9182 O   0  0  0  0  0  0  0  0  0  0  0  0
   14.2416  -17.2958   20.9911 O   0  0  0  0  0  0  0  0  0  0  0  0
  2  1  1  1
  2 10  1  0
  3  2  1  0
  4  3  1  0
  5  4  2  0
  6  5  1  0
  7  6  2  0
  7  8  1  0
  8  9  2  0
  9  4  1  0
 10 11  2  0
 13 15  1  0
 13 12  1  0
 14 13  2  0
 16 15  1  0
 17 16  1  6
 18 10  1  0
 18 17  1  0
 19 17  1  0
 19 21  1  0
 20 19  2  0
 22 23  1  0
 22 21  1  0
 23 25  1  0
 24 23  2  0
M  END
$$$$
