FQG.pdb
     RDKit          3D

 25 25  0  0  1  0  0  0  0  0999 V2000
    6.2895  -16.9399   24.9439 N   0  0  0  0  0  0  0  0  0  0  0  0
    6.9522  -15.7213   24.5168 C   0  0  1  0  0  0  0  0  0  0  0  0
    7.8269  -15.1457   25.5741 C   0  0  0  0  0  0  0  0  0  0  0  0
    7.2999  -13.9286   26.2232 C   0  0  0  0  0  0  0  0  0  0  0  0
    6.1396  -13.3444   25.7206 C   0  0  0  0  0  0  0  0  0  0  0  0
    5.6132  -12.2129   26.3106 C   0  0  0  0  0  0  0  0  0  0  0  0
    6.2151  -11.6397   27.3985 C   0  0  0  0  0  0  0  0  0  0  0  0
    7.3503  -12.1890   27.9114 C   0  0  0  0  0  0  0  0  0  0  0  0
    7.8752  -13.3243   27.3167 C   0  0  0  0  0  0  0  0  0  0  0  0
    7.7104  -15.9981   23.2876 C   0  0  0  0  0  0  0  0  0  0  0  0
    7.8308  -17.1640   22.8799 O   0  0  0  0  0  0  0  0  0  0  0  0
    8.6911  -13.0769   17.8102 N   0  0  0  0  0  0  0  0  0  0  0  0
    7.4532  -13.2910   18.4618 C   0  0  0  0  0  0  0  0  0  0  0  0
    6.3766  -13.0697   17.8804 O   0  0  0  0  0  0  0  0  0  0  0  0
    7.4061  -13.7910   19.8723 C   0  0  0  0  0  0  0  0  0  0  0  0
    8.8152  -13.9896   20.3608 C   0  0  0  0  0  0  0  0  0  0  0  0
    8.9086  -15.1703   21.2316 C   0  0  2  0  0  0  0  0  0  0  0  0
    8.3113  -14.9667   22.5502 N   0  0  0  0  0  0  0  0  0  0  0  0
   10.2986  -15.6528   21.4128 C   0  0  0  0  0  0  0  0  0  0  0  0
   11.0729  -15.9372   20.4695 O   0  0  0  0  0  0  0  0  0  0  0  0
   10.8593  -15.8289   22.7306 N   0  0  0  0  0  0  0  0  0  0  0  0
   12.2308  -16.3045   22.8933 C   0  0  0  0  0  0  0  0  0  0  0  0
   12.6002  -16.4473   24.3006 C   0  0  0  0  0  0  0  0  0  0  0  0
   11.7713  -16.3216   25.2262 O   0  0  0  0  0  0  0  0  0  0  0  0
   13.9163  -16.7316   24.6121 O   0  0  0  0  0  0  0  0  0  0  0  0
  2  1  1  1
  2 10  1  0
  3  2  1  0
  4  3  1  0
  5  4  2  0
  6  5  1  0
  7  6  2  0
  7  8  1  0
  8  9  2  0
  9  4  1  0
 10 11  2  0
 13 15  1  0
 13 12  1  0
 14 13  2  0
 16 15  1  0
 17 16  1  1
 18 10  1  0
 18 17  1  0
 19 17  1  0
 19 21  1  0
 20 19  2  0
 22 23  1  0
 22 21  1  0
 23 25  1  0
 24 23  2  0
M  END
$$$$
