FQG.pdb
     RDKit          3D

 25 25  0  0  1  0  0  0  0  0999 V2000
    8.6791  -17.3196   19.7175 N   0  0  0  0  0  0  0  0  0  0  0  0
    9.5792  -16.6848   20.6627 C   0  0  1  0  0  0  0  0  0  0  0  0
    8.8728  -15.7650   21.5951 C   0  0  0  0  0  0  0  0  0  0  0  0
    8.3523  -14.5299   20.9753 C   0  0  0  0  0  0  0  0  0  0  0  0
    9.2494  -13.6370   20.3940 C   0  0  0  0  0  0  0  0  0  0  0  0
    8.7958  -12.4786   19.7957 C   0  0  0  0  0  0  0  0  0  0  0  0
    7.4602  -12.1800   19.7590 C   0  0  0  0  0  0  0  0  0  0  0  0
    6.5603  -13.0344   20.3192 C   0  0  0  0  0  0  0  0  0  0  0  0
    7.0194  -14.1955   20.9183 C   0  0  0  0  0  0  0  0  0  0  0  0
   10.3131  -17.7280   21.3944 C   0  0  0  0  0  0  0  0  0  0  0  0
    9.7417  -18.7814   21.7166 O   0  0  0  0  0  0  0  0  0  0  0  0
   15.9608  -20.3774   20.0360 N   0  0  0  0  0  0  0  0  0  0  0  0
   15.3114  -19.1251   20.1494 C   0  0  0  0  0  0  0  0  0  0  0  0
   15.9159  -18.0658   19.9076 O   0  0  0  0  0  0  0  0  0  0  0  0
   13.8753  -19.0415   20.5645 C   0  0  0  0  0  0  0  0  0  0  0  0
   13.8156  -18.6981   22.0281 C   0  0  0  0  0  0  0  0  0  0  0  0
   12.4232  -18.5718   22.4824 C   0  0  2  0  0  0  0  0  0  0  0  0
   11.6620  -17.5651   21.7449 N   0  0  0  0  0  0  0  0  0  0  0  0
   12.3067  -18.2829   23.9318 C   0  0  0  0  0  0  0  0  0  0  0  0
   12.8079  -17.2802   24.4916 O   0  0  0  0  0  0  0  0  0  0  0  0
   11.5849  -19.1701   24.8117 N   0  0  0  0  0  0  0  0  0  0  0  0
   11.4533  -18.8569   26.2323 C   0  0  0  0  0  0  0  0  0  0  0  0
   12.5562  -19.4041   27.0207 C   0  0  0  0  0  0  0  0  0  0  0  0
   12.5969  -19.3162   28.2658 O   0  0  0  0  0  0  0  0  0  0  0  0
   13.5888  -20.0407   26.3586 O   0  0  0  0  0  0  0  0  0  0  0  0
  2  1  1  6
  2 10  1  0
  3  2  1  0
  4  3  1  0
  5  4  2  0
  6  5  1  0
  7  6  2  0
  7  8  1  0
  8  9  2  0
  9  4  1  0
 10 11  2  0
 13 15  1  0
 13 12  1  0
 14 13  2  0
 16 15  1  0
 17 16  1  6
 18 10  1  0
 18 17  1  0
 19 17  1  0
 19 21  1  0
 20 19  2  0
 22 23  1  0
 22 21  1  0
 23 25  1  0
 24 23  2  0
M  END
$$$$
