FQG.pdb
     RDKit          3D

 25 25  0  0  1  0  0  0  0  0999 V2000
    6.5222  -16.4971   25.7698 N   0  0  0  0  0  0  0  0  0  0  0  0
    6.9740  -15.5372   24.7792 C   0  0  1  0  0  0  0  0  0  0  0  0
    8.0073  -14.6088   25.3128 C   0  0  0  0  0  0  0  0  0  0  0  0
    7.4872  -13.5270   26.1728 C   0  0  0  0  0  0  0  0  0  0  0  0
    8.2399  -13.1173   27.2708 C   0  0  0  0  0  0  0  0  0  0  0  0
    7.7890  -12.1009   28.0890 C   0  0  0  0  0  0  0  0  0  0  0  0
    6.5972  -11.4737   27.8429 C   0  0  0  0  0  0  0  0  0  0  0  0
    5.8404  -11.8532   26.7767 C   0  0  0  0  0  0  0  0  0  0  0  0
    6.2964  -12.8731   25.9583 C   0  0  0  0  0  0  0  0  0  0  0  0
    7.4671  -16.2661   23.6011 C   0  0  0  0  0  0  0  0  0  0  0  0
    7.5273  -17.5055   23.6163 O   0  0  0  0  0  0  0  0  0  0  0  0
    8.3508  -12.2283   18.3336 N   0  0  0  0  0  0  0  0  0  0  0  0
    8.3475  -13.6285   18.5392 C   0  0  0  0  0  0  0  0  0  0  0  0
    8.2029  -14.4153   17.5874 O   0  0  0  0  0  0  0  0  0  0  0  0
    8.5184  -14.2018   19.9117 C   0  0  0  0  0  0  0  0  0  0  0  0
    7.7400  -15.4864   19.9981 C   0  0  0  0  0  0  0  0  0  0  0  0
    8.1453  -16.2691   21.1746 C   0  0  2  0  0  0  0  0  0  0  0  0
    7.8783  -15.5911   22.4418 N   0  0  0  0  0  0  0  0  0  0  0  0
    9.5725  -16.6693   21.1454 C   0  0  0  0  0  0  0  0  0  0  0  0
   10.1225  -17.2422   20.1761 O   0  0  0  0  0  0  0  0  0  0  0  0
   10.4402  -16.4137   22.2696 N   0  0  0  0  0  0  0  0  0  0  0  0
   11.8668  -16.7158   22.1863 C   0  0  0  0  0  0  0  0  0  0  0  0
   12.5853  -16.3160   23.3952 C   0  0  0  0  0  0  0  0  0  0  0  0
   11.9961  -15.9456   24.4322 O   0  0  0  0  0  0  0  0  0  0  0  0
   13.9668  -16.3509   23.3842 O   0  0  0  0  0  0  0  0  0  0  0  0
  2  1  1  1
  2 10  1  0
  3  2  1  0
  4  3  1  0
  5  4  2  0
  6  5  1  0
  7  6  2  0
  7  8  1  0
  8  9  2  0
  9  4  1  0
 10 11  2  0
 13 15  1  0
 13 12  1  0
 14 13  2  0
 16 15  1  0
 17 16  1  6
 18 10  1  0
 18 17  1  0
 19 17  1  0
 19 21  1  0
 20 19  2  0
 22 23  1  0
 22 21  1  0
 23 25  1  0
 24 23  2  0
M  END
$$$$
