FQG.pdb
     RDKit          3D

 25 25  0  0  1  0  0  0  0  0999 V2000
    6.1785  -16.1685   24.7545 N   0  0  0  0  0  0  0  0  0  0  0  0
    7.4853  -15.6031   24.4731 C   0  0  1  0  0  0  0  0  0  0  0  0
    8.1552  -15.0770   25.6933 C   0  0  0  0  0  0  0  0  0  0  0  0
    7.6171  -13.7970   26.1956 C   0  0  0  0  0  0  0  0  0  0  0  0
    8.2561  -12.6111   25.8415 C   0  0  0  0  0  0  0  0  0  0  0  0
    7.7729  -11.3961   26.2841 C   0  0  0  0  0  0  0  0  0  0  0  0
    6.6595  -11.3267   27.0777 C   0  0  0  0  0  0  0  0  0  0  0  0
    6.0143  -12.4696   27.4397 C   0  0  0  0  0  0  0  0  0  0  0  0
    6.5022  -13.6865   26.9935 C   0  0  0  0  0  0  0  0  0  0  0  0
    8.3107  -16.6216   23.8070 C   0  0  0  0  0  0  0  0  0  0  0  0
    8.1732  -17.8206   24.0961 O   0  0  0  0  0  0  0  0  0  0  0  0
    6.9938  -17.8740   19.1477 N   0  0  0  0  0  0  0  0  0  0  0  0
    8.1777  -17.1078   19.0287 C   0  0  0  0  0  0  0  0  0  0  0  0
    8.7874  -17.0347   17.9476 O   0  0  0  0  0  0  0  0  0  0  0  0
    8.7294  -16.3625   20.2043 C   0  0  0  0  0  0  0  0  0  0  0  0
   10.0162  -17.0162   20.6289 C   0  0  0  0  0  0  0  0  0  0  0  0
   10.0294  -17.2594   22.0787 C   0  0  2  0  0  0  0  0  0  0  0  0
    9.2643  -16.2726   22.8388 N   0  0  0  0  0  0  0  0  0  0  0  0
   11.3974  -17.3338   22.6450 C   0  0  0  0  0  0  0  0  0  0  0  0
   12.2454  -18.1986   22.3239 O   0  0  0  0  0  0  0  0  0  0  0  0
   11.8467  -16.3825   23.6325 N   0  0  0  0  0  0  0  0  0  0  0  0
   13.1641  -16.5217   24.2479 C   0  0  0  0  0  0  0  0  0  0  0  0
   14.2105  -15.8718   23.4605 C   0  0  0  0  0  0  0  0  0  0  0  0
   15.3819  -15.7494   23.8758 O   0  0  0  0  0  0  0  0  0  0  0  0
   13.8858  -15.3766   22.2118 O   0  0  0  0  0  0  0  0  0  0  0  0
  2  1  1  1
  2 10  1  0
  3  2  1  0
  4  3  1  0
  5  4  2  0
  6  5  1  0
  7  6  2  0
  7  8  1  0
  8  9  2  0
  9  4  1  0
 10 11  2  0
 13 15  1  0
 13 12  1  0
 14 13  2  0
 16 15  1  0
 17 16  1  6
 18 10  1  0
 18 17  1  0
 19 17  1  0
 19 21  1  0
 20 19  2  0
 22 23  1  0
 22 21  1  0
 23 25  1  0
 24 23  2  0
M  END
$$$$
