FQG.pdb
     RDKit          3D

 25 25  0  0  1  0  0  0  0  0999 V2000
    5.9821  -16.0844   25.1531 N   0  0  0  0  0  0  0  0  0  0  0  0
    7.1747  -15.4852   24.5829 C   0  0  1  0  0  0  0  0  0  0  0  0
    7.9472  -14.6921   25.5772 C   0  0  0  0  0  0  0  0  0  0  0  0
    7.2553  -13.4920   26.0887 C   0  0  0  0  0  0  0  0  0  0  0  0
    7.8584  -12.2466   25.9300 C   0  0  0  0  0  0  0  0  0  0  0  0
    7.2340  -11.1030   26.3859 C   0  0  0  0  0  0  0  0  0  0  0  0
    6.0130  -11.1641   27.0021 C   0  0  0  0  0  0  0  0  0  0  0  0
    5.3997  -12.3678   27.1710 C   0  0  0  0  0  0  0  0  0  0  0  0
    6.0294  -13.5127   26.7120 C   0  0  0  0  0  0  0  0  0  0  0  0
    8.0009  -16.5454   23.9865 C   0  0  0  0  0  0  0  0  0  0  0  0
    7.5293  -17.6806   23.8168 O   0  0  0  0  0  0  0  0  0  0  0  0
    7.8329  -17.8116   19.4620 N   0  0  0  0  0  0  0  0  0  0  0  0
    7.8017  -16.4086   19.6450 C   0  0  0  0  0  0  0  0  0  0  0  0
    7.9164  -15.6340   18.6792 O   0  0  0  0  0  0  0  0  0  0  0  0
    7.6292  -15.8176   21.0098 C   0  0  0  0  0  0  0  0  0  0  0  0
    8.9368  -15.2115   21.4416 C   0  0  0  0  0  0  0  0  0  0  0  0
    9.7405  -16.1805   22.2008 C   0  0  2  0  0  0  0  0  0  0  0  0
    9.3279  -16.3078   23.5973 N   0  0  0  0  0  0  0  0  0  0  0  0
   11.1936  -15.8896   22.1629 C   0  0  0  0  0  0  0  0  0  0  0  0
   11.8842  -15.8914   21.1173 O   0  0  0  0  0  0  0  0  0  0  0  0
   11.9217  -15.5770   23.3689 N   0  0  0  0  0  0  0  0  0  0  0  0
   12.5254  -16.6421   24.1654 C   0  0  0  0  0  0  0  0  0  0  0  0
   13.8764  -16.9693   23.7125 C   0  0  0  0  0  0  0  0  0  0  0  0
   14.2994  -16.6486   22.5821 O   0  0  0  0  0  0  0  0  0  0  0  0
   14.7115  -17.6590   24.5709 O   0  0  0  0  0  0  0  0  0  0  0  0
  2  1  1  1
  2 10  1  0
  3  2  1  0
  4  3  1  0
  5  4  2  0
  6  5  1  0
  7  6  2  0
  7  8  1  0
  8  9  2  0
  9  4  1  0
 10 11  2  0
 13 15  1  0
 13 12  1  0
 14 13  2  0
 16 15  1  0
 17 16  1  1
 18 10  1  0
 18 17  1  0
 19 17  1  0
 19 21  1  0
 20 19  2  0
 22 23  1  0
 22 21  1  0
 23 25  1  0
 24 23  2  0
M  END
$$$$
