FQG.pdb
     RDKit          3D

 25 25  0  0  1  0  0  0  0  0999 V2000
    6.6679  -16.4239   25.7194 N   0  0  0  0  0  0  0  0  0  0  0  0
    7.9274  -15.8792   25.2465 C   0  0  1  0  0  0  0  0  0  0  0  0
    8.4317  -14.7752   26.1073 C   0  0  0  0  0  0  0  0  0  0  0  0
    7.5191  -13.6217   26.2383 C   0  0  0  0  0  0  0  0  0  0  0  0
    7.5939  -12.8286   27.3808 C   0  0  0  0  0  0  0  0  0  0  0  0
    6.7636  -11.7359   27.5303 C   0  0  0  0  0  0  0  0  0  0  0  0
    5.8510  -11.4063   26.5645 C   0  0  0  0  0  0  0  0  0  0  0  0
    5.7556  -12.1634   25.4370 C   0  0  0  0  0  0  0  0  0  0  0  0
    6.5905  -13.2588   25.2909 C   0  0  0  0  0  0  0  0  0  0  0  0
    8.9089  -16.9696   25.1456 C   0  0  0  0  0  0  0  0  0  0  0  0
    8.8628  -17.9237   25.9377 O   0  0  0  0  0  0  0  0  0  0  0  0
   11.9560  -19.6919   20.4799 N   0  0  0  0  0  0  0  0  0  0  0  0
   11.3591  -18.4112   20.4003 C   0  0  0  0  0  0  0  0  0  0  0  0
   11.3561  -17.7710   19.3344 O   0  0  0  0  0  0  0  0  0  0  0  0
   10.7133  -17.7909   21.6003 C   0  0  0  0  0  0  0  0  0  0  0  0
   10.8216  -18.7488   22.7553 C   0  0  0  0  0  0  0  0  0  0  0  0
   10.9073  -18.0255   24.0323 C   0  0  2  0  0  0  0  0  0  0  0  0
    9.9120  -16.9631   24.1646 N   0  0  0  0  0  0  0  0  0  0  0  0
   12.2492  -17.4492   24.2872 C   0  0  0  0  0  0  0  0  0  0  0  0
   13.2879  -18.1308   24.4502 O   0  0  0  0  0  0  0  0  0  0  0  0
   12.4433  -16.0215   24.3650 N   0  0  0  0  0  0  0  0  0  0  0  0
   13.7878  -15.4634   24.4850 C   0  0  0  0  0  0  0  0  0  0  0  0
   14.6591  -15.8874   23.3902 C   0  0  0  0  0  0  0  0  0  0  0  0
   15.8240  -16.2949   23.5814 O   0  0  0  0  0  0  0  0  0  0  0  0
   14.1705  -15.8330   22.0986 O   0  0  0  0  0  0  0  0  0  0  0  0
  2  1  1  1
  2 10  1  0
  3  2  1  0
  4  3  1  0
  5  4  2  0
  6  5  1  0
  7  6  2  0
  7  8  1  0
  8  9  2  0
  9  4  1  0
 10 11  2  0
 13 15  1  0
 13 12  1  0
 14 13  2  0
 16 15  1  0
 17 16  1  6
 18 10  1  0
 18 17  1  0
 19 17  1  0
 19 21  1  0
 20 19  2  0
 22 23  1  0
 22 21  1  0
 23 25  1  0
 24 23  2  0
M  END
$$$$
