FQG.pdb
     RDKit          3D

 25 25  0  0  1  0  0  0  0  0999 V2000
    6.6687  -16.6947   25.9124 N   0  0  0  0  0  0  0  0  0  0  0  0
    7.4268  -15.7457   25.1179 C   0  0  1  0  0  0  0  0  0  0  0  0
    8.1058  -14.7165   25.9510 C   0  0  0  0  0  0  0  0  0  0  0  0
    7.2887  -13.5252   26.2567 C   0  0  0  0  0  0  0  0  0  0  0  0
    6.3055  -13.1313   25.3522 C   0  0  0  0  0  0  0  0  0  0  0  0
    5.5158  -12.0293   25.6122 C   0  0  0  0  0  0  0  0  0  0  0  0
    5.6785  -11.2999   26.7594 C   0  0  0  0  0  0  0  0  0  0  0  0
    6.6317  -11.6616   27.6617 C   0  0  0  0  0  0  0  0  0  0  0  0
    7.4217  -12.7679   27.3971 C   0  0  0  0  0  0  0  0  0  0  0  0
    8.3910  -16.4834   24.2882 C   0  0  0  0  0  0  0  0  0  0  0  0
    8.7821  -17.6076   24.6393 O   0  0  0  0  0  0  0  0  0  0  0  0
   10.3754  -18.4592   18.7260 N   0  0  0  0  0  0  0  0  0  0  0  0
    9.0338  -18.3210   19.1547 C   0  0  0  0  0  0  0  0  0  0  0  0
    8.0875  -18.5882   18.3938 O   0  0  0  0  0  0  0  0  0  0  0  0
    8.7168  -17.8482   20.5395 C   0  0  0  0  0  0  0  0  0  0  0  0
    9.5805  -16.6565   20.8518 C   0  0  0  0  0  0  0  0  0  0  0  0
    9.9117  -16.6075   22.2832 C   0  0  2  0  0  0  0  0  0  0  0  0
    8.8898  -15.9455   23.0922 N   0  0  0  0  0  0  0  0  0  0  0  0
   11.2195  -15.9655   22.5575 C   0  0  0  0  0  0  0  0  0  0  0  0
   11.4251  -14.7313   22.4898 O   0  0  0  0  0  0  0  0  0  0  0  0
   12.3705  -16.7516   22.9309 N   0  0  0  0  0  0  0  0  0  0  0  0
   13.6589  -16.1074   23.1731 C   0  0  0  0  0  0  0  0  0  0  0  0
   14.7253  -17.0803   23.4049 C   0  0  0  0  0  0  0  0  0  0  0  0
   14.5158  -18.3113   23.4237 O   0  0  0  0  0  0  0  0  0  0  0  0
   16.0103  -16.6149   23.6104 O   0  0  0  0  0  0  0  0  0  0  0  0
  2  1  1  1
  2 10  1  0
  3  2  1  0
  4  3  1  0
  5  4  2  0
  6  5  1  0
  7  6  2  0
  7  8  1  0
  8  9  2  0
  9  4  1  0
 10 11  2  0
 13 15  1  0
 13 12  1  0
 14 13  2  0
 16 15  1  0
 17 16  1  6
 18 10  1  0
 18 17  1  0
 19 17  1  0
 19 21  1  0
 20 19  2  0
 22 23  1  0
 22 21  1  0
 23 25  1  0
 24 23  2  0
M  END
$$$$
