FQG.pdb
     RDKit          3D

 25 25  0  0  1  0  0  0  0  0999 V2000
    5.8559  -16.4324   25.0338 N   0  0  0  0  0  0  0  0  0  0  0  0
    7.2190  -15.9425   25.1260 C   0  0  1  0  0  0  0  0  0  0  0  0
    7.4540  -15.1342   26.3530 C   0  0  0  0  0  0  0  0  0  0  0  0
    6.9656  -13.7423   26.2842 C   0  0  0  0  0  0  0  0  0  0  0  0
    7.6534  -12.8244   25.4939 C   0  0  0  0  0  0  0  0  0  0  0  0
    7.2175  -11.5181   25.3977 C   0  0  0  0  0  0  0  0  0  0  0  0
    6.1045  -11.0945   26.0730 C   0  0  0  0  0  0  0  0  0  0  0  0
    5.4123  -11.9697   26.8530 C   0  0  0  0  0  0  0  0  0  0  0  0
    5.8528  -13.2794   26.9467 C   0  0  0  0  0  0  0  0  0  0  0  0
    8.1410  -17.0858   25.0541 C   0  0  0  0  0  0  0  0  0  0  0  0
    7.8747  -18.1387   25.6546 O   0  0  0  0  0  0  0  0  0  0  0  0
   11.8588  -15.7336   21.8011 N   0  0  0  0  0  0  0  0  0  0  0  0
   11.0494  -16.7148   21.1805 C   0  0  0  0  0  0  0  0  0  0  0  0
   10.6537  -16.5722   20.0104 O   0  0  0  0  0  0  0  0  0  0  0  0
   10.6466  -17.9540   21.9179 C   0  0  0  0  0  0  0  0  0  0  0  0
   11.3312  -17.9621   23.2575 C   0  0  0  0  0  0  0  0  0  0  0  0
   10.3514  -18.0677   24.3484 C   0  0  2  0  0  0  0  0  0  0  0  0
    9.3318  -17.0207   24.3151 N   0  0  0  0  0  0  0  0  0  0  0  0
   10.9748  -18.0764   25.6934 C   0  0  0  0  0  0  0  0  0  0  0  0
   11.7878  -17.2126   26.0973 O   0  0  0  0  0  0  0  0  0  0  0  0
   10.6713  -19.1154   26.6475 N   0  0  0  0  0  0  0  0  0  0  0  0
   11.1785  -19.0349   28.0149 C   0  0  0  0  0  0  0  0  0  0  0  0
   12.5187  -19.6057   28.1391 C   0  0  0  0  0  0  0  0  0  0  0  0
   13.1705  -20.0042   27.1511 O   0  0  0  0  0  0  0  0  0  0  0  0
   13.0797  -19.7058   29.3981 O   0  0  0  0  0  0  0  0  0  0  0  0
  2  1  1  1
  2 10  1  0
  3  2  1  0
  4  3  1  0
  5  4  2  0
  6  5  1  0
  7  6  2  0
  7  8  1  0
  8  9  2  0
  9  4  1  0
 10 11  2  0
 13 15  1  0
 13 12  1  0
 14 13  2  0
 16 15  1  0
 17 16  1  6
 18 10  1  0
 18 17  1  0
 19 17  1  0
 19 21  1  0
 20 19  2  0
 22 23  1  0
 22 21  1  0
 23 25  1  0
 24 23  2  0
M  END
$$$$
