FQG.pdb
     RDKit          3D

 25 25  0  0  1  0  0  0  0  0999 V2000
    5.9281  -17.1165   25.4316 N   0  0  0  0  0  0  0  0  0  0  0  0
    6.6884  -15.9416   25.0466 C   0  0  1  0  0  0  0  0  0  0  0  0
    7.4263  -15.3386   26.1896 C   0  0  0  0  0  0  0  0  0  0  0  0
    7.0967  -13.9263   26.4673 C   0  0  0  0  0  0  0  0  0  0  0  0
    8.0895  -12.9605   26.3208 C   0  0  0  0  0  0  0  0  0  0  0  0
    7.8126  -11.6296   26.5610 C   0  0  0  0  0  0  0  0  0  0  0  0
    6.5620  -11.2280   26.9471 C   0  0  0  0  0  0  0  0  0  0  0  0
    5.5718  -12.1500   27.0984 C   0  0  0  0  0  0  0  0  0  0  0  0
    5.8537  -13.4842   26.8563 C   0  0  0  0  0  0  0  0  0  0  0  0
    7.6013  -16.3037   23.9521 C   0  0  0  0  0  0  0  0  0  0  0  0
    7.9272  -17.4887   23.7798 O   0  0  0  0  0  0  0  0  0  0  0  0
    7.9209  -12.4702   19.0203 N   0  0  0  0  0  0  0  0  0  0  0  0
    8.3910  -13.6937   18.4863 C   0  0  0  0  0  0  0  0  0  0  0  0
    8.5787  -13.8293   17.2647 O   0  0  0  0  0  0  0  0  0  0  0  0
    8.6758  -14.8607   19.3800 C   0  0  0  0  0  0  0  0  0  0  0  0
    8.3053  -14.4898   20.7902 C   0  0  0  0  0  0  0  0  0  0  0  0
    8.5118  -15.6229   21.7037 C   0  0  2  0  0  0  0  0  0  0  0  0
    8.1231  -15.3338   23.0829 N   0  0  0  0  0  0  0  0  0  0  0  0
    9.9061  -16.1265   21.7023 C   0  0  0  0  0  0  0  0  0  0  0  0
   10.4805  -16.6037   20.6960 O   0  0  0  0  0  0  0  0  0  0  0  0
   10.7098  -16.0954   22.9003 N   0  0  0  0  0  0  0  0  0  0  0  0
   12.0912  -16.5692   22.8766 C   0  0  0  0  0  0  0  0  0  0  0  0
   13.0121  -15.5545   22.3670 C   0  0  0  0  0  0  0  0  0  0  0  0
   12.8731  -15.0288   21.2427 O   0  0  0  0  0  0  0  0  0  0  0  0
   14.0735  -15.1668   23.1626 O   0  0  0  0  0  0  0  0  0  0  0  0
  2  1  1  1
  2 10  1  0
  3  2  1  0
  4  3  1  0
  5  4  2  0
  6  5  1  0
  7  6  2  0
  7  8  1  0
  8  9  2  0
  9  4  1  0
 10 11  2  0
 13 15  1  0
 13 12  1  0
 14 13  2  0
 16 15  1  0
 17 16  1  6
 18 10  1  0
 18 17  1  0
 19 17  1  0
 19 21  1  0
 20 19  2  0
 22 23  1  0
 22 21  1  0
 23 25  1  0
 24 23  2  0
M  END
$$$$
