FQG.pdb
     RDKit          3D

 25 25  0  0  1  0  0  0  0  0999 V2000
    6.3158  -15.7996   23.6333 N   0  0  0  0  0  0  0  0  0  0  0  0
    7.2591  -16.2125   24.6562 C   0  0  1  0  0  0  0  0  0  0  0  0
    6.9273  -15.6582   25.9968 C   0  0  0  0  0  0  0  0  0  0  0  0
    6.9523  -14.1843   26.0842 C   0  0  0  0  0  0  0  0  0  0  0  0
    5.7483  -13.4956   26.2105 C   0  0  0  0  0  0  0  0  0  0  0  0
    5.7361  -12.1185   26.3065 C   0  0  0  0  0  0  0  0  0  0  0  0
    6.9008  -11.3994   26.2801 C   0  0  0  0  0  0  0  0  0  0  0  0
    8.0926  -12.0459   26.1575 C   0  0  0  0  0  0  0  0  0  0  0  0
    8.1005  -13.4275   26.0617 C   0  0  0  0  0  0  0  0  0  0  0  0
    7.3170  -17.6816   24.6845 C   0  0  0  0  0  0  0  0  0  0  0  0
    6.2865  -18.3487   24.5025 O   0  0  0  0  0  0  0  0  0  0  0  0
   10.8707  -21.4010   21.8127 N   0  0  0  0  0  0  0  0  0  0  0  0
   10.1780  -20.1911   21.5692 C   0  0  0  0  0  0  0  0  0  0  0  0
   10.2735  -19.6073   20.4756 O   0  0  0  0  0  0  0  0  0  0  0  0
    9.3092  -19.5800   22.6244 C   0  0  0  0  0  0  0  0  0  0  0  0
    9.4454  -20.3858   23.8875 C   0  0  0  0  0  0  0  0  0  0  0  0
    8.6195  -19.8201   24.9641 C   0  0  2  0  0  0  0  0  0  0  0  0
    8.5220  -18.3624   24.9148 N   0  0  0  0  0  0  0  0  0  0  0  0
    9.0746  -20.2169   26.3181 C   0  0  0  0  0  0  0  0  0  0  0  0
    8.5394  -21.1189   27.0037 O   0  0  0  0  0  0  0  0  0  0  0  0
   10.1984  -19.5651   26.9461 N   0  0  0  0  0  0  0  0  0  0  0  0
   10.3467  -19.5836   28.3991 C   0  0  0  0  0  0  0  0  0  0  0  0
   11.5139  -18.8231   28.8426 C   0  0  0  0  0  0  0  0  0  0  0  0
   12.2293  -18.1732   28.0517 O   0  0  0  0  0  0  0  0  0  0  0  0
   11.8326  -18.8272   30.1873 O   0  0  0  0  0  0  0  0  0  0  0  0
  2  1  1  6
  2 10  1  0
  3  2  1  0
  4  3  1  0
  5  4  2  0
  6  5  1  0
  7  6  2  0
  7  8  1  0
  8  9  2  0
  9  4  1  0
 10 11  2  0
 13 15  1  0
 13 12  1  0
 14 13  2  0
 16 15  1  0
 17 16  1  6
 18 10  1  0
 18 17  1  0
 19 17  1  0
 19 21  1  0
 20 19  2  0
 22 23  1  0
 22 21  1  0
 23 25  1  0
 24 23  2  0
M  END
$$$$
