FQG.pdb
     RDKit          3D

 25 25  0  0  1  0  0  0  0  0999 V2000
    5.9218  -17.1800   25.0305 N   0  0  0  0  0  0  0  0  0  0  0  0
    6.7613  -16.0055   24.8802 C   0  0  1  0  0  0  0  0  0  0  0  0
    7.2104  -15.4531   26.1869 C   0  0  0  0  0  0  0  0  0  0  0  0
    6.9327  -14.0162   26.3836 C   0  0  0  0  0  0  0  0  0  0  0  0
    7.9902  -13.1114   26.3313 C   0  0  0  0  0  0  0  0  0  0  0  0
    7.7645  -11.7599   26.4993 C   0  0  0  0  0  0  0  0  0  0  0  0
    6.5023  -11.2779   26.7203 C   0  0  0  0  0  0  0  0  0  0  0  0
    5.4493  -12.1390   26.7763 C   0  0  0  0  0  0  0  0  0  0  0  0
    5.6800  -13.4941   26.6072 C   0  0  0  0  0  0  0  0  0  0  0  0
    7.9056  -16.3457   24.0217 C   0  0  0  0  0  0  0  0  0  0  0  0
    8.1347  -17.5300   23.7304 O   0  0  0  0  0  0  0  0  0  0  0  0
    7.0688  -12.4701   18.9129 N   0  0  0  0  0  0  0  0  0  0  0  0
    7.6326  -13.7058   19.3107 C   0  0  0  0  0  0  0  0  0  0  0  0
    7.0883  -14.7834   19.0133 O   0  0  0  0  0  0  0  0  0  0  0  0
    8.9027  -13.7491   20.1022 C   0  0  0  0  0  0  0  0  0  0  0  0
    8.5580  -13.8916   21.5597 C   0  0  0  0  0  0  0  0  0  0  0  0
    9.0239  -15.1825   22.0867 C   0  0  2  0  0  0  0  0  0  0  0  0
    8.7599  -15.3552   23.5140 N   0  0  0  0  0  0  0  0  0  0  0  0
   10.4653  -15.4268   21.8406 C   0  0  0  0  0  0  0  0  0  0  0  0
   11.0014  -15.3908   20.7087 O   0  0  0  0  0  0  0  0  0  0  0  0
   11.3646  -15.7307   22.9273 N   0  0  0  0  0  0  0  0  0  0  0  0
   12.7747  -16.0069   22.6650 C   0  0  0  0  0  0  0  0  0  0  0  0
   13.5353  -16.2037   23.8980 C   0  0  0  0  0  0  0  0  0  0  0  0
   13.0627  -16.8009   24.8878 O   0  0  0  0  0  0  0  0  0  0  0  0
   14.8238  -15.7086   23.9650 O   0  0  0  0  0  0  0  0  0  0  0  0
  2  1  1  1
  2 10  1  0
  3  2  1  0
  4  3  1  0
  5  4  2  0
  6  5  1  0
  7  6  2  0
  7  8  1  0
  8  9  2  0
  9  4  1  0
 10 11  2  0
 13 15  1  0
 13 12  1  0
 14 13  2  0
 16 15  1  0
 17 16  1  1
 18 10  1  0
 18 17  1  0
 19 17  1  0
 19 21  1  0
 20 19  2  0
 22 23  1  0
 22 21  1  0
 23 25  1  0
 24 23  2  0
M  END
$$$$
