FQG.pdb
     RDKit          3D

 25 25  0  0  1  0  0  0  0  0999 V2000
    6.6888  -16.5052   22.2217 N   0  0  0  0  0  0  0  0  0  0  0  0
    7.2236  -15.4593   23.0741 C   0  0  1  0  0  0  0  0  0  0  0  0
    6.1840  -14.4855   23.5045 C   0  0  0  0  0  0  0  0  0  0  0  0
    6.6128  -13.5416   24.5560 C   0  0  0  0  0  0  0  0  0  0  0  0
    6.0339  -13.6310   25.8196 C   0  0  0  0  0  0  0  0  0  0  0  0
    6.4199  -12.7720   26.8290 C   0  0  0  0  0  0  0  0  0  0  0  0
    7.3761  -11.8160   26.6143 C   0  0  0  0  0  0  0  0  0  0  0  0
    7.9593  -11.7054   25.3891 C   0  0  0  0  0  0  0  0  0  0  0  0
    7.5694  -12.5692   24.3792 C   0  0  0  0  0  0  0  0  0  0  0  0
    7.8858  -16.0807   24.2307 C   0  0  0  0  0  0  0  0  0  0  0  0
    7.2347  -16.7902   25.0135 O   0  0  0  0  0  0  0  0  0  0  0  0
    9.4670  -21.0129   24.7869 N   0  0  0  0  0  0  0  0  0  0  0  0
   10.6546  -20.4923   25.3539 C   0  0  0  0  0  0  0  0  0  0  0  0
   11.6819  -21.1875   25.4392 O   0  0  0  0  0  0  0  0  0  0  0  0
   10.7063  -19.0869   25.8676 C   0  0  0  0  0  0  0  0  0  0  0  0
    9.9016  -18.2079   24.9493 C   0  0  0  0  0  0  0  0  0  0  0  0
   10.0448  -16.7918   25.3173 C   0  0  2  0  0  0  0  0  0  0  0  0
    9.2537  -15.8924   24.4795 N   0  0  0  0  0  0  0  0  0  0  0  0
   11.4525  -16.3270   25.3103 C   0  0  0  0  0  0  0  0  0  0  0  0
   12.2772  -16.5679   26.2224 O   0  0  0  0  0  0  0  0  0  0  0  0
   11.9720  -15.5435   24.2156 N   0  0  0  0  0  0  0  0  0  0  0  0
   13.3576  -15.0817   24.2288 C   0  0  0  0  0  0  0  0  0  0  0  0
   14.3035  -16.1734   24.0032 C   0  0  0  0  0  0  0  0  0  0  0  0
   13.9395  -17.3634   23.8987 O   0  0  0  0  0  0  0  0  0  0  0  0
   15.6484  -15.8716   23.9029 O   0  0  0  0  0  0  0  0  0  0  0  0
  2  1  1  6
  2 10  1  0
  3  2  1  0
  4  3  1  0
  5  4  2  0
  6  5  1  0
  7  6  2  0
  7  8  1  0
  8  9  2  0
  9  4  1  0
 10 11  2  0
 13 15  1  0
 13 12  1  0
 14 13  2  0
 16 15  1  0
 17 16  1  6
 18 10  1  0
 18 17  1  0
 19 17  1  0
 19 21  1  0
 20 19  2  0
 22 23  1  0
 22 21  1  0
 23 25  1  0
 24 23  2  0
M  END
$$$$
