FQG.pdb
     RDKit          3D

 25 25  0  0  1  0  0  0  0  0999 V2000
    5.9679  -17.5431   24.8315 N   0  0  0  0  0  0  0  0  0  0  0  0
    6.6678  -16.2727   24.7783 C   0  0  1  0  0  0  0  0  0  0  0  0
    7.1639  -15.8373   26.1120 C   0  0  0  0  0  0  0  0  0  0  0  0
    7.1341  -14.3788   26.3411 C   0  0  0  0  0  0  0  0  0  0  0  0
    8.3335  -13.6707   26.3372 C   0  0  0  0  0  0  0  0  0  0  0  0
    8.3409  -12.3047   26.5366 C   0  0  0  0  0  0  0  0  0  0  0  0
    7.1758  -11.6157   26.7420 C   0  0  0  0  0  0  0  0  0  0  0  0
    5.9884  -12.2817   26.7510 C   0  0  0  0  0  0  0  0  0  0  0  0
    5.9853  -13.6521   26.5504 C   0  0  0  0  0  0  0  0  0  0  0  0
    7.7666  -16.3756   23.8066 C   0  0  0  0  0  0  0  0  0  0  0  0
    8.3281  -17.4656   23.6151 O   0  0  0  0  0  0  0  0  0  0  0  0
    8.4581  -12.6066   18.8942 N   0  0  0  0  0  0  0  0  0  0  0  0
    7.4009  -13.4876   19.2245 C   0  0  0  0  0  0  0  0  0  0  0  0
    6.3079  -13.4258   18.6351 O   0  0  0  0  0  0  0  0  0  0  0  0
    7.5704  -14.5204   20.2952 C   0  0  0  0  0  0  0  0  0  0  0  0
    8.9273  -14.3474   20.9216 C   0  0  0  0  0  0  0  0  0  0  0  0
    9.1550  -15.3529   21.9696 C   0  0  2  0  0  0  0  0  0  0  0  0
    8.2062  -15.2602   23.0777 N   0  0  0  0  0  0  0  0  0  0  0  0
   10.5303  -15.3184   22.5219 C   0  0  0  0  0  0  0  0  0  0  0  0
   11.5699  -15.3609   21.8235 O   0  0  0  0  0  0  0  0  0  0  0  0
   10.7592  -15.2312   23.9439 N   0  0  0  0  0  0  0  0  0  0  0  0
   12.1196  -15.2354   24.4756 C   0  0  0  0  0  0  0  0  0  0  0  0
   12.6067  -16.5902   24.7297 C   0  0  0  0  0  0  0  0  0  0  0  0
   13.6672  -16.8147   25.3499 O   0  0  0  0  0  0  0  0  0  0  0  0
   11.8625  -17.6575   24.2642 O   0  0  0  0  0  0  0  0  0  0  0  0
  2  1  1  1
  2 10  1  0
  3  2  1  0
  4  3  1  0
  5  4  2  0
  6  5  1  0
  7  6  2  0
  7  8  1  0
  8  9  2  0
  9  4  1  0
 10 11  2  0
 13 15  1  0
 13 12  1  0
 14 13  2  0
 16 15  1  0
 17 16  1  6
 18 10  1  0
 18 17  1  0
 19 17  1  0
 19 21  1  0
 20 19  2  0
 22 23  1  0
 22 21  1  0
 23 25  1  0
 24 23  2  0
M  END
$$$$
