ILT.pdb
     RDKit          3D

 24 23  0  0  1  0  0  0  0  0999 V2000
   14.2790   -8.2082  -18.5933 C   0  0  0  0  0  0  0  0  0  0  0  0
   15.2657   -9.3050  -18.3613 C   0  0  0  0  0  0  0  0  0  0  0  0
   16.3680   -8.8876  -17.3845 C   0  0  2  0  0  0  0  0  0  0  0  0
   17.1053   -7.6970  -17.8893 C   0  0  0  0  0  0  0  0  0  0  0  0
   17.2378  -10.0935  -17.0863 C   0  0  2  0  0  0  0  0  0  0  0  0
   16.3437  -11.1053  -16.4769 N   0  0  0  0  0  0  0  0  0  0  0  0
   18.3759   -9.8158  -16.2095 C   0  0  0  0  0  0  0  0  0  0  0  0
   18.1447   -9.6782  -14.9566 O   0  0  0  0  0  0  0  0  0  0  0  0
   24.1375  -11.1237  -15.1566 C   0  0  0  0  0  0  0  0  0  0  0  0
   23.0920  -10.0398  -14.8333 C   0  0  2  0  0  0  0  0  0  0  0  0
   22.7843  -10.1682  -13.3594 C   0  0  0  0  0  0  0  0  0  0  0  0
   21.8952  -10.3461  -15.6576 C   0  0  0  0  0  0  0  0  0  0  0  0
   20.7893   -9.3563  -15.6395 C   0  0  2  0  0  0  0  0  0  0  0  0
   19.7270   -9.6791  -16.5821 N   0  0  0  0  0  0  0  0  0  0  0  0
   21.1982   -7.9669  -15.7845 C   0  0  0  0  0  0  0  0  0  0  0  0
   21.8316   -7.5243  -16.8055 O   0  0  0  0  0  0  0  0  0  0  0  0
   19.3850   -4.9989  -16.3133 C   0  0  0  0  0  0  0  0  0  0  0  0
   20.0841   -4.7757  -15.0013 C   0  0  1  0  0  0  0  0  0  0  0  0
   19.2979   -5.1858  -13.9315 O   0  0  0  0  0  0  0  0  0  0  0  0
   21.3785   -5.6125  -14.9156 C   0  0  2  0  0  0  0  0  0  0  0  0
   20.9229   -6.9744  -14.7980 N   0  0  0  0  0  0  0  0  0  0  0  0
   22.0709   -5.2215  -13.6767 C   0  0  0  0  0  0  0  0  0  0  0  0
   22.7443   -4.0180  -13.6090 O   0  0  0  0  0  0  0  0  0  0  0  0
   22.0802   -5.9521  -12.6464 O   0  0  0  0  0  0  0  0  0  0  0  0
  1  2  1  0
  3  2  1  0
  3  4  1  6
  5  6  1  1
  5  3  1  0
  7  5  1  0
  8  7  2  0
 10 11  1  1
 10  9  1  0
 12 10  1  0
 13 12  1  6
 13 14  1  0
 14  7  1  0
 15 13  1  0
 16 15  2  0
 18 17  1  6
 18 19  1  0
 20 18  1  0
 20 21  1  1
 21 15  1  0
 22 23  1  0
 22 20  1  0
 24 22  2  0
M  END
$$$$
