ILT.pdb
     RDKit          3D

 24 23  0  0  1  0  0  0  0  0999 V2000
   24.2214  -20.8793   -7.4662 C   0  0  0  0  0  0  0  0  0  0  0  0
   24.0544  -21.0234   -8.9432 C   0  0  0  0  0  0  0  0  0  0  0  0
   25.2861  -20.5355   -9.7100 C   0  0  2  0  0  0  0  0  0  0  0  0
   25.7225  -19.1982   -9.2229 C   0  0  0  0  0  0  0  0  0  0  0  0
   24.9947  -20.6057  -11.1965 C   0  0  2  0  0  0  0  0  0  0  0  0
   24.4470  -21.9594  -11.4451 N   0  0  0  0  0  0  0  0  0  0  0  0
   26.1546  -20.3533  -12.0523 C   0  0  0  0  0  0  0  0  0  0  0  0
   26.4044  -19.1389  -12.3764 O   0  0  0  0  0  0  0  0  0  0  0  0
   30.2172  -19.8353  -11.5206 C   0  0  0  0  0  0  0  0  0  0  0  0
   29.8787  -21.3343  -11.6256 C   0  0  2  0  0  0  0  0  0  0  0  0
   31.1539  -22.0836  -11.3158 C   0  0  0  0  0  0  0  0  0  0  0  0
   29.4451  -21.5738  -13.0257 C   0  0  0  0  0  0  0  0  0  0  0  0
   28.1631  -20.9592  -13.4519 C   0  0  2  0  0  0  0  0  0  0  0  0
   27.0524  -21.3037  -12.5751 N   0  0  0  0  0  0  0  0  0  0  0  0
   27.8032  -21.1787  -14.8452 C   0  0  0  0  0  0  0  0  0  0  0  0
   27.9457  -22.3045  -15.4381 O   0  0  0  0  0  0  0  0  0  0  0  0
   24.7063  -21.4971  -16.2287 C   0  0  0  0  0  0  0  0  0  0  0  0
   25.2775  -20.3108  -16.9542 C   0  0  1  0  0  0  0  0  0  0  0  0
   24.9928  -19.1245  -16.2891 O   0  0  0  0  0  0  0  0  0  0  0  0
   26.8173  -20.3940  -17.0231 C   0  0  2  0  0  0  0  0  0  0  0  0
   27.2543  -20.1537  -15.6712 N   0  0  0  0  0  0  0  0  0  0  0  0
   27.2767  -19.2939  -17.8866 C   0  0  0  0  0  0  0  0  0  0  0  0
   27.8979  -18.1916  -17.3338 O   0  0  0  0  0  0  0  0  0  0  0  0
   27.1256  -19.3087  -19.1405 O   0  0  0  0  0  0  0  0  0  0  0  0
  1  2  1  0
  3  2  1  0
  3  4  1  1
  5  6  1  1
  5  3  1  0
  7  5  1  0
  8  7  2  0
 10 11  1  6
 10  9  1  0
 12 10  1  0
 13 12  1  1
 13 14  1  0
 14  7  1  0
 15 13  1  0
 16 15  2  0
 18 17  1  1
 18 19  1  0
 20 18  1  0
 20 21  1  1
 21 15  1  0
 22 23  1  0
 22 20  1  0
 24 22  2  0
M  END
$$$$
