ILT.pdb
     RDKit          3D

 24 23  0  0  1  0  0  0  0  0999 V2000
   27.9535  -17.6930  -16.9674 C   0  0  0  0  0  0  0  0  0  0  0  0
   28.3624  -18.5135  -15.7886 C   0  0  0  0  0  0  0  0  0  0  0  0
   27.1543  -19.0444  -15.0126 C   0  0  2  0  0  0  0  0  0  0  0  0
   26.2713  -17.9298  -14.5723 C   0  0  0  0  0  0  0  0  0  0  0  0
   27.6488  -19.9421  -13.8948 C   0  0  2  0  0  0  0  0  0  0  0  0
   28.4320  -21.0175  -14.5464 N   0  0  0  0  0  0  0  0  0  0  0  0
   26.5882  -20.5090  -13.0610 C   0  0  0  0  0  0  0  0  0  0  0  0
   25.9357  -21.5101  -13.5238 O   0  0  0  0  0  0  0  0  0  0  0  0
   26.6164  -21.8537   -8.7270 C   0  0  0  0  0  0  0  0  0  0  0  0
   26.3089  -20.3554   -8.9089 C   0  0  2  0  0  0  0  0  0  0  0  0
   26.1877  -19.7717   -7.5203 C   0  0  0  0  0  0  0  0  0  0  0  0
   25.0174  -20.2731   -9.6376 C   0  0  0  0  0  0  0  0  0  0  0  0
   25.0309  -20.6206  -11.0805 C   0  0  2  0  0  0  0  0  0  0  0  0
   26.1877  -20.0801  -11.7810 N   0  0  0  0  0  0  0  0  0  0  0  0
   23.8051  -20.3146  -11.8034 C   0  0  0  0  0  0  0  0  0  0  0  0
   23.4723  -19.1279  -12.1504 O   0  0  0  0  0  0  0  0  0  0  0  0
   20.4131  -21.8095  -14.9304 C   0  0  0  0  0  0  0  0  0  0  0  0
   21.7140  -21.8653  -14.1790 C   0  0  1  0  0  0  0  0  0  0  0  0
   22.7567  -21.3375  -14.9305 O   0  0  0  0  0  0  0  0  0  0  0  0
   21.6477  -21.0107  -12.8953 C   0  0  2  0  0  0  0  0  0  0  0  0
   22.8678  -21.3167  -12.1924 N   0  0  0  0  0  0  0  0  0  0  0  0
   20.4991  -21.4902  -12.1094 C   0  0  0  0  0  0  0  0  0  0  0  0
   19.2176  -21.1018  -12.4465 O   0  0  0  0  0  0  0  0  0  0  0  0
   20.6316  -22.2584  -11.1156 O   0  0  0  0  0  0  0  0  0  0  0  0
  1  2  1  0
  3  2  1  0
  3  4  1  1
  5  6  1  6
  5  3  1  0
  7  5  1  0
  8  7  2  0
 10 11  1  1
 10  9  1  0
 12 10  1  0
 13 12  1  1
 13 14  1  0
 14  7  1  0
 15 13  1  0
 16 15  2  0
 18 17  1  6
 18 19  1  0
 20 18  1  0
 20 21  1  1
 21 15  1  0
 22 23  1  0
 22 20  1  0
 24 22  2  0
M  END
$$$$
