ILT.pdb
     RDKit          3D

 24 23  0  0  1  0  0  0  0  0999 V2000
   23.7478  -18.1248  -20.1813 C   0  0  0  0  0  0  0  0  0  0  0  0
   24.2979  -17.8305  -18.8245 C   0  0  0  0  0  0  0  0  0  0  0  0
   24.3988  -19.0905  -17.9609 C   0  0  2  0  0  0  0  0  0  0  0  0
   23.1480  -19.3056  -17.1831 C   0  0  0  0  0  0  0  0  0  0  0  0
   25.6607  -19.0083  -17.1239 C   0  0  2  0  0  0  0  0  0  0  0  0
   26.7915  -19.1693  -18.0672 N   0  0  0  0  0  0  0  0  0  0  0  0
   25.7394  -19.9995  -16.0503 C   0  0  0  0  0  0  0  0  0  0  0  0
   26.0280  -21.2060  -16.3715 O   0  0  0  0  0  0  0  0  0  0  0  0
   25.5020  -21.5041  -10.6674 C   0  0  0  0  0  0  0  0  0  0  0  0
   26.8048  -21.4455  -11.4869 C   0  0  2  0  0  0  0  0  0  0  0  0
   27.8884  -20.9922  -10.5362 C   0  0  0  0  0  0  0  0  0  0  0  0
   26.5846  -20.4449  -12.5620 C   0  0  0  0  0  0  0  0  0  0  0  0
   25.6755  -20.8306  -13.6701 C   0  0  2  0  0  0  0  0  0  0  0  0
   25.5333  -19.7850  -14.6739 N   0  0  0  0  0  0  0  0  0  0  0  0
   24.3704  -21.3257  -13.2575 C   0  0  0  0  0  0  0  0  0  0  0  0
   24.2146  -22.3272  -12.4750 O   0  0  0  0  0  0  0  0  0  0  0  0
   21.9104  -19.7670  -11.1888 C   0  0  0  0  0  0  0  0  0  0  0  0
   21.2366  -19.9933  -12.5134 C   0  0  1  0  0  0  0  0  0  0  0  0
   21.4058  -18.9052  -13.3609 O   0  0  0  0  0  0  0  0  0  0  0  0
   21.8574  -21.1993  -13.2502 C   0  0  2  0  0  0  0  0  0  0  0  0
   23.1477  -20.7314  -13.6888 N   0  0  0  0  0  0  0  0  0  0  0  0
   21.0142  -21.4757  -14.4248 C   0  0  0  0  0  0  0  0  0  0  0  0
   21.4682  -21.1683  -15.6921 O   0  0  0  0  0  0  0  0  0  0  0  0
   19.8658  -21.9926  -14.3277 O   0  0  0  0  0  0  0  0  0  0  0  0
  1  2  1  0
  3  2  1  0
  3  4  1  1
  5  6  1  6
  5  3  1  0
  7  5  1  0
  8  7  2  0
 10 11  1  1
 10  9  1  0
 12 10  1  0
 13 12  1  1
 13 14  1  0
 14  7  1  0
 15 13  1  0
 16 15  2  0
 18 17  1  1
 18 19  1  0
 20 18  1  0
 20 21  1  6
 21 15  1  0
 22 23  1  0
 22 20  1  0
 24 22  2  0
M  END
$$$$
