ILT.pdb
     RDKit          3D

 24 23  0  0  1  0  0  0  0  0999 V2000
   29.2735  -19.1755  -16.3992 C   0  0  0  0  0  0  0  0  0  0  0  0
   29.5652  -19.6513  -15.0141 C   0  0  0  0  0  0  0  0  0  0  0  0
   28.2956  -20.0868  -14.2780 C   0  0  2  0  0  0  0  0  0  0  0  0
   27.2516  -19.0277  -14.3428 C   0  0  0  0  0  0  0  0  0  0  0  0
   28.6707  -20.5234  -12.8750 C   0  0  2  0  0  0  0  0  0  0  0  0
   29.5954  -21.6698  -13.0340 N   0  0  0  0  0  0  0  0  0  0  0  0
   27.5326  -20.8917  -12.0321 C   0  0  0  0  0  0  0  0  0  0  0  0
   27.0179  -22.0534  -12.1981 O   0  0  0  0  0  0  0  0  0  0  0  0
   27.0048  -21.4680   -7.5739 C   0  0  0  0  0  0  0  0  0  0  0  0
   26.9100  -20.0354   -8.1317 C   0  0  2  0  0  0  0  0  0  0  0  0
   26.8294  -19.1150   -6.9359 C   0  0  0  0  0  0  0  0  0  0  0  0
   25.6635  -19.9757   -8.9368 C   0  0  0  0  0  0  0  0  0  0  0  0
   25.7219  -20.5197  -10.3165 C   0  0  2  0  0  0  0  0  0  0  0  0
   26.9194  -20.1078  -11.0359 N   0  0  0  0  0  0  0  0  0  0  0  0
   24.5336  -20.2887  -11.1250 C   0  0  0  0  0  0  0  0  0  0  0  0
   24.1592  -19.1252  -11.5062 O   0  0  0  0  0  0  0  0  0  0  0  0
   21.2490  -22.4007  -14.1625 C   0  0  0  0  0  0  0  0  0  0  0  0
   22.4810  -22.4059  -13.3011 C   0  0  1  0  0  0  0  0  0  0  0  0
   23.6378  -22.4160  -14.0707 O   0  0  0  0  0  0  0  0  0  0  0  0
   22.5599  -21.1259  -12.4419 C   0  0  2  0  0  0  0  0  0  0  0  0
   23.6835  -21.3452  -11.5669 N   0  0  0  0  0  0  0  0  0  0  0  0
   21.3256  -21.0587  -11.6427 C   0  0  0  0  0  0  0  0  0  0  0  0
   20.1556  -20.5955  -12.2114 O   0  0  0  0  0  0  0  0  0  0  0  0
   21.2831  -21.4121  -10.4308 O   0  0  0  0  0  0  0  0  0  0  0  0
  1  2  1  0
  3  2  1  0
  3  4  1  1
  5  6  1  6
  5  3  1  0
  7  5  1  0
  8  7  2  0
 10 11  1  1
 10  9  1  0
 12 10  1  0
 13 12  1  1
 13 14  1  0
 14  7  1  0
 15 13  1  0
 16 15  2  0
 18 17  1  6
 18 19  1  0
 20 18  1  0
 20 21  1  1
 21 15  1  0
 22 23  1  0
 22 20  1  0
 24 22  2  0
M  END
$$$$
