ILT.pdb
     RDKit          3D

 24 23  0  0  1  0  0  0  0  0999 V2000
   17.6162  -17.2832  -20.6413 C   0  0  0  0  0  0  0  0  0  0  0  0
   18.9489  -17.3930  -19.9764 C   0  0  0  0  0  0  0  0  0  0  0  0
   19.2463  -16.1848  -19.0848 C   0  0  2  0  0  0  0  0  0  0  0  0
   19.1195  -14.9137  -19.8491 C   0  0  0  0  0  0  0  0  0  0  0  0
   20.5913  -16.3917  -18.4156 C   0  0  2  0  0  0  0  0  0  0  0  0
   20.4641  -17.6281  -17.6095 N   0  0  0  0  0  0  0  0  0  0  0  0
   21.0287  -15.2734  -17.5793 C   0  0  0  0  0  0  0  0  0  0  0  0
   20.4023  -15.0691  -16.4802 O   0  0  0  0  0  0  0  0  0  0  0  0
   24.1586  -14.8266  -14.8427 C   0  0  0  0  0  0  0  0  0  0  0  0
   24.5806  -14.5263  -16.2933 C   0  0  2  0  0  0  0  0  0  0  0  0
   26.0840  -14.3744  -16.2789 C   0  0  0  0  0  0  0  0  0  0  0  0
   23.9185  -13.2521  -16.6722 C   0  0  0  0  0  0  0  0  0  0  0  0
   22.4578  -13.2991  -16.9315 C   0  0  2  0  0  0  0  0  0  0  0  0
   22.0796  -14.3731  -17.8396 N   0  0  0  0  0  0  0  0  0  0  0  0
   21.8618  -12.0392  -17.3515 C   0  0  0  0  0  0  0  0  0  0  0  0
   22.0889  -11.5004  -18.4906 O   0  0  0  0  0  0  0  0  0  0  0  0
   18.3626  -11.4434  -17.8833 C   0  0  0  0  0  0  0  0  0  0  0  0
   18.7885  -10.4397  -16.8483 C   0  0  1  0  0  0  0  0  0  0  0  0
   18.6269  -10.9384  -15.5616 O   0  0  0  0  0  0  0  0  0  0  0  0
   20.2902  -10.1089  -16.9845 C   0  0  2  0  0  0  0  0  0  0  0  0
   20.9660  -11.2964  -16.5270 N   0  0  0  0  0  0  0  0  0  0  0  0
   20.5787   -8.9981  -16.0627 C   0  0  0  0  0  0  0  0  0  0  0  0
   20.1485   -7.7203  -16.3606 O   0  0  0  0  0  0  0  0  0  0  0  0
   21.2178   -9.1604  -14.9854 O   0  0  0  0  0  0  0  0  0  0  0  0
  1  2  1  0
  3  2  1  0
  3  4  1  6
  5  6  1  1
  5  3  1  0
  7  5  1  0
  8  7  2  0
 10 11  1  1
 10  9  1  0
 12 10  1  0
 13 12  1  6
 13 14  1  0
 14  7  1  0
 15 13  1  0
 16 15  2  0
 18 17  1  6
 18 19  1  0
 20 18  1  0
 20 21  1  1
 21 15  1  0
 22 23  1  0
 22 20  1  0
 24 22  2  0
M  END
$$$$
