ILT.pdb
     RDKit          3D

 24 23  0  0  1  0  0  0  0  0999 V2000
   22.5159  -20.8566   -7.2711 C   0  0  0  0  0  0  0  0  0  0  0  0
   23.8057  -21.1261   -7.9739 C   0  0  0  0  0  0  0  0  0  0  0  0
   23.8269  -20.5285   -9.3830 C   0  0  2  0  0  0  0  0  0  0  0  0
   22.5972  -20.8964  -10.1370 C   0  0  0  0  0  0  0  0  0  0  0  0
   25.1268  -20.9192  -10.0591 C   0  0  2  0  0  0  0  0  0  0  0  0
   26.2106  -20.3280   -9.2402 N   0  0  0  0  0  0  0  0  0  0  0  0
   25.2377  -20.4855  -11.4523 C   0  0  0  0  0  0  0  0  0  0  0  0
   25.2978  -19.2264  -11.6826 O   0  0  0  0  0  0  0  0  0  0  0  0
   27.8650  -19.2812  -14.6305 C   0  0  0  0  0  0  0  0  0  0  0  0
   27.8156  -20.7911  -14.3304 C   0  0  2  0  0  0  0  0  0  0  0  0
   28.8972  -21.4300  -15.1705 C   0  0  0  0  0  0  0  0  0  0  0  0
   26.4694  -21.2618  -14.7448 C   0  0  0  0  0  0  0  0  0  0  0  0
   25.3098  -20.7752  -13.9565 C   0  0  2  0  0  0  0  0  0  0  0  0
   25.2890  -21.3016  -12.5987 N   0  0  0  0  0  0  0  0  0  0  0  0
   24.0117  -20.9469  -14.5925 C   0  0  0  0  0  0  0  0  0  0  0  0
   23.3423  -22.0371  -14.5388 O   0  0  0  0  0  0  0  0  0  0  0  0
   21.7657  -17.6475  -15.3484 C   0  0  0  0  0  0  0  0  0  0  0  0
   21.1812  -19.0270  -15.2248 C   0  0  1  0  0  0  0  0  0  0  0  0
   19.9394  -19.1088  -15.8426 O   0  0  0  0  0  0  0  0  0  0  0  0
   22.0718  -20.0698  -15.9335 C   0  0  2  0  0  0  0  0  0  0  0  0
   23.3701  -19.9082  -15.3298 N   0  0  0  0  0  0  0  0  0  0  0  0
   22.1442  -19.6903  -17.3539 C   0  0  0  0  0  0  0  0  0  0  0  0
   23.3161  -19.1803  -17.8766 O   0  0  0  0  0  0  0  0  0  0  0  0
   21.1613  -19.8103  -18.1381 O   0  0  0  0  0  0  0  0  0  0  0  0
  1  2  1  0
  3  2  1  0
  3  4  1  6
  5  6  1  1
  5  3  1  0
  7  5  1  0
  8  7  2  0
 10 11  1  6
 10  9  1  0
 12 10  1  0
 13 12  1  6
 13 14  1  0
 14  7  1  0
 15 13  1  0
 16 15  2  0
 18 17  1  6
 18 19  1  0
 20 18  1  0
 20 21  1  1
 21 15  1  0
 22 23  1  0
 22 20  1  0
 24 22  2  0
M  END
$$$$
