ILT.pdb
     RDKit          3D

 24 23  0  0  1  0  0  0  0  0999 V2000
   16.1882   -8.9507  -20.7520 C   0  0  0  0  0  0  0  0  0  0  0  0
   17.2185   -9.8848  -20.2078 C   0  0  0  0  0  0  0  0  0  0  0  0
   17.8994   -9.3222  -18.9575 C   0  0  2  0  0  0  0  0  0  0  0  0
   18.5226   -8.0000  -19.2388 C   0  0  0  0  0  0  0  0  0  0  0  0
   18.8500  -10.3680  -18.4076 C   0  0  2  0  0  0  0  0  0  0  0  0
   18.0220  -11.5584  -18.1047 N   0  0  0  0  0  0  0  0  0  0  0  0
   19.5957   -9.9432  -17.2223 C   0  0  0  0  0  0  0  0  0  0  0  0
   19.0156  -10.0436  -16.0842 O   0  0  0  0  0  0  0  0  0  0  0  0
   22.4308  -10.8613  -13.7366 C   0  0  0  0  0  0  0  0  0  0  0  0
   22.9478  -10.9864  -15.1821 C   0  0  2  0  0  0  0  0  0  0  0  0
   24.3706  -11.4865  -15.0860 C   0  0  0  0  0  0  0  0  0  0  0  0
   22.8994   -9.6230  -15.7691 C   0  0  0  0  0  0  0  0  0  0  0  0
   21.5596   -9.0090  -15.9453 C   0  0  2  0  0  0  0  0  0  0  0  0
   20.9048   -9.4262  -17.1775 N   0  0  0  0  0  0  0  0  0  0  0  0
   21.5185   -7.5604  -15.8083 C   0  0  0  0  0  0  0  0  0  0  0  0
   21.9947   -6.9372  -14.7963 O   0  0  0  0  0  0  0  0  0  0  0  0
   22.8248   -5.0596  -18.3611 C   0  0  0  0  0  0  0  0  0  0  0  0
   21.3712   -4.7818  -18.0966 C   0  0  1  0  0  0  0  0  0  0  0  0
   20.5538   -5.4667  -18.9873 O   0  0  0  0  0  0  0  0  0  0  0  0
   20.9621   -5.2708  -16.6907 C   0  0  2  0  0  0  0  0  0  0  0  0
   20.9450   -6.7076  -16.7972 N   0  0  0  0  0  0  0  0  0  0  0  0
   19.5957   -4.7844  -16.4389 C   0  0  0  0  0  0  0  0  0  0  0  0
   19.3698   -3.4429  -16.2023 O   0  0  0  0  0  0  0  0  0  0  0  0
   18.5942   -5.5539  -16.4274 O   0  0  0  0  0  0  0  0  0  0  0  0
  1  2  1  0
  3  2  1  0
  3  4  1  6
  5  6  1  1
  5  3  1  0
  7  5  1  0
  8  7  2  0
 10 11  1  1
 10  9  1  0
 12 10  1  0
 13 12  1  6
 13 14  1  0
 14  7  1  0
 15 13  1  0
 16 15  2  0
 18 17  1  6
 18 19  1  0
 20 18  1  0
 20 21  1  6
 21 15  1  0
 22 23  1  0
 22 20  1  0
 24 22  2  0
M  END
$$$$
