ILT.pdb
     RDKit          3D

 24 23  0  0  1  0  0  0  0  0999 V2000
   22.4299  -21.1285   -6.8182 C   0  0  0  0  0  0  0  0  0  0  0  0
   23.7953  -21.1504   -7.4227 C   0  0  0  0  0  0  0  0  0  0  0  0
   23.7903  -20.6490   -8.8691 C   0  0  2  0  0  0  0  0  0  0  0  0
   22.7211  -21.3161   -9.6612 C   0  0  0  0  0  0  0  0  0  0  0  0
   25.1876  -20.7935   -9.4403 C   0  0  2  0  0  0  0  0  0  0  0  0
   26.0671  -19.9537   -8.5943 N   0  0  0  0  0  0  0  0  0  0  0  0
   25.3077  -20.4114  -10.8477 C   0  0  0  0  0  0  0  0  0  0  0  0
   25.1246  -19.1796  -11.1497 O   0  0  0  0  0  0  0  0  0  0  0  0
   28.1699  -19.0996  -13.6558 C   0  0  0  0  0  0  0  0  0  0  0  0
   28.1932  -20.6221  -13.4231 C   0  0  2  0  0  0  0  0  0  0  0  0
   29.3968  -21.1506  -14.1685 C   0  0  0  0  0  0  0  0  0  0  0  0
   26.9322  -21.1578  -13.9964 C   0  0  0  0  0  0  0  0  0  0  0  0
   25.6670  -20.7848  -13.3159 C   0  0  2  0  0  0  0  0  0  0  0  0
   25.6083  -21.2511  -11.9374 N   0  0  0  0  0  0  0  0  0  0  0  0
   24.4501  -21.1424  -14.0300 C   0  0  0  0  0  0  0  0  0  0  0  0
   24.0442  -22.3492  -14.1651 O   0  0  0  0  0  0  0  0  0  0  0  0
   20.9492  -20.2234  -13.3191 C   0  0  0  0  0  0  0  0  0  0  0  0
   21.2892  -19.6850  -14.6808 C   0  0  1  0  0  0  0  0  0  0  0  0
   21.7939  -18.3927  -14.6037 O   0  0  0  0  0  0  0  0  0  0  0  0
   22.3965  -20.5286  -15.3479 C   0  0  2  0  0  0  0  0  0  0  0  0
   23.5998  -20.1730  -14.6396 N   0  0  0  0  0  0  0  0  0  0  0  0
   22.5041  -20.0819  -16.7464 C   0  0  0  0  0  0  0  0  0  0  0  0
   21.4896  -20.3561  -17.6420 O   0  0  0  0  0  0  0  0  0  0  0  0
   23.5052  -19.4445  -17.1788 O   0  0  0  0  0  0  0  0  0  0  0  0
  1  2  1  0
  3  2  1  0
  3  4  1  6
  5  6  1  1
  5  3  1  0
  7  5  1  0
  8  7  2  0
 10 11  1  6
 10  9  1  0
 12 10  1  0
 13 12  1  6
 13 14  1  0
 14  7  1  0
 15 13  1  0
 16 15  2  0
 18 17  1  1
 18 19  1  0
 20 18  1  0
 20 21  1  1
 21 15  1  0
 22 23  1  0
 22 20  1  0
 24 22  2  0
M  END
$$$$
