ILT.pdb
     RDKit          3D

 24 23  0  0  1  0  0  0  0  0999 V2000
   16.3346  -11.1894  -19.3153 C   0  0  0  0  0  0  0  0  0  0  0  0
   17.7452  -11.6242  -19.0889 C   0  0  0  0  0  0  0  0  0  0  0  0
   18.4977  -10.6688  -18.1591 C   0  0  2  0  0  0  0  0  0  0  0  0
   18.4405   -9.2718  -18.6701 C   0  0  0  0  0  0  0  0  0  0  0  0
   19.8980  -11.2066  -17.9366 C   0  0  2  0  0  0  0  0  0  0  0  0
   19.7347  -12.6160  -17.5106 N   0  0  0  0  0  0  0  0  0  0  0  0
   20.6837  -10.4586  -16.9546 C   0  0  0  0  0  0  0  0  0  0  0  0
   20.0480   -9.8011  -16.0570 O   0  0  0  0  0  0  0  0  0  0  0  0
   26.0248  -11.4062  -14.9916 C   0  0  0  0  0  0  0  0  0  0  0  0
   24.4924  -11.2526  -15.0196 C   0  0  2  0  0  0  0  0  0  0  0  0
   23.9591  -12.4270  -15.8071 C   0  0  0  0  0  0  0  0  0  0  0  0
   24.2075   -9.9707  -15.7132 C   0  0  0  0  0  0  0  0  0  0  0  0
   22.7824   -9.5842  -15.8631 C   0  0  2  0  0  0  0  0  0  0  0  0
   22.0867  -10.3714  -16.8718 N   0  0  0  0  0  0  0  0  0  0  0  0
   22.5436   -8.1629  -16.0678 C   0  0  0  0  0  0  0  0  0  0  0  0
   22.8441   -7.5493  -17.1506 O   0  0  0  0  0  0  0  0  0  0  0  0
   19.7442   -6.2445  -16.6675 C   0  0  0  0  0  0  0  0  0  0  0  0
   20.2618   -5.7008  -15.3650 C   0  0  1  0  0  0  0  0  0  0  0  0
   19.7049   -6.3671  -14.2803 O   0  0  0  0  0  0  0  0  0  0  0  0
   21.7869   -5.9082  -15.2468 C   0  0  2  0  0  0  0  0  0  0  0  0
   21.9474   -7.3298  -15.0755 N   0  0  0  0  0  0  0  0  0  0  0  0
   22.2288   -5.2170  -14.0244 C   0  0  0  0  0  0  0  0  0  0  0  0
   22.4876   -5.9378  -12.8754 O   0  0  0  0  0  0  0  0  0  0  0  0
   22.3860   -3.9648  -13.9735 O   0  0  0  0  0  0  0  0  0  0  0  0
  1  2  1  0
  3  2  1  0
  3  4  1  6
  5  6  1  1
  5  3  1  0
  7  5  1  0
  8  7  2  0
 10 11  1  6
 10  9  1  0
 12 10  1  0
 13 12  1  6
 13 14  1  0
 14  7  1  0
 15 13  1  0
 16 15  2  0
 18 17  1  6
 18 19  1  0
 20 18  1  0
 20 21  1  1
 21 15  1  0
 22 23  1  0
 22 20  1  0
 24 22  2  0
M  END
$$$$
