ILT.pdb
     RDKit          3D

 24 23  0  0  1  0  0  0  0  0999 V2000
   16.5900  -13.4027  -19.2444 C   0  0  0  0  0  0  0  0  0  0  0  0
   17.7544  -12.4734  -19.3484 C   0  0  0  0  0  0  0  0  0  0  0  0
   17.7662  -11.4402  -18.2189 C   0  0  2  0  0  0  0  0  0  0  0  0
   16.4625  -10.7266  -18.1351 C   0  0  0  0  0  0  0  0  0  0  0  0
   18.9731  -10.5390  -18.3948 C   0  0  2  0  0  0  0  0  0  0  0  0
   20.1264  -11.4375  -18.6337 N   0  0  0  0  0  0  0  0  0  0  0  0
   19.2360   -9.6527  -17.2604 C   0  0  0  0  0  0  0  0  0  0  0  0
   18.2285   -9.1353  -16.6610 O   0  0  0  0  0  0  0  0  0  0  0  0
   21.2213   -9.7441  -12.9695 C   0  0  0  0  0  0  0  0  0  0  0  0
   22.1137   -9.7793  -14.2244 C   0  0  2  0  0  0  0  0  0  0  0  0
   23.5354   -9.9289  -13.7344 C   0  0  0  0  0  0  0  0  0  0  0  0
   21.9215   -8.4800  -14.9176 C   0  0  0  0  0  0  0  0  0  0  0  0
   20.6609   -8.2993  -15.6799 C   0  0  2  0  0  0  0  0  0  0  0  0
   20.4905   -9.2908  -16.7330 N   0  0  0  0  0  0  0  0  0  0  0  0
   20.4365   -6.9577  -16.1981 C   0  0  0  0  0  0  0  0  0  0  0  0
   21.2001   -6.4023  -17.0629 O   0  0  0  0  0  0  0  0  0  0  0  0
   18.1529   -5.6896  -18.4704 C   0  0  0  0  0  0  0  0  0  0  0  0
   17.8418   -4.9710  -17.1871 C   0  0  1  0  0  0  0  0  0  0  0  0
   16.9315   -5.6825  -16.4153 O   0  0  0  0  0  0  0  0  0  0  0  0
   19.1071   -4.8246  -16.3151 C   0  0  2  0  0  0  0  0  0  0  0  0
   19.3386   -6.1453  -15.7873 N   0  0  0  0  0  0  0  0  0  0  0  0
   18.7738   -3.9100  -15.2108 C   0  0  0  0  0  0  0  0  0  0  0  0
   18.6834   -2.5512  -15.4392 O   0  0  0  0  0  0  0  0  0  0  0  0
   18.5620   -4.3175  -14.0342 O   0  0  0  0  0  0  0  0  0  0  0  0
  1  2  1  0
  3  2  1  0
  3  4  1  6
  5  6  1  1
  5  3  1  0
  7  5  1  0
  8  7  2  0
 10 11  1  1
 10  9  1  0
 12 10  1  0
 13 12  1  6
 13 14  1  0
 14  7  1  0
 15 13  1  0
 16 15  2  0
 18 17  1  6
 18 19  1  0
 20 18  1  0
 20 21  1  1
 21 15  1  0
 22 23  1  0
 22 20  1  0
 24 22  2  0
M  END
$$$$
