ILT.pdb
     RDKit          3D

 24 23  0  0  1  0  0  0  0  0999 V2000
   18.2331  -17.7295  -16.6056 C   0  0  0  0  0  0  0  0  0  0  0  0
   18.6417  -16.4594  -17.2763 C   0  0  0  0  0  0  0  0  0  0  0  0
   19.4005  -15.5281  -16.3275 C   0  0  2  0  0  0  0  0  0  0  0  0
   18.6528  -15.3393  -15.0542 C   0  0  0  0  0  0  0  0  0  0  0  0
   19.7323  -14.2452  -17.0650 C   0  0  2  0  0  0  0  0  0  0  0  0
   20.2947  -14.6558  -18.3726 N   0  0  0  0  0  0  0  0  0  0  0  0
   20.6620  -13.3643  -16.3573 C   0  0  0  0  0  0  0  0  0  0  0  0
   20.3586  -13.0117  -15.1632 O   0  0  0  0  0  0  0  0  0  0  0  0
   24.6093  -13.7380  -14.5763 C   0  0  0  0  0  0  0  0  0  0  0  0
   24.6921  -13.4729  -16.0914 C   0  0  2  0  0  0  0  0  0  0  0  0
   26.1558  -13.5477  -16.4595 C   0  0  0  0  0  0  0  0  0  0  0  0
   24.1549  -12.1061  -16.3124 C   0  0  0  0  0  0  0  0  0  0  0  0
   22.7015  -11.9055  -16.0882 C   0  0  2  0  0  0  0  0  0  0  0  0
   21.8793  -12.8449  -16.8382 N   0  0  0  0  0  0  0  0  0  0  0  0
   22.2268  -10.5428  -16.2797 C   0  0  0  0  0  0  0  0  0  0  0  0
   22.3523   -9.9041  -17.3823 O   0  0  0  0  0  0  0  0  0  0  0  0
   18.9413   -9.1989  -14.5177 C   0  0  0  0  0  0  0  0  0  0  0  0
   19.6327   -8.5227  -15.6687 C   0  0  1  0  0  0  0  0  0  0  0  0
   19.1976   -7.2120  -15.8223 O   0  0  0  0  0  0  0  0  0  0  0  0
   21.1542   -8.4337  -15.4241 C   0  0  2  0  0  0  0  0  0  0  0  0
   21.5743   -9.8011  -15.2510 N   0  0  0  0  0  0  0  0  0  0  0  0
   21.3524   -7.6996  -14.1636 C   0  0  0  0  0  0  0  0  0  0  0  0
   21.1750   -6.3308  -14.1231 O   0  0  0  0  0  0  0  0  0  0  0  0
   21.6864   -8.2749  -13.0900 O   0  0  0  0  0  0  0  0  0  0  0  0
  1  2  1  0
  3  2  1  0
  3  4  1  1
  5  6  1  6
  5  3  1  0
  7  5  1  0
  8  7  2  0
 10 11  1  1
 10  9  1  0
 12 10  1  0
 13 12  1  6
 13 14  1  0
 14  7  1  0
 15 13  1  0
 16 15  2  0
 18 17  1  1
 18 19  1  0
 20 18  1  0
 20 21  1  1
 21 15  1  0
 22 23  1  0
 22 20  1  0
 24 22  2  0
M  END
$$$$
