ILT.pdb
     RDKit          3D

 24 23  0  0  1  0  0  0  0  0999 V2000
   15.8624  -10.8001  -19.3182 C   0  0  0  0  0  0  0  0  0  0  0  0
   17.1244  -11.4183  -18.8129 C   0  0  0  0  0  0  0  0  0  0  0  0
   17.8323  -10.5242  -17.7918 C   0  0  2  0  0  0  0  0  0  0  0  0
   18.0682   -9.1634  -18.3472 C   0  0  0  0  0  0  0  0  0  0  0  0
   19.0792  -11.2351  -17.3024 C   0  0  2  0  0  0  0  0  0  0  0  0
   18.6248  -12.5359  -16.7584 N   0  0  0  0  0  0  0  0  0  0  0  0
   19.8424  -10.4940  -16.2976 C   0  0  0  0  0  0  0  0  0  0  0  0
   19.3435  -10.3960  -15.1214 O   0  0  0  0  0  0  0  0  0  0  0  0
   22.9082  -11.2661  -13.6202 C   0  0  0  0  0  0  0  0  0  0  0  0
   23.4755  -10.9265  -15.0113 C   0  0  2  0  0  0  0  0  0  0  0  0
   24.9649  -11.1713  -14.9376 C   0  0  0  0  0  0  0  0  0  0  0  0
   23.1814   -9.4904  -15.2499 C   0  0  0  0  0  0  0  0  0  0  0  0
   21.7564   -9.1094  -15.4143 C   0  0  2  0  0  0  0  0  0  0  0  0
   21.0887   -9.8610  -16.4681 N   0  0  0  0  0  0  0  0  0  0  0  0
   21.5095   -7.6830  -15.5671 C   0  0  0  0  0  0  0  0  0  0  0  0
   21.9597   -6.8016  -14.7548 O   0  0  0  0  0  0  0  0  0  0  0  0
   22.1809   -5.4566  -18.5888 C   0  0  0  0  0  0  0  0  0  0  0  0
   20.7131   -5.4269  -18.2655 C   0  0  1  0  0  0  0  0  0  0  0  0
   20.0188   -6.4027  -18.9701 O   0  0  0  0  0  0  0  0  0  0  0  0
   20.4697   -5.7345  -16.7725 C   0  0  2  0  0  0  0  0  0  0  0  0
   20.7446   -7.1430  -16.6429 N   0  0  0  0  0  0  0  0  0  0  0  0
   19.0436   -5.4893  -16.5022 C   0  0  0  0  0  0  0  0  0  0  0  0
   18.5648   -4.1965  -16.4246 O   0  0  0  0  0  0  0  0  0  0  0  0
   18.2153   -6.4276  -16.3323 O   0  0  0  0  0  0  0  0  0  0  0  0
  1  2  1  0
  3  2  1  0
  3  4  1  6
  5  6  1  1
  5  3  1  0
  7  5  1  0
  8  7  2  0
 10 11  1  1
 10  9  1  0
 12 10  1  0
 13 12  1  6
 13 14  1  0
 14  7  1  0
 15 13  1  0
 16 15  2  0
 18 17  1  1
 18 19  1  0
 20 18  1  0
 20 21  1  6
 21 15  1  0
 22 23  1  0
 22 20  1  0
 24 22  2  0
M  END
$$$$
