ILT.pdb
     RDKit          3D

 24 23  0  0  1  0  0  0  0  0999 V2000
   29.0155  -19.5268  -16.4551 C   0  0  0  0  0  0  0  0  0  0  0  0
   27.6631  -19.7468  -15.8611 C   0  0  0  0  0  0  0  0  0  0  0  0
   27.7451  -20.3439  -14.4539 C   0  0  2  0  0  0  0  0  0  0  0  0
   28.6297  -21.5409  -14.4331 C   0  0  0  0  0  0  0  0  0  0  0  0
   26.3376  -20.5857  -13.9439 C   0  0  2  0  0  0  0  0  0  0  0  0
   25.5671  -19.3622  -14.2661 N   0  0  0  0  0  0  0  0  0  0  0  0
   26.2560  -20.8851  -12.5138 C   0  0  0  0  0  0  0  0  0  0  0  0
   26.5621  -22.0699  -12.1335 O   0  0  0  0  0  0  0  0  0  0  0  0
   26.7299  -18.7722   -6.8750 C   0  0  0  0  0  0  0  0  0  0  0  0
   26.2722  -19.9979   -7.6878 C   0  0  2  0  0  0  0  0  0  0  0  0
   27.2004  -21.1302   -7.3139 C   0  0  0  0  0  0  0  0  0  0  0  0
   26.4211  -19.6360   -9.1205 C   0  0  0  0  0  0  0  0  0  0  0  0
   25.6554  -20.4405  -10.1051 C   0  0  2  0  0  0  0  0  0  0  0  0
   25.8746  -20.0096  -11.4790 N   0  0  0  0  0  0  0  0  0  0  0  0
   24.2319  -20.5677   -9.8289 C   0  0  0  0  0  0  0  0  0  0  0  0
   23.7520  -20.6612   -8.6456 O   0  0  0  0  0  0  0  0  0  0  0  0
   21.6076  -18.5283  -12.0913 C   0  0  0  0  0  0  0  0  0  0  0  0
   21.2129  -19.9638  -11.8829 C   0  0  1  0  0  0  0  0  0  0  0  0
   21.6863  -20.7738  -12.9078 O   0  0  0  0  0  0  0  0  0  0  0  0
   21.8325  -20.5243  -10.5849 C   0  0  2  0  0  0  0  0  0  0  0  0
   23.2454  -20.5950  -10.8585 N   0  0  0  0  0  0  0  0  0  0  0  0
   21.3032  -21.8855  -10.3999 C   0  0  0  0  0  0  0  0  0  0  0  0
   19.9877  -22.0729  -10.0244 O   0  0  0  0  0  0  0  0  0  0  0  0
   22.0119  -22.9169  -10.5712 O   0  0  0  0  0  0  0  0  0  0  0  0
  1  2  1  0
  3  2  1  0
  3  4  1  6
  5  6  1  1
  5  3  1  0
  7  5  1  0
  8  7  2  0
 10 11  1  1
 10  9  1  0
 12 10  1  0
 13 12  1  1
 13 14  1  0
 14  7  1  0
 15 13  1  0
 16 15  2  0
 18 17  1  6
 18 19  1  0
 20 18  1  0
 20 21  1  6
 21 15  1  0
 22 23  1  0
 22 20  1  0
 24 22  2  0
M  END
$$$$
