ILT.pdb
     RDKit          3D

 24 23  0  0  1  0  0  0  0  0999 V2000
   27.7888  -18.2942  -18.9048 C   0  0  0  0  0  0  0  0  0  0  0  0
   28.1387  -18.8864  -17.5793 C   0  0  0  0  0  0  0  0  0  0  0  0
   26.8940  -19.2907  -16.7852 C   0  0  2  0  0  0  0  0  0  0  0  0
   25.9532  -18.1453  -16.6485 C   0  0  0  0  0  0  0  0  0  0  0  0
   27.3329  -19.9119  -15.4733 C   0  0  2  0  0  0  0  0  0  0  0  0
   28.2847  -20.9907  -15.8267 N   0  0  0  0  0  0  0  0  0  0  0  0
   26.2378  -20.4370  -14.6570 C   0  0  0  0  0  0  0  0  0  0  0  0
   25.6721  -21.5203  -15.0424 O   0  0  0  0  0  0  0  0  0  0  0  0
   26.2743  -22.1542  -10.8139 C   0  0  0  0  0  0  0  0  0  0  0  0
   26.0839  -20.6341  -10.6543 C   0  0  2  0  0  0  0  0  0  0  0  0
   26.0906  -20.3556   -9.1690 C   0  0  0  0  0  0  0  0  0  0  0  0
   24.7649  -20.3070  -11.2532 C   0  0  0  0  0  0  0  0  0  0  0  0
   24.6238  -20.4869  -12.7198 C   0  0  2  0  0  0  0  0  0  0  0  0
   25.7175  -19.8855  -13.4704 N   0  0  0  0  0  0  0  0  0  0  0  0
   23.3395  -20.0832  -13.2733 C   0  0  0  0  0  0  0  0  0  0  0  0
   23.1226  -18.9233  -13.7703 O   0  0  0  0  0  0  0  0  0  0  0  0
   21.9408  -22.2776  -15.7827 C   0  0  0  0  0  0  0  0  0  0  0  0
   21.4717  -20.8676  -15.5555 C   0  0  1  0  0  0  0  0  0  0  0  0
   20.3565  -20.5731  -16.3303 O   0  0  0  0  0  0  0  0  0  0  0  0
   21.0311  -20.6612  -14.0906 C   0  0  2  0  0  0  0  0  0  0  0  0
   22.2090  -20.9517  -13.3131 N   0  0  0  0  0  0  0  0  0  0  0  0
   19.9951  -21.6657  -13.7997 C   0  0  0  0  0  0  0  0  0  0  0  0
   18.7308  -21.5341  -14.3390 O   0  0  0  0  0  0  0  0  0  0  0  0
   20.2111  -22.6674  -13.0613 O   0  0  0  0  0  0  0  0  0  0  0  0
  1  2  1  0
  3  2  1  0
  3  4  1  1
  5  6  1  6
  5  3  1  0
  7  5  1  0
  8  7  2  0
 10 11  1  1
 10  9  1  0
 12 10  1  0
 13 12  1  1
 13 14  1  0
 14  7  1  0
 15 13  1  0
 16 15  2  0
 18 17  1  1
 18 19  1  0
 20 18  1  0
 20 21  1  1
 21 15  1  0
 22 23  1  0
 22 20  1  0
 24 22  2  0
M  END
$$$$
