MGM.pdb
     RDKit          3D

 21 20  0  0  1  0  0  0  0  0999 V2000
   23.2513  -20.7873  -10.0318 C   0  0  0  0  0  0  0  0  0  0  0  0
   24.8843  -20.1689   -9.5958 S   0  0  0  0  0  0  0  0  0  0  0  0
   26.1420  -21.3275  -10.2101 C   0  0  0  0  0  0  0  0  0  0  0  0
   25.7760  -21.6878  -11.6310 C   0  0  0  0  0  0  0  0  0  0  0  0
   26.5561  -20.9298  -12.6522 C   0  0  2  0  0  0  0  0  0  0  0  0
   26.5212  -19.5100  -12.5056 N   0  0  0  0  0  0  0  0  0  0  0  0
   26.1198  -21.3853  -13.9967 C   0  0  0  0  0  0  0  0  0  0  0  0
   25.4830  -22.4775  -14.0595 O   0  0  0  0  0  0  0  0  0  0  0  0
   26.3588  -20.6991  -15.1980 N   0  0  0  0  0  0  0  0  0  0  0  0
   25.4231  -20.7225  -16.2748 C   0  0  0  0  0  0  0  0  0  0  0  0
   24.0266  -20.4513  -15.8479 C   0  0  0  0  0  0  0  0  0  0  0  0
   23.4447  -19.3656  -15.9517 O   0  0  0  0  0  0  0  0  0  0  0  0
   19.7952  -25.3165  -14.8967 C   0  0  0  0  0  0  0  0  0  0  0  0
   19.0212  -24.0688  -13.8545 S   0  0  0  0  0  0  0  0  0  0  0  0
   19.7907  -22.4603  -14.2424 C   0  0  0  0  0  0  0  0  0  0  0  0
   21.2428  -22.6725  -14.5650 C   0  0  0  0  0  0  0  0  0  0  0  0
   21.9125  -21.3592  -14.8908 C   0  0  2  0  0  0  0  0  0  0  0  0
   23.3019  -21.5437  -15.2699 N   0  0  0  0  0  0  0  0  0  0  0  0
   21.8863  -20.5347  -13.6314 C   0  0  0  0  0  0  0  0  0  0  0  0
   20.9009  -19.5878  -13.3867 O   0  0  0  0  0  0  0  0  0  0  0  0
   22.7655  -20.6804  -12.7536 O   0  0  0  0  0  0  0  0  0  0  0  0
  2  1  1  0
  3  2  1  0
  4  3  1  0
  4  5  1  0
  5  7  1  0
  5  6  1  6
  7  8  2  0
  9  7  1  0
 10  9  1  0
 10 11  1  0
 11 12  2  0
 11 18  1  0
 14 13  1  0
 15 14  1  0
 16 15  1  0
 17 16  1  1
 18 17  1  0
 19 20  1  0
 19 17  1  0
 21 19  2  0
M  END
$$$$
