MGM.pdb
     RDKit          3D

 21 20  0  0  1  0  0  0  0  0999 V2000
   23.0093  -21.0053  -19.6663 C   0  0  0  0  0  0  0  0  0  0  0  0
   23.7326  -22.6304  -19.9401 S   0  0  0  0  0  0  0  0  0  0  0  0
   23.6053  -23.6029  -18.4105 C   0  0  0  0  0  0  0  0  0  0  0  0
   24.0184  -22.7086  -17.2650 C   0  0  0  0  0  0  0  0  0  0  0  0
   25.4916  -22.6936  -17.0289 C   0  0  2  0  0  0  0  0  0  0  0  0
   26.0744  -23.9722  -16.7756 N   0  0  0  0  0  0  0  0  0  0  0  0
   25.7767  -21.7037  -15.9593 C   0  0  0  0  0  0  0  0  0  0  0  0
   25.0633  -20.6584  -15.9327 O   0  0  0  0  0  0  0  0  0  0  0  0
   26.7731  -21.8389  -14.9794 N   0  0  0  0  0  0  0  0  0  0  0  0
   26.9670  -20.8545  -13.9651 C   0  0  0  0  0  0  0  0  0  0  0  0
   26.3654  -21.2274  -12.6594 C   0  0  0  0  0  0  0  0  0  0  0  0
   25.5066  -22.1004  -12.4905 O   0  0  0  0  0  0  0  0  0  0  0  0
   26.9608  -20.3347   -4.8516 C   0  0  0  0  0  0  0  0  0  0  0  0
   27.5072  -19.7048   -6.4475 S   0  0  0  0  0  0  0  0  0  0  0  0
   26.5537  -20.5646   -7.7443 C   0  0  0  0  0  0  0  0  0  0  0  0
   27.0901  -20.1741   -9.0925 C   0  0  0  0  0  0  0  0  0  0  0  0
   26.3411  -20.8902  -10.1905 C   0  0  2  0  0  0  0  0  0  0  0  0
   26.8243  -20.5116  -11.5063 N   0  0  0  0  0  0  0  0  0  0  0  0
   24.9028  -20.4576  -10.0880 C   0  0  0  0  0  0  0  0  0  0  0  0
   24.0035  -21.0740   -9.2284 O   0  0  0  0  0  0  0  0  0  0  0  0
   24.4677  -19.5146  -10.7854 O   0  0  0  0  0  0  0  0  0  0  0  0
  2  1  1  0
  3  2  1  0
  4  3  1  0
  4  5  1  0
  5  7  1  0
  5  6  1  1
  7  8  2  0
  9  7  1  0
 10  9  1  0
 10 11  1  0
 11 12  2  0
 11 18  1  0
 14 13  1  0
 15 14  1  0
 16 15  1  0
 17 16  1  1
 18 17  1  0
 19 20  1  0
 19 17  1  0
 21 19  2  0
M  END
$$$$
