MGM.pdb
     RDKit          3D

 21 20  0  0  1  0  0  0  0  0999 V2000
   19.8659  -21.2853  -14.2978 C   0  0  0  0  0  0  0  0  0  0  0  0
   20.4146  -20.1638  -15.5941 S   0  0  0  0  0  0  0  0  0  0  0  0
   22.1914  -19.8431  -15.3897 C   0  0  0  0  0  0  0  0  0  0  0  0
   22.5625  -20.2142  -13.9730 C   0  0  0  0  0  0  0  0  0  0  0  0
   24.0328  -20.1865  -13.7209 C   0  0  2  0  0  0  0  0  0  0  0  0
   24.8078  -21.0203  -14.5828 N   0  0  0  0  0  0  0  0  0  0  0  0
   24.2588  -20.4712  -12.2810 C   0  0  0  0  0  0  0  0  0  0  0  0
   23.6275  -19.7612  -11.4445 O   0  0  0  0  0  0  0  0  0  0  0  0
   25.1157  -21.4638  -11.7795 N   0  0  0  0  0  0  0  0  0  0  0  0
   25.3374  -21.6270  -10.3797 C   0  0  0  0  0  0  0  0  0  0  0  0
   26.5079  -20.8641   -9.8756 C   0  0  0  0  0  0  0  0  0  0  0  0
   27.3738  -20.3337  -10.5806 O   0  0  0  0  0  0  0  0  0  0  0  0
   28.0027  -20.8475   -3.4975 C   0  0  0  0  0  0  0  0  0  0  0  0
   28.9172  -19.3865   -4.0182 S   0  0  0  0  0  0  0  0  0  0  0  0
   29.0044  -19.4014   -5.8410 C   0  0  0  0  0  0  0  0  0  0  0  0
   27.7739  -20.0676   -6.3887 C   0  0  0  0  0  0  0  0  0  0  0  0
   27.7860  -20.0477   -7.8983 C   0  0  2  0  0  0  0  0  0  0  0  0
   26.6355  -20.7372   -8.4543 N   0  0  0  0  0  0  0  0  0  0  0  0
   29.0207  -20.7921   -8.3321 C   0  0  0  0  0  0  0  0  0  0  0  0
   29.0193  -22.1625   -8.5546 O   0  0  0  0  0  0  0  0  0  0  0  0
   30.1022  -20.1885   -8.5081 O   0  0  0  0  0  0  0  0  0  0  0  0
  2  1  1  0
  3  2  1  0
  4  3  1  0
  4  5  1  0
  5  7  1  0
  5  6  1  6
  7  8  2  0
  9  7  1  0
 10  9  1  0
 10 11  1  0
 11 12  2  0
 11 18  1  0
 14 13  1  0
 15 14  1  0
 16 15  1  0
 17 16  1  1
 18 17  1  0
 19 20  1  0
 19 17  1  0
 21 19  2  0
M  END
$$$$
