MGM.pdb
     RDKit          3D

 21 20  0  0  1  0  0  0  0  0999 V2000
   19.1485  -21.8901  -10.8538 C   0  0  0  0  0  0  0  0  0  0  0  0
   18.7057  -21.6103  -12.5757 S   0  0  0  0  0  0  0  0  0  0  0  0
   20.1310  -20.8960  -13.4473 C   0  0  0  0  0  0  0  0  0  0  0  0
   21.3799  -21.5150  -12.8644 C   0  0  0  0  0  0  0  0  0  0  0  0
   22.6393  -20.9306  -13.4109 C   0  0  2  0  0  0  0  0  0  0  0  0
   22.7946  -21.0493  -14.8252 N   0  0  0  0  0  0  0  0  0  0  0  0
   23.7801  -21.5028  -12.6517 C   0  0  0  0  0  0  0  0  0  0  0  0
   24.1889  -22.6497  -12.9981 O   0  0  0  0  0  0  0  0  0  0  0  0
   24.4368  -20.8709  -11.5838 N   0  0  0  0  0  0  0  0  0  0  0  0
   25.7730  -21.2112  -11.2171 C   0  0  0  0  0  0  0  0  0  0  0  0
   26.4160  -20.2051  -10.3338 C   0  0  0  0  0  0  0  0  0  0  0  0
   26.7596  -19.0680  -10.6759 O   0  0  0  0  0  0  0  0  0  0  0  0
   27.2608  -19.2786   -3.8145 C   0  0  0  0  0  0  0  0  0  0  0  0
   28.8153  -20.0344   -4.3190 S   0  0  0  0  0  0  0  0  0  0  0  0
   28.9891  -19.8063   -6.1212 C   0  0  0  0  0  0  0  0  0  0  0  0
   27.7847  -20.3829   -6.8103 C   0  0  0  0  0  0  0  0  0  0  0  0
   27.8492  -20.1264   -8.2967 C   0  0  2  0  0  0  0  0  0  0  0  0
   26.6531  -20.5929   -8.9751 N   0  0  0  0  0  0  0  0  0  0  0  0
   29.0147  -20.9203   -8.8238 C   0  0  0  0  0  0  0  0  0  0  0  0
   30.3177  -20.4436   -8.7758 O   0  0  0  0  0  0  0  0  0  0  0  0
   28.8413  -22.0516   -9.3289 O   0  0  0  0  0  0  0  0  0  0  0  0
  2  1  1  0
  3  2  1  0
  4  3  1  0
  4  5  1  0
  5  7  1  0
  5  6  1  6
  7  8  2  0
  9  7  1  0
 10  9  1  0
 10 11  1  0
 11 12  2  0
 11 18  1  0
 14 13  1  0
 15 14  1  0
 16 15  1  0
 17 16  1  1
 18 17  1  0
 19 20  1  0
 19 17  1  0
 21 19  2  0
M  END
$$$$
