MGM.pdb
     RDKit          3D

 21 20  0  0  1  0  0  0  0  0999 V2000
   29.1179  -18.9798   -4.4596 C   0  0  0  0  0  0  0  0  0  0  0  0
   28.8765  -19.4142   -6.1894 S   0  0  0  0  0  0  0  0  0  0  0  0
   27.0964  -19.5647   -6.5216 C   0  0  0  0  0  0  0  0  0  0  0  0
   26.9359  -20.0208   -7.9530 C   0  0  0  0  0  0  0  0  0  0  0  0
   25.5144  -20.0597   -8.4046 C   0  0  2  0  0  0  0  0  0  0  0  0
   24.6292  -20.7810   -7.5473 N   0  0  0  0  0  0  0  0  0  0  0  0
   25.4898  -20.5476   -9.8070 C   0  0  0  0  0  0  0  0  0  0  0  0
   25.3567  -21.7940   -9.9841 O   0  0  0  0  0  0  0  0  0  0  0  0
   25.6021  -19.7349  -10.9463 N   0  0  0  0  0  0  0  0  0  0  0  0
   25.1216  -20.1585  -12.2210 C   0  0  0  0  0  0  0  0  0  0  0  0
   23.6514  -20.0134  -12.3744 C   0  0  0  0  0  0  0  0  0  0  0  0
   22.8987  -19.4597  -11.5651 O   0  0  0  0  0  0  0  0  0  0  0  0
   20.5440  -18.2324  -17.6848 C   0  0  0  0  0  0  0  0  0  0  0  0
   19.5124  -19.6237  -17.1929 S   0  0  0  0  0  0  0  0  0  0  0  0
   19.8454  -19.9719  -15.4327 C   0  0  0  0  0  0  0  0  0  0  0  0
   21.3229  -20.1633  -15.2381 C   0  0  0  0  0  0  0  0  0  0  0  0
   21.6383  -20.4239  -13.7848 C   0  0  2  0  0  0  0  0  0  0  0  0
   23.0662  -20.5630  -13.5611 N   0  0  0  0  0  0  0  0  0  0  0  0
   20.9883  -21.7341  -13.4279 C   0  0  0  0  0  0  0  0  0  0  0  0
   21.5922  -22.9562  -13.6909 O   0  0  0  0  0  0  0  0  0  0  0  0
   19.8667  -21.7614  -12.8747 O   0  0  0  0  0  0  0  0  0  0  0  0
  2  1  1  0
  3  2  1  0
  4  3  1  0
  4  5  1  0
  5  7  1  0
  5  6  1  1
  7  8  2  0
  9  7  1  0
 10  9  1  0
 10 11  1  0
 11 12  2  0
 11 18  1  0
 14 13  1  0
 15 14  1  0
 16 15  1  0
 17 16  1  6
 18 17  1  0
 19 20  1  0
 19 17  1  0
 21 19  2  0
M  END
$$$$
