MGM.pdb
     RDKit          3D

 21 20  0  0  1  0  0  0  0  0999 V2000
   28.3441  -17.7867  -18.5573 C   0  0  0  0  0  0  0  0  0  0  0  0
   28.6672  -19.3850  -19.3192 S   0  0  0  0  0  0  0  0  0  0  0  0
   28.6774  -20.6663  -18.0310 C   0  0  0  0  0  0  0  0  0  0  0  0
   27.9937  -20.0935  -16.8116 C   0  0  0  0  0  0  0  0  0  0  0  0
   28.0755  -20.9826  -15.6162 C   0  0  2  0  0  0  0  0  0  0  0  0
   27.8536  -22.3683  -15.8794 N   0  0  0  0  0  0  0  0  0  0  0  0
   27.1691  -20.4375  -14.5737 C   0  0  0  0  0  0  0  0  0  0  0  0
   25.9738  -20.8544  -14.5704 O   0  0  0  0  0  0  0  0  0  0  0  0
   27.5358  -19.4993  -13.5958 N   0  0  0  0  0  0  0  0  0  0  0  0
   26.6155  -19.0529  -12.6012 C   0  0  0  0  0  0  0  0  0  0  0  0
   26.4374  -20.0190  -11.4872 C   0  0  0  0  0  0  0  0  0  0  0  0
   26.0500  -21.1867  -11.6078 O   0  0  0  0  0  0  0  0  0  0  0  0
   28.4996  -18.5358   -5.5961 C   0  0  0  0  0  0  0  0  0  0  0  0
   27.7816  -20.1233   -5.1416 S   0  0  0  0  0  0  0  0  0  0  0  0
   26.9532  -20.8055   -6.6175 C   0  0  0  0  0  0  0  0  0  0  0  0
   27.1205  -19.8490   -7.7641 C   0  0  0  0  0  0  0  0  0  0  0  0
   26.5481  -20.4344   -9.0326 C   0  0  2  0  0  0  0  0  0  0  0  0
   26.7425  -19.5505  -10.1681 N   0  0  0  0  0  0  0  0  0  0  0  0
   25.0658  -20.5798   -8.8130 C   0  0  0  0  0  0  0  0  0  0  0  0
   24.5315  -21.5672   -7.9962 O   0  0  0  0  0  0  0  0  0  0  0  0
   24.2580  -19.8028   -9.3687 O   0  0  0  0  0  0  0  0  0  0  0  0
  2  1  1  0
  3  2  1  0
  4  3  1  0
  4  5  1  0
  5  7  1  0
  5  6  1  6
  7  8  2  0
  9  7  1  0
 10  9  1  0
 10 11  1  0
 11 12  2  0
 11 18  1  0
 14 13  1  0
 15 14  1  0
 16 15  1  0
 17 16  1  1
 18 17  1  0
 19 20  1  0
 19 17  1  0
 21 19  2  0
M  END
$$$$
