MGM.pdb
     RDKit          3D

 21 20  0  0  1  0  0  0  0  0999 V2000
   18.9724  -12.7171    4.4932 C   0  0  0  0  0  0  0  0  0  0  0  0
   19.0246  -13.3495    2.8090 S   0  0  0  0  0  0  0  0  0  0  0  0
   17.7648  -14.6454    2.6215 C   0  0  0  0  0  0  0  0  0  0  0  0
   18.4383  -15.9758    2.8647 C   0  0  0  0  0  0  0  0  0  0  0  0
   17.4816  -17.1188    2.9306 C   0  0  2  0  0  0  0  0  0  0  0  0
   16.5740  -17.0823    4.0322 N   0  0  0  0  0  0  0  0  0  0  0  0
   18.2644  -18.3791    2.8652 C   0  0  0  0  0  0  0  0  0  0  0  0
   18.6971  -18.7335    1.7296 O   0  0  0  0  0  0  0  0  0  0  0  0
   18.5597  -19.2035    3.9626 N   0  0  0  0  0  0  0  0  0  0  0  0
   19.4352  -20.3240    3.8457 C   0  0  0  0  0  0  0  0  0  0  0  0
   19.5928  -21.0833    5.1125 C   0  0  0  0  0  0  0  0  0  0  0  0
   20.4037  -20.8209    6.0078 O   0  0  0  0  0  0  0  0  0  0  0  0
   15.0499  -24.8408    8.7946 C   0  0  0  0  0  0  0  0  0  0  0  0
   16.4162  -25.8342    8.1712 S   0  0  0  0  0  0  0  0  0  0  0  0
   17.8586  -24.7354    7.9660 C   0  0  0  0  0  0  0  0  0  0  0  0
   17.7073  -23.9547    6.6911 C   0  0  0  0  0  0  0  0  0  0  0  0
   18.8940  -23.0454    6.4805 C   0  0  2  0  0  0  0  0  0  0  0  0
   18.7295  -22.2105    5.3040 N   0  0  0  0  0  0  0  0  0  0  0  0
   20.0864  -23.9348    6.2488 C   0  0  0  0  0  0  0  0  0  0  0  0
   20.9643  -24.2770    7.2685 O   0  0  0  0  0  0  0  0  0  0  0  0
   20.3258  -24.3997    5.1124 O   0  0  0  0  0  0  0  0  0  0  0  0
  2  1  1  0
  3  2  1  0
  4  3  1  0
  4  5  1  0
  5  7  1  0
  5  6  1  1
  7  8  2  0
  9  7  1  0
 10  9  1  0
 10 11  1  0
 11 12  2  0
 11 18  1  0
 14 13  1  0
 15 14  1  0
 16 15  1  0
 17 16  1  6
 18 17  1  0
 19 20  1  0
 19 17  1  0
 21 19  2  0
M  END
$$$$
