MGM.pdb
     RDKit          3D

 21 20  0  0  1  0  0  0  0  0999 V2000
   31.0247  -22.1996  -11.1780 C   0  0  0  0  0  0  0  0  0  0  0  0
   30.4581  -20.5277  -10.8269 S   0  0  0  0  0  0  0  0  0  0  0  0
   28.6511  -20.5403  -10.6366 C   0  0  0  0  0  0  0  0  0  0  0  0
   28.0461  -20.5545  -12.0210 C   0  0  0  0  0  0  0  0  0  0  0  0
   26.5554  -20.6174  -12.0136 C   0  0  2  0  0  0  0  0  0  0  0  0
   25.9997  -21.6445  -11.1920 N   0  0  0  0  0  0  0  0  0  0  0  0
   26.0902  -20.6858  -13.4222 C   0  0  0  0  0  0  0  0  0  0  0  0
   25.8811  -21.8360  -13.9076 O   0  0  0  0  0  0  0  0  0  0  0  0
   25.8655  -19.5762  -14.2526 N   0  0  0  0  0  0  0  0  0  0  0  0
   25.3613  -19.7213  -15.5793 C   0  0  0  0  0  0  0  0  0  0  0  0
   23.9060  -20.0144  -15.6278 C   0  0  0  0  0  0  0  0  0  0  0  0
   23.2559  -20.2426  -16.6542 O   0  0  0  0  0  0  0  0  0  0  0  0
   20.6479  -20.9293  -10.1692 C   0  0  0  0  0  0  0  0  0  0  0  0
   19.2350  -21.1437  -11.2645 S   0  0  0  0  0  0  0  0  0  0  0  0
   19.8000  -20.8382  -12.9726 C   0  0  0  0  0  0  0  0  0  0  0  0
   21.2843  -20.6047  -12.9673 C   0  0  0  0  0  0  0  0  0  0  0  0
   21.7793  -20.2992  -14.3606 C   0  0  2  0  0  0  0  0  0  0  0  0
   23.2065  -20.0326  -14.3777 N   0  0  0  0  0  0  0  0  0  0  0  0
   21.0733  -19.0467  -14.8070 C   0  0  0  0  0  0  0  0  0  0  0  0
   19.9549  -19.0799  -15.6289 O   0  0  0  0  0  0  0  0  0  0  0  0
   21.4795  -17.9203  -14.4447 O   0  0  0  0  0  0  0  0  0  0  0  0
  2  1  1  0
  3  2  1  0
  4  3  1  0
  4  5  1  0
  5  7  1  0
  5  6  1  1
  7  8  2  0
  9  7  1  0
 10  9  1  0
 10 11  1  0
 11 12  2  0
 11 18  1  0
 14 13  1  0
 15 14  1  0
 16 15  1  0
 17 16  1  1
 18 17  1  0
 19 20  1  0
 19 17  1  0
 21 19  2  0
M  END
$$$$
