MGM.pdb
     RDKit          3D

 21 20  0  0  1  0  0  0  0  0999 V2000
   31.2712  -23.9569  -14.4980 C   0  0  0  0  0  0  0  0  0  0  0  0
   31.4514  -24.4811  -16.2103 S   0  0  0  0  0  0  0  0  0  0  0  0
   30.3905  -23.4476  -17.2630 C   0  0  0  0  0  0  0  0  0  0  0  0
   29.9182  -22.2798  -16.4288 C   0  0  0  0  0  0  0  0  0  0  0  0
   28.4525  -22.3067  -16.1512 C   0  0  2  0  0  0  0  0  0  0  0  0
   27.6185  -22.1729  -17.3024 N   0  0  0  0  0  0  0  0  0  0  0  0
   28.1632  -21.2940  -15.1042 C   0  0  0  0  0  0  0  0  0  0  0  0
   28.4053  -20.0840  -15.3865 O   0  0  0  0  0  0  0  0  0  0  0  0
   27.6437  -21.5758  -13.8307 N   0  0  0  0  0  0  0  0  0  0  0  0
   27.4080  -20.5463  -12.8715 C   0  0  0  0  0  0  0  0  0  0  0  0
   26.9972  -21.0634  -11.5411 C   0  0  0  0  0  0  0  0  0  0  0  0
   26.7360  -22.2434  -11.2815 O   0  0  0  0  0  0  0  0  0  0  0  0
   27.7850  -19.4041   -3.9131 C   0  0  0  0  0  0  0  0  0  0  0  0
   27.9428  -18.7785   -5.5941 S   0  0  0  0  0  0  0  0  0  0  0  0
   27.2040  -20.0094   -6.7206 C   0  0  0  0  0  0  0  0  0  0  0  0
   27.3961  -19.5573   -8.1406 C   0  0  0  0  0  0  0  0  0  0  0  0
   26.8315  -20.5741   -9.1033 C   0  0  2  0  0  0  0  0  0  0  0  0
   26.8986  -20.1090  -10.4771 N   0  0  0  0  0  0  0  0  0  0  0  0
   25.3788  -20.7478   -8.7482 C   0  0  0  0  0  0  0  0  0  0  0  0
   24.9574  -21.6330   -7.7652 O   0  0  0  0  0  0  0  0  0  0  0  0
   24.4935  -20.0891   -9.3377 O   0  0  0  0  0  0  0  0  0  0  0  0
  2  1  1  0
  3  2  1  0
  4  3  1  0
  4  5  1  0
  5  7  1  0
  5  6  1  6
  7  8  2  0
  9  7  1  0
 10  9  1  0
 10 11  1  0
 11 12  2  0
 11 18  1  0
 14 13  1  0
 15 14  1  0
 16 15  1  0
 17 16  1  1
 18 17  1  0
 19 20  1  0
 19 17  1  0
 21 19  2  0
M  END
$$$$
