MGM.pdb
     RDKit          3D

 21 20  0  0  1  0  0  0  0  0999 V2000
   27.7968  -15.8642  -15.3269 C   0  0  0  0  0  0  0  0  0  0  0  0
   28.1905  -16.7220  -16.8593 S   0  0  0  0  0  0  0  0  0  0  0  0
   26.7208  -17.6257  -17.4291 C   0  0  0  0  0  0  0  0  0  0  0  0
   25.8661  -17.9176  -16.2179 C   0  0  0  0  0  0  0  0  0  0  0  0
   26.3020  -19.1301  -15.4656 C   0  0  2  0  0  0  0  0  0  0  0  0
   26.0054  -20.3732  -16.1023 N   0  0  0  0  0  0  0  0  0  0  0  0
   25.7553  -19.0388  -14.0879 C   0  0  0  0  0  0  0  0  0  0  0  0
   24.6383  -19.5932  -13.8703 O   0  0  0  0  0  0  0  0  0  0  0  0
   26.3808  -18.3871  -13.0131 N   0  0  0  0  0  0  0  0  0  0  0  0
   25.7853  -18.3346  -11.7177 C   0  0  0  0  0  0  0  0  0  0  0  0
   26.1872  -19.4622  -10.8383 C   0  0  0  0  0  0  0  0  0  0  0  0
   26.3020  -20.6407  -11.1934 O   0  0  0  0  0  0  0  0  0  0  0  0
   28.9611  -18.5418   -5.1404 C   0  0  0  0  0  0  0  0  0  0  0  0
   28.2984  -20.1687   -4.7453 S   0  0  0  0  0  0  0  0  0  0  0  0
   27.4674  -20.8115   -6.2374 C   0  0  0  0  0  0  0  0  0  0  0  0
   27.3239  -19.7013   -7.2397 C   0  0  0  0  0  0  0  0  0  0  0  0
   26.7390  -20.2226   -8.5303 C   0  0  2  0  0  0  0  0  0  0  0  0
   26.4628  -19.1488   -9.4678 N   0  0  0  0  0  0  0  0  0  0  0  0
   25.4280  -20.8747   -8.1804 C   0  0  0  0  0  0  0  0  0  0  0  0
   25.3589  -22.0556   -7.4537 O   0  0  0  0  0  0  0  0  0  0  0  0
   24.3440  -20.3637   -8.5395 O   0  0  0  0  0  0  0  0  0  0  0  0
  2  1  1  0
  3  2  1  0
  4  3  1  0
  4  5  1  0
  5  7  1  0
  5  6  1  6
  7  8  2  0
  9  7  1  0
 10  9  1  0
 10 11  1  0
 11 12  2  0
 11 18  1  0
 14 13  1  0
 15 14  1  0
 16 15  1  0
 17 16  1  1
 18 17  1  0
 19 20  1  0
 19 17  1  0
 21 19  2  0
M  END
$$$$
