MGM.pdb
     RDKit          3D

 21 20  0  0  1  0  0  0  0  0999 V2000
   30.2111  -20.1811  -19.8826 C   0  0  0  0  0  0  0  0  0  0  0  0
   29.5292  -21.7590  -20.4162 S   0  0  0  0  0  0  0  0  0  0  0  0
   27.9688  -22.0605  -19.5354 C   0  0  0  0  0  0  0  0  0  0  0  0
   28.0476  -21.3429  -18.2082 C   0  0  0  0  0  0  0  0  0  0  0  0
   27.0776  -21.8595  -17.1989 C   0  0  2  0  0  0  0  0  0  0  0  0
   25.7204  -21.9117  -17.6392 N   0  0  0  0  0  0  0  0  0  0  0  0
   27.2525  -21.0768  -15.9491 C   0  0  0  0  0  0  0  0  0  0  0  0
   27.3987  -19.8248  -16.0657 O   0  0  0  0  0  0  0  0  0  0  0  0
   27.2678  -21.6178  -14.6536 N   0  0  0  0  0  0  0  0  0  0  0  0
   27.3191  -20.7881  -13.4941 C   0  0  0  0  0  0  0  0  0  0  0  0
   26.3702  -21.2038  -12.4297 C   0  0  0  0  0  0  0  0  0  0  0  0
   25.4555  -22.0238  -12.5670 O   0  0  0  0  0  0  0  0  0  0  0  0
   26.7906  -18.5757   -6.5797 C   0  0  0  0  0  0  0  0  0  0  0  0
   27.9452  -19.9285   -6.8605 S   0  0  0  0  0  0  0  0  0  0  0  0
   27.2952  -20.9431   -8.2310 C   0  0  0  0  0  0  0  0  0  0  0  0
   26.0371  -20.3132   -8.7581 C   0  0  0  0  0  0  0  0  0  0  0  0
   25.6293  -20.9523  -10.0638 C   0  0  2  0  0  0  0  0  0  0  0  0
   26.5366  -20.5998  -11.1413 N   0  0  0  0  0  0  0  0  0  0  0  0
   24.2709  -20.4034  -10.4099 C   0  0  0  0  0  0  0  0  0  0  0  0
   23.0993  -20.9584   -9.9131 O   0  0  0  0  0  0  0  0  0  0  0  0
   24.1550  -19.4147  -11.1677 O   0  0  0  0  0  0  0  0  0  0  0  0
  2  1  1  0
  3  2  1  0
  4  3  1  0
  4  5  1  0
  5  7  1  0
  5  6  1  6
  7  8  2  0
  9  7  1  0
 10  9  1  0
 10 11  1  0
 11 12  2  0
 11 18  1  0
 14 13  1  0
 15 14  1  0
 16 15  1  0
 17 16  1  1
 18 17  1  0
 19 20  1  0
 19 17  1  0
 21 19  2  0
M  END
$$$$
