QPD.pdb
     RDKit          3D

 25 25  0  0  1  0  0  0  0  0999 V2000
   21.7111  -21.7631  -11.5473 N   0  0  0  0  0  0  0  0  0  0  0  0
   21.9025  -21.5802  -10.1561 C   0  0  0  0  0  0  0  0  0  0  0  0
   21.1041  -22.1161   -9.3625 O   0  0  0  0  0  0  0  0  0  0  0  0
   23.0298  -20.7691   -9.6653 C   0  0  0  0  0  0  0  0  0  0  0  0
   23.8137  -20.0547  -10.7026 C   0  0  0  0  0  0  0  0  0  0  0  0
   25.1066  -20.7257  -11.1099 C   0  0  2  0  0  0  0  0  0  0  0  0
   25.9569  -20.9884  -10.0045 N   0  0  0  0  0  0  0  0  0  0  0  0
   25.7577  -19.9294  -12.1586 C   0  0  0  0  0  0  0  0  0  0  0  0
   25.4445  -18.7118  -12.2259 O   0  0  0  0  0  0  0  0  0  0  0  0
   26.7260  -20.4432  -13.1101 N   0  0  0  0  0  0  0  0  0  0  0  0
   27.5176  -21.6241  -13.0039 C   0  0  0  0  0  0  0  0  0  0  0  0
   27.7755  -22.0529  -14.4331 C   0  0  0  0  0  0  0  0  0  0  0  0
   27.9396  -20.6989  -15.0974 C   0  0  0  0  0  0  0  0  0  0  0  0
   27.0281  -19.7807  -14.3551 C   0  0  1  0  0  0  0  0  0  0  0  0
   25.7973  -19.6131  -15.1948 C   0  0  0  0  0  0  0  0  0  0  0  0
   24.7434  -20.1463  -14.7792 O   0  0  0  0  0  0  0  0  0  0  0  0
   25.7700  -18.9015  -16.3999 N   0  0  0  0  0  0  0  0  0  0  0  0
   24.5764  -18.4460  -17.0813 C   0  0  1  0  0  0  0  0  0  0  0  0
   23.8759  -17.4579  -16.1862 C   0  0  0  0  0  0  0  0  0  0  0  0
   22.6299  -16.9064  -16.7627 C   0  0  0  0  0  0  0  0  0  0  0  0
   22.6609  -16.1405  -17.7565 O   0  0  0  0  0  0  0  0  0  0  0  0
   24.8990  -17.7938  -18.3741 C   0  0  0  0  0  0  0  0  0  0  0  0
   25.9025  -17.0520  -18.4382 O   0  0  0  0  0  0  0  0  0  0  0  0
   21.3821  -17.2190  -16.2216 O   0  0  0  0  0  0  0  0  0  0  0  0
   24.1295  -17.9789  -19.5046 O   0  0  0  0  0  0  0  0  0  0  0  0
  2  4  1  0
  2  1  1  0
  3  2  2  0
  5  6  1  0
  5  4  1  0
  6  8  1  0
  6  7  1  1
  8 10  1  0
  9  8  2  0
 10 14  1  0
 10 11  1  0
 11 12  1  0
 13 12  1  0
 14 13  1  0
 14 15  1  6
 15 17  1  0
 16 15  2  0
 18 17  1  0
 18 22  1  0
 18 19  1  1
 20 19  1  0
 21 20  2  0
 22 23  2  0
 22 25  1  0
 24 20  1  0
M  END
$$$$
