QPD.pdb
     RDKit          3D

 25 25  0  0  1  0  0  0  0  0999 V2000
   14.3644  -22.4299    3.3948 N   0  0  0  0  0  0  0  0  0  0  0  0
   13.8668  -21.5883    2.3702 C   0  0  0  0  0  0  0  0  0  0  0  0
   12.9336  -21.9995    1.6529 O   0  0  0  0  0  0  0  0  0  0  0  0
   14.4485  -20.2508    2.1645 C   0  0  0  0  0  0  0  0  0  0  0  0
   15.5334  -19.8654    3.1002 C   0  0  0  0  0  0  0  0  0  0  0  0
   16.0674  -18.4612    2.9250 C   0  0  2  0  0  0  0  0  0  0  0  0
   16.6357  -18.2496    1.6421 N   0  0  0  0  0  0  0  0  0  0  0  0
   16.9952  -18.1541    4.0218 C   0  0  0  0  0  0  0  0  0  0  0  0
   18.1241  -18.7103    3.9849 O   0  0  0  0  0  0  0  0  0  0  0  0
   16.7039  -17.2638    5.1306 N   0  0  0  0  0  0  0  0  0  0  0  0
   15.4979  -16.5478    5.3862 C   0  0  0  0  0  0  0  0  0  0  0  0
   15.4527  -16.3808    6.8905 C   0  0  0  0  0  0  0  0  0  0  0  0
   16.9242  -16.1568    7.1832 C   0  0  0  0  0  0  0  0  0  0  0  0
   17.6576  -16.9729    6.1727 C   0  0  1  0  0  0  0  0  0  0  0  0
   18.1067  -18.2252    6.8642 C   0  0  0  0  0  0  0  0  0  0  0  0
   17.3447  -19.2169    6.8050 O   0  0  0  0  0  0  0  0  0  0  0  0
   19.3157  -18.3371    7.5607 N   0  0  0  0  0  0  0  0  0  0  0  0
   19.7843  -19.5222    8.2479 C   0  0  1  0  0  0  0  0  0  0  0  0
   20.8230  -20.1845    7.3816 C   0  0  0  0  0  0  0  0  0  0  0  0
   21.2339  -21.5239    7.8573 C   0  0  0  0  0  0  0  0  0  0  0  0
   20.6805  -22.0551    8.8506 O   0  0  0  0  0  0  0  0  0  0  0  0
   20.3824  -19.1912    9.5646 C   0  0  0  0  0  0  0  0  0  0  0  0
   20.9721  -18.0976    9.6982 O   0  0  0  0  0  0  0  0  0  0  0  0
   22.2481  -22.2389    7.2187 O   0  0  0  0  0  0  0  0  0  0  0  0
   20.3091  -20.0489   10.6432 O   0  0  0  0  0  0  0  0  0  0  0  0
  2  4  1  0
  2  1  1  0
  3  2  2  0
  5  6  1  0
  5  4  1  0
  6  8  1  0
  6  7  1  6
  8 10  1  0
  9  8  2  0
 10 14  1  0
 10 11  1  0
 11 12  1  0
 13 12  1  0
 14 13  1  0
 14 15  1  1
 15 17  1  0
 16 15  2  0
 18 17  1  0
 18 22  1  0
 18 19  1  6
 20 19  1  0
 21 20  2  0
 22 23  2  0
 22 25  1  0
 24 20  1  0
M  END
$$$$
