QPD.pdb
     RDKit          3D

 25 25  0  0  1  0  0  0  0  0999 V2000
   16.5165  -11.9472  -14.6684 N   0  0  0  0  0  0  0  0  0  0  0  0
   16.7301  -13.0732  -15.5003 C   0  0  0  0  0  0  0  0  0  0  0  0
   15.9298  -14.0273  -15.4401 O   0  0  0  0  0  0  0  0  0  0  0  0
   17.8814  -13.1062  -16.4185 C   0  0  0  0  0  0  0  0  0  0  0  0
   18.7520  -11.9049  -16.4091 C   0  0  0  0  0  0  0  0  0  0  0  0
   19.9221  -11.9490  -17.3665 C   0  0  2  0  0  0  0  0  0  0  0  0
   20.8010  -13.0319  -17.1046 N   0  0  0  0  0  0  0  0  0  0  0  0
   20.6002  -10.6459  -17.3651 C   0  0  0  0  0  0  0  0  0  0  0  0
   21.4120  -10.4277  -16.4279 O   0  0  0  0  0  0  0  0  0  0  0  0
   20.4017   -9.6060  -18.3583 N   0  0  0  0  0  0  0  0  0  0  0  0
   19.5944   -9.6577  -19.5321 C   0  0  0  0  0  0  0  0  0  0  0  0
   19.1862   -8.2226  -19.7904 C   0  0  0  0  0  0  0  0  0  0  0  0
   20.4578   -7.5014  -19.3853 C   0  0  0  0  0  0  0  0  0  0  0  0
   21.0381   -8.3143  -18.2774 C   0  0  1  0  0  0  0  0  0  0  0  0
   20.6926   -7.6169  -16.9958 C   0  0  0  0  0  0  0  0  0  0  0  0
   19.5668   -7.8525  -16.5010 O   0  0  0  0  0  0  0  0  0  0  0  0
   21.5528   -6.7306  -16.3373 N   0  0  0  0  0  0  0  0  0  0  0  0
   21.2811   -6.0760  -15.0746 C   0  0  1  0  0  0  0  0  0  0  0  0
   22.5978   -5.8100  -14.3936 C   0  0  0  0  0  0  0  0  0  0  0  0
   22.4678   -5.1458  -13.0779 C   0  0  0  0  0  0  0  0  0  0  0  0
   22.5581   -3.8985  -12.9715 O   0  0  0  0  0  0  0  0  0  0  0  0
   20.5603   -4.7936  -15.2666 C   0  0  0  0  0  0  0  0  0  0  0  0
   20.0614   -4.2303  -14.2690 O   0  0  0  0  0  0  0  0  0  0  0  0
   22.2412   -5.8827  -11.9146 O   0  0  0  0  0  0  0  0  0  0  0  0
   20.4232   -4.2044  -16.5070 O   0  0  0  0  0  0  0  0  0  0  0  0
  2  4  1  0
  2  1  1  0
  3  2  2  0
  5  6  1  0
  5  4  1  0
  6  8  1  0
  6  7  1  1
  8 10  1  0
  9  8  2  0
 10 14  1  0
 10 11  1  0
 11 12  1  0
 13 12  1  0
 14 13  1  0
 14 15  1  1
 15 17  1  0
 16 15  2  0
 18 17  1  0
 18 22  1  0
 18 19  1  6
 20 19  1  0
 21 20  2  0
 22 23  2  0
 22 25  1  0
 24 20  1  0
M  END
$$$$
