QPD.pdb
     RDKit          3D

 25 25  0  0  1  0  0  0  0  0999 V2000
   15.7485  -12.0021  -15.0836 N   0  0  0  0  0  0  0  0  0  0  0  0
   15.9094  -13.1962  -15.8278 C   0  0  0  0  0  0  0  0  0  0  0  0
   14.9496  -13.9874  -15.9123 O   0  0  0  0  0  0  0  0  0  0  0  0
   17.1932  -13.4885  -16.4880 C   0  0  0  0  0  0  0  0  0  0  0  0
   18.2210  -12.4216  -16.4069 C   0  0  0  0  0  0  0  0  0  0  0  0
   19.5550  -12.7624  -17.0329 C   0  0  2  0  0  0  0  0  0  0  0  0
   20.1448  -13.9208  -16.4638 N   0  0  0  0  0  0  0  0  0  0  0  0
   20.4322  -11.5854  -16.9779 C   0  0  0  0  0  0  0  0  0  0  0  0
   20.9215  -11.2921  -15.8556 O   0  0  0  0  0  0  0  0  0  0  0  0
   20.7701  -10.7483  -18.1146 N   0  0  0  0  0  0  0  0  0  0  0  0
   20.3410  -10.8911  -19.4666 C   0  0  0  0  0  0  0  0  0  0  0  0
   20.3658   -9.4882  -20.0358 C   0  0  0  0  0  0  0  0  0  0  0  0
   21.6003   -8.9375  -19.3472 C   0  0  0  0  0  0  0  0  0  0  0  0
   21.6374   -9.6005  -18.0115 C   0  0  1  0  0  0  0  0  0  0  0  0
   21.1122   -8.6095  -17.0164 C   0  0  0  0  0  0  0  0  0  0  0  0
   19.8817   -8.6268  -16.7856 O   0  0  0  0  0  0  0  0  0  0  0  0
   21.9172   -7.6820  -16.3448 N   0  0  0  0  0  0  0  0  0  0  0  0
   21.4658   -6.7592  -15.3244 C   0  0  1  0  0  0  0  0  0  0  0  0
   22.5660   -6.6139  -14.3064 C   0  0  0  0  0  0  0  0  0  0  0  0
   22.2629   -5.6431  -13.2317 C   0  0  0  0  0  0  0  0  0  0  0  0
   21.2145   -5.7407  -12.5489 O   0  0  0  0  0  0  0  0  0  0  0  0
   21.1453   -5.4272  -15.8938 C   0  0  0  0  0  0  0  0  0  0  0  0
   21.7967   -5.0239  -16.8809 O   0  0  0  0  0  0  0  0  0  0  0  0
   23.1310   -4.5892  -12.9428 O   0  0  0  0  0  0  0  0  0  0  0  0
   20.1545   -4.6217  -15.3704 O   0  0  0  0  0  0  0  0  0  0  0  0
  2  4  1  0
  2  1  1  0
  3  2  2  0
  5  6  1  0
  5  4  1  0
  6  8  1  0
  6  7  1  1
  8 10  1  0
  9  8  2  0
 10 14  1  0
 10 11  1  0
 11 12  1  0
 13 12  1  0
 14 13  1  0
 14 15  1  1
 15 17  1  0
 16 15  2  0
 18 17  1  0
 18 22  1  0
 18 19  1  1
 20 19  1  0
 21 20  2  0
 22 23  2  0
 22 25  1  0
 24 20  1  0
M  END
$$$$
