QPD.pdb
     RDKit          3D

 25 25  0  0  1  0  0  0  0  0999 V2000
   26.5788   -9.4719  -16.5263 N   0  0  0  0  0  0  0  0  0  0  0  0
   27.3584  -10.6541  -16.5462 C   0  0  0  0  0  0  0  0  0  0  0  0
   28.4679  -10.6346  -17.1145 O   0  0  0  0  0  0  0  0  0  0  0  0
   26.8577  -11.8807  -15.9024 C   0  0  0  0  0  0  0  0  0  0  0  0
   25.5757  -11.7494  -15.1675 C   0  0  0  0  0  0  0  0  0  0  0  0
   24.3340  -12.0457  -15.9788 C   0  0  2  0  0  0  0  0  0  0  0  0
   24.6340  -12.4971  -17.2903 N   0  0  0  0  0  0  0  0  0  0  0  0
   23.4521  -10.8710  -15.9635 C   0  0  0  0  0  0  0  0  0  0  0  0
   23.7065   -9.9575  -16.7917 O   0  0  0  0  0  0  0  0  0  0  0  0
   22.3211  -10.6939  -15.0711 N   0  0  0  0  0  0  0  0  0  0  0  0
   21.8223  -11.6069  -14.0964 C   0  0  0  0  0  0  0  0  0  0  0  0
   21.1743  -10.7370  -13.0400 C   0  0  0  0  0  0  0  0  0  0  0  0
   20.5706   -9.6533  -13.9133 C   0  0  0  0  0  0  0  0  0  0  0  0
   21.5104   -9.5010  -15.0616 C   0  0  1  0  0  0  0  0  0  0  0  0
   22.3397   -8.2819  -14.7893 C   0  0  0  0  0  0  0  0  0  0  0  0
   23.5786   -8.4401  -14.7001 O   0  0  0  0  0  0  0  0  0  0  0  0
   21.8051   -6.9977  -14.6328 N   0  0  0  0  0  0  0  0  0  0  0  0
   22.5618   -5.7634  -14.6491 C   0  0  1  0  0  0  0  0  0  0  0  0
   23.2680   -5.6660  -15.9758 C   0  0  0  0  0  0  0  0  0  0  0  0
   24.0911   -4.4460  -16.1277 C   0  0  0  0  0  0  0  0  0  0  0  0
   23.5955   -3.3832  -16.5749 O   0  0  0  0  0  0  0  0  0  0  0  0
   21.6840   -4.5806  -14.4728 C   0  0  0  0  0  0  0  0  0  0  0  0
   20.6171   -4.5228  -15.1207 O   0  0  0  0  0  0  0  0  0  0  0  0
   25.4425   -4.4369  -15.7796 O   0  0  0  0  0  0  0  0  0  0  0  0
   22.0062   -3.5451  -13.6192 O   0  0  0  0  0  0  0  0  0  0  0  0
  2  4  1  0
  2  1  1  0
  3  2  2  0
  5  6  1  0
  5  4  1  0
  6  8  1  0
  6  7  1  6
  8 10  1  0
  9  8  2  0
 10 14  1  0
 10 11  1  0
 11 12  1  0
 13 12  1  0
 14 13  1  0
 14 15  1  1
 15 17  1  0
 16 15  2  0
 18 17  1  0
 18 22  1  0
 18 19  1  6
 20 19  1  0
 21 20  2  0
 22 23  2  0
 22 25  1  0
 24 20  1  0
M  END
$$$$
