QPD.pdb
     RDKit          3D

 25 25  0  0  1  0  0  0  0  0999 V2000
   12.4017  -11.4838  -15.3462 N   0  0  0  0  0  0  0  0  0  0  0  0
   13.0863  -12.4086  -16.1719 C   0  0  0  0  0  0  0  0  0  0  0  0
   12.4352  -13.0701  -17.0043 O   0  0  0  0  0  0  0  0  0  0  0  0
   14.5437  -12.5778  -16.0419 C   0  0  0  0  0  0  0  0  0  0  0  0
   15.2218  -11.6531  -15.1006 C   0  0  0  0  0  0  0  0  0  0  0  0
   16.7256  -11.7970  -15.0262 C   0  0  2  0  0  0  0  0  0  0  0  0
   17.1292  -13.0784  -14.5693 N   0  0  0  0  0  0  0  0  0  0  0  0
   17.2793  -10.6998  -14.2213 C   0  0  0  0  0  0  0  0  0  0  0  0
   17.0986  -10.7595  -12.9768 O   0  0  0  0  0  0  0  0  0  0  0  0
   18.0120   -9.5664  -14.7557 N   0  0  0  0  0  0  0  0  0  0  0  0
   18.3527   -9.3051  -16.1151 C   0  0  0  0  0  0  0  0  0  0  0  0
   18.4458   -7.7968  -16.2127 C   0  0  0  0  0  0  0  0  0  0  0  0
   19.0614   -7.4749  -14.8640 C   0  0  0  0  0  0  0  0  0  0  0  0
   18.5198   -8.5011  -13.9266 C   0  0  1  0  0  0  0  0  0  0  0  0
   17.4187   -7.8451  -13.1486 C   0  0  0  0  0  0  0  0  0  0  0  0
   16.2888   -7.7954  -13.6858 O   0  0  0  0  0  0  0  0  0  0  0  0
   17.5899   -7.2951  -11.8729 N   0  0  0  0  0  0  0  0  0  0  0  0
   16.5443   -6.7047  -11.0637 C   0  0  1  0  0  0  0  0  0  0  0  0
   16.8941   -6.9248   -9.6155 C   0  0  0  0  0  0  0  0  0  0  0  0
   15.9356   -6.3134   -8.6685 C   0  0  0  0  0  0  0  0  0  0  0  0
   14.8368   -5.8555   -9.0660 O   0  0  0  0  0  0  0  0  0  0  0  0
   16.4091   -5.2498  -11.3201 C   0  0  0  0  0  0  0  0  0  0  0  0
   17.4296   -4.5967  -11.6261 O   0  0  0  0  0  0  0  0  0  0  0  0
   16.2213   -6.2262   -7.3053 O   0  0  0  0  0  0  0  0  0  0  0  0
   15.1969   -4.5961  -11.2319 O   0  0  0  0  0  0  0  0  0  0  0  0
  2  4  1  0
  2  1  1  0
  3  2  2  0
  5  6  1  0
  5  4  1  0
  6  8  1  0
  6  7  1  1
  8 10  1  0
  9  8  2  0
 10 14  1  0
 10 11  1  0
 11 12  1  0
 13 12  1  0
 14 13  1  0
 14 15  1  6
 15 17  1  0
 16 15  2  0
 18 17  1  0
 18 22  1  0
 18 19  1  1
 20 19  1  0
 21 20  2  0
 22 23  2  0
 22 25  1  0
 24 20  1  0
M  END
$$$$
