QPD.pdb
     RDKit          3D

 25 25  0  0  1  0  0  0  0  0999 V2000
   17.8084  -29.2629  -10.7608 N   0  0  0  0  0  0  0  0  0  0  0  0
   18.8836  -28.9872  -11.6403 C   0  0  0  0  0  0  0  0  0  0  0  0
   18.9490  -29.6018  -12.7231 O   0  0  0  0  0  0  0  0  0  0  0  0
   19.9019  -27.9884  -11.2728 C   0  0  0  0  0  0  0  0  0  0  0  0
   19.6881  -27.2906   -9.9811 C   0  0  0  0  0  0  0  0  0  0  0  0
   18.6888  -26.1559  -10.0188 C   0  0  2  0  0  0  0  0  0  0  0  0
   19.0824  -25.1111  -10.8947 N   0  0  0  0  0  0  0  0  0  0  0  0
   18.4304  -25.6906   -8.6496 C   0  0  0  0  0  0  0  0  0  0  0  0
   19.3108  -25.9448   -7.7863 O   0  0  0  0  0  0  0  0  0  0  0  0
   17.2449  -24.9661   -8.2291 N   0  0  0  0  0  0  0  0  0  0  0  0
   16.1750  -24.4891   -9.0417 C   0  0  0  0  0  0  0  0  0  0  0  0
   14.9678  -24.4691   -8.1278 C   0  0  0  0  0  0  0  0  0  0  0  0
   15.6172  -24.0284   -6.8296 C   0  0  0  0  0  0  0  0  0  0  0  0
   16.9886  -24.6147   -6.8540 C   0  0  1  0  0  0  0  0  0  0  0  0
   16.9600  -25.8311   -5.9779 C   0  0  0  0  0  0  0  0  0  0  0  0
   16.4874  -26.8807   -6.4705 O   0  0  0  0  0  0  0  0  0  0  0  0
   17.4279  -25.8495   -4.6588 N   0  0  0  0  0  0  0  0  0  0  0  0
   17.3917  -26.9912   -3.7690 C   0  0  1  0  0  0  0  0  0  0  0  0
   18.4743  -26.8137   -2.7372 C   0  0  0  0  0  0  0  0  0  0  0  0
   18.4907  -27.8678   -1.6991 C   0  0  0  0  0  0  0  0  0  0  0  0
   17.8064  -28.9121   -1.8271 O   0  0  0  0  0  0  0  0  0  0  0  0
   16.0797  -27.1129   -3.0873 C   0  0  0  0  0  0  0  0  0  0  0  0
   15.4430  -26.0713   -2.8204 O   0  0  0  0  0  0  0  0  0  0  0  0
   19.2658  -27.7358   -0.5461 O   0  0  0  0  0  0  0  0  0  0  0  0
   15.5411  -28.3349   -2.7395 O   0  0  0  0  0  0  0  0  0  0  0  0
  2  4  1  0
  2  1  1  0
  3  2  2  0
  5  6  1  0
  5  4  1  0
  6  8  1  0
  6  7  1  6
  8 10  1  0
  9  8  2  0
 10 14  1  0
 10 11  1  0
 11 12  1  0
 13 12  1  0
 14 13  1  0
 14 15  1  1
 15 17  1  0
 16 15  2  0
 18 17  1  0
 18 22  1  0
 18 19  1  1
 20 19  1  0
 21 20  2  0
 22 23  2  0
 22 25  1  0
 24 20  1  0
M  END
$$$$
