QPD.pdb
     RDKit          3D

 25 25  0  0  1  0  0  0  0  0999 V2000
   19.0984  -16.6949  -20.0321 N   0  0  0  0  0  0  0  0  0  0  0  0
   18.4089  -15.8662  -20.9505 C   0  0  0  0  0  0  0  0  0  0  0  0
   17.8452  -16.3918  -21.9305 O   0  0  0  0  0  0  0  0  0  0  0  0
   18.3638  -14.4088  -20.7416 C   0  0  0  0  0  0  0  0  0  0  0  0
   18.9434  -13.9190  -19.4669 C   0  0  0  0  0  0  0  0  0  0  0  0
   20.3475  -14.3972  -19.1710 C   0  0  2  0  0  0  0  0  0  0  0  0
   20.3671  -15.6221  -18.4547 N   0  0  0  0  0  0  0  0  0  0  0  0
   21.0936  -13.3261  -18.4973 C   0  0  0  0  0  0  0  0  0  0  0  0
   20.7630  -13.0607  -17.3119 O   0  0  0  0  0  0  0  0  0  0  0  0
   22.1730  -12.5628  -19.0968 N   0  0  0  0  0  0  0  0  0  0  0  0
   22.6703  -12.6465  -20.4303 C   0  0  0  0  0  0  0  0  0  0  0  0
   23.2270  -11.2701  -20.7279 C   0  0  0  0  0  0  0  0  0  0  0  0
   23.8170  -10.9175  -19.3755 C   0  0  0  0  0  0  0  0  0  0  0  0
   22.9241  -11.5670  -18.3726 C   0  0  1  0  0  0  0  0  0  0  0  0
   22.0257  -10.4969  -17.8288 C   0  0  0  0  0  0  0  0  0  0  0  0
   20.9852  -10.2392  -18.4758 O   0  0  0  0  0  0  0  0  0  0  0  0
   22.2894   -9.7845  -16.6531 N   0  0  0  0  0  0  0  0  0  0  0  0
   21.4660   -8.7255  -16.1082 C   0  0  1  0  0  0  0  0  0  0  0  0
   21.5469   -8.7969  -14.6061 C   0  0  0  0  0  0  0  0  0  0  0  0
   20.7959   -7.7259  -13.9145 C   0  0  0  0  0  0  0  0  0  0  0  0
   20.1236   -6.8863  -14.5612 O   0  0  0  0  0  0  0  0  0  0  0  0
   21.9230   -7.3887  -16.5610 C   0  0  0  0  0  0  0  0  0  0  0  0
   21.1815   -6.4023  -16.3640 O   0  0  0  0  0  0  0  0  0  0  0  0
   20.8104   -7.6145  -12.5234 O   0  0  0  0  0  0  0  0  0  0  0  0
   23.1363   -7.1994  -17.1907 O   0  0  0  0  0  0  0  0  0  0  0  0
  2  4  1  0
  2  1  1  0
  3  2  2  0
  5  6  1  0
  5  4  1  0
  6  8  1  0
  6  7  1  1
  8 10  1  0
  9  8  2  0
 10 14  1  0
 10 11  1  0
 11 12  1  0
 13 12  1  0
 14 13  1  0
 14 15  1  6
 15 17  1  0
 16 15  2  0
 18 17  1  0
 18 22  1  0
 18 19  1  1
 20 19  1  0
 21 20  2  0
 22 23  2  0
 22 25  1  0
 24 20  1  0
M  END
$$$$
