QPD.pdb
     RDKit          3D

 25 25  0  0  1  0  0  0  0  0999 V2000
   21.9197  -21.8571  -11.2046 N   0  0  0  0  0  0  0  0  0  0  0  0
   21.0621  -22.0356  -12.3175 C   0  0  0  0  0  0  0  0  0  0  0  0
   19.8774  -22.3688  -12.1178 O   0  0  0  0  0  0  0  0  0  0  0  0
   21.5712  -21.8277  -13.6839 C   0  0  0  0  0  0  0  0  0  0  0  0
   23.0009  -21.4462  -13.7914 C   0  0  0  0  0  0  0  0  0  0  0  0
   23.3011  -19.9882  -13.5235 C   0  0  2  0  0  0  0  0  0  0  0  0
   22.1667  -19.1552  -13.7053 N   0  0  0  0  0  0  0  0  0  0  0  0
   24.4541  -19.5729  -14.3335 C   0  0  0  0  0  0  0  0  0  0  0  0
   24.2063  -18.9498  -15.3990 O   0  0  0  0  0  0  0  0  0  0  0  0
   25.8421  -19.8277  -13.9934 N   0  0  0  0  0  0  0  0  0  0  0  0
   26.3534  -20.5144  -12.8535 C   0  0  0  0  0  0  0  0  0  0  0  0
   27.6762  -21.0954  -13.3069 C   0  0  0  0  0  0  0  0  0  0  0  0
   28.1702  -19.9774  -14.2054 C   0  0  0  0  0  0  0  0  0  0  0  0
   26.9430  -19.3878  -14.8148 C   0  0  1  0  0  0  0  0  0  0  0  0
   26.8377  -19.9379  -16.2057 C   0  0  0  0  0  0  0  0  0  0  0  0
   26.4891  -21.1347  -16.3234 O   0  0  0  0  0  0  0  0  0  0  0  0
   27.1056  -19.1910  -17.3588 N   0  0  0  0  0  0  0  0  0  0  0  0
   26.9363  -19.6548  -18.7200 C   0  0  1  0  0  0  0  0  0  0  0  0
   25.8993  -18.7873  -19.3834 C   0  0  0  0  0  0  0  0  0  0  0  0
   24.5232  -19.0158  -18.8903 C   0  0  0  0  0  0  0  0  0  0  0  0
   24.2260  -20.0622  -18.2643 O   0  0  0  0  0  0  0  0  0  0  0  0
   28.2041  -19.5771  -19.4866 C   0  0  0  0  0  0  0  0  0  0  0  0
   28.9006  -18.5440  -19.3917 O   0  0  0  0  0  0  0  0  0  0  0  0
   23.5126  -18.0775  -19.1047 O   0  0  0  0  0  0  0  0  0  0  0  0
   28.6378  -20.6053  -20.2985 O   0  0  0  0  0  0  0  0  0  0  0  0
  2  4  1  0
  2  1  1  0
  3  2  2  0
  5  6  1  0
  5  4  1  0
  6  8  1  0
  6  7  1  6
  8 10  1  0
  9  8  2  0
 10 14  1  0
 10 11  1  0
 11 12  1  0
 13 12  1  0
 14 13  1  0
 14 15  1  6
 15 17  1  0
 16 15  2  0
 18 17  1  0
 18 22  1  0
 18 19  1  6
 20 19  1  0
 21 20  2  0
 22 23  2  0
 22 25  1  0
 24 20  1  0
M  END
$$$$
