QPD.pdb
     RDKit          3D

 25 25  0  0  1  0  0  0  0  0999 V2000
   12.6921  -25.4452    5.3219 N   0  0  0  0  0  0  0  0  0  0  0  0
   13.6950  -26.4320    5.1603 C   0  0  0  0  0  0  0  0  0  0  0  0
   13.9049  -27.2356    6.0901 O   0  0  0  0  0  0  0  0  0  0  0  0
   14.4708  -26.4997    3.9101 C   0  0  0  0  0  0  0  0  0  0  0  0
   15.3147  -25.3179    3.6066 C   0  0  0  0  0  0  0  0  0  0  0  0
   16.1490  -25.4269    2.3498 C   0  0  2  0  0  0  0  0  0  0  0  0
   15.3710  -25.7336    1.2033 N   0  0  0  0  0  0  0  0  0  0  0  0
   17.2425  -26.3819    2.5740 C   0  0  0  0  0  0  0  0  0  0  0  0
   17.0021  -27.5918    2.3221 O   0  0  0  0  0  0  0  0  0  0  0  0
   18.5648  -26.0307    3.0589 N   0  0  0  0  0  0  0  0  0  0  0  0
   19.0265  -24.7562    3.5004 C   0  0  0  0  0  0  0  0  0  0  0  0
   20.1263  -25.0610    4.4956 C   0  0  0  0  0  0  0  0  0  0  0  0
   20.7615  -26.2707    3.8363 C   0  0  0  0  0  0  0  0  0  0  0  0
   19.6418  -26.9849    3.1571 C   0  0  1  0  0  0  0  0  0  0  0  0
   19.2655  -28.1418    4.0334 C   0  0  0  0  0  0  0  0  0  0  0  0
   18.3613  -27.9502    4.8781 O   0  0  0  0  0  0  0  0  0  0  0  0
   19.8657  -29.4039    3.9541 N   0  0  0  0  0  0  0  0  0  0  0  0
   19.5195  -30.5527    4.7645 C   0  0  1  0  0  0  0  0  0  0  0  0
   19.3895  -31.7448    3.8534 C   0  0  0  0  0  0  0  0  0  0  0  0
   20.6307  -32.0751    3.1188 C   0  0  0  0  0  0  0  0  0  0  0  0
   21.1596  -31.2472    2.3378 O   0  0  0  0  0  0  0  0  0  0  0  0
   20.5538  -30.8305    5.7911 C   0  0  0  0  0  0  0  0  0  0  0  0
   21.6196  -30.1788    5.7611 O   0  0  0  0  0  0  0  0  0  0  0  0
   21.2526  -33.3153    3.2699 O   0  0  0  0  0  0  0  0  0  0  0  0
   20.3780  -31.7821    6.7750 O   0  0  0  0  0  0  0  0  0  0  0  0
  2  4  1  0
  2  1  1  0
  3  2  2  0
  5  6  1  0
  5  4  1  0
  6  8  1  0
  6  7  1  6
  8 10  1  0
  9  8  2  0
 10 14  1  0
 10 11  1  0
 11 12  1  0
 13 12  1  0
 14 13  1  0
 14 15  1  1
 15 17  1  0
 16 15  2  0
 18 17  1  0
 18 22  1  0
 18 19  1  6
 20 19  1  0
 21 20  2  0
 22 23  2  0
 22 25  1  0
 24 20  1  0
M  END
$$$$
