QPD.pdb
     RDKit          3D

 25 25  0  0  1  0  0  0  0  0999 V2000
   16.2633   -9.4522  -17.1353 N   0  0  0  0  0  0  0  0  0  0  0  0
   17.4294   -9.6386  -17.9171 C   0  0  0  0  0  0  0  0  0  0  0  0
   17.3263  -10.1889  -19.0311 O   0  0  0  0  0  0  0  0  0  0  0  0
   18.7373   -9.1853  -17.4135 C   0  0  0  0  0  0  0  0  0  0  0  0
   18.7177   -8.4641  -16.1172 C   0  0  0  0  0  0  0  0  0  0  0  0
   19.7353   -8.9346  -15.1020 C   0  0  2  0  0  0  0  0  0  0  0  0
   19.5762  -10.3037  -14.7641 N   0  0  0  0  0  0  0  0  0  0  0  0
   19.7009   -8.0467  -13.9323 C   0  0  0  0  0  0  0  0  0  0  0  0
   18.7634   -8.2237  -13.1107 O   0  0  0  0  0  0  0  0  0  0  0  0
   20.6619   -6.9931  -13.6615 N   0  0  0  0  0  0  0  0  0  0  0  0
   21.8095   -6.6353  -14.4280 C   0  0  0  0  0  0  0  0  0  0  0  0
   22.0200   -5.1611  -14.1534 C   0  0  0  0  0  0  0  0  0  0  0  0
   21.6399   -5.1012  -12.6860 C   0  0  0  0  0  0  0  0  0  0  0  0
   20.5713   -6.1272  -12.5116 C   0  0  1  0  0  0  0  0  0  0  0  0
   19.2629   -5.3956  -12.4833 C   0  0  0  0  0  0  0  0  0  0  0  0
   18.7209   -5.1483  -13.5846 O   0  0  0  0  0  0  0  0  0  0  0  0
   18.6290   -4.9828  -11.3055 N   0  0  0  0  0  0  0  0  0  0  0  0
   17.3392   -4.3293  -11.2287 C   0  0  1  0  0  0  0  0  0  0  0  0
   16.3347   -5.3356  -10.7322 C   0  0  0  0  0  0  0  0  0  0  0  0
   14.9738   -4.7839  -10.5513 C   0  0  0  0  0  0  0  0  0  0  0  0
   14.6191   -3.7324  -11.1375 O   0  0  0  0  0  0  0  0  0  0  0  0
   17.3677   -3.1684  -10.3055 C   0  0  0  0  0  0  0  0  0  0  0  0
   18.1708   -3.1821   -9.3483 O   0  0  0  0  0  0  0  0  0  0  0  0
   14.0419   -5.4133   -9.7248 O   0  0  0  0  0  0  0  0  0  0  0  0
   16.5389   -2.0771  -10.4690 O   0  0  0  0  0  0  0  0  0  0  0  0
  2  4  1  0
  2  1  1  0
  3  2  2  0
  5  6  1  0
  5  4  1  0
  6  8  1  0
  6  7  1  1
  8 10  1  0
  9  8  2  0
 10 14  1  0
 10 11  1  0
 11 12  1  0
 13 12  1  0
 14 13  1  0
 14 15  1  6
 15 17  1  0
 16 15  2  0
 18 17  1  0
 18 22  1  0
 18 19  1  1
 20 19  1  0
 21 20  2  0
 22 23  2  0
 22 25  1  0
 24 20  1  0
M  END
$$$$
