QPD.pdb
     RDKit          3D

 25 25  0  0  1  0  0  0  0  0999 V2000
   23.6287  -21.8616  -14.2968 N   0  0  0  0  0  0  0  0  0  0  0  0
   24.1006  -23.0740  -13.7374 C   0  0  0  0  0  0  0  0  0  0  0  0
   23.2965  -24.0110  -13.5647 O   0  0  0  0  0  0  0  0  0  0  0  0
   25.5199  -23.2156  -13.3699 C   0  0  0  0  0  0  0  0  0  0  0  0
   26.3992  -22.0765  -13.7309 C   0  0  0  0  0  0  0  0  0  0  0  0
   26.5012  -20.9850  -12.6888 C   0  0  2  0  0  0  0  0  0  0  0  0
   26.0577  -21.4091  -11.4093 N   0  0  0  0  0  0  0  0  0  0  0  0
   25.8018  -19.7864  -13.1708 C   0  0  0  0  0  0  0  0  0  0  0  0
   24.6096  -19.6338  -12.7961 O   0  0  0  0  0  0  0  0  0  0  0  0
   26.3839  -18.7782  -14.0377 N   0  0  0  0  0  0  0  0  0  0  0  0
   27.7242  -18.7030  -14.5178 C   0  0  0  0  0  0  0  0  0  0  0  0
   27.6270  -17.9665  -15.8373 C   0  0  0  0  0  0  0  0  0  0  0  0
   26.5400  -16.9609  -15.5076 C   0  0  0  0  0  0  0  0  0  0  0  0
   25.6338  -17.6575  -14.5491 C   0  0  1  0  0  0  0  0  0  0  0  0
   24.4383  -18.1141  -15.3305 C   0  0  0  0  0  0  0  0  0  0  0  0
   24.5138  -19.2303  -15.8928 O   0  0  0  0  0  0  0  0  0  0  0  0
   23.2624  -17.3659  -15.4593 N   0  0  0  0  0  0  0  0  0  0  0  0
   22.0032  -17.8596  -15.9761 C   0  0  1  0  0  0  0  0  0  0  0  0
   21.1053  -18.1640  -14.8059 C   0  0  0  0  0  0  0  0  0  0  0  0
   19.7885  -18.7186  -15.1899 C   0  0  0  0  0  0  0  0  0  0  0  0
   18.8524  -17.9673  -15.5564 O   0  0  0  0  0  0  0  0  0  0  0  0
   21.3431  -16.8629  -16.8545 C   0  0  0  0  0  0  0  0  0  0  0  0
   21.5905  -15.6507  -16.6787 O   0  0  0  0  0  0  0  0  0  0  0  0
   19.5448  -20.0924  -15.1574 O   0  0  0  0  0  0  0  0  0  0  0  0
   20.4676  -17.2294  -17.8563 O   0  0  0  0  0  0  0  0  0  0  0  0
  2  4  1  0
  2  1  1  0
  3  2  2  0
  5  6  1  0
  5  4  1  0
  6  8  1  0
  6  7  1  1
  8 10  1  0
  9  8  2  0
 10 14  1  0
 10 11  1  0
 11 12  1  0
 13 12  1  0
 14 13  1  0
 14 15  1  6
 15 17  1  0
 16 15  2  0
 18 17  1  0
 18 22  1  0
 18 19  1  1
 20 19  1  0
 21 20  2  0
 22 23  2  0
 22 25  1  0
 24 20  1  0
M  END
$$$$
