QPD.pdb
     RDKit          3D

 25 25  0  0  1  0  0  0  0  0999 V2000
   21.4242  -11.4883  -19.0203 N   0  0  0  0  0  0  0  0  0  0  0  0
   21.1494  -12.8603  -19.2391 C   0  0  0  0  0  0  0  0  0  0  0  0
   19.9935  -13.1994  -19.5608 O   0  0  0  0  0  0  0  0  0  0  0  0
   22.2188  -13.8618  -19.0875 C   0  0  0  0  0  0  0  0  0  0  0  0
   23.5590  -13.3304  -18.7375 C   0  0  0  0  0  0  0  0  0  0  0  0
   24.0380  -13.6582  -17.3408 C   0  0  2  0  0  0  0  0  0  0  0  0
   23.4251  -14.8244  -16.8134 N   0  0  0  0  0  0  0  0  0  0  0  0
   23.8670  -12.4803  -16.4798 C   0  0  0  0  0  0  0  0  0  0  0  0
   22.6989  -12.2305  -16.0822 O   0  0  0  0  0  0  0  0  0  0  0  0
   24.9392  -11.5963  -16.0604 N   0  0  0  0  0  0  0  0  0  0  0  0
   26.3343  -11.7238  -16.3246 C   0  0  0  0  0  0  0  0  0  0  0  0
   26.8669  -10.3063  -16.3109 C   0  0  0  0  0  0  0  0  0  0  0  0
   26.0292   -9.7123  -15.1943 C   0  0  0  0  0  0  0  0  0  0  0  0
   24.7126  -10.4089  -15.2736 C   0  0  1  0  0  0  0  0  0  0  0  0
   23.7636   -9.4736  -15.9612 C   0  0  0  0  0  0  0  0  0  0  0  0
   23.7174   -9.5215  -17.2115 O   0  0  0  0  0  0  0  0  0  0  0  0
   22.9412   -8.5653  -15.2846 N   0  0  0  0  0  0  0  0  0  0  0  0
   22.0059   -7.6518  -15.9069 C   0  0  1  0  0  0  0  0  0  0  0  0
   20.6114   -8.1342  -15.6056 C   0  0  0  0  0  0  0  0  0  0  0  0
   19.5461   -7.2696  -16.1595 C   0  0  0  0  0  0  0  0  0  0  0  0
   18.9357   -6.4490  -15.4321 O   0  0  0  0  0  0  0  0  0  0  0  0
   22.1679   -6.2690  -15.3947 C   0  0  0  0  0  0  0  0  0  0  0  0
   22.6637   -6.1034  -14.2597 O   0  0  0  0  0  0  0  0  0  0  0  0
   19.1858   -7.3380  -17.5061 O   0  0  0  0  0  0  0  0  0  0  0  0
   21.7901   -5.1629  -16.1285 O   0  0  0  0  0  0  0  0  0  0  0  0
  2  4  1  0
  2  1  1  0
  3  2  2  0
  5  6  1  0
  5  4  1  0
  6  8  1  0
  6  7  1  1
  8 10  1  0
  9  8  2  0
 10 14  1  0
 10 11  1  0
 11 12  1  0
 13 12  1  0
 14 13  1  0
 14 15  1  6
 15 17  1  0
 16 15  2  0
 18 17  1  0
 18 22  1  0
 18 19  1  1
 20 19  1  0
 21 20  2  0
 22 23  2  0
 22 25  1  0
 24 20  1  0
M  END
$$$$
