QPD.pdb
     RDKit          3D

 25 25  0  0  1  0  0  0  0  0999 V2000
   22.8624  -17.5613  -15.3344 N   0  0  0  0  0  0  0  0  0  0  0  0
   23.0156  -17.7572  -16.7286 C   0  0  0  0  0  0  0  0  0  0  0  0
   22.7676  -18.8802  -17.2100 O   0  0  0  0  0  0  0  0  0  0  0  0
   23.4604  -16.6458  -17.5868 C   0  0  0  0  0  0  0  0  0  0  0  0
   23.5149  -15.3110  -16.9416 C   0  0  0  0  0  0  0  0  0  0  0  0
   24.7566  -15.0416  -16.1211 C   0  0  2  0  0  0  0  0  0  0  0  0
   25.0301  -16.0764  -15.1893 N   0  0  0  0  0  0  0  0  0  0  0  0
   24.6463  -13.7180  -15.4933 C   0  0  0  0  0  0  0  0  0  0  0  0
   23.5699  -13.4607  -14.8931 O   0  0  0  0  0  0  0  0  0  0  0  0
   25.6805  -12.6998  -15.5164 N   0  0  0  0  0  0  0  0  0  0  0  0
   26.9864  -12.7895  -16.0813 C   0  0  0  0  0  0  0  0  0  0  0  0
   27.3482  -11.3685  -16.4593 C   0  0  0  0  0  0  0  0  0  0  0  0
   26.7213  -10.6120  -15.3035 C   0  0  0  0  0  0  0  0  0  0  0  0
   25.5057  -11.3927  -14.9323 C   0  0  1  0  0  0  0  0  0  0  0  0
   24.3293  -10.6819  -15.5315 C   0  0  0  0  0  0  0  0  0  0  0  0
   24.0025  -10.9982  -16.6981 O   0  0  0  0  0  0  0  0  0  0  0  0
   23.5917   -9.6990  -14.8613 N   0  0  0  0  0  0  0  0  0  0  0  0
   22.3340   -9.1389  -15.3096 C   0  0  1  0  0  0  0  0  0  0  0  0
   21.3428  -10.2648  -15.4439 C   0  0  0  0  0  0  0  0  0  0  0  0
   20.0103   -9.8354  -15.9226 C   0  0  0  0  0  0  0  0  0  0  0  0
   19.7766   -8.6319  -16.1912 O   0  0  0  0  0  0  0  0  0  0  0  0
   21.8092   -8.1351  -14.3516 C   0  0  0  0  0  0  0  0  0  0  0  0
   20.8397   -7.4260  -14.6961 O   0  0  0  0  0  0  0  0  0  0  0  0
   18.9719  -10.7525  -16.0909 O   0  0  0  0  0  0  0  0  0  0  0  0
   22.3550   -7.9595  -13.0963 O   0  0  0  0  0  0  0  0  0  0  0  0
  2  4  1  0
  2  1  1  0
  3  2  2  0
  5  6  1  0
  5  4  1  0
  6  8  1  0
  6  7  1  1
  8 10  1  0
  9  8  2  0
 10 14  1  0
 10 11  1  0
 11 12  1  0
 13 12  1  0
 14 13  1  0
 14 15  1  6
 15 17  1  0
 16 15  2  0
 18 17  1  0
 18 22  1  0
 18 19  1  1
 20 19  1  0
 21 20  2  0
 22 23  2  0
 22 25  1  0
 24 20  1  0
M  END
$$$$
