KTC.pdb
     RDKit          3D

 23 22  0  0  1  0  0  0  0  0999 V2000
   18.4652  -15.0122  -19.3256 N   0  0  0  0  0  0  0  0  0  0  0  0
   17.7185  -13.9430  -18.6167 C   0  0  1  0  0  0  0  0  0  0  0  0
   17.4300  -14.5114  -17.2537 C   0  0  0  0  0  0  0  0  0  0  0  0
   16.9104  -15.8941  -17.2072 C   0  0  0  0  0  0  0  0  0  0  0  0
   16.6339  -16.4276  -15.8295 C   0  0  0  0  0  0  0  0  0  0  0  0
   15.1786  -16.2819  -15.4393 C   0  0  0  0  0  0  0  0  0  0  0  0
   15.0058  -16.7475  -14.0757 N   0  0  0  0  0  0  0  0  0  0  0  0
   18.6969  -12.8003  -18.5115 C   0  0  0  0  0  0  0  0  0  0  0  0
   19.8999  -13.0714  -18.6339 O   0  0  0  0  0  0  0  0  0  0  0  0
   18.9176   -9.9956  -20.7453 C   0  0  0  0  0  0  0  0  0  0  0  0
   18.8466   -9.3574  -19.3727 C   0  0  1  0  0  0  0  0  0  0  0  0
   17.6091   -8.7565  -19.2804 O   0  0  0  0  0  0  0  0  0  0  0  0
   19.1654  -10.3010  -18.2737 C   0  0  2  0  0  0  0  0  0  0  0  0
   18.2974  -11.4651  -18.2859 N   0  0  0  0  0  0  0  0  0  0  0  0
   19.3518   -9.7136  -16.9309 C   0  0  0  0  0  0  0  0  0  0  0  0
   18.5136   -9.8748  -15.9974 O   0  0  0  0  0  0  0  0  0  0  0  0
   20.4940   -8.9421  -16.6423 N   0  0  0  0  0  0  0  0  0  0  0  0
   20.6485   -8.2566  -15.3462 C   0  0  1  0  0  0  0  0  0  0  0  0
   21.9326   -8.8022  -14.7364 C   0  0  0  0  0  0  0  0  0  0  0  0
   22.2427   -7.9106  -13.1908 S   0  0  0  0  0  0  0  0  0  0  0  0
   20.8962   -6.8178  -15.6485 C   0  0  0  0  0  0  0  0  0  0  0  0
   20.4374   -5.8108  -14.7862 O   0  0  0  0  0  0  0  0  0  0  0  0
   21.5128   -6.4467  -16.6651 O   0  0  0  0  0  0  0  0  0  0  0  0
  2  8  1  0
  2  1  1  6
  3  2  1  0
  4  3  1  0
  5  6  1  0
  5  4  1  0
  6  7  1  0
  8 14  1  0
  9  8  2  0
 11 10  1  6
 11 13  1  0
 12 11  1  0
 13 14  1  1
 15 13  1  0
 16 15  2  0
 17 15  1  0
 18 17  1  0
 18 21  1  0
 18 19  1  6
 20 19  1  0
 21 22  1  0
 23 21  2  0
M  END
$$$$
