KTC.pdb
     RDKit          3D

 23 22  0  0  1  0  0  0  0  0999 V2000
   28.4004  -22.9879  -18.2332 N   0  0  0  0  0  0  0  0  0  0  0  0
   27.6922  -23.6695  -17.1208 C   0  0  1  0  0  0  0  0  0  0  0  0
   28.7783  -24.3418  -16.3255 C   0  0  0  0  0  0  0  0  0  0  0  0
   29.2483  -25.6529  -16.8194 C   0  0  0  0  0  0  0  0  0  0  0  0
   28.3496  -26.8154  -16.5030 C   0  0  0  0  0  0  0  0  0  0  0  0
   28.9031  -28.1258  -17.0206 C   0  0  0  0  0  0  0  0  0  0  0  0
   27.9315  -29.1769  -16.7813 N   0  0  0  0  0  0  0  0  0  0  0  0
   27.0730  -22.5508  -16.3211 C   0  0  0  0  0  0  0  0  0  0  0  0
   27.7626  -21.5381  -16.1355 O   0  0  0  0  0  0  0  0  0  0  0  0
   26.4596  -19.9144  -16.4404 C   0  0  0  0  0  0  0  0  0  0  0  0
   25.0675  -20.2926  -15.9765 C   0  0  1  0  0  0  0  0  0  0  0  0
   24.2715  -20.3246  -17.1018 O   0  0  0  0  0  0  0  0  0  0  0  0
   25.0414  -21.5296  -15.1585 C   0  0  2  0  0  0  0  0  0  0  0  0
   25.7659  -22.6171  -15.7919 N   0  0  0  0  0  0  0  0  0  0  0  0
   23.7303  -21.9310  -14.6082 C   0  0  0  0  0  0  0  0  0  0  0  0
   23.0590  -22.8907  -15.0858 O   0  0  0  0  0  0  0  0  0  0  0  0
   23.1775  -21.2444  -13.5099 N   0  0  0  0  0  0  0  0  0  0  0  0
   21.8493  -21.5965  -12.9755 C   0  0  1  0  0  0  0  0  0  0  0  0
   21.6730  -20.7624  -11.7139 C   0  0  0  0  0  0  0  0  0  0  0  0
   21.7860  -19.0151  -12.1762 S   0  0  0  0  0  0  0  0  0  0  0  0
   20.8453  -21.1007  -13.9599 C   0  0  0  0  0  0  0  0  0  0  0  0
   19.5288  -21.5851  -13.9527 O   0  0  0  0  0  0  0  0  0  0  0  0
   21.1229  -20.2458  -14.8223 O   0  0  0  0  0  0  0  0  0  0  0  0
  2  8  1  0
  2  1  1  6
  3  2  1  0
  4  3  1  0
  5  6  1  0
  5  4  1  0
  6  7  1  0
  8 14  1  0
  9  8  2  0
 11 10  1  6
 11 13  1  0
 12 11  1  0
 13 14  1  6
 15 13  1  0
 16 15  2  0
 17 15  1  0
 18 17  1  0
 18 21  1  0
 18 19  1  1
 20 19  1  0
 21 22  1  0
 23 21  2  0
M  END
$$$$
