KTC.pdb
     RDKit          3D

 23 22  0  0  1  0  0  0  0  0999 V2000
   17.1097  -12.7472  -15.9216 N   0  0  0  0  0  0  0  0  0  0  0  0
   18.5514  -12.4193  -16.0526 C   0  0  1  0  0  0  0  0  0  0  0  0
   18.9967  -13.1269  -17.3037 C   0  0  0  0  0  0  0  0  0  0  0  0
   18.9683  -14.6041  -17.2770 C   0  0  0  0  0  0  0  0  0  0  0  0
   19.4075  -15.2756  -18.5480 C   0  0  0  0  0  0  0  0  0  0  0  0
   19.4959  -16.7795  -18.4014 C   0  0  0  0  0  0  0  0  0  0  0  0
   20.5730  -17.1027  -17.4841 N   0  0  0  0  0  0  0  0  0  0  0  0
   18.5856  -10.9253  -16.2552 C   0  0  0  0  0  0  0  0  0  0  0  0
   18.1935  -10.4926  -17.3483 O   0  0  0  0  0  0  0  0  0  0  0  0
   16.6615   -8.3768  -15.7836 C   0  0  0  0  0  0  0  0  0  0  0  0
   17.8662   -7.9089  -14.9923 C   0  0  1  0  0  0  0  0  0  0  0  0
   17.5383   -8.0402  -13.6596 O   0  0  0  0  0  0  0  0  0  0  0  0
   19.1251   -8.5822  -15.3943 C   0  0  2  0  0  0  0  0  0  0  0  0
   19.0365  -10.0259  -15.2648 N   0  0  0  0  0  0  0  0  0  0  0  0
   20.3793   -8.0141  -14.8582 C   0  0  0  0  0  0  0  0  0  0  0  0
   21.0776   -8.6113  -13.9889 O   0  0  0  0  0  0  0  0  0  0  0  0
   20.8468   -6.7651  -15.3103 N   0  0  0  0  0  0  0  0  0  0  0  0
   22.1140   -6.1963  -14.8158 C   0  0  1  0  0  0  0  0  0  0  0  0
   22.7092   -5.4244  -15.9857 C   0  0  0  0  0  0  0  0  0  0  0  0
   24.1331   -4.4879  -15.3735 S   0  0  0  0  0  0  0  0  0  0  0  0
   21.7557   -5.1888  -13.7769 C   0  0  0  0  0  0  0  0  0  0  0  0
   22.6013   -4.9491  -12.6834 O   0  0  0  0  0  0  0  0  0  0  0  0
   20.7048   -4.5221  -13.8290 O   0  0  0  0  0  0  0  0  0  0  0  0
  2  8  1  0
  2  1  1  6
  3  2  1  0
  4  3  1  0
  5  6  1  0
  5  4  1  0
  6  7  1  0
  8 14  1  0
  9  8  2  0
 11 10  1  6
 11 13  1  0
 12 11  1  0
 13 14  1  1
 15 13  1  0
 16 15  2  0
 17 15  1  0
 18 17  1  0
 18 21  1  0
 18 19  1  6
 20 19  1  0
 21 22  1  0
 23 21  2  0
M  END
$$$$
