KTC.pdb
     RDKit          3D

 23 22  0  0  1  0  0  0  0  0999 V2000
   19.5916  -12.1809  -15.6172 N   0  0  0  0  0  0  0  0  0  0  0  0
   20.2368  -11.8160  -16.9033 C   0  0  1  0  0  0  0  0  0  0  0  0
   19.4341  -12.5322  -17.9554 C   0  0  0  0  0  0  0  0  0  0  0  0
   19.6295  -13.9932  -18.0597 C   0  0  0  0  0  0  0  0  0  0  0  0
   19.0827  -14.7953  -16.9121 C   0  0  0  0  0  0  0  0  0  0  0  0
   19.3662  -16.2748  -17.0598 C   0  0  0  0  0  0  0  0  0  0  0  0
   18.9437  -16.9601  -15.8523 N   0  0  0  0  0  0  0  0  0  0  0  0
   20.0405  -10.3253  -17.0187 C   0  0  0  0  0  0  0  0  0  0  0  0
   20.4560   -9.7772  -18.0495 O   0  0  0  0  0  0  0  0  0  0  0  0
   17.0050   -8.5065  -17.4032 C   0  0  0  0  0  0  0  0  0  0  0  0
   17.6457   -7.8870  -16.1776 C   0  0  1  0  0  0  0  0  0  0  0  0
   16.9196   -8.3230  -15.0896 O   0  0  0  0  0  0  0  0  0  0  0  0
   19.1054   -8.1361  -16.0938 C   0  0  2  0  0  0  0  0  0  0  0  0
   19.4129   -9.5533  -16.0170 N   0  0  0  0  0  0  0  0  0  0  0  0
   19.8628   -7.3114  -15.1299 C   0  0  0  0  0  0  0  0  0  0  0  0
   20.5180   -7.8160  -14.1728 O   0  0  0  0  0  0  0  0  0  0  0  0
   19.8810   -5.9085  -15.2515 N   0  0  0  0  0  0  0  0  0  0  0  0
   20.6444   -5.0675  -14.3114 C   0  0  1  0  0  0  0  0  0  0  0  0
   22.1130   -5.3535  -14.5943 C   0  0  0  0  0  0  0  0  0  0  0  0
   23.1088   -4.2433  -13.5669 S   0  0  0  0  0  0  0  0  0  0  0  0
   20.4006   -3.6510  -14.7075 C   0  0  0  0  0  0  0  0  0  0  0  0
   20.2614   -2.6456  -13.7390 O   0  0  0  0  0  0  0  0  0  0  0  0
   20.3101   -3.2978  -15.8985 O   0  0  0  0  0  0  0  0  0  0  0  0
  2  8  1  0
  2  1  1  1
  3  2  1  0
  4  3  1  0
  5  6  1  0
  5  4  1  0
  6  7  1  0
  8 14  1  0
  9  8  2  0
 11 10  1  6
 11 13  1  0
 12 11  1  0
 13 14  1  1
 15 13  1  0
 16 15  2  0
 17 15  1  0
 18 17  1  0
 18 21  1  0
 18 19  1  6
 20 19  1  0
 21 22  1  0
 23 21  2  0
M  END
$$$$
