KTC.pdb
     RDKit          3D

 23 22  0  0  1  0  0  0  0  0999 V2000
   13.3860   -9.2071   -9.9811 N   0  0  0  0  0  0  0  0  0  0  0  0
   14.8370   -9.5201   -9.9910 C   0  0  1  0  0  0  0  0  0  0  0  0
   14.9997  -10.5652  -11.0613 C   0  0  0  0  0  0  0  0  0  0  0  0
   14.5394  -11.9302  -10.7320 C   0  0  0  0  0  0  0  0  0  0  0  0
   14.8119  -12.9685  -11.7841 C   0  0  0  0  0  0  0  0  0  0  0  0
   14.3150  -14.3398  -11.3791 C   0  0  0  0  0  0  0  0  0  0  0  0
   14.6978  -15.3010  -12.3967 N   0  0  0  0  0  0  0  0  0  0  0  0
   15.5017   -8.2329  -10.4101 C   0  0  0  0  0  0  0  0  0  0  0  0
   14.9210   -7.5471  -11.2634 O   0  0  0  0  0  0  0  0  0  0  0  0
   15.6491   -5.1638   -9.0539 C   0  0  0  0  0  0  0  0  0  0  0  0
   17.1228   -5.4955   -9.1735 C   0  0  1  0  0  0  0  0  0  0  0  0
   17.5674   -5.7824   -7.9004 O   0  0  0  0  0  0  0  0  0  0  0  0
   17.4043   -6.5443  -10.1838 C   0  0  2  0  0  0  0  0  0  0  0  0
   16.7318   -7.7936   -9.8742 N   0  0  0  0  0  0  0  0  0  0  0  0
   18.8160   -6.7139  -10.5854 C   0  0  0  0  0  0  0  0  0  0  0  0
   19.6163   -7.4617   -9.9528 O   0  0  0  0  0  0  0  0  0  0  0  0
   19.3237   -6.0357  -11.7103 N   0  0  0  0  0  0  0  0  0  0  0  0
   20.7450   -6.1365  -12.0891 C   0  0  1  0  0  0  0  0  0  0  0  0
   20.8516   -7.3628  -12.9855 C   0  0  0  0  0  0  0  0  0  0  0  0
   19.3937   -7.4014  -14.0592 S   0  0  0  0  0  0  0  0  0  0  0  0
   21.0460   -4.9536  -12.9452 C   0  0  0  0  0  0  0  0  0  0  0  0
   22.3374   -4.7387  -13.4495 O   0  0  0  0  0  0  0  0  0  0  0  0
   20.1789   -4.1124  -13.2489 O   0  0  0  0  0  0  0  0  0  0  0  0
  2  8  1  0
  2  1  1  6
  3  2  1  0
  4  3  1  0
  5  6  1  0
  5  4  1  0
  6  7  1  0
  8 14  1  0
  9  8  2  0
 11 10  1  1
 11 13  1  0
 12 11  1  0
 13 14  1  1
 15 13  1  0
 16 15  2  0
 17 15  1  0
 18 17  1  0
 18 21  1  0
 18 19  1  6
 20 19  1  0
 21 22  1  0
 23 21  2  0
M  END
$$$$
