KTC.pdb
     RDKit          3D

 23 22  0  0  1  0  0  0  0  0999 V2000
   17.9405  -12.3445  -17.0264 N   0  0  0  0  0  0  0  0  0  0  0  0
   19.3607  -12.3620  -16.5950 C   0  0  1  0  0  0  0  0  0  0  0  0
   20.0226  -13.3787  -17.4852 C   0  0  0  0  0  0  0  0  0  0  0  0
   19.5803  -14.7807  -17.3353 C   0  0  0  0  0  0  0  0  0  0  0  0
   19.6636  -15.3321  -15.9395 C   0  0  0  0  0  0  0  0  0  0  0  0
   19.1289  -16.7452  -15.8481 C   0  0  0  0  0  0  0  0  0  0  0  0
   19.2864  -17.2233  -14.4870 N   0  0  0  0  0  0  0  0  0  0  0  0
   19.8717  -10.9784  -16.9094 C   0  0  0  0  0  0  0  0  0  0  0  0
   20.9493  -10.8967  -17.5159 O   0  0  0  0  0  0  0  0  0  0  0  0
   18.7572   -8.6049  -19.2037 C   0  0  0  0  0  0  0  0  0  0  0  0
   18.7404   -7.8293  -17.9019 C   0  0  1  0  0  0  0  0  0  0  0  0
   17.4154   -7.6619  -17.5593 O   0  0  0  0  0  0  0  0  0  0  0  0
   19.5849   -8.4415  -16.8475 C   0  0  2  0  0  0  0  0  0  0  0  0
   19.1792   -9.8029  -16.5464 N   0  0  0  0  0  0  0  0  0  0  0  0
   19.8430   -7.6198  -15.6470 C   0  0  0  0  0  0  0  0  0  0  0  0
   19.2368   -7.8078  -14.5529 O   0  0  0  0  0  0  0  0  0  0  0  0
   20.7942   -6.5820  -15.6842 N   0  0  0  0  0  0  0  0  0  0  0  0
   21.0405   -5.7256  -14.5096 C   0  0  1  0  0  0  0  0  0  0  0  0
   22.5414   -5.7829  -14.2593 C   0  0  0  0  0  0  0  0  0  0  0  0
   22.9364   -4.6010  -12.9452 S   0  0  0  0  0  0  0  0  0  0  0  0
   20.7292   -4.3279  -14.9247 C   0  0  0  0  0  0  0  0  0  0  0  0
   20.3661   -3.3587  -13.9776 O   0  0  0  0  0  0  0  0  0  0  0  0
   20.7758   -3.9593  -16.1136 O   0  0  0  0  0  0  0  0  0  0  0  0
  2  8  1  0
  2  1  1  6
  3  2  1  0
  4  3  1  0
  5  6  1  0
  5  4  1  0
  6  7  1  0
  8 14  1  0
  9  8  2  0
 11 10  1  6
 11 13  1  0
 12 11  1  0
 13 14  1  1
 15 13  1  0
 16 15  2  0
 17 15  1  0
 18 17  1  0
 18 21  1  0
 18 19  1  6
 20 19  1  0
 21 22  1  0
 23 21  2  0
M  END
$$$$
