KTC.pdb
     RDKit          3D

 23 22  0  0  1  0  0  0  0  0999 V2000
   18.8730  -13.0922  -18.1191 N   0  0  0  0  0  0  0  0  0  0  0  0
   18.8254  -12.4710  -16.7718 C   0  0  1  0  0  0  0  0  0  0  0  0
   19.8785  -13.1930  -15.9758 C   0  0  0  0  0  0  0  0  0  0  0  0
   19.6256  -14.6183  -15.6787 C   0  0  0  0  0  0  0  0  0  0  0  0
   20.5928  -15.5837  -16.3046 C   0  0  0  0  0  0  0  0  0  0  0  0
   20.3493  -17.0097  -15.8589 C   0  0  0  0  0  0  0  0  0  0  0  0
   20.8473  -17.1737  -14.5057 N   0  0  0  0  0  0  0  0  0  0  0  0
   19.2317  -11.0366  -16.9990 C   0  0  0  0  0  0  0  0  0  0  0  0
   20.0677  -10.8184  -17.8874 O   0  0  0  0  0  0  0  0  0  0  0  0
   17.5331   -8.4185  -18.4984 C   0  0  0  0  0  0  0  0  0  0  0  0
   17.8578   -7.8537  -17.1302 C   0  0  1  0  0  0  0  0  0  0  0  0
   16.6777   -7.8435  -16.4173 O   0  0  0  0  0  0  0  0  0  0  0  0
   18.9836   -8.5519  -16.4634 C   0  0  2  0  0  0  0  0  0  0  0  0
   18.7029   -9.9610  -16.2528 N   0  0  0  0  0  0  0  0  0  0  0  0
   19.5730   -7.8817  -15.2859 C   0  0  0  0  0  0  0  0  0  0  0  0
   19.4069   -8.3102  -14.1074 O   0  0  0  0  0  0  0  0  0  0  0  0
   20.3565   -6.7222  -15.4432 N   0  0  0  0  0  0  0  0  0  0  0  0
   20.8395   -5.9595  -14.2776 C   0  0  1  0  0  0  0  0  0  0  0  0
   22.3519   -6.1359  -14.2615 C   0  0  0  0  0  0  0  0  0  0  0  0
   23.0266   -5.0752  -12.9579 S   0  0  0  0  0  0  0  0  0  0  0  0
   20.5799   -4.5205  -14.5686 C   0  0  0  0  0  0  0  0  0  0  0  0
   20.3999   -3.5960  -13.5289 O   0  0  0  0  0  0  0  0  0  0  0  0
   20.5113   -4.0771  -15.7306 O   0  0  0  0  0  0  0  0  0  0  0  0
  2  8  1  0
  2  1  1  6
  3  2  1  0
  4  3  1  0
  5  6  1  0
  5  4  1  0
  6  7  1  0
  8 14  1  0
  9  8  2  0
 11 10  1  6
 11 13  1  0
 12 11  1  0
 13 14  1  1
 15 13  1  0
 16 15  2  0
 17 15  1  0
 18 17  1  0
 18 21  1  0
 18 19  1  6
 20 19  1  0
 21 22  1  0
 23 21  2  0
M  END
$$$$
