KTC.pdb
     RDKit          3D

 23 22  0  0  1  0  0  0  0  0999 V2000
   15.1497  -10.8134  -17.1993 N   0  0  0  0  0  0  0  0  0  0  0  0
   16.2134  -10.7624  -16.1652 C   0  0  1  0  0  0  0  0  0  0  0  0
   16.9182  -12.0877  -16.2699 C   0  0  0  0  0  0  0  0  0  0  0  0
   16.2309  -13.2540  -15.6773 C   0  0  0  0  0  0  0  0  0  0  0  0
   16.9312  -14.5711  -15.8621 C   0  0  0  0  0  0  0  0  0  0  0  0
   16.1799  -15.7157  -15.2167 C   0  0  0  0  0  0  0  0  0  0  0  0
   16.9578  -16.2229  -14.1015 N   0  0  0  0  0  0  0  0  0  0  0  0
   17.1253   -9.6472  -16.6111 C   0  0  0  0  0  0  0  0  0  0  0  0
   17.1855   -9.4166  -17.8272 O   0  0  0  0  0  0  0  0  0  0  0  0
   18.6495   -5.4015  -17.0267 C   0  0  0  0  0  0  0  0  0  0  0  0
   17.8878   -6.6877  -16.7786 C   0  0  1  0  0  0  0  0  0  0  0  0
   17.4046   -7.1024  -18.0014 O   0  0  0  0  0  0  0  0  0  0  0  0
   18.6814   -7.7031  -16.0445 C   0  0  2  0  0  0  0  0  0  0  0  0
   17.8919   -8.8754  -15.7112 N   0  0  0  0  0  0  0  0  0  0  0  0
   19.5137   -7.2108  -14.9273 C   0  0  0  0  0  0  0  0  0  0  0  0
   19.0163   -6.8133  -13.8344 O   0  0  0  0  0  0  0  0  0  0  0  0
   20.9163   -7.1709  -15.0467 N   0  0  0  0  0  0  0  0  0  0  0  0
   21.7751   -6.8522  -13.8915 C   0  0  1  0  0  0  0  0  0  0  0  0
   23.0670   -7.6293  -14.1054 C   0  0  0  0  0  0  0  0  0  0  0  0
   22.6989   -9.3924  -13.9169 S   0  0  0  0  0  0  0  0  0  0  0  0
   22.1226   -5.4064  -14.0010 C   0  0  0  0  0  0  0  0  0  0  0  0
   22.4954   -4.6670  -12.8686 O   0  0  0  0  0  0  0  0  0  0  0  0
   22.0990   -4.7953  -15.0861 O   0  0  0  0  0  0  0  0  0  0  0  0
  2  8  1  0
  2  1  1  6
  3  2  1  0
  4  3  1  0
  5  6  1  0
  5  4  1  0
  6  7  1  0
  8 14  1  0
  9  8  2  0
 11 10  1  6
 11 13  1  0
 12 11  1  0
 13 14  1  1
 15 13  1  0
 16 15  2  0
 17 15  1  0
 18 17  1  0
 18 21  1  0
 18 19  1  6
 20 19  1  0
 21 22  1  0
 23 21  2  0
M  END
$$$$
