KTC.pdb
     RDKit          3D

 23 22  0  0  1  0  0  0  0  0999 V2000
   18.2549  -12.0605  -18.1920 N   0  0  0  0  0  0  0  0  0  0  0  0
   19.4858  -11.2459  -18.3492 C   0  0  1  0  0  0  0  0  0  0  0  0
   19.5162  -10.8686  -19.8056 C   0  0  0  0  0  0  0  0  0  0  0  0
   19.9440  -11.9175  -20.7545 C   0  0  0  0  0  0  0  0  0  0  0  0
   21.4212  -12.1942  -20.7788 C   0  0  0  0  0  0  0  0  0  0  0  0
   21.7993  -13.1975  -21.8473 C   0  0  0  0  0  0  0  0  0  0  0  0
   23.2341  -13.4121  -21.8080 N   0  0  0  0  0  0  0  0  0  0  0  0
   19.2465  -10.0253  -17.4965 C   0  0  0  0  0  0  0  0  0  0  0  0
   18.2909   -9.2983  -17.8034 O   0  0  0  0  0  0  0  0  0  0  0  0
   17.6999   -9.5091  -14.6981 C   0  0  0  0  0  0  0  0  0  0  0  0
   19.0346   -8.8961  -14.3251 C   0  0  1  0  0  0  0  0  0  0  0  0
   19.6259   -9.7560  -13.4240 O   0  0  0  0  0  0  0  0  0  0  0  0
   19.8695   -8.5559  -15.5028 C   0  0  2  0  0  0  0  0  0  0  0  0
   20.0538   -9.6930  -16.3870 N   0  0  0  0  0  0  0  0  0  0  0  0
   21.1128   -7.8032  -15.2369 C   0  0  0  0  0  0  0  0  0  0  0  0
   22.2605   -8.3049  -15.4129 O   0  0  0  0  0  0  0  0  0  0  0  0
   21.0568   -6.4751  -14.7720 N   0  0  0  0  0  0  0  0  0  0  0  0
   22.2848   -5.7021  -14.5107 C   0  0  1  0  0  0  0  0  0  0  0  0
   22.3830   -4.6822  -15.6371 C   0  0  0  0  0  0  0  0  0  0  0  0
   20.7874   -3.8357  -15.7681 S   0  0  0  0  0  0  0  0  0  0  0  0
   22.0484   -4.9322  -13.2560 C   0  0  0  0  0  0  0  0  0  0  0  0
   20.8273   -5.0262  -12.5718 O   0  0  0  0  0  0  0  0  0  0  0  0
   22.9103   -4.1803  -12.7628 O   0  0  0  0  0  0  0  0  0  0  0  0
  2  8  1  0
  2  1  1  6
  3  2  1  0
  4  3  1  0
  5  6  1  0
  5  4  1  0
  6  7  1  0
  8 14  1  0
  9  8  2  0
 11 10  1  6
 11 13  1  0
 12 11  1  0
 13 14  1  1
 15 13  1  0
 16 15  2  0
 17 15  1  0
 18 17  1  0
 18 21  1  0
 18 19  1  6
 20 19  1  0
 21 22  1  0
 23 21  2  0
M  END
$$$$
