KTC.pdb
     RDKit          3D

 23 22  0  0  1  0  0  0  0  0999 V2000
   19.5952  -13.3290  -17.4690 N   0  0  0  0  0  0  0  0  0  0  0  0
   18.8762  -12.1855  -16.8536 C   0  0  1  0  0  0  0  0  0  0  0  0
   18.5332  -12.6476  -15.4632 C   0  0  0  0  0  0  0  0  0  0  0  0
   17.3594  -13.5351  -15.3290 C   0  0  0  0  0  0  0  0  0  0  0  0
   16.0259  -12.8426  -15.3687 C   0  0  0  0  0  0  0  0  0  0  0  0
   14.8705  -13.8192  -15.3159 C   0  0  0  0  0  0  0  0  0  0  0  0
   13.6258  -13.0874  -15.4618 N   0  0  0  0  0  0  0  0  0  0  0  0
   19.8975  -11.0772  -16.8005 C   0  0  0  0  0  0  0  0  0  0  0  0
   21.0759  -11.4020  -16.5965 O   0  0  0  0  0  0  0  0  0  0  0  0
   20.9460   -8.8404  -19.4113 C   0  0  0  0  0  0  0  0  0  0  0  0
   20.5540   -7.9151  -18.2771 C   0  0  1  0  0  0  0  0  0  0  0  0
   19.3870   -7.2905  -18.6626 O   0  0  0  0  0  0  0  0  0  0  0  0
   20.4909   -8.5985  -16.9622 C   0  0  2  0  0  0  0  0  0  0  0  0
   19.5639   -9.7163  -16.9730 N   0  0  0  0  0  0  0  0  0  0  0  0
   20.3624   -7.7323  -15.7722 C   0  0  0  0  0  0  0  0  0  0  0  0
   19.2472   -7.4887  -15.2274 O   0  0  0  0  0  0  0  0  0  0  0  0
   21.5023   -7.1411  -15.1941 N   0  0  0  0  0  0  0  0  0  0  0  0
   21.3873   -6.1858  -14.0771 C   0  0  1  0  0  0  0  0  0  0  0  0
   22.1815   -6.7908  -12.9274 C   0  0  0  0  0  0  0  0  0  0  0  0
   22.1547   -5.6173  -11.5483 S   0  0  0  0  0  0  0  0  0  0  0  0
   22.1106   -4.9501  -14.4929 C   0  0  0  0  0  0  0  0  0  0  0  0
   21.7074   -3.6887  -14.0299 O   0  0  0  0  0  0  0  0  0  0  0  0
   23.0921   -4.9781  -15.2592 O   0  0  0  0  0  0  0  0  0  0  0  0
  2  8  1  0
  2  1  1  6
  3  2  1  0
  4  3  1  0
  5  6  1  0
  5  4  1  0
  6  7  1  0
  8 14  1  0
  9  8  2  0
 11 10  1  6
 11 13  1  0
 12 11  1  0
 13 14  1  6
 15 13  1  0
 16 15  2  0
 17 15  1  0
 18 17  1  0
 18 21  1  0
 18 19  1  1
 20 19  1  0
 21 22  1  0
 23 21  2  0
M  END
$$$$
