KTC.pdb
     RDKit          3D

 23 22  0  0  1  0  0  0  0  0999 V2000
   25.8031  -15.0714  -16.8744 N   0  0  0  0  0  0  0  0  0  0  0  0
   24.5199  -14.9230  -16.1431 C   0  0  1  0  0  0  0  0  0  0  0  0
   24.5223  -16.0345  -15.1288 C   0  0  0  0  0  0  0  0  0  0  0  0
   24.3627  -17.4084  -15.6490 C   0  0  0  0  0  0  0  0  0  0  0  0
   22.9497  -17.9198  -15.6823 C   0  0  0  0  0  0  0  0  0  0  0  0
   22.8571  -19.3119  -16.2694 C   0  0  0  0  0  0  0  0  0  0  0  0
   21.4658  -19.7243  -16.2915 N   0  0  0  0  0  0  0  0  0  0  0  0
   24.6260  -13.5853  -15.4548 C   0  0  0  0  0  0  0  0  0  0  0  0
   24.7189  -13.5898  -14.2191 O   0  0  0  0  0  0  0  0  0  0  0  0
   27.1280  -11.1569  -15.2858 C   0  0  0  0  0  0  0  0  0  0  0  0
   25.9420  -10.3483  -15.7716 C   0  0  1  0  0  0  0  0  0  0  0  0
   26.2097  -10.0013  -17.0787 O   0  0  0  0  0  0  0  0  0  0  0  0
   24.6436  -11.0338  -15.5614 C   0  0  2  0  0  0  0  0  0  0  0  0
   24.6248  -12.3592  -16.1545 N   0  0  0  0  0  0  0  0  0  0  0  0
   23.4262  -10.2431  -15.8366 C   0  0  0  0  0  0  0  0  0  0  0  0
   22.7239  -10.4175  -16.8740 O   0  0  0  0  0  0  0  0  0  0  0  0
   23.0000   -9.2519  -14.9316 N   0  0  0  0  0  0  0  0  0  0  0  0
   21.7779   -8.4645  -15.1769 C   0  0  1  0  0  0  0  0  0  0  0  0
   21.2152   -8.1289  -13.8023 C   0  0  0  0  0  0  0  0  0  0  0  0
   20.6493   -9.6694  -13.0365 S   0  0  0  0  0  0  0  0  0  0  0  0
   22.2130   -7.1756  -15.7871 C   0  0  0  0  0  0  0  0  0  0  0  0
   21.2740   -6.2063  -16.1702 O   0  0  0  0  0  0  0  0  0  0  0  0
   23.4122   -6.9020  -15.9831 O   0  0  0  0  0  0  0  0  0  0  0  0
  2  8  1  0
  2  1  1  6
  3  2  1  0
  4  3  1  0
  5  6  1  0
  5  4  1  0
  6  7  1  0
  8 14  1  0
  9  8  2  0
 11 10  1  6
 11 13  1  0
 12 11  1  0
 13 14  1  6
 15 13  1  0
 16 15  2  0
 17 15  1  0
 18 17  1  0
 18 21  1  0
 18 19  1  1
 20 19  1  0
 21 22  1  0
 23 21  2  0
M  END
$$$$
