KTC.pdb
     RDKit          3D

 23 22  0  0  1  0  0  0  0  0999 V2000
   20.8468  -23.6412  -14.2476 N   0  0  0  0  0  0  0  0  0  0  0  0
   20.7590  -22.1837  -13.9804 C   0  0  1  0  0  0  0  0  0  0  0  0
   19.8637  -22.0647  -12.7768 C   0  0  0  0  0  0  0  0  0  0  0  0
   18.4145  -21.9386  -13.0371 C   0  0  0  0  0  0  0  0  0  0  0  0
   17.7250  -23.2101  -13.4460 C   0  0  0  0  0  0  0  0  0  0  0  0
   16.6827  -23.6468  -12.4390 C   0  0  0  0  0  0  0  0  0  0  0  0
   15.3647  -23.4985  -13.0280 N   0  0  0  0  0  0  0  0  0  0  0  0
   22.1674  -21.7753  -13.6283 C   0  0  0  0  0  0  0  0  0  0  0  0
   22.8413  -22.5776  -12.9666 O   0  0  0  0  0  0  0  0  0  0  0  0
   24.5397  -22.7544  -14.3447 C   0  0  0  0  0  0  0  0  0  0  0  0
   24.7763  -21.4126  -15.0079 C   0  0  1  0  0  0  0  0  0  0  0  0
   24.3969  -21.5515  -16.3261 O   0  0  0  0  0  0  0  0  0  0  0  0
   24.1336  -20.2856  -14.2892 C   0  0  2  0  0  0  0  0  0  0  0  0
   22.7297  -20.5408  -14.0196 N   0  0  0  0  0  0  0  0  0  0  0  0
   24.4006  -18.9297  -14.8119 C   0  0  0  0  0  0  0  0  0  0  0  0
   23.6476  -17.9450  -14.5603 O   0  0  0  0  0  0  0  0  0  0  0  0
   25.5272  -18.6865  -15.6211 N   0  0  0  0  0  0  0  0  0  0  0  0
   25.8532  -17.3282  -16.0928 C   0  0  1  0  0  0  0  0  0  0  0  0
   26.4191  -16.5923  -14.8858 C   0  0  0  0  0  0  0  0  0  0  0  0
   27.8411  -17.5310  -14.2723 S   0  0  0  0  0  0  0  0  0  0  0  0
   26.9705  -17.4697  -17.0698 C   0  0  0  0  0  0  0  0  0  0  0  0
   27.4810  -16.3526  -17.7477 O   0  0  0  0  0  0  0  0  0  0  0  0
   27.4961  -18.5694  -17.3269 O   0  0  0  0  0  0  0  0  0  0  0  0
  2  8  1  0
  2  1  1  1
  3  2  1  0
  4  3  1  0
  5  6  1  0
  5  4  1  0
  6  7  1  0
  8 14  1  0
  9  8  2  0
 11 10  1  1
 11 13  1  0
 12 11  1  0
 13 14  1  6
 15 13  1  0
 16 15  2  0
 17 15  1  0
 18 17  1  0
 18 21  1  0
 18 19  1  1
 20 19  1  0
 21 22  1  0
 23 21  2  0
M  END
$$$$
