TVM.pdb
     RDKit          3D

 23 22  0  0  1  0  0  0  0  0999 V2000
   20.3123  -16.0585  -14.5047 C   0  0  0  0  0  0  0  0  0  0  0  0
   19.4188  -16.9853  -15.3102 C   0  0  1  0  0  0  0  0  0  0  0  0
   19.0916  -18.1147  -14.5534 O   0  0  0  0  0  0  0  0  0  0  0  0
   18.1512  -16.2299  -15.7173 C   0  0  2  0  0  0  0  0  0  0  0  0
   17.3963  -17.1162  -16.5465 N   0  0  0  0  0  0  0  0  0  0  0  0
   18.6086  -15.0126  -16.4539 C   0  0  0  0  0  0  0  0  0  0  0  0
   19.1875  -15.1687  -17.5621 O   0  0  0  0  0  0  0  0  0  0  0  0
   16.7175  -12.3969  -17.6691 C   0  0  0  0  0  0  0  0  0  0  0  0
   17.8307  -11.6411  -17.0208 C   0  0  1  0  0  0  0  0  0  0  0  0
   17.4271  -10.8289  -15.8356 C   0  0  0  0  0  0  0  0  0  0  0  0
   19.0244  -12.5336  -16.6758 C   0  0  2  0  0  0  0  0  0  0  0  0
   18.4431  -13.6952  -16.0045 N   0  0  0  0  0  0  0  0  0  0  0  0
   19.9817  -11.8333  -15.7831 C   0  0  0  0  0  0  0  0  0  0  0  0
   19.7759  -11.8190  -14.5535 O   0  0  0  0  0  0  0  0  0  0  0  0
   27.6968  -10.7442  -14.8325 C   0  0  0  0  0  0  0  0  0  0  0  0
   26.3281  -11.4618  -15.8307 S   0  0  0  0  0  0  0  0  0  0  0  0
   24.7638  -10.8505  -15.3472 C   0  0  0  0  0  0  0  0  0  0  0  0
   23.4841  -11.2401  -15.9439 C   0  0  0  0  0  0  0  0  0  0  0  0
   22.2198  -10.6592  -15.4688 C   0  0  2  0  0  0  0  0  0  0  0  0
   21.0989  -11.1991  -16.3160 N   0  0  0  0  0  0  0  0  0  0  0  0
   22.1292   -9.1634  -15.7148 C   0  0  0  0  0  0  0  0  0  0  0  0
   22.4615   -8.2656  -14.9583 O   0  0  0  0  0  0  0  0  0  0  0  0
   21.6015   -8.7158  -16.9565 O   0  0  0  0  0  0  0  0  0  0  0  0
  2  1  1  1
  2  4  1  0
  3  2  1  0
  4  5  1  6
  6  4  1  0
  6  7  2  0
  9  8  1  1
  9 11  1  0
  9 10  1  0
 11 12  1  1
 12  6  1  0
 13 11  1  0
 14 13  2  0
 16 15  1  0
 17 16  1  0
 18 17  1  0
 19 20  1  0
 19 18  1  6
 20 13  1  0
 21 19  1  0
 22 21  2  0
 23 21  1  0
M  END
$$$$
