TVM.pdb
     RDKit          3D

 23 22  0  0  1  0  0  0  0  0999 V2000
   15.1094  -14.6663  -14.5683 C   0  0  0  0  0  0  0  0  0  0  0  0
   16.3937  -14.1739  -15.2119 C   0  0  1  0  0  0  0  0  0  0  0  0
   17.3634  -15.1808  -15.1809 O   0  0  0  0  0  0  0  0  0  0  0  0
   16.1025  -13.7575  -16.6559 C   0  0  2  0  0  0  0  0  0  0  0  0
   15.7830  -14.9541  -17.3694 N   0  0  0  0  0  0  0  0  0  0  0  0
   17.3494  -13.1081  -17.1631 C   0  0  0  0  0  0  0  0  0  0  0  0
   18.1878  -13.8232  -17.7742 O   0  0  0  0  0  0  0  0  0  0  0  0
   17.6446  -10.4413  -19.6628 C   0  0  0  0  0  0  0  0  0  0  0  0
   18.3442   -9.9743  -18.4286 C   0  0  1  0  0  0  0  0  0  0  0  0
   17.5624   -9.0175  -17.5916 C   0  0  0  0  0  0  0  0  0  0  0  0
   18.8635  -11.1317  -17.5737 C   0  0  2  0  0  0  0  0  0  0  0  0
   17.6642  -11.7507  -17.0112 N   0  0  0  0  0  0  0  0  0  0  0  0
   19.7610  -10.6459  -16.4955 C   0  0  0  0  0  0  0  0  0  0  0  0
   19.2696  -10.2495  -15.4204 O   0  0  0  0  0  0  0  0  0  0  0  0
   27.3927  -10.4002  -14.0848 C   0  0  0  0  0  0  0  0  0  0  0  0
   26.2142  -10.9940  -15.3667 S   0  0  0  0  0  0  0  0  0  0  0  0
   24.5940  -10.3922  -15.1077 C   0  0  0  0  0  0  0  0  0  0  0  0
   23.4212  -10.7543  -15.9069 C   0  0  0  0  0  0  0  0  0  0  0  0
   22.1081  -10.1492  -15.6405 C   0  0  2  0  0  0  0  0  0  0  0  0
   21.1388  -10.6342  -16.6850 N   0  0  0  0  0  0  0  0  0  0  0  0
   22.0978   -8.6455  -15.8529 C   0  0  0  0  0  0  0  0  0  0  0  0
   21.9911   -8.0463  -16.9104 O   0  0  0  0  0  0  0  0  0  0  0  0
   22.2255   -7.8037  -14.7147 O   0  0  0  0  0  0  0  0  0  0  0  0
  2  1  1  6
  2  4  1  0
  3  2  1  0
  4  5  1  6
  6  4  1  0
  6  7  2  0
  9  8  1  6
  9 11  1  0
  9 10  1  0
 11 12  1  1
 12  6  1  0
 13 11  1  0
 14 13  2  0
 16 15  1  0
 17 16  1  0
 18 17  1  0
 19 20  1  0
 19 18  1  6
 20 13  1  0
 21 19  1  0
 22 21  2  0
 23 21  1  0
M  END
$$$$
