TVM.pdb
     RDKit          3D

 23 22  0  0  1  0  0  0  0  0999 V2000
   22.7707  -21.1783  -11.6636 C   0  0  0  0  0  0  0  0  0  0  0  0
   23.4835  -20.7319  -10.3992 C   0  0  1  0  0  0  0  0  0  0  0  0
   23.0365  -21.4803   -9.3059 O   0  0  0  0  0  0  0  0  0  0  0  0
   24.9925  -20.9088  -10.5862 C   0  0  2  0  0  0  0  0  0  0  0  0
   25.6012  -20.5683   -9.3385 N   0  0  0  0  0  0  0  0  0  0  0  0
   25.3893  -19.9776  -11.6858 C   0  0  0  0  0  0  0  0  0  0  0  0
   25.4388  -18.7440  -11.4337 O   0  0  0  0  0  0  0  0  0  0  0  0
   28.5157  -19.8241  -13.6272 C   0  0  0  0  0  0  0  0  0  0  0  0
   27.3970  -19.9491  -14.6088 C   0  0  1  0  0  0  0  0  0  0  0  0
   27.2251  -21.3130  -15.1897 C   0  0  0  0  0  0  0  0  0  0  0  0
   26.0680  -19.4328  -14.0544 C   0  0  2  0  0  0  0  0  0  0  0  0
   25.7145  -20.3720  -12.9910 N   0  0  0  0  0  0  0  0  0  0  0  0
   25.0189  -19.4064  -15.1044 C   0  0  0  0  0  0  0  0  0  0  0  0
   24.4627  -20.4697  -15.4427 O   0  0  0  0  0  0  0  0  0  0  0  0
   19.5787  -14.5045  -18.2326 C   0  0  0  0  0  0  0  0  0  0  0  0
   20.9745  -14.7095  -17.0517 S   0  0  0  0  0  0  0  0  0  0  0  0
   21.7169  -16.2872  -17.1701 C   0  0  0  0  0  0  0  0  0  0  0  0
   22.8510  -16.7489  -16.3663 C   0  0  0  0  0  0  0  0  0  0  0  0
   23.4671  -18.0612  -16.6107 C   0  0  2  0  0  0  0  0  0  0  0  0
   24.6604  -18.2040  -15.7045 N   0  0  0  0  0  0  0  0  0  0  0  0
   24.0863  -18.1735  -17.9928 C   0  0  0  0  0  0  0  0  0  0  0  0
   25.2223  -17.8750  -18.3233 O   0  0  0  0  0  0  0  0  0  0  0  0
   23.2836  -18.6791  -19.0514 O   0  0  0  0  0  0  0  0  0  0  0  0
  2  1  1  6
  2  4  1  0
  3  2  1  0
  4  5  1  1
  6  4  1  0
  6  7  2  0
  9  8  1  1
  9 11  1  0
  9 10  1  0
 11 12  1  1
 12  6  1  0
 13 11  1  0
 14 13  2  0
 16 15  1  0
 17 16  1  0
 18 17  1  0
 19 20  1  0
 19 18  1  6
 20 13  1  0
 21 19  1  0
 22 21  2  0
 23 21  1  0
M  END
$$$$
