TVM.pdb
     RDKit          3D

 23 22  0  0  1  0  0  0  0  0999 V2000
   14.8854  -13.2925  -13.3806 C   0  0  0  0  0  0  0  0  0  0  0  0
   15.9318  -12.6673  -14.2863 C   0  0  1  0  0  0  0  0  0  0  0  0
   16.4519  -13.6308  -15.1560 O   0  0  0  0  0  0  0  0  0  0  0  0
   15.2906  -11.5245  -15.0776 C   0  0  2  0  0  0  0  0  0  0  0  0
   14.3819  -12.1273  -16.0018 N   0  0  0  0  0  0  0  0  0  0  0  0
   16.4106  -10.8115  -15.7638 C   0  0  0  0  0  0  0  0  0  0  0  0
   16.8748  -11.3107  -16.8235 O   0  0  0  0  0  0  0  0  0  0  0  0
   16.2463   -7.6962  -17.4489 C   0  0  0  0  0  0  0  0  0  0  0  0
   17.3209   -7.5446  -16.4228 C   0  0  1  0  0  0  0  0  0  0  0  0
   16.9014   -6.8341  -15.1792 C   0  0  0  0  0  0  0  0  0  0  0  0
   17.9957   -8.8734  -16.0775 C   0  0  2  0  0  0  0  0  0  0  0  0
   16.9928   -9.6173  -15.3169 N   0  0  0  0  0  0  0  0  0  0  0  0
   19.2216   -8.6616  -15.2673 C   0  0  0  0  0  0  0  0  0  0  0  0
   19.1372   -8.6304  -14.0239 O   0  0  0  0  0  0  0  0  0  0  0  0
   26.8904  -10.3418  -15.0122 C   0  0  0  0  0  0  0  0  0  0  0  0
   25.1708  -10.7869  -15.4916 S   0  0  0  0  0  0  0  0  0  0  0  0
   24.0214   -9.5390  -15.0721 C   0  0  0  0  0  0  0  0  0  0  0  0
   22.6426   -9.4627  -15.5604 C   0  0  0  0  0  0  0  0  0  0  0  0
   21.7489   -8.3752  -15.1361 C   0  0  2  0  0  0  0  0  0  0  0  0
   20.4534   -8.5000  -15.8924 N   0  0  0  0  0  0  0  0  0  0  0  0
   22.2472   -7.0041  -15.5583 C   0  0  0  0  0  0  0  0  0  0  0  0
   22.0983   -6.4616  -16.6409 O   0  0  0  0  0  0  0  0  0  0  0  0
   22.9759   -6.2320  -14.6131 O   0  0  0  0  0  0  0  0  0  0  0  0
  2  1  1  1
  2  4  1  0
  3  2  1  0
  4  5  1  6
  6  4  1  0
  6  7  2  0
  9  8  1  6
  9 11  1  0
  9 10  1  0
 11 12  1  1
 12  6  1  0
 13 11  1  0
 14 13  2  0
 16 15  1  0
 17 16  1  0
 18 17  1  0
 19 20  1  0
 19 18  1  6
 20 13  1  0
 21 19  1  0
 22 21  2  0
 23 21  1  0
M  END
$$$$
