TVM.pdb
     RDKit          3D

 23 22  0  0  1  0  0  0  0  0999 V2000
   17.0822  -11.8635  -18.9270 C   0  0  0  0  0  0  0  0  0  0  0  0
   17.9118  -11.1484  -17.8751 C   0  0  1  0  0  0  0  0  0  0  0  0
   17.1121  -10.2509  -17.1609 O   0  0  0  0  0  0  0  0  0  0  0  0
   18.5247  -12.1855  -16.9307 C   0  0  2  0  0  0  0  0  0  0  0  0
   17.4353  -12.8117  -16.2494 N   0  0  0  0  0  0  0  0  0  0  0  0
   19.4174  -11.4285  -16.0013 C   0  0  0  0  0  0  0  0  0  0  0  0
   18.9267  -10.9942  -14.9251 O   0  0  0  0  0  0  0  0  0  0  0  0
   23.4773  -11.3055  -16.7256 C   0  0  0  0  0  0  0  0  0  0  0  0
   22.9691  -11.0582  -15.3431 C   0  0  1  0  0  0  0  0  0  0  0  0
   23.9238  -10.3449  -14.4448 C   0  0  0  0  0  0  0  0  0  0  0  0
   21.6057  -10.3644  -15.3334 C   0  0  2  0  0  0  0  0  0  0  0  0
   20.7732  -11.1598  -16.2345 N   0  0  0  0  0  0  0  0  0  0  0  0
   21.7101   -8.9628  -15.8117 C   0  0  0  0  0  0  0  0  0  0  0  0
   21.8487   -8.7393  -17.0304 O   0  0  0  0  0  0  0  0  0  0  0  0
   18.4113   -2.1981  -16.5623 C   0  0  0  0  0  0  0  0  0  0  0  0
   18.3994   -4.0143  -16.2694 S   0  0  0  0  0  0  0  0  0  0  0  0
   19.9937   -4.6405  -15.9224 C   0  0  0  0  0  0  0  0  0  0  0  0
   20.3056   -6.0423  -15.6340 C   0  0  0  0  0  0  0  0  0  0  0  0
   21.6798   -6.4632  -15.3243 C   0  0  2  0  0  0  0  0  0  0  0  0
   21.6529   -7.9089  -14.9060 N   0  0  0  0  0  0  0  0  0  0  0  0
   22.2444   -5.7739  -14.0945 C   0  0  0  0  0  0  0  0  0  0  0  0
   22.3156   -6.2198  -12.9610 O   0  0  0  0  0  0  0  0  0  0  0  0
   22.7585   -4.4564  -14.2374 O   0  0  0  0  0  0  0  0  0  0  0  0
  2  1  1  6
  2  4  1  0
  3  2  1  0
  4  5  1  1
  6  4  1  0
  6  7  2  0
  9  8  1  6
  9 11  1  0
  9 10  1  0
 11 12  1  6
 12  6  1  0
 13 11  1  0
 14 13  2  0
 16 15  1  0
 17 16  1  0
 18 17  1  0
 19 20  1  0
 19 18  1  1
 20 13  1  0
 21 19  1  0
 22 21  2  0
 23 21  1  0
M  END
$$$$
