TVM.pdb
     RDKit          3D

 23 22  0  0  1  0  0  0  0  0999 V2000
   25.8389  -13.2676  -15.9080 C   0  0  0  0  0  0  0  0  0  0  0  0
   25.0502  -12.0614  -16.3866 C   0  0  1  0  0  0  0  0  0  0  0  0
   25.5647  -11.6028  -17.6032 O   0  0  0  0  0  0  0  0  0  0  0  0
   23.5793  -12.4552  -16.5436 C   0  0  2  0  0  0  0  0  0  0  0  0
   23.5132  -13.3537  -17.6532 N   0  0  0  0  0  0  0  0  0  0  0  0
   22.8312  -11.1857  -16.7940 C   0  0  0  0  0  0  0  0  0  0  0  0
   22.7683  -10.7541  -17.9761 O   0  0  0  0  0  0  0  0  0  0  0  0
   19.3086  -10.5351  -16.3582 C   0  0  0  0  0  0  0  0  0  0  0  0
   20.0210   -9.4911  -15.5625 C   0  0  1  0  0  0  0  0  0  0  0  0
   20.0549   -9.7417  -14.0916 C   0  0  0  0  0  0  0  0  0  0  0  0
   21.4293   -9.2095  -16.0894 C   0  0  2  0  0  0  0  0  0  0  0  0
   22.1866  -10.4279  -15.8067 N   0  0  0  0  0  0  0  0  0  0  0  0
   22.0375   -8.0403  -15.4059 C   0  0  0  0  0  0  0  0  0  0  0  0
   22.6157   -8.2011  -14.3131 O   0  0  0  0  0  0  0  0  0  0  0  0
   24.8778   -2.0397  -18.1894 C   0  0  0  0  0  0  0  0  0  0  0  0
   23.3453   -1.8485  -17.1895 S   0  0  0  0  0  0  0  0  0  0  0  0
   23.1307   -3.1549  -16.0486 C   0  0  0  0  0  0  0  0  0  0  0  0
   22.6508   -4.4976  -16.3834 C   0  0  0  0  0  0  0  0  0  0  0  0
   22.5805   -5.5524  -15.3617 C   0  0  2  0  0  0  0  0  0  0  0  0
   21.9622   -6.7767  -15.9819 N   0  0  0  0  0  0  0  0  0  0  0  0
   21.6098   -5.2237  -14.2409 C   0  0  0  0  0  0  0  0  0  0  0  0
   20.4306   -5.5282  -14.1676 O   0  0  0  0  0  0  0  0  0  0  0  0
   22.0903   -4.4763  -13.1314 O   0  0  0  0  0  0  0  0  0  0  0  0
  2  1  1  6
  2  4  1  0
  3  2  1  0
  4  5  1  6
  6  4  1  0
  6  7  2  0
  9  8  1  6
  9 11  1  0
  9 10  1  0
 11 12  1  1
 12  6  1  0
 13 11  1  0
 14 13  2  0
 16 15  1  0
 17 16  1  0
 18 17  1  0
 19 20  1  0
 19 18  1  6
 20 13  1  0
 21 19  1  0
 22 21  2  0
 23 21  1  0
M  END
$$$$
