TVM.pdb
     RDKit          3D

 23 22  0  0  1  0  0  0  0  0999 V2000
   18.0934   -9.4565  -18.0199 C   0  0  0  0  0  0  0  0  0  0  0  0
   17.6296  -10.7627  -17.3995 C   0  0  1  0  0  0  0  0  0  0  0  0
   16.8265  -11.4653  -18.3032 O   0  0  0  0  0  0  0  0  0  0  0  0
   18.8541  -11.5963  -17.0135 C   0  0  2  0  0  0  0  0  0  0  0  0
   18.3587  -12.8190  -16.4633 N   0  0  0  0  0  0  0  0  0  0  0  0
   19.6115  -10.7868  -16.0110 C   0  0  0  0  0  0  0  0  0  0  0  0
   19.0390  -10.4914  -14.9282 O   0  0  0  0  0  0  0  0  0  0  0  0
   22.7366  -11.5707  -14.2225 C   0  0  0  0  0  0  0  0  0  0  0  0
   22.9438  -10.2769  -14.9393 C   0  0  1  0  0  0  0  0  0  0  0  0
   23.7302  -10.3821  -16.2033 C   0  0  0  0  0  0  0  0  0  0  0  0
   21.6346   -9.5248  -15.1852 C   0  0  2  0  0  0  0  0  0  0  0  0
   20.9237  -10.3245  -16.1818 N   0  0  0  0  0  0  0  0  0  0  0  0
   21.8874   -8.1529  -15.6932 C   0  0  0  0  0  0  0  0  0  0  0  0
   22.2953   -7.9967  -16.8608 O   0  0  0  0  0  0  0  0  0  0  0  0
   17.7516   -2.6667  -14.9770 C   0  0  0  0  0  0  0  0  0  0  0  0
   18.7737   -2.9681  -16.4768 S   0  0  0  0  0  0  0  0  0  0  0  0
   20.3069   -3.7151  -16.0951 C   0  0  0  0  0  0  0  0  0  0  0  0
   20.4859   -5.1052  -15.6697 C   0  0  0  0  0  0  0  0  0  0  0  0
   21.8198   -5.6310  -15.3444 C   0  0  2  0  0  0  0  0  0  0  0  0
   21.6699   -7.0521  -14.8715 N   0  0  0  0  0  0  0  0  0  0  0  0
   22.4459   -4.9468  -14.1418 C   0  0  0  0  0  0  0  0  0  0  0  0
   22.4963   -5.3613  -12.9953 O   0  0  0  0  0  0  0  0  0  0  0  0
   23.0531   -3.6755  -14.3307 O   0  0  0  0  0  0  0  0  0  0  0  0
  2  1  1  6
  2  4  1  0
  3  2  1  0
  4  5  1  1
  6  4  1  0
  6  7  2  0
  9  8  1  6
  9 11  1  0
  9 10  1  0
 11 12  1  6
 12  6  1  0
 13 11  1  0
 14 13  2  0
 16 15  1  0
 17 16  1  0
 18 17  1  0
 19 20  1  0
 19 18  1  1
 20 13  1  0
 21 19  1  0
 22 21  2  0
 23 21  1  0
M  END
$$$$
