TVM.pdb
     RDKit          3D

 23 22  0  0  1  0  0  0  0  0999 V2000
   17.8752  -14.0245  -15.5898 C   0  0  0  0  0  0  0  0  0  0  0  0
   16.6633  -14.1076  -16.5011 C   0  0  1  0  0  0  0  0  0  0  0  0
   15.8695  -15.2027  -16.1463 O   0  0  0  0  0  0  0  0  0  0  0  0
   15.8617  -12.8083  -16.3879 C   0  0  2  0  0  0  0  0  0  0  0  0
   14.7113  -12.9643  -17.2216 N   0  0  0  0  0  0  0  0  0  0  0  0
   16.7654  -11.7170  -16.8634 C   0  0  0  0  0  0  0  0  0  0  0  0
   17.2922  -11.8330  -18.0022 O   0  0  0  0  0  0  0  0  0  0  0  0
   16.1077   -8.1533  -17.5572 C   0  0  0  0  0  0  0  0  0  0  0  0
   17.1918   -8.2253  -16.5324 C   0  0  1  0  0  0  0  0  0  0  0  0
   16.7440   -7.9756  -15.1308 C   0  0  0  0  0  0  0  0  0  0  0  0
   17.9925   -9.5263  -16.6141 C   0  0  2  0  0  0  0  0  0  0  0  0
   17.0775  -10.5610  -16.1347 N   0  0  0  0  0  0  0  0  0  0  0  0
   19.2096   -9.4650  -15.7663 C   0  0  0  0  0  0  0  0  0  0  0  0
   19.1325   -9.7683  -14.5595 O   0  0  0  0  0  0  0  0  0  0  0  0
   26.6061  -10.7680  -14.6468 C   0  0  0  0  0  0  0  0  0  0  0  0
   24.8767  -11.0404  -15.2123 S   0  0  0  0  0  0  0  0  0  0  0  0
   24.1740   -9.6020  -15.9135 C   0  0  0  0  0  0  0  0  0  0  0  0
   22.8015   -9.4902  -16.4125 C   0  0  0  0  0  0  0  0  0  0  0  0
   21.7107   -9.0450  -15.5330 C   0  0  2  0  0  0  0  0  0  0  0  0
   20.4254   -9.0726  -16.3159 N   0  0  0  0  0  0  0  0  0  0  0  0
   21.8283   -7.5821  -15.1423 C   0  0  0  0  0  0  0  0  0  0  0  0
   21.6385   -6.6073  -15.8511 O   0  0  0  0  0  0  0  0  0  0  0  0
   22.2009   -7.2696  -13.8066 O   0  0  0  0  0  0  0  0  0  0  0  0
  2  1  1  1
  2  4  1  0
  3  2  1  0
  4  5  1  6
  6  4  1  0
  6  7  2  0
  9  8  1  6
  9 11  1  0
  9 10  1  0
 11 12  1  1
 12  6  1  0
 13 11  1  0
 14 13  2  0
 16 15  1  0
 17 16  1  0
 18 17  1  0
 19 20  1  0
 19 18  1  6
 20 13  1  0
 21 19  1  0
 22 21  2  0
 23 21  1  0
M  END
$$$$
