TVM.pdb
     RDKit          3D

 23 22  0  0  1  0  0  0  0  0999 V2000
   16.7434  -16.2730  -16.8361 C   0  0  0  0  0  0  0  0  0  0  0  0
   17.0901  -14.8583  -17.2656 C   0  0  1  0  0  0  0  0  0  0  0  0
   15.9538  -14.2166  -17.7679 O   0  0  0  0  0  0  0  0  0  0  0  0
   17.6480  -14.0925  -16.0633 C   0  0  2  0  0  0  0  0  0  0  0  0
   16.5733  -13.9577  -15.1305 N   0  0  0  0  0  0  0  0  0  0  0  0
   18.1148  -12.7732  -16.5880 C   0  0  0  0  0  0  0  0  0  0  0  0
   19.0836  -12.7610  -17.3935 O   0  0  0  0  0  0  0  0  0  0  0  0
   15.8230   -9.4784  -15.8973 C   0  0  0  0  0  0  0  0  0  0  0  0
   16.8031   -9.4198  -17.0227 C   0  0  1  0  0  0  0  0  0  0  0  0
   17.1785   -8.0409  -17.4529 C   0  0  0  0  0  0  0  0  0  0  0  0
   18.0558  -10.2561  -16.7554 C   0  0  2  0  0  0  0  0  0  0  0  0
   17.5540  -11.5335  -16.2512 N   0  0  0  0  0  0  0  0  0  0  0  0
   18.9367   -9.6037  -15.7541 C   0  0  0  0  0  0  0  0  0  0  0  0
   18.6277   -9.6434  -14.5470 O   0  0  0  0  0  0  0  0  0  0  0  0
   24.5864  -12.4493  -14.2246 C   0  0  0  0  0  0  0  0  0  0  0  0
   23.7142  -11.4525  -15.5016 S   0  0  0  0  0  0  0  0  0  0  0  0
   23.2197   -9.8885  -14.8983 C   0  0  0  0  0  0  0  0  0  0  0  0
   22.4574   -8.8939  -15.6566 C   0  0  0  0  0  0  0  0  0  0  0  0
   21.1349   -8.4440  -15.1981 C   0  0  2  0  0  0  0  0  0  0  0  0
   20.0972   -8.9544  -16.1616 N   0  0  0  0  0  0  0  0  0  0  0  0
   20.9597   -6.9383  -15.2908 C   0  0  0  0  0  0  0  0  0  0  0  0
   20.5057   -6.3005  -16.2267 O   0  0  0  0  0  0  0  0  0  0  0  0
   21.3587   -6.1443  -14.1814 O   0  0  0  0  0  0  0  0  0  0  0  0
  2  1  1  1
  2  4  1  0
  3  2  1  0
  4  5  1  1
  6  4  1  0
  6  7  2  0
  9  8  1  1
  9 11  1  0
  9 10  1  0
 11 12  1  1
 12  6  1  0
 13 11  1  0
 14 13  2  0
 16 15  1  0
 17 16  1  0
 18 17  1  0
 19 20  1  0
 19 18  1  6
 20 13  1  0
 21 19  1  0
 22 21  2  0
 23 21  1  0
M  END
$$$$
