TVM.pdb
     RDKit          3D

 23 22  0  0  1  0  0  0  0  0999 V2000
   26.5163  -13.8549  -15.8694 C   0  0  0  0  0  0  0  0  0  0  0  0
   25.6181  -12.7051  -16.2906 C   0  0  1  0  0  0  0  0  0  0  0  0
   26.1342  -12.0858  -17.4331 O   0  0  0  0  0  0  0  0  0  0  0  0
   24.2114  -13.2431  -16.5643 C   0  0  2  0  0  0  0  0  0  0  0  0
   24.3071  -14.0611  -17.7326 N   0  0  0  0  0  0  0  0  0  0  0  0
   23.3406  -12.0471  -16.7768 C   0  0  0  0  0  0  0  0  0  0  0  0
   23.1617  -11.6420  -17.9565 O   0  0  0  0  0  0  0  0  0  0  0  0
   20.7122  -11.0536  -13.9605 C   0  0  0  0  0  0  0  0  0  0  0  0
   20.5436  -10.4465  -15.3146 C   0  0  1  0  0  0  0  0  0  0  0  0
   19.6547   -9.2484  -15.3557 C   0  0  0  0  0  0  0  0  0  0  0  0
   21.8806  -10.1439  -15.9937 C   0  0  2  0  0  0  0  0  0  0  0  0
   22.6997  -11.3315  -15.7561 N   0  0  0  0  0  0  0  0  0  0  0  0
   22.5205   -8.9372  -15.4119 C   0  0  0  0  0  0  0  0  0  0  0  0
   23.0906   -9.0181  -14.3061 O   0  0  0  0  0  0  0  0  0  0  0  0
   25.2341   -1.6716  -17.3979 C   0  0  0  0  0  0  0  0  0  0  0  0
   24.2754   -3.1450  -17.9410 S   0  0  0  0  0  0  0  0  0  0  0  0
   24.1129   -4.3351  -16.6715 C   0  0  0  0  0  0  0  0  0  0  0  0
   23.4526   -5.6349  -16.8126 C   0  0  0  0  0  0  0  0  0  0  0  0
   23.2381   -6.5049  -15.6470 C   0  0  2  0  0  0  0  0  0  0  0  0
   22.4836   -7.7273  -16.0967 N   0  0  0  0  0  0  0  0  0  0  0  0
   22.2983   -5.8953  -14.6215 C   0  0  0  0  0  0  0  0  0  0  0  0
   21.0792   -5.9459  -14.6098 O   0  0  0  0  0  0  0  0  0  0  0  0
   22.8635   -5.1740  -13.5349 O   0  0  0  0  0  0  0  0  0  0  0  0
  2  1  1  6
  2  4  1  0
  3  2  1  0
  4  5  1  6
  6  4  1  0
  6  7  2  0
  9  8  1  1
  9 11  1  0
  9 10  1  0
 11 12  1  1
 12  6  1  0
 13 11  1  0
 14 13  2  0
 16 15  1  0
 17 16  1  0
 18 17  1  0
 19 20  1  0
 19 18  1  6
 20 13  1  0
 21 19  1  0
 22 21  2  0
 23 21  1  0
M  END
$$$$
