TVM.pdb
     RDKit          3D

 23 22  0  0  1  0  0  0  0  0999 V2000
   28.2328  -17.8998  -16.0090 C   0  0  0  0  0  0  0  0  0  0  0  0
   27.1105  -18.7813  -15.4902 C   0  0  1  0  0  0  0  0  0  0  0  0
   26.2584  -19.1413  -16.5388 O   0  0  0  0  0  0  0  0  0  0  0  0
   27.7136  -20.0291  -14.8401 C   0  0  2  0  0  0  0  0  0  0  0  0
   28.2812  -20.8063  -15.8969 N   0  0  0  0  0  0  0  0  0  0  0  0
   26.5844  -20.7329  -14.1593 C   0  0  0  0  0  0  0  0  0  0  0  0
   26.1027  -21.7587  -14.7100 O   0  0  0  0  0  0  0  0  0  0  0  0
   26.3979  -21.6648  -10.5032 C   0  0  0  0  0  0  0  0  0  0  0  0
   25.1090  -20.9941  -10.8493 C   0  0  1  0  0  0  0  0  0  0  0  0
   24.9447  -19.6247  -10.2792 C   0  0  0  0  0  0  0  0  0  0  0  0
   24.8382  -20.9825  -12.3549 C   0  0  2  0  0  0  0  0  0  0  0  0
   26.0117  -20.3378  -12.9425 N   0  0  0  0  0  0  0  0  0  0  0  0
   23.6037  -20.2228  -12.6754 C   0  0  0  0  0  0  0  0  0  0  0  0
   23.6591  -18.9826  -12.7908 O   0  0  0  0  0  0  0  0  0  0  0  0
   21.3859  -19.0017  -17.8510 C   0  0  0  0  0  0  0  0  0  0  0  0
   19.7370  -19.3223  -17.1003 S   0  0  0  0  0  0  0  0  0  0  0  0
   19.8429  -19.6690  -15.3906 C   0  0  0  0  0  0  0  0  0  0  0  0
   21.0225  -20.2084  -14.7102 C   0  0  0  0  0  0  0  0  0  0  0  0
   21.1211  -20.1965  -13.2434 C   0  0  2  0  0  0  0  0  0  0  0  0
   22.3959  -20.8911  -12.8455 N   0  0  0  0  0  0  0  0  0  0  0  0
   20.0575  -21.0493  -12.5741 C   0  0  0  0  0  0  0  0  0  0  0  0
   20.1266  -22.2339  -12.2900 O   0  0  0  0  0  0  0  0  0  0  0  0
   18.8246  -20.4352  -12.2227 O   0  0  0  0  0  0  0  0  0  0  0  0
  2  1  1  6
  2  4  1  0
  3  2  1  0
  4  5  1  6
  6  4  1  0
  6  7  2  0
  9  8  1  6
  9 11  1  0
  9 10  1  0
 11 12  1  6
 12  6  1  0
 13 11  1  0
 14 13  2  0
 16 15  1  0
 17 16  1  0
 18 17  1  0
 19 20  1  0
 19 18  1  6
 20 13  1  0
 21 19  1  0
 22 21  2  0
 23 21  1  0
M  END
$$$$
