TVM.pdb
     RDKit          3D

 23 22  0  0  1  0  0  0  0  0999 V2000
   18.5830  -15.9697  -16.9364 C   0  0  0  0  0  0  0  0  0  0  0  0
   19.2630  -14.6459  -17.2384 C   0  0  1  0  0  0  0  0  0  0  0  0
   20.5855  -14.8648  -17.6362 O   0  0  0  0  0  0  0  0  0  0  0  0
   18.4860  -13.9242  -18.3423 C   0  0  2  0  0  0  0  0  0  0  0  0
   18.6600  -14.6939  -19.5341 N   0  0  0  0  0  0  0  0  0  0  0  0
   19.0868  -12.5602  -18.4530 C   0  0  0  0  0  0  0  0  0  0  0  0
   20.0697  -12.4025  -19.2254 O   0  0  0  0  0  0  0  0  0  0  0  0
   17.4651   -9.2503  -19.4146 C   0  0  0  0  0  0  0  0  0  0  0  0
   18.0896   -9.1413  -18.0623 C   0  0  1  0  0  0  0  0  0  0  0  0
   17.1333   -9.2514  -16.9219 C   0  0  0  0  0  0  0  0  0  0  0  0
   19.2588  -10.1100  -17.8750 C   0  0  2  0  0  0  0  0  0  0  0  0
   18.6386  -11.4288  -17.7574 N   0  0  0  0  0  0  0  0  0  0  0  0
   20.0395   -9.7841  -16.6550 C   0  0  0  0  0  0  0  0  0  0  0  0
   19.6666  -10.2279  -15.5513 O   0  0  0  0  0  0  0  0  0  0  0  0
   26.1926  -11.3717  -14.7318 C   0  0  0  0  0  0  0  0  0  0  0  0
   26.1231   -9.5609  -15.0497 S   0  0  0  0  0  0  0  0  0  0  0  0
   24.5033   -8.9226  -14.8971 C   0  0  0  0  0  0  0  0  0  0  0  0
   23.3987   -9.1941  -15.8198 C   0  0  0  0  0  0  0  0  0  0  0  0
   22.0505   -8.6674  -15.5617 C   0  0  2  0  0  0  0  0  0  0  0  0
   21.1779   -8.9901  -16.7449 N   0  0  0  0  0  0  0  0  0  0  0  0
   22.0079   -7.1498  -15.5237 C   0  0  0  0  0  0  0  0  0  0  0  0
   21.7678   -6.3910  -16.4484 O   0  0  0  0  0  0  0  0  0  0  0  0
   22.2731   -6.4994  -14.2879 O   0  0  0  0  0  0  0  0  0  0  0  0
  2  1  1  6
  2  4  1  0
  3  2  1  0
  4  5  1  6
  6  4  1  0
  6  7  2  0
  9  8  1  6
  9 11  1  0
  9 10  1  0
 11 12  1  1
 12  6  1  0
 13 11  1  0
 14 13  2  0
 16 15  1  0
 17 16  1  0
 18 17  1  0
 19 20  1  0
 19 18  1  6
 20 13  1  0
 21 19  1  0
 22 21  2  0
 23 21  1  0
M  END
$$$$
