FRA.pdb
     RDKit          3D

 28 28  0  0  1  0  0  0  0  0999 V2000
    6.1196  -16.5462   25.8253 N   0  0  0  0  0  0  0  0  0  0  0  0
    7.1948  -15.8186   25.1827 C   0  0  1  0  0  0  0  0  0  0  0  0
    7.9026  -14.9210   26.1723 C   0  0  0  0  0  0  0  0  0  0  0  0
    7.2011  -13.6108   26.1869 C   0  0  0  0  0  0  0  0  0  0  0  0
    5.9593  -13.4893   26.8183 C   0  0  0  0  0  0  0  0  0  0  0  0
    5.3166  -12.2686   26.8261 C   0  0  0  0  0  0  0  0  0  0  0  0
    5.8464  -11.1415   26.2320 C   0  0  0  0  0  0  0  0  0  0  0  0
    7.0695  -11.2561   25.6087 C   0  0  0  0  0  0  0  0  0  0  0  0
    7.7249  -12.4782   25.5944 C   0  0  0  0  0  0  0  0  0  0  0  0
    8.1517  -16.7494   24.5097 C   0  0  0  0  0  0  0  0  0  0  0  0
    8.5091  -17.8288   25.0506 O   0  0  0  0  0  0  0  0  0  0  0  0
    6.9958  -14.1224   20.0363 N   0  0  0  0  0  0  0  0  0  0  0  0
    8.0598  -13.4879   19.3418 C   0  0  0  0  0  0  0  0  0  0  0  0
    7.9883  -12.2100   19.1175 N   0  0  0  0  0  0  0  0  0  0  0  0
    9.1996  -14.2040   18.8845 N   0  0  0  0  0  0  0  0  0  0  0  0
    9.3294  -15.6102   19.1887 C   0  0  0  0  0  0  0  0  0  0  0  0
    9.3868  -15.7653   20.7016 C   0  0  0  0  0  0  0  0  0  0  0  0
    9.6261  -17.1989   21.0929 C   0  0  0  0  0  0  0  0  0  0  0  0
    9.6547  -17.3973   22.5805 C   0  0  2  0  0  0  0  0  0  0  0  0
    8.7050  -16.4679   23.2330 N   0  0  0  0  0  0  0  0  0  0  0  0
   10.9819  -17.1254   23.1614 C   0  0  0  0  0  0  0  0  0  0  0  0
   11.4146  -15.9658   23.3634 O   0  0  0  0  0  0  0  0  0  0  0  0
    8.7403  -11.6878   18.6437 C   0  0  0  0  0  0  0  0  0  0  0  0
   13.8853  -19.1266   24.6048 C   0  0  1  0  0  0  0  0  0  0  0  0
   13.2037  -17.8794   24.0983 N   0  0  0  0  0  0  0  0  0  0  0  0
   11.8955  -18.1749   23.5463 C   0  0  0  0  0  0  0  0  0  0  0  0
   14.0546  -17.3004   23.0182 O   0  0  0  0  0  0  0  0  0  0  0  0
   15.1225  -16.6625   23.2789 O   0  0  0  0  0  0  0  0  0  0  0  0
  2  1  1  1
  2 10  1  0
  2  3  1  0
  3  4  1  0
  4  9  2  0
  5  4  1  0
  5  6  2  0
  6  7  1  0
  7  8  2  0
  9  8  1  0
 10 11  2  0
 13 15  1  0
 13 12  1  0
 14 13  2  0
 16 17  1  0
 16 15  1  0
 17 18  1  0
 19 18  1  6
 20 10  1  0
 20 19  1  0
 21 22  2  0
 21 19  1  0
 24 23  1  1
 24 25  1  0
 25 21  1  0
 26 24  1  0
 26 28  1  0
 27 26  2  0
M  END
$$$$
