FRA.pdb
     RDKit          3D

 28 28  0  0  1  0  0  0  0  0999 V2000
    6.2783  -18.3300   25.8035 N   0  0  0  0  0  0  0  0  0  0  0  0
    6.6211  -16.9412   25.5741 C   0  0  1  0  0  0  0  0  0  0  0  0
    7.6661  -16.4756   26.5627 C   0  0  0  0  0  0  0  0  0  0  0  0
    7.5210  -15.0053   26.7253 C   0  0  0  0  0  0  0  0  0  0  0  0
    6.2825  -14.3957   26.5018 C   0  0  0  0  0  0  0  0  0  0  0  0
    6.1587  -13.0303   26.6557 C   0  0  0  0  0  0  0  0  0  0  0  0
    7.2137  -12.2215   27.0255 C   0  0  0  0  0  0  0  0  0  0  0  0
    8.4358  -12.8173   27.2468 C   0  0  0  0  0  0  0  0  0  0  0  0
    8.5723  -14.1891   27.0952 C   0  0  0  0  0  0  0  0  0  0  0  0
    7.0669  -16.7195   24.1646 C   0  0  0  0  0  0  0  0  0  0  0  0
    7.4850  -17.6685   23.4503 O   0  0  0  0  0  0  0  0  0  0  0  0
    9.7856  -13.3740   18.0897 N   0  0  0  0  0  0  0  0  0  0  0  0
    8.6257  -13.8661   17.4343 C   0  0  0  0  0  0  0  0  0  0  0  0
    8.4534  -13.5933   16.1757 N   0  0  0  0  0  0  0  0  0  0  0  0
    7.6478  -14.6466   18.1093 N   0  0  0  0  0  0  0  0  0  0  0  0
    7.7776  -14.8834   19.5284 C   0  0  0  0  0  0  0  0  0  0  0  0
    7.4241  -13.5958   20.2587 C   0  0  0  0  0  0  0  0  0  0  0  0
    7.0315  -13.8698   21.6858 C   0  0  0  0  0  0  0  0  0  0  0  0
    7.4377  -15.2395   22.1465 C   0  0  2  0  0  0  0  0  0  0  0  0
    7.0430  -15.4353   23.5598 N   0  0  0  0  0  0  0  0  0  0  0  0
    8.8953  -15.4489   22.0797 C   0  0  0  0  0  0  0  0  0  0  0  0
    9.5090  -15.6429   21.0034 O   0  0  0  0  0  0  0  0  0  0  0  0
    7.6292  -13.9154   15.6469 C   0  0  0  0  0  0  0  0  0  0  0  0
   11.9119  -14.7630   24.1420 C   0  0  2  0  0  0  0  0  0  0  0  0
   11.1737  -15.6339   23.1554 N   0  0  0  0  0  0  0  0  0  0  0  0
    9.7387  -15.4481   23.2516 C   0  0  0  0  0  0  0  0  0  0  0  0
   11.4905  -17.0564   23.4754 O   0  0  0  0  0  0  0  0  0  0  0  0
   10.5860  -17.8821   23.8146 O   0  0  0  0  0  0  0  0  0  0  0  0
  2  1  1  6
  2 10  1  0
  2  3  1  0
  3  4  1  0
  4  9  2  0
  5  4  1  0
  5  6  2  0
  6  7  1  0
  7  8  2  0
  9  8  1  0
 10 11  2  0
 13 15  1  0
 13 12  1  0
 14 13  2  0
 16 17  1  0
 16 15  1  0
 17 18  1  0
 19 18  1  1
 20 10  1  0
 20 19  1  0
 21 22  2  0
 21 19  1  0
 24 23  1  6
 24 25  1  0
 25 21  1  0
 26 24  1  0
 26 28  1  0
 27 26  2  0
M  END
$$$$
