FRA.pdb
     RDKit          3D

 28 28  0  0  1  0  0  0  0  0999 V2000
    8.8380  -16.0374   26.6084 N   0  0  0  0  0  0  0  0  0  0  0  0
    7.5518  -16.5735   26.2120 C   0  0  1  0  0  0  0  0  0  0  0  0
    6.4285  -15.6770   26.6815 C   0  0  0  0  0  0  0  0  0  0  0  0
    6.8791  -14.2671   26.5455 C   0  0  0  0  0  0  0  0  0  0  0  0
    6.2934  -13.4350   25.5864 C   0  0  0  0  0  0  0  0  0  0  0  0
    6.7189  -12.1280   25.4686 C   0  0  0  0  0  0  0  0  0  0  0  0
    7.7109  -11.5909   26.2632 C   0  0  0  0  0  0  0  0  0  0  0  0
    8.2910  -12.4066   27.2096 C   0  0  0  0  0  0  0  0  0  0  0  0
    7.8713  -13.7222   27.3372 C   0  0  0  0  0  0  0  0  0  0  0  0
    7.4903  -16.7965   24.7351 C   0  0  0  0  0  0  0  0  0  0  0  0
    6.4900  -17.3356   24.1927 O   0  0  0  0  0  0  0  0  0  0  0  0
    8.7682  -11.8111   18.9903 N   0  0  0  0  0  0  0  0  0  0  0  0
    8.2124  -13.0555   18.5912 C   0  0  0  0  0  0  0  0  0  0  0  0
    8.3683  -13.4465   17.3619 N   0  0  0  0  0  0  0  0  0  0  0  0
    7.4918  -13.8870   19.4914 N   0  0  0  0  0  0  0  0  0  0  0  0
    7.3796  -13.5073   20.8807 C   0  0  0  0  0  0  0  0  0  0  0  0
    8.2513  -14.4468   21.7014 C   0  0  0  0  0  0  0  0  0  0  0  0
    7.7402  -15.8611   21.6343 C   0  0  0  0  0  0  0  0  0  0  0  0
    8.5668  -16.8158   22.4457 C   0  0  2  0  0  0  0  0  0  0  0  0
    8.5497  -16.4148   23.8705 N   0  0  0  0  0  0  0  0  0  0  0  0
    9.9800  -16.8363   22.0272 C   0  0  0  0  0  0  0  0  0  0  0  0
   10.3516  -17.2274   20.8950 O   0  0  0  0  0  0  0  0  0  0  0  0
    7.9666  -14.3263   17.0052 C   0  0  0  0  0  0  0  0  0  0  0  0
   13.2928  -15.4279   22.7385 C   0  0  2  0  0  0  0  0  0  0  0  0
   12.4442  -16.6621   22.5566 N   0  0  0  0  0  0  0  0  0  0  0  0
   11.0558  -16.4068   22.8890 C   0  0  0  0  0  0  0  0  0  0  0  0
   12.9663  -17.7150   23.4757 O   0  0  0  0  0  0  0  0  0  0  0  0
   12.2436  -18.2216   24.3901 O   0  0  0  0  0  0  0  0  0  0  0  0
  2  1  1  6
  2 10  1  0
  2  3  1  0
  3  4  1  0
  4  9  2  0
  5  4  1  0
  5  6  2  0
  6  7  1  0
  7  8  2  0
  9  8  1  0
 10 11  2  0
 13 15  1  0
 13 12  1  0
 14 13  2  0
 16 17  1  0
 16 15  1  0
 17 18  1  0
 19 18  1  6
 20 10  1  0
 20 19  1  0
 21 22  2  0
 21 19  1  0
 24 23  1  6
 24 25  1  0
 25 21  1  0
 26 24  1  0
 26 28  1  0
 27 26  2  0
M  END
$$$$
