FRA.pdb
     RDKit          3D

 28 28  0  0  1  0  0  0  0  0999 V2000
    7.5364  -16.8920   26.5235 N   0  0  0  0  0  0  0  0  0  0  0  0
    7.5361  -15.9314   25.4391 C   0  0  1  0  0  0  0  0  0  0  0  0
    8.4617  -14.7757   25.7450 C   0  0  0  0  0  0  0  0  0  0  0  0
    7.6413  -13.6624   26.2898 C   0  0  0  0  0  0  0  0  0  0  0  0
    7.8804  -13.1849   27.5822 C   0  0  0  0  0  0  0  0  0  0  0  0
    7.1132  -12.1511   28.0782 C   0  0  0  0  0  0  0  0  0  0  0  0
    6.1040  -11.5541   27.3508 C   0  0  0  0  0  0  0  0  0  0  0  0
    5.8645  -12.0210   26.0772 C   0  0  0  0  0  0  0  0  0  0  0  0
    6.6294  -13.0598   25.5679 C   0  0  0  0  0  0  0  0  0  0  0  0
    7.8874  -16.5819   24.1398 C   0  0  0  0  0  0  0  0  0  0  0  0
    8.2262  -17.7931   24.0814 O   0  0  0  0  0  0  0  0  0  0  0  0
    9.2891  -13.5154   16.8042 N   0  0  0  0  0  0  0  0  0  0  0  0
    8.4891  -13.1522   17.9201 C   0  0  0  0  0  0  0  0  0  0  0  0
    8.6212  -11.9625   18.4255 N   0  0  0  0  0  0  0  0  0  0  0  0
    7.5494  -14.0465   18.5017 N   0  0  0  0  0  0  0  0  0  0  0  0
    7.4539  -15.4016   18.0105 C   0  0  0  0  0  0  0  0  0  0  0  0
    7.8347  -16.3448   19.1425 C   0  0  0  0  0  0  0  0  0  0  0  0
    7.6877  -15.6744   20.4821 C   0  0  0  0  0  0  0  0  0  0  0  0
    8.1201  -16.5518   21.6207 C   0  0  2  0  0  0  0  0  0  0  0  0
    7.8578  -15.8732   22.9100 N   0  0  0  0  0  0  0  0  0  0  0  0
    9.5625  -16.8535   21.5853 C   0  0  0  0  0  0  0  0  0  0  0  0
   10.0449  -17.8083   20.9308 O   0  0  0  0  0  0  0  0  0  0  0  0
    8.1057  -11.6566   19.2642 C   0  0  0  0  0  0  0  0  0  0  0  0
   12.6746  -14.9816   21.8085 C   0  0  2  0  0  0  0  0  0  0  0  0
   11.9646  -16.2773   22.1149 N   0  0  0  0  0  0  0  0  0  0  0  0
   10.5414  -16.0722   22.3036 C   0  0  0  0  0  0  0  0  0  0  0  0
   12.5371  -16.8239   23.3796 O   0  0  0  0  0  0  0  0  0  0  0  0
   11.8168  -17.0228   24.4076 O   0  0  0  0  0  0  0  0  0  0  0  0
  2  1  1  1
  2 10  1  0
  2  3  1  0
  3  4  1  0
  4  9  2  0
  5  4  1  0
  5  6  2  0
  6  7  1  0
  7  8  2  0
  9  8  1  0
 10 11  2  0
 13 15  1  0
 13 12  1  0
 14 13  2  0
 16 17  1  0
 16 15  1  0
 17 18  1  0
 19 18  1  6
 20 10  1  0
 20 19  1  0
 21 22  2  0
 21 19  1  0
 24 23  1  6
 24 25  1  0
 25 21  1  0
 26 24  1  0
 26 28  1  0
 27 26  2  0
M  END
$$$$
