FRA.pdb
     RDKit          3D

 28 28  0  0  1  0  0  0  0  0999 V2000
    5.9805  -15.9746   25.5567 N   0  0  0  0  0  0  0  0  0  0  0  0
    7.2223  -15.4528   25.0234 C   0  0  1  0  0  0  0  0  0  0  0  0
    8.0256  -14.7673   26.1054 C   0  0  0  0  0  0  0  0  0  0  0  0
    7.4123  -13.4375   26.3596 C   0  0  0  0  0  0  0  0  0  0  0  0
    6.5695  -13.2549   27.4605 C   0  0  0  0  0  0  0  0  0  0  0  0
    6.0054  -12.0166   27.6874 C   0  0  0  0  0  0  0  0  0  0  0  0
    6.2348  -10.9298   26.8686 C   0  0  0  0  0  0  0  0  0  0  0  0
    7.0643  -11.1046   25.7828 C   0  0  0  0  0  0  0  0  0  0  0  0
    7.6370  -12.3451   25.5447 C   0  0  0  0  0  0  0  0  0  0  0  0
    8.0167  -16.5267   24.3523 C   0  0  0  0  0  0  0  0  0  0  0  0
    8.1556  -17.6646   24.8731 O   0  0  0  0  0  0  0  0  0  0  0  0
    6.9418  -17.9808   17.2998 N   0  0  0  0  0  0  0  0  0  0  0  0
    8.1008  -18.6663   17.7513 C   0  0  0  0  0  0  0  0  0  0  0  0
    8.9985  -19.0205   16.8813 N   0  0  0  0  0  0  0  0  0  0  0  0
    8.3112  -18.9772   19.1225 N   0  0  0  0  0  0  0  0  0  0  0  0
    7.6448  -18.2002   20.1417 C   0  0  0  0  0  0  0  0  0  0  0  0
    8.3919  -16.8836   20.2992 C   0  0  0  0  0  0  0  0  0  0  0  0
    9.6952  -17.0811   21.0259 C   0  0  0  0  0  0  0  0  0  0  0  0
    9.5072  -17.3651   22.4878 C   0  0  2  0  0  0  0  0  0  0  0  0
    8.6530  -16.3223   23.0997 N   0  0  0  0  0  0  0  0  0  0  0  0
   10.7796  -17.3625   23.2321 C   0  0  0  0  0  0  0  0  0  0  0  0
   11.4195  -16.3147   23.4874 O   0  0  0  0  0  0  0  0  0  0  0  0
    9.8124  -19.6020   17.1305 C   0  0  0  0  0  0  0  0  0  0  0  0
   12.9075  -19.8136   25.1965 C   0  0  1  0  0  0  0  0  0  0  0  0
   12.6736  -18.5446   24.4144 N   0  0  0  0  0  0  0  0  0  0  0  0
   11.3955  -18.5699   23.7294 C   0  0  0  0  0  0  0  0  0  0  0  0
   13.7565  -18.4304   23.3945 O   0  0  0  0  0  0  0  0  0  0  0  0
   13.5273  -18.5965   22.1556 O   0  0  0  0  0  0  0  0  0  0  0  0
  2  1  1  1
  2 10  1  0
  2  3  1  0
  3  4  1  0
  4  9  2  0
  5  4  1  0
  5  6  2  0
  6  7  1  0
  7  8  2  0
  9  8  1  0
 10 11  2  0
 13 15  1  0
 13 12  1  0
 14 13  2  0
 16 17  1  0
 16 15  1  0
 17 18  1  0
 19 18  1  6
 20 10  1  0
 20 19  1  0
 21 22  2  0
 21 19  1  0
 24 23  1  1
 24 25  1  0
 25 21  1  0
 26 24  1  0
 26 28  1  0
 27 26  2  0
M  END
$$$$
