FRA.pdb
     RDKit          3D

 28 28  0  0  1  0  0  0  0  0999 V2000
    6.5514  -16.4452   26.2411 N   0  0  0  0  0  0  0  0  0  0  0  0
    7.0028  -15.5311   25.2118 C   0  0  1  0  0  0  0  0  0  0  0  0
    7.9541  -14.5048   25.7844 C   0  0  0  0  0  0  0  0  0  0  0  0
    7.1565  -13.5292   26.5727 C   0  0  0  0  0  0  0  0  0  0  0  0
    6.0223  -12.9360   26.0096 C   0  0  0  0  0  0  0  0  0  0  0  0
    5.2890  -12.0318   26.7499 C   0  0  0  0  0  0  0  0  0  0  0  0
    5.6240  -11.6770   28.0406 C   0  0  0  0  0  0  0  0  0  0  0  0
    6.7406  -12.2586   28.5997 C   0  0  0  0  0  0  0  0  0  0  0  0
    7.4855  -13.1689   27.8650 C   0  0  0  0  0  0  0  0  0  0  0  0
    7.6203  -16.2676   24.0668 C   0  0  0  0  0  0  0  0  0  0  0  0
    8.0485  -17.4446   24.1965 O   0  0  0  0  0  0  0  0  0  0  0  0
    9.5091  -13.4170   16.4512 N   0  0  0  0  0  0  0  0  0  0  0  0
    9.7457  -13.2286   17.8388 C   0  0  0  0  0  0  0  0  0  0  0  0
   10.9270  -13.4873   18.3143 N   0  0  0  0  0  0  0  0  0  0  0  0
    8.7338  -12.7667   18.7241 N   0  0  0  0  0  0  0  0  0  0  0  0
    7.6551  -13.6510   19.1000 C   0  0  0  0  0  0  0  0  0  0  0  0
    7.9860  -14.2527   20.4582 C   0  0  0  0  0  0  0  0  0  0  0  0
    8.1362  -15.7478   20.3689 C   0  0  0  0  0  0  0  0  0  0  0  0
    8.4767  -16.3766   21.6887 C   0  0  2  0  0  0  0  0  0  0  0  0
    7.7560  -15.6832   22.7802 N   0  0  0  0  0  0  0  0  0  0  0  0
    9.9138  -16.2856   22.0038 C   0  0  0  0  0  0  0  0  0  0  0  0
   10.4471  -15.2501   22.4688 O   0  0  0  0  0  0  0  0  0  0  0  0
   11.1499  -13.4078   19.3176 C   0  0  0  0  0  0  0  0  0  0  0  0
   12.9233  -18.5924   22.1729 C   0  0  1  0  0  0  0  0  0  0  0  0
   12.2494  -17.2473   22.0574 N   0  0  0  0  0  0  0  0  0  0  0  0
   10.8283  -17.3845   21.8023 C   0  0  0  0  0  0  0  0  0  0  0  0
   12.8696  -16.5226   20.9102 O   0  0  0  0  0  0  0  0  0  0  0  0
   12.3404  -16.5235   19.7548 O   0  0  0  0  0  0  0  0  0  0  0  0
  2  1  1  1
  2 10  1  0
  2  3  1  0
  3  4  1  0
  4  9  2  0
  5  4  1  0
  5  6  2  0
  6  7  1  0
  7  8  2  0
  9  8  1  0
 10 11  2  0
 13 15  1  0
 13 12  1  0
 14 13  2  0
 16 17  1  0
 16 15  1  0
 17 18  1  0
 19 18  1  6
 20 10  1  0
 20 19  1  0
 21 22  2  0
 21 19  1  0
 24 23  1  1
 24 25  1  0
 25 21  1  0
 26 24  1  0
 26 28  1  0
 27 26  2  0
M  END
$$$$
