FRA.pdb
     RDKit          3D

 28 28  0  0  1  0  0  0  0  0999 V2000
    5.8086  -18.1299   25.4266 N   0  0  0  0  0  0  0  0  0  0  0  0
    6.2336  -16.7500   25.3091 C   0  0  1  0  0  0  0  0  0  0  0  0
    6.8020  -16.2497   26.6179 C   0  0  0  0  0  0  0  0  0  0  0  0
    6.9153  -14.7701   26.5333 C   0  0  0  0  0  0  0  0  0  0  0  0
    8.1749  -14.1689   26.4475 C   0  0  0  0  0  0  0  0  0  0  0  0
    8.2690  -12.7948   26.3693 C   0  0  0  0  0  0  0  0  0  0  0  0
    7.1634  -11.9690   26.3716 C   0  0  0  0  0  0  0  0  0  0  0  0
    5.9203  -12.5565   26.4559 C   0  0  0  0  0  0  0  0  0  0  0  0
    5.8135  -13.9370   26.5350 C   0  0  0  0  0  0  0  0  0  0  0  0
    7.2094  -16.5777   24.1897 C   0  0  0  0  0  0  0  0  0  0  0  0
    8.0719  -17.4569   23.9283 O   0  0  0  0  0  0  0  0  0  0  0  0
    7.5723  -15.4488   17.4817 N   0  0  0  0  0  0  0  0  0  0  0  0
    8.3768  -14.3575   17.0590 C   0  0  0  0  0  0  0  0  0  0  0  0
    9.0618  -14.4718   15.9608 N   0  0  0  0  0  0  0  0  0  0  0  0
    8.4573  -13.1451   17.7970 N   0  0  0  0  0  0  0  0  0  0  0  0
    7.8009  -13.0445   19.0799 C   0  0  0  0  0  0  0  0  0  0  0  0
    8.3729  -14.1208   19.9914 C   0  0  0  0  0  0  0  0  0  0  0  0
    7.5872  -14.2239   21.2711 C   0  0  0  0  0  0  0  0  0  0  0  0
    8.0642  -15.3381   22.1566 C   0  0  2  0  0  0  0  0  0  0  0  0
    7.2157  -15.4208   23.3668 N   0  0  0  0  0  0  0  0  0  0  0  0
    9.4485  -15.1373   22.6215 C   0  0  0  0  0  0  0  0  0  0  0  0
   10.1618  -14.1757   22.2481 O   0  0  0  0  0  0  0  0  0  0  0  0
    9.5700  -13.6799   15.5399 C   0  0  0  0  0  0  0  0  0  0  0  0
   11.8519  -16.6644   25.1333 C   0  0  1  0  0  0  0  0  0  0  0  0
   11.5017  -15.8901   23.8865 N   0  0  0  0  0  0  0  0  0  0  0  0
   10.0990  -16.0339   23.5474 C   0  0  0  0  0  0  0  0  0  0  0  0
   12.3196  -16.4364   22.7646 O   0  0  0  0  0  0  0  0  0  0  0  0
   11.7827  -16.9926   21.7559 O   0  0  0  0  0  0  0  0  0  0  0  0
  2  1  1  1
  2 10  1  0
  2  3  1  0
  3  4  1  0
  4  9  2  0
  5  4  1  0
  5  6  2  0
  6  7  1  0
  7  8  2  0
  9  8  1  0
 10 11  2  0
 13 15  1  0
 13 12  1  0
 14 13  2  0
 16 17  1  0
 16 15  1  0
 17 18  1  0
 19 18  1  6
 20 10  1  0
 20 19  1  0
 21 22  2  0
 21 19  1  0
 24 23  1  1
 24 25  1  0
 25 21  1  0
 26 24  1  0
 26 28  1  0
 27 26  2  0
M  END
$$$$
