FRA.pdb
     RDKit          3D

 28 28  0  0  1  0  0  0  0  0999 V2000
    7.8341  -18.0533   27.2723 N   0  0  0  0  0  0  0  0  0  0  0  0
    7.0876  -17.1024   26.4740 C   0  0  1  0  0  0  0  0  0  0  0  0
    6.9194  -15.7948   27.2142 C   0  0  0  0  0  0  0  0  0  0  0  0
    8.2721  -15.2895   27.5664 C   0  0  0  0  0  0  0  0  0  0  0  0
    8.6649  -14.0073   27.1698 C   0  0  0  0  0  0  0  0  0  0  0  0
    9.9226  -13.5480   27.5019 C   0  0  0  0  0  0  0  0  0  0  0  0
   10.8287  -14.3030   28.2182 C   0  0  0  0  0  0  0  0  0  0  0  0
   10.4464  -15.5667   28.6112 C   0  0  0  0  0  0  0  0  0  0  0  0
    9.1845  -16.0392   28.2830 C   0  0  0  0  0  0  0  0  0  0  0  0
    7.7287  -16.8949   25.1396 C   0  0  0  0  0  0  0  0  0  0  0  0
    8.6601  -17.6393   24.7348 O   0  0  0  0  0  0  0  0  0  0  0  0
    7.9698  -12.6508   17.8478 N   0  0  0  0  0  0  0  0  0  0  0  0
    8.8460  -13.6182   18.4075 C   0  0  0  0  0  0  0  0  0  0  0  0
   10.0580  -13.2639   18.7137 N   0  0  0  0  0  0  0  0  0  0  0  0
    8.4411  -14.9604   18.6437 N   0  0  0  0  0  0  0  0  0  0  0  0
    7.6311  -15.2695   19.7992 C   0  0  0  0  0  0  0  0  0  0  0  0
    7.9364  -14.2435   20.8811 C   0  0  0  0  0  0  0  0  0  0  0  0
    7.2477  -14.5936   22.1729 C   0  0  0  0  0  0  0  0  0  0  0  0
    7.9690  -15.6601   22.9446 C   0  0  2  0  0  0  0  0  0  0  0  0
    7.3242  -15.8541   24.2629 N   0  0  0  0  0  0  0  0  0  0  0  0
    9.3772  -15.3125   23.2076 C   0  0  0  0  0  0  0  0  0  0  0  0
    9.7238  -14.4776   24.0768 O   0  0  0  0  0  0  0  0  0  0  0  0
   10.7612  -13.9348   19.0573 C   0  0  0  0  0  0  0  0  0  0  0  0
   12.2168  -16.1078   24.1912 C   0  0  2  0  0  0  0  0  0  0  0  0
   11.8557  -15.6051   22.8151 N   0  0  0  0  0  0  0  0  0  0  0  0
   10.4762  -15.9064   22.4839 C   0  0  0  0  0  0  0  0  0  0  0  0
   12.7411  -16.2928   21.8307 O   0  0  0  0  0  0  0  0  0  0  0  0
   12.2758  -17.0878   20.9552 O   0  0  0  0  0  0  0  0  0  0  0  0
  2  1  1  1
  2 10  1  0
  2  3  1  0
  3  4  1  0
  4  9  2  0
  5  4  1  0
  5  6  2  0
  6  7  1  0
  7  8  2  0
  9  8  1  0
 10 11  2  0
 13 15  1  0
 13 12  1  0
 14 13  2  0
 16 17  1  0
 16 15  1  0
 17 18  1  0
 19 18  1  1
 20 10  1  0
 20 19  1  0
 21 22  2  0
 21 19  1  0
 24 23  1  1
 24 25  1  0
 25 21  1  0
 26 24  1  0
 26 28  1  0
 27 26  2  0
M  END
$$$$
