FRA.pdb
     RDKit          3D

 28 28  0  0  1  0  0  0  0  0999 V2000
    5.6436  -17.0431   26.0855 N   0  0  0  0  0  0  0  0  0  0  0  0
    6.3992  -15.9386   25.5307 C   0  0  1  0  0  0  0  0  0  0  0  0
    7.2625  -15.2923   26.5905 C   0  0  0  0  0  0  0  0  0  0  0  0
    7.0230  -13.8261   26.5462 C   0  0  0  0  0  0  0  0  0  0  0  0
    5.9069  -13.2801   27.1877 C   0  0  0  0  0  0  0  0  0  0  0  0
    5.6938  -11.9178   27.1405 C   0  0  0  0  0  0  0  0  0  0  0  0
    6.5414  -11.0516   26.4807 C   0  0  0  0  0  0  0  0  0  0  0  0
    7.6423  -11.5847   25.8471 C   0  0  0  0  0  0  0  0  0  0  0  0
    7.8666  -12.9526   25.8878 C   0  0  0  0  0  0  0  0  0  0  0  0
    7.2140  -16.3762   24.3562 C   0  0  0  0  0  0  0  0  0  0  0  0
    7.9161  -17.4206   24.3956 O   0  0  0  0  0  0  0  0  0  0  0  0
    8.1541  -12.3661   17.1165 N   0  0  0  0  0  0  0  0  0  0  0  0
    8.1778  -13.7812   16.9980 C   0  0  0  0  0  0  0  0  0  0  0  0
    8.7661  -14.3146   15.9696 N   0  0  0  0  0  0  0  0  0  0  0  0
    7.5797  -14.6327   17.9667 N   0  0  0  0  0  0  0  0  0  0  0  0
    8.3382  -15.7318   18.5175 C   0  0  0  0  0  0  0  0  0  0  0  0
    9.0026  -15.2542   19.8007 C   0  0  0  0  0  0  0  0  0  0  0  0
    7.9889  -15.0485   20.8943 C   0  0  0  0  0  0  0  0  0  0  0  0
    8.2082  -15.9588   22.0675 C   0  0  2  0  0  0  0  0  0  0  0  0
    7.2396  -15.6421   23.1413 N   0  0  0  0  0  0  0  0  0  0  0  0
    9.5534  -15.8127   22.6523 C   0  0  0  0  0  0  0  0  0  0  0  0
    9.8297  -14.9547   23.5242 O   0  0  0  0  0  0  0  0  0  0  0  0
    8.8969  -15.3324   15.8724 C   0  0  0  0  0  0  0  0  0  0  0  0
   12.0709  -16.8334   24.2626 C   0  0  1  0  0  0  0  0  0  0  0  0
   11.9961  -16.4382   22.8083 N   0  0  0  0  0  0  0  0  0  0  0  0
   10.6667  -16.6477   22.2679 C   0  0  0  0  0  0  0  0  0  0  0  0
   12.9560  -17.2944   22.0523 O   0  0  0  0  0  0  0  0  0  0  0  0
   12.5663  -18.0927   21.1435 O   0  0  0  0  0  0  0  0  0  0  0  0
  2  1  1  1
  2 10  1  0
  2  3  1  0
  3  4  1  0
  4  9  2  0
  5  4  1  0
  5  6  2  0
  6  7  1  0
  7  8  2  0
  9  8  1  0
 10 11  2  0
 13 15  1  0
 13 12  1  0
 14 13  2  0
 16 17  1  0
 16 15  1  0
 17 18  1  0
 19 18  1  6
 20 10  1  0
 20 19  1  0
 21 22  2  0
 21 19  1  0
 24 23  1  1
 24 25  1  0
 25 21  1  0
 26 24  1  0
 26 28  1  0
 27 26  2  0
M  END
$$$$
