FRA.pdb
     RDKit          3D

 28 28  0  0  1  0  0  0  0  0999 V2000
    6.6635  -16.6081   25.7600 N   0  0  0  0  0  0  0  0  0  0  0  0
    6.9256  -15.4330   24.9544 C   0  0  1  0  0  0  0  0  0  0  0  0
    7.9344  -14.5323   25.6305 C   0  0  0  0  0  0  0  0  0  0  0  0
    7.1885  -13.5379   26.4452 C   0  0  0  0  0  0  0  0  0  0  0  0
    7.5630  -13.2977   27.7709 C   0  0  0  0  0  0  0  0  0  0  0  0
    6.8640  -12.3726   28.5184 C   0  0  0  0  0  0  0  0  0  0  0  0
    5.7951  -11.6597   28.0152 C   0  0  0  0  0  0  0  0  0  0  0  0
    5.4222  -11.8927   26.7098 C   0  0  0  0  0  0  0  0  0  0  0  0
    6.1176  -12.8204   25.9487 C   0  0  0  0  0  0  0  0  0  0  0  0
    7.3675  -15.8088   23.5767 C   0  0  0  0  0  0  0  0  0  0  0  0
    7.6432  -17.0003   23.2768 O   0  0  0  0  0  0  0  0  0  0  0  0
   10.0746  -14.9129   16.5275 N   0  0  0  0  0  0  0  0  0  0  0  0
    8.8311  -14.4853   15.9910 C   0  0  0  0  0  0  0  0  0  0  0  0
    8.4648  -14.9292   14.8260 N   0  0  0  0  0  0  0  0  0  0  0  0
    7.9744  -13.5884   16.6859 N   0  0  0  0  0  0  0  0  0  0  0  0
    8.3502  -13.1129   17.9972 C   0  0  0  0  0  0  0  0  0  0  0  0
    8.4893  -14.3174   18.9170 C   0  0  0  0  0  0  0  0  0  0  0  0
    7.8647  -14.0513   20.2603 C   0  0  0  0  0  0  0  0  0  0  0  0
    7.9392  -15.2355   21.1797 C   0  0  2  0  0  0  0  0  0  0  0  0
    7.4992  -14.8487   22.5392 N   0  0  0  0  0  0  0  0  0  0  0  0
    9.3091  -15.7637   21.3109 C   0  0  0  0  0  0  0  0  0  0  0  0
   10.2452  -15.1126   21.8329 O   0  0  0  0  0  0  0  0  0  0  0  0
    7.5786  -14.6492   14.3801 C   0  0  0  0  0  0  0  0  0  0  0  0
   11.1100  -19.0677   20.8579 C   0  0  1  0  0  0  0  0  0  0  0  0
   11.0478  -17.5641   20.9677 N   0  0  0  0  0  0  0  0  0  0  0  0
    9.6868  -17.0779   20.8475 C   0  0  0  0  0  0  0  0  0  0  0  0
   11.8567  -16.9909   19.8528 O   0  0  0  0  0  0  0  0  0  0  0  0
   11.4616  -17.0420   18.6460 O   0  0  0  0  0  0  0  0  0  0  0  0
  2  1  1  1
  2 10  1  0
  2  3  1  0
  3  4  1  0
  4  9  2  0
  5  4  1  0
  5  6  2  0
  6  7  1  0
  7  8  2  0
  9  8  1  0
 10 11  2  0
 13 15  1  0
 13 12  1  0
 14 13  2  0
 16 17  1  0
 16 15  1  0
 17 18  1  0
 19 18  1  6
 20 10  1  0
 20 19  1  0
 21 22  2  0
 21 19  1  0
 24 23  1  1
 24 25  1  0
 25 21  1  0
 26 24  1  0
 26 28  1  0
 27 26  2  0
M  END
$$$$
