FRA.pdb
     RDKit          3D

 28 28  0  0  1  0  0  0  0  0999 V2000
    5.5302  -15.8798   26.4147 N   0  0  0  0  0  0  0  0  0  0  0  0
    6.6617  -15.7629   25.5176 C   0  0  1  0  0  0  0  0  0  0  0  0
    7.6987  -14.8179   26.0814 C   0  0  0  0  0  0  0  0  0  0  0  0
    7.1222  -13.4480   26.0766 C   0  0  0  0  0  0  0  0  0  0  0  0
    6.5887  -12.9096   27.2517 C   0  0  0  0  0  0  0  0  0  0  0  0
    6.0560  -11.6371   27.2364 C   0  0  0  0  0  0  0  0  0  0  0  0
    6.0225  -10.8549   26.1001 C   0  0  0  0  0  0  0  0  0  0  0  0
    6.5468  -11.3808   24.9399 C   0  0  0  0  0  0  0  0  0  0  0  0
    7.0850  -12.6590   24.9433 C   0  0  0  0  0  0  0  0  0  0  0  0
    7.2524  -17.1022   25.2140 C   0  0  0  0  0  0  0  0  0  0  0  0
    7.3619  -17.9888   26.1013 O   0  0  0  0  0  0  0  0  0  0  0  0
    8.7918  -22.7439   22.3933 N   0  0  0  0  0  0  0  0  0  0  0  0
    9.4563  -22.9380   21.1532 C   0  0  0  0  0  0  0  0  0  0  0  0
   10.1354  -24.0305   20.9700 N   0  0  0  0  0  0  0  0  0  0  0  0
    9.4029  -21.9773   20.1066 N   0  0  0  0  0  0  0  0  0  0  0  0
    8.8108  -20.6832   20.3541 C   0  0  0  0  0  0  0  0  0  0  0  0
    8.8524  -20.4209   21.8527 C   0  0  0  0  0  0  0  0  0  0  0  0
    8.3152  -19.0536   22.1808 C   0  0  0  0  0  0  0  0  0  0  0  0
    8.3708  -18.7453   23.6488 C   0  0  2  0  0  0  0  0  0  0  0  0
    7.7186  -17.4438   23.9173 N   0  0  0  0  0  0  0  0  0  0  0  0
    9.7523  -18.6398   24.1521 C   0  0  0  0  0  0  0  0  0  0  0  0
   10.4048  -17.5689   24.1374 O   0  0  0  0  0  0  0  0  0  0  0  0
   10.6822  -24.2059   20.1139 C   0  0  0  0  0  0  0  0  0  0  0  0
   12.3914  -18.2745   24.9769 C   0  0  2  0  0  0  0  0  0  0  0  0
   11.7705  -19.6046   25.3262 N   0  0  0  0  0  0  0  0  0  0  0  0
   10.4700  -19.7641   24.7046 C   0  0  0  0  0  0  0  0  0  0  0  0
   11.5977  -19.6531   26.8073 O   0  0  0  0  0  0  0  0  0  0  0  0
   10.4467  -19.6431   27.3461 O   0  0  0  0  0  0  0  0  0  0  0  0
  2  1  1  1
  2 10  1  0
  2  3  1  0
  3  4  1  0
  4  9  2  0
  5  4  1  0
  5  6  2  0
  6  7  1  0
  7  8  2  0
  9  8  1  0
 10 11  2  0
 13 15  1  0
 13 12  1  0
 14 13  2  0
 16 17  1  0
 16 15  1  0
 17 18  1  0
 19 18  1  6
 20 10  1  0
 20 19  1  0
 21 22  2  0
 21 19  1  0
 24 23  1  6
 24 25  1  0
 25 21  1  0
 26 24  1  0
 26 28  1  0
 27 26  2  0
M  END
$$$$
