FRA.pdb
     RDKit          3D

 28 28  0  0  1  0  0  0  0  0999 V2000
    5.7508  -16.8609   25.0928 N   0  0  0  0  0  0  0  0  0  0  0  0
    6.6696  -15.7971   24.7422 C   0  0  1  0  0  0  0  0  0  0  0  0
    7.3873  -15.2812   25.9688 C   0  0  0  0  0  0  0  0  0  0  0  0
    6.9525  -13.8787   26.1991 C   0  0  0  0  0  0  0  0  0  0  0  0
    5.8607  -13.6126   27.0313 C   0  0  0  0  0  0  0  0  0  0  0  0
    5.4653  -12.3072   27.2383 C   0  0  0  0  0  0  0  0  0  0  0  0
    6.1040  -11.2318   26.6555 C   0  0  0  0  0  0  0  0  0  0  0  0
    7.1801  -11.4888   25.8348 C   0  0  0  0  0  0  0  0  0  0  0  0
    7.5866  -12.7971   25.6192 C   0  0  0  0  0  0  0  0  0  0  0  0
    7.6360  -16.2411   23.6916 C   0  0  0  0  0  0  0  0  0  0  0  0
    7.9296  -17.4560   23.5395 O   0  0  0  0  0  0  0  0  0  0  0  0
    7.0588  -12.9937   17.3031 N   0  0  0  0  0  0  0  0  0  0  0  0
    8.0642  -13.9913   17.1985 C   0  0  0  0  0  0  0  0  0  0  0  0
    9.0095  -13.8391   16.3201 N   0  0  0  0  0  0  0  0  0  0  0  0
    8.0707  -15.1498   18.0225 N   0  0  0  0  0  0  0  0  0  0  0  0
    7.3192  -15.1533   19.2562 C   0  0  0  0  0  0  0  0  0  0  0  0
    7.9860  -14.1834   20.2209 C   0  0  0  0  0  0  0  0  0  0  0  0
    9.3139  -14.7120   20.6930 C   0  0  0  0  0  0  0  0  0  0  0  0
    9.1747  -15.7820   21.7365 C   0  0  2  0  0  0  0  0  0  0  0  0
    8.2704  -15.3224   22.8146 N   0  0  0  0  0  0  0  0  0  0  0  0
   10.4598  -16.1192   22.3750 C   0  0  0  0  0  0  0  0  0  0  0  0
   11.4666  -16.4938   21.7279 O   0  0  0  0  0  0  0  0  0  0  0  0
    9.7463  -14.5446   16.1714 C   0  0  0  0  0  0  0  0  0  0  0  0
   12.0910  -15.8651   25.7821 C   0  0  2  0  0  0  0  0  0  0  0  0
   11.9084  -16.4748   24.4140 N   0  0  0  0  0  0  0  0  0  0  0  0
   10.6655  -16.0458   23.8021 C   0  0  0  0  0  0  0  0  0  0  0  0
   11.8706  -17.9575   24.5760 O   0  0  0  0  0  0  0  0  0  0  0  0
   10.8507  -18.6397   24.2452 O   0  0  0  0  0  0  0  0  0  0  0  0
  2  1  1  1
  2 10  1  0
  2  3  1  0
  3  4  1  0
  4  9  2  0
  5  4  1  0
  5  6  2  0
  6  7  1  0
  7  8  2  0
  9  8  1  0
 10 11  2  0
 13 15  1  0
 13 12  1  0
 14 13  2  0
 16 17  1  0
 16 15  1  0
 17 18  1  0
 19 18  1  6
 20 10  1  0
 20 19  1  0
 21 22  2  0
 21 19  1  0
 24 23  1  6
 24 25  1  0
 25 21  1  0
 26 24  1  0
 26 28  1  0
 27 26  2  0
M  END
$$$$
