SQS.pdb
     RDKit          3D

 22 21  0  0  1  0  0  0  0  0999 V2000
   12.3167  -17.7532   17.0490 O   0  0  0  0  0  0  0  0  0  0  0  0
   12.6570  -18.2605   18.3003 C   0  0  0  0  0  0  0  0  0  0  0  0
   14.1426  -18.5697   18.3732 C   0  0  2  0  0  0  0  0  0  0  0  0
   14.3826  -19.8190   17.6760 N   0  0  0  0  0  0  0  0  0  0  0  0
   14.5291  -18.7475   19.7854 C   0  0  0  0  0  0  0  0  0  0  0  0
   14.4291  -19.8811   20.3589 O   0  0  0  0  0  0  0  0  0  0  0  0
   19.2859  -16.1182   23.0079 N   0  0  0  0  0  0  0  0  0  0  0  0
   18.5941  -15.9834   21.7911 C   0  0  0  0  0  0  0  0  0  0  0  0
   19.2111  -15.6426   20.7529 O   0  0  0  0  0  0  0  0  0  0  0  0
   17.1211  -16.2323   21.6690 C   0  0  0  0  0  0  0  0  0  0  0  0
   16.7755  -17.5858   22.1895 C   0  0  0  0  0  0  0  0  0  0  0  0
   15.3244  -17.9021   22.0345 C   0  0  2  0  0  0  0  0  0  0  0  0
   15.0297  -17.7015   20.5985 N   0  0  0  0  0  0  0  0  0  0  0  0
   14.4270  -17.0647   22.8509 C   0  0  0  0  0  0  0  0  0  0  0  0
   14.8229  -16.0784   23.4627 O   0  0  0  0  0  0  0  0  0  0  0  0
   11.2302  -15.6248   21.6495 O   0  0  0  0  0  0  0  0  0  0  0  0
   10.8715  -16.2454   22.8451 C   0  0  0  0  0  0  0  0  0  0  0  0
   12.0706  -16.6484   23.6430 C   0  0  2  0  0  0  0  0  0  0  0  0
   13.0497  -17.3951   22.9457 N   0  0  0  0  0  0  0  0  0  0  0  0
   11.6284  -17.3647   24.8457 C   0  0  0  0  0  0  0  0  0  0  0  0
   12.1122  -18.6085   25.2244 O   0  0  0  0  0  0  0  0  0  0  0  0
   10.7636  -16.8291   25.5794 O   0  0  0  0  0  0  0  0  0  0  0  0
  2  1  1  0
  3  4  1  6
  3  2  1  0
  5  3  1  0
  6  5  2  0
  7  8  1  0
  8 10  1  0
  8  9  2  0
 10 11  1  0
 12 11  1  6
 12 13  1  0
 12 14  1  0
 13  5  1  0
 14 19  1  0
 15 14  2  0
 16 17  1  0
 18 17  1  6
 18 20  1  0
 19 18  1  0
 20 22  2  0
 20 21  1  0
M  END
$$$$
