SQS.pdb
     RDKit          3D

 22 21  0  0  1  0  0  0  0  0999 V2000
    0.2928  -22.3618   24.2847 O   0  0  0  0  0  0  0  0  0  0  0  0
    1.4695  -21.6740   23.9993 C   0  0  0  0  0  0  0  0  0  0  0  0
    2.5599  -22.6309   23.5484 C   0  0  2  0  0  0  0  0  0  0  0  0
    2.0500  -23.4111   22.4367 N   0  0  0  0  0  0  0  0  0  0  0  0
    2.8776  -23.5546   24.6534 C   0  0  0  0  0  0  0  0  0  0  0  0
    2.4591  -24.7582   24.6480 O   0  0  0  0  0  0  0  0  0  0  0  0
    7.7521  -22.9694   28.4882 N   0  0  0  0  0  0  0  0  0  0  0  0
    7.0894  -24.0815   29.0373 C   0  0  0  0  0  0  0  0  0  0  0  0
    7.6147  -24.7228   29.9794 O   0  0  0  0  0  0  0  0  0  0  0  0
    5.7548  -24.5507   28.5420 C   0  0  0  0  0  0  0  0  0  0  0  0
    5.2748  -23.6802   27.4310 C   0  0  0  0  0  0  0  0  0  0  0  0
    3.9890  -24.1623   26.8446 C   0  0  2  0  0  0  0  0  0  0  0  0
    3.6531  -23.1901   25.7810 N   0  0  0  0  0  0  0  0  0  0  0  0
    2.8763  -24.2546   27.8072 C   0  0  0  0  0  0  0  0  0  0  0  0
    2.2380  -23.2728   28.1712 O   0  0  0  0  0  0  0  0  0  0  0  0
    1.2213  -28.0804   28.6701 O   0  0  0  0  0  0  0  0  0  0  0  0
    0.5215  -26.8853   28.8290 C   0  0  0  0  0  0  0  0  0  0  0  0
    1.4264  -25.7593   29.2167 C   0  0  2  0  0  0  0  0  0  0  0  0
    2.5143  -25.5175   28.3447 N   0  0  0  0  0  0  0  0  0  0  0  0
    1.8978  -25.9734   30.5904 C   0  0  0  0  0  0  0  0  0  0  0  0
    1.0605  -26.0133   31.6958 O   0  0  0  0  0  0  0  0  0  0  0  0
    3.1267  -26.1304   30.7857 O   0  0  0  0  0  0  0  0  0  0  0  0
  2  1  1  0
  3  4  1  6
  3  2  1  0
  5  3  1  0
  6  5  2  0
  7  8  1  0
  8 10  1  0
  8  9  2  0
 10 11  1  0
 12 11  1  1
 12 13  1  0
 12 14  1  0
 13  5  1  0
 14 19  1  0
 15 14  2  0
 16 17  1  0
 18 17  1  6
 18 20  1  0
 19 18  1  0
 20 22  2  0
 20 21  1  0
M  END
$$$$
