SQS.pdb
     RDKit          3D

 22 21  0  0  1  0  0  0  0  0999 V2000
    7.6793  -12.4840   18.3414 O   0  0  0  0  0  0  0  0  0  0  0  0
    8.8533  -12.8606   17.6942 C   0  0  0  0  0  0  0  0  0  0  0  0
    8.8174  -14.3330   17.3216 C   0  0  2  0  0  0  0  0  0  0  0  0
    7.5892  -14.5886   16.5930 N   0  0  0  0  0  0  0  0  0  0  0  0
    8.7995  -15.1419   18.5547 C   0  0  0  0  0  0  0  0  0  0  0  0
    7.7044  -15.5653   19.0499 O   0  0  0  0  0  0  0  0  0  0  0  0
   11.8811  -20.6940   20.5241 N   0  0  0  0  0  0  0  0  0  0  0  0
   12.1523  -19.4154   21.0426 C   0  0  0  0  0  0  0  0  0  0  0  0
   13.3350  -19.0762   21.2894 O   0  0  0  0  0  0  0  0  0  0  0  0
   11.0736  -18.4129   21.3221 C   0  0  0  0  0  0  0  0  0  0  0  0
   10.9759  -17.4269   20.2082 C   0  0  0  0  0  0  0  0  0  0  0  0
    9.9136  -16.4045   20.4442 C   0  0  2  0  0  0  0  0  0  0  0  0
    9.9662  -15.5049   19.2707 N   0  0  0  0  0  0  0  0  0  0  0  0
   10.0840  -15.6222   21.6820 C   0  0  0  0  0  0  0  0  0  0  0  0
   10.9439  -14.7558   21.7996 O   0  0  0  0  0  0  0  0  0  0  0  0
    6.9064  -15.6220   24.4211 O   0  0  0  0  0  0  0  0  0  0  0  0
    7.8607  -14.6060   24.4066 C   0  0  0  0  0  0  0  0  0  0  0  0
    9.2045  -15.1122   23.9884 C   0  0  2  0  0  0  0  0  0  0  0  0
    9.2316  -15.8654   22.7906 N   0  0  0  0  0  0  0  0  0  0  0  0
    9.7968  -15.8732   25.0954 C   0  0  0  0  0  0  0  0  0  0  0  0
   10.1066  -15.3231   26.3307 O   0  0  0  0  0  0  0  0  0  0  0  0
   10.0402  -17.0915   24.9237 O   0  0  0  0  0  0  0  0  0  0  0  0
  2  1  1  0
  3  4  1  1
  3  2  1  0
  5  3  1  0
  6  5  2  0
  7  8  1  0
  8 10  1  0
  8  9  2  0
 10 11  1  0
 12 11  1  6
 12 13  1  0
 12 14  1  0
 13  5  1  0
 14 19  1  0
 15 14  2  0
 16 17  1  0
 18 17  1  1
 18 20  1  0
 19 18  1  0
 20 22  2  0
 20 21  1  0
M  END
$$$$
