SQS.pdb
     RDKit          3D

 22 21  0  0  1  0  0  0  0  0999 V2000
    7.9050  -12.4642   16.8445 O   0  0  0  0  0  0  0  0  0  0  0  0
    8.0117  -13.4402   17.8320 C   0  0  0  0  0  0  0  0  0  0  0  0
    8.8381  -14.6173   17.3425 C   0  0  2  0  0  0  0  0  0  0  0  0
    8.0799  -15.3119   16.3191 N   0  0  0  0  0  0  0  0  0  0  0  0
    9.0613  -15.5489   18.4638 C   0  0  0  0  0  0  0  0  0  0  0  0
    8.2249  -16.4726   18.7304 O   0  0  0  0  0  0  0  0  0  0  0  0
   14.2969  -18.1264   19.9966 N   0  0  0  0  0  0  0  0  0  0  0  0
   13.5540  -18.4147   21.1552 C   0  0  0  0  0  0  0  0  0  0  0  0
   14.0485  -19.1377   22.0539 O   0  0  0  0  0  0  0  0  0  0  0  0
   12.1678  -17.8891   21.3762 C   0  0  0  0  0  0  0  0  0  0  0  0
   11.7803  -16.9604   20.2763 C   0  0  0  0  0  0  0  0  0  0  0  0
   10.3824  -16.4563   20.4227 C   0  0  2  0  0  0  0  0  0  0  0  0
   10.1929  -15.4953   19.3137 N   0  0  0  0  0  0  0  0  0  0  0  0
   10.1041  -15.7948   21.7104 C   0  0  0  0  0  0  0  0  0  0  0  0
   10.5238  -14.6743   21.9788 O   0  0  0  0  0  0  0  0  0  0  0  0
    6.7211  -15.4462   23.4527 O   0  0  0  0  0  0  0  0  0  0  0  0
    7.5647  -16.0685   24.3716 C   0  0  0  0  0  0  0  0  0  0  0  0
    9.0013  -15.9558   23.9712 C   0  0  2  0  0  0  0  0  0  0  0  0
    9.3235  -16.4628   22.6899 N   0  0  0  0  0  0  0  0  0  0  0  0
    9.8379  -16.5800   25.0036 C   0  0  0  0  0  0  0  0  0  0  0  0
    9.7937  -16.2331   26.3461 O   0  0  0  0  0  0  0  0  0  0  0  0
   10.6419  -17.4798   24.6616 O   0  0  0  0  0  0  0  0  0  0  0  0
  2  1  1  0
  3  4  1  6
  3  2  1  0
  5  3  1  0
  6  5  2  0
  7  8  1  0
  8 10  1  0
  8  9  2  0
 10 11  1  0
 12 11  1  1
 12 13  1  0
 12 14  1  0
 13  5  1  0
 14 19  1  0
 15 14  2  0
 16 17  1  0
 18 17  1  1
 18 20  1  0
 19 18  1  0
 20 22  2  0
 20 21  1  0
M  END
$$$$
