SQS.pdb
     RDKit          3D

 22 21  0  0  1  0  0  0  0  0999 V2000
    9.4286  -15.0290   17.9913 O   0  0  0  0  0  0  0  0  0  0  0  0
   10.2466  -13.9356   17.7184 C   0  0  0  0  0  0  0  0  0  0  0  0
   11.5928  -14.3880   17.1790 C   0  0  2  0  0  0  0  0  0  0  0  0
   11.3646  -15.1489   15.9651 N   0  0  0  0  0  0  0  0  0  0  0  0
   12.2340  -15.2759   18.1667 C   0  0  0  0  0  0  0  0  0  0  0  0
   12.2711  -16.5378   17.9932 O   0  0  0  0  0  0  0  0  0  0  0  0
   17.6456  -15.6501   19.6270 N   0  0  0  0  0  0  0  0  0  0  0  0
   16.9678  -14.4434   19.8757 C   0  0  0  0  0  0  0  0  0  0  0  0
   17.5935  -13.3558   19.8519 O   0  0  0  0  0  0  0  0  0  0  0  0
   15.5001  -14.3896   20.1751 C   0  0  0  0  0  0  0  0  0  0  0  0
   14.8960  -15.7484   20.0707 C   0  0  0  0  0  0  0  0  0  0  0  0
   13.4289  -15.7422   20.3486 C   0  0  2  0  0  0  0  0  0  0  0  0
   12.8450  -14.8120   19.3572 N   0  0  0  0  0  0  0  0  0  0  0  0
   13.0681  -15.3115   21.7115 C   0  0  0  0  0  0  0  0  0  0  0  0
   13.3992  -14.2220   22.1666 O   0  0  0  0  0  0  0  0  0  0  0  0
    9.6702  -16.8148   23.4260 O   0  0  0  0  0  0  0  0  0  0  0  0
   10.3411  -15.7130   23.9544 C   0  0  0  0  0  0  0  0  0  0  0  0
   11.8250  -15.8571   23.8352 C   0  0  2  0  0  0  0  0  0  0  0  0
   12.3095  -16.1752   22.5443 N   0  0  0  0  0  0  0  0  0  0  0  0
   12.2931  -16.8369   24.8232 C   0  0  0  0  0  0  0  0  0  0  0  0
   13.0373  -17.9624   24.5006 O   0  0  0  0  0  0  0  0  0  0  0  0
   12.0087  -16.6543   26.0310 O   0  0  0  0  0  0  0  0  0  0  0  0
  2  1  1  0
  3  4  1  6
  3  2  1  0
  5  3  1  0
  6  5  2  0
  7  8  1  0
  8 10  1  0
  8  9  2  0
 10 11  1  0
 12 11  1  1
 12 13  1  0
 12 14  1  0
 13  5  1  0
 14 19  1  0
 15 14  2  0
 16 17  1  0
 18 17  1  6
 18 20  1  0
 19 18  1  0
 20 22  2  0
 20 21  1  0
M  END
$$$$
