SQS.pdb
     RDKit          3D

 22 21  0  0  1  0  0  0  0  0999 V2000
    7.1440  -13.3086   20.3071 O   0  0  0  0  0  0  0  0  0  0  0  0
    7.8310  -12.4004   19.5056 C   0  0  0  0  0  0  0  0  0  0  0  0
    8.4259  -13.0925   18.2911 C   0  0  2  0  0  0  0  0  0  0  0  0
    7.3589  -13.7842   17.5929 N   0  0  0  0  0  0  0  0  0  0  0  0
    9.4091  -14.0955   18.7413 C   0  0  0  0  0  0  0  0  0  0  0  0
    9.0939  -15.3253   18.8505 O   0  0  0  0  0  0  0  0  0  0  0  0
   15.5862  -13.5306   18.2282 N   0  0  0  0  0  0  0  0  0  0  0  0
   15.4689  -14.7350   18.9444 C   0  0  0  0  0  0  0  0  0  0  0  0
   16.4947  -15.4025   19.2217 O   0  0  0  0  0  0  0  0  0  0  0  0
   14.1483  -15.2745   19.4045 C   0  0  0  0  0  0  0  0  0  0  0  0
   13.0499  -14.3256   19.0650 C   0  0  0  0  0  0  0  0  0  0  0  0
   11.7112  -14.8256   19.4982 C   0  0  2  0  0  0  0  0  0  0  0  0
   10.7482  -13.7829   19.0803 N   0  0  0  0  0  0  0  0  0  0  0  0
   11.5898  -15.0664   20.9474 C   0  0  0  0  0  0  0  0  0  0  0  0
   11.4899  -14.1535   21.7601 O   0  0  0  0  0  0  0  0  0  0  0  0
   10.2380  -18.2058   24.3416 O   0  0  0  0  0  0  0  0  0  0  0  0
   10.3535  -17.8599   22.9961 C   0  0  0  0  0  0  0  0  0  0  0  0
   11.3616  -16.7750   22.7864 C   0  0  2  0  0  0  0  0  0  0  0  0
   11.5864  -16.3972   21.4413 N   0  0  0  0  0  0  0  0  0  0  0  0
   12.6207  -17.1572   23.4373 C   0  0  0  0  0  0  0  0  0  0  0  0
   12.7534  -17.3553   24.8039 O   0  0  0  0  0  0  0  0  0  0  0  0
   13.6407  -17.3161   22.7249 O   0  0  0  0  0  0  0  0  0  0  0  0
  2  1  1  0
  3  4  1  1
  3  2  1  0
  5  3  1  0
  6  5  2  0
  7  8  1  0
  8 10  1  0
  8  9  2  0
 10 11  1  0
 12 11  1  1
 12 13  1  0
 12 14  1  0
 13  5  1  0
 14 19  1  0
 15 14  2  0
 16 17  1  0
 18 17  1  6
 18 20  1  0
 19 18  1  0
 20 22  2  0
 20 21  1  0
M  END
$$$$
