SQS.pdb
     RDKit          3D

 22 21  0  0  1  0  0  0  0  0999 V2000
   11.7704  -19.0920   13.1996 O   0  0  0  0  0  0  0  0  0  0  0  0
   11.3686  -19.3939   14.4982 C   0  0  0  0  0  0  0  0  0  0  0  0
   10.1924  -20.3554   14.4911 C   0  0  2  0  0  0  0  0  0  0  0  0
    9.0589  -19.6838   13.8838 N   0  0  0  0  0  0  0  0  0  0  0  0
    9.8376  -20.6932   15.8822 C   0  0  0  0  0  0  0  0  0  0  0  0
    8.9902  -19.9996   16.5339 O   0  0  0  0  0  0  0  0  0  0  0  0
   10.8249  -26.1936   17.4234 N   0  0  0  0  0  0  0  0  0  0  0  0
    9.5908  -25.7002   16.9643 C   0  0  0  0  0  0  0  0  0  0  0  0
    8.8354  -26.4351   16.2830 O   0  0  0  0  0  0  0  0  0  0  0  0
    9.1208  -24.3068   17.2548 C   0  0  0  0  0  0  0  0  0  0  0  0
   10.1157  -23.5857   18.0989 C   0  0  0  0  0  0  0  0  0  0  0  0
    9.9955  -22.1022   17.9788 C   0  0  2  0  0  0  0  0  0  0  0  0
   10.3945  -21.7866   16.5894 N   0  0  0  0  0  0  0  0  0  0  0  0
   10.8343  -21.3437   18.9244 C   0  0  0  0  0  0  0  0  0  0  0  0
   11.9401  -20.9091   18.6207 O   0  0  0  0  0  0  0  0  0  0  0  0
    9.5066  -18.4149   21.1625 O   0  0  0  0  0  0  0  0  0  0  0  0
   10.1087  -19.3693   21.9809 C   0  0  0  0  0  0  0  0  0  0  0  0
   11.0037  -20.2817   21.2040 C   0  0  2  0  0  0  0  0  0  0  0  0
   10.3632  -21.0963   20.2404 N   0  0  0  0  0  0  0  0  0  0  0  0
   11.7852  -21.0991   22.1401 C   0  0  0  0  0  0  0  0  0  0  0  0
   12.7240  -20.5797   23.0196 O   0  0  0  0  0  0  0  0  0  0  0  0
   11.6005  -22.3396   22.1526 O   0  0  0  0  0  0  0  0  0  0  0  0
  2  1  1  0
  3  4  1  1
  3  2  1  0
  5  3  1  0
  6  5  2  0
  7  8  1  0
  8 10  1  0
  8  9  2  0
 10 11  1  0
 12 11  1  1
 12 13  1  0
 12 14  1  0
 13  5  1  0
 14 19  1  0
 15 14  2  0
 16 17  1  0
 18 17  1  1
 18 20  1  0
 19 18  1  0
 20 22  2  0
 20 21  1  0
M  END
$$$$
