SQS.pdb
     RDKit          3D

 22 21  0  0  1  0  0  0  0  0999 V2000
    8.1515  -14.7620   18.6475 O   0  0  0  0  0  0  0  0  0  0  0  0
    8.7663  -13.7554   17.9074 C   0  0  0  0  0  0  0  0  0  0  0  0
    9.9459  -14.3041   17.1229 C   0  0  2  0  0  0  0  0  0  0  0  0
    9.4525  -15.3132   16.2048 N   0  0  0  0  0  0  0  0  0  0  0  0
   10.8870  -14.9503   18.0567 C   0  0  0  0  0  0  0  0  0  0  0  0
   10.8494  -16.2065   18.2672 O   0  0  0  0  0  0  0  0  0  0  0  0
   16.6720  -13.1713   19.1103 N   0  0  0  0  0  0  0  0  0  0  0  0
   16.1625  -14.0352   18.1248 C   0  0  0  0  0  0  0  0  0  0  0  0
   16.8400  -14.2856   17.0986 O   0  0  0  0  0  0  0  0  0  0  0  0
   14.8182  -14.6880   18.2412 C   0  0  0  0  0  0  0  0  0  0  0  0
   14.1363  -14.2586   19.4954 C   0  0  0  0  0  0  0  0  0  0  0  0
   12.8208  -14.9378   19.6896 C   0  0  2  0  0  0  0  0  0  0  0  0
   11.8832  -14.2470   18.7770 N   0  0  0  0  0  0  0  0  0  0  0  0
   12.3051  -14.8855   21.0696 C   0  0  0  0  0  0  0  0  0  0  0  0
   11.4070  -14.1221   21.4080 O   0  0  0  0  0  0  0  0  0  0  0  0
   10.2444  -17.1942   24.1990 O   0  0  0  0  0  0  0  0  0  0  0  0
   10.8236  -16.7703   23.0040 C   0  0  0  0  0  0  0  0  0  0  0  0
   12.1858  -16.1924   23.2216 C   0  0  2  0  0  0  0  0  0  0  0  0
   12.8550  -15.7423   22.0588 N   0  0  0  0  0  0  0  0  0  0  0  0
   13.0084  -17.1641   23.9526 C   0  0  0  0  0  0  0  0  0  0  0  0
   12.9782  -17.3182   25.3309 O   0  0  0  0  0  0  0  0  0  0  0  0
   13.7865  -17.9018   23.3018 O   0  0  0  0  0  0  0  0  0  0  0  0
  2  1  1  0
  3  4  1  6
  3  2  1  0
  5  3  1  0
  6  5  2  0
  7  8  1  0
  8 10  1  0
  8  9  2  0
 10 11  1  0
 12 11  1  1
 12 13  1  0
 12 14  1  0
 13  5  1  0
 14 19  1  0
 15 14  2  0
 16 17  1  0
 18 17  1  6
 18 20  1  0
 19 18  1  0
 20 22  2  0
 20 21  1  0
M  END
$$$$
