SQS.pdb
     RDKit          3D

 22 21  0  0  1  0  0  0  0  0999 V2000
    7.9880  -15.4740   19.0985 O   0  0  0  0  0  0  0  0  0  0  0  0
    6.8805  -14.6709   19.3582 C   0  0  0  0  0  0  0  0  0  0  0  0
    7.3102  -13.2969   19.8434 C   0  0  2  0  0  0  0  0  0  0  0  0
    8.0944  -12.6690   18.7968 N   0  0  0  0  0  0  0  0  0  0  0  0
    8.1682  -13.4524   21.0329 C   0  0  0  0  0  0  0  0  0  0  0  0
    9.4364  -13.5192   20.9272 O   0  0  0  0  0  0  0  0  0  0  0  0
    7.1208  -11.7857   27.1828 N   0  0  0  0  0  0  0  0  0  0  0  0
    6.3745  -12.7395   26.4683 C   0  0  0  0  0  0  0  0  0  0  0  0
    5.1454  -12.8668   26.6872 O   0  0  0  0  0  0  0  0  0  0  0  0
    6.9881  -13.6334   25.4333 C   0  0  0  0  0  0  0  0  0  0  0  0
    7.9692  -12.8760   24.6049 C   0  0  0  0  0  0  0  0  0  0  0  0
    8.5631  -13.7119   23.5194 C   0  0  2  0  0  0  0  0  0  0  0  0
    7.6671  -13.5380   22.3547 N   0  0  0  0  0  0  0  0  0  0  0  0
    8.6832  -15.1438   23.8485 C   0  0  0  0  0  0  0  0  0  0  0  0
    7.7704  -15.9409   23.6608 O   0  0  0  0  0  0  0  0  0  0  0  0
   11.7605  -18.8020   24.3435 O   0  0  0  0  0  0  0  0  0  0  0  0
   11.5181  -17.4589   24.0597 C   0  0  0  0  0  0  0  0  0  0  0  0
   10.2045  -17.0032   24.6108 C   0  0  2  0  0  0  0  0  0  0  0  0
    9.8919  -15.6386   24.4044 N   0  0  0  0  0  0  0  0  0  0  0  0
   10.1388  -17.3424   26.0376 C   0  0  0  0  0  0  0  0  0  0  0  0
   10.2243  -18.6375   26.5273 O   0  0  0  0  0  0  0  0  0  0  0  0
    9.9973  -16.4143   26.8693 O   0  0  0  0  0  0  0  0  0  0  0  0
  2  1  1  0
  3  4  1  6
  3  2  1  0
  5  3  1  0
  6  5  2  0
  7  8  1  0
  8 10  1  0
  8  9  2  0
 10 11  1  0
 12 11  1  1
 12 13  1  0
 12 14  1  0
 13  5  1  0
 14 19  1  0
 15 14  2  0
 16 17  1  0
 18 17  1  1
 18 20  1  0
 19 18  1  0
 20 22  2  0
 20 21  1  0
M  END
$$$$
