SQS.pdb
     RDKit          3D

 22 21  0  0  1  0  0  0  0  0999 V2000
    9.9635  -18.6828   15.6766 O   0  0  0  0  0  0  0  0  0  0  0  0
    8.6751  -18.2442   15.3818 C   0  0  0  0  0  0  0  0  0  0  0  0
    8.6630  -16.7516   15.0990 C   0  0  2  0  0  0  0  0  0  0  0  0
    9.6211  -16.4801   14.0441 N   0  0  0  0  0  0  0  0  0  0  0  0
    9.0928  -16.0281   16.3103 C   0  0  0  0  0  0  0  0  0  0  0  0
   10.2865  -15.5996   16.4339 O   0  0  0  0  0  0  0  0  0  0  0  0
    8.1630  -11.9690   18.9788 N   0  0  0  0  0  0  0  0  0  0  0  0
    8.0880  -12.4716   20.2899 C   0  0  0  0  0  0  0  0  0  0  0  0
    8.3375  -11.7216   21.2646 O   0  0  0  0  0  0  0  0  0  0  0  0
    7.7160  -13.8924   20.5890 C   0  0  0  0  0  0  0  0  0  0  0  0
    7.4357  -14.6353   19.3273 C   0  0  0  0  0  0  0  0  0  0  0  0
    8.6782  -14.9373   18.5562 C   0  0  2  0  0  0  0  0  0  0  0  0
    8.2375  -15.7573   17.4061 N   0  0  0  0  0  0  0  0  0  0  0  0
    9.7096  -15.6618   19.3207 C   0  0  0  0  0  0  0  0  0  0  0  0
    9.6190  -16.8572   19.5791 O   0  0  0  0  0  0  0  0  0  0  0  0
   13.6718  -14.5830   19.2164 O   0  0  0  0  0  0  0  0  0  0  0  0
   13.2048  -14.7784   20.5152 C   0  0  0  0  0  0  0  0  0  0  0  0
   11.9157  -15.5366   20.5335 C   0  0  2  0  0  0  0  0  0  0  0  0
   10.8581  -14.9683   19.7844 N   0  0  0  0  0  0  0  0  0  0  0  0
   11.5076  -15.7564   21.9265 C   0  0  0  0  0  0  0  0  0  0  0  0
   12.3211  -16.3427   22.8852 O   0  0  0  0  0  0  0  0  0  0  0  0
   10.3591  -15.3967   22.2794 O   0  0  0  0  0  0  0  0  0  0  0  0
  2  1  1  0
  3  4  1  6
  3  2  1  0
  5  3  1  0
  6  5  2  0
  7  8  1  0
  8 10  1  0
  8  9  2  0
 10 11  1  0
 12 11  1  1
 12 13  1  0
 12 14  1  0
 13  5  1  0
 14 19  1  0
 15 14  2  0
 16 17  1  0
 18 17  1  1
 18 20  1  0
 19 18  1  0
 20 22  2  0
 20 21  1  0
M  END
$$$$
