SQS.pdb
     RDKit          3D

 22 21  0  0  1  0  0  0  0  0999 V2000
    8.6775  -16.1728   19.3641 O   0  0  0  0  0  0  0  0  0  0  0  0
    9.3892  -17.0955   18.6017 C   0  0  0  0  0  0  0  0  0  0  0  0
    8.5565  -18.3392   18.3412 C   0  0  2  0  0  0  0  0  0  0  0  0
    7.3778  -17.9492   17.5907 N   0  0  0  0  0  0  0  0  0  0  0  0
    8.1166  -18.9035   19.6309 C   0  0  0  0  0  0  0  0  0  0  0  0
    6.9294  -18.7255   20.0583 O   0  0  0  0  0  0  0  0  0  0  0  0
   10.0612  -24.1475   22.0286 N   0  0  0  0  0  0  0  0  0  0  0  0
    9.2848  -23.7866   20.9132 C   0  0  0  0  0  0  0  0  0  0  0  0
    9.0364  -24.6334   20.0210 O   0  0  0  0  0  0  0  0  0  0  0  0
    8.7254  -22.4078   20.7319 C   0  0  0  0  0  0  0  0  0  0  0  0
    9.0575  -21.5513   21.9059 C   0  0  0  0  0  0  0  0  0  0  0  0
    8.4876  -20.1762   21.7870 C   0  0  2  0  0  0  0  0  0  0  0  0
    8.9548  -19.6691   20.4778 N   0  0  0  0  0  0  0  0  0  0  0  0
    8.8995  -19.2505   22.8577 C   0  0  0  0  0  0  0  0  0  0  0  0
    9.8868  -18.5296   22.7605 O   0  0  0  0  0  0  0  0  0  0  0  0
    6.1481  -18.4634   25.9731 O   0  0  0  0  0  0  0  0  0  0  0  0
    7.1788  -17.5766   25.6658 C   0  0  0  0  0  0  0  0  0  0  0  0
    8.3803  -18.2867   25.1281 C   0  0  2  0  0  0  0  0  0  0  0  0
    8.1388  -19.1755   24.0537 N   0  0  0  0  0  0  0  0  0  0  0  0
    9.0642  -18.9752   26.2297 C   0  0  0  0  0  0  0  0  0  0  0  0
    9.5500  -18.3313   27.3584 O   0  0  0  0  0  0  0  0  0  0  0  0
    9.2230  -20.2170   26.1550 O   0  0  0  0  0  0  0  0  0  0  0  0
  2  1  1  0
  3  4  1  6
  3  2  1  0
  5  3  1  0
  6  5  2  0
  7  8  1  0
  8 10  1  0
  8  9  2  0
 10 11  1  0
 12 11  1  1
 12 13  1  0
 12 14  1  0
 13  5  1  0
 14 19  1  0
 15 14  2  0
 16 17  1  0
 18 17  1  1
 18 20  1  0
 19 18  1  0
 20 22  2  0
 20 21  1  0
M  END
$$$$
