SQS.pdb
     RDKit          3D

 22 21  0  0  1  0  0  0  0  0999 V2000
    5.3377  -23.5695   17.6422 O   0  0  0  0  0  0  0  0  0  0  0  0
    5.3247  -23.2046   18.9860 C   0  0  0  0  0  0  0  0  0  0  0  0
    4.1568  -23.8512   19.7111 C   0  0  2  0  0  0  0  0  0  0  0  0
    2.9267  -23.2957   19.1794 N   0  0  0  0  0  0  0  0  0  0  0  0
    4.2336  -23.5143   21.1450 C   0  0  0  0  0  0  0  0  0  0  0  0
    3.6231  -22.5007   21.6179 O   0  0  0  0  0  0  0  0  0  0  0  0
    2.6286  -26.9066   25.4340 N   0  0  0  0  0  0  0  0  0  0  0  0
    3.6603  -27.3029   24.5646 C   0  0  0  0  0  0  0  0  0  0  0  0
    3.8959  -28.5223   24.3852 O   0  0  0  0  0  0  0  0  0  0  0  0
    4.5133  -26.3181   23.8235 C   0  0  0  0  0  0  0  0  0  0  0  0
    4.1559  -24.9233   24.2098 C   0  0  0  0  0  0  0  0  0  0  0  0
    5.0066  -23.9064   23.5228 C   0  0  2  0  0  0  0  0  0  0  0  0
    4.9720  -24.2691   22.0888 N   0  0  0  0  0  0  0  0  0  0  0  0
    6.4029  -23.8609   23.9935 C   0  0  0  0  0  0  0  0  0  0  0  0
    7.3391  -24.2726   23.3168 O   0  0  0  0  0  0  0  0  0  0  0  0
    8.3123  -20.0368   25.0417 O   0  0  0  0  0  0  0  0  0  0  0  0
    7.2901  -20.9678   24.8635 C   0  0  0  0  0  0  0  0  0  0  0  0
    7.5989  -22.2671   25.5369 C   0  0  2  0  0  0  0  0  0  0  0  0
    6.6960  -23.3247   25.2747 N   0  0  0  0  0  0  0  0  0  0  0  0
    7.7295  -22.0401   26.9814 C   0  0  0  0  0  0  0  0  0  0  0  0
    8.9363  -21.7843   27.6161 O   0  0  0  0  0  0  0  0  0  0  0  0
    6.6958  -22.0776   27.6908 O   0  0  0  0  0  0  0  0  0  0  0  0
  2  1  1  0
  3  4  1  6
  3  2  1  0
  5  3  1  0
  6  5  2  0
  7  8  1  0
  8 10  1  0
  8  9  2  0
 10 11  1  0
 12 11  1  1
 12 13  1  0
 12 14  1  0
 13  5  1  0
 14 19  1  0
 15 14  2  0
 16 17  1  0
 18 17  1  6
 18 20  1  0
 19 18  1  0
 20 22  2  0
 20 21  1  0
M  END
$$$$
