SQS.pdb
     RDKit          3D

 22 21  0  0  1  0  0  0  0  0999 V2000
    6.5015  -19.2409   21.2000 O   0  0  0  0  0  0  0  0  0  0  0  0
    5.6736  -18.4335   20.4242 C   0  0  0  0  0  0  0  0  0  0  0  0
    6.4643  -17.7469   19.3236 C   0  0  2  0  0  0  0  0  0  0  0  0
    7.1390  -18.7670   18.5433 N   0  0  0  0  0  0  0  0  0  0  0  0
    7.4892  -16.8804   19.9351 C   0  0  0  0  0  0  0  0  0  0  0  0
    8.6457  -17.3302   20.2249 O   0  0  0  0  0  0  0  0  0  0  0  0
   10.3128  -12.7682   19.1759 N   0  0  0  0  0  0  0  0  0  0  0  0
    9.0963  -13.0593   18.5335 C   0  0  0  0  0  0  0  0  0  0  0  0
    9.0932  -13.4365   17.3366 O   0  0  0  0  0  0  0  0  0  0  0  0
    7.7710  -12.9386   19.2231 C   0  0  0  0  0  0  0  0  0  0  0  0
    7.9029  -13.2736   20.6698 C   0  0  0  0  0  0  0  0  0  0  0  0
    8.3221  -14.6897   20.8904 C   0  0  2  0  0  0  0  0  0  0  0  0
    7.2783  -15.5141   20.2424 N   0  0  0  0  0  0  0  0  0  0  0  0
    8.4538  -15.0730   22.3077 C   0  0  0  0  0  0  0  0  0  0  0  0
    7.4977  -15.0936   23.0754 O   0  0  0  0  0  0  0  0  0  0  0  0
    9.7740  -18.3504   23.5513 O   0  0  0  0  0  0  0  0  0  0  0  0
    9.2621  -17.3217   24.3405 C   0  0  0  0  0  0  0  0  0  0  0  0
    9.9640  -16.0255   24.0869 C   0  0  2  0  0  0  0  0  0  0  0  0
    9.7259  -15.4351   22.8230 N   0  0  0  0  0  0  0  0  0  0  0  0
   11.4030  -16.2062   24.3144 C   0  0  0  0  0  0  0  0  0  0  0  0
   12.3767  -15.9028   23.3740 O   0  0  0  0  0  0  0  0  0  0  0  0
   11.7836  -16.6607   25.4197 O   0  0  0  0  0  0  0  0  0  0  0  0
  2  1  1  0
  3  4  1  6
  3  2  1  0
  5  3  1  0
  6  5  2  0
  7  8  1  0
  8 10  1  0
  8  9  2  0
 10 11  1  0
 12 11  1  1
 12 13  1  0
 12 14  1  0
 13  5  1  0
 14 19  1  0
 15 14  2  0
 16 17  1  0
 18 17  1  6
 18 20  1  0
 19 18  1  0
 20 22  2  0
 20 21  1  0
M  END
$$$$
