SQS.pdb
     RDKit          3D

 22 21  0  0  1  0  0  0  0  0999 V2000
    9.3003  -13.5715   18.8795 O   0  0  0  0  0  0  0  0  0  0  0  0
    8.7035  -13.5136   20.1364 C   0  0  0  0  0  0  0  0  0  0  0  0
    7.7386  -14.6707   20.3311 C   0  0  2  0  0  0  0  0  0  0  0  0
    6.5063  -14.3588   19.6320 N   0  0  0  0  0  0  0  0  0  0  0  0
    7.4327  -14.8066   21.7675 C   0  0  0  0  0  0  0  0  0  0  0  0
    6.5639  -14.0632   22.3301 O   0  0  0  0  0  0  0  0  0  0  0  0
    7.3486  -20.1461   24.6887 N   0  0  0  0  0  0  0  0  0  0  0  0
    7.0663  -19.2662   25.7486 C   0  0  0  0  0  0  0  0  0  0  0  0
    6.7074  -19.7200   26.8622 O   0  0  0  0  0  0  0  0  0  0  0  0
    7.1752  -17.7776   25.6119 C   0  0  0  0  0  0  0  0  0  0  0  0
    7.4674  -17.4031   24.1989 C   0  0  0  0  0  0  0  0  0  0  0  0
    7.6456  -15.9308   24.0251 C   0  0  2  0  0  0  0  0  0  0  0  0
    8.0622  -15.7488   22.6170 N   0  0  0  0  0  0  0  0  0  0  0  0
    8.6455  -15.3270   24.9244 C   0  0  0  0  0  0  0  0  0  0  0  0
    9.8518  -15.4738   24.7603 O   0  0  0  0  0  0  0  0  0  0  0  0
    7.2648  -12.7638   28.0549 O   0  0  0  0  0  0  0  0  0  0  0  0
    8.5426  -12.6082   27.5198 C   0  0  0  0  0  0  0  0  0  0  0  0
    9.0660  -13.8887   26.9511 C   0  0  2  0  0  0  0  0  0  0  0  0
    8.2168  -14.5430   26.0273 N   0  0  0  0  0  0  0  0  0  0  0  0
    9.4303  -14.7894   28.0517 C   0  0  0  0  0  0  0  0  0  0  0  0
   10.3391  -14.4623   29.0475 O   0  0  0  0  0  0  0  0  0  0  0  0
    8.8942  -15.9221   28.1029 O   0  0  0  0  0  0  0  0  0  0  0  0
  2  1  1  0
  3  4  1  6
  3  2  1  0
  5  3  1  0
  6  5  2  0
  7  8  1  0
  8 10  1  0
  8  9  2  0
 10 11  1  0
 12 11  1  1
 12 13  1  0
 12 14  1  0
 13  5  1  0
 14 19  1  0
 15 14  2  0
 16 17  1  0
 18 17  1  1
 18 20  1  0
 19 18  1  0
 20 22  2  0
 20 21  1  0
M  END
$$$$
