CVS.pdb
     RDKit          3D

 20 19  0  0  1  0  0  0  0  0999 V2000
    7.7558  -18.0067   16.7526 N   0  0  0  0  0  0  0  0  0  0  0  0
    7.0473  -17.4538   17.8786 C   0  0  1  0  0  0  0  0  0  0  0  0
    6.3143  -18.5672   18.6343 C   0  0  0  0  0  0  0  0  0  0  0  0
    7.4035  -19.2992   19.8710 S   0  0  0  0  0  0  0  0  0  0  0  0
    7.9629  -16.7245   18.8080 C   0  0  0  0  0  0  0  0  0  0  0  0
    9.1966  -16.9004   18.8038 O   0  0  0  0  0  0  0  0  0  0  0  0
    7.3255  -12.7624   19.9964 C   0  0  0  0  0  0  0  0  0  0  0  0
    7.4804  -13.7644   21.1203 C   0  0  2  0  0  0  0  0  0  0  0  0
    8.3984  -13.1417   22.1651 C   0  0  0  0  0  0  0  0  0  0  0  0
    8.1123  -15.0488   20.6986 C   0  0  2  0  0  0  0  0  0  0  0  0
    7.3865  -15.8000   19.7234 N   0  0  0  0  0  0  0  0  0  0  0  0
    8.5663  -15.9038   21.8419 C   0  0  0  0  0  0  0  0  0  0  0  0
    7.7665  -16.5105   22.5826 O   0  0  0  0  0  0  0  0  0  0  0  0
   12.3631  -18.0920   24.0033 O   0  0  0  0  0  0  0  0  0  0  0  0
   11.9108  -17.2804   22.9621 C   0  0  0  0  0  0  0  0  0  0  0  0
   10.4611  -16.9192   23.1704 C   0  0  2  0  0  0  0  0  0  0  0  0
    9.9514  -16.0577   22.1298 N   0  0  0  0  0  0  0  0  0  0  0  0
   10.3435  -16.2965   24.5106 C   0  0  0  0  0  0  0  0  0  0  0  0
   10.3212  -17.0410   25.6771 O   0  0  0  0  0  0  0  0  0  0  0  0
   10.2619  -15.0524   24.5830 O   0  0  0  0  0  0  0  0  0  0  0  0
  2  1  1  6
  2  3  1  0
  3  4  1  0
  5  2  1  0
  6  5  2  0
  8  7  1  6
  8 10  1  0
  9  8  1  0
 10 11  1  1
 10 12  1  0
 11  5  1  0
 12 13  2  0
 15 14  1  0
 16 15  1  6
 17 12  1  0
 17 16  1  0
 18 19  1  0
 18 16  1  0
 20 18  2  0
M  END
$$$$
