CVS.pdb
     RDKit          3D

 20 19  0  0  1  0  0  0  0  0999 V2000
    6.6049  -19.2453   27.5209 N   0  0  0  0  0  0  0  0  0  0  0  0
    7.3995  -18.0563   27.6956 C   0  0  1  0  0  0  0  0  0  0  0  0
    8.8286  -18.4358   28.0975 C   0  0  0  0  0  0  0  0  0  0  0  0
    9.7066  -16.9856   28.7119 S   0  0  0  0  0  0  0  0  0  0  0  0
    7.4238  -17.2171   26.4592 C   0  0  0  0  0  0  0  0  0  0  0  0
    7.4017  -17.7125   25.3159 O   0  0  0  0  0  0  0  0  0  0  0  0
    5.7600  -13.3496   26.3976 C   0  0  0  0  0  0  0  0  0  0  0  0
    7.1743  -13.4661   25.8709 C   0  0  2  0  0  0  0  0  0  0  0  0
    7.2471  -12.6675   24.5750 C   0  0  0  0  0  0  0  0  0  0  0  0
    7.5807  -14.8637   25.5418 C   0  0  2  0  0  0  0  0  0  0  0  0
    7.4739  -15.8034   26.6132 N   0  0  0  0  0  0  0  0  0  0  0  0
    8.9004  -14.9606   24.8397 C   0  0  0  0  0  0  0  0  0  0  0  0
    9.9834  -14.7340   25.4161 O   0  0  0  0  0  0  0  0  0  0  0  0
   10.1179  -17.8877   23.1524 O   0  0  0  0  0  0  0  0  0  0  0  0
   10.9411  -16.7640   23.2371 C   0  0  0  0  0  0  0  0  0  0  0  0
   10.2064  -15.5381   22.7546 C   0  0  2  0  0  0  0  0  0  0  0  0
    8.9680  -15.3212   23.4647 N   0  0  0  0  0  0  0  0  0  0  0  0
    9.9879  -15.6925   21.2965 C   0  0  0  0  0  0  0  0  0  0  0  0
   11.0329  -15.7821   20.3934 O   0  0  0  0  0  0  0  0  0  0  0  0
    8.8140  -15.7431   20.8734 O   0  0  0  0  0  0  0  0  0  0  0  0
  2  1  1  6
  2  3  1  0
  3  4  1  0
  5  2  1  0
  6  5  2  0
  8  7  1  6
  8 10  1  0
  9  8  1  0
 10 11  1  1
 10 12  1  0
 11  5  1  0
 12 13  2  0
 15 14  1  0
 16 15  1  1
 17 12  1  0
 17 16  1  0
 18 19  1  0
 18 16  1  0
 20 18  2  0
M  END
$$$$
