CVS.pdb
     RDKit          3D

 20 19  0  0  1  0  0  0  0  0999 V2000
    8.1248  -14.0430   20.4970 N   0  0  0  0  0  0  0  0  0  0  0  0
    7.4130  -14.6249   21.6062 C   0  0  1  0  0  0  0  0  0  0  0  0
    7.2946  -16.1407   21.4153 C   0  0  0  0  0  0  0  0  0  0  0  0
    6.0256  -16.5149   20.1901 S   0  0  0  0  0  0  0  0  0  0  0  0
    8.0771  -14.3261   22.9114 C   0  0  0  0  0  0  0  0  0  0  0  0
    9.3158  -14.2575   23.0296 O   0  0  0  0  0  0  0  0  0  0  0  0
    6.4352  -11.6958   25.5396 C   0  0  0  0  0  0  0  0  0  0  0  0
    6.8375  -12.9918   26.2103 C   0  0  2  0  0  0  0  0  0  0  0  0
    7.6289  -12.6326   27.4621 C   0  0  0  0  0  0  0  0  0  0  0  0
    7.7207  -13.8544   25.3721 C   0  0  2  0  0  0  0  0  0  0  0  0
    7.2484  -14.1154   24.0488 N   0  0  0  0  0  0  0  0  0  0  0  0
    8.1775  -15.1034   26.0616 C   0  0  0  0  0  0  0  0  0  0  0  0
    7.3974  -16.0347   26.3453 O   0  0  0  0  0  0  0  0  0  0  0  0
   11.3888  -16.7372   25.0782 O   0  0  0  0  0  0  0  0  0  0  0  0
   11.3913  -16.8909   26.4652 C   0  0  0  0  0  0  0  0  0  0  0  0
   10.0609  -16.4743   27.0414 C   0  0  2  0  0  0  0  0  0  0  0  0
    9.5426  -15.2760   26.4246 N   0  0  0  0  0  0  0  0  0  0  0  0
   10.2385  -16.3108   28.5040 C   0  0  0  0  0  0  0  0  0  0  0  0
   10.5229  -17.3749   29.3421 O   0  0  0  0  0  0  0  0  0  0  0  0
   10.1258  -15.1669   28.9924 O   0  0  0  0  0  0  0  0  0  0  0  0
  2  1  1  6
  2  3  1  0
  3  4  1  0
  5  2  1  0
  6  5  2  0
  8  7  1  6
  8 10  1  0
  9  8  1  0
 10 11  1  6
 10 12  1  0
 11  5  1  0
 12 13  2  0
 15 14  1  0
 16 15  1  6
 17 12  1  0
 17 16  1  0
 18 19  1  0
 18 16  1  0
 20 18  2  0
M  END
$$$$
