CVS.pdb
     RDKit          3D

 20 19  0  0  1  0  0  0  0  0999 V2000
    8.9974  -17.4530   16.2503 N   0  0  0  0  0  0  0  0  0  0  0  0
    8.1380  -17.3960   17.4051 C   0  0  1  0  0  0  0  0  0  0  0  0
    7.8358  -18.8131   17.9036 C   0  0  0  0  0  0  0  0  0  0  0  0
    6.4244  -18.7887   19.0256 S   0  0  0  0  0  0  0  0  0  0  0  0
    8.7405  -16.5859   18.5071 C   0  0  0  0  0  0  0  0  0  0  0  0
    9.9628  -16.5945   18.7503 O   0  0  0  0  0  0  0  0  0  0  0  0
    7.3254  -12.8278   19.6488 C   0  0  0  0  0  0  0  0  0  0  0  0
    7.4053  -13.8492   20.7630 C   0  0  2  0  0  0  0  0  0  0  0  0
    8.0288  -13.1607   21.9711 C   0  0  0  0  0  0  0  0  0  0  0  0
    8.2671  -15.0243   20.4415 C   0  0  2  0  0  0  0  0  0  0  0  0
    7.8712  -15.7820   19.2964 N   0  0  0  0  0  0  0  0  0  0  0  0
    8.5597  -15.9007   21.6207 C   0  0  0  0  0  0  0  0  0  0  0  0
    7.6678  -16.5309   22.2238 O   0  0  0  0  0  0  0  0  0  0  0  0
   12.5586  -16.3288   23.0919 O   0  0  0  0  0  0  0  0  0  0  0  0
   11.6729  -17.4071   23.1059 C   0  0  0  0  0  0  0  0  0  0  0  0
   10.2499  -16.9158   23.2017 C   0  0  2  0  0  0  0  0  0  0  0  0
    9.8898  -16.0488   22.1045 N   0  0  0  0  0  0  0  0  0  0  0  0
   10.0971  -16.2408   24.5127 C   0  0  0  0  0  0  0  0  0  0  0  0
    9.7094  -14.9171   24.6268 O   0  0  0  0  0  0  0  0  0  0  0  0
   10.3286  -16.8970   25.5498 O   0  0  0  0  0  0  0  0  0  0  0  0
  2  1  1  6
  2  3  1  0
  3  4  1  0
  5  2  1  0
  6  5  2  0
  8  7  1  6
  8 10  1  0
  9  8  1  0
 10 11  1  6
 10 12  1  0
 11  5  1  0
 12 13  2  0
 15 14  1  0
 16 15  1  6
 17 12  1  0
 17 16  1  0
 18 19  1  0
 18 16  1  0
 20 18  2  0
M  END
$$$$
