CVS.pdb
     RDKit          3D

 20 19  0  0  1  0  0  0  0  0999 V2000
    9.2910  -16.1837   14.9940 N   0  0  0  0  0  0  0  0  0  0  0  0
    8.4490  -16.5512   16.1038 C   0  0  1  0  0  0  0  0  0  0  0  0
    8.2515  -18.0705   16.1308 C   0  0  0  0  0  0  0  0  0  0  0  0
    7.1283  -18.5270   17.4656 S   0  0  0  0  0  0  0  0  0  0  0  0
    9.0138  -16.0877   17.4077 C   0  0  0  0  0  0  0  0  0  0  0  0
   10.2167  -16.2285   17.7016 O   0  0  0  0  0  0  0  0  0  0  0  0
    7.2441  -12.7590   19.2928 C   0  0  0  0  0  0  0  0  0  0  0  0
    7.5555  -13.9385   20.1889 C   0  0  2  0  0  0  0  0  0  0  0  0
    8.2052  -13.3925   21.4546 C   0  0  0  0  0  0  0  0  0  0  0  0
    8.5184  -14.9100   19.5921 C   0  0  2  0  0  0  0  0  0  0  0  0
    8.1307  -15.4656   18.3339 N   0  0  0  0  0  0  0  0  0  0  0  0
    8.9880  -15.9621   20.5495 C   0  0  0  0  0  0  0  0  0  0  0  0
    8.2485  -16.8863   20.9437 O   0  0  0  0  0  0  0  0  0  0  0  0
   12.9991  -15.9273   21.9130 O   0  0  0  0  0  0  0  0  0  0  0  0
   12.3102  -17.1392   21.8504 C   0  0  0  0  0  0  0  0  0  0  0  0
   10.8273  -16.9080   22.0017 C   0  0  2  0  0  0  0  0  0  0  0  0
   10.3188  -15.9451   21.0534 N   0  0  0  0  0  0  0  0  0  0  0  0
   10.5807  -16.4882   23.4019 C   0  0  0  0  0  0  0  0  0  0  0  0
   10.9067  -17.2852   24.4855 O   0  0  0  0  0  0  0  0  0  0  0  0
   10.0587  -15.3720   23.6048 O   0  0  0  0  0  0  0  0  0  0  0  0
  2  1  1  6
  2  3  1  0
  3  4  1  0
  5  2  1  0
  6  5  2  0
  8  7  1  6
  8 10  1  0
  9  8  1  0
 10 11  1  6
 10 12  1  0
 11  5  1  0
 12 13  2  0
 15 14  1  0
 16 15  1  1
 17 12  1  0
 17 16  1  0
 18 19  1  0
 18 16  1  0
 20 18  2  0
M  END
$$$$
