CVS.pdb
     RDKit          3D

 20 19  0  0  1  0  0  0  0  0999 V2000
    7.9305  -14.3794   20.4138 N   0  0  0  0  0  0  0  0  0  0  0  0
    7.1157  -14.8201   21.5172 C   0  0  1  0  0  0  0  0  0  0  0  0
    6.6789  -16.2725   21.2984 C   0  0  0  0  0  0  0  0  0  0  0  0
    5.7000  -16.8443   22.7006 S   0  0  0  0  0  0  0  0  0  0  0  0
    7.8325  -14.6948   22.8226 C   0  0  0  0  0  0  0  0  0  0  0  0
    9.0621  -14.8683   22.9281 O   0  0  0  0  0  0  0  0  0  0  0  0
    6.7185  -11.8392   25.5486 C   0  0  0  0  0  0  0  0  0  0  0  0
    6.8565  -13.2194   26.1544 C   0  0  2  0  0  0  0  0  0  0  0  0
    7.6569  -13.0755   27.4432 C   0  0  0  0  0  0  0  0  0  0  0  0
    7.5969  -14.1847   25.2902 C   0  0  2  0  0  0  0  0  0  0  0  0
    7.0665  -14.3649   23.9755 N   0  0  0  0  0  0  0  0  0  0  0  0
    7.8939  -15.4915   25.9596 C   0  0  0  0  0  0  0  0  0  0  0  0
    6.9994  -16.3068   26.2624 O   0  0  0  0  0  0  0  0  0  0  0  0
   10.6349  -17.6003   24.8134 O   0  0  0  0  0  0  0  0  0  0  0  0
   10.7299  -17.7996   26.1913 C   0  0  0  0  0  0  0  0  0  0  0  0
    9.5910  -17.1103   26.9007 C   0  0  2  0  0  0  0  0  0  0  0  0
    9.2313  -15.8571   26.2801 N   0  0  0  0  0  0  0  0  0  0  0  0
    9.9895  -16.9313   28.3174 C   0  0  0  0  0  0  0  0  0  0  0  0
   10.2809  -17.9991   29.1484 O   0  0  0  0  0  0  0  0  0  0  0  0
   10.0630  -15.7706   28.7722 O   0  0  0  0  0  0  0  0  0  0  0  0
  2  1  1  6
  2  3  1  0
  3  4  1  0
  5  2  1  0
  6  5  2  0
  8  7  1  6
  8 10  1  0
  9  8  1  0
 10 11  1  6
 10 12  1  0
 11  5  1  0
 12 13  2  0
 15 14  1  0
 16 15  1  6
 17 12  1  0
 17 16  1  0
 18 19  1  0
 18 16  1  0
 20 18  2  0
M  END
$$$$
