CVS.pdb
     RDKit          3D

 20 19  0  0  1  0  0  0  0  0999 V2000
    8.3215  -14.5936   20.5377 N   0  0  0  0  0  0  0  0  0  0  0  0
    7.4430  -14.9266   21.6299 C   0  0  1  0  0  0  0  0  0  0  0  0
    7.0300  -16.3995   21.5395 C   0  0  0  0  0  0  0  0  0  0  0  0
    5.9528  -16.6559   20.1163 S   0  0  0  0  0  0  0  0  0  0  0  0
    8.0771  -14.6557   22.9559 C   0  0  0  0  0  0  0  0  0  0  0  0
    9.3072  -14.7398   23.1370 O   0  0  0  0  0  0  0  0  0  0  0  0
    6.5077  -11.8067   25.4894 C   0  0  0  0  0  0  0  0  0  0  0  0
    6.7985  -13.1249   26.1742 C   0  0  2  0  0  0  0  0  0  0  0  0
    7.5502  -12.8148   27.4631 C   0  0  0  0  0  0  0  0  0  0  0  0
    7.6665  -14.0393   25.3758 C   0  0  2  0  0  0  0  0  0  0  0  0
    7.2292  -14.2900   24.0386 N   0  0  0  0  0  0  0  0  0  0  0  0
    8.0349  -15.3024   26.0920 C   0  0  0  0  0  0  0  0  0  0  0  0
    7.2072  -16.2069   26.3223 O   0  0  0  0  0  0  0  0  0  0  0  0
   11.9443  -16.5836   26.1193 O   0  0  0  0  0  0  0  0  0  0  0  0
   10.8771  -17.4476   26.3683 C   0  0  0  0  0  0  0  0  0  0  0  0
    9.8090  -16.7447   27.1686 C   0  0  2  0  0  0  0  0  0  0  0  0
    9.3666  -15.5203   26.5440 N   0  0  0  0  0  0  0  0  0  0  0  0
   10.3518  -16.5072   28.5275 C   0  0  0  0  0  0  0  0  0  0  0  0
   10.4436  -15.2419   29.0809 O   0  0  0  0  0  0  0  0  0  0  0  0
   10.7393  -17.4903   29.1931 O   0  0  0  0  0  0  0  0  0  0  0  0
  2  1  1  6
  2  3  1  0
  3  4  1  0
  5  2  1  0
  6  5  2  0
  8  7  1  6
  8 10  1  0
  9  8  1  0
 10 11  1  6
 10 12  1  0
 11  5  1  0
 12 13  2  0
 15 14  1  0
 16 15  1  6
 17 12  1  0
 17 16  1  0
 18 19  1  0
 18 16  1  0
 20 18  2  0
M  END
$$$$
