CVS.pdb
     RDKit          3D

 20 19  0  0  1  0  0  0  0  0999 V2000
    7.3627  -16.9063   16.0572 N   0  0  0  0  0  0  0  0  0  0  0  0
    8.7764  -16.6304   16.0273 C   0  0  1  0  0  0  0  0  0  0  0  0
    9.1168  -15.7720   14.8044 C   0  0  0  0  0  0  0  0  0  0  0  0
    7.9911  -16.1506   13.4475 S   0  0  0  0  0  0  0  0  0  0  0  0
    9.2358  -15.9459   17.2740 C   0  0  0  0  0  0  0  0  0  0  0  0
   10.4418  -15.7619   17.5286 O   0  0  0  0  0  0  0  0  0  0  0  0
    7.4005  -12.6876   18.8544 C   0  0  0  0  0  0  0  0  0  0  0  0
    7.5416  -13.8124   19.8575 C   0  0  2  0  0  0  0  0  0  0  0  0
    8.0672  -13.2065   21.1532 C   0  0  0  0  0  0  0  0  0  0  0  0
    8.5142  -14.8668   19.4464 C   0  0  2  0  0  0  0  0  0  0  0  0
    8.2458  -15.4951   18.1913 N   0  0  0  0  0  0  0  0  0  0  0  0
    8.8136  -15.8660   20.5216 C   0  0  0  0  0  0  0  0  0  0  0  0
    8.0512  -16.8189   20.7808 O   0  0  0  0  0  0  0  0  0  0  0  0
   11.5518  -19.0600   21.7274 O   0  0  0  0  0  0  0  0  0  0  0  0
   11.0109  -17.9828   21.0244 C   0  0  0  0  0  0  0  0  0  0  0  0
   10.6134  -16.8819   21.9760 C   0  0  2  0  0  0  0  0  0  0  0  0
   10.0000  -15.7627   21.3006 N   0  0  0  0  0  0  0  0  0  0  0  0
   11.8275  -16.4779   22.7247 C   0  0  0  0  0  0  0  0  0  0  0  0
   12.3590  -15.2023   22.6469 O   0  0  0  0  0  0  0  0  0  0  0  0
   12.3872  -17.3253   23.4515 O   0  0  0  0  0  0  0  0  0  0  0  0
  2  1  1  1
  2  3  1  0
  3  4  1  0
  5  2  1  0
  6  5  2  0
  8  7  1  6
  8 10  1  0
  9  8  1  0
 10 11  1  6
 10 12  1  0
 11  5  1  0
 12 13  2  0
 15 14  1  0
 16 15  1  6
 17 12  1  0
 17 16  1  0
 18 19  1  0
 18 16  1  0
 20 18  2  0
M  END
$$$$
