CVS.pdb
     RDKit          3D

 20 19  0  0  1  0  0  0  0  0999 V2000
    5.1884  -19.1614   20.2576 N   0  0  0  0  0  0  0  0  0  0  0  0
    5.3318  -18.3708   21.4534 C   0  0  1  0  0  0  0  0  0  0  0  0
    5.2992  -19.2779   22.6880 C   0  0  0  0  0  0  0  0  0  0  0  0
    5.2995  -18.2812   24.1908 S   0  0  0  0  0  0  0  0  0  0  0  0
    6.5938  -17.5702   21.4426 C   0  0  0  0  0  0  0  0  0  0  0  0
    7.6808  -18.0431   21.0582 O   0  0  0  0  0  0  0  0  0  0  0  0
    6.6358  -13.6389   20.4599 C   0  0  0  0  0  0  0  0  0  0  0  0
    7.3670  -13.8998   21.7593 C   0  0  2  0  0  0  0  0  0  0  0  0
    8.7130  -13.1898   21.6775 C   0  0  0  0  0  0  0  0  0  0  0  0
    7.6530  -15.3428   22.0097 C   0  0  2  0  0  0  0  0  0  0  0  0
    6.5320  -16.2212   21.8912 N   0  0  0  0  0  0  0  0  0  0  0  0
    8.4347  -15.5963   23.2622 C   0  0  0  0  0  0  0  0  0  0  0  0
    7.8859  -15.8215   24.3596 O   0  0  0  0  0  0  0  0  0  0  0  0
   10.1221  -18.3150   25.4175 O   0  0  0  0  0  0  0  0  0  0  0  0
   10.3011  -17.8408   24.1174 C   0  0  0  0  0  0  0  0  0  0  0  0
   10.6721  -16.3788   24.1388 C   0  0  2  0  0  0  0  0  0  0  0  0
    9.8577  -15.5892   23.2453 N   0  0  0  0  0  0  0  0  0  0  0  0
   12.1135  -16.2783   23.8072 C   0  0  0  0  0  0  0  0  0  0  0  0
   13.0916  -16.1401   24.7766 O   0  0  0  0  0  0  0  0  0  0  0  0
   12.4515  -16.3205   22.6057 O   0  0  0  0  0  0  0  0  0  0  0  0
  2  1  1  6
  2  3  1  0
  3  4  1  0
  5  2  1  0
  6  5  2  0
  8  7  1  6
  8 10  1  0
  9  8  1  0
 10 11  1  1
 10 12  1  0
 11  5  1  0
 12 13  2  0
 15 14  1  0
 16 15  1  6
 17 12  1  0
 17 16  1  0
 18 19  1  0
 18 16  1  0
 20 18  2  0
M  END
$$$$
