CVS.pdb
     RDKit          3D

 20 19  0  0  1  0  0  0  0  0999 V2000
    7.1794  -16.6740   21.1828 N   0  0  0  0  0  0  0  0  0  0  0  0
    6.8765  -16.7001   22.5910 C   0  0  1  0  0  0  0  0  0  0  0  0
    7.0595  -18.1189   23.1400 C   0  0  0  0  0  0  0  0  0  0  0  0
    5.6363  -18.5842   24.1448 S   0  0  0  0  0  0  0  0  0  0  0  0
    7.7275  -15.7423   23.3607 C   0  0  0  0  0  0  0  0  0  0  0  0
    8.9569  -15.6481   23.1799 O   0  0  0  0  0  0  0  0  0  0  0  0
    7.8077  -11.9386   26.6005 C   0  0  0  0  0  0  0  0  0  0  0  0
    7.0184  -12.8562   25.6916 C   0  0  2  0  0  0  0  0  0  0  0  0
    5.8069  -13.3457   26.4759 C   0  0  0  0  0  0  0  0  0  0  0  0
    7.7728  -14.0687   25.2584 C   0  0  2  0  0  0  0  0  0  0  0  0
    7.0930  -14.9167   24.3306 N   0  0  0  0  0  0  0  0  0  0  0  0
    8.3742  -14.8437   26.3906 C   0  0  0  0  0  0  0  0  0  0  0  0
    7.7335  -15.7040   27.0275 O   0  0  0  0  0  0  0  0  0  0  0  0
   12.0084  -16.0382   26.1956 O   0  0  0  0  0  0  0  0  0  0  0  0
   11.8478  -15.6136   27.5151 C   0  0  0  0  0  0  0  0  0  0  0  0
   10.3880  -15.3844   27.8184 C   0  0  2  0  0  0  0  0  0  0  0  0
    9.7227  -14.6226   26.7879 N   0  0  0  0  0  0  0  0  0  0  0  0
   10.3051  -14.7173   29.1397 C   0  0  0  0  0  0  0  0  0  0  0  0
   10.7375  -15.3228   30.3068 O   0  0  0  0  0  0  0  0  0  0  0  0
    9.8259  -13.5654   29.1951 O   0  0  0  0  0  0  0  0  0  0  0  0
  2  1  1  6
  2  3  1  0
  3  4  1  0
  5  2  1  0
  6  5  2  0
  8  7  1  1
  8 10  1  0
  9  8  1  0
 10 11  1  1
 10 12  1  0
 11  5  1  0
 12 13  2  0
 15 14  1  0
 16 15  1  6
 17 12  1  0
 17 16  1  0
 18 19  1  0
 18 16  1  0
 20 18  2  0
M  END
$$$$
