YSP.pdb
     RDKit          3D

 26 27  0  0  1  0  0  0  0  0999 V2000
   12.6927  -29.0885    2.2769 O   0  0  0  0  0  0  0  0  0  0  0  0
   13.5441  -28.0249    2.5540 C   0  0  0  0  0  0  0  0  0  0  0  0
   14.8733  -28.2786    2.8355 C   0  0  0  0  0  0  0  0  0  0  0  0
   15.7160  -27.2177    3.1104 C   0  0  0  0  0  0  0  0  0  0  0  0
   15.2741  -25.9138    3.1133 C   0  0  0  0  0  0  0  0  0  0  0  0
   16.1818  -24.7912    3.4156 C   0  0  0  0  0  0  0  0  0  0  0  0
   16.5344  -23.9923    2.1955 C   0  0  2  0  0  0  0  0  0  0  0  0
   17.2175  -24.8472    1.2240 N   0  0  0  0  0  0  0  0  0  0  0  0
   17.4392  -22.8873    2.5802 C   0  0  0  0  0  0  0  0  0  0  0  0
   18.6482  -23.0397    2.8127 O   0  0  0  0  0  0  0  0  0  0  0  0
   13.9410  -25.6535    2.8313 C   0  0  0  0  0  0  0  0  0  0  0  0
   13.1121  -26.7148    2.5594 C   0  0  0  0  0  0  0  0  0  0  0  0
   15.8395  -19.1896    2.8526 O   0  0  0  0  0  0  0  0  0  0  0  0
   17.1909  -19.2249    2.4283 C   0  0  0  0  0  0  0  0  0  0  0  0
   17.7942  -20.4318    3.1067 C   0  0  2  0  0  0  0  0  0  0  0  0
   16.9298  -21.5541    2.7016 N   0  0  0  0  0  0  0  0  0  0  0  0
   17.8905  -20.3405    4.5615 C   0  0  0  0  0  0  0  0  0  0  0  0
   17.0464  -21.0563    5.2123 O   0  0  0  0  0  0  0  0  0  0  0  0
   18.7858  -19.5738    5.3290 N   0  0  0  0  0  0  0  0  0  0  0  0
   19.8990  -18.7940    4.7561 C   0  0  0  0  0  0  0  0  0  0  0  0
   20.9683  -18.8796    5.8032 C   0  0  0  0  0  0  0  0  0  0  0  0
   20.3616  -19.5666    6.9981 C   0  0  0  0  0  0  0  0  0  0  0  0
   18.8817  -19.3162    6.7502 C   0  0  1  0  0  0  0  0  0  0  0  0
   18.5257  -17.8980    7.0988 C   0  0  0  0  0  0  0  0  0  0  0  0
   18.4599  -17.6166    8.3216 O   0  0  0  0  0  0  0  0  0  0  0  0
   18.2721  -16.9103    6.1831 O   0  0  0  0  0  0  0  0  0  0  0  0
  2  3  2  0
  2  1  1  0
  4  3  1  0
  5  4  2  0
  6  5  1  0
  7  6  1  0
  7  9  1  0
  7  8  1  6
  9 16  1  0
  9 10  2  0
 11  5  1  0
 11 12  2  0
 12  2  1  0
 14 13  1  0
 15 14  1  1
 16 15  1  0
 17 15  1  0
 17 18  2  0
 19 17  1  0
 20 19  1  0
 21 20  1  0
 21 22  1  0
 22 23  1  0
 23 19  1  0
 23 24  1  6
 25 24  2  0
 26 24  1  0
M  END
$$$$
