YSP.pdb
     RDKit          3D

 26 27  0  0  1  0  0  0  0  0999 V2000
   22.4834  -22.0825   -6.7232 O   0  0  0  0  0  0  0  0  0  0  0  0
   23.1584  -21.5778   -7.8289 C   0  0  0  0  0  0  0  0  0  0  0  0
   24.5263  -21.3920   -7.7591 C   0  0  0  0  0  0  0  0  0  0  0  0
   25.1930  -20.8899   -8.8612 C   0  0  0  0  0  0  0  0  0  0  0  0
   24.5381  -20.5679  -10.0287 C   0  0  0  0  0  0  0  0  0  0  0  0
   25.2601  -20.0258  -11.1951 C   0  0  0  0  0  0  0  0  0  0  0  0
   25.2004  -20.9395  -12.3837 C   0  0  2  0  0  0  0  0  0  0  0  0
   26.0400  -22.1144  -12.1479 N   0  0  0  0  0  0  0  0  0  0  0  0
   25.7035  -20.2230  -13.5759 C   0  0  0  0  0  0  0  0  0  0  0  0
   26.8762  -19.8380  -13.7010 O   0  0  0  0  0  0  0  0  0  0  0  0
   23.1653  -20.7526  -10.1042 C   0  0  0  0  0  0  0  0  0  0  0  0
   22.5124  -21.2521   -9.0035 C   0  0  0  0  0  0  0  0  0  0  0  0
   23.0779  -19.2653  -16.6220 O   0  0  0  0  0  0  0  0  0  0  0  0
   24.3765  -19.7104  -16.9731 C   0  0  0  0  0  0  0  0  0  0  0  0
   25.2819  -19.2215  -15.8676 C   0  0  2  0  0  0  0  0  0  0  0  0
   24.8196  -19.9392  -14.6667 N   0  0  0  0  0  0  0  0  0  0  0  0
   25.2721  -17.7765  -15.6530 C   0  0  0  0  0  0  0  0  0  0  0  0
   24.4626  -17.3628  -14.7465 O   0  0  0  0  0  0  0  0  0  0  0  0
   26.0338  -16.7931  -16.3097 N   0  0  0  0  0  0  0  0  0  0  0  0
   27.0067  -17.0862  -17.3789 C   0  0  0  0  0  0  0  0  0  0  0  0
   28.0771  -16.0565  -17.1769 C   0  0  0  0  0  0  0  0  0  0  0  0
   27.5900  -15.1183  -16.1043 C   0  0  0  0  0  0  0  0  0  0  0  0
   26.0889  -15.3524  -16.1809 C   0  0  1  0  0  0  0  0  0  0  0  0
   25.5103  -14.6495  -17.3771 C   0  0  0  0  0  0  0  0  0  0  0  0
   25.2553  -15.3605  -18.3812 O   0  0  0  0  0  0  0  0  0  0  0  0
   25.2486  -13.3057  -17.4405 O   0  0  0  0  0  0  0  0  0  0  0  0
  2  3  2  0
  2  1  1  0
  4  3  1  0
  5  4  2  0
  6  5  1  0
  7  6  1  0
  7  9  1  0
  7  8  1  1
  9 16  1  0
  9 10  2  0
 11  5  1  0
 11 12  2  0
 12  2  1  0
 14 13  1  0
 15 14  1  6
 16 15  1  0
 17 15  1  0
 17 18  2  0
 19 17  1  0
 20 19  1  0
 21 20  1  0
 21 22  1  0
 22 23  1  0
 23 19  1  0
 23 24  1  6
 25 24  2  0
 26 24  1  0
M  END
$$$$
