YSP.pdb
     RDKit          3D

 26 27  0  0  1  0  0  0  0  0999 V2000
   17.0428  -22.4580  -15.0210 O   0  0  0  0  0  0  0  0  0  0  0  0
   18.4270  -22.5812  -15.0619 C   0  0  0  0  0  0  0  0  0  0  0  0
   19.2020  -21.7699  -14.2547 C   0  0  0  0  0  0  0  0  0  0  0  0
   20.5780  -21.8962  -14.2988 C   0  0  0  0  0  0  0  0  0  0  0  0
   21.2034  -22.8052  -15.1223 C   0  0  0  0  0  0  0  0  0  0  0  0
   22.6729  -22.9249  -15.1656 C   0  0  0  0  0  0  0  0  0  0  0  0
   23.3200  -21.7953  -15.9117 C   0  0  2  0  0  0  0  0  0  0  0  0
   23.1622  -21.9983  -17.3521 N   0  0  0  0  0  0  0  0  0  0  0  0
   24.7629  -21.7600  -15.5884 C   0  0  0  0  0  0  0  0  0  0  0  0
   25.5561  -22.6649  -15.8901 O   0  0  0  0  0  0  0  0  0  0  0  0
   20.4303  -23.6221  -15.9344 C   0  0  0  0  0  0  0  0  0  0  0  0
   19.0640  -23.4886  -15.8828 C   0  0  0  0  0  0  0  0  0  0  0  0
   26.3308  -18.4644  -13.6634 O   0  0  0  0  0  0  0  0  0  0  0  0
   27.1895  -19.2777  -14.4438 C   0  0  0  0  0  0  0  0  0  0  0  0
   26.6591  -20.6836  -14.2928 C   0  0  2  0  0  0  0  0  0  0  0  0
   25.3128  -20.6370  -14.8898 N   0  0  0  0  0  0  0  0  0  0  0  0
   26.6088  -21.1821  -12.9205 C   0  0  0  0  0  0  0  0  0  0  0  0
   25.5734  -21.8833  -12.6300 O   0  0  0  0  0  0  0  0  0  0  0  0
   27.5463  -20.9913  -11.8894 N   0  0  0  0  0  0  0  0  0  0  0  0
   28.8095  -20.2480  -12.0554 C   0  0  0  0  0  0  0  0  0  0  0  0
   29.7640  -20.9625  -11.1468 C   0  0  0  0  0  0  0  0  0  0  0  0
   28.9633  -21.9806  -10.3786 C   0  0  0  0  0  0  0  0  0  0  0  0
   27.5650  -21.3938  -10.4991 C   0  0  1  0  0  0  0  0  0  0  0  0
   27.4050  -20.2273   -9.5646 C   0  0  0  0  0  0  0  0  0  0  0  0
   27.6476  -19.0883  -10.0366 O   0  0  0  0  0  0  0  0  0  0  0  0
   27.0187  -20.3261   -8.2534 O   0  0  0  0  0  0  0  0  0  0  0  0
  2  3  2  0
  2  1  1  0
  4  3  1  0
  5  4  2  0
  6  5  1  0
  7  6  1  0
  7  9  1  0
  7  8  1  6
  9 16  1  0
  9 10  2  0
 11  5  1  0
 11 12  2  0
 12  2  1  0
 14 13  1  0
 15 14  1  1
 16 15  1  0
 17 15  1  0
 17 18  2  0
 19 17  1  0
 20 19  1  0
 21 20  1  0
 21 22  1  0
 22 23  1  0
 23 19  1  0
 23 24  1  1
 25 24  2  0
 26 24  1  0
M  END
$$$$
