YSP.pdb
     RDKit          3D

 26 27  0  0  1  0  0  0  0  0999 V2000
   28.3687  -19.5351   -5.0961 O   0  0  0  0  0  0  0  0  0  0  0  0
   28.0237  -19.6746   -6.4357 C   0  0  0  0  0  0  0  0  0  0  0  0
   29.0205  -19.6830   -7.3931 C   0  0  0  0  0  0  0  0  0  0  0  0
   28.6724  -19.8220   -8.7238 C   0  0  0  0  0  0  0  0  0  0  0  0
   27.3628  -19.9523   -9.1279 C   0  0  0  0  0  0  0  0  0  0  0  0
   27.0040  -20.0924  -10.5518 C   0  0  0  0  0  0  0  0  0  0  0  0
   26.6249  -21.4983  -10.9136 C   0  0  2  0  0  0  0  0  0  0  0  0
   27.8129  -22.3523  -10.8940 N   0  0  0  0  0  0  0  0  0  0  0  0
   26.0471  -21.5130  -12.2751 C   0  0  0  0  0  0  0  0  0  0  0  0
   26.6939  -21.2405  -13.2980 O   0  0  0  0  0  0  0  0  0  0  0  0
   26.3584  -19.9446   -8.1711 C   0  0  0  0  0  0  0  0  0  0  0  0
   26.7150  -19.8061   -6.8516 C   0  0  0  0  0  0  0  0  0  0  0  0
   23.7549  -24.2062  -13.8315 O   0  0  0  0  0  0  0  0  0  0  0  0
   23.0285  -22.9947  -13.7208 C   0  0  0  0  0  0  0  0  0  0  0  0
   24.0619  -21.8967  -13.8062 C   0  0  2  0  0  0  0  0  0  0  0  0
   24.6693  -21.8555  -12.4644 N   0  0  0  0  0  0  0  0  0  0  0  0
   23.5423  -20.5860  -14.1888 C   0  0  0  0  0  0  0  0  0  0  0  0
   23.2631  -19.8010  -13.2120 O   0  0  0  0  0  0  0  0  0  0  0  0
   23.3138  -20.0832  -15.4823 N   0  0  0  0  0  0  0  0  0  0  0  0
   23.5560  -20.8527  -16.7171 C   0  0  0  0  0  0  0  0  0  0  0  0
   23.9997  -19.8134  -17.7020 C   0  0  0  0  0  0  0  0  0  0  0  0
   23.8349  -18.4738  -17.0340 C   0  0  0  0  0  0  0  0  0  0  0  0
   22.8103  -18.8137  -15.9622 C   0  0  1  0  0  0  0  0  0  0  0  0
   21.4401  -18.9350  -16.5683 C   0  0  0  0  0  0  0  0  0  0  0  0
   20.8465  -17.8619  -16.8417 O   0  0  0  0  0  0  0  0  0  0  0  0
   20.8084  -20.1215  -16.8361 O   0  0  0  0  0  0  0  0  0  0  0  0
  2  3  2  0
  2  1  1  0
  4  3  1  0
  5  4  2  0
  6  5  1  0
  7  6  1  0
  7  9  1  0
  7  8  1  6
  9 16  1  0
  9 10  2  0
 11  5  1  0
 11 12  2  0
 12  2  1  0
 14 13  1  0
 15 14  1  1
 16 15  1  0
 17 15  1  0
 17 18  2  0
 19 17  1  0
 20 19  1  0
 21 20  1  0
 21 22  1  0
 22 23  1  0
 23 19  1  0
 23 24  1  6
 25 24  2  0
 26 24  1  0
M  END
$$$$
