YSP.pdb
     RDKit          3D

 26 27  0  0  1  0  0  0  0  0999 V2000
   20.0629  -19.1376  -14.5929 O   0  0  0  0  0  0  0  0  0  0  0  0
   21.0215  -19.7040  -13.7602 C   0  0  0  0  0  0  0  0  0  0  0  0
   21.7165  -18.8948  -12.8813 C   0  0  0  0  0  0  0  0  0  0  0  0
   22.6687  -19.4627  -12.0554 C   0  0  0  0  0  0  0  0  0  0  0  0
   22.9485  -20.8105  -12.0796 C   0  0  0  0  0  0  0  0  0  0  0  0
   23.9723  -21.4029  -11.1984 C   0  0  0  0  0  0  0  0  0  0  0  0
   25.3686  -21.0650  -11.6313 C   0  0  2  0  0  0  0  0  0  0  0  0
   25.6567  -21.7024  -12.9165 N   0  0  0  0  0  0  0  0  0  0  0  0
   26.3272  -21.5666  -10.6227 C   0  0  0  0  0  0  0  0  0  0  0  0
   26.4241  -22.7612  -10.3026 O   0  0  0  0  0  0  0  0  0  0  0  0
   22.2537  -21.6272  -12.9598 C   0  0  0  0  0  0  0  0  0  0  0  0
   21.3095  -21.0530  -13.7760 C   0  0  0  0  0  0  0  0  0  0  0  0
   29.5850  -19.7220   -9.8450 O   0  0  0  0  0  0  0  0  0  0  0  0
   29.4358  -21.0037   -9.2597 C   0  0  0  0  0  0  0  0  0  0  0  0
   28.0031  -21.0655   -8.7861 C   0  0  2  0  0  0  0  0  0  0  0  0
   27.2087  -20.6547   -9.9570 N   0  0  0  0  0  0  0  0  0  0  0  0
   27.6984  -20.2325   -7.6253 C   0  0  0  0  0  0  0  0  0  0  0  0
   26.6926  -19.4467   -7.7639 O   0  0  0  0  0  0  0  0  0  0  0  0
   28.3638  -20.1869   -6.3870 N   0  0  0  0  0  0  0  0  0  0  0  0
   29.5834  -20.9580   -6.0813 C   0  0  0  0  0  0  0  0  0  0  0  0
   29.4426  -21.2827   -4.6247 C   0  0  0  0  0  0  0  0  0  0  0  0
   28.2295  -20.5443   -4.1235 C   0  0  0  0  0  0  0  0  0  0  0  0
   28.1120  -19.4459   -5.1693 C   0  0  1  0  0  0  0  0  0  0  0  0
   29.1432  -18.3796   -4.9260 C   0  0  0  0  0  0  0  0  0  0  0  0
   30.1048  -18.3294   -5.7332 O   0  0  0  0  0  0  0  0  0  0  0  0
   29.1017  -17.4753   -3.8970 O   0  0  0  0  0  0  0  0  0  0  0  0
  2  3  2  0
  2  1  1  0
  4  3  1  0
  5  4  2  0
  6  5  1  0
  7  6  1  0
  7  9  1  0
  7  8  1  6
  9 16  1  0
  9 10  2  0
 11  5  1  0
 11 12  2  0
 12  2  1  0
 14 13  1  0
 15 14  1  6
 16 15  1  0
 17 15  1  0
 17 18  2  0
 19 17  1  0
 20 19  1  0
 21 20  1  0
 21 22  1  0
 22 23  1  0
 23 19  1  0
 23 24  1  1
 25 24  2  0
 26 24  1  0
M  END
$$$$
