YSP.pdb
     RDKit          3D

 26 27  0  0  1  0  0  0  0  0999 V2000
   24.5817  -31.7034  -11.6702 O   0  0  0  0  0  0  0  0  0  0  0  0
   24.8773  -32.1703  -10.3945 C   0  0  0  0  0  0  0  0  0  0  0  0
   23.8431  -32.4849   -9.5332 C   0  0  0  0  0  0  0  0  0  0  0  0
   24.1421  -32.9488   -8.2657 C   0  0  0  0  0  0  0  0  0  0  0  0
   25.4389  -33.1080   -7.8318 C   0  0  0  0  0  0  0  0  0  0  0  0
   25.7447  -33.5968   -6.4741 C   0  0  0  0  0  0  0  0  0  0  0  0
   26.6357  -34.8040   -6.4847 C   0  0  2  0  0  0  0  0  0  0  0  0
   26.2131  -35.7223   -7.5426 N   0  0  0  0  0  0  0  0  0  0  0  0
   26.5353  -35.4963   -5.1815 C   0  0  0  0  0  0  0  0  0  0  0  0
   25.5393  -36.1432   -4.8231 O   0  0  0  0  0  0  0  0  0  0  0  0
   26.4808  -32.7939   -8.6922 C   0  0  0  0  0  0  0  0  0  0  0  0
   26.1728  -32.3339   -9.9495 C   0  0  0  0  0  0  0  0  0  0  0  0
   29.2559  -34.6598   -2.3876 O   0  0  0  0  0  0  0  0  0  0  0  0
   28.9988  -36.0524   -2.4358 C   0  0  0  0  0  0  0  0  0  0  0  0
   27.5976  -36.1842   -2.9835 C   0  0  2  0  0  0  0  0  0  0  0  0
   27.6264  -35.4404   -4.2552 N   0  0  0  0  0  0  0  0  0  0  0  0
   26.5408  -35.6859   -2.1066 C   0  0  0  0  0  0  0  0  0  0  0  0
   26.0436  -34.5498   -2.4388 O   0  0  0  0  0  0  0  0  0  0  0  0
   26.0057  -36.2922   -0.9558 N   0  0  0  0  0  0  0  0  0  0  0  0
   26.4817  -37.5759   -0.4072 C   0  0  0  0  0  0  0  0  0  0  0  0
   25.2431  -38.2004    0.1610 C   0  0  0  0  0  0  0  0  0  0  0  0
   24.1449  -37.1751    0.0577 C   0  0  0  0  0  0  0  0  0  0  0  0
   24.9592  -35.8937   -0.0384 C   0  0  1  0  0  0  0  0  0  0  0  0
   25.4980  -35.5139    1.3125 C   0  0  0  0  0  0  0  0  0  0  0  0
   24.6594  -35.1392    2.1699 O   0  0  0  0  0  0  0  0  0  0  0  0
   26.8229  -35.5492    1.6614 O   0  0  0  0  0  0  0  0  0  0  0  0
  2  3  2  0
  2  1  1  0
  4  3  1  0
  5  4  2  0
  6  5  1  0
  7  6  1  0
  7  9  1  0
  7  8  1  6
  9 16  1  0
  9 10  2  0
 11  5  1  0
 11 12  2  0
 12  2  1  0
 14 13  1  0
 15 14  1  1
 16 15  1  0
 17 15  1  0
 17 18  2  0
 19 17  1  0
 20 19  1  0
 21 20  1  0
 21 22  1  0
 22 23  1  0
 23 19  1  0
 23 24  1  1
 25 24  2  0
 26 24  1  0
M  END
$$$$
