YSP.pdb
     RDKit          3D

 26 27  0  0  1  0  0  0  0  0999 V2000
   13.4824   -5.4011   -5.7120 O   0  0  0  0  0  0  0  0  0  0  0  0
   13.6253   -6.3433   -6.7243 C   0  0  0  0  0  0  0  0  0  0  0  0
   14.7161   -6.2669   -7.5698 C   0  0  0  0  0  0  0  0  0  0  0  0
   14.8539   -7.2061   -8.5748 C   0  0  0  0  0  0  0  0  0  0  0  0
   13.9384   -8.2172   -8.7621 C   0  0  0  0  0  0  0  0  0  0  0  0
   14.0929   -9.2088   -9.8431 C   0  0  0  0  0  0  0  0  0  0  0  0
   13.6874   -8.6672  -11.1823 C   0  0  2  0  0  0  0  0  0  0  0  0
   12.2639   -8.3287  -11.1693 N   0  0  0  0  0  0  0  0  0  0  0  0
   13.9253   -9.6965  -12.2175 C   0  0  0  0  0  0  0  0  0  0  0  0
   13.2011  -10.6913  -12.3752 O   0  0  0  0  0  0  0  0  0  0  0  0
   12.8419   -8.2986   -7.9162 C   0  0  0  0  0  0  0  0  0  0  0  0
   12.7144   -7.3605   -6.9207 C   0  0  0  0  0  0  0  0  0  0  0  0
   17.4322   -9.7344  -14.3833 O   0  0  0  0  0  0  0  0  0  0  0  0
   16.2308   -9.8056  -15.1311 C   0  0  0  0  0  0  0  0  0  0  0  0
   15.2380  -10.5034  -14.2321 C   0  0  2  0  0  0  0  0  0  0  0  0
   15.0422   -9.5737  -13.1058 N   0  0  0  0  0  0  0  0  0  0  0  0
   15.6515  -11.8224  -13.7594 C   0  0  0  0  0  0  0  0  0  0  0  0
   16.2189  -11.8386  -12.6078 O   0  0  0  0  0  0  0  0  0  0  0  0
   15.5048  -13.0641  -14.4036 N   0  0  0  0  0  0  0  0  0  0  0  0
   14.9384  -13.2257  -15.7559 C   0  0  0  0  0  0  0  0  0  0  0  0
   14.2252  -14.5424  -15.6871 C   0  0  0  0  0  0  0  0  0  0  0  0
   14.5524  -15.1520  -14.3495 C   0  0  0  0  0  0  0  0  0  0  0  0
   15.8389  -14.4157  -14.0076 C   0  0  1  0  0  0  0  0  0  0  0  0
   16.9879  -14.9752  -14.7991 C   0  0  0  0  0  0  0  0  0  0  0  0
   17.4513  -16.0793  -14.4183 O   0  0  0  0  0  0  0  0  0  0  0  0
   17.5522  -14.3673  -15.8901 O   0  0  0  0  0  0  0  0  0  0  0  0
  2  3  2  0
  2  1  1  0
  4  3  1  0
  5  4  2  0
  6  5  1  0
  7  6  1  0
  7  9  1  0
  7  8  1  1
  9 16  1  0
  9 10  2  0
 11  5  1  0
 11 12  2  0
 12  2  1  0
 14 13  1  0
 15 14  1  6
 16 15  1  0
 17 15  1  0
 17 18  2  0
 19 17  1  0
 20 19  1  0
 21 20  1  0
 21 22  1  0
 22 23  1  0
 23 19  1  0
 23 24  1  6
 25 24  2  0
 26 24  1  0
M  END
$$$$
