YSP.pdb
     RDKit          3D

 26 27  0  0  1  0  0  0  0  0999 V2000
   11.6502  -15.8158  -18.4975 O   0  0  0  0  0  0  0  0  0  0  0  0
   12.7361  -15.1592  -17.9294 C   0  0  0  0  0  0  0  0  0  0  0  0
   13.6929  -14.5971  -18.7534 C   0  0  0  0  0  0  0  0  0  0  0  0
   14.7707  -13.9452  -18.1837 C   0  0  0  0  0  0  0  0  0  0  0  0
   14.9232  -13.8373  -16.8197 C   0  0  0  0  0  0  0  0  0  0  0  0
   16.0819  -13.1456  -16.2242 C   0  0  0  0  0  0  0  0  0  0  0  0
   17.3796  -13.8380  -16.5210 C   0  0  2  0  0  0  0  0  0  0  0  0
   17.4406  -15.1076  -15.7961 N   0  0  0  0  0  0  0  0  0  0  0  0
   18.5019  -12.9810  -16.0809 C   0  0  0  0  0  0  0  0  0  0  0  0
   18.7192  -12.6905  -14.8945 O   0  0  0  0  0  0  0  0  0  0  0  0
   13.9657  -14.3995  -15.9880 C   0  0  0  0  0  0  0  0  0  0  0  0
   12.8986  -15.0449  -16.5642 C   0  0  0  0  0  0  0  0  0  0  0  0
   20.5537  -10.8387  -18.8784 O   0  0  0  0  0  0  0  0  0  0  0  0
   21.3719  -11.4301  -17.8843 C   0  0  0  0  0  0  0  0  0  0  0  0
   20.5016  -11.5301  -16.6541 C   0  0  2  0  0  0  0  0  0  0  0  0
   19.4093  -12.4376  -17.0468 N   0  0  0  0  0  0  0  0  0  0  0  0
   19.9776  -10.2585  -16.1615 C   0  0  0  0  0  0  0  0  0  0  0  0
   18.7467  -10.0271  -16.4439 O   0  0  0  0  0  0  0  0  0  0  0  0
   20.6484   -9.2674  -15.4226 N   0  0  0  0  0  0  0  0  0  0  0  0
   22.0639   -9.3613  -15.0187 C   0  0  0  0  0  0  0  0  0  0  0  0
   22.1014   -8.6658  -13.6914 C   0  0  0  0  0  0  0  0  0  0  0  0
   20.7393   -8.0624  -13.4710 C   0  0  0  0  0  0  0  0  0  0  0  0
   20.2270   -7.9844  -14.9012 C   0  0  1  0  0  0  0  0  0  0  0  0
   20.8701   -6.8346  -15.6251 C   0  0  0  0  0  0  0  0  0  0  0  0
   21.7829   -7.1201  -16.4401 O   0  0  0  0  0  0  0  0  0  0  0  0
   20.5301   -5.5180  -15.4546 O   0  0  0  0  0  0  0  0  0  0  0  0
  2  3  2  0
  2  1  1  0
  4  3  1  0
  5  4  2  0
  6  5  1  0
  7  6  1  0
  7  9  1  0
  7  8  1  1
  9 16  1  0
  9 10  2  0
 11  5  1  0
 11 12  2  0
 12  2  1  0
 14 13  1  0
 15 14  1  6
 16 15  1  0
 17 15  1  0
 17 18  2  0
 19 17  1  0
 20 19  1  0
 21 20  1  0
 21 22  1  0
 22 23  1  0
 23 19  1  0
 23 24  1  6
 25 24  2  0
 26 24  1  0
M  END
$$$$
