YSP.pdb
     RDKit          3D

 26 27  0  0  1  0  0  0  0  0999 V2000
   22.5287   -1.1226  -16.0036 O   0  0  0  0  0  0  0  0  0  0  0  0
   22.7416   -2.4634  -15.7035 C   0  0  0  0  0  0  0  0  0  0  0  0
   23.7612   -3.1451  -16.3408 C   0  0  0  0  0  0  0  0  0  0  0  0
   23.9689   -4.4781  -16.0391 C   0  0  0  0  0  0  0  0  0  0  0  0
   23.1919   -5.1508  -15.1229 C   0  0  0  0  0  0  0  0  0  0  0  0
   23.4191   -6.5754  -14.8154 C   0  0  0  0  0  0  0  0  0  0  0  0
   22.6811   -7.4897  -15.7486 C   0  0  2  0  0  0  0  0  0  0  0  0
   21.2504   -7.4594  -15.4433 N   0  0  0  0  0  0  0  0  0  0  0  0
   23.1789   -8.8715  -15.5731 C   0  0  0  0  0  0  0  0  0  0  0  0
   22.6465   -9.7023  -14.8212 O   0  0  0  0  0  0  0  0  0  0  0  0
   22.1674   -4.4713  -14.4803 C   0  0  0  0  0  0  0  0  0  0  0  0
   21.9695   -3.1469  -14.7872 C   0  0  0  0  0  0  0  0  0  0  0  0
   23.2697  -11.1967  -17.7966 O   0  0  0  0  0  0  0  0  0  0  0  0
   23.6652  -11.5666  -16.4872 C   0  0  0  0  0  0  0  0  0  0  0  0
   24.8490  -10.6874  -16.1610 C   0  0  2  0  0  0  0  0  0  0  0  0
   24.3359   -9.3126  -16.2930 N   0  0  0  0  0  0  0  0  0  0  0  0
   26.0241  -10.8935  -17.0042 C   0  0  0  0  0  0  0  0  0  0  0  0
   26.1693  -10.0463  -17.9579 O   0  0  0  0  0  0  0  0  0  0  0  0
   27.0064  -11.8948  -16.8999 N   0  0  0  0  0  0  0  0  0  0  0  0
   26.9582  -12.9931  -15.9166 C   0  0  0  0  0  0  0  0  0  0  0  0
   28.3998  -13.2376  -15.5863 C   0  0  0  0  0  0  0  0  0  0  0  0
   29.2169  -12.3801  -16.5163 C   0  0  0  0  0  0  0  0  0  0  0  0
   28.2211  -12.1529  -17.6437 C   0  0  1  0  0  0  0  0  0  0  0  0
   28.1145  -13.3817  -18.5029 C   0  0  0  0  0  0  0  0  0  0  0  0
   27.1224  -14.1263  -18.3028 O   0  0  0  0  0  0  0  0  0  0  0  0
   29.0158  -13.7351  -19.4731 O   0  0  0  0  0  0  0  0  0  0  0  0
  2  3  2  0
  2  1  1  0
  4  3  1  0
  5  4  2  0
  6  5  1  0
  7  6  1  0
  7  9  1  0
  7  8  1  1
  9 16  1  0
  9 10  2  0
 11  5  1  0
 11 12  2  0
 12  2  1  0
 14 13  1  0
 15 14  1  6
 16 15  1  0
 17 15  1  0
 17 18  2  0
 19 17  1  0
 20 19  1  0
 21 20  1  0
 21 22  1  0
 22 23  1  0
 23 19  1  0
 23 24  1  6
 25 24  2  0
 26 24  1  0
M  END
$$$$
