YSP.pdb
     RDKit          3D

 26 27  0  0  1  0  0  0  0  0999 V2000
   19.4498  -22.9728  -12.5018 O   0  0  0  0  0  0  0  0  0  0  0  0
   20.2868  -22.1635  -13.2618 C   0  0  0  0  0  0  0  0  0  0  0  0
   21.0633  -21.2111  -12.6291 C   0  0  0  0  0  0  0  0  0  0  0  0
   21.8940  -20.4088  -13.3891 C   0  0  0  0  0  0  0  0  0  0  0  0
   21.9735  -20.5272  -14.7585 C   0  0  0  0  0  0  0  0  0  0  0  0
   22.8583  -19.6598  -15.5587 C   0  0  0  0  0  0  0  0  0  0  0  0
   22.4169  -18.2258  -15.5521 C   0  0  2  0  0  0  0  0  0  0  0  0
   21.0187  -18.1359  -15.9741 N   0  0  0  0  0  0  0  0  0  0  0  0
   23.2527  -17.4535  -16.4969 C   0  0  0  0  0  0  0  0  0  0  0  0
   23.0796  -17.4548  -17.7253 O   0  0  0  0  0  0  0  0  0  0  0  0
   21.1964  -21.4817  -15.3985 C   0  0  0  0  0  0  0  0  0  0  0  0
   20.3745  -22.2738  -14.6341 C   0  0  0  0  0  0  0  0  0  0  0  0
   26.6580  -15.6983  -15.1562 O   0  0  0  0  0  0  0  0  0  0  0  0
   25.8646  -14.8552  -15.9731 C   0  0  0  0  0  0  0  0  0  0  0  0
   25.1171  -15.7823  -16.9019 C   0  0  2  0  0  0  0  0  0  0  0  0
   24.3306  -16.6480  -16.0058 N   0  0  0  0  0  0  0  0  0  0  0  0
   25.9591  -16.5757  -17.7940 C   0  0  0  0  0  0  0  0  0  0  0  0
   26.2181  -17.7658  -17.3882 O   0  0  0  0  0  0  0  0  0  0  0  0
   26.5140  -16.2002  -19.0308 N   0  0  0  0  0  0  0  0  0  0  0  0
   26.5012  -14.8202  -19.5514 C   0  0  0  0  0  0  0  0  0  0  0  0
   26.3744  -15.0012  -21.0340 C   0  0  0  0  0  0  0  0  0  0  0  0
   26.4847  -16.4777  -21.3092 C   0  0  0  0  0  0  0  0  0  0  0  0
   27.2092  -16.9479  -20.0569 C   0  0  1  0  0  0  0  0  0  0  0  0
   28.6680  -16.5933  -20.1325 C   0  0  0  0  0  0  0  0  0  0  0  0
   29.0187  -15.5232  -19.5750 O   0  0  0  0  0  0  0  0  0  0  0  0
   29.6226  -17.3499  -20.7607 O   0  0  0  0  0  0  0  0  0  0  0  0
  2  3  2  0
  2  1  1  0
  4  3  1  0
  5  4  2  0
  6  5  1  0
  7  6  1  0
  7  9  1  0
  7  8  1  6
  9 16  1  0
  9 10  2  0
 11  5  1  0
 11 12  2  0
 12  2  1  0
 14 13  1  0
 15 14  1  1
 16 15  1  0
 17 15  1  0
 17 18  2  0
 19 17  1  0
 20 19  1  0
 21 20  1  0
 21 22  1  0
 22 23  1  0
 23 19  1  0
 23 24  1  6
 25 24  2  0
 26 24  1  0
M  END
$$$$
