YSP.pdb
     RDKit          3D

 26 27  0  0  1  0  0  0  0  0999 V2000
   27.2956  -13.0383  -15.8738 O   0  0  0  0  0  0  0  0  0  0  0  0
   26.2553  -12.1470  -16.1115 C   0  0  0  0  0  0  0  0  0  0  0  0
   25.5221  -12.2593  -17.2778 C   0  0  0  0  0  0  0  0  0  0  0  0
   24.4887  -11.3707  -17.5096 C   0  0  0  0  0  0  0  0  0  0  0  0
   24.1651  -10.3752  -16.6153 C   0  0  0  0  0  0  0  0  0  0  0  0
   23.0649   -9.4285  -16.8780 C   0  0  0  0  0  0  0  0  0  0  0  0
   21.7340   -9.9543  -16.4266 C   0  0  2  0  0  0  0  0  0  0  0  0
   21.4820  -11.2579  -17.0415 N   0  0  0  0  0  0  0  0  0  0  0  0
   20.6709   -9.0145  -16.8442 C   0  0  0  0  0  0  0  0  0  0  0  0
   19.9423   -9.1973  -17.8315 O   0  0  0  0  0  0  0  0  0  0  0  0
   24.8977  -10.2581  -15.4431 C   0  0  0  0  0  0  0  0  0  0  0  0
   25.9224  -11.1462  -15.2224 C   0  0  0  0  0  0  0  0  0  0  0  0
   17.9323   -7.8541  -15.0164 O   0  0  0  0  0  0  0  0  0  0  0  0
   18.1095   -7.5913  -16.3974 C   0  0  0  0  0  0  0  0  0  0  0  0
   19.4146   -6.8383  -16.4995 C   0  0  2  0  0  0  0  0  0  0  0  0
   20.4387   -7.8168  -16.0936 N   0  0  0  0  0  0  0  0  0  0  0  0
   19.4949   -5.6259  -15.6884 C   0  0  0  0  0  0  0  0  0  0  0  0
   19.8811   -5.8021  -14.4767 O   0  0  0  0  0  0  0  0  0  0  0  0
   19.2054   -4.3030  -16.0682 N   0  0  0  0  0  0  0  0  0  0  0  0
   18.7049   -3.9225  -17.4025 C   0  0  0  0  0  0  0  0  0  0  0  0
   19.3178   -2.5755  -17.6409 C   0  0  0  0  0  0  0  0  0  0  0  0
   20.0091   -2.1734  -16.3648 C   0  0  0  0  0  0  0  0  0  0  0  0
   19.2757   -3.0445  -15.3563 C   0  0  1  0  0  0  0  0  0  0  0  0
   17.9148   -2.4759  -15.0659 C   0  0  0  0  0  0  0  0  0  0  0  0
   17.8721   -1.4682  -14.3165 O   0  0  0  0  0  0  0  0  0  0  0  0
   16.7386   -2.9788  -15.5578 O   0  0  0  0  0  0  0  0  0  0  0  0
  2  3  2  0
  2  1  1  0
  4  3  1  0
  5  4  2  0
  6  5  1  0
  7  6  1  0
  7  9  1  0
  7  8  1  6
  9 16  1  0
  9 10  2  0
 11  5  1  0
 11 12  2  0
 12  2  1  0
 14 13  1  0
 15 14  1  1
 16 15  1  0
 17 15  1  0
 17 18  2  0
 19 17  1  0
 20 19  1  0
 21 20  1  0
 21 22  1  0
 22 23  1  0
 23 19  1  0
 23 24  1  6
 25 24  2  0
 26 24  1  0
M  END
$$$$
