YSP.pdb
     RDKit          3D

 26 27  0  0  1  0  0  0  0  0999 V2000
   22.1413  -21.8751   -7.8137 O   0  0  0  0  0  0  0  0  0  0  0  0
   23.1528  -21.5196   -8.6989 C   0  0  0  0  0  0  0  0  0  0  0  0
   24.4711  -21.7151   -8.3327 C   0  0  0  0  0  0  0  0  0  0  0  0
   25.4733  -21.3600   -9.2163 C   0  0  0  0  0  0  0  0  0  0  0  0
   25.2012  -20.8167  -10.4517 C   0  0  0  0  0  0  0  0  0  0  0  0
   26.2799  -20.4349  -11.3823 C   0  0  0  0  0  0  0  0  0  0  0  0
   25.8463  -20.4875  -12.8178 C   0  0  2  0  0  0  0  0  0  0  0  0
   25.4565  -21.8538  -13.1677 N   0  0  0  0  0  0  0  0  0  0  0  0
   26.9723  -20.0743  -13.6833 C   0  0  0  0  0  0  0  0  0  0  0  0
   27.6670  -19.0685  -13.4719 O   0  0  0  0  0  0  0  0  0  0  0  0
   23.8796  -20.6184  -10.8243 C   0  0  0  0  0  0  0  0  0  0  0  0
   22.8914  -20.9748   -9.9390 C   0  0  0  0  0  0  0  0  0  0  0  0
   27.6568  -22.2183  -17.1073 O   0  0  0  0  0  0  0  0  0  0  0  0
   28.7926  -21.6234  -16.5040 C   0  0  0  0  0  0  0  0  0  0  0  0
   28.2823  -20.3693  -15.8349 C   0  0  2  0  0  0  0  0  0  0  0  0
   27.3104  -20.8515  -14.8379 N   0  0  0  0  0  0  0  0  0  0  0  0
   27.6727  -19.3924  -16.7339 C   0  0  0  0  0  0  0  0  0  0  0  0
   26.3896  -19.4117  -16.7750 O   0  0  0  0  0  0  0  0  0  0  0  0
   28.3119  -18.4422  -17.5505 N   0  0  0  0  0  0  0  0  0  0  0  0
   29.7759  -18.3377  -17.6971 C   0  0  0  0  0  0  0  0  0  0  0  0
   30.0105  -16.8685  -17.8800 C   0  0  0  0  0  0  0  0  0  0  0  0
   28.6577  -16.2166  -17.9934 C   0  0  0  0  0  0  0  0  0  0  0  0
   27.8047  -17.4018  -18.4198 C   0  0  1  0  0  0  0  0  0  0  0  0
   28.0296  -17.7120  -19.8733 C   0  0  0  0  0  0  0  0  0  0  0  0
   28.7647  -18.6973  -20.1333 O   0  0  0  0  0  0  0  0  0  0  0  0
   27.4935  -16.9999  -20.9144 O   0  0  0  0  0  0  0  0  0  0  0  0
  2  3  2  0
  2  1  1  0
  4  3  1  0
  5  4  2  0
  6  5  1  0
  7  6  1  0
  7  9  1  0
  7  8  1  6
  9 16  1  0
  9 10  2  0
 11  5  1  0
 11 12  2  0
 12  2  1  0
 14 13  1  0
 15 14  1  6
 16 15  1  0
 17 15  1  0
 17 18  2  0
 19 17  1  0
 20 19  1  0
 21 20  1  0
 21 22  1  0
 22 23  1  0
 23 19  1  0
 23 24  1  6
 25 24  2  0
 26 24  1  0
M  END
$$$$
