VRN.pdb
     RDKit          3D

 27 26  0  0  1  0  0  0  0  0999 V2000
   28.6906  -17.3309  -16.9741 C   0  0  0  0  0  0  0  0  0  0  0  0
   27.5603  -18.0984  -16.3523 C   0  0  1  0  0  0  0  0  0  0  0  0
   26.3302  -18.1818  -17.2070 C   0  0  0  0  0  0  0  0  0  0  0  0
   27.9873  -19.4244  -15.7736 C   0  0  2  0  0  0  0  0  0  0  0  0
   28.3760  -20.2661  -16.8920 N   0  0  0  0  0  0  0  0  0  0  0  0
   26.9903  -20.0814  -14.9453 C   0  0  0  0  0  0  0  0  0  0  0  0
   26.2886  -20.9994  -15.4946 O   0  0  0  0  0  0  0  0  0  0  0  0
   21.8881  -19.7690   -9.2485 N   0  0  0  0  0  0  0  0  0  0  0  0
   22.2886  -20.9287   -8.5094 C   0  0  0  0  0  0  0  0  0  0  0  0
   21.3682  -21.5631   -7.8723 N   0  0  0  0  0  0  0  0  0  0  0  0
   23.6458  -21.3679   -8.4758 N   0  0  0  0  0  0  0  0  0  0  0  0
   24.5957  -20.6044   -9.2453 C   0  0  0  0  0  0  0  0  0  0  0  0
   24.4838  -20.9335  -10.7354 C   0  0  0  0  0  0  0  0  0  0  0  0
   25.5919  -20.1865  -11.4428 C   0  0  0  0  0  0  0  0  0  0  0  0
   25.5812  -20.4369  -12.9252 C   0  0  2  0  0  0  0  0  0  0  0  0
   26.7043  -19.8251  -13.6022 N   0  0  0  0  0  0  0  0  0  0  0  0
   24.2960  -19.8560  -13.4444 C   0  0  0  0  0  0  0  0  0  0  0  0
   24.3047  -18.7228  -13.9775 O   0  0  0  0  0  0  0  0  0  0  0  0
   21.5771  -22.3919   -7.2822 N   0  0  0  0  0  0  0  0  0  0  0  0
   19.9749  -19.9909  -16.1225 C   0  0  0  0  0  0  0  0  0  0  0  0
   21.2526  -20.3802  -16.5851 O   0  0  0  0  0  0  0  0  0  0  0  0
   21.4550  -20.5509  -17.8045 C   0  0  0  0  0  0  0  0  0  0  0  0
   22.3791  -20.5935  -15.6280 C   0  0  2  0  0  0  0  0  0  0  0  0
   21.9424  -20.3498  -14.2068 N   0  0  0  0  0  0  0  0  0  0  0  0
   23.0775  -20.5581  -13.3459 C   0  0  0  0  0  0  0  0  0  0  0  0
   20.7825  -21.1876  -13.8286 O   0  0  0  0  0  0  0  0  0  0  0  0
   20.8857  -22.4313  -13.2317 O   0  0  0  0  0  0  0  0  0  0  0  0
  2  1  1  6
  2  3  1  0
  4  2  1  0
  4  5  1  6
  6  7  2  0
  6  4  1  0
  9  8  1  0
 10  9  2  0
 11  9  1  0
 12 11  1  0
 13 14  1  0
 13 12  1  0
 15 16  1  0
 15 14  1  1
 16  6  1  0
 17 15  1  0
 18 17  2  0
 19 20  1  0
 20 22  1  0
 21 20  2  0
 23 22  1  6
 23 24  1  0
 24 17  1  0
 25 23  1  0
 25 26  1  0
 27 25  2  0
M  END
$$$$
