VRN.pdb
     RDKit          3D

 27 26  0  0  1  0  0  0  0  0999 V2000
   26.5230  -24.4055  -16.1461 C   0  0  0  0  0  0  0  0  0  0  0  0
   26.2169  -25.8319  -16.4991 C   0  0  1  0  0  0  0  0  0  0  0  0
   24.9678  -26.0101  -17.3107 C   0  0  0  0  0  0  0  0  0  0  0  0
   27.4073  -26.5791  -17.0470 C   0  0  2  0  0  0  0  0  0  0  0  0
   27.8029  -25.9019  -18.2699 N   0  0  0  0  0  0  0  0  0  0  0  0
   27.1871  -27.9963  -17.2808 C   0  0  0  0  0  0  0  0  0  0  0  0
   26.5804  -28.3224  -18.3590 O   0  0  0  0  0  0  0  0  0  0  0  0
   32.5713  -30.4915  -16.8095 N   0  0  0  0  0  0  0  0  0  0  0  0
   32.5387  -31.4732  -17.8519 C   0  0  0  0  0  0  0  0  0  0  0  0
   33.4346  -31.3808  -18.7707 N   0  0  0  0  0  0  0  0  0  0  0  0
   31.5598  -32.5110  -17.8779 N   0  0  0  0  0  0  0  0  0  0  0  0
   30.4751  -32.4056  -16.9347 C   0  0  0  0  0  0  0  0  0  0  0  0
   29.4140  -31.4199  -17.4285 C   0  0  0  0  0  0  0  0  0  0  0  0
   28.3091  -31.3981  -16.3965 C   0  0  0  0  0  0  0  0  0  0  0  0
   27.2184  -30.4298  -16.7612 C   0  0  2  0  0  0  0  0  0  0  0  0
   27.5650  -29.0585  -16.4559 N   0  0  0  0  0  0  0  0  0  0  0  0
   26.0074  -30.8370  -15.9698 C   0  0  0  0  0  0  0  0  0  0  0  0
   25.5874  -30.0869  -15.0591 O   0  0  0  0  0  0  0  0  0  0  0  0
   33.4847  -32.0522  -19.5616 N   0  0  0  0  0  0  0  0  0  0  0  0
   21.7107  -33.1098  -14.3789 C   0  0  0  0  0  0  0  0  0  0  0  0
   21.8208  -31.8478  -15.0060 O   0  0  0  0  0  0  0  0  0  0  0  0
   20.8564  -31.0559  -14.9995 C   0  0  0  0  0  0  0  0  0  0  0  0
   23.0871  -31.4400  -15.6848 C   0  0  2  0  0  0  0  0  0  0  0  0
   24.1548  -32.4911  -15.5269 N   0  0  0  0  0  0  0  0  0  0  0  0
   25.3306  -32.0463  -16.2286 C   0  0  0  0  0  0  0  0  0  0  0  0
   23.6958  -33.8241  -15.9775 O   0  0  0  0  0  0  0  0  0  0  0  0
   24.2155  -34.4951  -17.0699 O   0  0  0  0  0  0  0  0  0  0  0  0
  2  1  1  6
  2  3  1  0
  4  2  1  0
  4  5  1  6
  6  7  2  0
  6  4  1  0
  9  8  1  0
 10  9  2  0
 11  9  1  0
 12 11  1  0
 13 14  1  0
 13 12  1  0
 15 16  1  0
 15 14  1  1
 16  6  1  0
 17 15  1  0
 18 17  2  0
 19 20  1  0
 20 22  1  0
 21 20  2  0
 23 22  1  1
 23 24  1  0
 24 17  1  0
 25 23  1  0
 25 26  1  0
 27 25  2  0
M  END
$$$$
