VRN.pdb
     RDKit          3D

 27 26  0  0  1  0  0  0  0  0999 V2000
   21.9349  -17.3602  -16.2612 C   0  0  0  0  0  0  0  0  0  0  0  0
   22.9193  -17.9843  -17.2071 C   0  0  1  0  0  0  0  0  0  0  0  0
   23.4046  -17.0620  -18.2862 C   0  0  0  0  0  0  0  0  0  0  0  0
   24.0257  -18.7336  -16.5073 C   0  0  2  0  0  0  0  0  0  0  0  0
   24.7908  -19.4139  -17.5380 N   0  0  0  0  0  0  0  0  0  0  0  0
   23.5832  -19.6647  -15.4831 C   0  0  0  0  0  0  0  0  0  0  0  0
   22.9113  -20.6821  -15.8705 O   0  0  0  0  0  0  0  0  0  0  0  0
   26.6744  -21.7718  -15.0660 N   0  0  0  0  0  0  0  0  0  0  0  0
   27.7166  -22.0719  -14.1306 C   0  0  0  0  0  0  0  0  0  0  0  0
   28.9085  -22.1895  -14.6006 N   0  0  0  0  0  0  0  0  0  0  0  0
   27.4537  -22.2347  -12.7376 N   0  0  0  0  0  0  0  0  0  0  0  0
   26.0793  -22.1242  -12.3180 C   0  0  0  0  0  0  0  0  0  0  0  0
   25.6591  -20.6576  -12.2001 C   0  0  0  0  0  0  0  0  0  0  0  0
   24.1729  -20.6391  -11.9224 C   0  0  0  0  0  0  0  0  0  0  0  0
   23.3647  -20.6056  -13.1897 C   0  0  2  0  0  0  0  0  0  0  0  0
   23.8083  -19.5783  -14.1071 N   0  0  0  0  0  0  0  0  0  0  0  0
   21.9431  -20.3423  -12.7794 C   0  0  0  0  0  0  0  0  0  0  0  0
   21.6154  -19.1949  -12.3993 O   0  0  0  0  0  0  0  0  0  0  0  0
   29.7132  -22.4599  -14.0021 N   0  0  0  0  0  0  0  0  0  0  0  0
   17.5656  -19.0000  -15.0258 C   0  0  0  0  0  0  0  0  0  0  0  0
   18.0752  -20.3134  -14.9105 O   0  0  0  0  0  0  0  0  0  0  0  0
   17.3420  -21.2954  -15.1451 C   0  0  0  0  0  0  0  0  0  0  0  0
   19.4938  -20.5496  -14.5076 C   0  0  1  0  0  0  0  0  0  0  0  0
   19.5776  -21.1473  -13.1272 N   0  0  0  0  0  0  0  0  0  0  0  0
   20.9665  -21.3586  -12.8125 C   0  0  0  0  0  0  0  0  0  0  0  0
   18.7741  -22.3843  -13.0056 O   0  0  0  0  0  0  0  0  0  0  0  0
   19.2093  -23.6345  -13.4069 O   0  0  0  0  0  0  0  0  0  0  0  0
  2  1  1  1
  2  3  1  0
  4  2  1  0
  4  5  1  6
  6  7  2  0
  6  4  1  0
  9  8  1  0
 10  9  2  0
 11  9  1  0
 12 11  1  0
 13 14  1  0
 13 12  1  0
 15 16  1  0
 15 14  1  1
 16  6  1  0
 17 15  1  0
 18 17  2  0
 19 20  1  0
 20 22  1  0
 21 20  2  0
 23 22  1  1
 23 24  1  0
 24 17  1  0
 25 23  1  0
 25 26  1  0
 27 25  2  0
M  END
$$$$
