VRN.pdb
     RDKit          3D

 27 26  0  0  1  0  0  0  0  0999 V2000
   20.6179  -24.7387  -22.3937 C   0  0  0  0  0  0  0  0  0  0  0  0
   20.4497  -24.5807  -20.9105 C   0  0  1  0  0  0  0  0  0  0  0  0
   21.3073  -25.5008  -20.0929 C   0  0  0  0  0  0  0  0  0  0  0  0
   20.4972  -23.1434  -20.4550 C   0  0  2  0  0  0  0  0  0  0  0  0
   21.7497  -22.5894  -20.9396 N   0  0  0  0  0  0  0  0  0  0  0  0
   20.3587  -22.9497  -19.0215 C   0  0  0  0  0  0  0  0  0  0  0  0
   19.2352  -23.2641  -18.4962 O   0  0  0  0  0  0  0  0  0  0  0  0
   25.3872  -25.1228  -15.2458 N   0  0  0  0  0  0  0  0  0  0  0  0
   25.7959  -23.8316  -15.7116 C   0  0  0  0  0  0  0  0  0  0  0  0
   26.7839  -23.7923  -16.5347 N   0  0  0  0  0  0  0  0  0  0  0  0
   25.1418  -22.6367  -15.2868 N   0  0  0  0  0  0  0  0  0  0  0  0
   24.0189  -22.7912  -14.3965 C   0  0  0  0  0  0  0  0  0  0  0  0
   22.7618  -23.2008  -15.1667 C   0  0  0  0  0  0  0  0  0  0  0  0
   22.2892  -21.9845  -15.9306 C   0  0  0  0  0  0  0  0  0  0  0  0
   21.0476  -22.2697  -16.7289 C   0  0  2  0  0  0  0  0  0  0  0  0
   21.3205  -22.4542  -18.1379 N   0  0  0  0  0  0  0  0  0  0  0  0
   20.1390  -21.0880  -16.5370 C   0  0  0  0  0  0  0  0  0  0  0  0
   20.5770  -19.9345  -16.7510 O   0  0  0  0  0  0  0  0  0  0  0  0
   27.0586  -22.9190  -17.0254 N   0  0  0  0  0  0  0  0  0  0  0  0
   14.7514  -18.8775  -17.2400 C   0  0  0  0  0  0  0  0  0  0  0  0
   16.1007  -18.7859  -16.8289 O   0  0  0  0  0  0  0  0  0  0  0  0
   16.5211  -17.7486  -16.2771 C   0  0  0  0  0  0  0  0  0  0  0  0
   17.0443  -19.9230  -17.0460 C   0  0  2  0  0  0  0  0  0  0  0  0
   17.9014  -20.1617  -15.8301 N   0  0  0  0  0  0  0  0  0  0  0  0
   18.8014  -21.2472  -16.1208 C   0  0  0  0  0  0  0  0  0  0  0  0
   17.0909  -20.4067  -14.6162 O   0  0  0  0  0  0  0  0  0  0  0  0
   16.1646  -19.5134  -14.1086 O   0  0  0  0  0  0  0  0  0  0  0  0
  2  1  1  6
  2  3  1  0
  4  2  1  0
  4  5  1  1
  6  7  2  0
  6  4  1  0
  9  8  1  0
 10  9  2  0
 11  9  1  0
 12 11  1  0
 13 14  1  0
 13 12  1  0
 15 16  1  0
 15 14  1  1
 16  6  1  0
 17 15  1  0
 18 17  2  0
 19 20  1  0
 20 22  1  0
 21 20  2  0
 23 22  1  6
 23 24  1  0
 24 17  1  0
 25 23  1  0
 25 26  1  0
 27 25  2  0
M  END
$$$$
