VRN.pdb
     RDKit          3D

 27 26  0  0  1  0  0  0  0  0999 V2000
   26.5286  -18.1768  -18.8203 C   0  0  0  0  0  0  0  0  0  0  0  0
   25.7191  -19.0020  -17.8628 C   0  0  1  0  0  0  0  0  0  0  0  0
   24.6641  -19.8445  -18.5168 C   0  0  0  0  0  0  0  0  0  0  0  0
   26.5626  -19.7545  -16.8638 C   0  0  2  0  0  0  0  0  0  0  0  0
   27.3626  -20.7036  -17.6186 N   0  0  0  0  0  0  0  0  0  0  0  0
   25.8164  -20.4203  -15.8095 C   0  0  0  0  0  0  0  0  0  0  0  0
   25.4910  -21.6418  -16.0070 O   0  0  0  0  0  0  0  0  0  0  0  0
   29.5333  -20.6555  -11.4497 N   0  0  0  0  0  0  0  0  0  0  0  0
   28.5882  -21.1771  -10.5084 C   0  0  0  0  0  0  0  0  0  0  0  0
   28.5517  -20.6228   -9.3478 N   0  0  0  0  0  0  0  0  0  0  0  0
   27.7219  -22.2628  -10.8348 N   0  0  0  0  0  0  0  0  0  0  0  0
   26.4150  -21.9232  -11.3389 C   0  0  0  0  0  0  0  0  0  0  0  0
   26.3489  -20.4477  -11.7387 C   0  0  0  0  0  0  0  0  0  0  0  0
   24.9349  -20.1717  -12.1978 C   0  0  0  0  0  0  0  0  0  0  0  0
   24.6948  -20.6562  -13.6006 C   0  0  2  0  0  0  0  0  0  0  0  0
   25.4073  -19.8763  -14.5896 N   0  0  0  0  0  0  0  0  0  0  0  0
   23.2146  -20.5501  -13.8386 C   0  0  0  0  0  0  0  0  0  0  0  0
   22.6842  -19.4183  -13.9175 O   0  0  0  0  0  0  0  0  0  0  0  0
   27.9214  -20.9611   -8.5948 N   0  0  0  0  0  0  0  0  0  0  0  0
   18.5959  -23.1686  -16.2299 C   0  0  0  0  0  0  0  0  0  0  0  0
   19.0872  -23.1008  -14.9062 O   0  0  0  0  0  0  0  0  0  0  0  0
   18.2957  -23.0821  -13.9417 C   0  0  0  0  0  0  0  0  0  0  0  0
   20.5556  -23.0507  -14.6381 C   0  0  1  0  0  0  0  0  0  0  0  0
   20.9856  -21.6728  -14.2065 N   0  0  0  0  0  0  0  0  0  0  0  0
   22.4066  -21.6970  -13.9760 C   0  0  0  0  0  0  0  0  0  0  0  0
   20.2280  -21.1960  -13.0279 O   0  0  0  0  0  0  0  0  0  0  0  0
   19.0602  -20.4583  -13.1029 O   0  0  0  0  0  0  0  0  0  0  0  0
  2  1  1  6
  2  3  1  0
  4  2  1  0
  4  5  1  6
  6  7  2  0
  6  4  1  0
  9  8  1  0
 10  9  2  0
 11  9  1  0
 12 11  1  0
 13 14  1  0
 13 12  1  0
 15 16  1  0
 15 14  1  1
 16  6  1  0
 17 15  1  0
 18 17  2  0
 19 20  1  0
 20 22  1  0
 21 20  2  0
 23 22  1  6
 23 24  1  0
 24 17  1  0
 25 23  1  0
 25 26  1  0
 27 25  2  0
M  END
$$$$
