VRN.pdb
     RDKit          3D

 27 26  0  0  1  0  0  0  0  0999 V2000
   29.0455  -10.3394  -17.6363 C   0  0  0  0  0  0  0  0  0  0  0  0
   28.0324  -11.3809  -17.2595 C   0  0  1  0  0  0  0  0  0  0  0  0
   28.6217  -12.6234  -16.6599 C   0  0  0  0  0  0  0  0  0  0  0  0
   26.8677  -10.8248  -16.4787 C   0  0  2  0  0  0  0  0  0  0  0  0
   26.0786  -11.9604  -16.0337 N   0  0  0  0  0  0  0  0  0  0  0  0
   26.0469   -9.8673  -17.2007 C   0  0  0  0  0  0  0  0  0  0  0  0
   26.5410   -8.7029  -17.3924 O   0  0  0  0  0  0  0  0  0  0  0  0
   20.0096  -12.5213  -22.2105 N   0  0  0  0  0  0  0  0  0  0  0  0
   20.6046  -13.3532  -21.2080 C   0  0  0  0  0  0  0  0  0  0  0  0
   20.2604  -14.5929  -21.1967 N   0  0  0  0  0  0  0  0  0  0  0  0
   21.5384  -12.8384  -20.2599 N   0  0  0  0  0  0  0  0  0  0  0  0
   21.8272  -11.4281  -20.3314 C   0  0  0  0  0  0  0  0  0  0  0  0
   22.8522  -11.0246  -19.2694 C   0  0  0  0  0  0  0  0  0  0  0  0
   23.0247   -9.5253  -19.3613 C   0  0  0  0  0  0  0  0  0  0  0  0
   24.0147   -9.0106  -18.3536 C   0  0  2  0  0  0  0  0  0  0  0  0
   24.7650  -10.0715  -17.7168 N   0  0  0  0  0  0  0  0  0  0  0  0
   23.2196   -8.2599  -17.3227 C   0  0  0  0  0  0  0  0  0  0  0  0
   22.8054   -8.8634  -16.3065 O   0  0  0  0  0  0  0  0  0  0  0  0
   20.6410  -15.2646  -20.5019 N   0  0  0  0  0  0  0  0  0  0  0  0
   20.9425   -4.6745  -14.4978 C   0  0  0  0  0  0  0  0  0  0  0  0
   22.1811   -5.2862  -14.1980 O   0  0  0  0  0  0  0  0  0  0  0  0
   22.7157   -5.1112  -13.0841 C   0  0  0  0  0  0  0  0  0  0  0  0
   22.8699   -6.1494  -15.2034 C   0  0  1  0  0  0  0  0  0  0  0  0
   22.1639   -6.1087  -16.5338 N   0  0  0  0  0  0  0  0  0  0  0  0
   22.9282   -6.8887  -17.4721 C   0  0  0  0  0  0  0  0  0  0  0  0
   21.9354   -4.7232  -17.0015 O   0  0  0  0  0  0  0  0  0  0  0  0
   20.8164   -3.9731  -16.6873 O   0  0  0  0  0  0  0  0  0  0  0  0
  2  1  1  1
  2  3  1  0
  4  2  1  0
  4  5  1  6
  6  7  2  0
  6  4  1  0
  9  8  1  0
 10  9  2  0
 11  9  1  0
 12 11  1  0
 13 14  1  0
 13 12  1  0
 15 16  1  0
 15 14  1  6
 16  6  1  0
 17 15  1  0
 18 17  2  0
 19 20  1  0
 20 22  1  0
 21 20  2  0
 23 22  1  1
 23 24  1  0
 24 17  1  0
 25 23  1  0
 25 26  1  0
 27 25  2  0
M  END
$$$$
