VRN.pdb
     RDKit          3D

 27 26  0  0  1  0  0  0  0  0999 V2000
   26.6421  -13.7557  -17.4443 C   0  0  0  0  0  0  0  0  0  0  0  0
   25.3888  -12.9302  -17.4736 C   0  0  1  0  0  0  0  0  0  0  0  0
   24.1421  -13.6931  -17.1356 C   0  0  0  0  0  0  0  0  0  0  0  0
   25.5187  -11.6226  -16.7330 C   0  0  2  0  0  0  0  0  0  0  0  0
   25.9227  -11.9460  -15.3755 N   0  0  0  0  0  0  0  0  0  0  0  0
   24.3261  -10.7924  -16.7407 C   0  0  0  0  0  0  0  0  0  0  0  0
   24.0147  -10.2289  -17.8463 O   0  0  0  0  0  0  0  0  0  0  0  0
   16.6192  -11.2838  -15.5864 N   0  0  0  0  0  0  0  0  0  0  0  0
   17.1954  -12.5840  -15.7561 C   0  0  0  0  0  0  0  0  0  0  0  0
   16.4471  -13.4922  -16.2762 N   0  0  0  0  0  0  0  0  0  0  0  0
   18.5389  -12.8681  -15.3684 N   0  0  0  0  0  0  0  0  0  0  0  0
   19.2866  -11.7884  -14.7746 C   0  0  0  0  0  0  0  0  0  0  0  0
   20.4167  -11.3314  -15.6995 C   0  0  0  0  0  0  0  0  0  0  0  0
   21.1284  -10.1915  -15.0065 C   0  0  0  0  0  0  0  0  0  0  0  0
   22.2997   -9.6915  -15.8055 C   0  0  2  0  0  0  0  0  0  0  0  0
   23.4683  -10.5339  -15.6689 N   0  0  0  0  0  0  0  0  0  0  0  0
   22.6043   -8.3116  -15.2939 C   0  0  0  0  0  0  0  0  0  0  0  0
   23.6277   -8.1267  -14.5962 O   0  0  0  0  0  0  0  0  0  0  0  0
   16.7917  -14.4558  -16.4536 N   0  0  0  0  0  0  0  0  0  0  0  0
   22.9717   -3.2890  -14.7037 C   0  0  0  0  0  0  0  0  0  0  0  0
   23.7988   -4.1015  -15.5122 O   0  0  0  0  0  0  0  0  0  0  0  0
   24.8670   -3.6499  -15.9730 C   0  0  0  0  0  0  0  0  0  0  0  0
   23.4121   -5.5089  -15.8289 C   0  0  1  0  0  0  0  0  0  0  0  0
   22.0627   -5.8480  -15.2512 N   0  0  0  0  0  0  0  0  0  0  0  0
   21.7636   -7.2171  -15.5815 C   0  0  0  0  0  0  0  0  0  0  0  0
   21.0103   -4.9121  -15.7060 O   0  0  0  0  0  0  0  0  0  0  0  0
   20.5260   -3.8615  -14.9476 O   0  0  0  0  0  0  0  0  0  0  0  0
  2  1  1  1
  2  3  1  0
  4  2  1  0
  4  5  1  1
  6  7  2  0
  6  4  1  0
  9  8  1  0
 10  9  2  0
 11  9  1  0
 12 11  1  0
 13 14  1  0
 13 12  1  0
 15 16  1  0
 15 14  1  1
 16  6  1  0
 17 15  1  0
 18 17  2  0
 19 20  1  0
 20 22  1  0
 21 20  2  0
 23 22  1  1
 23 24  1  0
 24 17  1  0
 25 23  1  0
 25 26  1  0
 27 25  2  0
M  END
$$$$
