VRN.pdb
     RDKit          3D

 27 26  0  0  1  0  0  0  0  0999 V2000
   18.4536  -25.9456   -8.1381 C   0  0  0  0  0  0  0  0  0  0  0  0
   18.8737  -24.6509   -8.7710 C   0  0  1  0  0  0  0  0  0  0  0  0
   17.8067  -23.9958   -9.5974 C   0  0  0  0  0  0  0  0  0  0  0  0
   19.5576  -23.7115   -7.8091 C   0  0  2  0  0  0  0  0  0  0  0  0
   18.5461  -23.2628   -6.8679 N   0  0  0  0  0  0  0  0  0  0  0  0
   20.2330  -22.5840   -8.4290 C   0  0  0  0  0  0  0  0  0  0  0  0
   19.6275  -21.4572   -8.4069 O   0  0  0  0  0  0  0  0  0  0  0  0
   27.1511  -21.4781  -12.7380 N   0  0  0  0  0  0  0  0  0  0  0  0
   26.8746  -20.0769  -12.6309 C   0  0  0  0  0  0  0  0  0  0  0  0
   27.2350  -19.3325  -13.6165 N   0  0  0  0  0  0  0  0  0  0  0  0
   26.2285  -19.5227  -11.4857 N   0  0  0  0  0  0  0  0  0  0  0  0
   25.6166  -20.4529  -10.5704 C   0  0  0  0  0  0  0  0  0  0  0  0
   24.0920  -20.3258  -10.5983 C   0  0  0  0  0  0  0  0  0  0  0  0
   23.5369  -21.4017   -9.6926 C   0  0  0  0  0  0  0  0  0  0  0  0
   22.0336  -21.3998   -9.6735 C   0  0  2  0  0  0  0  0  0  0  0  0
   21.4821  -22.5858   -9.0545 N   0  0  0  0  0  0  0  0  0  0  0  0
   21.5911  -21.3217  -11.1077 C   0  0  0  0  0  0  0  0  0  0  0  0
   21.6325  -22.3504  -11.8207 O   0  0  0  0  0  0  0  0  0  0  0  0
   27.1202  -18.3003  -13.5987 N   0  0  0  0  0  0  0  0  0  0  0  0
   19.7960  -17.1289  -15.2282 C   0  0  0  0  0  0  0  0  0  0  0  0
   19.6068  -18.3749  -14.5882 O   0  0  0  0  0  0  0  0  0  0  0  0
   19.0316  -19.3077  -15.1851 C   0  0  0  0  0  0  0  0  0  0  0  0
   20.0890  -18.5978  -13.1924 C   0  0  2  0  0  0  0  0  0  0  0  0
   20.7216  -19.9570  -13.0432 N   0  0  0  0  0  0  0  0  0  0  0  0
   21.1288  -20.1150  -11.6713 C   0  0  0  0  0  0  0  0  0  0  0  0
   21.8382  -20.1595  -13.9931 O   0  0  0  0  0  0  0  0  0  0  0  0
   21.6838  -20.6426  -15.2801 O   0  0  0  0  0  0  0  0  0  0  0  0
  2  1  1  1
  2  3  1  0
  4  2  1  0
  4  5  1  1
  6  7  2  0
  6  4  1  0
  9  8  1  0
 10  9  2  0
 11  9  1  0
 12 11  1  0
 13 14  1  0
 13 12  1  0
 15 16  1  0
 15 14  1  6
 16  6  1  0
 17 15  1  0
 18 17  2  0
 19 20  1  0
 20 22  1  0
 21 20  2  0
 23 22  1  1
 23 24  1  0
 24 17  1  0
 25 23  1  0
 25 26  1  0
 27 25  2  0
M  END
$$$$
