VRN.pdb
     RDKit          3D

 27 26  0  0  1  0  0  0  0  0999 V2000
   17.2203  -13.4262  -14.7064 C   0  0  0  0  0  0  0  0  0  0  0  0
   16.1484  -12.6280  -15.3898 C   0  0  1  0  0  0  0  0  0  0  0  0
   15.2513  -13.4375  -16.2788 C   0  0  0  0  0  0  0  0  0  0  0  0
   15.4044  -11.7064  -14.4556 C   0  0  2  0  0  0  0  0  0  0  0  0
   14.3496  -11.0801  -15.2338 N   0  0  0  0  0  0  0  0  0  0  0  0
   16.2283  -10.7098  -13.7926 C   0  0  0  0  0  0  0  0  0  0  0  0
   17.1067  -11.1355  -12.9656 O   0  0  0  0  0  0  0  0  0  0  0  0
   22.3285   -9.1268  -12.9211 N   0  0  0  0  0  0  0  0  0  0  0  0
   22.0557   -9.0614  -14.3256 C   0  0  0  0  0  0  0  0  0  0  0  0
   22.4781  -10.0374  -15.0497 N   0  0  0  0  0  0  0  0  0  0  0  0
   21.3475   -7.9661  -14.9044 N   0  0  0  0  0  0  0  0  0  0  0  0
   20.1634   -7.5199  -14.2144 C   0  0  0  0  0  0  0  0  0  0  0  0
   18.8991   -8.0076  -14.9251 C   0  0  0  0  0  0  0  0  0  0  0  0
   17.7167   -7.4268  -14.1831 C   0  0  0  0  0  0  0  0  0  0  0  0
   17.0808   -8.4324  -13.2640 C   0  0  2  0  0  0  0  0  0  0  0  0
   16.1733   -9.3233  -13.9542 N   0  0  0  0  0  0  0  0  0  0  0  0
   16.3304   -7.6446  -12.2272 C   0  0  0  0  0  0  0  0  0  0  0  0
   15.4373   -6.8452  -12.5899 O   0  0  0  0  0  0  0  0  0  0  0  0
   22.2637  -10.1048  -16.0638 N   0  0  0  0  0  0  0  0  0  0  0  0
   13.3954   -7.5507  -10.4261 C   0  0  0  0  0  0  0  0  0  0  0  0
   13.9417   -8.1763   -9.2823 O   0  0  0  0  0  0  0  0  0  0  0  0
   13.2638   -8.9954   -8.6292 C   0  0  0  0  0  0  0  0  0  0  0  0
   15.3336   -7.8703   -8.8358 C   0  0  2  0  0  0  0  0  0  0  0  0
   16.0354   -6.9659   -9.8154 N   0  0  0  0  0  0  0  0  0  0  0  0
   16.6080   -7.7845  -10.8521 C   0  0  0  0  0  0  0  0  0  0  0  0
   17.0395   -6.1017   -9.1555 O   0  0  0  0  0  0  0  0  0  0  0  0
   18.3910   -6.1186   -9.4502 O   0  0  0  0  0  0  0  0  0  0  0  0
  2  1  1  1
  2  3  1  0
  4  2  1  0
  4  5  1  6
  6  7  2  0
  6  4  1  0
  9  8  1  0
 10  9  2  0
 11  9  1  0
 12 11  1  0
 13 14  1  0
 13 12  1  0
 15 16  1  0
 15 14  1  6
 16  6  1  0
 17 15  1  0
 18 17  2  0
 19 20  1  0
 20 22  1  0
 21 20  2  0
 23 22  1  6
 23 24  1  0
 24 17  1  0
 25 23  1  0
 25 26  1  0
 27 25  2  0
M  END
$$$$
