VRN.pdb
     RDKit          3D

 27 26  0  0  1  0  0  0  0  0999 V2000
   28.1978  -11.5517  -15.3376 C   0  0  0  0  0  0  0  0  0  0  0  0
   26.9943  -10.7409  -15.7214 C   0  0  1  0  0  0  0  0  0  0  0  0
   27.1993   -9.8674  -16.9238 C   0  0  0  0  0  0  0  0  0  0  0  0
   25.7216  -11.5491  -15.7693 C   0  0  2  0  0  0  0  0  0  0  0  0
   25.9413  -12.6243  -16.7212 N   0  0  0  0  0  0  0  0  0  0  0  0
   24.5265  -10.7919  -16.1011 C   0  0  0  0  0  0  0  0  0  0  0  0
   24.1890  -10.7455  -17.3343 O   0  0  0  0  0  0  0  0  0  0  0  0
   16.5544  -10.7689  -13.6772 N   0  0  0  0  0  0  0  0  0  0  0  0
   16.8941  -10.9778  -15.0529 C   0  0  0  0  0  0  0  0  0  0  0  0
   16.1335  -11.7639  -15.7304 N   0  0  0  0  0  0  0  0  0  0  0  0
   18.0238  -10.3460  -15.6533 N   0  0  0  0  0  0  0  0  0  0  0  0
   18.8404   -9.5232  -14.7968 C   0  0  0  0  0  0  0  0  0  0  0  0
   20.0728   -9.0094  -15.5439 C   0  0  0  0  0  0  0  0  0  0  0  0
   21.2638   -9.7857  -15.0291 C   0  0  0  0  0  0  0  0  0  0  0  0
   22.5456   -9.3458  -15.6800 C   0  0  2  0  0  0  0  0  0  0  0  0
   23.6920  -10.0996  -15.2204 N   0  0  0  0  0  0  0  0  0  0  0  0
   22.7199   -7.8934  -15.3351 C   0  0  0  0  0  0  0  0  0  0  0  0
   23.1115   -7.5765  -14.1886 O   0  0  0  0  0  0  0  0  0  0  0  0
   16.2643  -11.9144  -16.7498 N   0  0  0  0  0  0  0  0  0  0  0  0
   22.8545   -2.7256  -15.7528 C   0  0  0  0  0  0  0  0  0  0  0  0
   23.5538   -3.3604  -16.8044 O   0  0  0  0  0  0  0  0  0  0  0  0
   24.2926   -2.6962  -17.5595 C   0  0  0  0  0  0  0  0  0  0  0  0
   23.4227   -4.8308  -17.0307 C   0  0  2  0  0  0  0  0  0  0  0  0
   22.5314   -5.4658  -15.9952 N   0  0  0  0  0  0  0  0  0  0  0  0
   22.4528   -6.8761  -16.2738 C   0  0  0  0  0  0  0  0  0  0  0  0
   21.1991   -4.8240  -15.9372 O   0  0  0  0  0  0  0  0  0  0  0  0
   20.8236   -3.9014  -14.9773 O   0  0  0  0  0  0  0  0  0  0  0  0
  2  1  1  6
  2  3  1  0
  4  2  1  0
  4  5  1  6
  6  7  2  0
  6  4  1  0
  9  8  1  0
 10  9  2  0
 11  9  1  0
 12 11  1  0
 13 14  1  0
 13 12  1  0
 15 16  1  0
 15 14  1  1
 16  6  1  0
 17 15  1  0
 18 17  2  0
 19 20  1  0
 20 22  1  0
 21 20  2  0
 23 22  1  1
 23 24  1  0
 24 17  1  0
 25 23  1  0
 25 26  1  0
 27 25  2  0
M  END
$$$$
