VRN.pdb
     RDKit          3D

 27 26  0  0  1  0  0  0  0  0999 V2000
   25.8966  -17.1081  -16.9766 C   0  0  0  0  0  0  0  0  0  0  0  0
   26.8694  -18.0422  -17.6355 C   0  0  1  0  0  0  0  0  0  0  0  0
   27.7615  -17.3871  -18.6481 C   0  0  0  0  0  0  0  0  0  0  0  0
   27.6070  -18.9221  -16.6571 C   0  0  2  0  0  0  0  0  0  0  0  0
   28.3745  -19.8734  -17.4422 N   0  0  0  0  0  0  0  0  0  0  0  0
   26.7643  -19.6019  -15.6879 C   0  0  0  0  0  0  0  0  0  0  0  0
   25.9574  -20.4878  -16.1362 O   0  0  0  0  0  0  0  0  0  0  0  0
   22.8532  -20.3761   -9.4809 N   0  0  0  0  0  0  0  0  0  0  0  0
   23.6352  -21.0829   -8.5112 C   0  0  0  0  0  0  0  0  0  0  0  0
   23.0576  -21.3859   -7.4022 N   0  0  0  0  0  0  0  0  0  0  0  0
   24.9950  -21.4392   -8.7561 N   0  0  0  0  0  0  0  0  0  0  0  0
   25.7341  -20.5989   -9.6644 C   0  0  0  0  0  0  0  0  0  0  0  0
   25.2663  -20.8070  -11.1063 C   0  0  0  0  0  0  0  0  0  0  0  0
   26.1196  -19.9211  -11.9856 C   0  0  0  0  0  0  0  0  0  0  0  0
   25.8192  -20.1210  -13.4451 C   0  0  2  0  0  0  0  0  0  0  0  0
   26.7312  -19.3993  -14.3062 N   0  0  0  0  0  0  0  0  0  0  0  0
   24.4165  -19.6268  -13.6612 C   0  0  0  0  0  0  0  0  0  0  0  0
   24.2220  -18.4124  -13.8972 O   0  0  0  0  0  0  0  0  0  0  0  0
   23.5762  -21.8091   -6.6079 N   0  0  0  0  0  0  0  0  0  0  0  0
   20.5647  -18.5249  -16.7698 C   0  0  0  0  0  0  0  0  0  0  0  0
   20.9488  -19.8349  -16.4033 O   0  0  0  0  0  0  0  0  0  0  0  0
   20.2085  -20.8043  -16.6667 C   0  0  0  0  0  0  0  0  0  0  0  0
   22.2414  -20.0826  -15.6974 C   0  0  1  0  0  0  0  0  0  0  0  0
   22.0325  -20.2398  -14.2137 N   0  0  0  0  0  0  0  0  0  0  0  0
   23.3110  -20.4999  -13.6049 C   0  0  0  0  0  0  0  0  0  0  0  0
   21.0318  -21.2839  -13.8992 O   0  0  0  0  0  0  0  0  0  0  0  0
   19.7091  -21.0225  -13.5897 O   0  0  0  0  0  0  0  0  0  0  0  0
  2  1  1  1
  2  3  1  0
  4  2  1  0
  4  5  1  6
  6  7  2  0
  6  4  1  0
  9  8  1  0
 10  9  2  0
 11  9  1  0
 12 11  1  0
 13 14  1  0
 13 12  1  0
 15 16  1  0
 15 14  1  1
 16  6  1  0
 17 15  1  0
 18 17  2  0
 19 20  1  0
 20 22  1  0
 21 20  2  0
 23 22  1  1
 23 24  1  0
 24 17  1  0
 25 23  1  0
 25 26  1  0
 27 25  2  0
M  END
$$$$
