VRN.pdb
     RDKit          3D

 27 26  0  0  1  0  0  0  0  0999 V2000
   28.5038  -26.5984  -18.6200 C   0  0  0  0  0  0  0  0  0  0  0  0
   27.6447  -26.1282  -17.4825 C   0  0  1  0  0  0  0  0  0  0  0  0
   28.3682  -26.0093  -16.1737 C   0  0  0  0  0  0  0  0  0  0  0  0
   26.8104  -24.9192  -17.8258 C   0  0  2  0  0  0  0  0  0  0  0  0
   27.7271  -23.8951  -18.2966 N   0  0  0  0  0  0  0  0  0  0  0  0
   25.9792  -24.4204  -16.7433 C   0  0  0  0  0  0  0  0  0  0  0  0
   25.0381  -25.1831  -16.3315 O   0  0  0  0  0  0  0  0  0  0  0  0
   25.9317  -21.2663   -9.5787 N   0  0  0  0  0  0  0  0  0  0  0  0
   24.7195  -20.5577   -9.8615 C   0  0  0  0  0  0  0  0  0  0  0  0
   23.8275  -20.5312   -8.9346 N   0  0  0  0  0  0  0  0  0  0  0  0
   24.5025  -19.9072  -11.1128 N   0  0  0  0  0  0  0  0  0  0  0  0
   25.3631  -20.2912  -12.2033 C   0  0  0  0  0  0  0  0  0  0  0  0
   24.6930  -21.3484  -13.0834 C   0  0  0  0  0  0  0  0  0  0  0  0
   25.6792  -21.7175  -14.1684 C   0  0  0  0  0  0  0  0  0  0  0  0
   25.1237  -22.7554  -15.1036 C   0  0  2  0  0  0  0  0  0  0  0  0
   26.0882  -23.1901  -16.0908 N   0  0  0  0  0  0  0  0  0  0  0  0
   23.9448  -22.1224  -15.7880 C   0  0  0  0  0  0  0  0  0  0  0  0
   24.1378  -21.2279  -16.6430 O   0  0  0  0  0  0  0  0  0  0  0  0
   22.8861  -20.1197   -9.0868 N   0  0  0  0  0  0  0  0  0  0  0  0
   18.8830  -23.1047  -13.5161 C   0  0  0  0  0  0  0  0  0  0  0  0
   20.0549  -22.6038  -14.1275 O   0  0  0  0  0  0  0  0  0  0  0  0
   20.9471  -22.0719  -13.4359 C   0  0  0  0  0  0  0  0  0  0  0  0
   20.2467  -22.7011  -15.6054 C   0  0  1  0  0  0  0  0  0  0  0  0
   21.4454  -21.9065  -16.0544 N   0  0  0  0  0  0  0  0  0  0  0  0
   22.6233  -22.5126  -15.4902 C   0  0  0  0  0  0  0  0  0  0  0  0
   21.3248  -20.4725  -15.7091 O   0  0  0  0  0  0  0  0  0  0  0  0
   22.1585  -19.8154  -14.8221 O   0  0  0  0  0  0  0  0  0  0  0  0
  2  1  1  6
  2  3  1  0
  4  2  1  0
  4  5  1  1
  6  7  2  0
  6  4  1  0
  9  8  1  0
 10  9  2  0
 11  9  1  0
 12 11  1  0
 13 14  1  0
 13 12  1  0
 15 16  1  0
 15 14  1  1
 16  6  1  0
 17 15  1  0
 18 17  2  0
 19 20  1  0
 20 22  1  0
 21 20  2  0
 23 22  1  6
 23 24  1  0
 24 17  1  0
 25 23  1  0
 25 26  1  0
 27 25  2  0
M  END
$$$$
