TPW.pdb
     RDKit          3D

 29 31  0  0  1  0  0  0  0  0999 V2000
   28.0305  -23.1597  -16.2080 C   0  0  0  0  0  0  0  0  0  0  0  0
   28.9345  -21.9713  -16.4118 C   0  0  1  0  0  0  0  0  0  0  0  0
   29.8873  -22.2960  -17.3492 O   0  0  0  0  0  0  0  0  0  0  0  0
   28.0241  -20.8225  -16.8852 C   0  0  2  0  0  0  0  0  0  0  0  0
   28.8250  -19.7711  -17.4494 N   0  0  0  0  0  0  0  0  0  0  0  0
   27.1048  -20.4101  -15.8209 C   0  0  0  0  0  0  0  0  0  0  0  0
   27.6457  -20.3352  -14.6573 O   0  0  0  0  0  0  0  0  0  0  0  0
   25.7434  -20.0997  -15.9394 N   0  0  0  0  0  0  0  0  0  0  0  0
   24.9652  -19.5381  -17.0298 C   0  0  0  0  0  0  0  0  0  0  0  0
   23.7409  -20.4819  -17.0368 C   0  0  0  0  0  0  0  0  0  0  0  0
   23.7639  -21.1888  -15.6893 C   0  0  0  0  0  0  0  0  0  0  0  0
   24.7078  -20.2877  -14.9228 C   0  0  1  0  0  0  0  0  0  0  0  0
   25.1258  -20.9188  -13.6932 C   0  0  0  0  0  0  0  0  0  0  0  0
   26.0362  -21.8186  -13.7228 O   0  0  0  0  0  0  0  0  0  0  0  0
   24.6145  -20.6474  -12.3798 N   0  0  0  0  0  0  0  0  0  0  0  0
   25.0138  -21.4673  -11.2366 C   0  0  1  0  0  0  0  0  0  0  0  0
   26.4360  -21.2567  -10.8710 C   0  0  0  0  0  0  0  0  0  0  0  0
   26.6710  -20.2950   -9.7796 C   0  0  0  0  0  0  0  0  0  0  0  0
   25.8657  -19.1701   -9.5630 C   0  0  0  0  0  0  0  0  0  0  0  0
   26.3037  -18.5208   -8.4752 N   0  0  0  0  0  0  0  0  0  0  0  0
   27.3694  -19.1835   -7.9746 C   0  0  0  0  0  0  0  0  0  0  0  0
   28.1512  -18.8894   -6.8784 C   0  0  0  0  0  0  0  0  0  0  0  0
   29.2071  -19.7188   -6.5695 C   0  0  0  0  0  0  0  0  0  0  0  0
   29.4756  -20.8368   -7.3578 C   0  0  0  0  0  0  0  0  0  0  0  0
   28.6680  -21.1005   -8.4510 C   0  0  0  0  0  0  0  0  0  0  0  0
   27.6030  -20.2928   -8.7874 C   0  0  0  0  0  0  0  0  0  0  0  0
   24.0550  -21.2463  -10.1471 C   0  0  0  0  0  0  0  0  0  0  0  0
   24.0490  -21.9251   -8.9352 O   0  0  0  0  0  0  0  0  0  0  0  0
   23.1297  -20.3746  -10.2760 O   0  0  0  0  0  0  0  0  0  0  0  0
  2  1  1  6
  2  3  1  0
  4  5  1  1
  4  2  1  0
  6  4  1  0
  7  6  2  0
  8  9  1  0
  8  6  1  0
 10  9  1  0
 11 12  1  0
 11 10  1  0
 12  8  1  0
 12 13  1  1
 14 13  2  0
 15 13  1  0
 16 17  1  1
 16 15  1  0
 18 17  1  0
 19 18  2  0
 20 19  1  0
 21 20  1  0
 21 26  2  0
 22 21  1  0
 23 22  2  0
 23 24  1  0
 24 25  2  0
 25 26  1  0
 26 18  1  0
 27 16  1  0
 28 27  1  0
 29 27  2  0
M  END
$$$$
