TPW.pdb
     RDKit          3D

 29 31  0  0  1  0  0  0  0  0999 V2000
   27.8671  -22.4419  -19.6737 C   0  0  0  0  0  0  0  0  0  0  0  0
   27.4707  -22.3184  -18.2250 C   0  0  1  0  0  0  0  0  0  0  0  0
   26.9542  -23.5217  -17.8037 O   0  0  0  0  0  0  0  0  0  0  0  0
   28.7562  -21.9419  -17.4645 C   0  0  2  0  0  0  0  0  0  0  0  0
   29.6751  -23.0464  -17.4903 N   0  0  0  0  0  0  0  0  0  0  0  0
   28.4420  -21.4166  -16.1328 C   0  0  0  0  0  0  0  0  0  0  0  0
   28.0819  -22.3127  -15.2845 O   0  0  0  0  0  0  0  0  0  0  0  0
   28.4930  -20.0829  -15.7055 N   0  0  0  0  0  0  0  0  0  0  0  0
   29.2471  -18.9370  -16.1828 C   0  0  0  0  0  0  0  0  0  0  0  0
   28.1462  -17.8523  -16.2195 C   0  0  0  0  0  0  0  0  0  0  0  0
   27.0134  -18.3925  -15.3587 C   0  0  0  0  0  0  0  0  0  0  0  0
   27.7396  -19.4844  -14.6031 C   0  0  1  0  0  0  0  0  0  0  0  0
   26.7986  -20.3472  -13.9286 C   0  0  0  0  0  0  0  0  0  0  0  0
   26.0621  -21.1378  -14.6155 O   0  0  0  0  0  0  0  0  0  0  0  0
   26.5772  -20.4245  -12.5127 N   0  0  0  0  0  0  0  0  0  0  0  0
   25.7063  -21.4535  -11.9459 C   0  0  1  0  0  0  0  0  0  0  0  0
   26.2749  -22.0438  -10.7094 C   0  0  0  0  0  0  0  0  0  0  0  0
   26.4428  -21.1084   -9.5833 C   0  0  0  0  0  0  0  0  0  0  0  0
   25.4090  -20.2962   -9.1013 C   0  0  0  0  0  0  0  0  0  0  0  0
   25.8565  -19.5953   -8.0501 N   0  0  0  0  0  0  0  0  0  0  0  0
   27.1491  -19.9217   -7.8300 C   0  0  0  0  0  0  0  0  0  0  0  0
   28.0227  -19.4533   -6.8726 C   0  0  0  0  0  0  0  0  0  0  0  0
   29.3145  -19.9322   -6.8559 C   0  0  0  0  0  0  0  0  0  0  0  0
   29.7256  -20.8759   -7.7961 C   0  0  0  0  0  0  0  0  0  0  0  0
   28.8196  -21.3234   -8.7426 C   0  0  0  0  0  0  0  0  0  0  0  0
   27.5199  -20.8666   -8.7867 C   0  0  0  0  0  0  0  0  0  0  0  0
   24.3568  -20.8940  -11.8013 C   0  0  0  0  0  0  0  0  0  0  0  0
   23.1924  -21.6376  -11.6574 O   0  0  0  0  0  0  0  0  0  0  0  0
   24.1851  -19.6278  -11.8069 O   0  0  0  0  0  0  0  0  0  0  0  0
  2  1  1  6
  2  3  1  0
  4  5  1  1
  4  2  1  0
  6  4  1  0
  7  6  2  0
  8  9  1  0
  8  6  1  0
 10  9  1  0
 11 12  1  0
 11 10  1  0
 12  8  1  0
 12 13  1  6
 14 13  2  0
 15 13  1  0
 16 17  1  1
 16 15  1  0
 18 17  1  0
 19 18  2  0
 20 19  1  0
 21 20  1  0
 21 26  2  0
 22 21  1  0
 23 22  2  0
 23 24  1  0
 24 25  2  0
 25 26  1  0
 26 18  1  0
 27 16  1  0
 28 27  1  0
 29 27  2  0
M  END
$$$$
