TPW.pdb
     RDKit          3D

 29 31  0  0  1  0  0  0  0  0999 V2000
   25.9388  -21.5790  -18.0984 C   0  0  0  0  0  0  0  0  0  0  0  0
   27.1298  -22.5019  -18.0761 C   0  0  1  0  0  0  0  0  0  0  0  0
   27.3640  -22.9527  -19.3545 O   0  0  0  0  0  0  0  0  0  0  0  0
   28.3038  -21.6659  -17.5327 C   0  0  2  0  0  0  0  0  0  0  0  0
   29.5310  -22.3979  -17.6855 N   0  0  0  0  0  0  0  0  0  0  0  0
   28.0223  -21.1872  -16.1764 C   0  0  0  0  0  0  0  0  0  0  0  0
   27.6802  -22.1120  -15.3517 O   0  0  0  0  0  0  0  0  0  0  0  0
   28.0863  -19.8694  -15.7040 N   0  0  0  0  0  0  0  0  0  0  0  0
   28.7771  -18.6914  -16.1988 C   0  0  0  0  0  0  0  0  0  0  0  0
   27.6585  -17.6289  -16.1009 C   0  0  0  0  0  0  0  0  0  0  0  0
   26.6126  -18.2236  -15.1690 C   0  0  0  0  0  0  0  0  0  0  0  0
   27.4192  -19.3274  -14.5198 C   0  0  1  0  0  0  0  0  0  0  0  0
   26.5541  -20.2336  -13.8020 C   0  0  0  0  0  0  0  0  0  0  0  0
   25.6471  -20.8768  -14.4368 O   0  0  0  0  0  0  0  0  0  0  0  0
   26.5889  -20.5088  -12.3938 N   0  0  0  0  0  0  0  0  0  0  0  0
   25.6068  -21.4023  -11.7809 C   0  0  1  0  0  0  0  0  0  0  0  0
   26.1224  -22.0259  -10.5375 C   0  0  0  0  0  0  0  0  0  0  0  0
   26.4657  -21.0860   -9.4558 C   0  0  0  0  0  0  0  0  0  0  0  0
   25.6499  -20.0085   -9.0894 C   0  0  0  0  0  0  0  0  0  0  0  0
   26.2073  -19.3704   -8.0508 N   0  0  0  0  0  0  0  0  0  0  0  0
   27.3611  -19.9947   -7.7272 C   0  0  0  0  0  0  0  0  0  0  0  0
   28.2755  -19.6947   -6.7406 C   0  0  0  0  0  0  0  0  0  0  0  0
   29.4000  -20.4802   -6.6112 C   0  0  0  0  0  0  0  0  0  0  0  0
   29.6042  -21.5605   -7.4686 C   0  0  0  0  0  0  0  0  0  0  0  0
   28.6634  -21.8314   -8.4474 C   0  0  0  0  0  0  0  0  0  0  0  0
   27.5269  -21.0671   -8.6035 C   0  0  0  0  0  0  0  0  0  0  0  0
   24.3427  -20.6715  -11.6291 C   0  0  0  0  0  0  0  0  0  0  0  0
   24.1938  -19.2953  -11.7459 O   0  0  0  0  0  0  0  0  0  0  0  0
   23.2653  -21.3049  -11.3631 O   0  0  0  0  0  0  0  0  0  0  0  0
  2  1  1  6
  2  3  1  0
  4  5  1  1
  4  2  1  0
  6  4  1  0
  7  6  2  0
  8  9  1  0
  8  6  1  0
 10  9  1  0
 11 12  1  0
 11 10  1  0
 12  8  1  0
 12 13  1  6
 14 13  2  0
 15 13  1  0
 16 17  1  1
 16 15  1  0
 18 17  1  0
 19 18  2  0
 20 19  1  0
 21 20  1  0
 21 26  2  0
 22 21  1  0
 23 22  2  0
 23 24  1  0
 24 25  2  0
 25 26  1  0
 26 18  1  0
 27 16  1  0
 28 27  1  0
 29 27  2  0
M  END
$$$$
