TPW.pdb
     RDKit          3D

 29 31  0  0  1  0  0  0  0  0999 V2000
   29.5723  -19.6290  -15.7771 C   0  0  0  0  0  0  0  0  0  0  0  0
   28.6882  -19.7907  -14.5675 C   0  0  1  0  0  0  0  0  0  0  0  0
   29.4210  -19.4955  -13.4414 O   0  0  0  0  0  0  0  0  0  0  0  0
   27.5141  -18.8138  -14.7670 C   0  0  2  0  0  0  0  0  0  0  0  0
   28.0203  -17.5069  -15.0845 N   0  0  0  0  0  0  0  0  0  0  0  0
   26.5872  -18.8704  -13.6331 C   0  0  0  0  0  0  0  0  0  0  0  0
   27.0325  -18.3193  -12.5606 O   0  0  0  0  0  0  0  0  0  0  0  0
   25.3091  -19.4443  -13.6011 N   0  0  0  0  0  0  0  0  0  0  0  0
   24.3190  -19.6720  -14.6391 C   0  0  0  0  0  0  0  0  0  0  0  0
   23.9061  -21.1314  -14.3396 C   0  0  0  0  0  0  0  0  0  0  0  0
   24.3869  -21.4079  -12.9225 C   0  0  0  0  0  0  0  0  0  0  0  0
   24.6229  -19.9956  -12.4322 C   0  0  1  0  0  0  0  0  0  0  0  0
   25.3706  -20.0053  -11.1970 C   0  0  0  0  0  0  0  0  0  0  0  0
   26.6434  -19.8701  -11.2282 O   0  0  0  0  0  0  0  0  0  0  0  0
   24.8314  -20.1602   -9.8760 N   0  0  0  0  0  0  0  0  0  0  0  0
   25.6195  -20.7839   -8.8138 C   0  0  1  0  0  0  0  0  0  0  0  0
   26.8421  -20.0052   -8.4982 C   0  0  0  0  0  0  0  0  0  0  0  0
   27.5424  -20.4031   -7.2643 C   0  0  0  0  0  0  0  0  0  0  0  0
   27.6686  -21.7348   -6.8503 C   0  0  0  0  0  0  0  0  0  0  0  0
   28.3918  -21.7763   -5.7226 N   0  0  0  0  0  0  0  0  0  0  0  0
   28.7413  -20.5155   -5.3851 C   0  0  0  0  0  0  0  0  0  0  0  0
   29.4718  -20.0651   -4.3067 C   0  0  0  0  0  0  0  0  0  0  0  0
   29.6892  -18.7119   -4.1658 C   0  0  0  0  0  0  0  0  0  0  0  0
   29.1752  -17.8169   -5.1031 C   0  0  0  0  0  0  0  0  0  0  0  0
   28.4465  -18.3065   -6.1737 C   0  0  0  0  0  0  0  0  0  0  0  0
   28.2117  -19.6538   -6.3457 C   0  0  0  0  0  0  0  0  0  0  0  0
   24.7373  -21.0424   -7.6693 C   0  0  0  0  0  0  0  0  0  0  0  0
   23.3709  -20.7938   -7.6387 O   0  0  0  0  0  0  0  0  0  0  0  0
   25.2161  -21.5298   -6.5895 O   0  0  0  0  0  0  0  0  0  0  0  0
  2  1  1  6
  2  3  1  0
  4  5  1  1
  4  2  1  0
  6  4  1  0
  7  6  2  0
  8  9  1  0
  8  6  1  0
 10  9  1  0
 11 12  1  0
 11 10  1  0
 12  8  1  0
 12 13  1  1
 14 13  2  0
 15 13  1  0
 16 17  1  1
 16 15  1  0
 18 17  1  0
 19 18  2  0
 20 19  1  0
 21 20  1  0
 21 26  2  0
 22 21  1  0
 23 22  2  0
 23 24  1  0
 24 25  2  0
 25 26  1  0
 26 18  1  0
 27 16  1  0
 28 27  1  0
 29 27  2  0
M  END
$$$$
