TPW.pdb
     RDKit          3D

 29 31  0  0  1  0  0  0  0  0999 V2000
   25.4042  -21.7183  -16.7489 C   0  0  0  0  0  0  0  0  0  0  0  0
   26.5373  -22.6776  -17.0074 C   0  0  1  0  0  0  0  0  0  0  0  0
   26.4378  -23.1420  -18.2984 O   0  0  0  0  0  0  0  0  0  0  0  0
   27.8323  -21.8755  -16.7787 C   0  0  2  0  0  0  0  0  0  0  0  0
   28.9630  -22.6460  -17.2182 N   0  0  0  0  0  0  0  0  0  0  0  0
   27.9058  -21.3812  -15.4010 C   0  0  0  0  0  0  0  0  0  0  0  0
   27.6997  -22.2811  -14.5067 O   0  0  0  0  0  0  0  0  0  0  0  0
   28.1692  -20.0724  -14.9749 N   0  0  0  0  0  0  0  0  0  0  0  0
   28.8530  -18.9609  -15.6129 C   0  0  0  0  0  0  0  0  0  0  0  0
   27.8671  -17.8044  -15.3292 C   0  0  0  0  0  0  0  0  0  0  0  0
   26.9674  -18.3022  -14.2073 C   0  0  0  0  0  0  0  0  0  0  0  0
   27.7844  -19.4701  -13.6981 C   0  0  1  0  0  0  0  0  0  0  0  0
   26.9950  -20.2947  -12.8140 C   0  0  0  0  0  0  0  0  0  0  0  0
   26.0551  -21.0181  -13.2965 O   0  0  0  0  0  0  0  0  0  0  0  0
   27.1428  -20.4017  -11.3904 N   0  0  0  0  0  0  0  0  0  0  0  0
   26.3005  -21.3126  -10.6163 C   0  0  1  0  0  0  0  0  0  0  0  0
   26.9415  -21.7134   -9.3400 C   0  0  0  0  0  0  0  0  0  0  0  0
   27.1395  -20.6263   -8.3650 C   0  0  0  0  0  0  0  0  0  0  0  0
   26.4423  -19.4131   -8.4180 C   0  0  0  0  0  0  0  0  0  0  0  0
   26.8064  -18.6528   -7.3759 N   0  0  0  0  0  0  0  0  0  0  0  0
   27.7196  -19.3285   -6.6444 C   0  0  0  0  0  0  0  0  0  0  0  0
   28.3824  -18.9480   -5.4975 C   0  0  0  0  0  0  0  0  0  0  0  0
   29.2920  -19.8154   -4.9331 C   0  0  0  0  0  0  0  0  0  0  0  0
   29.5342  -21.0574   -5.5182 C   0  0  0  0  0  0  0  0  0  0  0  0
   28.8490  -21.4051   -6.6698 C   0  0  0  0  0  0  0  0  0  0  0  0
   27.9314  -20.5624   -7.2596 C   0  0  0  0  0  0  0  0  0  0  0  0
   24.9683  -20.7115  -10.4783 C   0  0  0  0  0  0  0  0  0  0  0  0
   23.8122  -21.3974  -10.1281 O   0  0  0  0  0  0  0  0  0  0  0  0
   24.8047  -19.4622  -10.6912 O   0  0  0  0  0  0  0  0  0  0  0  0
  2  1  1  6
  2  3  1  0
  4  5  1  1
  4  2  1  0
  6  4  1  0
  7  6  2  0
  8  9  1  0
  8  6  1  0
 10  9  1  0
 11 12  1  0
 11 10  1  0
 12  8  1  0
 12 13  1  1
 14 13  2  0
 15 13  1  0
 16 17  1  1
 16 15  1  0
 18 17  1  0
 19 18  2  0
 20 19  1  0
 21 20  1  0
 21 26  2  0
 22 21  1  0
 23 22  2  0
 23 24  1  0
 24 25  2  0
 25 26  1  0
 26 18  1  0
 27 16  1  0
 28 27  1  0
 29 27  2  0
M  END
$$$$
