TPW.pdb
     RDKit          3D

 29 31  0  0  1  0  0  0  0  0999 V2000
   26.3588  -21.6240  -18.3877 C   0  0  0  0  0  0  0  0  0  0  0  0
   26.6416  -21.8804  -16.9299 C   0  0  1  0  0  0  0  0  0  0  0  0
   26.7380  -23.2380  -16.7302 O   0  0  0  0  0  0  0  0  0  0  0  0
   27.9642  -21.1541  -16.6205 C   0  0  2  0  0  0  0  0  0  0  0  0
   29.0719  -21.9580  -17.0583 N   0  0  0  0  0  0  0  0  0  0  0  0
   28.0122  -20.7278  -15.2191 C   0  0  0  0  0  0  0  0  0  0  0  0
   28.1046  -21.6946  -14.3772 O   0  0  0  0  0  0  0  0  0  0  0  0
   27.9694  -19.4184  -14.7215 N   0  0  0  0  0  0  0  0  0  0  0  0
   28.3640  -18.1453  -15.2988 C   0  0  0  0  0  0  0  0  0  0  0  0
   27.1399  -17.2687  -14.9476 C   0  0  0  0  0  0  0  0  0  0  0  0
   26.4000  -18.0226  -13.8522 C   0  0  0  0  0  0  0  0  0  0  0  0
   27.4754  -18.9922  -13.4117 C   0  0  1  0  0  0  0  0  0  0  0  0
   26.9152  -20.0248  -12.5724 C   0  0  0  0  0  0  0  0  0  0  0  0
   26.1557  -20.9164  -13.0898 O   0  0  0  0  0  0  0  0  0  0  0  0
   27.1144  -20.1753  -11.1590 N   0  0  0  0  0  0  0  0  0  0  0  0
   26.4781  -21.2685  -10.4252 C   0  0  1  0  0  0  0  0  0  0  0  0
   27.2468  -21.6468   -9.2142 C   0  0  0  0  0  0  0  0  0  0  0  0
   27.3102  -20.6185   -8.1605 C   0  0  0  0  0  0  0  0  0  0  0  0
   26.4641  -19.5033   -8.1264 C   0  0  0  0  0  0  0  0  0  0  0  0
   26.7341  -18.7820   -7.0294 N   0  0  0  0  0  0  0  0  0  0  0  0
   27.7295  -19.3884   -6.3461 C   0  0  0  0  0  0  0  0  0  0  0  0
   28.3446  -19.0127   -5.1714 C   0  0  0  0  0  0  0  0  0  0  0  0
   29.3600  -19.7967   -4.6689 C   0  0  0  0  0  0  0  0  0  0  0  0
   29.7550  -20.9511   -5.3433 C   0  0  0  0  0  0  0  0  0  0  0  0
   29.1135  -21.2970   -6.5205 C   0  0  0  0  0  0  0  0  0  0  0  0
   28.0933  -20.5364   -7.0501 C   0  0  0  0  0  0  0  0  0  0  0  0
   25.0750  -20.9118  -10.1818 C   0  0  0  0  0  0  0  0  0  0  0  0
   24.0665  -21.8077   -9.8505 O   0  0  0  0  0  0  0  0  0  0  0  0
   24.6990  -19.6941  -10.2743 O   0  0  0  0  0  0  0  0  0  0  0  0
  2  1  1  6
  2  3  1  0
  4  5  1  1
  4  2  1  0
  6  4  1  0
  7  6  2  0
  8  9  1  0
  8  6  1  0
 10  9  1  0
 11 12  1  0
 11 10  1  0
 12  8  1  0
 12 13  1  6
 14 13  2  0
 15 13  1  0
 16 17  1  1
 16 15  1  0
 18 17  1  0
 19 18  2  0
 20 19  1  0
 21 20  1  0
 21 26  2  0
 22 21  1  0
 23 22  2  0
 23 24  1  0
 24 25  2  0
 25 26  1  0
 26 18  1  0
 27 16  1  0
 28 27  1  0
 29 27  2  0
M  END
$$$$
