TPW.pdb
     RDKit          3D

 29 31  0  0  1  0  0  0  0  0999 V2000
   20.9738  -21.8441  -18.2684 C   0  0  0  0  0  0  0  0  0  0  0  0
   21.7474  -21.7823  -16.9766 C   0  0  1  0  0  0  0  0  0  0  0  0
   21.6903  -20.4976  -16.4880 O   0  0  0  0  0  0  0  0  0  0  0  0
   21.0726  -22.7925  -16.0297 C   0  0  2  0  0  0  0  0  0  0  0  0
   19.6864  -22.4511  -15.8656 N   0  0  0  0  0  0  0  0  0  0  0  0
   21.8359  -22.9360  -14.7868 C   0  0  0  0  0  0  0  0  0  0  0  0
   21.6709  -21.9718  -13.9529 O   0  0  0  0  0  0  0  0  0  0  0  0
   22.6972  -23.9816  -14.4279 N   0  0  0  0  0  0  0  0  0  0  0  0
   22.6748  -25.4041  -14.7209 C   0  0  0  0  0  0  0  0  0  0  0  0
   24.1466  -25.6461  -15.1273 C   0  0  0  0  0  0  0  0  0  0  0  0
   24.9162  -24.4409  -14.6067 C   0  0  0  0  0  0  0  0  0  0  0  0
   23.9139  -23.8798  -13.6213 C   0  0  1  0  0  0  0  0  0  0  0  0
   24.2978  -22.5508  -13.2077 C   0  0  0  0  0  0  0  0  0  0  0  0
   24.0793  -21.5589  -13.9873 O   0  0  0  0  0  0  0  0  0  0  0  0
   24.9293  -22.1930  -11.9695 N   0  0  0  0  0  0  0  0  0  0  0  0
   25.5006  -20.8606  -11.7777 C   0  0  1  0  0  0  0  0  0  0  0  0
   25.7167  -20.5494  -10.3435 C   0  0  0  0  0  0  0  0  0  0  0  0
   27.1047  -20.6911   -9.8695 C   0  0  0  0  0  0  0  0  0  0  0  0
   28.1448  -21.1690  -10.6761 C   0  0  0  0  0  0  0  0  0  0  0  0
   29.2892  -21.1384   -9.9790 N   0  0  0  0  0  0  0  0  0  0  0  0
   29.0311  -20.6575   -8.7430 C   0  0  0  0  0  0  0  0  0  0  0  0
   29.8874  -20.4567   -7.6819 C   0  0  0  0  0  0  0  0  0  0  0  0
   29.3813  -19.9618   -6.4998 C   0  0  0  0  0  0  0  0  0  0  0  0
   28.0227  -19.6708   -6.3851 C   0  0  0  0  0  0  0  0  0  0  0  0
   27.1932  -19.8851   -7.4727 C   0  0  0  0  0  0  0  0  0  0  0  0
   27.6666  -20.3774   -8.6699 C   0  0  0  0  0  0  0  0  0  0  0  0
   26.6936  -20.7389  -12.6245 C   0  0  0  0  0  0  0  0  0  0  0  0
   27.3435  -21.7954  -13.2497 O   0  0  0  0  0  0  0  0  0  0  0  0
   27.2179  -19.5919  -12.8303 O   0  0  0  0  0  0  0  0  0  0  0  0
  2  1  1  6
  2  3  1  0
  4  5  1  1
  4  2  1  0
  6  4  1  0
  7  6  2  0
  8  9  1  0
  8  6  1  0
 10  9  1  0
 11 12  1  0
 11 10  1  0
 12  8  1  0
 12 13  1  6
 14 13  2  0
 15 13  1  0
 16 17  1  1
 16 15  1  0
 18 17  1  0
 19 18  2  0
 20 19  1  0
 21 20  1  0
 21 26  2  0
 22 21  1  0
 23 22  2  0
 23 24  1  0
 24 25  2  0
 25 26  1  0
 26 18  1  0
 27 16  1  0
 28 27  1  0
 29 27  2  0
M  END
$$$$
