TPW.pdb
     RDKit          3D

 29 31  0  0  1  0  0  0  0  0999 V2000
   26.0675  -20.8635  -18.4391 C   0  0  0  0  0  0  0  0  0  0  0  0
   27.3403  -21.6310  -18.6877 C   0  0  1  0  0  0  0  0  0  0  0  0
   27.4919  -21.8086  -20.0433 O   0  0  0  0  0  0  0  0  0  0  0  0
   28.4734  -20.7794  -18.0849 C   0  0  2  0  0  0  0  0  0  0  0  0
   29.7453  -21.3544  -18.4264 N   0  0  0  0  0  0  0  0  0  0  0  0
   28.2514  -20.5493  -16.6546 C   0  0  0  0  0  0  0  0  0  0  0  0
   28.0068  -21.6163  -15.9810 O   0  0  0  0  0  0  0  0  0  0  0  0
   28.2782  -19.3263  -15.9708 N   0  0  0  0  0  0  0  0  0  0  0  0
   28.8569  -18.0370  -16.3064 C   0  0  0  0  0  0  0  0  0  0  0  0
   27.6908  -17.0869  -15.9493 C   0  0  0  0  0  0  0  0  0  0  0  0
   26.7613  -17.8996  -15.0596 C   0  0  0  0  0  0  0  0  0  0  0  0
   27.6809  -19.0356  -14.6670 C   0  0  1  0  0  0  0  0  0  0  0  0
   26.9316  -20.1066  -14.0537 C   0  0  0  0  0  0  0  0  0  0  0  0
   26.8764  -21.2491  -14.6291 O   0  0  0  0  0  0  0  0  0  0  0  0
   26.2029  -20.0382  -12.8190 N   0  0  0  0  0  0  0  0  0  0  0  0
   25.5543  -21.2262  -12.2655 C   0  0  1  0  0  0  0  0  0  0  0  0
   26.3245  -21.8057  -11.1377 C   0  0  0  0  0  0  0  0  0  0  0  0
   26.3981  -20.9678   -9.9278 C   0  0  0  0  0  0  0  0  0  0  0  0
   25.3276  -20.1915   -9.4671 C   0  0  0  0  0  0  0  0  0  0  0  0
   25.6862  -19.5830   -8.3279 N   0  0  0  0  0  0  0  0  0  0  0  0
   26.9561  -19.9351   -8.0296 C   0  0  0  0  0  0  0  0  0  0  0  0
   27.7472  -19.5534   -6.9676 C   0  0  0  0  0  0  0  0  0  0  0  0
   29.0333  -20.0406   -6.8840 C   0  0  0  0  0  0  0  0  0  0  0  0
   29.5212  -20.9059   -7.8621 C   0  0  0  0  0  0  0  0  0  0  0  0
   28.6970  -21.2675   -8.9141 C   0  0  0  0  0  0  0  0  0  0  0  0
   27.4053  -20.8000   -9.0275 C   0  0  0  0  0  0  0  0  0  0  0  0
   24.1584  -20.8934  -11.9558 C   0  0  0  0  0  0  0  0  0  0  0  0
   23.1372  -21.8164  -11.7691 O   0  0  0  0  0  0  0  0  0  0  0  0
   23.8016  -19.6716  -11.8434 O   0  0  0  0  0  0  0  0  0  0  0  0
  2  1  1  6
  2  3  1  0
  4  5  1  1
  4  2  1  0
  6  4  1  0
  7  6  2  0
  8  9  1  0
  8  6  1  0
 10  9  1  0
 11 12  1  0
 11 10  1  0
 12  8  1  0
 12 13  1  6
 14 13  2  0
 15 13  1  0
 16 17  1  1
 16 15  1  0
 18 17  1  0
 19 18  2  0
 20 19  1  0
 21 20  1  0
 21 26  2  0
 22 21  1  0
 23 22  2  0
 23 24  1  0
 24 25  2  0
 25 26  1  0
 26 18  1  0
 27 16  1  0
 28 27  1  0
 29 27  2  0
M  END
$$$$
