TPW.pdb
     RDKit          3D

 29 31  0  0  1  0  0  0  0  0999 V2000
   34.6997  -21.8296  -20.0329 C   0  0  0  0  0  0  0  0  0  0  0  0
   33.2737  -22.1641  -19.6786 C   0  0  1  0  0  0  0  0  0  0  0  0
   32.4450  -21.6524  -20.6500 O   0  0  0  0  0  0  0  0  0  0  0  0
   33.2037  -23.7013  -19.6085 C   0  0  2  0  0  0  0  0  0  0  0  0
   33.4201  -24.2559  -20.9164 N   0  0  0  0  0  0  0  0  0  0  0  0
   31.9781  -24.1396  -18.9349 C   0  0  0  0  0  0  0  0  0  0  0  0
   30.8951  -23.7237  -19.4885 O   0  0  0  0  0  0  0  0  0  0  0  0
   31.8712  -24.9386  -17.7886 N   0  0  0  0  0  0  0  0  0  0  0  0
   32.7274  -25.9780  -17.2442 C   0  0  0  0  0  0  0  0  0  0  0  0
   32.7802  -25.5683  -15.7545 C   0  0  0  0  0  0  0  0  0  0  0  0
   31.6145  -24.6109  -15.5539 C   0  0  0  0  0  0  0  0  0  0  0  0
   30.7987  -24.9081  -16.7936 C   0  0  1  0  0  0  0  0  0  0  0  0
   29.7788  -23.9038  -16.9830 C   0  0  0  0  0  0  0  0  0  0  0  0
   30.1209  -22.6898  -17.2034 O   0  0  0  0  0  0  0  0  0  0  0  0
   28.3594  -24.1139  -16.9478 N   0  0  0  0  0  0  0  0  0  0  0  0
   27.4327  -23.0117  -17.2025 C   0  0  1  0  0  0  0  0  0  0  0  0
   27.2325  -22.7777  -18.6537 C   0  0  0  0  0  0  0  0  0  0  0  0
   26.4818  -23.8280  -19.3643 C   0  0  0  0  0  0  0  0  0  0  0  0
   25.0888  -23.9533  -19.2963 C   0  0  0  0  0  0  0  0  0  0  0  0
   24.7015  -24.9686  -20.0810 N   0  0  0  0  0  0  0  0  0  0  0  0
   25.7956  -25.5117  -20.6586 C   0  0  0  0  0  0  0  0  0  0  0  0
   25.8928  -26.5759  -21.5289 C   0  0  0  0  0  0  0  0  0  0  0  0
   27.1376  -26.9596  -21.9780 C   0  0  0  0  0  0  0  0  0  0  0  0
   28.2776  -26.2779  -21.5545 C   0  0  0  0  0  0  0  0  0  0  0  0
   28.1406  -25.2133  -20.6801 C   0  0  0  0  0  0  0  0  0  0  0  0
   26.9108  -24.8023  -20.2126 C   0  0  0  0  0  0  0  0  0  0  0  0
   26.2023  -23.2512  -16.4383 C   0  0  0  0  0  0  0  0  0  0  0  0
   25.1905  -22.3210  -16.2368 O   0  0  0  0  0  0  0  0  0  0  0  0
   26.0002  -24.3879  -15.8908 O   0  0  0  0  0  0  0  0  0  0  0  0
  2  1  1  6
  2  3  1  0
  4  5  1  6
  4  2  1  0
  6  4  1  0
  7  6  2  0
  8  9  1  0
  8  6  1  0
 10  9  1  0
 11 12  1  0
 11 10  1  0
 12  8  1  0
 12 13  1  6
 14 13  2  0
 15 13  1  0
 16 17  1  6
 16 15  1  0
 18 17  1  0
 19 18  2  0
 20 19  1  0
 21 20  1  0
 21 26  2  0
 22 21  1  0
 23 22  2  0
 23 24  1  0
 24 25  2  0
 25 26  1  0
 26 18  1  0
 27 16  1  0
 28 27  1  0
 29 27  2  0
M  END
$$$$
