TPW.pdb
     RDKit          3D

 29 31  0  0  1  0  0  0  0  0999 V2000
   28.0147  -16.7616  -14.5020 C   0  0  0  0  0  0  0  0  0  0  0  0
   26.5262  -16.6054  -14.3259 C   0  0  1  0  0  0  0  0  0  0  0  0
   26.1358  -15.4162  -14.8963 O   0  0  0  0  0  0  0  0  0  0  0  0
   25.8870  -17.8203  -15.0245 C   0  0  2  0  0  0  0  0  0  0  0  0
   24.5891  -17.4623  -15.5269 N   0  0  0  0  0  0  0  0  0  0  0  0
   25.9213  -19.0012  -14.1572 C   0  0  0  0  0  0  0  0  0  0  0  0
   25.2200  -18.8887  -13.0859 O   0  0  0  0  0  0  0  0  0  0  0  0
   26.6170  -20.1989  -14.3703 N   0  0  0  0  0  0  0  0  0  0  0  0
   27.0762  -20.8544  -15.5824 C   0  0  0  0  0  0  0  0  0  0  0  0
   28.5211  -21.2338  -15.1849 C   0  0  0  0  0  0  0  0  0  0  0  0
   28.5648  -21.1360  -13.6668 C   0  0  0  0  0  0  0  0  0  0  0  0
   27.0851  -21.1366  -13.3491 C   0  0  1  0  0  0  0  0  0  0  0  0
   26.8606  -20.7511  -11.9758 C   0  0  0  0  0  0  0  0  0  0  0  0
   27.7942  -20.1664  -11.3232 O   0  0  0  0  0  0  0  0  0  0  0  0
   25.6596  -20.9594  -11.2180 N   0  0  0  0  0  0  0  0  0  0  0  0
   25.7120  -21.1509   -9.7692 C   0  0  1  0  0  0  0  0  0  0  0  0
   26.4542  -20.0602   -9.0907 C   0  0  0  0  0  0  0  0  0  0  0  0
   26.5166  -20.1586   -7.6218 C   0  0  0  0  0  0  0  0  0  0  0  0
   25.5518  -20.8255   -6.8568 C   0  0  0  0  0  0  0  0  0  0  0  0
   25.9085  -20.7801   -5.5655 N   0  0  0  0  0  0  0  0  0  0  0  0
   27.0739  -20.1044   -5.4613 C   0  0  0  0  0  0  0  0  0  0  0  0
   27.8146  -19.7982   -4.3401 C   0  0  0  0  0  0  0  0  0  0  0  0
   28.9792  -19.0765   -4.4859 C   0  0  0  0  0  0  0  0  0  0  0  0
   29.3964  -18.6648   -5.7509 C   0  0  0  0  0  0  0  0  0  0  0  0
   28.6263  -18.9916   -6.8541 C   0  0  0  0  0  0  0  0  0  0  0  0
   27.4572  -19.7134   -6.7442 C   0  0  0  0  0  0  0  0  0  0  0  0
   24.3458  -21.3691   -9.2782 C   0  0  0  0  0  0  0  0  0  0  0  0
   24.0129  -22.0295   -8.1024 O   0  0  0  0  0  0  0  0  0  0  0  0
   23.3478  -20.9411   -9.9517 O   0  0  0  0  0  0  0  0  0  0  0  0
  2  1  1  6
  2  3  1  0
  4  5  1  1
  4  2  1  0
  6  4  1  0
  7  6  2  0
  8  9  1  0
  8  6  1  0
 10  9  1  0
 11 12  1  0
 11 10  1  0
 12  8  1  0
 12 13  1  1
 14 13  2  0
 15 13  1  0
 16 17  1  1
 16 15  1  0
 18 17  1  0
 19 18  2  0
 20 19  1  0
 21 20  1  0
 21 26  2  0
 22 21  1  0
 23 22  2  0
 23 24  1  0
 24 25  2  0
 25 26  1  0
 26 18  1  0
 27 16  1  0
 28 27  1  0
 29 27  2  0
M  END
$$$$
