TPW.pdb
     RDKit          3D

 29 31  0  0  1  0  0  0  0  0999 V2000
   26.3250  -22.2389  -18.1287 C   0  0  0  0  0  0  0  0  0  0  0  0
   27.5870  -23.0578  -18.0407 C   0  0  1  0  0  0  0  0  0  0  0  0
   27.8854  -23.5461  -19.2917 O   0  0  0  0  0  0  0  0  0  0  0  0
   28.6762  -22.1031  -17.5167 C   0  0  2  0  0  0  0  0  0  0  0  0
   29.9539  -22.7597  -17.5530 N   0  0  0  0  0  0  0  0  0  0  0  0
   28.2969  -21.5376  -16.2189 C   0  0  0  0  0  0  0  0  0  0  0  0
   27.8629  -22.4033  -15.3736 O   0  0  0  0  0  0  0  0  0  0  0  0
   28.3575  -20.1955  -15.8201 N   0  0  0  0  0  0  0  0  0  0  0  0
   29.0808  -19.0543  -16.3532 C   0  0  0  0  0  0  0  0  0  0  0  0
   27.9715  -17.9776  -16.3604 C   0  0  0  0  0  0  0  0  0  0  0  0
   26.8831  -18.5081  -15.4385 C   0  0  0  0  0  0  0  0  0  0  0  0
   27.6508  -19.5804  -14.6960 C   0  0  1  0  0  0  0  0  0  0  0  0
   26.7478  -20.4359  -13.9629 C   0  0  0  0  0  0  0  0  0  0  0  0
   26.0244  -21.2812  -14.5965 O   0  0  0  0  0  0  0  0  0  0  0  0
   26.5523  -20.4488  -12.5411 N   0  0  0  0  0  0  0  0  0  0  0  0
   25.6231  -21.3929  -11.9215 C   0  0  1  0  0  0  0  0  0  0  0  0
   26.2036  -22.0347  -10.7166 C   0  0  0  0  0  0  0  0  0  0  0  0
   26.4945  -21.1240   -9.5952 C   0  0  0  0  0  0  0  0  0  0  0  0
   25.5833  -20.1693   -9.1272 C   0  0  0  0  0  0  0  0  0  0  0  0
   26.1182  -19.5312   -8.0769 N   0  0  0  0  0  0  0  0  0  0  0  0
   27.3494  -20.0365   -7.8438 C   0  0  0  0  0  0  0  0  0  0  0  0
   28.2737  -19.6899   -6.8820 C   0  0  0  0  0  0  0  0  0  0  0  0
   29.4840  -20.3476   -6.8513 C   0  0  0  0  0  0  0  0  0  0  0  0
   29.7635  -21.3475   -7.7818 C   0  0  0  0  0  0  0  0  0  0  0  0
   28.8101  -21.6687   -8.7330 C   0  0  0  0  0  0  0  0  0  0  0  0
   27.5891  -21.0319   -8.7911 C   0  0  0  0  0  0  0  0  0  0  0  0
   24.3418  -20.7104  -11.7033 C   0  0  0  0  0  0  0  0  0  0  0  0
   23.1253  -21.3426  -11.4796 O   0  0  0  0  0  0  0  0  0  0  0  0
   24.2865  -19.4339  -11.7153 O   0  0  0  0  0  0  0  0  0  0  0  0
  2  1  1  6
  2  3  1  0
  4  5  1  1
  4  2  1  0
  6  4  1  0
  7  6  2  0
  8  9  1  0
  8  6  1  0
 10  9  1  0
 11 12  1  0
 11 10  1  0
 12  8  1  0
 12 13  1  6
 14 13  2  0
 15 13  1  0
 16 17  1  1
 16 15  1  0
 18 17  1  0
 19 18  2  0
 20 19  1  0
 21 20  1  0
 21 26  2  0
 22 21  1  0
 23 22  2  0
 23 24  1  0
 24 25  2  0
 25 26  1  0
 26 18  1  0
 27 16  1  0
 28 27  1  0
 29 27  2  0
M  END
$$$$
