TPW.pdb
     RDKit          3D

 29 31  0  0  1  0  0  0  0  0999 V2000
   23.6330  -20.1893  -15.2532 C   0  0  0  0  0  0  0  0  0  0  0  0
   23.8582  -21.5464  -15.8684 C   0  0  1  0  0  0  0  0  0  0  0  0
   23.1310  -21.6302  -17.0331 O   0  0  0  0  0  0  0  0  0  0  0  0
   25.3737  -21.6503  -16.1232 C   0  0  2  0  0  0  0  0  0  0  0  0
   25.6452  -22.7730  -16.9781 N   0  0  0  0  0  0  0  0  0  0  0  0
   26.1197  -21.6260  -14.8619 C   0  0  0  0  0  0  0  0  0  0  0  0
   25.7487  -22.5171  -14.0131 O   0  0  0  0  0  0  0  0  0  0  0  0
   27.1604  -20.7599  -14.5003 N   0  0  0  0  0  0  0  0  0  0  0  0
   28.1409  -20.0350  -15.2896 C   0  0  0  0  0  0  0  0  0  0  0  0
   28.0705  -18.6354  -14.6368 C   0  0  0  0  0  0  0  0  0  0  0  0
   27.3852  -18.8462  -13.2945 C   0  0  0  0  0  0  0  0  0  0  0  0
   27.5279  -20.3455  -13.1459 C   0  0  1  0  0  0  0  0  0  0  0  0
   26.6869  -20.8322  -12.0778 C   0  0  0  0  0  0  0  0  0  0  0  0
   25.4904  -21.2073  -12.3370 O   0  0  0  0  0  0  0  0  0  0  0  0
   27.0485  -20.9467  -10.6936 N   0  0  0  0  0  0  0  0  0  0  0  0
   26.0771  -21.4049   -9.7012 C   0  0  1  0  0  0  0  0  0  0  0  0
   26.7145  -21.7015   -8.3949 C   0  0  0  0  0  0  0  0  0  0  0  0
   27.1573  -20.5242   -7.6274 C   0  0  0  0  0  0  0  0  0  0  0  0
   26.8774  -19.2078   -8.0141 C   0  0  0  0  0  0  0  0  0  0  0  0
   27.3706  -18.3668   -7.0943 N   0  0  0  0  0  0  0  0  0  0  0  0
   27.9648  -19.0901   -6.1199 C   0  0  0  0  0  0  0  0  0  0  0  0
   28.6144  -18.6640   -4.9815 C   0  0  0  0  0  0  0  0  0  0  0  0
   29.1599  -19.6027   -4.1332 C   0  0  0  0  0  0  0  0  0  0  0  0
   29.0533  -20.9612   -4.4275 C   0  0  0  0  0  0  0  0  0  0  0  0
   28.3930  -21.3514   -5.5801 C   0  0  0  0  0  0  0  0  0  0  0  0
   27.8346  -20.4391   -6.4496 C   0  0  0  0  0  0  0  0  0  0  0  0
   24.9746  -20.4370   -9.6468 C   0  0  0  0  0  0  0  0  0  0  0  0
   25.0260  -19.1360  -10.1310 O   0  0  0  0  0  0  0  0  0  0  0  0
   23.8593  -20.7666   -9.1175 O   0  0  0  0  0  0  0  0  0  0  0  0
  2  1  1  6
  2  3  1  0
  4  5  1  1
  4  2  1  0
  6  4  1  0
  7  6  2  0
  8  9  1  0
  8  6  1  0
 10  9  1  0
 11 12  1  0
 11 10  1  0
 12  8  1  0
 12 13  1  1
 14 13  2  0
 15 13  1  0
 16 17  1  1
 16 15  1  0
 18 17  1  0
 19 18  2  0
 20 19  1  0
 21 20  1  0
 21 26  2  0
 22 21  1  0
 23 22  2  0
 23 24  1  0
 24 25  2  0
 25 26  1  0
 26 18  1  0
 27 16  1  0
 28 27  1  0
 29 27  2  0
M  END
$$$$
