CEW.pdb
     RDKit          3D

 30 31  0  0  1  0  0  0  0  0999 V2000
   11.3948  -20.8128   21.2889 N   0  0  0  0  0  0  0  0  0  0  0  0
   12.5396  -19.8701   21.2717 C   0  0  1  0  0  0  0  0  0  0  0  0
   13.3270  -20.1799   20.0525 C   0  0  0  0  0  0  0  0  0  0  0  0
   13.5095  -21.9506   19.7646 S   0  0  0  0  0  0  0  0  0  0  0  0
   11.9527  -18.5387   21.3809 C   0  0  0  0  0  0  0  0  0  0  0  0
   12.7081  -17.5030   21.2906 O   0  0  0  0  0  0  0  0  0  0  0  0
   10.5722  -18.2537   21.5823 N   0  0  0  0  0  0  0  0  0  0  0  0
   10.1052  -16.8508   21.6265 C   0  0  1  0  0  0  0  0  0  0  0  0
    8.6248  -16.9386   21.3709 C   0  0  0  0  0  0  0  0  0  0  0  0
    8.2288  -17.6340   20.1201 C   0  0  0  0  0  0  0  0  0  0  0  0
    7.8379  -16.6771   19.0745 C   0  0  0  0  0  0  0  0  0  0  0  0
    8.4762  -16.3954   18.0390 O   0  0  0  0  0  0  0  0  0  0  0  0
   10.4235  -16.2680   22.9414 C   0  0  0  0  0  0  0  0  0  0  0  0
   11.1279  -15.2074   23.0634 O   0  0  0  0  0  0  0  0  0  0  0  0
    6.6219  -16.0118   19.2590 O   0  0  0  0  0  0  0  0  0  0  0  0
    9.9338  -16.9039   24.1102 N   0  0  0  0  0  0  0  0  0  0  0  0
   10.3099  -16.4602   25.4242 C   0  0  1  0  0  0  0  0  0  0  0  0
    9.9663  -15.0131   25.5866 C   0  0  0  0  0  0  0  0  0  0  0  0
    8.5141  -14.7821   25.7760 C   0  0  0  0  0  0  0  0  0  0  0  0
    7.4920  -15.6905   25.5744 C   0  0  0  0  0  0  0  0  0  0  0  0
    6.3556  -15.0502   25.8674 N   0  0  0  0  0  0  0  0  0  0  0  0
    6.5839  -13.7814   26.2462 C   0  0  0  0  0  0  0  0  0  0  0  0
    5.7419  -12.7489   26.6378 C   0  0  0  0  0  0  0  0  0  0  0  0
    6.2914  -11.5435   26.9705 C   0  0  0  0  0  0  0  0  0  0  0  0
    7.6497  -11.3344   26.9255 C   0  0  0  0  0  0  0  0  0  0  0  0
    8.4780  -12.3531   26.5394 C   0  0  0  0  0  0  0  0  0  0  0  0
    7.9448  -13.5753   26.2002 C   0  0  0  0  0  0  0  0  0  0  0  0
    9.7291  -17.3061   26.4976 C   0  0  0  0  0  0  0  0  0  0  0  0
    8.8986  -18.3952   26.2461 O   0  0  0  0  0  0  0  0  0  0  0  0
    9.9664  -17.0725   27.7116 O   0  0  0  0  0  0  0  0  0  0  0  0
  2  5  1  0
  2  1  1  6
  3  2  1  0
  4  3  1  0
  5  6  2  0
  7  8  1  0
  7  5  1  0
  8  9  1  1
  9 10  1  0
 10 11  1  0
 11 15  1  0
 11 12  2  0
 13  8  1  0
 14 13  2  0
 16 13  1  0
 17 18  1  1
 17 16  1  0
 19 18  1  0
 20 19  2  0
 21 20  1  0
 22 21  1  0
 22 27  2  0
 23 22  1  0
 24 23  2  0
 24 25  1  0
 25 26  2  0
 26 27  1  0
 27 19  1  0
 28 17  1  0
 28 29  1  0
 30 28  2  0
M  END
$$$$
