CEW.pdb
     RDKit          3D

 30 31  0  0  1  0  0  0  0  0999 V2000
    7.6256  -16.3324   20.3985 N   0  0  0  0  0  0  0  0  0  0  0  0
    8.1587  -15.6837   21.6209 C   0  0  1  0  0  0  0  0  0  0  0  0
    7.0619  -15.6942   22.6205 C   0  0  0  0  0  0  0  0  0  0  0  0
    6.1563  -14.1363   22.6869 S   0  0  0  0  0  0  0  0  0  0  0  0
    9.3822  -16.4085   21.9477 C   0  0  0  0  0  0  0  0  0  0  0  0
    9.3688  -17.6930   21.9815 O   0  0  0  0  0  0  0  0  0  0  0  0
   10.6437  -15.8177   22.2426 N   0  0  0  0  0  0  0  0  0  0  0  0
   11.7831  -16.6697   22.6475 C   0  0  1  0  0  0  0  0  0  0  0  0
   12.9916  -15.9793   22.0752 C   0  0  0  0  0  0  0  0  0  0  0  0
   12.8630  -15.5190   20.6693 C   0  0  0  0  0  0  0  0  0  0  0  0
   14.1222  -14.9424   20.1758 C   0  0  0  0  0  0  0  0  0  0  0  0
   14.4901  -13.7530   20.2694 O   0  0  0  0  0  0  0  0  0  0  0  0
   11.8252  -16.7689   24.1166 C   0  0  0  0  0  0  0  0  0  0  0  0
   12.8008  -17.3191   24.7341 O   0  0  0  0  0  0  0  0  0  0  0  0
   15.0016  -15.8193   19.5331 O   0  0  0  0  0  0  0  0  0  0  0  0
   10.7485  -16.2379   24.8710 N   0  0  0  0  0  0  0  0  0  0  0  0
   10.7213  -16.3168   26.3055 C   0  0  1  0  0  0  0  0  0  0  0  0
   10.1513  -15.0540   26.8704 C   0  0  0  0  0  0  0  0  0  0  0  0
    8.7038  -14.8979   26.5904 C   0  0  0  0  0  0  0  0  0  0  0  0
    7.7951  -15.9018   26.3131 C   0  0  0  0  0  0  0  0  0  0  0  0
    6.6148  -15.3015   26.1295 N   0  0  0  0  0  0  0  0  0  0  0  0
    6.7080  -13.9686   26.2716 C   0  0  0  0  0  0  0  0  0  0  0  0
    5.7761  -12.9434   26.1773 C   0  0  0  0  0  0  0  0  0  0  0  0
    6.1910  -11.6579   26.3800 C   0  0  0  0  0  0  0  0  0  0  0  0
    7.5014  -11.3619   26.6730 C   0  0  0  0  0  0  0  0  0  0  0  0
    8.4184  -12.3736   26.7657 C   0  0  0  0  0  0  0  0  0  0  0  0
    8.0213  -13.6755   26.5650 C   0  0  0  0  0  0  0  0  0  0  0  0
   10.0149  -17.5278   26.7948 C   0  0  0  0  0  0  0  0  0  0  0  0
    9.3862  -18.4386   25.9497 O   0  0  0  0  0  0  0  0  0  0  0  0
    9.9508  -17.7929   28.0238 O   0  0  0  0  0  0  0  0  0  0  0  0
  2  5  1  0
  2  1  1  6
  3  2  1  0
  4  3  1  0
  5  6  2  0
  7  8  1  0
  7  5  1  0
  8  9  1  1
  9 10  1  0
 10 11  1  0
 11 15  1  0
 11 12  2  0
 13  8  1  0
 14 13  2  0
 16 13  1  0
 17 18  1  1
 17 16  1  0
 19 18  1  0
 20 19  2  0
 21 20  1  0
 22 21  1  0
 22 27  2  0
 23 22  1  0
 24 23  2  0
 24 25  1  0
 25 26  2  0
 26 27  1  0
 27 19  1  0
 28 17  1  0
 28 29  1  0
 30 28  2  0
M  END
$$$$
