CEW.pdb
     RDKit          3D

 30 31  0  0  1  0  0  0  0  0999 V2000
    7.1959  -16.5426   19.9392 N   0  0  0  0  0  0  0  0  0  0  0  0
    8.0542  -15.4886   20.5324 C   0  0  1  0  0  0  0  0  0  0  0  0
    7.1432  -14.4248   21.0230 C   0  0  0  0  0  0  0  0  0  0  0  0
    6.1696  -14.9367   22.4519 S   0  0  0  0  0  0  0  0  0  0  0  0
    8.8917  -16.1709   21.5133 C   0  0  0  0  0  0  0  0  0  0  0  0
    8.4825  -17.2675   22.0437 O   0  0  0  0  0  0  0  0  0  0  0  0
   10.1703  -15.7329   21.9614 N   0  0  0  0  0  0  0  0  0  0  0  0
   10.9020  -16.5109   22.9848 C   0  0  1  0  0  0  0  0  0  0  0  0
   12.3507  -16.3637   22.6052 C   0  0  0  0  0  0  0  0  0  0  0  0
   13.3196  -17.0691   23.4819 C   0  0  0  0  0  0  0  0  0  0  0  0
   14.7028  -16.8640   23.0277 C   0  0  0  0  0  0  0  0  0  0  0  0
   15.0773  -16.1948   22.0424 O   0  0  0  0  0  0  0  0  0  0  0  0
   10.6045  -15.9676   24.3212 C   0  0  0  0  0  0  0  0  0  0  0  0
   10.7353  -14.7252   24.5956 O   0  0  0  0  0  0  0  0  0  0  0  0
   15.7059  -17.4842   23.7791 O   0  0  0  0  0  0  0  0  0  0  0  0
   10.1594  -16.8508   25.3372 N   0  0  0  0  0  0  0  0  0  0  0  0
   10.0749  -16.4386   26.7112 C   0  0  1  0  0  0  0  0  0  0  0  0
    8.6949  -16.6923   27.2309 C   0  0  0  0  0  0  0  0  0  0  0  0
    7.6740  -15.8136   26.6116 C   0  0  0  0  0  0  0  0  0  0  0  0
    6.6257  -16.1987   25.7972 C   0  0  0  0  0  0  0  0  0  0  0  0
    5.9677  -15.0801   25.4759 N   0  0  0  0  0  0  0  0  0  0  0  0
    6.5297  -13.9952   26.0349 C   0  0  0  0  0  0  0  0  0  0  0  0
    6.2140  -12.6436   25.9940 C   0  0  0  0  0  0  0  0  0  0  0  0
    6.9984  -11.7646   26.6853 C   0  0  0  0  0  0  0  0  0  0  0  0
    8.0846  -12.1883   27.4142 C   0  0  0  0  0  0  0  0  0  0  0  0
    8.3942  -13.5208   27.4534 C   0  0  0  0  0  0  0  0  0  0  0  0
    7.6170  -14.4229   26.7640 C   0  0  0  0  0  0  0  0  0  0  0  0
   11.1241  -17.0619   27.5571 C   0  0  0  0  0  0  0  0  0  0  0  0
   11.3493  -16.7019   28.8833 O   0  0  0  0  0  0  0  0  0  0  0  0
   11.8751  -17.9650   27.1041 O   0  0  0  0  0  0  0  0  0  0  0  0
  2  5  1  0
  2  1  1  1
  3  2  1  0
  4  3  1  0
  5  6  2  0
  7  8  1  0
  7  5  1  0
  8  9  1  6
  9 10  1  0
 10 11  1  0
 11 15  1  0
 11 12  2  0
 13  8  1  0
 14 13  2  0
 16 13  1  0
 17 18  1  1
 17 16  1  0
 19 18  1  0
 20 19  2  0
 21 20  1  0
 22 21  1  0
 22 27  2  0
 23 22  1  0
 24 23  2  0
 24 25  1  0
 25 26  2  0
 26 27  1  0
 27 19  1  0
 28 17  1  0
 28 29  1  0
 30 28  2  0
M  END
$$$$
