CEW.pdb
     RDKit          3D

 30 31  0  0  1  0  0  0  0  0999 V2000
    7.8550  -21.2046   23.0472 N   0  0  0  0  0  0  0  0  0  0  0  0
    7.7418  -19.8664   23.6765 C   0  0  1  0  0  0  0  0  0  0  0  0
    6.9513  -20.0468   24.9194 C   0  0  0  0  0  0  0  0  0  0  0  0
    5.2945  -20.6888   24.6119 S   0  0  0  0  0  0  0  0  0  0  0  0
    9.1104  -19.3775   23.8072 C   0  0  0  0  0  0  0  0  0  0  0  0
   10.0514  -20.1988   24.1094 O   0  0  0  0  0  0  0  0  0  0  0  0
    9.5316  -18.0297   23.6244 N   0  0  0  0  0  0  0  0  0  0  0  0
   10.9369  -17.6514   23.8892 C   0  0  1  0  0  0  0  0  0  0  0  0
   11.3490  -16.8611   22.6766 C   0  0  0  0  0  0  0  0  0  0  0  0
   10.2542  -16.1456   21.9735 C   0  0  0  0  0  0  0  0  0  0  0  0
   10.7457  -15.4661   20.7659 C   0  0  0  0  0  0  0  0  0  0  0  0
   11.9167  -15.4601   20.3326 O   0  0  0  0  0  0  0  0  0  0  0  0
   11.0086  -16.8661   25.1333 C   0  0  0  0  0  0  0  0  0  0  0  0
   12.0617  -16.2252   25.4741 O   0  0  0  0  0  0  0  0  0  0  0  0
    9.8015  -14.7503   20.0233 O   0  0  0  0  0  0  0  0  0  0  0  0
    9.8733  -16.8198   25.9815 N   0  0  0  0  0  0  0  0  0  0  0  0
    9.9334  -16.2305   27.2908 C   0  0  1  0  0  0  0  0  0  0  0  0
    8.5483  -15.9534   27.7843 C   0  0  0  0  0  0  0  0  0  0  0  0
    7.6893  -15.3090   26.7622 C   0  0  0  0  0  0  0  0  0  0  0  0
    6.7750  -15.9281   25.9308 C   0  0  0  0  0  0  0  0  0  0  0  0
    6.2348  -14.9630   25.1798 N   0  0  0  0  0  0  0  0  0  0  0  0
    6.7469  -13.7568   25.4772 C   0  0  0  0  0  0  0  0  0  0  0  0
    6.5080  -12.4828   24.9791 C   0  0  0  0  0  0  0  0  0  0  0  0
    7.2069  -11.4317   25.5011 C   0  0  0  0  0  0  0  0  0  0  0  0
    8.1339  -11.6090   26.5011 C   0  0  0  0  0  0  0  0  0  0  0  0
    8.3679  -12.8653   26.9909 C   0  0  0  0  0  0  0  0  0  0  0  0
    7.6747  -13.9378   26.4788 C   0  0  0  0  0  0  0  0  0  0  0  0
   10.7242  -17.0473   28.2459 C   0  0  0  0  0  0  0  0  0  0  0  0
   11.0851  -16.6018   29.5150 O   0  0  0  0  0  0  0  0  0  0  0  0
   11.1132  -18.2063   27.9458 O   0  0  0  0  0  0  0  0  0  0  0  0
  2  5  1  0
  2  1  1  1
  3  2  1  0
  4  3  1  0
  5  6  2  0
  7  8  1  0
  7  5  1  0
  8  9  1  6
  9 10  1  0
 10 11  1  0
 11 15  1  0
 11 12  2  0
 13  8  1  0
 14 13  2  0
 16 13  1  0
 17 18  1  1
 17 16  1  0
 19 18  1  0
 20 19  2  0
 21 20  1  0
 22 21  1  0
 22 27  2  0
 23 22  1  0
 24 23  2  0
 24 25  1  0
 25 26  2  0
 26 27  1  0
 27 19  1  0
 28 17  1  0
 28 29  1  0
 30 28  2  0
M  END
$$$$
