CEW.pdb
     RDKit          3D

 30 31  0  0  1  0  0  0  0  0999 V2000
    6.3689  -15.9301   19.7005 N   0  0  0  0  0  0  0  0  0  0  0  0
    7.4518  -15.1034   20.2863 C   0  0  1  0  0  0  0  0  0  0  0  0
    6.7913  -13.9909   21.0133 C   0  0  0  0  0  0  0  0  0  0  0  0
    7.9492  -12.9859   21.9626 S   0  0  0  0  0  0  0  0  0  0  0  0
    8.2747  -16.0266   21.0606 C   0  0  0  0  0  0  0  0  0  0  0  0
    7.7166  -16.9943   21.6955 O   0  0  0  0  0  0  0  0  0  0  0  0
    9.6916  -15.9676   21.1898 N   0  0  0  0  0  0  0  0  0  0  0  0
   10.4019  -16.9715   22.0118 C   0  0  1  0  0  0  0  0  0  0  0  0
   11.6635  -17.2619   21.2446 C   0  0  0  0  0  0  0  0  0  0  0  0
   12.6049  -18.2107   21.8914 C   0  0  0  0  0  0  0  0  0  0  0  0
   13.8234  -18.3896   21.0882 C   0  0  0  0  0  0  0  0  0  0  0  0
   13.9600  -18.1533   19.8699 O   0  0  0  0  0  0  0  0  0  0  0  0
   10.6635  -16.4149   23.3502 C   0  0  0  0  0  0  0  0  0  0  0  0
   11.3958  -15.3811   23.5264 O   0  0  0  0  0  0  0  0  0  0  0  0
   14.9491  -18.8761   21.7601 O   0  0  0  0  0  0  0  0  0  0  0  0
   10.0855  -17.0462   24.4806 N   0  0  0  0  0  0  0  0  0  0  0  0
   10.3201  -16.5665   25.8147 C   0  0  1  0  0  0  0  0  0  0  0  0
    9.9525  -15.1189   25.9032 C   0  0  0  0  0  0  0  0  0  0  0  0
    8.4899  -14.8887   25.8263 C   0  0  0  0  0  0  0  0  0  0  0  0
    7.5062  -15.8375   25.6201 C   0  0  0  0  0  0  0  0  0  0  0  0
    6.3419  -15.1806   25.6263 N   0  0  0  0  0  0  0  0  0  0  0  0
    6.5160  -13.8630   25.8243 C   0  0  0  0  0  0  0  0  0  0  0  0
    5.6295  -12.7975   25.9081 C   0  0  0  0  0  0  0  0  0  0  0  0
    6.1278  -11.5436   26.1208 C   0  0  0  0  0  0  0  0  0  0  0  0
    7.4778  -11.3181   26.2523 C   0  0  0  0  0  0  0  0  0  0  0  0
    8.3500  -12.3694   26.1695 C   0  0  0  0  0  0  0  0  0  0  0  0
    7.8687  -13.6405   25.9556 C   0  0  0  0  0  0  0  0  0  0  0  0
    9.6360  -17.3904   26.8434 C   0  0  0  0  0  0  0  0  0  0  0  0
    9.8438  -17.2312   28.2111 O   0  0  0  0  0  0  0  0  0  0  0  0
    8.8183  -18.2908   26.5191 O   0  0  0  0  0  0  0  0  0  0  0  0
  2  5  1  0
  2  1  1  1
  3  2  1  0
  4  3  1  0
  5  6  2  0
  7  8  1  0
  7  5  1  0
  8  9  1  6
  9 10  1  0
 10 11  1  0
 11 15  1  0
 11 12  2  0
 13  8  1  0
 14 13  2  0
 16 13  1  0
 17 18  1  6
 17 16  1  0
 19 18  1  0
 20 19  2  0
 21 20  1  0
 22 21  1  0
 22 27  2  0
 23 22  1  0
 24 23  2  0
 24 25  1  0
 25 26  2  0
 26 27  1  0
 27 19  1  0
 28 17  1  0
 28 29  1  0
 30 28  2  0
M  END
$$$$
