CEW.pdb
     RDKit          3D

 30 31  0  0  1  0  0  0  0  0999 V2000
    5.9966  -16.3298   20.1976 N   0  0  0  0  0  0  0  0  0  0  0  0
    7.1631  -15.4672   20.5052 C   0  0  1  0  0  0  0  0  0  0  0  0
    6.6196  -14.1779   20.9998 C   0  0  0  0  0  0  0  0  0  0  0  0
    7.0619  -13.8403   22.7150 S   0  0  0  0  0  0  0  0  0  0  0  0
    7.9976  -16.2458   21.4143 C   0  0  0  0  0  0  0  0  0  0  0  0
    7.4517  -17.1078   22.1955 O   0  0  0  0  0  0  0  0  0  0  0  0
    9.4135  -16.1493   21.5298 N   0  0  0  0  0  0  0  0  0  0  0  0
   10.1451  -17.0577   22.4396 C   0  0  1  0  0  0  0  0  0  0  0  0
   11.4735  -17.2748   21.7667 C   0  0  0  0  0  0  0  0  0  0  0  0
   12.4181  -18.1691   22.4829 C   0  0  0  0  0  0  0  0  0  0  0  0
   13.7149  -18.2426   21.7941 C   0  0  0  0  0  0  0  0  0  0  0  0
   14.1333  -17.4790   20.8993 O   0  0  0  0  0  0  0  0  0  0  0  0
   10.2732  -16.4278   23.7649 C   0  0  0  0  0  0  0  0  0  0  0  0
   10.8124  -15.2788   23.9234 O   0  0  0  0  0  0  0  0  0  0  0  0
   14.5711  -19.2778   22.1823 O   0  0  0  0  0  0  0  0  0  0  0  0
    9.7837  -17.1180   24.9026 N   0  0  0  0  0  0  0  0  0  0  0  0
   10.0711  -16.6709   26.2377 C   0  0  1  0  0  0  0  0  0  0  0  0
    8.8012  -16.5763   27.0232 C   0  0  0  0  0  0  0  0  0  0  0  0
    7.7849  -15.7124   26.3761 C   0  0  0  0  0  0  0  0  0  0  0  0
    6.6883  -16.1219   25.6411 C   0  0  0  0  0  0  0  0  0  0  0  0
    6.0561  -15.0089   25.2556 N   0  0  0  0  0  0  0  0  0  0  0  0
    6.6802  -13.9044   25.6984 C   0  0  0  0  0  0  0  0  0  0  0  0
    6.4104  -12.5495   25.5584 C   0  0  0  0  0  0  0  0  0  0  0  0
    7.2552  -11.6479   26.1408 C   0  0  0  0  0  0  0  0  0  0  0  0
    8.3576  -12.0522   26.8564 C   0  0  0  0  0  0  0  0  0  0  0  0
    8.6218  -13.3880   26.9934 C   0  0  0  0  0  0  0  0  0  0  0  0
    7.7834  -14.3127   26.4145 C   0  0  0  0  0  0  0  0  0  0  0  0
   11.0942  -17.5109   26.9105 C   0  0  0  0  0  0  0  0  0  0  0  0
   11.7066  -18.6029   26.3010 O   0  0  0  0  0  0  0  0  0  0  0  0
   11.4635  -17.2687   28.0893 O   0  0  0  0  0  0  0  0  0  0  0  0
  2  5  1  0
  2  1  1  1
  3  2  1  0
  4  3  1  0
  5  6  2  0
  7  8  1  0
  7  5  1  0
  8  9  1  6
  9 10  1  0
 10 11  1  0
 11 15  1  0
 11 12  2  0
 13  8  1  0
 14 13  2  0
 16 13  1  0
 17 18  1  1
 17 16  1  0
 19 18  1  0
 20 19  2  0
 21 20  1  0
 22 21  1  0
 22 27  2  0
 23 22  1  0
 24 23  2  0
 24 25  1  0
 25 26  2  0
 26 27  1  0
 27 19  1  0
 28 17  1  0
 28 29  1  0
 30 28  2  0
M  END
$$$$
