CEW.pdb
     RDKit          3D

 30 31  0  0  1  0  0  0  0  0999 V2000
    6.9444  -16.6102   19.7107 N   0  0  0  0  0  0  0  0  0  0  0  0
    7.5943  -15.5692   20.5434 C   0  0  1  0  0  0  0  0  0  0  0  0
    6.5054  -14.7257   21.0958 C   0  0  0  0  0  0  0  0  0  0  0  0
    7.1093  -13.2036   21.8509 S   0  0  0  0  0  0  0  0  0  0  0  0
    8.4382  -16.2932   21.4882 C   0  0  0  0  0  0  0  0  0  0  0  0
    7.9350  -17.2474   22.1864 O   0  0  0  0  0  0  0  0  0  0  0  0
    9.8201  -16.0455   21.7261 N   0  0  0  0  0  0  0  0  0  0  0  0
   10.5511  -16.8408   22.7366 C   0  0  1  0  0  0  0  0  0  0  0  0
   11.9984  -16.7060   22.3469 C   0  0  0  0  0  0  0  0  0  0  0  0
   12.7973  -17.9565   22.4003 C   0  0  0  0  0  0  0  0  0  0  0  0
   14.1908  -17.7210   21.9950 C   0  0  0  0  0  0  0  0  0  0  0  0
   15.1033  -18.5698   21.9183 O   0  0  0  0  0  0  0  0  0  0  0  0
   10.2699  -16.3066   24.0802 C   0  0  0  0  0  0  0  0  0  0  0  0
   10.1416  -15.0534   24.3014 O   0  0  0  0  0  0  0  0  0  0  0  0
   14.5307  -16.4067   21.6597 O   0  0  0  0  0  0  0  0  0  0  0  0
   10.1381  -17.2110   25.1641 N   0  0  0  0  0  0  0  0  0  0  0  0
    9.9048  -16.7518   26.5056 C   0  0  1  0  0  0  0  0  0  0  0  0
    8.4704  -16.9687   26.8718 C   0  0  0  0  0  0  0  0  0  0  0  0
    7.5813  -15.8841   26.3910 C   0  0  0  0  0  0  0  0  0  0  0  0
    6.4200  -16.0227   25.6544 C   0  0  0  0  0  0  0  0  0  0  0  0
    5.9536  -14.7866   25.4501 N   0  0  0  0  0  0  0  0  0  0  0  0
    6.7458  -13.8577   26.0115 C   0  0  0  0  0  0  0  0  0  0  0  0
    6.6792  -12.4718   26.0677 C   0  0  0  0  0  0  0  0  0  0  0  0
    7.6621  -11.7933   26.7305 C   0  0  0  0  0  0  0  0  0  0  0  0
    8.7066  -12.4500   27.3376 C   0  0  0  0  0  0  0  0  0  0  0  0
    8.7705  -13.8158   27.2812 C   0  0  0  0  0  0  0  0  0  0  0  0
    7.7906  -14.5185   26.6185 C   0  0  0  0  0  0  0  0  0  0  0  0
   10.8397  -17.3607   27.4855 C   0  0  0  0  0  0  0  0  0  0  0  0
   11.8346  -18.2678   27.1295 O   0  0  0  0  0  0  0  0  0  0  0  0
   10.7747  -17.0784   28.7105 O   0  0  0  0  0  0  0  0  0  0  0  0
  2  5  1  0
  2  1  1  6
  3  2  1  0
  4  3  1  0
  5  6  2  0
  7  8  1  0
  7  5  1  0
  8  9  1  6
  9 10  1  0
 10 11  1  0
 11 15  1  0
 11 12  2  0
 13  8  1  0
 14 13  2  0
 16 13  1  0
 17 18  1  1
 17 16  1  0
 19 18  1  0
 20 19  2  0
 21 20  1  0
 22 21  1  0
 22 27  2  0
 23 22  1  0
 24 23  2  0
 24 25  1  0
 25 26  2  0
 26 27  1  0
 27 19  1  0
 28 17  1  0
 28 29  1  0
 30 28  2  0
M  END
$$$$
