CEW.pdb
     RDKit          3D

 30 31  0  0  1  0  0  0  0  0999 V2000
    7.3354  -16.3678   19.3403 N   0  0  0  0  0  0  0  0  0  0  0  0
    7.8830  -15.4755   20.3908 C   0  0  1  0  0  0  0  0  0  0  0  0
    6.7380  -14.6991   20.9281 C   0  0  0  0  0  0  0  0  0  0  0  0
    7.2453  -13.3921   22.0621 S   0  0  0  0  0  0  0  0  0  0  0  0
    8.6026  -16.3493   21.3115 C   0  0  0  0  0  0  0  0  0  0  0  0
    8.0438  -17.4281   21.7300 O   0  0  0  0  0  0  0  0  0  0  0  0
    9.9158  -16.1247   21.8140 N   0  0  0  0  0  0  0  0  0  0  0  0
   10.5053  -17.0664   22.7906 C   0  0  1  0  0  0  0  0  0  0  0  0
   11.9214  -17.2598   22.3197 C   0  0  0  0  0  0  0  0  0  0  0  0
   12.1178  -18.3097   21.2881 C   0  0  0  0  0  0  0  0  0  0  0  0
   13.5303  -18.4182   20.8947 C   0  0  0  0  0  0  0  0  0  0  0  0
   14.5266  -18.1248   21.5875 O   0  0  0  0  0  0  0  0  0  0  0  0
   10.4279  -16.4855   24.1421 C   0  0  0  0  0  0  0  0  0  0  0  0
   10.8336  -15.2997   24.3977 O   0  0  0  0  0  0  0  0  0  0  0  0
   13.7852  -18.9016   19.6075 O   0  0  0  0  0  0  0  0  0  0  0  0
    9.8868  -17.2667   25.1944 N   0  0  0  0  0  0  0  0  0  0  0  0
    9.9224  -16.8209   26.5600 C   0  0  1  0  0  0  0  0  0  0  0  0
    8.5336  -16.7821   27.1154 C   0  0  0  0  0  0  0  0  0  0  0  0
    7.6534  -15.8250   26.4032 C   0  0  0  0  0  0  0  0  0  0  0  0
    6.6727  -16.1248   25.4765 C   0  0  0  0  0  0  0  0  0  0  0  0
    6.1383  -14.9578   25.1026 N   0  0  0  0  0  0  0  0  0  0  0  0
    6.7165  -13.9219   25.7334 C   0  0  0  0  0  0  0  0  0  0  0  0
    6.5086  -12.5500   25.6781 C   0  0  0  0  0  0  0  0  0  0  0  0
    7.2777  -11.7370   26.4613 C   0  0  0  0  0  0  0  0  0  0  0  0
    8.2449  -12.2460   27.2957 C   0  0  0  0  0  0  0  0  0  0  0  0
    8.4482  -13.5983   27.3490 C   0  0  0  0  0  0  0  0  0  0  0  0
    7.6843  -14.4349   26.5682 C   0  0  0  0  0  0  0  0  0  0  0  0
   10.8468  -17.6269   27.3971 C   0  0  0  0  0  0  0  0  0  0  0  0
   11.5778  -18.7055   26.9056 O   0  0  0  0  0  0  0  0  0  0  0  0
   11.0162  -17.3663   28.6170 O   0  0  0  0  0  0  0  0  0  0  0  0
  2  5  1  0
  2  1  1  6
  3  2  1  0
  4  3  1  0
  5  6  2  0
  7  8  1  0
  7  5  1  0
  8  9  1  6
  9 10  1  0
 10 11  1  0
 11 15  1  0
 11 12  2  0
 13  8  1  0
 14 13  2  0
 16 13  1  0
 17 18  1  1
 17 16  1  0
 19 18  1  0
 20 19  2  0
 21 20  1  0
 22 21  1  0
 22 27  2  0
 23 22  1  0
 24 23  2  0
 24 25  1  0
 25 26  2  0
 26 27  1  0
 27 19  1  0
 28 17  1  0
 28 29  1  0
 30 28  2  0
M  END
$$$$
