CEW.pdb
     RDKit          3D

 30 31  0  0  1  0  0  0  0  0999 V2000
   14.3959  -18.1249   21.9382 N   0  0  0  0  0  0  0  0  0  0  0  0
   13.0766  -18.6993   22.2970 C   0  0  1  0  0  0  0  0  0  0  0  0
   13.2802  -19.4904   23.5360 C   0  0  0  0  0  0  0  0  0  0  0  0
   13.7798  -18.4781   24.9422 S   0  0  0  0  0  0  0  0  0  0  0  0
   12.1591  -17.5663   22.3578 C   0  0  0  0  0  0  0  0  0  0  0  0
   12.6202  -16.3707   22.2627 O   0  0  0  0  0  0  0  0  0  0  0  0
   10.7463  -17.6495   22.5151 N   0  0  0  0  0  0  0  0  0  0  0  0
    9.9288  -16.4167   22.5213 C   0  0  1  0  0  0  0  0  0  0  0  0
    8.6463  -16.8120   21.8405 C   0  0  0  0  0  0  0  0  0  0  0  0
    7.6642  -15.7174   21.6348 C   0  0  0  0  0  0  0  0  0  0  0  0
    6.4617  -16.1986   20.9391 C   0  0  0  0  0  0  0  0  0  0  0  0
    6.4142  -17.0413   20.0189 O   0  0  0  0  0  0  0  0  0  0  0  0
    9.7234  -15.9699   23.9098 C   0  0  0  0  0  0  0  0  0  0  0  0
    9.0581  -14.9153   24.1943 O   0  0  0  0  0  0  0  0  0  0  0  0
    5.2411  -15.6551   21.3516 O   0  0  0  0  0  0  0  0  0  0  0  0
   10.2823  -16.7335   24.9658 N   0  0  0  0  0  0  0  0  0  0  0  0
   10.1047  -16.3608   26.3422 C   0  0  1  0  0  0  0  0  0  0  0  0
    8.6898  -16.6163   26.7564 C   0  0  0  0  0  0  0  0  0  0  0  0
    7.7292  -15.6652   26.1475 C   0  0  0  0  0  0  0  0  0  0  0  0
    6.7106  -15.9615   25.2614 C   0  0  0  0  0  0  0  0  0  0  0  0
    6.1052  -14.8027   24.9823 N   0  0  0  0  0  0  0  0  0  0  0  0
    6.6731  -13.7754   25.6362 C   0  0  0  0  0  0  0  0  0  0  0  0
    6.4029  -12.4137   25.6678 C   0  0  0  0  0  0  0  0  0  0  0  0
    7.1798  -11.6079   26.4507 C   0  0  0  0  0  0  0  0  0  0  0  0
    8.2147  -12.1143   27.2012 C   0  0  0  0  0  0  0  0  0  0  0  0
    8.4795  -13.4566   27.1688 C   0  0  0  0  0  0  0  0  0  0  0  0
    7.7090  -14.2858   26.3867 C   0  0  0  0  0  0  0  0  0  0  0  0
   11.0874  -17.0184   27.2404 C   0  0  0  0  0  0  0  0  0  0  0  0
   11.1296  -16.8013   28.6153 O   0  0  0  0  0  0  0  0  0  0  0  0
   11.9466  -17.8208   26.7903 O   0  0  0  0  0  0  0  0  0  0  0  0
  2  5  1  0
  2  1  1  1
  3  2  1  0
  4  3  1  0
  5  6  2  0
  7  8  1  0
  7  5  1  0
  8  9  1  1
  9 10  1  0
 10 11  1  0
 11 15  1  0
 11 12  2  0
 13  8  1  0
 14 13  2  0
 16 13  1  0
 17 18  1  1
 17 16  1  0
 19 18  1  0
 20 19  2  0
 21 20  1  0
 22 21  1  0
 22 27  2  0
 23 22  1  0
 24 23  2  0
 24 25  1  0
 25 26  2  0
 26 27  1  0
 27 19  1  0
 28 17  1  0
 28 29  1  0
 30 28  2  0
M  END
$$$$
