CEW.pdb
     RDKit          3D

 30 31  0  0  1  0  0  0  0  0999 V2000
    7.3925  -18.0168   18.9540 N   0  0  0  0  0  0  0  0  0  0  0  0
    8.3272  -16.8692   19.0487 C   0  0  1  0  0  0  0  0  0  0  0  0
    7.4916  -15.6440   19.1042 C   0  0  0  0  0  0  0  0  0  0  0  0
    6.8622  -15.2966   20.7580 S   0  0  0  0  0  0  0  0  0  0  0  0
    9.1869  -17.1571   20.1920 C   0  0  0  0  0  0  0  0  0  0  0  0
    8.7424  -17.8858   21.1525 O   0  0  0  0  0  0  0  0  0  0  0  0
   10.5244  -16.6989   20.3613 N   0  0  0  0  0  0  0  0  0  0  0  0
   11.2788  -17.0534   21.5832 C   0  0  1  0  0  0  0  0  0  0  0  0
   12.7241  -16.9263   21.1837 C   0  0  0  0  0  0  0  0  0  0  0  0
   13.2561  -18.0250   20.3382 C   0  0  0  0  0  0  0  0  0  0  0  0
   14.6693  -17.8046   19.9980 C   0  0  0  0  0  0  0  0  0  0  0  0
   15.5395  -18.6789   19.8048 O   0  0  0  0  0  0  0  0  0  0  0  0
   10.9059  -16.1369   22.6745 C   0  0  0  0  0  0  0  0  0  0  0  0
   10.7755  -14.8778   22.4914 O   0  0  0  0  0  0  0  0  0  0  0  0
   15.0833  -16.4743   19.8780 O   0  0  0  0  0  0  0  0  0  0  0  0
   10.6853  -16.6676   23.9706 N   0  0  0  0  0  0  0  0  0  0  0  0
    9.8150  -16.0198   24.9129 C   0  0  1  0  0  0  0  0  0  0  0  0
    8.4595  -15.8372   24.3062 C   0  0  0  0  0  0  0  0  0  0  0  0
    7.4925  -15.2027   25.2337 C   0  0  0  0  0  0  0  0  0  0  0  0
    6.4558  -15.8200   25.9079 C   0  0  0  0  0  0  0  0  0  0  0  0
    5.8525  -14.8668   26.6254 N   0  0  0  0  0  0  0  0  0  0  0  0
    6.4388  -13.6700   26.4539 C   0  0  0  0  0  0  0  0  0  0  0  0
    6.1774  -12.4094   26.9743 C   0  0  0  0  0  0  0  0  0  0  0  0
    6.9733  -11.3652   26.5975 C   0  0  0  0  0  0  0  0  0  0  0  0
    8.0187  -11.5365   25.7208 C   0  0  0  0  0  0  0  0  0  0  0  0
    8.2749  -12.7796   25.2090 C   0  0  0  0  0  0  0  0  0  0  0  0
    7.4851  -13.8449   25.5756 C   0  0  0  0  0  0  0  0  0  0  0  0
    9.7631  -16.7267   26.2177 C   0  0  0  0  0  0  0  0  0  0  0  0
    9.6031  -18.1052   26.3333 O   0  0  0  0  0  0  0  0  0  0  0  0
    9.8638  -16.0983   27.3038 O   0  0  0  0  0  0  0  0  0  0  0  0
  2  5  1  0
  2  1  1  1
  3  2  1  0
  4  3  1  0
  5  6  2  0
  7  8  1  0
  7  5  1  0
  8  9  1  6
  9 10  1  0
 10 11  1  0
 11 15  1  0
 11 12  2  0
 13  8  1  0
 14 13  2  0
 16 13  1  0
 17 18  1  6
 17 16  1  0
 19 18  1  0
 20 19  2  0
 21 20  1  0
 22 21  1  0
 22 27  2  0
 23 22  1  0
 24 23  2  0
 24 25  1  0
 25 26  2  0
 26 27  1  0
 27 19  1  0
 28 17  1  0
 28 29  1  0
 30 28  2  0
M  END
$$$$
