CEW.pdb
     RDKit          3D

 30 31  0  0  1  0  0  0  0  0999 V2000
    6.5671  -16.4731   20.2017 N   0  0  0  0  0  0  0  0  0  0  0  0
    7.4588  -15.5426   20.9356 C   0  0  1  0  0  0  0  0  0  0  0  0
    6.5880  -14.7263   21.8174 C   0  0  0  0  0  0  0  0  0  0  0  0
    7.4954  -13.4574   22.7220 S   0  0  0  0  0  0  0  0  0  0  0  0
    8.4682  -16.3846   21.5691 C   0  0  0  0  0  0  0  0  0  0  0  0
    8.1126  -17.4763   22.1460 O   0  0  0  0  0  0  0  0  0  0  0  0
    9.8654  -16.1141   21.6146 N   0  0  0  0  0  0  0  0  0  0  0  0
   10.7684  -17.0112   22.3681 C   0  0  1  0  0  0  0  0  0  0  0  0
   12.0674  -16.9616   21.6099 C   0  0  0  0  0  0  0  0  0  0  0  0
   12.0257  -17.5027   20.2278 C   0  0  0  0  0  0  0  0  0  0  0  0
   13.3733  -17.8264   19.7371 C   0  0  0  0  0  0  0  0  0  0  0  0
   14.3361  -17.0408   19.6154 O   0  0  0  0  0  0  0  0  0  0  0  0
   10.8978  -16.5279   23.7536 C   0  0  0  0  0  0  0  0  0  0  0  0
   11.5546  -15.4704   24.0472 O   0  0  0  0  0  0  0  0  0  0  0  0
   13.6013  -19.1556   19.3672 O   0  0  0  0  0  0  0  0  0  0  0  0
   10.2746  -17.2594   24.7962 N   0  0  0  0  0  0  0  0  0  0  0  0
   10.4285  -16.8868   26.1754 C   0  0  1  0  0  0  0  0  0  0  0  0
   10.0571  -15.4485   26.3549 C   0  0  0  0  0  0  0  0  0  0  0  0
    8.6147  -15.1919   26.1273 C   0  0  0  0  0  0  0  0  0  0  0  0
    7.6407  -16.1227   25.8187 C   0  0  0  0  0  0  0  0  0  0  0  0
    6.4940  -15.4447   25.7054 N   0  0  0  0  0  0  0  0  0  0  0  0
    6.6705  -14.1305   25.9227 C   0  0  0  0  0  0  0  0  0  0  0  0
    5.7995  -13.0491   25.9162 C   0  0  0  0  0  0  0  0  0  0  0  0
    6.2956  -11.8044   26.1817 C   0  0  0  0  0  0  0  0  0  0  0  0
    7.6286  -11.6034   26.4527 C   0  0  0  0  0  0  0  0  0  0  0  0
    8.4856  -12.6704   26.4588 C   0  0  0  0  0  0  0  0  0  0  0  0
    8.0062  -13.9326   26.1938 C   0  0  0  0  0  0  0  0  0  0  0  0
    9.6830  -17.7850   27.0934 C   0  0  0  0  0  0  0  0  0  0  0  0
    8.8426  -18.8029   26.6499 O   0  0  0  0  0  0  0  0  0  0  0  0
    9.7790  -17.6650   28.3428 O   0  0  0  0  0  0  0  0  0  0  0  0
  2  5  1  0
  2  1  1  1
  3  2  1  0
  4  3  1  0
  5  6  2  0
  7  8  1  0
  7  5  1  0
  8  9  1  6
  9 10  1  0
 10 11  1  0
 11 15  1  0
 11 12  2  0
 13  8  1  0
 14 13  2  0
 16 13  1  0
 17 18  1  6
 17 16  1  0
 19 18  1  0
 20 19  2  0
 21 20  1  0
 22 21  1  0
 22 27  2  0
 23 22  1  0
 24 23  2  0
 24 25  1  0
 25 26  2  0
 26 27  1  0
 27 19  1  0
 28 17  1  0
 28 29  1  0
 30 28  2  0
M  END
$$$$
