CEW.pdb
     RDKit          3D

 30 31  0  0  1  0  0  0  0  0999 V2000
   11.8840  -18.0164   18.7207 N   0  0  0  0  0  0  0  0  0  0  0  0
   12.6695  -17.6674   19.9293 C   0  0  1  0  0  0  0  0  0  0  0  0
   13.8946  -16.9770   19.4552 C   0  0  0  0  0  0  0  0  0  0  0  0
   15.1259  -16.7586   20.7544 S   0  0  0  0  0  0  0  0  0  0  0  0
   11.7571  -16.9187   20.7872 C   0  0  0  0  0  0  0  0  0  0  0  0
   12.1767  -16.4593   21.9116 O   0  0  0  0  0  0  0  0  0  0  0  0
   10.3938  -16.6283   20.4962 N   0  0  0  0  0  0  0  0  0  0  0  0
    9.5667  -15.8972   21.4807 C   0  0  1  0  0  0  0  0  0  0  0  0
    8.2998  -15.5685   20.7380 C   0  0  0  0  0  0  0  0  0  0  0  0
    8.3945  -14.4451   19.7717 C   0  0  0  0  0  0  0  0  0  0  0  0
    7.5337  -14.6697   18.6012 C   0  0  0  0  0  0  0  0  0  0  0  0
    6.5463  -15.4306   18.5312 O   0  0  0  0  0  0  0  0  0  0  0  0
    9.3327  -16.7518   22.6575 C   0  0  0  0  0  0  0  0  0  0  0  0
    9.4439  -18.0250   22.6071 O   0  0  0  0  0  0  0  0  0  0  0  0
    7.8546  -13.9550   17.4429 O   0  0  0  0  0  0  0  0  0  0  0  0
    8.9715  -16.1433   23.8861 N   0  0  0  0  0  0  0  0  0  0  0  0
    8.7403  -16.9195   25.0731 C   0  0  1  0  0  0  0  0  0  0  0  0
    8.6820  -16.0160   26.2644 C   0  0  0  0  0  0  0  0  0  0  0  0
    7.4957  -15.1270   26.2573 C   0  0  0  0  0  0  0  0  0  0  0  0
    6.1844  -15.4882   26.0114 C   0  0  0  0  0  0  0  0  0  0  0  0
    5.4603  -14.3688   26.1104 N   0  0  0  0  0  0  0  0  0  0  0  0
    6.2271  -13.3056   26.4057 C   0  0  0  0  0  0  0  0  0  0  0  0
    5.9388  -11.9620   26.6046 C   0  0  0  0  0  0  0  0  0  0  0  0
    6.9627  -11.1069   26.8982 C   0  0  0  0  0  0  0  0  0  0  0  0
    8.2615  -11.5467   26.9996 C   0  0  0  0  0  0  0  0  0  0  0  0
    8.5438  -12.8714   26.8033 C   0  0  0  0  0  0  0  0  0  0  0  0
    7.5270  -13.7495   26.5066 C   0  0  0  0  0  0  0  0  0  0  0  0
    7.5415  -17.7883   24.9596 C   0  0  0  0  0  0  0  0  0  0  0  0
    7.2357  -18.7910   25.8762 O   0  0  0  0  0  0  0  0  0  0  0  0
    6.7279  -17.6550   24.0083 O   0  0  0  0  0  0  0  0  0  0  0  0
  2  5  1  0
  2  1  1  6
  3  2  1  0
  4  3  1  0
  5  6  2  0
  7  8  1  0
  7  5  1  0
  8  9  1  6
  9 10  1  0
 10 11  1  0
 11 15  1  0
 11 12  2  0
 13  8  1  0
 14 13  2  0
 16 13  1  0
 17 18  1  1
 17 16  1  0
 19 18  1  0
 20 19  2  0
 21 20  1  0
 22 21  1  0
 22 27  2  0
 23 22  1  0
 24 23  2  0
 24 25  1  0
 25 26  2  0
 26 27  1  0
 27 19  1  0
 28 17  1  0
 28 29  1  0
 30 28  2  0
M  END
$$$$
