CEW.pdb
     RDKit          3D

 30 31  0  0  1  0  0  0  0  0999 V2000
    7.3064  -15.9600   19.2935 N   0  0  0  0  0  0  0  0  0  0  0  0
    7.9127  -15.1458   20.3747 C   0  0  1  0  0  0  0  0  0  0  0  0
    6.8199  -14.3244   20.9521 C   0  0  0  0  0  0  0  0  0  0  0  0
    7.3523  -13.3393   22.3655 S   0  0  0  0  0  0  0  0  0  0  0  0
    8.5833  -16.0981   21.2537 C   0  0  0  0  0  0  0  0  0  0  0  0
    7.9988  -17.2013   21.5576 O   0  0  0  0  0  0  0  0  0  0  0  0
    9.8733  -15.9281   21.8321 N   0  0  0  0  0  0  0  0  0  0  0  0
   10.4040  -16.9432   22.7680 C   0  0  1  0  0  0  0  0  0  0  0  0
   11.7631  -17.2863   22.2203 C   0  0  0  0  0  0  0  0  0  0  0  0
   12.5309  -18.2959   22.9924 C   0  0  0  0  0  0  0  0  0  0  0  0
   13.8713  -18.5008   22.4242 C   0  0  0  0  0  0  0  0  0  0  0  0
   14.8464  -17.7251   22.5040 O   0  0  0  0  0  0  0  0  0  0  0  0
   10.4628  -16.3766   24.1264 C   0  0  0  0  0  0  0  0  0  0  0  0
   11.0134  -15.2481   24.3701 O   0  0  0  0  0  0  0  0  0  0  0  0
   14.0762  -19.6910   21.7193 O   0  0  0  0  0  0  0  0  0  0  0  0
    9.8912  -17.1063   25.1993 N   0  0  0  0  0  0  0  0  0  0  0  0
    9.9263  -16.6149   26.5491 C   0  0  1  0  0  0  0  0  0  0  0  0
    8.5492  -16.6441   27.1335 C   0  0  0  0  0  0  0  0  0  0  0  0
    7.5818  -15.8162   26.3739 C   0  0  0  0  0  0  0  0  0  0  0  0
    6.5269  -16.2644   25.6015 C   0  0  0  0  0  0  0  0  0  0  0  0
    5.9298  -15.1739   25.1100 N   0  0  0  0  0  0  0  0  0  0  0  0
    6.5375  -14.0476   25.5197 C   0  0  0  0  0  0  0  0  0  0  0  0
    6.2900  -12.7025   25.2795 C   0  0  0  0  0  0  0  0  0  0  0  0
    7.1076  -11.7714   25.8541 C   0  0  0  0  0  0  0  0  0  0  0  0
    8.1614  -12.1367   26.6584 C   0  0  0  0  0  0  0  0  0  0  0  0
    8.4037  -13.4629   26.8941 C   0  0  0  0  0  0  0  0  0  0  0  0
    7.5920  -14.4170   26.3248 C   0  0  0  0  0  0  0  0  0  0  0  0
   10.9159  -17.3344   27.3904 C   0  0  0  0  0  0  0  0  0  0  0  0
   11.2468  -16.9415   28.6848 O   0  0  0  0  0  0  0  0  0  0  0  0
   11.5147  -18.3558   26.9627 O   0  0  0  0  0  0  0  0  0  0  0  0
  2  5  1  0
  2  1  1  6
  3  2  1  0
  4  3  1  0
  5  6  2  0
  7  8  1  0
  7  5  1  0
  8  9  1  6
  9 10  1  0
 10 11  1  0
 11 15  1  0
 11 12  2  0
 13  8  1  0
 14 13  2  0
 16 13  1  0
 17 18  1  1
 17 16  1  0
 19 18  1  0
 20 19  2  0
 21 20  1  0
 22 21  1  0
 22 27  2  0
 23 22  1  0
 24 23  2  0
 24 25  1  0
 25 26  2  0
 26 27  1  0
 27 19  1  0
 28 17  1  0
 28 29  1  0
 30 28  2  0
M  END
$$$$
