RTT.pdb
     RDKit          3D

 26 25  0  0  1  0  0  0  0  0999 V2000
    8.9300  -15.8383   15.9818 N   0  0  0  0  0  0  0  0  0  0  0  0
    8.3480  -14.7177   15.2612 C   0  0  0  0  0  0  0  0  0  0  0  0
    8.0785  -14.8304   14.0219 N   0  0  0  0  0  0  0  0  0  0  0  0
    8.0764  -13.5012   15.9151 N   0  0  0  0  0  0  0  0  0  0  0  0
    8.2162  -13.2518   17.2879 C   0  0  0  0  0  0  0  0  0  0  0  0
    7.3813  -13.9713   18.2751 C   0  0  0  0  0  0  0  0  0  0  0  0
    7.5623  -13.4776   19.6967 C   0  0  0  0  0  0  0  0  0  0  0  0
    8.5206  -14.4259   20.4141 C   0  0  2  0  0  0  0  0  0  0  0  0
    8.8305  -15.5594   19.5917 N   0  0  0  0  0  0  0  0  0  0  0  0
    8.0281  -14.8048   21.7542 C   0  0  0  0  0  0  0  0  0  0  0  0
    7.0054  -14.1951   22.2082 O   0  0  0  0  0  0  0  0  0  0  0  0
    7.6353  -14.1180   13.4619 C   0  0  0  0  0  0  0  0  0  0  0  0
    7.7047  -18.4790   23.0160 C   0  0  2  0  0  0  0  0  0  0  0  0
    8.3458  -17.6190   24.0543 O   0  0  0  0  0  0  0  0  0  0  0  0
    9.7497  -17.7549   23.8634 C   0  0  2  0  0  0  0  0  0  0  0  0
    8.0844  -16.1365   23.9124 N   0  0  0  0  0  0  0  0  0  0  0  0
    8.6152  -15.8007   22.5706 C   0  0  0  0  0  0  0  0  0  0  0  0
    8.8287  -15.3215   24.9317 O   0  0  0  0  0  0  0  0  0  0  0  0
   10.0194  -15.0607   24.6905 C   0  0  0  0  0  0  0  0  0  0  0  0
    7.7711  -11.9809   26.3069 C   0  0  2  0  0  0  0  0  0  0  0  0
    7.8425  -12.9245   27.4978 O   0  0  0  0  0  0  0  0  0  0  0  0
    6.5177  -13.3648   27.7054 C   0  0  2  0  0  0  0  0  0  0  0  0
    8.7179  -14.1080   27.1851 N   0  0  0  0  0  0  0  0  0  0  0  0
    8.2074  -14.8765   26.0974 C   0  0  0  0  0  0  0  0  0  0  0  0
    9.2089  -14.8191   28.3648 O   0  0  0  0  0  0  0  0  0  0  0  0
    9.8309  -14.2062   29.4149 O   0  0  0  0  0  0  0  0  0  0  0  0
  1  2  1  0
  2  3  2  0
  4  2  1  0
  4  5  1  0
  5  6  1  0
  7  6  1  0
  8  7  1  0
  8  9  1  6
 10  8  1  0
 11 10  2  0
 13 12  1  1
 13 15  1  0
 14 13  1  0
 15 16  1  1
 16 10  1  0
 17 23  1  0
 17 15  1  0
 18 17  2  0
 20 19  1  1
 20 22  1  0
 21 20  1  0
 22 24  1  0
 22 23  1  1
 24 25  1  0
 26 24  2  0
M  END
$$$$
