RTT.pdb
     RDKit          3D

 26 25  0  0  1  0  0  0  0  0999 V2000
    7.9964  -15.6961   16.7848 N   0  0  0  0  0  0  0  0  0  0  0  0
    8.0635  -14.3584   16.2192 C   0  0  0  0  0  0  0  0  0  0  0  0
    8.3486  -14.2028   14.9881 N   0  0  0  0  0  0  0  0  0  0  0  0
    7.8176  -13.2243   17.0158 N   0  0  0  0  0  0  0  0  0  0  0  0
    7.4298  -13.2292   18.3633 C   0  0  0  0  0  0  0  0  0  0  0  0
    8.4436  -13.2195   19.4410 C   0  0  0  0  0  0  0  0  0  0  0  0
    8.6876  -14.5830   20.0563 C   0  0  0  0  0  0  0  0  0  0  0  0
    9.7817  -14.4424   21.1125 C   0  0  2  0  0  0  0  0  0  0  0  0
   11.0591  -14.8185   20.5796 N   0  0  0  0  0  0  0  0  0  0  0  0
    9.4451  -15.1586   22.3599 C   0  0  0  0  0  0  0  0  0  0  0  0
    8.3446  -14.8710   22.9344 O   0  0  0  0  0  0  0  0  0  0  0  0
    8.4350  -13.3106   14.5253 C   0  0  0  0  0  0  0  0  0  0  0  0
    9.7224  -18.9429   22.7761 C   0  0  2  0  0  0  0  0  0  0  0  0
   10.3103  -18.2774   23.9761 O   0  0  0  0  0  0  0  0  0  0  0  0
   11.7080  -18.1811   23.7254 C   0  0  2  0  0  0  0  0  0  0  0  0
    9.8653  -16.8503   24.2028 N   0  0  0  0  0  0  0  0  0  0  0  0
   10.2627  -16.1444   22.9623 C   0  0  0  0  0  0  0  0  0  0  0  0
   10.5727  -16.2045   25.3602 O   0  0  0  0  0  0  0  0  0  0  0  0
   11.6965  -15.7217   25.1410 C   0  0  0  0  0  0  0  0  0  0  0  0
    9.7988  -13.3310   27.3651 C   0  0  2  0  0  0  0  0  0  0  0  0
    9.7355  -14.4738   28.3670 O   0  0  0  0  0  0  0  0  0  0  0  0
    8.3682  -14.8099   28.4644 C   0  0  2  0  0  0  0  0  0  0  0  0
   10.5068  -15.6640   27.8635 N   0  0  0  0  0  0  0  0  0  0  0  0
    9.9906  -16.1492   26.6255 C   0  0  0  0  0  0  0  0  0  0  0  0
   10.8509  -16.6374   28.8990 O   0  0  0  0  0  0  0  0  0  0  0  0
   11.4799  -16.3115   30.0666 O   0  0  0  0  0  0  0  0  0  0  0  0
  1  2  1  0
  2  3  2  0
  4  2  1  0
  4  5  1  0
  5  6  1  0
  7  6  1  0
  8  7  1  0
  8  9  1  6
 10  8  1  0
 11 10  2  0
 13 12  1  1
 13 15  1  0
 14 13  1  0
 15 16  1  1
 16 10  1  0
 17 23  1  0
 17 15  1  0
 18 17  2  0
 20 19  1  1
 20 22  1  0
 21 20  1  0
 22 24  1  0
 22 23  1  1
 24 25  1  0
 26 24  2  0
M  END
$$$$
