RTT.pdb
     RDKit          3D

 26 25  0  0  1  0  0  0  0  0999 V2000
    8.5079  -14.6374   16.4783 N   0  0  0  0  0  0  0  0  0  0  0  0
    7.8993  -13.3646   16.8294 C   0  0  0  0  0  0  0  0  0  0  0  0
    7.8565  -12.4233   15.9732 N   0  0  0  0  0  0  0  0  0  0  0  0
    7.3536  -13.1537   18.1096 N   0  0  0  0  0  0  0  0  0  0  0  0
    7.4124  -14.0455   19.1901 C   0  0  0  0  0  0  0  0  0  0  0  0
    8.4932  -15.0521   19.2806 C   0  0  0  0  0  0  0  0  0  0  0  0
    8.3073  -16.0411   20.4141 C   0  0  0  0  0  0  0  0  0  0  0  0
    9.5887  -16.0632   21.2447 C   0  0  2  0  0  0  0  0  0  0  0  0
   10.5211  -17.0196   20.7222 N   0  0  0  0  0  0  0  0  0  0  0  0
    9.3148  -16.2535   22.6838 C   0  0  0  0  0  0  0  0  0  0  0  0
    8.4293  -15.5143   23.2253 O   0  0  0  0  0  0  0  0  0  0  0  0
    7.5036  -11.4957   16.1543 C   0  0  0  0  0  0  0  0  0  0  0  0
    8.9822  -19.7885   24.0646 C   0  0  2  0  0  0  0  0  0  0  0  0
    9.7128  -18.9564   25.0659 O   0  0  0  0  0  0  0  0  0  0  0  0
   11.0974  -19.1934   24.8367 C   0  0  2  0  0  0  0  0  0  0  0  0
    9.5503  -17.4622   24.9015 N   0  0  0  0  0  0  0  0  0  0  0  0
    9.9697  -17.2026   23.5044 C   0  0  0  0  0  0  0  0  0  0  0  0
   10.4506  -16.6820   25.8169 O   0  0  0  0  0  0  0  0  0  0  0  0
   11.6092  -16.4644   25.4239 C   0  0  0  0  0  0  0  0  0  0  0  0
    9.7139  -13.3397   27.3611 C   0  0  2  0  0  0  0  0  0  0  0  0
    9.9301  -14.2910   28.5281 O   0  0  0  0  0  0  0  0  0  0  0  0
    8.6363  -14.6708   28.9450 C   0  0  2  0  0  0  0  0  0  0  0  0
   10.6891  -15.5121   28.0835 N   0  0  0  0  0  0  0  0  0  0  0  0
   10.0025  -16.2213   27.0539 C   0  0  0  0  0  0  0  0  0  0  0  0
   11.2815  -16.2811   29.1770 O   0  0  0  0  0  0  0  0  0  0  0  0
   12.0534  -15.7302   30.1599 O   0  0  0  0  0  0  0  0  0  0  0  0
  1  2  1  0
  2  3  2  0
  4  2  1  0
  4  5  1  0
  5  6  1  0
  7  6  1  0
  8  7  1  0
  8  9  1  6
 10  8  1  0
 11 10  2  0
 13 12  1  1
 13 15  1  0
 14 13  1  0
 15 16  1  1
 16 10  1  0
 17 23  1  0
 17 15  1  0
 18 17  2  0
 20 19  1  1
 20 22  1  0
 21 20  1  0
 22 24  1  0
 22 23  1  1
 24 25  1  0
 26 24  2  0
M  END
$$$$
