RTT.pdb
     RDKit          3D

 26 25  0  0  1  0  0  0  0  0999 V2000
    8.8733  -12.6981   17.2580 N   0  0  0  0  0  0  0  0  0  0  0  0
    9.9641  -13.5005   17.7873 C   0  0  0  0  0  0  0  0  0  0  0  0
   11.0771  -12.9510   18.0713 N   0  0  0  0  0  0  0  0  0  0  0  0
    9.8097  -14.8845   17.9915 N   0  0  0  0  0  0  0  0  0  0  0  0
    8.5933  -15.5706   18.1171 C   0  0  0  0  0  0  0  0  0  0  0  0
    7.6336  -15.2168   19.1863 C   0  0  0  0  0  0  0  0  0  0  0  0
    8.2343  -15.2556   20.5774 C   0  0  0  0  0  0  0  0  0  0  0  0
    7.1511  -14.8574   21.5776 C   0  0  2  0  0  0  0  0  0  0  0  0
    6.3903  -13.7428   21.0916 N   0  0  0  0  0  0  0  0  0  0  0  0
    7.6994  -14.6337   22.9309 C   0  0  0  0  0  0  0  0  0  0  0  0
    7.8271  -13.4308   23.3314 O   0  0  0  0  0  0  0  0  0  0  0  0
   11.9030  -13.4455   18.3731 C   0  0  0  0  0  0  0  0  0  0  0  0
    7.1778  -13.2903   24.9998 C   0  0  2  0  0  0  0  0  0  0  0  0
    7.5286  -14.5050   25.7935 O   0  0  0  0  0  0  0  0  0  0  0  0
    6.3581  -15.3145   25.8089 C   0  0  2  0  0  0  0  0  0  0  0  0
    8.5933  -15.3875   25.1819 N   0  0  0  0  0  0  0  0  0  0  0  0
    8.0935  -15.6660   23.8153 C   0  0  0  0  0  0  0  0  0  0  0  0
    8.7412  -16.6956   25.9059 O   0  0  0  0  0  0  0  0  0  0  0  0
    7.7976  -17.4998   25.8237 C   0  0  0  0  0  0  0  0  0  0  0  0
   11.3626  -18.9984   25.2686 C   0  0  2  0  0  0  0  0  0  0  0  0
   11.5012  -18.8071   26.7713 O   0  0  0  0  0  0  0  0  0  0  0  0
   12.5917  -17.9264   26.9366 C   0  0  2  0  0  0  0  0  0  0  0  0
   10.2600  -18.1763   27.3424 N   0  0  0  0  0  0  0  0  0  0  0  0
    9.8900  -16.9930   26.6372 C   0  0  0  0  0  0  0  0  0  0  0  0
   10.2173  -18.1529   28.8039 O   0  0  0  0  0  0  0  0  0  0  0  0
   10.3777  -19.2618   29.5848 O   0  0  0  0  0  0  0  0  0  0  0  0
  1  2  1  0
  2  3  2  0
  4  2  1  0
  4  5  1  0
  5  6  1  0
  7  6  1  0
  8  7  1  0
  8  9  1  6
 10  8  1  0
 11 10  2  0
 13 12  1  1
 13 15  1  0
 14 13  1  0
 15 16  1  1
 16 10  1  0
 17 23  1  0
 17 15  1  0
 18 17  2  0
 20 19  1  1
 20 22  1  0
 21 20  1  0
 22 24  1  0
 22 23  1  1
 24 25  1  0
 26 24  2  0
M  END
$$$$
