RTT.pdb
     RDKit          3D

 26 25  0  0  1  0  0  0  0  0999 V2000
    8.4486  -16.3248   16.1984 N   0  0  0  0  0  0  0  0  0  0  0  0
    7.7188  -15.0693   16.1282 C   0  0  0  0  0  0  0  0  0  0  0  0
    7.3943  -14.5856   14.9960 N   0  0  0  0  0  0  0  0  0  0  0  0
    7.3632  -14.3742   17.2993 N   0  0  0  0  0  0  0  0  0  0  0  0
    7.9484  -13.1885   17.7663 C   0  0  0  0  0  0  0  0  0  0  0  0
    8.9881  -13.2229   18.8186 C   0  0  0  0  0  0  0  0  0  0  0  0
    8.8031  -14.3481   19.8172 C   0  0  0  0  0  0  0  0  0  0  0  0
    9.9114  -14.2465   20.8630 C   0  0  2  0  0  0  0  0  0  0  0  0
   11.1818  -14.5997   20.2986 N   0  0  0  0  0  0  0  0  0  0  0  0
    9.5927  -15.0108   22.0863 C   0  0  0  0  0  0  0  0  0  0  0  0
    8.4993  -14.7484   22.6856 O   0  0  0  0  0  0  0  0  0  0  0  0
    6.9887  -13.6728   14.8547 C   0  0  0  0  0  0  0  0  0  0  0  0
   10.1700  -18.8636   22.4043 C   0  0  2  0  0  0  0  0  0  0  0  0
   10.6382  -18.1506   23.6294 O   0  0  0  0  0  0  0  0  0  0  0  0
   12.0254  -17.9013   23.4317 C   0  0  2  0  0  0  0  0  0  0  0  0
   10.0331  -16.7822   23.8478 N   0  0  0  0  0  0  0  0  0  0  0  0
   10.4203  -16.0168   22.6398 C   0  0  0  0  0  0  0  0  0  0  0  0
   10.6046  -16.0863   25.0504 O   0  0  0  0  0  0  0  0  0  0  0  0
   11.7392  -15.5929   24.9351 C   0  0  0  0  0  0  0  0  0  0  0  0
    9.8659  -13.5233   29.0473 C   0  0  2  0  0  0  0  0  0  0  0  0
    9.2578  -14.4087   27.9702 O   0  0  0  0  0  0  0  0  0  0  0  0
    8.9479  -13.5390   26.9027 C   0  0  1  0  0  0  0  0  0  0  0  0
   10.2538  -15.4359   27.5033 N   0  0  0  0  0  0  0  0  0  0  0  0
    9.8898  -15.9978   26.2439 C   0  0  0  0  0  0  0  0  0  0  0  0
   10.7221  -16.3382   28.5544 O   0  0  0  0  0  0  0  0  0  0  0  0
   11.4111  -15.9231   29.6582 O   0  0  0  0  0  0  0  0  0  0  0  0
  1  2  1  0
  2  3  2  0
  4  2  1  0
  4  5  1  0
  5  6  1  0
  7  6  1  0
  8  7  1  0
  8  9  1  6
 10  8  1  0
 11 10  2  0
 13 12  1  1
 13 15  1  0
 14 13  1  0
 15 16  1  1
 16 10  1  0
 17 23  1  0
 17 15  1  0
 18 17  2  0
 20 19  1  1
 20 22  1  0
 21 20  1  0
 22 24  1  0
 22 23  1  1
 24 25  1  0
 26 24  2  0
M  END
$$$$
