RTT.pdb
     RDKit          3D

 26 25  0  0  1  0  0  0  0  0999 V2000
    8.3866  -12.5525   13.5667 N   0  0  0  0  0  0  0  0  0  0  0  0
    7.9582  -13.9325   13.4056 C   0  0  0  0  0  0  0  0  0  0  0  0
    7.8301  -14.4258   12.2388 N   0  0  0  0  0  0  0  0  0  0  0  0
    7.6798  -14.7378   14.5260 N   0  0  0  0  0  0  0  0  0  0  0  0
    8.5793  -15.6018   15.1666 C   0  0  0  0  0  0  0  0  0  0  0  0
    9.5389  -15.0860   16.1679 C   0  0  0  0  0  0  0  0  0  0  0  0
   10.5159  -16.1322   16.6664 C   0  0  0  0  0  0  0  0  0  0  0  0
    9.8548  -16.8972   17.8110 C   0  0  2  0  0  0  0  0  0  0  0  0
    8.4967  -17.2274   17.4889 N   0  0  0  0  0  0  0  0  0  0  0  0
    9.9845  -16.1889   19.1008 C   0  0  0  0  0  0  0  0  0  0  0  0
   11.1300  -15.7279   19.4156 O   0  0  0  0  0  0  0  0  0  0  0  0
    7.5098  -15.3618   12.0413 C   0  0  0  0  0  0  0  0  0  0  0  0
    7.7307  -13.3976   20.3286 C   0  0  2  0  0  0  0  0  0  0  0  0
    7.8977  -14.3949   21.4268 O   0  0  0  0  0  0  0  0  0  0  0  0
    6.7893  -15.2816   21.3228 C   0  0  2  0  0  0  0  0  0  0  0  0
    9.1118  -15.2878   21.3056 N   0  0  0  0  0  0  0  0  0  0  0  0
    8.9215  -15.9864   20.0130 C   0  0  0  0  0  0  0  0  0  0  0  0
    9.1769  -16.3205   22.3948 O   0  0  0  0  0  0  0  0  0  0  0  0
    8.3710  -17.2641   22.3314 C   0  0  0  0  0  0  0  0  0  0  0  0
   11.3660  -18.7209   23.1087 C   0  0  2  0  0  0  0  0  0  0  0  0
   11.4513  -17.9791   24.4339 O   0  0  0  0  0  0  0  0  0  0  0  0
   12.6508  -17.2381   24.3707 C   0  0  2  0  0  0  0  0  0  0  0  0
   10.2897  -17.0349   24.5889 N   0  0  0  0  0  0  0  0  0  0  0  0
   10.1041  -16.2229   23.4311 C   0  0  0  0  0  0  0  0  0  0  0  0
   10.2063  -16.3972   25.9022 O   0  0  0  0  0  0  0  0  0  0  0  0
   10.1977  -17.0873   27.0808 O   0  0  0  0  0  0  0  0  0  0  0  0
  1  2  1  0
  2  3  2  0
  4  2  1  0
  4  5  1  0
  5  6  1  0
  7  6  1  0
  8  7  1  0
  8  9  1  6
 10  8  1  0
 11 10  2  0
 13 12  1  1
 13 15  1  0
 14 13  1  0
 15 16  1  1
 16 10  1  0
 17 23  1  0
 17 15  1  0
 18 17  2  0
 20 19  1  1
 20 22  1  0
 21 20  1  0
 22 24  1  0
 22 23  1  1
 24 25  1  0
 26 24  2  0
M  END
$$$$
