RTT.pdb
     RDKit          3D

 26 25  0  0  1  0  0  0  0  0999 V2000
   13.3332  -19.2625   13.8573 N   0  0  0  0  0  0  0  0  0  0  0  0
   12.5571  -18.1303   13.3781 C   0  0  0  0  0  0  0  0  0  0  0  0
   12.0878  -18.1373   12.1945 N   0  0  0  0  0  0  0  0  0  0  0  0
   12.3148  -17.0183   14.2063 N   0  0  0  0  0  0  0  0  0  0  0  0
   11.2814  -16.8976   15.1463 C   0  0  0  0  0  0  0  0  0  0  0  0
    9.8754  -17.1491   14.7594 C   0  0  0  0  0  0  0  0  0  0  0  0
    8.9175  -17.1677   15.9339 C   0  0  0  0  0  0  0  0  0  0  0  0
    8.4739  -15.7331   16.2123 C   0  0  2  0  0  0  0  0  0  0  0  0
    8.7433  -14.8864   15.0863 N   0  0  0  0  0  0  0  0  0  0  0  0
    9.0398  -15.2113   17.4731 C   0  0  0  0  0  0  0  0  0  0  0  0
   10.1234  -14.5440   17.4094 O   0  0  0  0  0  0  0  0  0  0  0  0
   11.5502  -17.3889   11.7838 C   0  0  0  0  0  0  0  0  0  0  0  0
    7.5694  -12.7919   19.4944 C   0  0  2  0  0  0  0  0  0  0  0  0
    7.9661  -13.8544   20.4651 O   0  0  0  0  0  0  0  0  0  0  0  0
    6.8151  -14.6726   20.6427 C   0  0  2  0  0  0  0  0  0  0  0  0
    9.0364  -14.8044   19.9769 N   0  0  0  0  0  0  0  0  0  0  0  0
    8.4596  -15.4019   18.7499 C   0  0  0  0  0  0  0  0  0  0  0  0
    9.3128  -15.9106   20.9552 O   0  0  0  0  0  0  0  0  0  0  0  0
    8.5944  -16.9221   20.8864 C   0  0  0  0  0  0  0  0  0  0  0  0
   12.5968  -17.3929   21.3402 C   0  0  2  0  0  0  0  0  0  0  0  0
   12.2422  -17.0282   22.7738 O   0  0  0  0  0  0  0  0  0  0  0  0
   12.9854  -15.8624   23.0574 C   0  0  2  0  0  0  0  0  0  0  0  0
   10.7732  -16.7249   22.8960 N   0  0  0  0  0  0  0  0  0  0  0  0
   10.3336  -15.8051   21.8985 C   0  0  0  0  0  0  0  0  0  0  0  0
   10.3140  -16.5275   24.2702 O   0  0  0  0  0  0  0  0  0  0  0  0
   10.5905  -17.3892   25.2930 O   0  0  0  0  0  0  0  0  0  0  0  0
  1  2  1  0
  2  3  2  0
  4  2  1  0
  4  5  1  0
  5  6  1  0
  7  6  1  0
  8  7  1  0
  8  9  1  6
 10  8  1  0
 11 10  2  0
 13 12  1  1
 13 15  1  0
 14 13  1  0
 15 16  1  1
 16 10  1  0
 17 23  1  0
 17 15  1  0
 18 17  2  0
 20 19  1  1
 20 22  1  0
 21 20  1  0
 22 24  1  0
 22 23  1  1
 24 25  1  0
 26 24  2  0
M  END
$$$$
