RTT.pdb
     RDKit          3D

 26 25  0  0  1  0  0  0  0  0999 V2000
   11.2804  -21.3550   16.0801 N   0  0  0  0  0  0  0  0  0  0  0  0
   10.6575  -21.1573   14.7814 C   0  0  0  0  0  0  0  0  0  0  0  0
   11.2858  -21.4751   13.7205 N   0  0  0  0  0  0  0  0  0  0  0  0
    9.3626  -20.6156   14.6763 N   0  0  0  0  0  0  0  0  0  0  0  0
    8.6478  -19.9787   15.7008 C   0  0  0  0  0  0  0  0  0  0  0  0
    9.2865  -18.9327   16.5299 C   0  0  0  0  0  0  0  0  0  0  0  0
    8.3884  -18.3960   17.6266 C   0  0  0  0  0  0  0  0  0  0  0  0
    8.2844  -16.8813   17.4613 C   0  0  2  0  0  0  0  0  0  0  0  0
    8.8114  -16.4674   16.1932 N   0  0  0  0  0  0  0  0  0  0  0  0
    8.8854  -16.1556   18.5989 C   0  0  0  0  0  0  0  0  0  0  0  0
   10.1315  -15.8942   18.5483 O   0  0  0  0  0  0  0  0  0  0  0  0
   10.9443  -21.3273   12.7829 C   0  0  0  0  0  0  0  0  0  0  0  0
    7.4735  -12.9699   20.1962 C   0  0  2  0  0  0  0  0  0  0  0  0
    7.8201  -13.9550   21.2630 O   0  0  0  0  0  0  0  0  0  0  0  0
    6.6253  -14.6812   21.5290 C   0  0  2  0  0  0  0  0  0  0  0  0
    8.8255  -15.0105   20.8616 N   0  0  0  0  0  0  0  0  0  0  0  0
    8.1707  -15.7295   19.7438 C   0  0  0  0  0  0  0  0  0  0  0  0
    9.0948  -15.9962   21.9630 O   0  0  0  0  0  0  0  0  0  0  0  0
    8.3209  -16.9634   22.0612 C   0  0  0  0  0  0  0  0  0  0  0  0
   12.3791  -17.5536   22.5080 C   0  0  2  0  0  0  0  0  0  0  0  0
   12.0427  -16.9777   23.8751 O   0  0  0  0  0  0  0  0  0  0  0  0
   12.8229  -15.8072   23.9896 C   0  0  2  0  0  0  0  0  0  0  0  0
   10.5844  -16.6144   23.9534 N   0  0  0  0  0  0  0  0  0  0  0  0
   10.1690  -15.8314   22.8360 C   0  0  0  0  0  0  0  0  0  0  0  0
   10.1377  -16.2105   25.2860 O   0  0  0  0  0  0  0  0  0  0  0  0
   10.3900  -16.9286   26.4200 O   0  0  0  0  0  0  0  0  0  0  0  0
  1  2  1  0
  2  3  2  0
  4  2  1  0
  4  5  1  0
  5  6  1  0
  7  6  1  0
  8  7  1  0
  8  9  1  6
 10  8  1  0
 11 10  2  0
 13 12  1  1
 13 15  1  0
 14 13  1  0
 15 16  1  1
 16 10  1  0
 17 23  1  0
 17 15  1  0
 18 17  2  0
 20 19  1  1
 20 22  1  0
 21 20  1  0
 22 24  1  0
 22 23  1  1
 24 25  1  0
 26 24  2  0
M  END
$$$$
