RTT.pdb
     RDKit          3D

 26 25  0  0  1  0  0  0  0  0999 V2000
   10.0395  -18.8599   16.7024 N   0  0  0  0  0  0  0  0  0  0  0  0
    9.0383  -19.9083   16.8124 C   0  0  0  0  0  0  0  0  0  0  0  0
    9.2909  -21.0765   16.3734 N   0  0  0  0  0  0  0  0  0  0  0  0
    7.7850  -19.6515   17.3994 N   0  0  0  0  0  0  0  0  0  0  0  0
    7.3693  -18.4359   17.9612 C   0  0  0  0  0  0  0  0  0  0  0  0
    8.0541  -17.8794   19.1490 C   0  0  0  0  0  0  0  0  0  0  0  0
    8.6698  -16.5151   18.9101 C   0  0  0  0  0  0  0  0  0  0  0  0
    9.3959  -16.0883   20.1840 C   0  0  2  0  0  0  0  0  0  0  0  0
   10.3579  -17.0757   20.5802 N   0  0  0  0  0  0  0  0  0  0  0  0
    8.4561  -15.7336   21.2670 C   0  0  0  0  0  0  0  0  0  0  0  0
    7.5258  -14.9043   21.0016 O   0  0  0  0  0  0  0  0  0  0  0  0
    8.6368  -21.8444   16.3703 C   0  0  0  0  0  0  0  0  0  0  0  0
    6.4763  -18.1840   23.2760 C   0  0  2  0  0  0  0  0  0  0  0  0
    7.1234  -17.2269   24.2213 O   0  0  0  0  0  0  0  0  0  0  0  0
    8.3545  -17.8283   24.6063 C   0  0  2  0  0  0  0  0  0  0  0  0
    7.5210  -15.8981   23.6193 N   0  0  0  0  0  0  0  0  0  0  0  0
    8.5179  -16.2528   22.5823 C   0  0  0  0  0  0  0  0  0  0  0  0
    8.1813  -14.9895   24.6172 O   0  0  0  0  0  0  0  0  0  0  0  0
    9.4176  -14.8816   24.5557 C   0  0  0  0  0  0  0  0  0  0  0  0
    6.4978  -11.5421   25.7791 C   0  0  2  0  0  0  0  0  0  0  0  0
    6.8073  -12.4211   26.9813 O   0  0  0  0  0  0  0  0  0  0  0  0
    5.5956  -13.0774   27.2861 C   0  0  2  0  0  0  0  0  0  0  0  0
    7.8549  -13.4444   26.6344 N   0  0  0  0  0  0  0  0  0  0  0  0
    7.4362  -14.2968   25.5701 C   0  0  0  0  0  0  0  0  0  0  0  0
    8.5054  -14.0534   27.7938 O   0  0  0  0  0  0  0  0  0  0  0  0
    9.0499  -13.3365   28.8209 O   0  0  0  0  0  0  0  0  0  0  0  0
  1  2  1  0
  2  3  2  0
  4  2  1  0
  4  5  1  0
  5  6  1  0
  7  6  1  0
  8  7  1  0
  8  9  1  1
 10  8  1  0
 11 10  2  0
 13 12  1  1
 13 15  1  0
 14 13  1  0
 15 16  1  1
 16 10  1  0
 17 23  1  0
 17 15  1  0
 18 17  2  0
 20 19  1  1
 20 22  1  0
 21 20  1  0
 22 24  1  0
 22 23  1  1
 24 25  1  0
 26 24  2  0
M  END
$$$$
