RTT.pdb
     RDKit          3D

 26 25  0  0  1  0  0  0  0  0999 V2000
    7.6375  -12.5694   20.6934 N   0  0  0  0  0  0  0  0  0  0  0  0
    8.0671  -12.9204   19.3495 C   0  0  0  0  0  0  0  0  0  0  0  0
    8.4242  -12.0068   18.5378 N   0  0  0  0  0  0  0  0  0  0  0  0
    8.0941  -14.2629   18.9273 N   0  0  0  0  0  0  0  0  0  0  0  0
    8.7727  -15.3145   19.5598 C   0  0  0  0  0  0  0  0  0  0  0  0
    9.9730  -15.9192   18.9409 C   0  0  0  0  0  0  0  0  0  0  0  0
    9.6529  -16.9831   17.9099 C   0  0  0  0  0  0  0  0  0  0  0  0
   10.9652  -17.6167   17.4530 C   0  0  2  0  0  0  0  0  0  0  0  0
   10.7288  -18.6244   16.4601 N   0  0  0  0  0  0  0  0  0  0  0  0
   11.7711  -18.1068   18.5898 C   0  0  0  0  0  0  0  0  0  0  0  0
   11.4767  -19.2441   19.0833 O   0  0  0  0  0  0  0  0  0  0  0  0
    8.7167  -12.1648   17.5853 C   0  0  0  0  0  0  0  0  0  0  0  0
   16.1320  -17.9645   20.8933 C   0  0  1  0  0  0  0  0  0  0  0  0
   15.0921  -17.5924   19.8889 O   0  0  0  0  0  0  0  0  0  0  0  0
   15.3756  -18.3640   18.7271 C   0  0  1  0  0  0  0  0  0  0  0  0
   13.6756  -17.9697   20.2598 N   0  0  0  0  0  0  0  0  0  0  0  0
   12.8503  -17.3983   19.1701 C   0  0  0  0  0  0  0  0  0  0  0  0
   13.2372  -17.3519   21.5572 O   0  0  0  0  0  0  0  0  0  0  0  0
   13.3040  -16.1144   21.6479 C   0  0  0  0  0  0  0  0  0  0  0  0
   10.1718  -18.8269   23.6982 C   0  0  2  0  0  0  0  0  0  0  0  0
   11.4333  -18.7487   24.5445 O   0  0  0  0  0  0  0  0  0  0  0  0
   11.9843  -20.0477   24.5144 C   0  0  2  0  0  0  0  0  0  0  0  0
   12.4143  -17.7771   23.9456 N   0  0  0  0  0  0  0  0  0  0  0  0
   12.7740  -18.1356   22.6128 C   0  0  0  0  0  0  0  0  0  0  0  0
   13.4755  -17.3564   24.8596 O   0  0  0  0  0  0  0  0  0  0  0  0
   13.2439  -16.7845   26.0779 O   0  0  0  0  0  0  0  0  0  0  0  0
  1  2  1  0
  2  3  2  0
  4  2  1  0
  4  5  1  0
  5  6  1  0
  7  6  1  0
  8  7  1  0
  8  9  1  6
 10  8  1  0
 11 10  2  0
 13 12  1  6
 13 15  1  0
 14 13  1  0
 15 16  1  6
 16 10  1  0
 17 23  1  0
 17 15  1  0
 18 17  2  0
 20 19  1  1
 20 22  1  0
 21 20  1  0
 22 24  1  0
 22 23  1  1
 24 25  1  0
 26 24  2  0
M  END
$$$$
