RTT.pdb
     RDKit          3D

 26 25  0  0  1  0  0  0  0  0999 V2000
    7.5930  -12.3854   19.3345 N   0  0  0  0  0  0  0  0  0  0  0  0
    7.8966  -13.2146   18.1794 C   0  0  0  0  0  0  0  0  0  0  0  0
    7.6862  -12.7696   17.0052 N   0  0  0  0  0  0  0  0  0  0  0  0
    8.4220  -14.5106   18.3387 N   0  0  0  0  0  0  0  0  0  0  0  0
    8.4402  -15.2545   19.5271 C   0  0  0  0  0  0  0  0  0  0  0  0
    7.7023  -14.7878   20.7217 C   0  0  0  0  0  0  0  0  0  0  0  0
    6.5072  -15.6518   21.0721 C   0  0  0  0  0  0  0  0  0  0  0  0
    7.0193  -17.0245   21.5030 C   0  0  2  0  0  0  0  0  0  0  0  0
    6.3445  -18.0698   20.7894 N   0  0  0  0  0  0  0  0  0  0  0  0
    6.9674  -17.2020   22.9686 C   0  0  0  0  0  0  0  0  0  0  0  0
    5.9636  -17.8139   23.4602 O   0  0  0  0  0  0  0  0  0  0  0  0
    7.8961  -13.2688   16.1540 C   0  0  0  0  0  0  0  0  0  0  0  0
    6.6465  -19.0125   24.6269 C   0  0  2  0  0  0  0  0  0  0  0  0
    7.6251  -18.3630   25.5483 O   0  0  0  0  0  0  0  0  0  0  0  0
    8.8906  -18.9395   25.2456 C   0  0  2  0  0  0  0  0  0  0  0  0
    7.8222  -16.8791   25.3349 N   0  0  0  0  0  0  0  0  0  0  0  0
    7.9584  -16.7382   23.8664 C   0  0  0  0  0  0  0  0  0  0  0  0
    9.0810  -16.3684   25.9766 O   0  0  0  0  0  0  0  0  0  0  0  0
   10.1598  -16.7269   25.4749 C   0  0  0  0  0  0  0  0  0  0  0  0
    9.7431  -12.7270   26.7820 C   0  0  2  0  0  0  0  0  0  0  0  0
    9.8676  -13.4789   28.0984 O   0  0  0  0  0  0  0  0  0  0  0  0
    8.6286  -13.2991   28.7499 C   0  0  2  0  0  0  0  0  0  0  0  0
   10.0929  -14.9463   27.8519 N   0  0  0  0  0  0  0  0  0  0  0  0
    9.0382  -15.5268   27.0870 C   0  0  0  0  0  0  0  0  0  0  0  0
   10.5895  -15.6804   29.0149 O   0  0  0  0  0  0  0  0  0  0  0  0
   11.6652  -15.2855   29.7579 O   0  0  0  0  0  0  0  0  0  0  0  0
  1  2  1  0
  2  3  2  0
  4  2  1  0
  4  5  1  0
  5  6  1  0
  7  6  1  0
  8  7  1  0
  8  9  1  6
 10  8  1  0
 11 10  2  0
 13 12  1  1
 13 15  1  0
 14 13  1  0
 15 16  1  1
 16 10  1  0
 17 23  1  0
 17 15  1  0
 18 17  2  0
 20 19  1  1
 20 22  1  0
 21 20  1  0
 22 24  1  0
 22 23  1  1
 24 25  1  0
 26 24  2  0
M  END
$$$$
