RTT.pdb
     RDKit          3D

 26 25  0  0  1  0  0  0  0  0999 V2000
    7.7515  -13.8261   14.9128 N   0  0  0  0  0  0  0  0  0  0  0  0
    8.7835  -14.0410   15.9141 C   0  0  0  0  0  0  0  0  0  0  0  0
    9.9399  -13.5331   15.7535 N   0  0  0  0  0  0  0  0  0  0  0  0
    8.5240  -14.8074   17.0658 N   0  0  0  0  0  0  0  0  0  0  0  0
    7.3776  -14.7291   17.8695 C   0  0  0  0  0  0  0  0  0  0  0  0
    7.3463  -13.8465   19.0567 C   0  0  0  0  0  0  0  0  0  0  0  0
    6.9069  -14.5513   20.3246 C   0  0  0  0  0  0  0  0  0  0  0  0
    8.1561  -14.9609   21.1018 C   0  0  2  0  0  0  0  0  0  0  0  0
    8.7324  -16.1540   20.5527 N   0  0  0  0  0  0  0  0  0  0  0  0
    7.8997  -15.0609   22.5531 C   0  0  0  0  0  0  0  0  0  0  0  0
    7.3901  -14.0511   23.1399 O   0  0  0  0  0  0  0  0  0  0  0  0
   10.7052  -13.6263   16.4041 C   0  0  0  0  0  0  0  0  0  0  0  0
    5.9602  -17.8018   24.1094 C   0  0  2  0  0  0  0  0  0  0  0  0
    7.1744  -17.6020   24.9546 O   0  0  0  0  0  0  0  0  0  0  0  0
    8.1277  -18.5575   24.5032 C   0  0  2  0  0  0  0  0  0  0  0  0
    7.8639  -16.2671   24.7844 N   0  0  0  0  0  0  0  0  0  0  0  0
    8.1817  -16.2040   23.3387 C   0  0  0  0  0  0  0  0  0  0  0  0
    9.1512  -16.1828   25.5545 O   0  0  0  0  0  0  0  0  0  0  0  0
   10.1588  -16.6898   25.0333 C   0  0  0  0  0  0  0  0  0  0  0  0
    9.0686  -13.9233   29.2720 C   0  0  2  0  0  0  0  0  0  0  0  0
   10.3120  -14.1199   28.4180 O   0  0  0  0  0  0  0  0  0  0  0  0
   11.3958  -14.0783   29.3212 C   0  0  1  0  0  0  0  0  0  0  0  0
   10.2813  -15.4619   27.7376 N   0  0  0  0  0  0  0  0  0  0  0  0
    9.2107  -15.5603   26.8003 C   0  0  0  0  0  0  0  0  0  0  0  0
   10.5248  -16.5932   28.6315 O   0  0  0  0  0  0  0  0  0  0  0  0
   11.6958  -16.7870   29.3072 O   0  0  0  0  0  0  0  0  0  0  0  0
  1  2  1  0
  2  3  2  0
  4  2  1  0
  4  5  1  0
  5  6  1  0
  7  6  1  0
  8  7  1  0
  8  9  1  6
 10  8  1  0
 11 10  2  0
 13 12  1  1
 13 15  1  0
 14 13  1  0
 15 16  1  1
 16 10  1  0
 17 23  1  0
 17 15  1  0
 18 17  2  0
 20 19  1  6
 20 22  1  0
 21 20  1  0
 22 24  1  0
 22 23  1  6
 24 25  1  0
 26 24  2  0
M  END
$$$$
