RTT.pdb
     RDKit          3D

 26 25  0  0  1  0  0  0  0  0999 V2000
    8.9385  -11.8554   18.3189 N   0  0  0  0  0  0  0  0  0  0  0  0
    9.4909  -13.1929   18.1778 C   0  0  0  0  0  0  0  0  0  0  0  0
   10.6386  -13.4602   18.6599 N   0  0  0  0  0  0  0  0  0  0  0  0
    8.7734  -14.2040   17.5114 N   0  0  0  0  0  0  0  0  0  0  0  0
    9.2010  -15.5240   17.3087 C   0  0  0  0  0  0  0  0  0  0  0  0
    9.4073  -16.4357   18.4557 C   0  0  0  0  0  0  0  0  0  0  0  0
    8.2970  -16.3751   19.4857 C   0  0  0  0  0  0  0  0  0  0  0  0
    8.6192  -17.3733   20.5958 C   0  0  2  0  0  0  0  0  0  0  0  0
    8.4801  -18.7219   20.1277 N   0  0  0  0  0  0  0  0  0  0  0  0
    7.8433  -17.1077   21.8244 C   0  0  0  0  0  0  0  0  0  0  0  0
    6.6217  -17.4694   21.8483 O   0  0  0  0  0  0  0  0  0  0  0  0
   11.1216  -14.3382   18.5439 C   0  0  0  0  0  0  0  0  0  0  0  0
    7.1158  -18.8206   23.7732 C   0  0  2  0  0  0  0  0  0  0  0  0
    7.5450  -17.7900   24.7643 O   0  0  0  0  0  0  0  0  0  0  0  0
    8.8966  -18.0967   25.0881 C   0  0  2  0  0  0  0  0  0  0  0  0
    7.5918  -16.3729   24.2392 N   0  0  0  0  0  0  0  0  0  0  0  0
    8.3646  -16.4775   22.9795 C   0  0  0  0  0  0  0  0  0  0  0  0
    8.3216  -15.4409   25.1644 O   0  0  0  0  0  0  0  0  0  0  0  0
    9.5549  -15.3626   25.0346 C   0  0  0  0  0  0  0  0  0  0  0  0
    6.4083  -12.0460   26.2244 C   0  0  2  0  0  0  0  0  0  0  0  0
    7.0046  -12.7492   27.4342 O   0  0  0  0  0  0  0  0  0  0  0  0
    5.9456  -13.4982   27.9905 C   0  0  2  0  0  0  0  0  0  0  0  0
    8.1085  -13.6821   27.0148 N   0  0  0  0  0  0  0  0  0  0  0  0
    7.6417  -14.6954   26.1261 C   0  0  0  0  0  0  0  0  0  0  0  0
    9.0075  -14.0734   28.0996 O   0  0  0  0  0  0  0  0  0  0  0  0
    9.5972  -13.1851   28.9531 O   0  0  0  0  0  0  0  0  0  0  0  0
  1  2  1  0
  2  3  2  0
  4  2  1  0
  4  5  1  0
  5  6  1  0
  7  6  1  0
  8  7  1  0
  8  9  1  6
 10  8  1  0
 11 10  2  0
 13 12  1  1
 13 15  1  0
 14 13  1  0
 15 16  1  1
 16 10  1  0
 17 23  1  0
 17 15  1  0
 18 17  2  0
 20 19  1  1
 20 22  1  0
 21 20  1  0
 22 24  1  0
 22 23  1  1
 24 25  1  0
 26 24  2  0
M  END
$$$$
