ECY.pdb
     RDKit          3D

 28 28  0  0  1  0  0  0  0  0999 V2000
   10.1799  -15.2893   13.9405 N   0  0  0  0  0  0  0  0  0  0  0  0
    9.1316  -15.6242   14.9327 C   0  0  1  0  0  0  0  0  0  0  0  0
    8.9289  -17.1065   14.9637 C   0  0  0  0  0  0  0  0  0  0  0  0
   10.1135  -17.8206   15.4946 C   0  0  0  0  0  0  0  0  0  0  0  0
    9.9965  -19.2895   15.4685 C   0  0  0  0  0  0  0  0  0  0  0  0
   10.8128  -19.9927   14.8669 O   0  0  0  0  0  0  0  0  0  0  0  0
    9.6649  -15.1628   16.2549 C   0  0  0  0  0  0  0  0  0  0  0  0
   10.8901  -15.3193   16.5464 O   0  0  0  0  0  0  0  0  0  0  0  0
    8.9120  -19.8410   16.1613 O   0  0  0  0  0  0  0  0  0  0  0  0
    8.8588  -14.5372   17.2431 N   0  0  0  0  0  0  0  0  0  0  0  0
    9.4361  -14.1773   18.5221 C   0  0  1  0  0  0  0  0  0  0  0  0
    8.3830  -13.5827   19.4350 C   0  0  0  0  0  0  0  0  0  0  0  0
    7.6375  -12.1152   18.7037 S   0  0  0  0  0  0  0  0  0  0  0  0
    9.9938  -15.3567   19.2193 C   0  0  0  0  0  0  0  0  0  0  0  0
    9.6956  -16.4984   18.7967 O   0  0  0  0  0  0  0  0  0  0  0  0
   16.4477  -13.4009   18.6192 O   0  0  0  0  0  0  0  0  0  0  0  0
   15.4403  -14.2970   18.9395 C   0  0  0  0  0  0  0  0  0  0  0  0
   15.6175  -15.2271   19.9596 C   0  0  0  0  0  0  0  0  0  0  0  0
   14.6195  -16.1154   20.2774 C   0  0  0  0  0  0  0  0  0  0  0  0
   13.4107  -16.1303   19.6123 C   0  0  0  0  0  0  0  0  0  0  0  0
   12.3596  -17.1192   19.9992 C   0  0  0  0  0  0  0  0  0  0  0  0
   11.4566  -16.3982   20.9947 C   0  0  2  0  0  0  0  0  0  0  0  0
   10.8493  -15.2553   20.3420 N   0  0  0  0  0  0  0  0  0  0  0  0
   12.2288  -15.9420   22.1637 C   0  0  0  0  0  0  0  0  0  0  0  0
   12.3424  -14.7251   22.4614 O   0  0  0  0  0  0  0  0  0  0  0  0
   13.2252  -15.2149   18.6023 C   0  0  0  0  0  0  0  0  0  0  0  0
   14.2279  -14.3174   18.2779 C   0  0  0  0  0  0  0  0  0  0  0  0
   12.8642  -16.8655   22.9834 O   0  0  0  0  0  0  0  0  0  0  0  0
  2  1  1  6
  3  2  1  0
  3  4  1  0
  4  5  1  0
  5  9  1  0
  5  6  2  0
  7  2  1  0
  8  7  2  0
 10  7  1  0
 11 14  1  0
 11 10  1  0
 11 12  1  1
 13 12  1  0
 14 23  1  0
 15 14  2  0
 16 17  1  0
 17 18  2  0
 17 27  1  0
 18 19  1  0
 19 20  2  0
 20 21  1  0
 22 21  1  6
 22 24  1  0
 23 22  1  0
 24 25  2  0
 24 28  1  0
 26 20  1  0
 27 26  2  0
M  END
$$$$
