ECY.pdb
     RDKit          3D

 28 28  0  0  1  0  0  0  0  0999 V2000
    8.6543  -17.9998   16.9181 N   0  0  0  0  0  0  0  0  0  0  0  0
    9.0191  -18.5030   18.2632 C   0  0  1  0  0  0  0  0  0  0  0  0
   10.4089  -19.0567   18.2290 C   0  0  0  0  0  0  0  0  0  0  0  0
   10.8752  -19.3087   16.8454 C   0  0  0  0  0  0  0  0  0  0  0  0
   12.2277  -19.8877   16.7588 C   0  0  0  0  0  0  0  0  0  0  0  0
   12.4091  -21.1082   16.7456 O   0  0  0  0  0  0  0  0  0  0  0  0
    8.9770  -17.3081   19.1664 C   0  0  0  0  0  0  0  0  0  0  0  0
    9.9111  -16.4494   19.1442 O   0  0  0  0  0  0  0  0  0  0  0  0
   13.2915  -18.9798   16.6925 O   0  0  0  0  0  0  0  0  0  0  0  0
    7.9193  -17.0623   20.0822 N   0  0  0  0  0  0  0  0  0  0  0  0
    8.0168  -15.9598   21.0168 C   0  0  1  0  0  0  0  0  0  0  0  0
    6.6492  -15.3655   21.2862 C   0  0  0  0  0  0  0  0  0  0  0  0
    6.7470  -14.0105   22.4688 S   0  0  0  0  0  0  0  0  0  0  0  0
    8.5603  -16.3976   22.3211 C   0  0  0  0  0  0  0  0  0  0  0  0
    8.1085  -17.4472   22.8360 O   0  0  0  0  0  0  0  0  0  0  0  0
   10.8494  -14.7106   30.5759 O   0  0  0  0  0  0  0  0  0  0  0  0
   10.5467  -14.6384   29.2255 C   0  0  0  0  0  0  0  0  0  0  0  0
    9.4431  -13.9143   28.7846 C   0  0  0  0  0  0  0  0  0  0  0  0
    9.1427  -13.8425   27.4464 C   0  0  0  0  0  0  0  0  0  0  0  0
    9.9075  -14.4743   26.4874 C   0  0  0  0  0  0  0  0  0  0  0  0
    9.5345  -14.3631   25.0448 C   0  0  0  0  0  0  0  0  0  0  0  0
    9.7532  -15.7506   24.4506 C   0  0  2  0  0  0  0  0  0  0  0  0
    9.5678  -15.6857   23.0145 N   0  0  0  0  0  0  0  0  0  0  0  0
    8.8026  -16.7193   25.0242 C   0  0  0  0  0  0  0  0  0  0  0  0
    9.1799  -17.7252   25.6786 O   0  0  0  0  0  0  0  0  0  0  0  0
   11.0008  -15.1927   26.9126 C   0  0  0  0  0  0  0  0  0  0  0  0
   11.3080  -15.2684   28.2603 C   0  0  0  0  0  0  0  0  0  0  0  0
    7.4361  -16.5409   24.8523 O   0  0  0  0  0  0  0  0  0  0  0  0
  2  1  1  6
  3  2  1  0
  3  4  1  0
  4  5  1  0
  5  9  1  0
  5  6  2  0
  7  2  1  0
  8  7  2  0
 10  7  1  0
 11 14  1  0
 11 10  1  0
 11 12  1  1
 13 12  1  0
 14 23  1  0
 15 14  2  0
 16 17  1  0
 17 18  2  0
 17 27  1  0
 18 19  1  0
 19 20  2  0
 20 21  1  0
 22 21  1  1
 22 24  1  0
 23 22  1  0
 24 25  2  0
 24 28  1  0
 26 20  1  0
 27 26  2  0
M  END
$$$$
