ECY.pdb
     RDKit          3D

 28 28  0  0  1  0  0  0  0  0999 V2000
    8.5280  -16.3842   19.4606 N   0  0  0  0  0  0  0  0  0  0  0  0
    9.5823  -16.5094   20.4943 C   0  0  1  0  0  0  0  0  0  0  0  0
   10.4859  -15.3183   20.4325 C   0  0  0  0  0  0  0  0  0  0  0  0
   11.5412  -15.4713   19.4038 C   0  0  0  0  0  0  0  0  0  0  0  0
   12.4243  -14.2997   19.2641 C   0  0  0  0  0  0  0  0  0  0  0  0
   13.0501  -13.8433   20.2248 O   0  0  0  0  0  0  0  0  0  0  0  0
    8.8604  -16.5242   21.8074 C   0  0  0  0  0  0  0  0  0  0  0  0
    7.8078  -15.8348   21.9727 O   0  0  0  0  0  0  0  0  0  0  0  0
   12.5138  -13.7353   17.9860 O   0  0  0  0  0  0  0  0  0  0  0  0
    9.2926  -17.2887   22.9239 N   0  0  0  0  0  0  0  0  0  0  0  0
    8.5363  -17.2518   24.1589 C   0  0  1  0  0  0  0  0  0  0  0  0
    8.0400  -18.6364   24.5227 C   0  0  0  0  0  0  0  0  0  0  0  0
    7.0740  -18.6059   26.0426 S   0  0  0  0  0  0  0  0  0  0  0  0
    9.3636  -16.7799   25.2906 C   0  0  0  0  0  0  0  0  0  0  0  0
   10.5955  -17.0104   25.2686 O   0  0  0  0  0  0  0  0  0  0  0  0
    6.5989  -10.8139   24.8404 O   0  0  0  0  0  0  0  0  0  0  0  0
    7.1086  -11.7695   25.7050 C   0  0  0  0  0  0  0  0  0  0  0  0
    8.4393  -11.7209   26.1097 C   0  0  0  0  0  0  0  0  0  0  0  0
    8.9449  -12.6677   26.9665 C   0  0  0  0  0  0  0  0  0  0  0  0
    8.1718  -13.6980   27.4610 C   0  0  0  0  0  0  0  0  0  0  0  0
    8.7736  -14.7014   28.3902 C   0  0  0  0  0  0  0  0  0  0  0  0
    9.6245  -15.6184   27.5176 C   0  0  2  0  0  0  0  0  0  0  0  0
    8.8282  -16.0795   26.3976 N   0  0  0  0  0  0  0  0  0  0  0  0
   10.1015  -16.7786   28.2905 C   0  0  0  0  0  0  0  0  0  0  0  0
   10.8285  -16.6550   29.3095 O   0  0  0  0  0  0  0  0  0  0  0  0
    6.8549  -13.7553   27.0672 C   0  0  0  0  0  0  0  0  0  0  0  0
    6.3403  -12.8035   26.2038 C   0  0  0  0  0  0  0  0  0  0  0  0
    9.7518  -18.0657   27.9036 O   0  0  0  0  0  0  0  0  0  0  0  0
  2  1  1  6
  3  2  1  0
  3  4  1  0
  4  5  1  0
  5  9  1  0
  5  6  2  0
  7  2  1  0
  8  7  2  0
 10  7  1  0
 11 14  1  0
 11 10  1  0
 11 12  1  1
 13 12  1  0
 14 23  1  0
 15 14  2  0
 16 17  1  0
 17 18  2  0
 17 27  1  0
 18 19  1  0
 19 20  2  0
 20 21  1  0
 22 21  1  1
 22 24  1  0
 23 22  1  0
 24 25  2  0
 24 28  1  0
 26 20  1  0
 27 26  2  0
M  END
$$$$
