ECY.pdb
     RDKit          3D

 28 28  0  0  1  0  0  0  0  0999 V2000
    6.2982  -15.8343   20.2238 N   0  0  0  0  0  0  0  0  0  0  0  0
    6.8160  -16.2678   21.5428 C   0  0  1  0  0  0  0  0  0  0  0  0
    7.9164  -17.2624   21.3446 C   0  0  0  0  0  0  0  0  0  0  0  0
    7.7088  -18.0903   20.1335 C   0  0  0  0  0  0  0  0  0  0  0  0
    8.7637  -19.0920   19.8972 C   0  0  0  0  0  0  0  0  0  0  0  0
    9.7570  -19.1691   20.6253 O   0  0  0  0  0  0  0  0  0  0  0  0
    7.3667  -15.0318   22.1864 C   0  0  0  0  0  0  0  0  0  0  0  0
    8.4709  -14.5402   21.7996 O   0  0  0  0  0  0  0  0  0  0  0  0
    8.5773  -19.9479   18.8051 O   0  0  0  0  0  0  0  0  0  0  0  0
    6.7092  -14.3461   23.2426 N   0  0  0  0  0  0  0  0  0  0  0  0
    7.3184  -13.1688   23.8268 C   0  0  1  0  0  0  0  0  0  0  0  0
    6.2608  -12.2538   24.4100 C   0  0  0  0  0  0  0  0  0  0  0  0
    5.4358  -13.0209   25.8154 S   0  0  0  0  0  0  0  0  0  0  0  0
    8.2381  -13.5218   24.9303 C   0  0  0  0  0  0  0  0  0  0  0  0
    8.1073  -12.9344   26.0298 O   0  0  0  0  0  0  0  0  0  0  0  0
   12.3824  -16.9889   31.3873 O   0  0  0  0  0  0  0  0  0  0  0  0
   11.5734  -16.6504   30.3143 C   0  0  0  0  0  0  0  0  0  0  0  0
   11.3741  -15.3167   29.9705 C   0  0  0  0  0  0  0  0  0  0  0  0
   10.5724  -14.9807   28.9071 C   0  0  0  0  0  0  0  0  0  0  0  0
    9.9347  -15.9330   28.1387 C   0  0  0  0  0  0  0  0  0  0  0  0
    9.0734  -15.5112   26.9931 C   0  0  0  0  0  0  0  0  0  0  0  0
   10.0295  -15.0012   25.9197 C   0  0  2  0  0  0  0  0  0  0  0  0
    9.2592  -14.4931   24.8018 N   0  0  0  0  0  0  0  0  0  0  0  0
   10.9150  -16.0827   25.4536 C   0  0  0  0  0  0  0  0  0  0  0  0
   12.0909  -16.2194   25.8787 O   0  0  0  0  0  0  0  0  0  0  0  0
   10.1253  -17.2545   28.4701 C   0  0  0  0  0  0  0  0  0  0  0  0
   10.9322  -17.5985   29.5409 C   0  0  0  0  0  0  0  0  0  0  0  0
   10.4622  -16.9979   24.5123 O   0  0  0  0  0  0  0  0  0  0  0  0
  2  1  1  6
  3  2  1  0
  3  4  1  0
  4  5  1  0
  5  9  1  0
  5  6  2  0
  7  2  1  0
  8  7  2  0
 10  7  1  0
 11 14  1  0
 11 10  1  0
 11 12  1  1
 13 12  1  0
 14 23  1  0
 15 14  2  0
 16 17  1  0
 17 18  2  0
 17 27  1  0
 18 19  1  0
 19 20  2  0
 20 21  1  0
 22 21  1  1
 22 24  1  0
 23 22  1  0
 24 25  2  0
 24 28  1  0
 26 20  1  0
 27 26  2  0
M  END
$$$$
