ECY.pdb
     RDKit          3D

 28 28  0  0  1  0  0  0  0  0999 V2000
   10.0486  -18.5565   19.6015 N   0  0  0  0  0  0  0  0  0  0  0  0
   11.2536  -18.1031   20.3350 C   0  0  1  0  0  0  0  0  0  0  0  0
   12.3266  -17.7413   19.3567 C   0  0  0  0  0  0  0  0  0  0  0  0
   12.0192  -18.2204   17.9888 C   0  0  0  0  0  0  0  0  0  0  0  0
   13.0803  -17.9535   17.0015 C   0  0  0  0  0  0  0  0  0  0  0  0
   13.1225  -16.8956   16.3675 O   0  0  0  0  0  0  0  0  0  0  0  0
   10.8302  -16.8803   21.0905 C   0  0  0  0  0  0  0  0  0  0  0  0
   11.6855  -16.1753   21.7084 O   0  0  0  0  0  0  0  0  0  0  0  0
   14.0342  -18.9627   16.8232 O   0  0  0  0  0  0  0  0  0  0  0  0
    9.4816  -16.4399   21.1643 N   0  0  0  0  0  0  0  0  0  0  0  0
    9.1007  -15.4464   22.1473 C   0  0  1  0  0  0  0  0  0  0  0  0
    7.6890  -14.9579   21.8936 C   0  0  0  0  0  0  0  0  0  0  0  0
    7.5111  -14.3137   20.2211 S   0  0  0  0  0  0  0  0  0  0  0  0
    9.1247  -15.9998   23.5189 C   0  0  0  0  0  0  0  0  0  0  0  0
    8.7259  -17.1745   23.6975 O   0  0  0  0  0  0  0  0  0  0  0  0
    5.9901  -10.4801   26.4987 O   0  0  0  0  0  0  0  0  0  0  0  0
    6.4408  -11.7894   26.4432 C   0  0  0  0  0  0  0  0  0  0  0  0
    7.6914  -12.1302   26.9497 C   0  0  0  0  0  0  0  0  0  0  0  0
    8.1385  -13.4276   26.8949 C   0  0  0  0  0  0  0  0  0  0  0  0
    7.3826  -14.4419   26.3439 C   0  0  0  0  0  0  0  0  0  0  0  0
    7.9185  -15.8362   26.3100 C   0  0  0  0  0  0  0  0  0  0  0  0
    9.4079  -15.7021   26.0105 C   0  0  2  0  0  0  0  0  0  0  0  0
    9.5779  -15.2636   24.6394 N   0  0  0  0  0  0  0  0  0  0  0  0
   10.0964  -16.9907   26.2019 C   0  0  0  0  0  0  0  0  0  0  0  0
   10.0876  -17.6012   27.3016 O   0  0  0  0  0  0  0  0  0  0  0  0
    6.1447  -14.1157   25.8404 C   0  0  0  0  0  0  0  0  0  0  0  0
    5.6893  -12.8096   25.8931 C   0  0  0  0  0  0  0  0  0  0  0  0
   10.7872  -17.5755   25.1486 O   0  0  0  0  0  0  0  0  0  0  0  0
  2  1  1  6
  3  2  1  0
  3  4  1  0
  4  5  1  0
  5  9  1  0
  5  6  2  0
  7  2  1  0
  8  7  2  0
 10  7  1  0
 11 14  1  0
 11 10  1  0
 11 12  1  6
 13 12  1  0
 14 23  1  0
 15 14  2  0
 16 17  1  0
 17 18  2  0
 17 27  1  0
 18 19  1  0
 19 20  2  0
 20 21  1  0
 22 21  1  6
 22 24  1  0
 23 22  1  0
 24 25  2  0
 24 28  1  0
 26 20  1  0
 27 26  2  0
M  END
$$$$
