ECY.pdb
     RDKit          3D

 28 28  0  0  1  0  0  0  0  0999 V2000
    6.6431  -20.5900   22.4033 N   0  0  0  0  0  0  0  0  0  0  0  0
    6.8505  -19.5224   23.4098 C   0  0  1  0  0  0  0  0  0  0  0  0
    7.7527  -20.0256   24.4924 C   0  0  0  0  0  0  0  0  0  0  0  0
    7.0387  -20.1961   25.7794 C   0  0  0  0  0  0  0  0  0  0  0  0
    7.7100  -21.1020   26.7284 C   0  0  0  0  0  0  0  0  0  0  0  0
    8.7627  -21.6772   26.4389 O   0  0  0  0  0  0  0  0  0  0  0  0
    7.5227  -18.4017   22.6767 C   0  0  0  0  0  0  0  0  0  0  0  0
    8.4885  -18.6348   21.8872 O   0  0  0  0  0  0  0  0  0  0  0  0
    7.0898  -21.2733   27.9718 O   0  0  0  0  0  0  0  0  0  0  0  0
    7.1358  -17.0415   22.8117 N   0  0  0  0  0  0  0  0  0  0  0  0
    8.0500  -15.9896   22.4165 C   0  0  1  0  0  0  0  0  0  0  0  0
    7.2872  -14.7549   21.9809 C   0  0  0  0  0  0  0  0  0  0  0  0
    6.0173  -14.3146   23.1799 S   0  0  0  0  0  0  0  0  0  0  0  0
    8.9271  -15.5811   23.5354 C   0  0  0  0  0  0  0  0  0  0  0  0
    9.7710  -14.6763   23.3349 O   0  0  0  0  0  0  0  0  0  0  0  0
    6.2568  -10.6323   25.9309 O   0  0  0  0  0  0  0  0  0  0  0  0
    6.8950  -11.8268   26.2244 C   0  0  0  0  0  0  0  0  0  0  0  0
    8.2469  -11.8452   26.5546 C   0  0  0  0  0  0  0  0  0  0  0  0
    8.8798  -13.0288   26.8455 C   0  0  0  0  0  0  0  0  0  0  0  0
    8.2182  -14.2395   26.8254 C   0  0  0  0  0  0  0  0  0  0  0  0
    8.9563  -15.4973   27.1500 C   0  0  0  0  0  0  0  0  0  0  0  0
    9.7660  -15.8379   25.9032 C   0  0  2  0  0  0  0  0  0  0  0  0
    8.8570  -16.1649   24.8226 N   0  0  0  0  0  0  0  0  0  0  0  0
   10.6577  -16.9831   26.1572 C   0  0  0  0  0  0  0  0  0  0  0  0
   11.5685  -16.9470   27.0240 O   0  0  0  0  0  0  0  0  0  0  0  0
    6.8815  -14.2324   26.5003 C   0  0  0  0  0  0  0  0  0  0  0  0
    6.2388  -13.0422   26.2062 C   0  0  0  0  0  0  0  0  0  0  0  0
   10.5104  -18.1565   25.4292 O   0  0  0  0  0  0  0  0  0  0  0  0
  2  1  1  6
  3  2  1  0
  3  4  1  0
  4  5  1  0
  5  9  1  0
  5  6  2  0
  7  2  1  0
  8  7  2  0
 10  7  1  0
 11 14  1  0
 11 10  1  0
 11 12  1  1
 13 12  1  0
 14 23  1  0
 15 14  2  0
 16 17  1  0
 17 18  2  0
 17 27  1  0
 18 19  1  0
 19 20  2  0
 20 21  1  0
 22 21  1  1
 22 24  1  0
 23 22  1  0
 24 25  2  0
 24 28  1  0
 26 20  1  0
 27 26  2  0
M  END
$$$$
