ECY.pdb
     RDKit          3D

 28 28  0  0  1  0  0  0  0  0999 V2000
   10.0329  -19.1457   18.7922 N   0  0  0  0  0  0  0  0  0  0  0  0
   11.0266  -18.1971   19.3475 C   0  0  1  0  0  0  0  0  0  0  0  0
   12.0003  -17.8117   18.2786 C   0  0  0  0  0  0  0  0  0  0  0  0
   11.5903  -18.3093   16.9446 C   0  0  0  0  0  0  0  0  0  0  0  0
   11.7213  -17.3175   15.8623 C   0  0  0  0  0  0  0  0  0  0  0  0
   10.9667  -16.3444   15.7822 O   0  0  0  0  0  0  0  0  0  0  0  0
   10.2423  -16.9923   19.7701 C   0  0  0  0  0  0  0  0  0  0  0  0
   10.7835  -15.8446   19.7898 O   0  0  0  0  0  0  0  0  0  0  0  0
   12.7452  -17.5396   14.9337 O   0  0  0  0  0  0  0  0  0  0  0  0
    8.8792  -17.0511   20.1657 N   0  0  0  0  0  0  0  0  0  0  0  0
    8.3404  -16.0363   21.0480 C   0  0  1  0  0  0  0  0  0  0  0  0
    6.8302  -15.9804   20.9381 C   0  0  0  0  0  0  0  0  0  0  0  0
    6.1357  -14.7771   22.0844 S   0  0  0  0  0  0  0  0  0  0  0  0
    8.6587  -16.3208   22.4643 C   0  0  0  0  0  0  0  0  0  0  0  0
    8.5271  -17.4947   22.8833 O   0  0  0  0  0  0  0  0  0  0  0  0
   10.2965  -15.1177   31.0027 O   0  0  0  0  0  0  0  0  0  0  0  0
   10.0575  -14.9028   29.6546 C   0  0  0  0  0  0  0  0  0  0  0  0
    9.4715  -13.7181   29.2191 C   0  0  0  0  0  0  0  0  0  0  0  0
    9.2344  -13.5047   27.8833 C   0  0  0  0  0  0  0  0  0  0  0  0
    9.5600  -14.4390   26.9214 C   0  0  0  0  0  0  0  0  0  0  0  0
    9.2793  -14.1549   25.4817 C   0  0  0  0  0  0  0  0  0  0  0  0
    9.1615  -15.5164   24.8045 C   0  0  2  0  0  0  0  0  0  0  0  0
    9.1055  -15.3280   23.3683 N   0  0  0  0  0  0  0  0  0  0  0  0
    7.9470  -16.2191   25.2543 C   0  0  0  0  0  0  0  0  0  0  0  0
    6.7909  -15.8169   24.9646 O   0  0  0  0  0  0  0  0  0  0  0  0
   10.1399  -15.6136   27.3414 C   0  0  0  0  0  0  0  0  0  0  0  0
   10.3809  -15.8337   28.6866 C   0  0  0  0  0  0  0  0  0  0  0  0
    8.0521  -17.3686   26.0264 O   0  0  0  0  0  0  0  0  0  0  0  0
  2  1  1  6
  3  2  1  0
  3  4  1  0
  4  5  1  0
  5  9  1  0
  5  6  2  0
  7  2  1  0
  8  7  2  0
 10  7  1  0
 11 14  1  0
 11 10  1  0
 11 12  1  1
 13 12  1  0
 14 23  1  0
 15 14  2  0
 16 17  1  0
 17 18  2  0
 17 27  1  0
 18 19  1  0
 19 20  2  0
 20 21  1  0
 22 21  1  1
 22 24  1  0
 23 22  1  0
 24 25  2  0
 24 28  1  0
 26 20  1  0
 27 26  2  0
M  END
$$$$
