ECY.pdb
     RDKit          3D

 28 28  0  0  1  0  0  0  0  0999 V2000
    9.1706  -20.7333   17.3201 N   0  0  0  0  0  0  0  0  0  0  0  0
   10.1907  -20.1503   18.2230 C   0  0  1  0  0  0  0  0  0  0  0  0
   11.0319  -19.1746   17.4617 C   0  0  0  0  0  0  0  0  0  0  0  0
   10.2144  -18.2763   16.6132 C   0  0  0  0  0  0  0  0  0  0  0  0
   10.9874  -17.2318   15.9178 C   0  0  0  0  0  0  0  0  0  0  0  0
   12.2211  -17.2164   15.9417 O   0  0  0  0  0  0  0  0  0  0  0  0
    9.4222  -19.4274   19.2870 C   0  0  0  0  0  0  0  0  0  0  0  0
    8.2117  -19.0973   19.0970 O   0  0  0  0  0  0  0  0  0  0  0  0
   10.2475  -16.2616   15.2312 O   0  0  0  0  0  0  0  0  0  0  0  0
    9.9802  -19.0727   20.5443 N   0  0  0  0  0  0  0  0  0  0  0  0
    9.1186  -18.5946   21.6061 C   0  0  1  0  0  0  0  0  0  0  0  0
    8.9986  -19.6317   22.7043 C   0  0  0  0  0  0  0  0  0  0  0  0
   10.6184  -20.1154   23.3260 S   0  0  0  0  0  0  0  0  0  0  0  0
    9.6547  -17.3658   22.2312 C   0  0  0  0  0  0  0  0  0  0  0  0
   10.8969  -17.2005   22.2574 O   0  0  0  0  0  0  0  0  0  0  0  0
    6.8452  -13.3595   17.8539 O   0  0  0  0  0  0  0  0  0  0  0  0
    7.1991  -13.5235   19.1836 C   0  0  0  0  0  0  0  0  0  0  0  0
    6.3913  -14.2584   20.0463 C   0  0  0  0  0  0  0  0  0  0  0  0
    6.7416  -14.4212   21.3642 C   0  0  0  0  0  0  0  0  0  0  0  0
    7.8933  -13.8732   21.8908 C   0  0  0  0  0  0  0  0  0  0  0  0
    8.2257  -14.0815   23.3325 C   0  0  0  0  0  0  0  0  0  0  0  0
    9.3351  -15.1279   23.3565 C   0  0  2  0  0  0  0  0  0  0  0  0
    8.8292  -16.3676   22.8010 N   0  0  0  0  0  0  0  0  0  0  0  0
    9.8011  -15.3624   24.7344 C   0  0  0  0  0  0  0  0  0  0  0  0
    9.4302  -16.3566   25.4099 O   0  0  0  0  0  0  0  0  0  0  0  0
    8.6990  -13.1450   21.0465 C   0  0  0  0  0  0  0  0  0  0  0  0
    8.3505  -12.9778   19.7172 C   0  0  0  0  0  0  0  0  0  0  0  0
   10.6811  -14.4711   25.3342 O   0  0  0  0  0  0  0  0  0  0  0  0
  2  1  1  6
  3  2  1  0
  3  4  1  0
  4  5  1  0
  5  9  1  0
  5  6  2  0
  7  2  1  0
  8  7  2  0
 10  7  1  0
 11 14  1  0
 11 10  1  0
 11 12  1  1
 13 12  1  0
 14 23  1  0
 15 14  2  0
 16 17  1  0
 17 18  2  0
 17 27  1  0
 18 19  1  0
 19 20  2  0
 20 21  1  0
 22 21  1  1
 22 24  1  0
 23 22  1  0
 24 25  2  0
 24 28  1  0
 26 20  1  0
 27 26  2  0
M  END
$$$$
