ECY.pdb
     RDKit          3D

 28 28  0  0  1  0  0  0  0  0999 V2000
    8.9436  -19.1022   18.8783 N   0  0  0  0  0  0  0  0  0  0  0  0
   10.1960  -18.3116   18.9242 C   0  0  1  0  0  0  0  0  0  0  0  0
   10.5946  -17.9269   17.5341 C   0  0  0  0  0  0  0  0  0  0  0  0
   11.8716  -17.1759   17.5075 C   0  0  0  0  0  0  0  0  0  0  0  0
   12.8886  -17.7435   16.6044 C   0  0  0  0  0  0  0  0  0  0  0  0
   13.6630  -18.6288   16.9777 O   0  0  0  0  0  0  0  0  0  0  0  0
    9.8670  -17.0796   19.7111 C   0  0  0  0  0  0  0  0  0  0  0  0
   10.7794  -16.2605   20.0387 O   0  0  0  0  0  0  0  0  0  0  0  0
   12.9275  -17.2247   15.3046 O   0  0  0  0  0  0  0  0  0  0  0  0
    8.5498  -16.7540   20.1316 N   0  0  0  0  0  0  0  0  0  0  0  0
    8.3377  -15.6549   21.0511 C   0  0  1  0  0  0  0  0  0  0  0  0
    6.9044  -15.1687   20.9807 C   0  0  0  0  0  0  0  0  0  0  0  0
    5.7755  -16.3503   21.7381 S   0  0  0  0  0  0  0  0  0  0  0  0
    8.5863  -16.0606   22.4517 C   0  0  0  0  0  0  0  0  0  0  0  0
    8.6025  -17.2834   22.7269 O   0  0  0  0  0  0  0  0  0  0  0  0
   10.6653  -15.9880   30.9459 O   0  0  0  0  0  0  0  0  0  0  0  0
   10.3219  -15.5838   29.6657 C   0  0  0  0  0  0  0  0  0  0  0  0
    9.6129  -14.4037   29.4617 C   0  0  0  0  0  0  0  0  0  0  0  0
    9.2722  -14.0027   28.1931 C   0  0  0  0  0  0  0  0  0  0  0  0
    9.6103  -14.7375   27.0752 C   0  0  0  0  0  0  0  0  0  0  0  0
    9.2137  -14.2544   25.7182 C   0  0  0  0  0  0  0  0  0  0  0  0
    8.9649  -15.5085   24.8866 C   0  0  2  0  0  0  0  0  0  0  0  0
    8.8071  -15.1313   23.4959 N   0  0  0  0  0  0  0  0  0  0  0  0
    7.7513  -16.2066   25.3458 C   0  0  0  0  0  0  0  0  0  0  0  0
    6.5946  -15.7947   25.0729 O   0  0  0  0  0  0  0  0  0  0  0  0
   10.3114  -15.9057   27.2658 C   0  0  0  0  0  0  0  0  0  0  0  0
   10.6571  -16.3144   28.5424 C   0  0  0  0  0  0  0  0  0  0  0  0
    7.8580  -17.3623   26.1084 O   0  0  0  0  0  0  0  0  0  0  0  0
  2  1  1  6
  3  2  1  0
  3  4  1  0
  4  5  1  0
  5  9  1  0
  5  6  2  0
  7  2  1  0
  8  7  2  0
 10  7  1  0
 11 14  1  0
 11 10  1  0
 11 12  1  1
 13 12  1  0
 14 23  1  0
 15 14  2  0
 16 17  1  0
 17 18  2  0
 17 27  1  0
 18 19  1  0
 19 20  2  0
 20 21  1  0
 22 21  1  1
 22 24  1  0
 23 22  1  0
 24 25  2  0
 24 28  1  0
 26 20  1  0
 27 26  2  0
M  END
$$$$
