ECY.pdb
     RDKit          3D

 28 28  0  0  1  0  0  0  0  0999 V2000
    6.8561  -18.9636   20.3863 N   0  0  0  0  0  0  0  0  0  0  0  0
    8.0889  -18.4307   21.0124 C   0  0  1  0  0  0  0  0  0  0  0  0
    8.6892  -17.3873   20.1235 C   0  0  0  0  0  0  0  0  0  0  0  0
    7.6569  -16.5412   19.4803 C   0  0  0  0  0  0  0  0  0  0  0  0
    8.1887  -15.5786   18.4992 C   0  0  0  0  0  0  0  0  0  0  0  0
    7.6483  -14.4860   18.3068 O   0  0  0  0  0  0  0  0  0  0  0  0
    7.6486  -17.8012   22.2989 C   0  0  0  0  0  0  0  0  0  0  0  0
    6.7355  -16.9198   22.3066 O   0  0  0  0  0  0  0  0  0  0  0  0
    9.3366  -15.9707   17.8001 O   0  0  0  0  0  0  0  0  0  0  0  0
    8.2069  -18.1384   23.5608 N   0  0  0  0  0  0  0  0  0  0  0  0
    7.7131  -17.4968   24.7621 C   0  0  1  0  0  0  0  0  0  0  0  0
    6.9023  -18.4706   25.5929 C   0  0  0  0  0  0  0  0  0  0  0  0
    7.8917  -19.8940   26.0818 S   0  0  0  0  0  0  0  0  0  0  0  0
    8.8201  -17.0181   25.6185 C   0  0  0  0  0  0  0  0  0  0  0  0
    9.9687  -17.4821   25.4272 O   0  0  0  0  0  0  0  0  0  0  0  0
    6.0578  -11.3842   24.5338 O   0  0  0  0  0  0  0  0  0  0  0  0
    6.8125  -12.1068   25.4442 C   0  0  0  0  0  0  0  0  0  0  0  0
    8.2010  -12.1295   25.3535 C   0  0  0  0  0  0  0  0  0  0  0  0
    8.9493  -12.8455   26.2555 C   0  0  0  0  0  0  0  0  0  0  0  0
    8.3716  -13.5666   27.2803 C   0  0  0  0  0  0  0  0  0  0  0  0
    9.2338  -14.3284   28.2334 C   0  0  0  0  0  0  0  0  0  0  0  0
    9.7235  -15.5513   27.4648 C   0  0  2  0  0  0  0  0  0  0  0  0
    8.6421  -16.0596   26.6442 N   0  0  0  0  0  0  0  0  0  0  0  0
   10.1719  -16.6049   28.3922 C   0  0  0  0  0  0  0  0  0  0  0  0
   11.1408  -16.4418   29.1777 O   0  0  0  0  0  0  0  0  0  0  0  0
    6.9996  -13.5507   27.3789 C   0  0  0  0  0  0  0  0  0  0  0  0
    6.2406  -12.8307   26.4723 C   0  0  0  0  0  0  0  0  0  0  0  0
    9.5208  -17.8311   28.4219 O   0  0  0  0  0  0  0  0  0  0  0  0
  2  1  1  6
  3  2  1  0
  3  4  1  0
  4  5  1  0
  5  9  1  0
  5  6  2  0
  7  2  1  0
  8  7  2  0
 10  7  1  0
 11 14  1  0
 11 10  1  0
 11 12  1  1
 13 12  1  0
 14 23  1  0
 15 14  2  0
 16 17  1  0
 17 18  2  0
 17 27  1  0
 18 19  1  0
 19 20  2  0
 20 21  1  0
 22 21  1  1
 22 24  1  0
 23 22  1  0
 24 25  2  0
 24 28  1  0
 26 20  1  0
 27 26  2  0
M  END
$$$$
