ECY.pdb
     RDKit          3D

 28 28  0  0  1  0  0  0  0  0999 V2000
    6.1250  -18.6884   19.2123 N   0  0  0  0  0  0  0  0  0  0  0  0
    6.4874  -18.4212   20.6241 C   0  0  1  0  0  0  0  0  0  0  0  0
    6.8821  -19.7023   21.2891 C   0  0  0  0  0  0  0  0  0  0  0  0
    7.8724  -20.4630   20.4915 C   0  0  0  0  0  0  0  0  0  0  0  0
    8.2642  -21.7539   21.0850 C   0  0  0  0  0  0  0  0  0  0  0  0
    9.1224  -22.4713   20.5639 O   0  0  0  0  0  0  0  0  0  0  0  0
    7.6675  -17.4993   20.5703 C   0  0  0  0  0  0  0  0  0  0  0  0
    8.8216  -17.9445   20.2872 O   0  0  0  0  0  0  0  0  0  0  0  0
    7.6113  -22.1198   22.2682 O   0  0  0  0  0  0  0  0  0  0  0  0
    7.5771  -16.1048   20.8253 N   0  0  0  0  0  0  0  0  0  0  0  0
    8.7672  -15.2814   20.7593 C   0  0  1  0  0  0  0  0  0  0  0  0
    8.3986  -13.8123   20.7179 C   0  0  0  0  0  0  0  0  0  0  0  0
    7.2523  -13.4639   19.3730 S   0  0  0  0  0  0  0  0  0  0  0  0
    9.6303  -15.4754   21.9448 C   0  0  0  0  0  0  0  0  0  0  0  0
    9.2465  -15.0165   23.0463 O   0  0  0  0  0  0  0  0  0  0  0  0
    7.2133  -18.3991   26.8092 O   0  0  0  0  0  0  0  0  0  0  0  0
    8.3382  -18.2307   26.0175 C   0  0  0  0  0  0  0  0  0  0  0  0
    8.2937  -18.5099   24.6549 C   0  0  0  0  0  0  0  0  0  0  0  0
    9.4082  -18.3433   23.8699 C   0  0  0  0  0  0  0  0  0  0  0  0
   10.6086  -17.8979   24.3842 C   0  0  0  0  0  0  0  0  0  0  0  0
   11.7901  -17.7349   23.4843 C   0  0  0  0  0  0  0  0  0  0  0  0
   11.7658  -16.2805   23.0255 C   0  0  2  0  0  0  0  0  0  0  0  0
   10.8700  -16.1559   21.8928 N   0  0  0  0  0  0  0  0  0  0  0  0
   13.1147  -15.8343   22.6350 C   0  0  0  0  0  0  0  0  0  0  0  0
   13.4148  -15.5630   21.4440 O   0  0  0  0  0  0  0  0  0  0  0  0
   10.6633  -17.6188   25.7302 C   0  0  0  0  0  0  0  0  0  0  0  0
    9.5428  -17.7852   26.5259 C   0  0  0  0  0  0  0  0  0  0  0  0
   14.1096  -15.6995   23.5945 O   0  0  0  0  0  0  0  0  0  0  0  0
  2  1  1  6
  3  2  1  0
  3  4  1  0
  4  5  1  0
  5  9  1  0
  5  6  2  0
  7  2  1  0
  8  7  2  0
 10  7  1  0
 11 14  1  0
 11 10  1  0
 11 12  1  1
 13 12  1  0
 14 23  1  0
 15 14  2  0
 16 17  1  0
 17 18  2  0
 17 27  1  0
 18 19  1  0
 19 20  2  0
 20 21  1  0
 22 21  1  6
 22 24  1  0
 23 22  1  0
 24 25  2  0
 24 28  1  0
 26 20  1  0
 27 26  2  0
M  END
$$$$
