ECY.pdb
     RDKit          3D

 28 28  0  0  1  0  0  0  0  0999 V2000
    8.3537  -19.8375   18.9411 N   0  0  0  0  0  0  0  0  0  0  0  0
    9.8258  -19.7572   19.0903 C   0  0  1  0  0  0  0  0  0  0  0  0
   10.3112  -18.4477   18.5529 C   0  0  0  0  0  0  0  0  0  0  0  0
    9.6625  -17.2954   19.2212 C   0  0  0  0  0  0  0  0  0  0  0  0
    9.9648  -15.9906   18.6062 C   0  0  0  0  0  0  0  0  0  0  0  0
   10.6336  -15.9021   17.5730 O   0  0  0  0  0  0  0  0  0  0  0  0
   10.0862  -19.8223   20.5645 C   0  0  0  0  0  0  0  0  0  0  0  0
    9.1483  -19.6192   21.3949 O   0  0  0  0  0  0  0  0  0  0  0  0
    9.4532  -14.8613   19.2567 O   0  0  0  0  0  0  0  0  0  0  0  0
   11.3635  -20.1076   21.1167 N   0  0  0  0  0  0  0  0  0  0  0  0
   11.5052  -20.2949   22.5462 C   0  0  1  0  0  0  0  0  0  0  0  0
   12.8290  -20.9576   22.8694 C   0  0  0  0  0  0  0  0  0  0  0  0
   12.9247  -21.4117   24.6097 S   0  0  0  0  0  0  0  0  0  0  0  0
   11.4818  -19.0048   23.2696 C   0  0  0  0  0  0  0  0  0  0  0  0
   12.0592  -18.0189   22.7544 O   0  0  0  0  0  0  0  0  0  0  0  0
   10.0780  -12.6726   29.1076 O   0  0  0  0  0  0  0  0  0  0  0  0
   10.0230  -13.8900   28.4478 C   0  0  0  0  0  0  0  0  0  0  0  0
   10.7639  -14.9766   28.9031 C   0  0  0  0  0  0  0  0  0  0  0  0
   10.7098  -16.1833   28.2496 C   0  0  0  0  0  0  0  0  0  0  0  0
    9.9309  -16.3760   27.1271 C   0  0  0  0  0  0  0  0  0  0  0  0
    9.9098  -17.7103   26.4550 C   0  0  0  0  0  0  0  0  0  0  0  0
   10.8658  -17.5952   25.2722 C   0  0  2  0  0  0  0  0  0  0  0  0
   10.8366  -18.8323   24.5173 N   0  0  0  0  0  0  0  0  0  0  0  0
   12.2402  -17.3362   25.7358 C   0  0  0  0  0  0  0  0  0  0  0  0
   12.8115  -16.2292   25.5613 O   0  0  0  0  0  0  0  0  0  0  0  0
    9.1944  -15.3083   26.6688 C   0  0  0  0  0  0  0  0  0  0  0  0
    9.2454  -14.0898   27.3238 C   0  0  0  0  0  0  0  0  0  0  0  0
   12.9541  -18.3307   26.3915 O   0  0  0  0  0  0  0  0  0  0  0  0
  2  1  1  1
  3  2  1  0
  3  4  1  0
  4  5  1  0
  5  9  1  0
  5  6  2  0
  7  2  1  0
  8  7  2  0
 10  7  1  0
 11 14  1  0
 11 10  1  0
 11 12  1  6
 13 12  1  0
 14 23  1  0
 15 14  2  0
 16 17  1  0
 17 18  2  0
 17 27  1  0
 18 19  1  0
 19 20  2  0
 20 21  1  0
 22 21  1  1
 22 24  1  0
 23 22  1  0
 24 25  2  0
 24 28  1  0
 26 20  1  0
 27 26  2  0
M  END
$$$$
