GNI.pdb
     RDKit          3D

 21 20  0  0  1  0  0  0  0  0999 V2000
    8.6143  -16.0093   18.5446 N   0  0  0  0  0  0  0  0  0  0  0  0
    8.9063  -17.0849   19.4439 C   0  0  0  0  0  0  0  0  0  0  0  0
    8.3068  -16.8175   20.7676 C   0  0  0  0  0  0  0  0  0  0  0  0
    7.3445  -16.0199   20.8703 O   0  0  0  0  0  0  0  0  0  0  0  0
    5.6249  -17.9771   24.7854 N   0  0  0  0  0  0  0  0  0  0  0  0
    6.4408  -18.9196   24.1286 C   0  0  0  0  0  0  0  0  0  0  0  0
    5.9507  -19.9970   23.7427 O   0  0  0  0  0  0  0  0  0  0  0  0
    7.8636  -18.6319   23.9001 C   0  0  0  0  0  0  0  0  0  0  0  0
    8.0854  -17.3005   23.2190 C   0  0  2  0  0  0  0  0  0  0  0  0
    8.7682  -17.4272   21.9663 N   0  0  0  0  0  0  0  0  0  0  0  0
    8.7630  -16.3370   24.1303 C   0  0  0  0  0  0  0  0  0  0  0  0
   10.0204  -16.3036   24.1096 O   0  0  0  0  0  0  0  0  0  0  0  0
    5.8753  -11.9337   26.0011 C   0  0  0  0  0  0  0  0  0  0  0  0
    7.0309  -12.7203   25.4331 C   0  0  0  0  0  0  0  0  0  0  0  0
    7.7348  -13.5572   26.4523 C   0  0  2  0  0  0  0  0  0  0  0  0
    8.5694  -12.6455   27.3278 C   0  0  0  0  0  0  0  0  0  0  0  0
    8.6566  -14.5908   25.8586 C   0  0  2  0  0  0  0  0  0  0  0  0
    7.9988  -15.5012   24.9782 N   0  0  0  0  0  0  0  0  0  0  0  0
    9.2090  -15.3653   27.0130 C   0  0  0  0  0  0  0  0  0  0  0  0
    8.7054  -16.4585   27.3729 O   0  0  0  0  0  0  0  0  0  0  0  0
   10.3016  -14.8917   27.7223 O   0  0  0  0  0  0  0  0  0  0  0  0
  1  2  1  0
  3  4  2  0
  3  2  1  0
  6  8  1  0
  6  5  1  0
  7  6  2  0
  9  8  1  1
  9 11  1  0
  9 10  1  0
 10  3  1  0
 11 12  2  0
 13 14  1  0
 15 14  1  0
 15 16  1  1
 17 15  1  0
 17 18  1  6
 18 11  1  0
 19 17  1  0
 20 19  2  0
 21 19  1  0
M  END
$$$$
