GNI.pdb
     RDKit          3D

 21 20  0  0  1  0  0  0  0  0999 V2000
    7.4264  -13.8102   18.5737 N   0  0  0  0  0  0  0  0  0  0  0  0
    8.5047  -13.7396   19.5135 C   0  0  0  0  0  0  0  0  0  0  0  0
    8.1997  -14.5655   20.7000 C   0  0  0  0  0  0  0  0  0  0  0  0
    7.0498  -14.5436   21.2001 O   0  0  0  0  0  0  0  0  0  0  0  0
    9.9631  -18.6217   20.3541 N   0  0  0  0  0  0  0  0  0  0  0  0
    9.0770  -18.3362   21.4118 C   0  0  0  0  0  0  0  0  0  0  0  0
    7.9181  -18.7900   21.3852 O   0  0  0  0  0  0  0  0  0  0  0  0
    9.5191  -17.5064   22.5412 C   0  0  0  0  0  0  0  0  0  0  0  0
    8.8903  -16.1315   22.5336 C   0  0  2  0  0  0  0  0  0  0  0  0
    9.1583  -15.4076   21.3271 N   0  0  0  0  0  0  0  0  0  0  0  0
    9.2746  -15.3582   23.7469 C   0  0  0  0  0  0  0  0  0  0  0  0
   10.3927  -14.7815   23.7385 O   0  0  0  0  0  0  0  0  0  0  0  0
    5.6385  -12.1536   26.0091 C   0  0  0  0  0  0  0  0  0  0  0  0
    6.9018  -12.8052   25.5030 C   0  0  0  0  0  0  0  0  0  0  0  0
    7.5580  -13.6889   26.5147 C   0  0  2  0  0  0  0  0  0  0  0  0
    8.0661  -12.8239   27.6494 C   0  0  0  0  0  0  0  0  0  0  0  0
    8.7290  -14.4675   25.9733 C   0  0  2  0  0  0  0  0  0  0  0  0
    8.3976  -15.2896   24.8549 N   0  0  0  0  0  0  0  0  0  0  0  0
    9.1907  -15.3505   27.0889 C   0  0  0  0  0  0  0  0  0  0  0  0
    8.7853  -16.5342   27.2017 O   0  0  0  0  0  0  0  0  0  0  0  0
   10.0868  -14.8806   28.0362 O   0  0  0  0  0  0  0  0  0  0  0  0
  1  2  1  0
  3  4  2  0
  3  2  1  0
  6  8  1  0
  6  5  1  0
  7  6  2  0
  9  8  1  6
  9 11  1  0
  9 10  1  0
 10  3  1  0
 11 12  2  0
 13 14  1  0
 15 14  1  0
 15 16  1  1
 17 15  1  0
 17 18  1  6
 18 11  1  0
 19 17  1  0
 20 19  2  0
 21 19  1  0
M  END
$$$$
