GNI.pdb
     RDKit          3D

 21 20  0  0  1  0  0  0  0  0999 V2000
    7.2071  -13.2706   18.4869 N   0  0  0  0  0  0  0  0  0  0  0  0
    8.3116  -13.1206   19.3860 C   0  0  0  0  0  0  0  0  0  0  0  0
    8.2369  -14.1359   20.4567 C   0  0  0  0  0  0  0  0  0  0  0  0
    7.1675  -14.3009   21.0905 O   0  0  0  0  0  0  0  0  0  0  0  0
   10.7353  -17.9552   19.4842 N   0  0  0  0  0  0  0  0  0  0  0  0
    9.9069  -17.9074   20.6230 C   0  0  0  0  0  0  0  0  0  0  0  0
    8.8790  -18.6082   20.6679 O   0  0  0  0  0  0  0  0  0  0  0  0
   10.2549  -17.0342   21.7526 C   0  0  0  0  0  0  0  0  0  0  0  0
    9.2883  -15.8834   21.9170 C   0  0  2  0  0  0  0  0  0  0  0  0
    9.3356  -14.9608   20.8225 N   0  0  0  0  0  0  0  0  0  0  0  0
    9.4787  -15.2050   23.2290 C   0  0  0  0  0  0  0  0  0  0  0  0
   10.5206  -14.5166   23.3814 O   0  0  0  0  0  0  0  0  0  0  0  0
    6.5722  -11.8245   27.1618 C   0  0  0  0  0  0  0  0  0  0  0  0
    7.6411  -12.8749   26.9862 C   0  0  0  0  0  0  0  0  0  0  0  0
    7.5156  -13.6387   25.7072 C   0  0  2  0  0  0  0  0  0  0  0  0
    6.2282  -14.4356   25.7488 C   0  0  0  0  0  0  0  0  0  0  0  0
    8.6448  -14.6063   25.4637 C   0  0  2  0  0  0  0  0  0  0  0  0
    8.5095  -15.3449   24.2502 N   0  0  0  0  0  0  0  0  0  0  0  0
    8.6197  -15.5689   26.6084 C   0  0  0  0  0  0  0  0  0  0  0  0
    8.1618  -16.7316   26.4801 O   0  0  0  0  0  0  0  0  0  0  0  0
    9.1060  -15.1988   27.8524 O   0  0  0  0  0  0  0  0  0  0  0  0
  1  2  1  0
  3  4  2  0
  3  2  1  0
  6  8  1  0
  6  5  1  0
  7  6  2  0
  9  8  1  6
  9 11  1  0
  9 10  1  0
 10  3  1  0
 11 12  2  0
 13 14  1  0
 15 14  1  0
 15 16  1  1
 17 15  1  0
 17 18  1  6
 18 11  1  0
 19 17  1  0
 20 19  2  0
 21 19  1  0
M  END
$$$$
