GNI.pdb
     RDKit          3D

 21 20  0  0  1  0  0  0  0  0999 V2000
   13.2158  -17.1930   20.7797 N   0  0  0  0  0  0  0  0  0  0  0  0
   12.0134  -17.7151   21.3564 C   0  0  0  0  0  0  0  0  0  0  0  0
   11.1683  -16.6110   21.8561 C   0  0  0  0  0  0  0  0  0  0  0  0
   11.6991  -15.6040   22.3821 O   0  0  0  0  0  0  0  0  0  0  0  0
    7.2821  -16.5640   19.4483 N   0  0  0  0  0  0  0  0  0  0  0  0
    7.6671  -15.4484   20.2182 C   0  0  0  0  0  0  0  0  0  0  0  0
    8.0870  -14.4229   19.6511 O   0  0  0  0  0  0  0  0  0  0  0  0
    7.5733  -15.4955   21.6840 C   0  0  0  0  0  0  0  0  0  0  0  0
    8.9265  -15.5999   22.3500 C   0  0  2  0  0  0  0  0  0  0  0  0
    9.7489  -16.6215   21.7742 N   0  0  0  0  0  0  0  0  0  0  0  0
    8.7890  -15.7575   23.8245 C   0  0  0  0  0  0  0  0  0  0  0  0
    9.2261  -16.8192   24.3387 O   0  0  0  0  0  0  0  0  0  0  0  0
    5.6496  -11.9367   26.7772 C   0  0  0  0  0  0  0  0  0  0  0  0
    6.2175  -13.1121   26.0204 C   0  0  0  0  0  0  0  0  0  0  0  0
    7.3984  -13.7344   26.6934 C   0  0  2  0  0  0  0  0  0  0  0  0
    8.5135  -12.7109   26.7484 C   0  0  0  0  0  0  0  0  0  0  0  0
    7.9304  -14.9526   25.9838 C   0  0  2  0  0  0  0  0  0  0  0  0
    8.1855  -14.7369   24.5964 N   0  0  0  0  0  0  0  0  0  0  0  0
    6.8722  -16.0020   26.1123 C   0  0  0  0  0  0  0  0  0  0  0  0
    6.5833  -16.5122   27.2234 O   0  0  0  0  0  0  0  0  0  0  0  0
    6.1762  -16.4426   24.9976 O   0  0  0  0  0  0  0  0  0  0  0  0
  1  2  1  0
  3  4  2  0
  3  2  1  0
  6  8  1  0
  6  5  1  0
  7  6  2  0
  9  8  1  6
  9 11  1  0
  9 10  1  0
 10  3  1  0
 11 12  2  0
 13 14  1  0
 15 14  1  0
 15 16  1  6
 17 15  1  0
 17 18  1  6
 18 11  1  0
 19 17  1  0
 20 19  2  0
 21 19  1  0
M  END
$$$$
