GNI.pdb
     RDKit          3D

 21 20  0  0  1  0  0  0  0  0999 V2000
    7.6354  -12.6817   18.4476 N   0  0  0  0  0  0  0  0  0  0  0  0
    8.7362  -13.4641   18.9241 C   0  0  0  0  0  0  0  0  0  0  0  0
    8.3547  -14.1786   20.1597 C   0  0  0  0  0  0  0  0  0  0  0  0
    7.3249  -13.8371   20.7887 O   0  0  0  0  0  0  0  0  0  0  0  0
   10.6554  -18.1527   19.9598 N   0  0  0  0  0  0  0  0  0  0  0  0
    9.3931  -17.9981   20.5667 C   0  0  0  0  0  0  0  0  0  0  0  0
    8.3703  -18.3805   19.9690 O   0  0  0  0  0  0  0  0  0  0  0  0
    9.2848  -17.3881   21.8993 C   0  0  0  0  0  0  0  0  0  0  0  0
    8.6994  -15.9949   21.8550 C   0  0  2  0  0  0  0  0  0  0  0  0
    9.1060  -15.2609   20.6943 N   0  0  0  0  0  0  0  0  0  0  0  0
    8.9835  -15.2523   23.1143 C   0  0  0  0  0  0  0  0  0  0  0  0
   10.1002  -14.6814   23.2128 O   0  0  0  0  0  0  0  0  0  0  0  0
    6.0818  -11.2880   26.2157 C   0  0  0  0  0  0  0  0  0  0  0  0
    7.3163  -12.1233   25.9811 C   0  0  0  0  0  0  0  0  0  0  0  0
    7.0121  -13.5498   25.6535 C   0  0  2  0  0  0  0  0  0  0  0  0
    6.3865  -14.1986   26.8708 C   0  0  0  0  0  0  0  0  0  0  0  0
    8.2259  -14.3593   25.2767 C   0  0  2  0  0  0  0  0  0  0  0  0
    8.0173  -15.2054   24.1467 N   0  0  0  0  0  0  0  0  0  0  0  0
    8.5342  -15.2195   26.4610 C   0  0  0  0  0  0  0  0  0  0  0  0
    8.9405  -14.7278   27.5432 O   0  0  0  0  0  0  0  0  0  0  0  0
    8.3778  -16.5951   26.3938 O   0  0  0  0  0  0  0  0  0  0  0  0
  1  2  1  0
  3  4  2  0
  3  2  1  0
  6  8  1  0
  6  5  1  0
  7  6  2  0
  9  8  1  1
  9 11  1  0
  9 10  1  0
 10  3  1  0
 11 12  2  0
 13 14  1  0
 15 14  1  0
 15 16  1  1
 17 15  1  0
 17 18  1  6
 18 11  1  0
 19 17  1  0
 20 19  2  0
 21 19  1  0
M  END
$$$$
