GNI.pdb
     RDKit          3D

 21 20  0  0  1  0  0  0  0  0999 V2000
    6.7617  -18.3342   19.7417 N   0  0  0  0  0  0  0  0  0  0  0  0
    7.7268  -18.4868   20.7888 C   0  0  0  0  0  0  0  0  0  0  0  0
    7.2234  -17.8767   22.0367 C   0  0  0  0  0  0  0  0  0  0  0  0
    6.4267  -16.9096   21.9847 O   0  0  0  0  0  0  0  0  0  0  0  0
    6.1445  -20.1674   24.0217 N   0  0  0  0  0  0  0  0  0  0  0  0
    6.4925  -19.8950   25.3597 C   0  0  0  0  0  0  0  0  0  0  0  0
    6.2792  -20.7502   26.2388 O   0  0  0  0  0  0  0  0  0  0  0  0
    7.1045  -18.6073   25.7155 C   0  0  0  0  0  0  0  0  0  0  0  0
    7.2068  -17.6667   24.5362 C   0  0  2  0  0  0  0  0  0  0  0  0
    7.5984  -18.3327   23.3301 N   0  0  0  0  0  0  0  0  0  0  0  0
    8.0897  -16.5085   24.8476 C   0  0  0  0  0  0  0  0  0  0  0  0
    9.3082  -16.6107   24.5517 O   0  0  0  0  0  0  0  0  0  0  0  0
    5.8708  -11.5437   26.8265 C   0  0  0  0  0  0  0  0  0  0  0  0
    6.5039  -12.9081   26.7074 C   0  0  0  0  0  0  0  0  0  0  0  0
    7.7079  -12.9264   25.8214 C   0  0  2  0  0  0  0  0  0  0  0  0
    7.2695  -12.5968   24.4096 C   0  0  0  0  0  0  0  0  0  0  0  0
    8.4138  -14.2571   25.7823 C   0  0  2  0  0  0  0  0  0  0  0  0
    7.5541  -15.3478   25.4537 N   0  0  0  0  0  0  0  0  0  0  0  0
    8.9548  -14.4797   27.1590 C   0  0  0  0  0  0  0  0  0  0  0  0
    8.5237  -15.4029   27.8938 O   0  0  0  0  0  0  0  0  0  0  0  0
    9.9557  -13.6647   27.6642 O   0  0  0  0  0  0  0  0  0  0  0  0
  1  2  1  0
  3  4  2  0
  3  2  1  0
  6  8  1  0
  6  5  1  0
  7  6  2  0
  9  8  1  1
  9 11  1  0
  9 10  1  0
 10  3  1  0
 11 12  2  0
 13 14  1  0
 15 14  1  0
 15 16  1  6
 17 15  1  0
 17 18  1  1
 18 11  1  0
 19 17  1  0
 20 19  2  0
 21 19  1  0
M  END
$$$$
