GNI.pdb
     RDKit          3D

 21 20  0  0  1  0  0  0  0  0999 V2000
    5.2857  -19.3464   22.8869 N   0  0  0  0  0  0  0  0  0  0  0  0
    5.4513  -18.0781   23.5310 C   0  0  0  0  0  0  0  0  0  0  0  0
    6.7379  -17.4703   23.1333 C   0  0  0  0  0  0  0  0  0  0  0  0
    7.8079  -18.1030   23.2993 O   0  0  0  0  0  0  0  0  0  0  0  0
    6.0800  -14.3384   19.6556 N   0  0  0  0  0  0  0  0  0  0  0  0
    7.2954  -14.9377   20.0417 C   0  0  0  0  0  0  0  0  0  0  0  0
    7.7670  -15.8686   19.3631 O   0  0  0  0  0  0  0  0  0  0  0  0
    8.0029  -14.4656   21.2401 C   0  0  0  0  0  0  0  0  0  0  0  0
    8.0921  -15.5232   22.3168 C   0  0  2  0  0  0  0  0  0  0  0  0
    6.8393  -16.1743   22.5574 N   0  0  0  0  0  0  0  0  0  0  0  0
    8.6838  -14.9694   23.5662 C   0  0  0  0  0  0  0  0  0  0  0  0
    9.8078  -14.4112   23.4791 O   0  0  0  0  0  0  0  0  0  0  0  0
    5.9063  -11.8606   26.6333 C   0  0  0  0  0  0  0  0  0  0  0  0
    7.0546  -12.5597   25.9481 C   0  0  0  0  0  0  0  0  0  0  0  0
    7.6504  -13.6600   26.7661 C   0  0  2  0  0  0  0  0  0  0  0  0
    8.4545  -13.0406   27.8903 C   0  0  0  0  0  0  0  0  0  0  0  0
    8.5716  -14.5646   25.9893 C   0  0  2  0  0  0  0  0  0  0  0  0
    7.9880  -15.0796   24.7931 N   0  0  0  0  0  0  0  0  0  0  0  0
    8.8852  -15.7131   26.8949 C   0  0  0  0  0  0  0  0  0  0  0  0
    8.1951  -16.7628   26.8890 O   0  0  0  0  0  0  0  0  0  0  0  0
    9.9560  -15.6479   27.7725 O   0  0  0  0  0  0  0  0  0  0  0  0
  1  2  1  0
  3  4  2  0
  3  2  1  0
  6  8  1  0
  6  5  1  0
  7  6  2  0
  9  8  1  6
  9 11  1  0
  9 10  1  0
 10  3  1  0
 11 12  2  0
 13 14  1  0
 15 14  1  0
 15 16  1  1
 17 15  1  0
 17 18  1  6
 18 11  1  0
 19 17  1  0
 20 19  2  0
 21 19  1  0
M  END
$$$$
