GNI.pdb
     RDKit          3D

 21 20  0  0  1  0  0  0  0  0999 V2000
    7.4929  -12.5538   18.6008 N   0  0  0  0  0  0  0  0  0  0  0  0
    8.5744  -13.3588   19.0838 C   0  0  0  0  0  0  0  0  0  0  0  0
    8.1404  -14.1402   20.2602 C   0  0  0  0  0  0  0  0  0  0  0  0
    7.0542  -13.8703   20.8260 O   0  0  0  0  0  0  0  0  0  0  0  0
    8.9889  -18.4838   19.6300 N   0  0  0  0  0  0  0  0  0  0  0  0
    8.2116  -18.0803   20.7338 C   0  0  0  0  0  0  0  0  0  0  0  0
    6.9848  -18.2914   20.7345 O   0  0  0  0  0  0  0  0  0  0  0  0
    8.8466  -17.4133   21.8791 C   0  0  0  0  0  0  0  0  0  0  0  0
    8.4946  -15.9455   21.9652 C   0  0  2  0  0  0  0  0  0  0  0  0
    8.9015  -15.2103   20.8053 N   0  0  0  0  0  0  0  0  0  0  0  0
    9.0164  -15.3407   23.2222 C   0  0  0  0  0  0  0  0  0  0  0  0
   10.2356  -15.0326   23.2563 O   0  0  0  0  0  0  0  0  0  0  0  0
    5.7505  -11.9773   26.0430 C   0  0  0  0  0  0  0  0  0  0  0  0
    6.9120  -12.6560   25.3595 C   0  0  0  0  0  0  0  0  0  0  0  0
    7.5895  -13.6758   26.2172 C   0  0  2  0  0  0  0  0  0  0  0  0
    8.2669  -12.9609   27.3680 C   0  0  0  0  0  0  0  0  0  0  0  0
    8.6411  -14.4767   25.4938 C   0  0  2  0  0  0  0  0  0  0  0  0
    8.1529  -15.1306   24.3230 N   0  0  0  0  0  0  0  0  0  0  0  0
    9.1044  -15.5205   26.4599 C   0  0  0  0  0  0  0  0  0  0  0  0
    8.4977  -16.6129   26.5890 O   0  0  0  0  0  0  0  0  0  0  0  0
   10.2263  -15.3069   27.2453 O   0  0  0  0  0  0  0  0  0  0  0  0
  1  2  1  0
  3  4  2  0
  3  2  1  0
  6  8  1  0
  6  5  1  0
  7  6  2  0
  9  8  1  6
  9 11  1  0
  9 10  1  0
 10  3  1  0
 11 12  2  0
 13 14  1  0
 15 14  1  0
 15 16  1  1
 17 15  1  0
 17 18  1  6
 18 11  1  0
 19 17  1  0
 20 19  2  0
 21 19  1  0
M  END
$$$$
