GNI.pdb
     RDKit          3D

 21 20  0  0  1  0  0  0  0  0999 V2000
    4.1850  -19.0886   20.3483 N   0  0  0  0  0  0  0  0  0  0  0  0
    5.2019  -18.1126   20.6015 C   0  0  0  0  0  0  0  0  0  0  0  0
    5.4363  -17.9881   22.0549 C   0  0  0  0  0  0  0  0  0  0  0  0
    4.4733  -17.7733   22.8289 O   0  0  0  0  0  0  0  0  0  0  0  0
    6.0694  -20.9166   25.7140 N   0  0  0  0  0  0  0  0  0  0  0  0
    6.7726  -19.6996   25.8140 C   0  0  0  0  0  0  0  0  0  0  0  0
    6.7293  -19.0475   26.8735 O   0  0  0  0  0  0  0  0  0  0  0  0
    7.5534  -19.2025   24.6726 C   0  0  0  0  0  0  0  0  0  0  0  0
    6.9520  -17.9613   24.0533 C   0  0  2  0  0  0  0  0  0  0  0  0
    6.7245  -18.1003   22.6460 N   0  0  0  0  0  0  0  0  0  0  0  0
    7.7639  -16.7543   24.3722 C   0  0  0  0  0  0  0  0  0  0  0  0
    8.7949  -16.5484   23.6814 O   0  0  0  0  0  0  0  0  0  0  0  0
    5.2633  -12.3378   26.5551 C   0  0  0  0  0  0  0  0  0  0  0  0
    6.2459  -13.0897   25.6915 C   0  0  0  0  0  0  0  0  0  0  0  0
    7.3903  -13.6660   26.4617 C   0  0  2  0  0  0  0  0  0  0  0  0
    8.3606  -12.5492   26.7863 C   0  0  0  0  0  0  0  0  0  0  0  0
    8.1513  -14.7304   25.7144 C   0  0  2  0  0  0  0  0  0  0  0  0
    7.3694  -15.8868   25.4178 N   0  0  0  0  0  0  0  0  0  0  0  0
    9.2788  -15.1386   26.6086 C   0  0  0  0  0  0  0  0  0  0  0  0
    9.1871  -16.1334   27.3703 O   0  0  0  0  0  0  0  0  0  0  0  0
   10.4655  -14.4226   26.6197 O   0  0  0  0  0  0  0  0  0  0  0  0
  1  2  1  0
  3  4  2  0
  3  2  1  0
  6  8  1  0
  6  5  1  0
  7  6  2  0
  9  8  1  6
  9 11  1  0
  9 10  1  0
 10  3  1  0
 11 12  2  0
 13 14  1  0
 15 14  1  0
 15 16  1  6
 17 15  1  0
 17 18  1  1
 18 11  1  0
 19 17  1  0
 20 19  2  0
 21 19  1  0
M  END
$$$$
