GNI.pdb
     RDKit          3D

 21 20  0  0  1  0  0  0  0  0999 V2000
    5.4879  -19.8883   23.2892 N   0  0  0  0  0  0  0  0  0  0  0  0
    5.5714  -18.5883   23.8840 C   0  0  0  0  0  0  0  0  0  0  0  0
    6.8250  -17.9218   23.4750 C   0  0  0  0  0  0  0  0  0  0  0  0
    7.9313  -18.4447   23.7496 O   0  0  0  0  0  0  0  0  0  0  0  0
    8.3145  -17.2023   19.9492 N   0  0  0  0  0  0  0  0  0  0  0  0
    8.0592  -15.8166   19.9581 C   0  0  0  0  0  0  0  0  0  0  0  0
    7.9543  -15.2018   18.8808 O   0  0  0  0  0  0  0  0  0  0  0  0
    7.9175  -15.1005   21.2336 C   0  0  0  0  0  0  0  0  0  0  0  0
    8.0696  -16.0106   22.4312 C   0  0  2  0  0  0  0  0  0  0  0  0
    6.8538  -16.6882   22.7687 N   0  0  0  0  0  0  0  0  0  0  0  0
    8.6427  -15.2773   23.5939 C   0  0  0  0  0  0  0  0  0  0  0  0
    9.8547  -14.9460   23.5318 O   0  0  0  0  0  0  0  0  0  0  0  0
    5.5366  -11.8666   26.5900 C   0  0  0  0  0  0  0  0  0  0  0  0
    6.6291  -12.5638   25.8174 C   0  0  0  0  0  0  0  0  0  0  0  0
    7.4223  -13.5212   26.6475 C   0  0  2  0  0  0  0  0  0  0  0  0
    8.2029  -12.7307   27.6769 C   0  0  0  0  0  0  0  0  0  0  0  0
    8.4086  -14.3401   25.8554 C   0  0  2  0  0  0  0  0  0  0  0  0
    7.8336  -14.9764   24.7148 N   0  0  0  0  0  0  0  0  0  0  0  0
    8.9092  -15.3992   26.7855 C   0  0  0  0  0  0  0  0  0  0  0  0
    8.4323  -16.5614   26.7765 O   0  0  0  0  0  0  0  0  0  0  0  0
    9.9223  -15.1226   27.6901 O   0  0  0  0  0  0  0  0  0  0  0  0
  1  2  1  0
  3  4  2  0
  3  2  1  0
  6  8  1  0
  6  5  1  0
  7  6  2  0
  9  8  1  6
  9 11  1  0
  9 10  1  0
 10  3  1  0
 11 12  2  0
 13 14  1  0
 15 14  1  0
 15 16  1  1
 17 15  1  0
 17 18  1  6
 18 11  1  0
 19 17  1  0
 20 19  2  0
 21 19  1  0
M  END
$$$$
