GNI.pdb
     RDKit          3D

 21 20  0  0  1  0  0  0  0  0999 V2000
    8.0068  -13.6929   17.9641 N   0  0  0  0  0  0  0  0  0  0  0  0
    8.3349  -12.9381   19.1362 C   0  0  0  0  0  0  0  0  0  0  0  0
    7.9965  -13.7105   20.3493 C   0  0  0  0  0  0  0  0  0  0  0  0
    6.9667  -13.4263   21.0063 O   0  0  0  0  0  0  0  0  0  0  0  0
    7.1012  -18.1211   20.3972 N   0  0  0  0  0  0  0  0  0  0  0  0
    8.4033  -17.6037   20.5458 C   0  0  0  0  0  0  0  0  0  0  0  0
    9.1942  -17.6383   19.5851 O   0  0  0  0  0  0  0  0  0  0  0  0
    8.8257  -17.0258   21.8292 C   0  0  0  0  0  0  0  0  0  0  0  0
    8.4287  -15.5740   21.9718 C   0  0  2  0  0  0  0  0  0  0  0  0
    8.7903  -14.7872   20.8309 N   0  0  0  0  0  0  0  0  0  0  0  0
    8.9539  -14.9952   23.2395 C   0  0  0  0  0  0  0  0  0  0  0  0
   10.1954  -14.8103   23.3233 O   0  0  0  0  0  0  0  0  0  0  0  0
    5.5404  -12.1812   26.8863 C   0  0  0  0  0  0  0  0  0  0  0  0
    6.3187  -13.2935   26.2276 C   0  0  0  0  0  0  0  0  0  0  0  0
    7.7655  -12.9700   26.0355 C   0  0  2  0  0  0  0  0  0  0  0  0
    7.8750  -11.8348   25.0389 C   0  0  0  0  0  0  0  0  0  0  0  0
    8.5812  -14.1220   25.5081 C   0  0  2  0  0  0  0  0  0  0  0  0
    8.0691  -14.6738   24.2957 N   0  0  0  0  0  0  0  0  0  0  0  0
    8.5362  -15.1797   26.5649 C   0  0  0  0  0  0  0  0  0  0  0  0
    7.9964  -16.2948   26.3569 O   0  0  0  0  0  0  0  0  0  0  0  0
    9.0947  -14.9541   27.8132 O   0  0  0  0  0  0  0  0  0  0  0  0
  1  2  1  0
  3  4  2  0
  3  2  1  0
  6  8  1  0
  6  5  1  0
  7  6  2  0
  9  8  1  6
  9 11  1  0
  9 10  1  0
 10  3  1  0
 11 12  2  0
 13 14  1  0
 15 14  1  0
 15 16  1  6
 17 15  1  0
 17 18  1  6
 18 11  1  0
 19 17  1  0
 20 19  2  0
 21 19  1  0
M  END
$$$$
