GNI.pdb
     RDKit          3D

 21 20  0  0  1  0  0  0  0  0999 V2000
    6.3363  -19.8769   23.0986 N   0  0  0  0  0  0  0  0  0  0  0  0
    6.0826  -18.4711   22.9959 C   0  0  0  0  0  0  0  0  0  0  0  0
    7.3424  -17.7452   22.7336 C   0  0  0  0  0  0  0  0  0  0  0  0
    8.4278  -18.1945   23.1726 O   0  0  0  0  0  0  0  0  0  0  0  0
    7.5279  -12.6246   20.4582 N   0  0  0  0  0  0  0  0  0  0  0  0
    7.3729  -14.0190   20.5892 C   0  0  0  0  0  0  0  0  0  0  0  0
    6.2333  -14.5036   20.7164 O   0  0  0  0  0  0  0  0  0  0  0  0
    8.5512  -14.8969   20.5758 C   0  0  0  0  0  0  0  0  0  0  0  0
    8.6148  -15.8031   21.7843 C   0  0  2  0  0  0  0  0  0  0  0  0
    7.4003  -16.5333   21.9924 N   0  0  0  0  0  0  0  0  0  0  0  0
    9.0296  -15.0494   22.9999 C   0  0  0  0  0  0  0  0  0  0  0  0
   10.1503  -14.4784   22.9752 O   0  0  0  0  0  0  0  0  0  0  0  0
    7.1849  -11.3230   27.3148 C   0  0  0  0  0  0  0  0  0  0  0  0
    8.0752  -12.4911   26.9691 C   0  0  0  0  0  0  0  0  0  0  0  0
    7.6358  -13.2280   25.7449 C   0  0  2  0  0  0  0  0  0  0  0  0
    6.3080  -13.8954   26.0376 C   0  0  0  0  0  0  0  0  0  0  0  0
    8.5984  -14.2993   25.3019 C   0  0  2  0  0  0  0  0  0  0  0  0
    8.1773  -14.9925   24.1277 N   0  0  0  0  0  0  0  0  0  0  0  0
    8.6737  -15.2803   26.4286 C   0  0  0  0  0  0  0  0  0  0  0  0
    8.1608  -16.4237   26.3406 O   0  0  0  0  0  0  0  0  0  0  0  0
    9.3179  -14.9495   27.6104 O   0  0  0  0  0  0  0  0  0  0  0  0
  1  2  1  0
  3  4  2  0
  3  2  1  0
  6  8  1  0
  6  5  1  0
  7  6  2  0
  9  8  1  6
  9 11  1  0
  9 10  1  0
 10  3  1  0
 11 12  2  0
 13 14  1  0
 15 14  1  0
 15 16  1  1
 17 15  1  0
 17 18  1  6
 18 11  1  0
 19 17  1  0
 20 19  2  0
 21 19  1  0
M  END
$$$$
