GNI.pdb
     RDKit          3D

 21 20  0  0  1  0  0  0  0  0999 V2000
   12.3452  -16.4571   19.5916 N   0  0  0  0  0  0  0  0  0  0  0  0
   11.9247  -16.9401   20.8726 C   0  0  0  0  0  0  0  0  0  0  0  0
   10.7902  -16.1359   21.3716 C   0  0  0  0  0  0  0  0  0  0  0  0
   10.9356  -14.9075   21.5783 O   0  0  0  0  0  0  0  0  0  0  0  0
    6.8301  -18.0207   19.9406 N   0  0  0  0  0  0  0  0  0  0  0  0
    6.7861  -16.7351   20.5159 C   0  0  0  0  0  0  0  0  0  0  0  0
    6.4987  -15.7522   19.8082 O   0  0  0  0  0  0  0  0  0  0  0  0
    7.0781  -16.5558   21.9449 C   0  0  0  0  0  0  0  0  0  0  0  0
    8.4280  -15.9195   22.1870 C   0  0  2  0  0  0  0  0  0  0  0  0
    9.5068  -16.6861   21.6392 N   0  0  0  0  0  0  0  0  0  0  0  0
    8.6305  -15.6220   23.6321 C   0  0  0  0  0  0  0  0  0  0  0  0
    9.5211  -16.2705   24.2395 O   0  0  0  0  0  0  0  0  0  0  0  0
    5.8863  -11.1857   25.6609 C   0  0  0  0  0  0  0  0  0  0  0  0
    7.1135  -12.0318   25.4264 C   0  0  0  0  0  0  0  0  0  0  0  0
    7.1082  -13.3097   26.2022 C   0  0  2  0  0  0  0  0  0  0  0  0
    7.5313  -13.0087   27.6250 C   0  0  0  0  0  0  0  0  0  0  0  0
    8.0463  -14.3555   25.6575 C   0  0  2  0  0  0  0  0  0  0  0  0
    7.8380  -14.6422   24.2751 N   0  0  0  0  0  0  0  0  0  0  0  0
    7.7810  -15.6000   26.4437 C   0  0  0  0  0  0  0  0  0  0  0  0
    8.4475  -15.8844   27.4699 O   0  0  0  0  0  0  0  0  0  0  0  0
    6.7828  -16.4802   26.0562 O   0  0  0  0  0  0  0  0  0  0  0  0
  1  2  1  0
  3  4  2  0
  3  2  1  0
  6  8  1  0
  6  5  1  0
  7  6  2  0
  9  8  1  1
  9 11  1  0
  9 10  1  0
 10  3  1  0
 11 12  2  0
 13 14  1  0
 15 14  1  0
 15 16  1  1
 17 15  1  0
 17 18  1  6
 18 11  1  0
 19 17  1  0
 20 19  2  0
 21 19  1  0
M  END
$$$$
