GNI.pdb
     RDKit          3D

 21 20  0  0  1  0  0  0  0  0999 V2000
    5.6574  -18.8108   21.1183 N   0  0  0  0  0  0  0  0  0  0  0  0
    5.5471  -17.4843   21.6468 C   0  0  0  0  0  0  0  0  0  0  0  0
    6.8612  -16.8101   21.6059 C   0  0  0  0  0  0  0  0  0  0  0  0
    7.9099  -17.4685   21.8044 O   0  0  0  0  0  0  0  0  0  0  0  0
    7.2829  -12.9351   18.3338 N   0  0  0  0  0  0  0  0  0  0  0  0
    8.1003  -13.7808   19.1098 C   0  0  0  0  0  0  0  0  0  0  0  0
    8.6476  -14.7655   18.5802 O   0  0  0  0  0  0  0  0  0  0  0  0
    8.3058  -13.5014   20.5378 C   0  0  0  0  0  0  0  0  0  0  0  0
    8.2801  -14.7536   21.3847 C   0  0  2  0  0  0  0  0  0  0  0  0
    7.0130  -15.4202   21.3477 N   0  0  0  0  0  0  0  0  0  0  0  0
    8.7221  -14.4691   22.7781 C   0  0  0  0  0  0  0  0  0  0  0  0
    9.8911  -14.0332   22.9393 O   0  0  0  0  0  0  0  0  0  0  0  0
    7.1346  -11.4531   27.4696 C   0  0  0  0  0  0  0  0  0  0  0  0
    7.9773  -12.6014   26.9714 C   0  0  0  0  0  0  0  0  0  0  0  0
    7.3260  -13.3809   25.8746 C   0  0  2  0  0  0  0  0  0  0  0  0
    6.1794  -14.1745   26.4657 C   0  0  0  0  0  0  0  0  0  0  0  0
    8.2500  -14.3538   25.1888 C   0  0  2  0  0  0  0  0  0  0  0  0
    7.8413  -14.6889   23.8632 N   0  0  0  0  0  0  0  0  0  0  0  0
    8.2309  -15.5983   26.0184 C   0  0  0  0  0  0  0  0  0  0  0  0
    7.6279  -16.6328   25.6385 O   0  0  0  0  0  0  0  0  0  0  0  0
    8.8848  -15.6424   27.2397 O   0  0  0  0  0  0  0  0  0  0  0  0
  1  2  1  0
  3  4  2  0
  3  2  1  0
  6  8  1  0
  6  5  1  0
  7  6  2  0
  9  8  1  6
  9 11  1  0
  9 10  1  0
 10  3  1  0
 11 12  2  0
 13 14  1  0
 15 14  1  0
 15 16  1  1
 17 15  1  0
 17 18  1  6
 18 11  1  0
 19 17  1  0
 20 19  2  0
 21 19  1  0
M  END
$$$$
