GNI.pdb
     RDKit          3D

 21 20  0  0  1  0  0  0  0  0999 V2000
    7.2486  -13.0854   18.6360 N   0  0  0  0  0  0  0  0  0  0  0  0
    8.4711  -13.4060   19.3095 C   0  0  0  0  0  0  0  0  0  0  0  0
    8.1970  -14.2695   20.4766 C   0  0  0  0  0  0  0  0  0  0  0  0
    7.0375  -14.3342   20.9500 O   0  0  0  0  0  0  0  0  0  0  0  0
    8.2373  -18.6465   20.5510 N   0  0  0  0  0  0  0  0  0  0  0  0
    9.3811  -17.8637   20.8048 C   0  0  0  0  0  0  0  0  0  0  0  0
   10.2230  -17.6915   19.9042 O   0  0  0  0  0  0  0  0  0  0  0  0
    9.5790  -17.2534   22.1269 C   0  0  0  0  0  0  0  0  0  0  0  0
    8.9283  -15.8937   22.2428 C   0  0  2  0  0  0  0  0  0  0  0  0
    9.1970  -15.0541   21.1139 N   0  0  0  0  0  0  0  0  0  0  0  0
    9.2875  -15.2338   23.5287 C   0  0  0  0  0  0  0  0  0  0  0  0
   10.4844  -14.8798   23.6856 O   0  0  0  0  0  0  0  0  0  0  0  0
    5.8251  -11.9041   26.1904 C   0  0  0  0  0  0  0  0  0  0  0  0
    7.0202  -12.5965   25.5829 C   0  0  0  0  0  0  0  0  0  0  0  0
    7.5748  -13.6849   26.4448 C   0  0  2  0  0  0  0  0  0  0  0  0
    8.1487  -13.0584   27.6986 C   0  0  0  0  0  0  0  0  0  0  0  0
    8.6724  -14.4811   25.7876 C   0  0  2  0  0  0  0  0  0  0  0  0
    8.3013  -15.0243   24.5212 N   0  0  0  0  0  0  0  0  0  0  0  0
    8.9765  -15.6131   26.7168 C   0  0  0  0  0  0  0  0  0  0  0  0
    8.5178  -16.7661   26.5211 O   0  0  0  0  0  0  0  0  0  0  0  0
    9.7802  -15.4168   27.8289 O   0  0  0  0  0  0  0  0  0  0  0  0
  1  2  1  0
  3  4  2  0
  3  2  1  0
  6  8  1  0
  6  5  1  0
  7  6  2  0
  9  8  1  6
  9 11  1  0
  9 10  1  0
 10  3  1  0
 11 12  2  0
 13 14  1  0
 15 14  1  0
 15 16  1  1
 17 15  1  0
 17 18  1  6
 18 11  1  0
 19 17  1  0
 20 19  2  0
 21 19  1  0
M  END
$$$$
