TVW.pdb
     RDKit          3D

 29 30  0  0  1  0  0  0  0  0999 V2000
   28.4953  -21.6407  -14.3352 C   0  0  0  0  0  0  0  0  0  0  0  0
   28.5404  -20.5506  -15.3565 C   0  0  1  0  0  0  0  0  0  0  0  0
   29.1019  -21.1148  -16.5248 O   0  0  0  0  0  0  0  0  0  0  0  0
   27.1658  -20.0607  -15.7569 C   0  0  2  0  0  0  0  0  0  0  0  0
   27.2546  -19.0552  -16.7809 N   0  0  0  0  0  0  0  0  0  0  0  0
   26.5019  -19.5344  -14.5378 C   0  0  0  0  0  0  0  0  0  0  0  0
   26.5281  -18.3045  -14.2956 O   0  0  0  0  0  0  0  0  0  0  0  0
   23.3556  -21.5698  -12.8057 C   0  0  0  0  0  0  0  0  0  0  0  0
   23.7225  -20.1110  -12.5544 C   0  0  2  0  0  0  0  0  0  0  0  0
   23.2486  -19.2576  -13.7090 C   0  0  0  0  0  0  0  0  0  0  0  0
   25.2148  -19.9531  -12.4155 C   0  0  2  0  0  0  0  0  0  0  0  0
   25.8340  -20.4208  -13.6379 N   0  0  0  0  0  0  0  0  0  0  0  0
   25.7520  -20.7692  -11.2770 C   0  0  0  0  0  0  0  0  0  0  0  0
   26.6148  -21.6776  -11.4888 O   0  0  0  0  0  0  0  0  0  0  0  0
   25.3330  -20.5701   -9.9442 N   0  0  0  0  0  0  0  0  0  0  0  0
   25.9264  -21.3512   -8.8660 C   0  0  1  0  0  0  0  0  0  0  0  0
   27.3862  -21.0535   -8.7221 C   0  0  0  0  0  0  0  0  0  0  0  0
   27.7329  -20.0613   -7.6931 C   0  0  0  0  0  0  0  0  0  0  0  0
   27.2751  -18.7265   -7.6957 C   0  0  0  0  0  0  0  0  0  0  0  0
   27.7321  -18.0849   -6.6194 N   0  0  0  0  0  0  0  0  0  0  0  0
   28.4888  -18.9330   -5.8774 C   0  0  0  0  0  0  0  0  0  0  0  0
   29.1637  -18.7132   -4.6984 C   0  0  0  0  0  0  0  0  0  0  0  0
   29.8736  -19.7599   -4.1563 C   0  0  0  0  0  0  0  0  0  0  0  0
   29.8845  -20.9794   -4.8062 C   0  0  0  0  0  0  0  0  0  0  0  0
   29.1992  -21.1729   -5.9866 C   0  0  0  0  0  0  0  0  0  0  0  0
   28.4831  -20.1562   -6.5524 C   0  0  0  0  0  0  0  0  0  0  0  0
   25.1716  -21.3043   -7.6122 C   0  0  0  0  0  0  0  0  0  0  0  0
   25.5496  -22.1441   -6.5751 O   0  0  0  0  0  0  0  0  0  0  0  0
   24.1872  -20.5490   -7.4048 O   0  0  0  0  0  0  0  0  0  0  0  0
  2  1  1  1
  2  3  1  0
  2  4  1  0
  4  6  1  0
  4  5  1  6
  6  7  2  0
  9 11  1  0
  9  8  1  6
 10  9  1  0
 11 12  1  6
 12  6  1  0
 13 15  1  0
 13 11  1  0
 14 13  2  0
 16 27  1  0
 16 15  1  0
 16 17  1  1
 18 19  2  0
 18 17  1  0
 20 19  1  0
 21 26  2  0
 21 20  1  0
 22 21  1  0
 23 24  1  0
 23 22  2  0
 24 25  2  0
 25 26  1  0
 26 18  1  0
 27 28  1  0
 29 27  2  0
M  END
$$$$
