TVW.pdb
     RDKit          3D

 29 30  0  0  1  0  0  0  0  0999 V2000
   22.6839  -19.4726  -14.7726 C   0  0  0  0  0  0  0  0  0  0  0  0
   22.8113  -19.1095  -16.2167 C   0  0  1  0  0  0  0  0  0  0  0  0
   21.8364  -18.1179  -16.4713 O   0  0  0  0  0  0  0  0  0  0  0  0
   24.1425  -18.4712  -16.5488 C   0  0  2  0  0  0  0  0  0  0  0  0
   24.1521  -17.9693  -17.8963 N   0  0  0  0  0  0  0  0  0  0  0  0
   25.1972  -19.4961  -16.3455 C   0  0  0  0  0  0  0  0  0  0  0  0
   25.1725  -20.5567  -17.0137 O   0  0  0  0  0  0  0  0  0  0  0  0
   28.7372  -19.0110  -13.5601 C   0  0  0  0  0  0  0  0  0  0  0  0
   28.5912  -19.4937  -14.9994 C   0  0  2  0  0  0  0  0  0  0  0  0
   28.6002  -18.3099  -15.9399 C   0  0  0  0  0  0  0  0  0  0  0  0
   27.2984  -20.2468  -15.1805 C   0  0  2  0  0  0  0  0  0  0  0  0
   26.2397  -19.2820  -15.3923 N   0  0  0  0  0  0  0  0  0  0  0  0
   26.9571  -21.0566  -13.9645 C   0  0  0  0  0  0  0  0  0  0  0  0
   27.6731  -22.0531  -13.6345 O   0  0  0  0  0  0  0  0  0  0  0  0
   25.8474  -20.7553  -13.1464 N   0  0  0  0  0  0  0  0  0  0  0  0
   25.5662  -21.5650  -11.9673 C   0  0  1  0  0  0  0  0  0  0  0  0
   26.7441  -21.6048  -11.0446 C   0  0  0  0  0  0  0  0  0  0  0  0
   26.5724  -20.8985   -9.7659 C   0  0  0  0  0  0  0  0  0  0  0  0
   25.3437  -20.3747   -9.3106 C   0  0  0  0  0  0  0  0  0  0  0  0
   25.5010  -19.8219   -8.1070 N   0  0  0  0  0  0  0  0  0  0  0  0
   26.7958  -19.9475   -7.7197 C   0  0  0  0  0  0  0  0  0  0  0  0
   27.4181  -19.5251   -6.5672 C   0  0  0  0  0  0  0  0  0  0  0  0
   28.7641  -19.7764   -6.4311 C   0  0  0  0  0  0  0  0  0  0  0  0
   29.4357  -20.4354   -7.4433 C   0  0  0  0  0  0  0  0  0  0  0  0
   28.7879  -20.8484   -8.5880 C   0  0  0  0  0  0  0  0  0  0  0  0
   27.4519  -20.6165   -8.7559 C   0  0  0  0  0  0  0  0  0  0  0  0
   24.2953  -21.2444  -11.3146 C   0  0  0  0  0  0  0  0  0  0  0  0
   23.6608  -22.2288  -10.5716 O   0  0  0  0  0  0  0  0  0  0  0  0
   23.7257  -20.1248  -11.3828 O   0  0  0  0  0  0  0  0  0  0  0  0
  2  1  1  1
  2  3  1  0
  2  4  1  0
  4  6  1  0
  4  5  1  6
  6  7  2  0
  9 11  1  0
  9  8  1  1
 10  9  1  0
 11 12  1  1
 12  6  1  0
 13 15  1  0
 13 11  1  0
 14 13  2  0
 16 27  1  0
 16 15  1  0
 16 17  1  1
 18 19  2  0
 18 17  1  0
 20 19  1  0
 21 26  2  0
 21 20  1  0
 22 21  1  0
 23 24  1  0
 23 22  2  0
 24 25  2  0
 25 26  1  0
 26 18  1  0
 27 28  1  0
 29 27  2  0
M  END
$$$$
