TVW.pdb
     RDKit          3D

 29 30  0  0  1  0  0  0  0  0999 V2000
   18.6725  -11.9214  -18.1377 C   0  0  0  0  0  0  0  0  0  0  0  0
   18.5707  -13.3636  -17.7592 C   0  0  1  0  0  0  0  0  0  0  0  0
   18.0800  -14.0458  -18.8961 O   0  0  0  0  0  0  0  0  0  0  0  0
   19.9142  -13.9890  -17.4534 C   0  0  2  0  0  0  0  0  0  0  0  0
   19.7801  -15.3962  -17.1897 N   0  0  0  0  0  0  0  0  0  0  0  0
   20.4902  -13.2725  -16.2877 C   0  0  0  0  0  0  0  0  0  0  0  0
   19.9731  -13.4102  -15.1538 O   0  0  0  0  0  0  0  0  0  0  0  0
   24.1665  -11.1780  -16.7477 C   0  0  0  0  0  0  0  0  0  0  0  0
   23.6265  -11.6321  -15.3957 C   0  0  2  0  0  0  0  0  0  0  0  0
   24.0697  -13.0506  -15.1176 C   0  0  0  0  0  0  0  0  0  0  0  0
   22.1203  -11.5830  -15.3796 C   0  0  2  0  0  0  0  0  0  0  0  0
   21.6296  -12.4257  -16.4499 N   0  0  0  0  0  0  0  0  0  0  0  0
   21.6116  -10.1905  -15.6099 C   0  0  0  0  0  0  0  0  0  0  0  0
   21.3582   -9.7857  -16.7874 O   0  0  0  0  0  0  0  0  0  0  0  0
   21.3946   -9.2833  -14.5509 N   0  0  0  0  0  0  0  0  0  0  0  0
   20.7722   -7.9910  -14.8102 C   0  0  1  0  0  0  0  0  0  0  0  0
   19.5111   -8.1466  -15.6014 C   0  0  0  0  0  0  0  0  0  0  0  0
   18.7801   -6.9014  -15.8813 C   0  0  0  0  0  0  0  0  0  0  0  0
   19.3993   -5.6504  -16.0885 C   0  0  0  0  0  0  0  0  0  0  0  0
   18.4777   -4.7227  -16.3510 N   0  0  0  0  0  0  0  0  0  0  0  0
   17.2462   -5.2932  -16.3309 C   0  0  0  0  0  0  0  0  0  0  0  0
   16.0079   -4.7291  -16.5364 C   0  0  0  0  0  0  0  0  0  0  0  0
   14.9038   -5.5456  -16.4467 C   0  0  0  0  0  0  0  0  0  0  0  0
   15.0745   -6.8860  -16.1568 C   0  0  0  0  0  0  0  0  0  0  0  0
   16.3270   -7.4258  -15.9557 C   0  0  0  0  0  0  0  0  0  0  0  0
   17.4449   -6.6448  -16.0383 C   0  0  0  0  0  0  0  0  0  0  0  0
   20.6423   -7.1441  -13.6228 C   0  0  0  0  0  0  0  0  0  0  0  0
   20.2874   -7.7345  -12.4189 O   0  0  0  0  0  0  0  0  0  0  0  0
   20.8280   -5.9000  -13.6153 O   0  0  0  0  0  0  0  0  0  0  0  0
  2  1  1  6
  2  3  1  0
  2  4  1  0
  4  6  1  0
  4  5  1  1
  6  7  2  0
  9 11  1  0
  9  8  1  6
 10  9  1  0
 11 12  1  6
 12  6  1  0
 13 15  1  0
 13 11  1  0
 14 13  2  0
 16 27  1  0
 16 15  1  0
 16 17  1  1
 18 19  2  0
 18 17  1  0
 20 19  1  0
 21 26  2  0
 21 20  1  0
 22 21  1  0
 23 24  1  0
 23 22  2  0
 24 25  2  0
 25 26  1  0
 26 18  1  0
 27 28  1  0
 29 27  2  0
M  END
$$$$
