TVW.pdb
     RDKit          3D

 29 30  0  0  1  0  0  0  0  0999 V2000
   22.4884  -20.7445  -17.5117 C   0  0  0  0  0  0  0  0  0  0  0  0
   23.4689  -21.1423  -16.4563 C   0  0  1  0  0  0  0  0  0  0  0  0
   22.9527  -22.3072  -15.8439 O   0  0  0  0  0  0  0  0  0  0  0  0
   24.8155  -21.5381  -17.0218 C   0  0  2  0  0  0  0  0  0  0  0  0
   24.7054  -22.7152  -17.8404 N   0  0  0  0  0  0  0  0  0  0  0  0
   25.7375  -21.7580  -15.8791 C   0  0  0  0  0  0  0  0  0  0  0  0
   25.9837  -22.9250  -15.4927 O   0  0  0  0  0  0  0  0  0  0  0  0
   29.3342  -19.8754  -13.0804 C   0  0  0  0  0  0  0  0  0  0  0  0
   28.3141  -19.7365  -14.2056 C   0  0  2  0  0  0  0  0  0  0  0  0
   27.6268  -18.3932  -14.1107 C   0  0  0  0  0  0  0  0  0  0  0  0
   27.2720  -20.8215  -14.1172 C   0  0  2  0  0  0  0  0  0  0  0  0
   26.3451  -20.6478  -15.2160 N   0  0  0  0  0  0  0  0  0  0  0  0
   26.4979  -20.7393  -12.8347 C   0  0  0  0  0  0  0  0  0  0  0  0
   25.4303  -20.0532  -12.7715 O   0  0  0  0  0  0  0  0  0  0  0  0
   26.9106  -21.4071  -11.6620 N   0  0  0  0  0  0  0  0  0  0  0  0
   26.3320  -21.0479  -10.3732 C   0  0  1  0  0  0  0  0  0  0  0  0
   27.1787  -21.5438   -9.2428 C   0  0  0  0  0  0  0  0  0  0  0  0
   26.9016  -20.9401   -7.9305 C   0  0  0  0  0  0  0  0  0  0  0  0
   25.6122  -20.8276   -7.3681 C   0  0  0  0  0  0  0  0  0  0  0  0
   25.6882  -20.2673   -6.1602 N   0  0  0  0  0  0  0  0  0  0  0  0
   26.9857  -19.9904   -5.8732 C   0  0  0  0  0  0  0  0  0  0  0  0
   27.5385  -19.4095   -4.7548 C   0  0  0  0  0  0  0  0  0  0  0  0
   28.9030  -19.2334   -4.7265 C   0  0  0  0  0  0  0  0  0  0  0  0
   29.6609  -19.6404   -5.8081 C   0  0  0  0  0  0  0  0  0  0  0  0
   29.0815  -20.2203   -6.9165 C   0  0  0  0  0  0  0  0  0  0  0  0
   27.7301  -20.4114   -6.9779 C   0  0  0  0  0  0  0  0  0  0  0  0
   25.9430  -19.6403  -10.2671 C   0  0  0  0  0  0  0  0  0  0  0  0
   24.6416  -19.3348   -9.8971 O   0  0  0  0  0  0  0  0  0  0  0  0
   26.7136  -18.6724  -10.4946 O   0  0  0  0  0  0  0  0  0  0  0  0
  2  1  1  6
  2  3  1  0
  2  4  1  0
  4  6  1  0
  4  5  1  1
  6  7  2  0
  9 11  1  0
  9  8  1  1
 10  9  1  0
 11 12  1  6
 12  6  1  0
 13 15  1  0
 13 11  1  0
 14 13  2  0
 16 27  1  0
 16 15  1  0
 16 17  1  1
 18 19  2  0
 18 17  1  0
 20 19  1  0
 21 26  2  0
 21 20  1  0
 22 21  1  0
 23 24  1  0
 23 22  2  0
 24 25  2  0
 25 26  1  0
 26 18  1  0
 27 28  1  0
 29 27  2  0
M  END
$$$$
