TVW.pdb
     RDKit          3D

 29 30  0  0  1  0  0  0  0  0999 V2000
   27.7720  -18.3795  -16.7228 C   0  0  0  0  0  0  0  0  0  0  0  0
   26.7907  -19.2084  -15.9590 C   0  0  1  0  0  0  0  0  0  0  0  0
   25.8019  -19.6173  -16.8830 O   0  0  0  0  0  0  0  0  0  0  0  0
   27.3950  -20.4838  -15.4133 C   0  0  2  0  0  0  0  0  0  0  0  0
   27.8307  -21.3454  -16.4789 N   0  0  0  0  0  0  0  0  0  0  0  0
   26.3677  -21.1443  -14.5691 C   0  0  0  0  0  0  0  0  0  0  0  0
   25.7158  -22.1135  -15.0248 O   0  0  0  0  0  0  0  0  0  0  0  0
   24.4664  -21.7109  -10.0317 C   0  0  0  0  0  0  0  0  0  0  0  0
   25.5552  -21.2106  -10.9751 C   0  0  2  0  0  0  0  0  0  0  0  0
   25.9129  -19.7821  -10.6323 C   0  0  0  0  0  0  0  0  0  0  0  0
   25.0857  -21.2627  -12.4062 C   0  0  2  0  0  0  0  0  0  0  0  0
   26.1163  -20.6817  -13.2409 N   0  0  0  0  0  0  0  0  0  0  0  0
   23.8250  -20.4733  -12.6019 C   0  0  0  0  0  0  0  0  0  0  0  0
   23.8332  -19.2086  -12.4788 O   0  0  0  0  0  0  0  0  0  0  0  0
   22.5956  -21.0859  -12.9256 N   0  0  0  0  0  0  0  0  0  0  0  0
   21.4017  -20.2726  -13.1210 C   0  0  1  0  0  0  0  0  0  0  0  0
   21.5820  -19.3096  -14.2525 C   0  0  0  0  0  0  0  0  0  0  0  0
   21.7427  -19.9165  -15.5826 C   0  0  0  0  0  0  0  0  0  0  0  0
   20.9892  -21.0158  -16.0464 C   0  0  0  0  0  0  0  0  0  0  0  0
   21.3406  -21.3148  -17.2978 N   0  0  0  0  0  0  0  0  0  0  0  0
   22.3102  -20.4589  -17.7098 C   0  0  0  0  0  0  0  0  0  0  0  0
   22.9760  -20.3910  -18.9123 C   0  0  0  0  0  0  0  0  0  0  0  0
   23.9358  -19.4168  -19.0645 C   0  0  0  0  0  0  0  0  0  0  0  0
   24.1947  -18.5518  -18.0183 C   0  0  0  0  0  0  0  0  0  0  0  0
   23.5125  -18.6415  -16.8237 C   0  0  0  0  0  0  0  0  0  0  0  0
   22.5525  -19.5958  -16.6383 C   0  0  0  0  0  0  0  0  0  0  0  0
   20.1583  -21.0441  -13.1737 C   0  0  0  0  0  0  0  0  0  0  0  0
   18.9507  -20.3619  -13.1809 O   0  0  0  0  0  0  0  0  0  0  0  0
   20.1042  -22.3004  -13.2096 O   0  0  0  0  0  0  0  0  0  0  0  0
  2  1  1  6
  2  3  1  0
  2  4  1  0
  4  6  1  0
  4  5  1  6
  6  7  2  0
  9 11  1  0
  9  8  1  1
 10  9  1  0
 11 12  1  6
 12  6  1  0
 13 15  1  0
 13 11  1  0
 14 13  2  0
 16 27  1  0
 16 15  1  0
 16 17  1  6
 18 19  2  0
 18 17  1  0
 20 19  1  0
 21 26  2  0
 21 20  1  0
 22 21  1  0
 23 24  1  0
 23 22  2  0
 24 25  2  0
 25 26  1  0
 26 18  1  0
 27 28  1  0
 29 27  2  0
M  END
$$$$
