TVW.pdb
     RDKit          3D

 29 30  0  0  1  0  0  0  0  0999 V2000
   27.7586  -16.8706  -16.0554 C   0  0  0  0  0  0  0  0  0  0  0  0
   26.9422  -17.4293  -14.9352 C   0  0  1  0  0  0  0  0  0  0  0  0
   26.4583  -16.3243  -14.1980 O   0  0  0  0  0  0  0  0  0  0  0  0
   25.7143  -18.1726  -15.4144 C   0  0  2  0  0  0  0  0  0  0  0  0
   24.8308  -17.2977  -16.1366 N   0  0  0  0  0  0  0  0  0  0  0  0
   25.0456  -18.7537  -14.2231 C   0  0  0  0  0  0  0  0  0  0  0  0
   24.0381  -18.1882  -13.7361 O   0  0  0  0  0  0  0  0  0  0  0  0
   25.6622  -22.8499  -11.9680 C   0  0  0  0  0  0  0  0  0  0  0  0
   24.6389  -21.9288  -12.6241 C   0  0  2  0  0  0  0  0  0  0  0  0
   24.5960  -22.1891  -14.1128 C   0  0  0  0  0  0  0  0  0  0  0  0
   24.9987  -20.4834  -12.3949 C   0  0  2  0  0  0  0  0  0  0  0  0
   25.5437  -19.9530  -13.6270 N   0  0  0  0  0  0  0  0  0  0  0  0
   26.0377  -20.3372  -11.3226 C   0  0  0  0  0  0  0  0  0  0  0  0
   27.2735  -20.3776  -11.6157 O   0  0  0  0  0  0  0  0  0  0  0  0
   25.6983  -20.1513   -9.9655 N   0  0  0  0  0  0  0  0  0  0  0  0
   26.7459  -20.0170   -8.9608 C   0  0  1  0  0  0  0  0  0  0  0  0
   26.4250  -18.9268   -7.9867 C   0  0  0  0  0  0  0  0  0  0  0  0
   27.4404  -18.6824   -6.9510 C   0  0  0  0  0  0  0  0  0  0  0  0
   28.2626  -17.5365   -6.9045 C   0  0  0  0  0  0  0  0  0  0  0  0
   29.0566  -17.5873   -5.8340 N   0  0  0  0  0  0  0  0  0  0  0  0
   28.8085  -18.7292   -5.1434 C   0  0  0  0  0  0  0  0  0  0  0  0
   29.3857  -19.2064   -3.9888 C   0  0  0  0  0  0  0  0  0  0  0  0
   28.9476  -20.4160   -3.5005 C   0  0  0  0  0  0  0  0  0  0  0  0
   27.9565  -21.1008   -4.1775 C   0  0  0  0  0  0  0  0  0  0  0  0
   27.3946  -20.5998   -5.3325 C   0  0  0  0  0  0  0  0  0  0  0  0
   27.8046  -19.4015   -5.8449 C   0  0  0  0  0  0  0  0  0  0  0  0
   27.1442  -21.2836   -8.3436 C   0  0  0  0  0  0  0  0  0  0  0  0
   28.4945  -21.5350   -8.1502 O   0  0  0  0  0  0  0  0  0  0  0  0
   26.3390  -22.1765   -7.9737 O   0  0  0  0  0  0  0  0  0  0  0  0
  2  1  1  6
  2  3  1  0
  2  4  1  0
  4  6  1  0
  4  5  1  1
  6  7  2  0
  9 11  1  0
  9  8  1  1
 10  9  1  0
 11 12  1  6
 12  6  1  0
 13 15  1  0
 13 11  1  0
 14 13  2  0
 16 27  1  0
 16 15  1  0
 16 17  1  1
 18 19  2  0
 18 17  1  0
 20 19  1  0
 21 26  2  0
 21 20  1  0
 22 21  1  0
 23 24  1  0
 23 22  2  0
 24 25  2  0
 25 26  1  0
 26 18  1  0
 27 28  1  0
 29 27  2  0
M  END
$$$$
