TVW.pdb
     RDKit          3D

 29 30  0  0  1  0  0  0  0  0999 V2000
   26.0387  -16.7339  -14.8195 C   0  0  0  0  0  0  0  0  0  0  0  0
   26.5744  -17.3664  -16.0630 C   0  0  1  0  0  0  0  0  0  0  0  0
   27.3687  -16.3881  -16.7038 O   0  0  0  0  0  0  0  0  0  0  0  0
   27.5021  -18.5281  -15.7810 C   0  0  2  0  0  0  0  0  0  0  0  0
   28.1884  -18.9418  -16.9749 N   0  0  0  0  0  0  0  0  0  0  0  0
   26.6844  -19.6315  -15.2170 C   0  0  0  0  0  0  0  0  0  0  0  0
   26.0857  -20.4197  -15.9866 O   0  0  0  0  0  0  0  0  0  0  0  0
   25.7611  -21.2878  -10.7486 C   0  0  0  0  0  0  0  0  0  0  0  0
   26.6414  -21.3638  -11.9916 C   0  0  2  0  0  0  0  0  0  0  0  0
   27.8454  -20.4652  -11.8220 C   0  0  0  0  0  0  0  0  0  0  0  0
   25.8770  -20.9244  -13.2138 C   0  0  2  0  0  0  0  0  0  0  0  0
   26.5743  -19.8002  -13.8025 N   0  0  0  0  0  0  0  0  0  0  0  0
   24.4866  -20.4818  -12.8649 C   0  0  0  0  0  0  0  0  0  0  0  0
   24.2932  -19.6611  -11.9144 O   0  0  0  0  0  0  0  0  0  0  0  0
   23.3512  -20.9466  -13.5622 N   0  0  0  0  0  0  0  0  0  0  0  0
   22.0249  -20.4527  -13.2131 C   0  0  1  0  0  0  0  0  0  0  0  0
   21.8921  -18.9940  -13.5216 C   0  0  0  0  0  0  0  0  0  0  0  0
   22.0041  -18.6336  -14.9432 C   0  0  0  0  0  0  0  0  0  0  0  0
   21.2457  -19.2307  -15.9726 C   0  0  0  0  0  0  0  0  0  0  0  0
   21.5478  -18.6718  -17.1453 N   0  0  0  0  0  0  0  0  0  0  0  0
   22.4883  -17.7114  -16.9573 C   0  0  0  0  0  0  0  0  0  0  0  0
   23.1018  -16.8849  -17.8707 C   0  0  0  0  0  0  0  0  0  0  0  0
   24.0420  -15.9941  -17.4057 C   0  0  0  0  0  0  0  0  0  0  0  0
   24.3338  -15.9609  -16.0553 C   0  0  0  0  0  0  0  0  0  0  0  0
   23.7038  -16.8001  -15.1612 C   0  0  0  0  0  0  0  0  0  0  0  0
   22.7646  -17.6959  -15.5879 C   0  0  0  0  0  0  0  0  0  0  0  0
   20.9290  -21.2816  -13.7188 C   0  0  0  0  0  0  0  0  0  0  0  0
   21.2297  -22.3435  -14.5589 O   0  0  0  0  0  0  0  0  0  0  0  0
   19.7151  -21.0959  -13.4461 O   0  0  0  0  0  0  0  0  0  0  0  0
  2  1  1  1
  2  3  1  0
  2  4  1  0
  4  6  1  0
  4  5  1  6
  6  7  2  0
  9 11  1  0
  9  8  1  1
 10  9  1  0
 11 12  1  1
 12  6  1  0
 13 15  1  0
 13 11  1  0
 14 13  2  0
 16 27  1  0
 16 15  1  0
 16 17  1  6
 18 19  2  0
 18 17  1  0
 20 19  1  0
 21 26  2  0
 21 20  1  0
 22 21  1  0
 23 24  1  0
 23 22  2  0
 24 25  2  0
 25 26  1  0
 26 18  1  0
 27 28  1  0
 29 27  2  0
M  END
$$$$
