TVW.pdb
     RDKit          3D

 29 30  0  0  1  0  0  0  0  0999 V2000
   21.0778  -16.0712   12.9982 C   0  0  0  0  0  0  0  0  0  0  0  0
   22.4164  -16.6996   13.2141 C   0  0  1  0  0  0  0  0  0  0  0  0
   22.7695  -16.4456   14.5593 O   0  0  0  0  0  0  0  0  0  0  0  0
   22.3899  -18.2060   13.0742 C   0  0  2  0  0  0  0  0  0  0  0  0
   23.6874  -18.7707   13.3296 N   0  0  0  0  0  0  0  0  0  0  0  0
   21.9225  -18.5232   11.7012 C   0  0  0  0  0  0  0  0  0  0  0  0
   22.7002  -18.3764   10.7287 O   0  0  0  0  0  0  0  0  0  0  0  0
   20.5877  -21.7334   10.3070 C   0  0  0  0  0  0  0  0  0  0  0  0
   19.4948  -20.6773   10.1805 C   0  0  2  0  0  0  0  0  0  0  0  0
   18.7178  -20.8951    8.9019 C   0  0  0  0  0  0  0  0  0  0  0  0
   20.0913  -19.2935   10.1555 C   0  0  2  0  0  0  0  0  0  0  0  0
   20.5915  -18.9935   11.4807 N   0  0  0  0  0  0  0  0  0  0  0  0
   19.0668  -18.2580    9.7966 C   0  0  0  0  0  0  0  0  0  0  0  0
   17.9475  -18.2264   10.3972 O   0  0  0  0  0  0  0  0  0  0  0  0
   19.2937  -17.2896    8.7954 N   0  0  0  0  0  0  0  0  0  0  0  0
   18.2186  -16.3944    8.3860 C   0  0  1  0  0  0  0  0  0  0  0  0
   18.5838  -14.9633    8.6290 C   0  0  0  0  0  0  0  0  0  0  0  0
   18.5474  -14.0897    7.4462 C   0  0  0  0  0  0  0  0  0  0  0  0
   17.4422  -13.9836    6.5752 C   0  0  0  0  0  0  0  0  0  0  0  0
   17.6988  -13.0903    5.6186 N   0  0  0  0  0  0  0  0  0  0  0  0
   18.9428  -12.5792    5.8021 C   0  0  0  0  0  0  0  0  0  0  0  0
   19.6304  -11.6423    5.0650 C   0  0  0  0  0  0  0  0  0  0  0  0
   20.9013  -11.3066    5.4722 C   0  0  0  0  0  0  0  0  0  0  0  0
   21.4361  -11.9140    6.5924 C   0  0  0  0  0  0  0  0  0  0  0  0
   20.7252  -12.8497    7.3133 C   0  0  0  0  0  0  0  0  0  0  0  0
   19.4606  -13.2060    6.9382 C   0  0  0  0  0  0  0  0  0  0  0  0
   17.6947  -16.6674    7.0462 C   0  0  0  0  0  0  0  0  0  0  0  0
   16.3479  -16.4462    6.7995 O   0  0  0  0  0  0  0  0  0  0  0  0
   18.3869  -17.0985    6.0884 O   0  0  0  0  0  0  0  0  0  0  0  0
  2  1  1  1
  2  3  1  0
  2  4  1  0
  4  6  1  0
  4  5  1  6
  6  7  2  0
  9 11  1  0
  9  8  1  6
 10  9  1  0
 11 12  1  1
 12  6  1  0
 13 15  1  0
 13 11  1  0
 14 13  2  0
 16 27  1  0
 16 15  1  0
 16 17  1  6
 18 19  2  0
 18 17  1  0
 20 19  1  0
 21 26  2  0
 21 20  1  0
 22 21  1  0
 23 24  1  0
 23 22  2  0
 24 25  2  0
 25 26  1  0
 26 18  1  0
 27 28  1  0
 29 27  2  0
M  END
$$$$
