TVW.pdb
     RDKit          3D

 29 30  0  0  1  0  0  0  0  0999 V2000
   27.2794  -23.4492  -18.1797 C   0  0  0  0  0  0  0  0  0  0  0  0
   27.5982  -22.7622  -16.8914 C   0  0  1  0  0  0  0  0  0  0  0  0
   28.6787  -23.4677  -16.3140 O   0  0  0  0  0  0  0  0  0  0  0  0
   28.0904  -21.3445  -17.0854 C   0  0  2  0  0  0  0  0  0  0  0  0
   29.3125  -21.3218  -17.8428 N   0  0  0  0  0  0  0  0  0  0  0  0
   28.2760  -20.7437  -15.7405 C   0  0  0  0  0  0  0  0  0  0  0  0
   29.4307  -20.6167  -15.2687 O   0  0  0  0  0  0  0  0  0  0  0  0
   25.0864  -18.5646  -14.1561 C   0  0  0  0  0  0  0  0  0  0  0  0
   26.5440  -18.3345  -13.7708 C   0  0  2  0  0  0  0  0  0  0  0  0
   27.2107  -17.4466  -14.7970 C   0  0  0  0  0  0  0  0  0  0  0  0
   27.2902  -19.6421  -13.7032 C   0  0  2  0  0  0  0  0  0  0  0  0
   27.1470  -20.3102  -14.9798 N   0  0  0  0  0  0  0  0  0  0  0  0
   26.7321  -20.5410  -12.6395 C   0  0  0  0  0  0  0  0  0  0  0  0
   26.0126  -21.5397  -12.9549 O   0  0  0  0  0  0  0  0  0  0  0  0
   26.9756  -20.3241  -11.2665 N   0  0  0  0  0  0  0  0  0  0  0  0
   26.3391  -21.1734  -10.2673 C   0  0  1  0  0  0  0  0  0  0  0  0
   27.3149  -21.5930   -9.2127 C   0  0  0  0  0  0  0  0  0  0  0  0
   27.5528  -20.6125   -8.1425 C   0  0  0  0  0  0  0  0  0  0  0  0
   26.9930  -19.3174   -8.1178 C   0  0  0  0  0  0  0  0  0  0  0  0
   27.3668  -18.6794   -7.0077 N   0  0  0  0  0  0  0  0  0  0  0  0
   28.1648  -19.4916   -6.2689 C   0  0  0  0  0  0  0  0  0  0  0  0
   28.7854  -19.2607   -5.0624 C   0  0  0  0  0  0  0  0  0  0  0  0
   29.5581  -20.2677   -4.5310 C   0  0  0  0  0  0  0  0  0  0  0  0
   29.6830  -21.4601   -5.2182 C   0  0  0  0  0  0  0  0  0  0  0  0
   29.0499  -21.6655   -6.4255 C   0  0  0  0  0  0  0  0  0  0  0  0
   28.2741  -20.6881   -6.9818 C   0  0  0  0  0  0  0  0  0  0  0  0
   25.0781  -20.6395   -9.7487 C   0  0  0  0  0  0  0  0  0  0  0  0
   24.2783  -21.4602   -8.9673 O   0  0  0  0  0  0  0  0  0  0  0  0
   24.6585  -19.4738   -9.9668 O   0  0  0  0  0  0  0  0  0  0  0  0
  2  1  1  6
  2  3  1  0
  2  4  1  0
  4  6  1  0
  4  5  1  1
  6  7  2  0
  9 11  1  0
  9  8  1  6
 10  9  1  0
 11 12  1  6
 12  6  1  0
 13 15  1  0
 13 11  1  0
 14 13  2  0
 16 27  1  0
 16 15  1  0
 16 17  1  1
 18 19  2  0
 18 17  1  0
 20 19  1  0
 21 26  2  0
 21 20  1  0
 22 21  1  0
 23 24  1  0
 23 22  2  0
 24 25  2  0
 25 26  1  0
 26 18  1  0
 27 28  1  0
 29 27  2  0
M  END
$$$$
