TVW.pdb
     RDKit          3D

 29 30  0  0  1  0  0  0  0  0999 V2000
   28.3346  -19.7811  -14.2181 C   0  0  0  0  0  0  0  0  0  0  0  0
   27.9245  -18.7429  -15.2118 C   0  0  1  0  0  0  0  0  0  0  0  0
   28.7951  -18.8763  -16.3177 O   0  0  0  0  0  0  0  0  0  0  0  0
   26.5309  -18.9667  -15.7571 C   0  0  2  0  0  0  0  0  0  0  0  0
   26.2341  -18.0358  -16.8121 N   0  0  0  0  0  0  0  0  0  0  0  0
   25.5771  -18.8269  -14.6280 C   0  0  0  0  0  0  0  0  0  0  0  0
   24.6091  -18.0359  -14.7242 O   0  0  0  0  0  0  0  0  0  0  0  0
   23.6194  -21.6609  -12.9811 C   0  0  0  0  0  0  0  0  0  0  0  0
   23.5031  -20.1461  -12.8479 C   0  0  2  0  0  0  0  0  0  0  0  0
   23.1773  -19.5374  -14.1930 C   0  0  0  0  0  0  0  0  0  0  0  0
   24.7958  -19.5542  -12.3483 C   0  0  2  0  0  0  0  0  0  0  0  0
   25.7560  -19.5873  -13.4316 N   0  0  0  0  0  0  0  0  0  0  0  0
   25.3566  -20.3428  -11.2019 C   0  0  0  0  0  0  0  0  0  0  0  0
   25.8009  -21.5187  -11.3874 O   0  0  0  0  0  0  0  0  0  0  0  0
   25.4161  -19.8260   -9.8901 N   0  0  0  0  0  0  0  0  0  0  0  0
   26.2001  -20.5097   -8.8689 C   0  0  1  0  0  0  0  0  0  0  0  0
   27.1828  -19.5800   -8.2283 C   0  0  0  0  0  0  0  0  0  0  0  0
   28.0524  -20.1821   -7.2062 C   0  0  0  0  0  0  0  0  0  0  0  0
   28.5672  -21.4939   -7.2790 C   0  0  0  0  0  0  0  0  0  0  0  0
   29.3452  -21.7383   -6.2235 N   0  0  0  0  0  0  0  0  0  0  0  0
   29.3822  -20.6395   -5.4275 C   0  0  0  0  0  0  0  0  0  0  0  0
   30.0429  -20.4321   -4.2383 C   0  0  0  0  0  0  0  0  0  0  0  0
   29.8989  -19.2088   -3.6248 C   0  0  0  0  0  0  0  0  0  0  0  0
   29.1061  -18.2437   -4.2162 C   0  0  0  0  0  0  0  0  0  0  0  0
   28.4553  -18.4775   -5.4089 C   0  0  0  0  0  0  0  0  0  0  0  0
   28.5768  -19.6800   -6.0460 C   0  0  0  0  0  0  0  0  0  0  0  0
   25.3969  -21.2880   -7.9239 C   0  0  0  0  0  0  0  0  0  0  0  0
   24.0318  -21.3986   -8.1429 O   0  0  0  0  0  0  0  0  0  0  0  0
   25.8610  -21.8696   -6.9096 O   0  0  0  0  0  0  0  0  0  0  0  0
  2  1  1  1
  2  3  1  0
  2  4  1  0
  4  6  1  0
  4  5  1  6
  6  7  2  0
  9 11  1  0
  9  8  1  6
 10  9  1  0
 11 12  1  6
 12  6  1  0
 13 15  1  0
 13 11  1  0
 14 13  2  0
 16 27  1  0
 16 15  1  0
 16 17  1  1
 18 19  2  0
 18 17  1  0
 20 19  1  0
 21 26  2  0
 21 20  1  0
 22 21  1  0
 23 24  1  0
 23 22  2  0
 24 25  2  0
 25 26  1  0
 26 18  1  0
 27 28  1  0
 29 27  2  0
M  END
$$$$
