TVW.pdb
     RDKit          3D

 29 30  0  0  1  0  0  0  0  0999 V2000
   16.4410  -24.5433    1.1432 C   0  0  0  0  0  0  0  0  0  0  0  0
   16.1655  -23.1337    1.5563 C   0  0  1  0  0  0  0  0  0  0  0  0
   17.3001  -22.3755    1.1869 O   0  0  0  0  0  0  0  0  0  0  0  0
   15.0005  -22.5183    0.8121 C   0  0  2  0  0  0  0  0  0  0  0  0
   15.2349  -22.5215   -0.6065 N   0  0  0  0  0  0  0  0  0  0  0  0
   14.8151  -21.1382    1.3269 C   0  0  0  0  0  0  0  0  0  0  0  0
   14.9057  -20.1634    0.5435 O   0  0  0  0  0  0  0  0  0  0  0  0
   11.7008  -19.9554    3.2156 C   0  0  0  0  0  0  0  0  0  0  0  0
   12.9435  -19.7642    4.0788 C   0  0  2  0  0  0  0  0  0  0  0  0
   12.7876  -18.5269    4.9336 C   0  0  0  0  0  0  0  0  0  0  0  0
   14.1710  -19.6076    3.2186 C   0  0  2  0  0  0  0  0  0  0  0  0
   14.5353  -20.9134    2.7098 N   0  0  0  0  0  0  0  0  0  0  0  0
   15.3307  -19.0718    4.0052 C   0  0  0  0  0  0  0  0  0  0  0  0
   15.8905  -19.7879    4.8931 O   0  0  0  0  0  0  0  0  0  0  0  0
   15.8443  -17.7735    3.7997 N   0  0  0  0  0  0  0  0  0  0  0  0
   16.9135  -17.2662    4.6509 C   0  0  1  0  0  0  0  0  0  0  0  0
   17.8460  -16.3843    3.8808 C   0  0  0  0  0  0  0  0  0  0  0  0
   18.7942  -15.6036    4.6900 C   0  0  0  0  0  0  0  0  0  0  0  0
   19.6037  -16.1519    5.7076 C   0  0  0  0  0  0  0  0  0  0  0  0
   20.3781  -15.2031    6.2359 N   0  0  0  0  0  0  0  0  0  0  0  0
   20.1282  -14.0215    5.6165 C   0  0  0  0  0  0  0  0  0  0  0  0
   20.6783  -12.7783    5.8305 C   0  0  0  0  0  0  0  0  0  0  0  0
   20.2301  -11.7323    5.0567 C   0  0  0  0  0  0  0  0  0  0  0  0
   19.2558  -11.9634    4.1043 C   0  0  0  0  0  0  0  0  0  0  0  0
   18.7217  -13.2194    3.9100 C   0  0  0  0  0  0  0  0  0  0  0  0
   19.1440  -14.2808    4.6595 C   0  0  0  0  0  0  0  0  0  0  0  0
   16.4470  -16.6968    5.9166 C   0  0  0  0  0  0  0  0  0  0  0  0
   17.0773  -17.0787    7.0916 O   0  0  0  0  0  0  0  0  0  0  0  0
   15.4986  -15.8766    6.0185 O   0  0  0  0  0  0  0  0  0  0  0  0
  2  1  1  6
  2  3  1  0
  2  4  1  0
  4  6  1  0
  4  5  1  6
  6  7  2  0
  9 11  1  0
  9  8  1  6
 10  9  1  0
 11 12  1  1
 12  6  1  0
 13 15  1  0
 13 11  1  0
 14 13  2  0
 16 27  1  0
 16 15  1  0
 16 17  1  6
 18 19  2  0
 18 17  1  0
 20 19  1  0
 21 26  2  0
 21 20  1  0
 22 21  1  0
 23 24  1  0
 23 22  2  0
 24 25  2  0
 25 26  1  0
 26 18  1  0
 27 28  1  0
 29 27  2  0
M  END
$$$$
