TVW.pdb
     RDKit          3D

 29 30  0  0  1  0  0  0  0  0999 V2000
   27.3348  -14.9862  -14.6702 C   0  0  0  0  0  0  0  0  0  0  0  0
   26.5873  -16.2202  -14.2803 C   0  0  1  0  0  0  0  0  0  0  0  0
   25.2231  -15.9692  -14.5534 O   0  0  0  0  0  0  0  0  0  0  0  0
   26.9590  -17.4241  -15.1183 C   0  0  2  0  0  0  0  0  0  0  0  0
   26.7133  -17.1772  -16.5134 N   0  0  0  0  0  0  0  0  0  0  0  0
   26.1665  -18.5786  -14.6253 C   0  0  0  0  0  0  0  0  0  0  0  0
   25.2602  -19.0643  -15.3428 O   0  0  0  0  0  0  0  0  0  0  0  0
   25.7249  -22.8227  -13.5027 C   0  0  0  0  0  0  0  0  0  0  0  0
   26.3220  -21.4694  -13.8739 C   0  0  2  0  0  0  0  0  0  0  0  0
   27.8312  -21.5446  -13.8238 C   0  0  0  0  0  0  0  0  0  0  0  0
   25.8578  -20.4015  -12.9171 C   0  0  2  0  0  0  0  0  0  0  0  0
   26.4292  -19.1393  -13.3376 N   0  0  0  0  0  0  0  0  0  0  0  0
   26.3169  -20.6792  -11.5161 C   0  0  0  0  0  0  0  0  0  0  0  0
   27.4305  -20.2275  -11.1035 O   0  0  0  0  0  0  0  0  0  0  0  0
   25.5487  -21.4396  -10.6088 N   0  0  0  0  0  0  0  0  0  0  0  0
   25.4768  -21.0511   -9.2057 C   0  0  1  0  0  0  0  0  0  0  0  0
   26.2685  -19.8074   -8.9472 C   0  0  0  0  0  0  0  0  0  0  0  0
   27.4940  -19.9888   -8.1544 C   0  0  0  0  0  0  0  0  0  0  0  0
   28.7059  -20.4898   -8.6755 C   0  0  0  0  0  0  0  0  0  0  0  0
   29.6398  -20.5070   -7.7233 N   0  0  0  0  0  0  0  0  0  0  0  0
   29.1110  -20.0353   -6.5656 C   0  0  0  0  0  0  0  0  0  0  0  0
   29.6926  -19.8783   -5.3282 C   0  0  0  0  0  0  0  0  0  0  0  0
   28.9149  -19.3801   -4.3081 C   0  0  0  0  0  0  0  0  0  0  0  0
   27.5942  -19.0592   -4.5581 C   0  0  0  0  0  0  0  0  0  0  0  0
   27.0363  -19.2259   -5.8078 C   0  0  0  0  0  0  0  0  0  0  0  0
   27.7795  -19.7170   -6.8438 C   0  0  0  0  0  0  0  0  0  0  0  0
   24.1168  -21.0278   -8.6636 C   0  0  0  0  0  0  0  0  0  0  0  0
   23.9350  -21.2668   -7.3095 O   0  0  0  0  0  0  0  0  0  0  0  0
   23.0844  -20.8073   -9.3478 O   0  0  0  0  0  0  0  0  0  0  0  0
  2  1  1  6
  2  3  1  0
  2  4  1  0
  4  6  1  0
  4  5  1  6
  6  7  2  0
  9 11  1  0
  9  8  1  1
 10  9  1  0
 11 12  1  6
 12  6  1  0
 13 15  1  0
 13 11  1  0
 14 13  2  0
 16 27  1  0
 16 15  1  0
 16 17  1  6
 18 19  2  0
 18 17  1  0
 20 19  1  0
 21 26  2  0
 21 20  1  0
 22 21  1  0
 23 24  1  0
 23 22  2  0
 24 25  2  0
 25 26  1  0
 26 18  1  0
 27 28  1  0
 29 27  2  0
M  END
$$$$
