TVW.pdb
     RDKit          3D

 29 30  0  0  1  0  0  0  0  0999 V2000
   21.0039  -10.0156  -17.4552 C   0  0  0  0  0  0  0  0  0  0  0  0
   21.9465  -10.6017  -18.4559 C   0  0  1  0  0  0  0  0  0  0  0  0
   21.5013  -11.9199  -18.7063 O   0  0  0  0  0  0  0  0  0  0  0  0
   21.9031   -9.8930  -19.7922 C   0  0  2  0  0  0  0  0  0  0  0  0
   22.7930  -10.5149  -20.7350 N   0  0  0  0  0  0  0  0  0  0  0  0
   22.2665   -8.4722  -19.5611 C   0  0  0  0  0  0  0  0  0  0  0  0
   23.4726   -8.1297  -19.5601 O   0  0  0  0  0  0  0  0  0  0  0  0
   21.0150   -3.7818  -19.8050 C   0  0  0  0  0  0  0  0  0  0  0  0
   20.9098   -5.2649  -20.1444 C   0  0  2  0  0  0  0  0  0  0  0  0
   19.4553   -5.6637  -20.2515 C   0  0  0  0  0  0  0  0  0  0  0  0
   21.5650   -6.1036  -19.0774 C   0  0  2  0  0  0  0  0  0  0  0  0
   21.2504   -7.4927  -19.3385 N   0  0  0  0  0  0  0  0  0  0  0  0
   21.0522   -5.7566  -17.7109 C   0  0  0  0  0  0  0  0  0  0  0  0
   19.8875   -6.1156  -17.3515 O   0  0  0  0  0  0  0  0  0  0  0  0
   21.8240   -5.0302  -16.7791 N   0  0  0  0  0  0  0  0  0  0  0  0
   21.2849   -4.7297  -15.4585 C   0  0  1  0  0  0  0  0  0  0  0  0
   22.2047   -5.2048  -14.3775 C   0  0  0  0  0  0  0  0  0  0  0  0
   22.3914   -6.6616  -14.2982 C   0  0  0  0  0  0  0  0  0  0  0  0
   23.3165   -7.3841  -15.0815 C   0  0  0  0  0  0  0  0  0  0  0  0
   23.2750   -8.6778  -14.7598 N   0  0  0  0  0  0  0  0  0  0  0  0
   22.3526   -8.8693  -13.7826 C   0  0  0  0  0  0  0  0  0  0  0  0
   21.9645  -10.0276  -13.1489 C   0  0  0  0  0  0  0  0  0  0  0  0
   20.9847   -9.9397  -12.1866 C   0  0  0  0  0  0  0  0  0  0  0  0
   20.4315   -8.7076  -11.8940 C   0  0  0  0  0  0  0  0  0  0  0  0
   20.8391   -7.5621  -12.5439 C   0  0  0  0  0  0  0  0  0  0  0  0
   21.8101   -7.6124  -13.5037 C   0  0  0  0  0  0  0  0  0  0  0  0
   20.8291   -3.3470  -15.3024 C   0  0  0  0  0  0  0  0  0  0  0  0
   20.0511   -3.0222  -14.2010 O   0  0  0  0  0  0  0  0  0  0  0  0
   21.0922   -2.4182  -16.1090 O   0  0  0  0  0  0  0  0  0  0  0  0
  2  1  1  1
  2  3  1  0
  2  4  1  0
  4  6  1  0
  4  5  1  6
  6  7  2  0
  9 11  1  0
  9  8  1  1
 10  9  1  0
 11 12  1  6
 12  6  1  0
 13 15  1  0
 13 11  1  0
 14 13  2  0
 16 27  1  0
 16 15  1  0
 16 17  1  1
 18 19  2  0
 18 17  1  0
 20 19  1  0
 21 26  2  0
 21 20  1  0
 22 21  1  0
 23 24  1  0
 23 22  2  0
 24 25  2  0
 25 26  1  0
 26 18  1  0
 27 28  1  0
 29 27  2  0
M  END
$$$$
