TDV.pdb
     RDKit          3D

 23 22  0  0  1  0  0  0  0  0999 V2000
   23.3201  -11.3687  -15.7630 C   0  0  0  0  0  0  0  0  0  0  0  0
   22.7130  -11.7615  -17.1069 C   0  0  1  0  0  0  0  0  0  0  0  0
   23.1993  -13.0252  -17.4820 O   0  0  0  0  0  0  0  0  0  0  0  0
   21.2157  -11.8028  -16.9916 C   0  0  2  0  0  0  0  0  0  0  0  0
   20.6532  -12.2964  -18.2417 N   0  0  0  0  0  0  0  0  0  0  0  0
   20.6649  -10.4540  -16.6684 C   0  0  0  0  0  0  0  0  0  0  0  0
   20.7827   -9.5371  -17.5200 O   0  0  0  0  0  0  0  0  0  0  0  0
   20.0293  -10.2227  -15.4347 N   0  0  0  0  0  0  0  0  0  0  0  0
   19.3876   -8.8788  -15.1980 C   0  0  1  0  0  0  0  0  0  0  0  0
   18.2398   -9.1423  -14.2767 C   0  0  0  0  0  0  0  0  0  0  0  0
   17.0652   -9.8239  -14.7449 C   0  0  0  0  0  0  0  0  0  0  0  0
   16.4316   -9.5758  -15.7648 O   0  0  0  0  0  0  0  0  0  0  0  0
   20.4744   -8.0468  -14.6368 C   0  0  0  0  0  0  0  0  0  0  0  0
   21.2380   -8.5436  -13.7337 O   0  0  0  0  0  0  0  0  0  0  0  0
   16.5844  -10.8929  -13.9527 O   0  0  0  0  0  0  0  0  0  0  0  0
   22.0878   -4.7816  -16.6998 C   0  0  0  0  0  0  0  0  0  0  0  0
   22.8246   -5.5441  -15.6158 C   0  0  1  0  0  0  0  0  0  0  0  0
   23.9334   -4.7057  -15.0744 C   0  0  0  0  0  0  0  0  0  0  0  0
   21.9198   -5.9980  -14.5212 C   0  0  2  0  0  0  0  0  0  0  0  0
   20.7528   -6.7263  -15.0217 N   0  0  0  0  0  0  0  0  0  0  0  0
   21.4584   -4.8485  -13.6619 C   0  0  0  0  0  0  0  0  0  0  0  0
   20.1607   -4.3681  -13.7304 O   0  0  0  0  0  0  0  0  0  0  0  0
   22.2389   -4.2856  -12.8513 O   0  0  0  0  0  0  0  0  0  0  0  0
  2  1  1  1
  3  2  1  0
  4  5  1  6
  4  2  1  0
  6  4  1  0
  7  6  2  0
  8  6  1  0
  9  8  1  0
  9 10  1  1
 10 11  1  0
 11 15  1  0
 11 12  2  0
 13  9  1  0
 13 20  1  0
 14 13  2  0
 17 16  1  6
 18 17  1  0
 19 20  1  6
 19 17  1  0
 21 19  1  0
 21 22  1  0
 23 21  2  0
M  END
$$$$
