TDV.pdb
     RDKit          3D

 23 22  0  0  1  0  0  0  0  0999 V2000
   13.1240  -13.1671  -10.9380 C   0  0  0  0  0  0  0  0  0  0  0  0
   12.8356  -12.4975  -12.2786 C   0  0  1  0  0  0  0  0  0  0  0  0
   12.3271  -11.2076  -12.0509 O   0  0  0  0  0  0  0  0  0  0  0  0
   14.1010  -12.4140  -13.0839 C   0  0  2  0  0  0  0  0  0  0  0  0
   14.6485  -13.7534  -13.2545 N   0  0  0  0  0  0  0  0  0  0  0  0
   15.0994  -11.5226  -12.4239 C   0  0  0  0  0  0  0  0  0  0  0  0
   15.8783  -12.0199  -11.5720 O   0  0  0  0  0  0  0  0  0  0  0  0
   15.1602  -10.1563  -12.7540 N   0  0  0  0  0  0  0  0  0  0  0  0
   16.2318   -9.3097  -12.1147 C   0  0  1  0  0  0  0  0  0  0  0  0
   17.1409   -8.9075  -13.2316 C   0  0  0  0  0  0  0  0  0  0  0  0
   18.2550   -8.0330  -12.9916 C   0  0  0  0  0  0  0  0  0  0  0  0
   18.9321   -7.9719  -11.9713 O   0  0  0  0  0  0  0  0  0  0  0  0
   15.4903   -8.2040  -11.4699 C   0  0  0  0  0  0  0  0  0  0  0  0
   14.4901   -7.6832  -12.0814 O   0  0  0  0  0  0  0  0  0  0  0  0
   18.6137   -7.1485  -14.0359 O   0  0  0  0  0  0  0  0  0  0  0  0
   13.3331   -7.8370   -8.4235 C   0  0  0  0  0  0  0  0  0  0  0  0
   14.4519   -6.8176   -8.3312 C   0  0  1  0  0  0  0  0  0  0  0  0
   15.4845   -7.2887   -7.3631 C   0  0  0  0  0  0  0  0  0  0  0  0
   15.0647   -6.5205   -9.6575 C   0  0  2  0  0  0  0  0  0  0  0  0
   15.7919   -7.6645  -10.2100 N   0  0  0  0  0  0  0  0  0  0  0  0
   15.9850   -5.3282   -9.5957 C   0  0  0  0  0  0  0  0  0  0  0  0
   15.4934   -4.0396   -9.4630 O   0  0  0  0  0  0  0  0  0  0  0  0
   17.2341   -5.4640   -9.6627 O   0  0  0  0  0  0  0  0  0  0  0  0
  2  1  1  1
  3  2  1  0
  4  5  1  1
  4  2  1  0
  6  4  1  0
  7  6  2  0
  8  6  1  0
  9  8  1  0
  9 10  1  6
 10 11  1  0
 11 15  1  0
 11 12  2  0
 13  9  1  0
 13 20  1  0
 14 13  2  0
 17 16  1  6
 18 17  1  0
 19 20  1  1
 19 17  1  0
 21 19  1  0
 21 22  1  0
 23 21  2  0
M  END
$$$$
