TDV.pdb
     RDKit          3D

 23 22  0  0  1  0  0  0  0  0999 V2000
   28.7353  -21.9114  -14.3971 C   0  0  0  0  0  0  0  0  0  0  0  0
   28.3030  -21.2177  -13.1084 C   0  0  1  0  0  0  0  0  0  0  0  0
   29.1824  -20.1557  -12.8380 O   0  0  0  0  0  0  0  0  0  0  0  0
   26.9025  -20.6963  -13.2611 C   0  0  2  0  0  0  0  0  0  0  0  0
   26.8816  -19.6799  -14.3048 N   0  0  0  0  0  0  0  0  0  0  0  0
   26.3961  -20.1336  -11.9749 C   0  0  0  0  0  0  0  0  0  0  0  0
   26.3798  -18.8851  -11.8305 O   0  0  0  0  0  0  0  0  0  0  0  0
   25.9489  -20.9894  -10.9517 N   0  0  0  0  0  0  0  0  0  0  0  0
   25.3825  -20.3744   -9.6969 C   0  0  1  0  0  0  0  0  0  0  0  0
   24.0298  -20.9886   -9.5277 C   0  0  0  0  0  0  0  0  0  0  0  0
   22.9188  -20.5465  -10.3239 C   0  0  0  0  0  0  0  0  0  0  0  0
   22.3313  -19.4744  -10.2308 O   0  0  0  0  0  0  0  0  0  0  0  0
   26.3683  -20.7098   -8.6462 C   0  0  0  0  0  0  0  0  0  0  0  0
   26.7862  -21.9185   -8.5456 O   0  0  0  0  0  0  0  0  0  0  0  0
   22.4491  -21.4343  -11.3201 O   0  0  0  0  0  0  0  0  0  0  0  0
   27.6701  -18.0566   -5.3776 C   0  0  0  0  0  0  0  0  0  0  0  0
   28.5664  -19.0645   -6.0705 C   0  0  1  0  0  0  0  0  0  0  0  0
   29.6081  -19.5503   -5.1196 C   0  0  0  0  0  0  0  0  0  0  0  0
   27.8017  -20.2066   -6.6483 C   0  0  2  0  0  0  0  0  0  0  0  0
   26.9041  -19.7935   -7.7283 N   0  0  0  0  0  0  0  0  0  0  0  0
   27.0099  -20.9408   -5.5964 C   0  0  0  0  0  0  0  0  0  0  0  0
   27.6117  -21.8452   -4.7364 O   0  0  0  0  0  0  0  0  0  0  0  0
   25.7723  -20.7560   -5.4639 O   0  0  0  0  0  0  0  0  0  0  0  0
  2  1  1  6
  3  2  1  0
  4  5  1  6
  4  2  1  0
  6  4  1  0
  7  6  2  0
  8  6  1  0
  9  8  1  0
  9 10  1  1
 10 11  1  0
 11 15  1  0
 11 12  2  0
 13  9  1  0
 13 20  1  0
 14 13  2  0
 17 16  1  1
 18 17  1  0
 19 20  1  6
 19 17  1  0
 21 19  1  0
 21 22  1  0
 23 21  2  0
M  END
$$$$
