TDV.pdb
     RDKit          3D

 23 22  0  0  1  0  0  0  0  0999 V2000
   27.5748  -21.6595  -20.7562 C   0  0  0  0  0  0  0  0  0  0  0  0
   27.8826  -23.1500  -20.6441 C   0  0  1  0  0  0  0  0  0  0  0  0
   27.3100  -23.8235  -21.7363 O   0  0  0  0  0  0  0  0  0  0  0  0
   29.3702  -23.3591  -20.6366 C   0  0  2  0  0  0  0  0  0  0  0  0
   29.9041  -23.0441  -21.9551 N   0  0  0  0  0  0  0  0  0  0  0  0
   29.7132  -24.7608  -20.2562 C   0  0  0  0  0  0  0  0  0  0  0  0
   30.0338  -25.5684  -21.1643 O   0  0  0  0  0  0  0  0  0  0  0  0
   29.6758  -25.1609  -18.9079 N   0  0  0  0  0  0  0  0  0  0  0  0
   30.0456  -26.5831  -18.5699 C   0  0  1  0  0  0  0  0  0  0  0  0
   31.1127  -26.4804  -17.5276 C   0  0  0  0  0  0  0  0  0  0  0  0
   31.9280  -25.3019  -17.4265 C   0  0  0  0  0  0  0  0  0  0  0  0
   31.8083  -24.2700  -18.0776 O   0  0  0  0  0  0  0  0  0  0  0  0
   28.7762  -27.1958  -18.1210 C   0  0  0  0  0  0  0  0  0  0  0  0
   27.8965  -26.4594  -17.5470 O   0  0  0  0  0  0  0  0  0  0  0  0
   32.9792  -25.3276  -16.4801 O   0  0  0  0  0  0  0  0  0  0  0  0
   27.6665  -31.3883  -18.6927 C   0  0  0  0  0  0  0  0  0  0  0  0
   26.7173  -30.2138  -18.8292 C   0  0  1  0  0  0  0  0  0  0  0  0
   25.3235  -30.6546  -18.5313 C   0  0  0  0  0  0  0  0  0  0  0  0
   27.1054  -29.0623  -17.9652 C   0  0  2  0  0  0  0  0  0  0  0  0
   28.4402  -28.5492  -18.2781 N   0  0  0  0  0  0  0  0  0  0  0  0
   27.0372  -29.4121  -16.5005 C   0  0  0  0  0  0  0  0  0  0  0  0
   25.8885  -29.1956  -15.7566 O   0  0  0  0  0  0  0  0  0  0  0  0
   28.0242  -29.9141  -15.9029 O   0  0  0  0  0  0  0  0  0  0  0  0
  2  1  1  6
  3  2  1  0
  4  5  1  6
  4  2  1  0
  6  4  1  0
  7  6  2  0
  8  6  1  0
  9  8  1  0
  9 10  1  1
 10 11  1  0
 11 15  1  0
 11 12  2  0
 13  9  1  0
 13 20  1  0
 14 13  2  0
 17 16  1  1
 18 17  1  0
 19 20  1  6
 19 17  1  0
 21 19  1  0
 21 22  1  0
 23 21  2  0
M  END
$$$$
