TDV.pdb
     RDKit          3D

 23 22  0  0  1  0  0  0  0  0999 V2000
   14.3711  -11.7899  -15.8506 C   0  0  0  0  0  0  0  0  0  0  0  0
   15.7570  -11.1607  -15.7407 C   0  0  1  0  0  0  0  0  0  0  0  0
   16.2160  -11.2820  -14.4182 O   0  0  0  0  0  0  0  0  0  0  0  0
   16.7033  -11.8569  -16.6768 C   0  0  2  0  0  0  0  0  0  0  0  0
   16.8175  -13.2564  -16.2881 N   0  0  0  0  0  0  0  0  0  0  0  0
   18.0445  -11.2024  -16.6691 C   0  0  0  0  0  0  0  0  0  0  0  0
   18.9627  -11.7221  -15.9860 O   0  0  0  0  0  0  0  0  0  0  0  0
   18.2673  -10.0293  -17.4131 N   0  0  0  0  0  0  0  0  0  0  0  0
   19.6503   -9.4283  -17.4101 C   0  0  1  0  0  0  0  0  0  0  0  0
   19.7345   -8.6164  -18.6629 C   0  0  0  0  0  0  0  0  0  0  0  0
   20.8658   -7.7667  -18.9113 C   0  0  0  0  0  0  0  0  0  0  0  0
   20.8378   -6.6049  -19.3020 O   0  0  0  0  0  0  0  0  0  0  0  0
   19.7132   -8.6582  -16.1487 C   0  0  0  0  0  0  0  0  0  0  0  0
   18.6379   -8.1382  -15.6806 O   0  0  0  0  0  0  0  0  0  0  0  0
   22.1474   -8.3207  -18.6835 O   0  0  0  0  0  0  0  0  0  0  0  0
   22.7560   -9.1153  -13.2284 C   0  0  0  0  0  0  0  0  0  0  0  0
   21.3534   -8.5911  -12.9892 C   0  0  1  0  0  0  0  0  0  0  0  0
   21.3083   -7.8418  -11.6999 C   0  0  0  0  0  0  0  0  0  0  0  0
   20.8611   -7.7435  -14.1127 C   0  0  2  0  0  0  0  0  0  0  0  0
   20.8789   -8.4460  -15.3968 N   0  0  0  0  0  0  0  0  0  0  0  0
   21.6465   -6.4627  -14.2349 C   0  0  0  0  0  0  0  0  0  0  0  0
   22.4061   -6.1831  -15.3594 O   0  0  0  0  0  0  0  0  0  0  0  0
   21.6382   -5.6021  -13.3169 O   0  0  0  0  0  0  0  0  0  0  0  0
  2  1  1  1
  3  2  1  0
  4  5  1  1
  4  2  1  0
  6  4  1  0
  7  6  2  0
  8  6  1  0
  9  8  1  0
  9 10  1  6
 10 11  1  0
 11 15  1  0
 11 12  2  0
 13  9  1  0
 13 20  1  0
 14 13  2  0
 17 16  1  6
 18 17  1  0
 19 20  1  6
 19 17  1  0
 21 19  1  0
 21 22  1  0
 23 21  2  0
M  END
$$$$
