TDV.pdb
     RDKit          3D

 23 22  0  0  1  0  0  0  0  0999 V2000
   15.5028   -9.4799  -14.6461 C   0  0  0  0  0  0  0  0  0  0  0  0
   15.5719  -10.9750  -14.9443 C   0  0  1  0  0  0  0  0  0  0  0  0
   14.3074  -11.5482  -14.7278 O   0  0  0  0  0  0  0  0  0  0  0  0
   15.9921  -11.1863  -16.3710 C   0  0  2  0  0  0  0  0  0  0  0  0
   15.9659  -12.6118  -16.6712 N   0  0  0  0  0  0  0  0  0  0  0  0
   17.3532  -10.6263  -16.6181 C   0  0  0  0  0  0  0  0  0  0  0  0
   18.3528  -11.2885  -16.2415 O   0  0  0  0  0  0  0  0  0  0  0  0
   17.5047   -9.3830  -17.2591 N   0  0  0  0  0  0  0  0  0  0  0  0
   18.8975   -8.8378  -17.4494 C   0  0  1  0  0  0  0  0  0  0  0  0
   18.7829   -7.8250  -18.5434 C   0  0  0  0  0  0  0  0  0  0  0  0
   19.9075   -7.0090  -18.9082 C   0  0  0  0  0  0  0  0  0  0  0  0
   19.8713   -5.8623  -19.3405 O   0  0  0  0  0  0  0  0  0  0  0  0
   19.2657   -8.2995  -16.1216 C   0  0  0  0  0  0  0  0  0  0  0  0
   18.3778   -7.6846  -15.4294 O   0  0  0  0  0  0  0  0  0  0  0  0
   21.1923   -7.5810  -18.7553 O   0  0  0  0  0  0  0  0  0  0  0  0
   20.4911  -10.0886  -13.0357 C   0  0  0  0  0  0  0  0  0  0  0  0
   21.4305   -8.9293  -13.3055 C   0  0  1  0  0  0  0  0  0  0  0  0
   22.7095   -9.4398  -13.8793 C   0  0  0  0  0  0  0  0  0  0  0  0
   20.8242   -7.8982  -14.1956 C   0  0  2  0  0  0  0  0  0  0  0  0
   20.5361   -8.4112  -15.5359 N   0  0  0  0  0  0  0  0  0  0  0  0
   21.6947   -6.6726  -14.3082 C   0  0  0  0  0  0  0  0  0  0  0  0
   21.8703   -5.8080  -13.2398 O   0  0  0  0  0  0  0  0  0  0  0  0
   22.2927   -6.3932  -15.3794 O   0  0  0  0  0  0  0  0  0  0  0  0
  2  1  1  6
  3  2  1  0
  4  5  1  1
  4  2  1  0
  6  4  1  0
  7  6  2  0
  8  6  1  0
  9  8  1  0
  9 10  1  6
 10 11  1  0
 11 15  1  0
 11 12  2  0
 13  9  1  0
 13 20  1  0
 14 13  2  0
 17 16  1  6
 18 17  1  0
 19 20  1  6
 19 17  1  0
 21 19  1  0
 21 22  1  0
 23 21  2  0
M  END
$$$$
