TDV.pdb
     RDKit          3D

 23 22  0  0  1  0  0  0  0  0999 V2000
   14.6135  -13.0943  -15.8863 C   0  0  0  0  0  0  0  0  0  0  0  0
   15.9559  -12.3709  -15.9439 C   0  0  1  0  0  0  0  0  0  0  0  0
   16.6449  -12.5787  -14.7371 O   0  0  0  0  0  0  0  0  0  0  0  0
   16.7657  -12.9001  -17.0932 C   0  0  2  0  0  0  0  0  0  0  0  0
   17.0168  -14.3205  -16.8875 N   0  0  0  0  0  0  0  0  0  0  0  0
   18.0529  -12.1574  -17.2297 C   0  0  0  0  0  0  0  0  0  0  0  0
   19.1201  -12.7417  -16.9143 O   0  0  0  0  0  0  0  0  0  0  0  0
   18.0623  -10.8321  -17.7020 N   0  0  0  0  0  0  0  0  0  0  0  0
   19.3927  -10.1614  -17.9339 C   0  0  1  0  0  0  0  0  0  0  0  0
   19.2423   -9.4118  -19.2189 C   0  0  0  0  0  0  0  0  0  0  0  0
   20.2854   -8.5421  -19.6870 C   0  0  0  0  0  0  0  0  0  0  0  0
   20.1430   -7.4998  -20.3165 O   0  0  0  0  0  0  0  0  0  0  0  0
   19.5970   -9.3251  -16.7309 C   0  0  0  0  0  0  0  0  0  0  0  0
   18.5864   -8.7435  -16.1962 O   0  0  0  0  0  0  0  0  0  0  0  0
   21.6168   -8.9211  -19.3950 O   0  0  0  0  0  0  0  0  0  0  0  0
   21.1181  -10.1221  -13.2594 C   0  0  0  0  0  0  0  0  0  0  0  0
   21.7886   -8.8965  -13.8490 C   0  0  1  0  0  0  0  0  0  0  0  0
   23.1437   -9.2586  -14.3572 C   0  0  0  0  0  0  0  0  0  0  0  0
   20.9726   -8.2596  -14.9220 C   0  0  2  0  0  0  0  0  0  0  0  0
   20.8343   -9.1117  -16.1042 N   0  0  0  0  0  0  0  0  0  0  0  0
   21.5338   -6.9228  -15.3348 C   0  0  0  0  0  0  0  0  0  0  0  0
   21.4624   -5.8184  -14.5012 O   0  0  0  0  0  0  0  0  0  0  0  0
   22.0877   -6.7650  -16.4535 O   0  0  0  0  0  0  0  0  0  0  0  0
  2  1  1  1
  3  2  1  0
  4  5  1  1
  4  2  1  0
  6  4  1  0
  7  6  2  0
  8  6  1  0
  9  8  1  0
  9 10  1  6
 10 11  1  0
 11 15  1  0
 11 12  2  0
 13  9  1  0
 13 20  1  0
 14 13  2  0
 17 16  1  6
 18 17  1  0
 19 20  1  6
 19 17  1  0
 21 19  1  0
 21 22  1  0
 23 21  2  0
M  END
$$$$
