TDV.pdb
     RDKit          3D

 23 22  0  0  1  0  0  0  0  0999 V2000
   19.2753  -14.1973  -15.5184 C   0  0  0  0  0  0  0  0  0  0  0  0
   19.1575  -14.5037  -17.0088 C   0  0  1  0  0  0  0  0  0  0  0  0
   18.9419  -15.8814  -17.1816 O   0  0  0  0  0  0  0  0  0  0  0  0
   18.0115  -13.7289  -17.5944 C   0  0  2  0  0  0  0  0  0  0  0  0
   17.8701  -14.0751  -19.0026 N   0  0  0  0  0  0  0  0  0  0  0  0
   18.2208  -12.2597  -17.4369 C   0  0  0  0  0  0  0  0  0  0  0  0
   18.9536  -11.6649  -18.2670 O   0  0  0  0  0  0  0  0  0  0  0  0
   17.6075  -11.5636  -16.3792 N   0  0  0  0  0  0  0  0  0  0  0  0
   17.7966  -10.0699  -16.2970 C   0  0  1  0  0  0  0  0  0  0  0  0
   16.5107   -9.5349  -15.7530 C   0  0  0  0  0  0  0  0  0  0  0  0
   15.3628   -9.3804  -16.6028 C   0  0  0  0  0  0  0  0  0  0  0  0
   15.3629   -9.0313  -17.7781 O   0  0  0  0  0  0  0  0  0  0  0  0
   18.9771   -9.8968  -15.4224 C   0  0  0  0  0  0  0  0  0  0  0  0
   18.9884  -10.4612  -14.2704 O   0  0  0  0  0  0  0  0  0  0  0  0
   14.0988   -9.6582  -16.0315 O   0  0  0  0  0  0  0  0  0  0  0  0
   22.9503   -9.0358  -16.6999 C   0  0  0  0  0  0  0  0  0  0  0  0
   22.4949   -9.6744  -15.4022 C   0  0  1  0  0  0  0  0  0  0  0  0
   23.6038   -9.6360  -14.4050 C   0  0  0  0  0  0  0  0  0  0  0  0
   21.2648   -9.0360  -14.8523 C   0  0  2  0  0  0  0  0  0  0  0  0
   20.1189   -9.1522  -15.7557 N   0  0  0  0  0  0  0  0  0  0  0  0
   21.4888   -7.5836  -14.5165 C   0  0  0  0  0  0  0  0  0  0  0  0
   22.2539   -7.2017  -13.4263 O   0  0  0  0  0  0  0  0  0  0  0  0
   20.9870   -6.6670  -15.2175 O   0  0  0  0  0  0  0  0  0  0  0  0
  2  1  1  1
  3  2  1  0
  4  5  1  6
  4  2  1  0
  6  4  1  0
  7  6  2  0
  8  6  1  0
  9  8  1  0
  9 10  1  1
 10 11  1  0
 11 15  1  0
 11 12  2  0
 13  9  1  0
 13 20  1  0
 14 13  2  0
 17 16  1  6
 18 17  1  0
 19 20  1  6
 19 17  1  0
 21 19  1  0
 21 22  1  0
 23 21  2  0
M  END
$$$$
