TDV.pdb
     RDKit          3D

 23 22  0  0  1  0  0  0  0  0999 V2000
   28.8419  -17.9166  -16.4693 C   0  0  0  0  0  0  0  0  0  0  0  0
   27.7360  -18.6276  -15.6943 C   0  0  1  0  0  0  0  0  0  0  0  0
   26.5880  -18.7120  -16.5001 O   0  0  0  0  0  0  0  0  0  0  0  0
   28.1944  -20.0057  -15.3104 C   0  0  2  0  0  0  0  0  0  0  0  0
   28.4029  -20.7941  -16.5178 N   0  0  0  0  0  0  0  0  0  0  0  0
   27.2016  -20.6721  -14.4174 C   0  0  0  0  0  0  0  0  0  0  0  0
   26.5487  -21.6474  -14.8670 O   0  0  0  0  0  0  0  0  0  0  0  0
   27.0072  -20.2118  -13.1021 N   0  0  0  0  0  0  0  0  0  0  0  0
   25.9858  -20.9101  -12.2402 C   0  0  1  0  0  0  0  0  0  0  0  0
   26.4104  -20.6507  -10.8301 C   0  0  0  0  0  0  0  0  0  0  0  0
   25.5880  -21.0670   -9.7283 C   0  0  0  0  0  0  0  0  0  0  0  0
   24.5260  -21.6759   -9.7957 O   0  0  0  0  0  0  0  0  0  0  0  0
   24.6955  -20.3049  -12.6365 C   0  0  0  0  0  0  0  0  0  0  0  0
   24.6151  -19.0303  -12.7580 O   0  0  0  0  0  0  0  0  0  0  0  0
   26.0445  -20.7448   -8.4286 O   0  0  0  0  0  0  0  0  0  0  0  0
   22.0806  -21.8620  -15.3375 C   0  0  0  0  0  0  0  0  0  0  0  0
   22.0959  -20.4374  -14.8181 C   0  0  1  0  0  0  0  0  0  0  0  0
   20.8408  -19.7398  -15.2228 C   0  0  0  0  0  0  0  0  0  0  0  0
   22.2874  -20.3700  -13.3410 C   0  0  2  0  0  0  0  0  0  0  0  0
   23.5211  -21.0252  -12.9034 N   0  0  0  0  0  0  0  0  0  0  0  0
   21.1181  -20.9620  -12.5963 C   0  0  0  0  0  0  0  0  0  0  0  0
   19.9728  -20.2249  -12.3418 O   0  0  0  0  0  0  0  0  0  0  0  0
   21.1433  -22.1491  -12.1797 O   0  0  0  0  0  0  0  0  0  0  0  0
  2  1  1  6
  3  2  1  0
  4  5  1  6
  4  2  1  0
  6  4  1  0
  7  6  2  0
  8  6  1  0
  9  8  1  0
  9 10  1  1
 10 11  1  0
 11 15  1  0
 11 12  2  0
 13  9  1  0
 13 20  1  0
 14 13  2  0
 17 16  1  1
 18 17  1  0
 19 20  1  6
 19 17  1  0
 21 19  1  0
 21 22  1  0
 23 21  2  0
M  END
$$$$
