TDV.pdb
     RDKit          3D

 23 22  0  0  1  0  0  0  0  0999 V2000
   21.4522  -11.2993  -15.4819 C   0  0  0  0  0  0  0  0  0  0  0  0
   20.8046  -11.9331  -16.7099 C   0  0  1  0  0  0  0  0  0  0  0  0
   21.2031  -13.2774  -16.8004 O   0  0  0  0  0  0  0  0  0  0  0  0
   19.3093  -11.8494  -16.5920 C   0  0  2  0  0  0  0  0  0  0  0  0
   18.7011  -12.5308  -17.7271 N   0  0  0  0  0  0  0  0  0  0  0  0
   18.8545  -10.4293  -16.5313 C   0  0  0  0  0  0  0  0  0  0  0  0
   19.1782   -9.6543  -17.4664 O   0  0  0  0  0  0  0  0  0  0  0  0
   18.0807   -9.9764  -15.4471 N   0  0  0  0  0  0  0  0  0  0  0  0
   17.7158   -8.5146  -15.3858 C   0  0  1  0  0  0  0  0  0  0  0  0
   16.4141   -8.4594  -14.6522 C   0  0  0  0  0  0  0  0  0  0  0  0
   15.2180   -8.9959  -15.2396 C   0  0  0  0  0  0  0  0  0  0  0  0
   14.8931   -8.9408  -16.4205 O   0  0  0  0  0  0  0  0  0  0  0  0
   18.8604   -7.8790  -14.6972 C   0  0  0  0  0  0  0  0  0  0  0  0
   19.2042   -8.3032  -13.5364 O   0  0  0  0  0  0  0  0  0  0  0  0
   14.3174   -9.6574  -14.3719 O   0  0  0  0  0  0  0  0  0  0  0  0
   23.1697   -5.6211  -14.5127 C   0  0  0  0  0  0  0  0  0  0  0  0
   22.0277   -6.2997  -15.2438 C   0  0  1  0  0  0  0  0  0  0  0  0
   22.3936   -7.7134  -15.5489 C   0  0  0  0  0  0  0  0  0  0  0  0
   20.7457   -6.2357  -14.4853 C   0  0  2  0  0  0  0  0  0  0  0  0
   19.6267   -6.8266  -15.2211 N   0  0  0  0  0  0  0  0  0  0  0  0
   20.3944   -4.8224  -14.0957 C   0  0  0  0  0  0  0  0  0  0  0  0
   19.3088   -4.1659  -14.6526 O   0  0  0  0  0  0  0  0  0  0  0  0
   21.0776   -4.1901  -13.2491 O   0  0  0  0  0  0  0  0  0  0  0  0
  2  1  1  1
  3  2  1  0
  4  5  1  6
  4  2  1  0
  6  4  1  0
  7  6  2  0
  8  6  1  0
  9  8  1  0
  9 10  1  1
 10 11  1  0
 11 15  1  0
 11 12  2  0
 13  9  1  0
 13 20  1  0
 14 13  2  0
 17 16  1  1
 18 17  1  0
 19 20  1  6
 19 17  1  0
 21 19  1  0
 21 22  1  0
 23 21  2  0
M  END
$$$$
