TDV.pdb
     RDKit          3D

 23 22  0  0  1  0  0  0  0  0999 V2000
   19.8206  -13.7643  -16.4007 C   0  0  0  0  0  0  0  0  0  0  0  0
   18.5249  -14.2289  -17.0597 C   0  0  1  0  0  0  0  0  0  0  0  0
   18.3862  -15.6154  -16.8796 O   0  0  0  0  0  0  0  0  0  0  0  0
   17.3585  -13.5130  -16.4401 C   0  0  2  0  0  0  0  0  0  0  0  0
   16.1205  -14.0583  -16.9811 N   0  0  0  0  0  0  0  0  0  0  0  0
   17.4353  -12.0440  -16.6917 C   0  0  0  0  0  0  0  0  0  0  0  0
   17.7471  -11.6471  -17.8428 O   0  0  0  0  0  0  0  0  0  0  0  0
   17.1631  -11.1304  -15.6570 N   0  0  0  0  0  0  0  0  0  0  0  0
   17.3669   -9.6605  -15.9244 C   0  0  1  0  0  0  0  0  0  0  0  0
   16.1945   -8.9754  -15.2983 C   0  0  0  0  0  0  0  0  0  0  0  0
   16.1177   -7.5415  -15.2597 C   0  0  0  0  0  0  0  0  0  0  0  0
   16.9974   -6.7701  -14.8933 O   0  0  0  0  0  0  0  0  0  0  0  0
   18.6802   -9.3552  -15.3159 C   0  0  0  0  0  0  0  0  0  0  0  0
   18.9473   -9.8106  -14.1467 O   0  0  0  0  0  0  0  0  0  0  0  0
   14.9050   -6.9516  -15.6874 O   0  0  0  0  0  0  0  0  0  0  0  0
   22.2010  -10.2713  -16.1211 C   0  0  0  0  0  0  0  0  0  0  0  0
   22.1395   -8.7597  -16.0176 C   0  0  1  0  0  0  0  0  0  0  0  0
   22.1633   -8.1595  -17.3831 C   0  0  0  0  0  0  0  0  0  0  0  0
   20.9508   -8.2876  -15.2514 C   0  0  2  0  0  0  0  0  0  0  0  0
   19.6886   -8.5938  -15.9265 N   0  0  0  0  0  0  0  0  0  0  0  0
   21.0176   -6.8086  -14.9677 C   0  0  0  0  0  0  0  0  0  0  0  0
   21.9259   -6.2849  -14.0619 O   0  0  0  0  0  0  0  0  0  0  0  0
   20.2484   -5.9979  -15.5460 O   0  0  0  0  0  0  0  0  0  0  0  0
  2  1  1  1
  3  2  1  0
  4  5  1  6
  4  2  1  0
  6  4  1  0
  7  6  2  0
  8  6  1  0
  9  8  1  0
  9 10  1  1
 10 11  1  0
 11 15  1  0
 11 12  2  0
 13  9  1  0
 13 20  1  0
 14 13  2  0
 17 16  1  6
 18 17  1  0
 19 20  1  6
 19 17  1  0
 21 19  1  0
 21 22  1  0
 23 21  2  0
M  END
$$$$
