TDV.pdb
     RDKit          3D

 23 22  0  0  1  0  0  0  0  0999 V2000
   19.0025  -14.5174  -16.4687 C   0  0  0  0  0  0  0  0  0  0  0  0
   19.5485  -13.0923  -16.4765 C   0  0  1  0  0  0  0  0  0  0  0  0
   20.9518  -13.1349  -16.4226 O   0  0  0  0  0  0  0  0  0  0  0  0
   19.1053  -12.3887  -17.7276 C   0  0  2  0  0  0  0  0  0  0  0  0
   19.7073  -13.0419  -18.8824 N   0  0  0  0  0  0  0  0  0  0  0  0
   19.4787  -10.9442  -17.6919 C   0  0  0  0  0  0  0  0  0  0  0  0
   20.4528  -10.5582  -18.3860 O   0  0  0  0  0  0  0  0  0  0  0  0
   18.7508  -10.0413  -16.8955 N   0  0  0  0  0  0  0  0  0  0  0  0
   19.1587   -8.5897  -16.8991 C   0  0  1  0  0  0  0  0  0  0  0  0
   17.8791   -7.8162  -16.8980 C   0  0  0  0  0  0  0  0  0  0  0  0
   17.8883   -6.3834  -16.7957 C   0  0  0  0  0  0  0  0  0  0  0  0
   18.8606   -5.6464  -16.9167 O   0  0  0  0  0  0  0  0  0  0  0  0
   19.9927   -8.4396  -15.6865 C   0  0  0  0  0  0  0  0  0  0  0  0
   19.5611   -8.9033  -14.5710 O   0  0  0  0  0  0  0  0  0  0  0  0
   16.6516   -5.7507  -16.5280 O   0  0  0  0  0  0  0  0  0  0  0  0
   22.9528   -9.9734  -14.4458 C   0  0  0  0  0  0  0  0  0  0  0  0
   23.2457   -8.4872  -14.3771 C   0  0  1  0  0  0  0  0  0  0  0  0
   24.1680   -8.1034  -15.4850 C   0  0  0  0  0  0  0  0  0  0  0  0
   22.0063   -7.6589  -14.4077 C   0  0  2  0  0  0  0  0  0  0  0  0
   21.2519   -7.8212  -15.6516 N   0  0  0  0  0  0  0  0  0  0  0  0
   22.3036   -6.1967  -14.1930 C   0  0  0  0  0  0  0  0  0  0  0  0
   22.7199   -5.7151  -12.9624 O   0  0  0  0  0  0  0  0  0  0  0  0
   22.1832   -5.3623  -15.1271 O   0  0  0  0  0  0  0  0  0  0  0  0
  2  1  1  6
  3  2  1  0
  4  5  1  6
  4  2  1  0
  6  4  1  0
  7  6  2  0
  8  6  1  0
  9  8  1  0
  9 10  1  1
 10 11  1  0
 11 15  1  0
 11 12  2  0
 13  9  1  0
 13 20  1  0
 14 13  2  0
 17 16  1  6
 18 17  1  0
 19 20  1  6
 19 17  1  0
 21 19  1  0
 21 22  1  0
 23 21  2  0
M  END
$$$$
