VDG.pdb
     RDKit          3D

 20 19  0  0  1  0  0  0  0  0999 V2000
    8.7276  -11.8579   19.4939 C   0  0  0  0  0  0  0  0  0  0  0  0
    8.7713  -13.1986   20.2087 C   0  0  1  0  0  0  0  0  0  0  0  0
    7.4537  -13.4046   20.9090 C   0  0  0  0  0  0  0  0  0  0  0  0
    9.0474  -14.2690   19.1669 C   0  0  2  0  0  0  0  0  0  0  0  0
    7.9702  -14.2789   18.2153 N   0  0  0  0  0  0  0  0  0  0  0  0
    9.2715  -15.5886   19.7945 C   0  0  0  0  0  0  0  0  0  0  0  0
    8.5762  -16.5873   19.4826 O   0  0  0  0  0  0  0  0  0  0  0  0
   10.2912  -15.7353   20.7673 N   0  0  0  0  0  0  0  0  0  0  0  0
   10.6291  -17.0213   21.3545 C   0  0  1  0  0  0  0  0  0  0  0  0
   10.9459  -17.9874   20.2354 C   0  0  0  0  0  0  0  0  0  0  0  0
    9.7853  -18.7267   19.7357 C   0  0  0  0  0  0  0  0  0  0  0  0
    8.8997  -19.1747   20.5297 O   0  0  0  0  0  0  0  0  0  0  0  0
   11.6931  -16.8543   22.3383 C   0  0  0  0  0  0  0  0  0  0  0  0
   12.1285  -17.7827   23.0744 O   0  0  0  0  0  0  0  0  0  0  0  0
    9.5611  -18.9934   18.3814 O   0  0  0  0  0  0  0  0  0  0  0  0
   12.3035  -15.5740   22.5051 N   0  0  0  0  0  0  0  0  0  0  0  0
   13.3252  -15.3351   23.4995 C   0  0  0  0  0  0  0  0  0  0  0  0
   14.6407  -15.8147   23.0107 C   0  0  0  0  0  0  0  0  0  0  0  0
   14.6635  -16.7371   22.1578 O   0  0  0  0  0  0  0  0  0  0  0  0
   15.8296  -15.2748   23.4684 O   0  0  0  0  0  0  0  0  0  0  0  0
  2  1  1  6
  3  2  1  0
  4  2  1  0
  4  5  1  6
  6  7  2  0
  6  4  1  0
  8  6  1  0
  9  8  1  0
  9 13  1  0
  9 10  1  6
 11 10  1  0
 11 15  1  0
 12 11  2  0
 13 16  1  0
 14 13  2  0
 16 17  1  0
 17 18  1  0
 18 19  2  0
 18 20  1  0
M  END
$$$$
