VDG.pdb
     RDKit          3D

 20 19  0  0  1  0  0  0  0  0999 V2000
    9.6505  -12.4105   20.1086 C   0  0  0  0  0  0  0  0  0  0  0  0
    8.6366  -13.3575   19.4875 C   0  0  1  0  0  0  0  0  0  0  0  0
    7.5628  -12.5338   18.8264 C   0  0  0  0  0  0  0  0  0  0  0  0
    9.3765  -14.2443   18.5009 C   0  0  2  0  0  0  0  0  0  0  0  0
    8.4150  -14.9896   17.7354 N   0  0  0  0  0  0  0  0  0  0  0  0
   10.3609  -15.1094   19.1850 C   0  0  0  0  0  0  0  0  0  0  0  0
   10.0188  -16.1946   19.7175 O   0  0  0  0  0  0  0  0  0  0  0  0
   11.7195  -14.7115   19.2427 N   0  0  0  0  0  0  0  0  0  0  0  0
   12.7353  -15.5017   19.9187 C   0  0  1  0  0  0  0  0  0  0  0  0
   14.0824  -15.1510   19.3285 C   0  0  0  0  0  0  0  0  0  0  0  0
   14.2499  -15.5605   17.9329 C   0  0  0  0  0  0  0  0  0  0  0  0
   14.0018  -16.7508   17.5629 O   0  0  0  0  0  0  0  0  0  0  0  0
   12.6318  -15.3145   21.3616 C   0  0  0  0  0  0  0  0  0  0  0  0
   12.7169  -14.1946   21.9378 O   0  0  0  0  0  0  0  0  0  0  0  0
   14.6844  -14.6999   16.9199 O   0  0  0  0  0  0  0  0  0  0  0  0
   12.4202  -16.4470   22.2054 N   0  0  0  0  0  0  0  0  0  0  0  0
   12.1627  -16.3111   23.6214 C   0  0  0  0  0  0  0  0  0  0  0  0
   12.0269  -17.6474   24.2500 C   0  0  0  0  0  0  0  0  0  0  0  0
   12.0864  -18.6647   23.5149 O   0  0  0  0  0  0  0  0  0  0  0  0
   11.8380  -17.7965   25.6126 O   0  0  0  0  0  0  0  0  0  0  0  0
  2  1  1  6
  3  2  1  0
  4  2  1  0
  4  5  1  1
  6  7  2  0
  6  4  1  0
  8  6  1  0
  9  8  1  0
  9 13  1  0
  9 10  1  6
 11 10  1  0
 11 15  1  0
 12 11  2  0
 13 16  1  0
 14 13  2  0
 16 17  1  0
 17 18  1  0
 18 19  2  0
 18 20  1  0
M  END
$$$$
