VDG.pdb
     RDKit          3D

 20 19  0  0  1  0  0  0  0  0999 V2000
   -5.4275  -26.0451   29.4729 C   0  0  0  0  0  0  0  0  0  0  0  0
   -4.1214  -25.4863   28.9325 C   0  0  1  0  0  0  0  0  0  0  0  0
   -3.1382  -26.6202   28.8053 C   0  0  0  0  0  0  0  0  0  0  0  0
   -4.4188  -24.8247   27.5979 C   0  0  2  0  0  0  0  0  0  0  0  0
   -3.1782  -24.4275   26.9903 N   0  0  0  0  0  0  0  0  0  0  0  0
   -5.3686  -23.7023   27.7510 C   0  0  0  0  0  0  0  0  0  0  0  0
   -4.9817  -22.5634   28.1135 O   0  0  0  0  0  0  0  0  0  0  0  0
   -6.7444  -23.9100   27.4835 N   0  0  0  0  0  0  0  0  0  0  0  0
   -7.7259  -22.8414   27.5726 C   0  0  1  0  0  0  0  0  0  0  0  0
   -8.1875  -22.5009   26.1737 C   0  0  0  0  0  0  0  0  0  0  0  0
   -9.1362  -21.3876   26.1103 C   0  0  0  0  0  0  0  0  0  0  0  0
   -8.9609  -20.3346   26.8001 O   0  0  0  0  0  0  0  0  0  0  0  0
   -8.7916  -23.2211   28.4934 C   0  0  0  0  0  0  0  0  0  0  0  0
   -9.8082  -22.5113   28.7305 O   0  0  0  0  0  0  0  0  0  0  0  0
  -10.2814  -21.3904   25.3079 O   0  0  0  0  0  0  0  0  0  0  0  0
   -8.7130  -24.4672   29.1864 N   0  0  0  0  0  0  0  0  0  0  0  0
   -9.6980  -24.8626   30.1678 C   0  0  0  0  0  0  0  0  0  0  0  0
   -9.1592  -24.6845   31.5380 C   0  0  0  0  0  0  0  0  0  0  0  0
   -8.0947  -24.0330   31.6838 O   0  0  0  0  0  0  0  0  0  0  0  0
   -9.7959  -25.2141   32.6465 O   0  0  0  0  0  0  0  0  0  0  0  0
  2  1  1  6
  3  2  1  0
  4  2  1  0
  4  5  1  1
  6  7  2  0
  6  4  1  0
  8  6  1  0
  9  8  1  0
  9 13  1  0
  9 10  1  6
 11 10  1  0
 11 15  1  0
 12 11  2  0
 13 16  1  0
 14 13  2  0
 16 17  1  0
 17 18  1  0
 18 19  2  0
 18 20  1  0
M  END
$$$$
