VDG.pdb
     RDKit          3D

 20 19  0  0  1  0  0  0  0  0999 V2000
    8.1560  -12.3897   18.5742 C   0  0  0  0  0  0  0  0  0  0  0  0
    8.6214  -13.1361   19.8138 C   0  0  1  0  0  0  0  0  0  0  0  0
    7.5736  -12.9759   20.8839 C   0  0  0  0  0  0  0  0  0  0  0  0
    8.8357  -14.5889   19.4254 C   0  0  2  0  0  0  0  0  0  0  0  0
    7.6177  -15.1026   18.8609 N   0  0  0  0  0  0  0  0  0  0  0  0
    9.3199  -15.3884   20.5707 C   0  0  0  0  0  0  0  0  0  0  0  0
    8.5828  -16.2345   21.1355 O   0  0  0  0  0  0  0  0  0  0  0  0
   10.6423  -15.2013   21.0438 N   0  0  0  0  0  0  0  0  0  0  0  0
   11.2739  -16.1202   21.9764 C   0  0  1  0  0  0  0  0  0  0  0  0
   11.1512  -17.5212   21.4215 C   0  0  0  0  0  0  0  0  0  0  0  0
   10.6078  -18.4956   22.3694 C   0  0  0  0  0  0  0  0  0  0  0  0
   10.4131  -19.7048   22.0300 O   0  0  0  0  0  0  0  0  0  0  0  0
   12.6398  -15.6883   22.2514 C   0  0  0  0  0  0  0  0  0  0  0  0
   13.1340  -15.5985   23.4095 O   0  0  0  0  0  0  0  0  0  0  0  0
   10.2678  -18.1853   23.6899 O   0  0  0  0  0  0  0  0  0  0  0  0
   13.4998  -15.3383   21.1664 N   0  0  0  0  0  0  0  0  0  0  0  0
   14.8810  -14.9644   21.3722 C   0  0  0  0  0  0  0  0  0  0  0  0
   15.5574  -14.7569   20.0688 C   0  0  0  0  0  0  0  0  0  0  0  0
   16.7715  -14.4334   20.0681 O   0  0  0  0  0  0  0  0  0  0  0  0
   14.8881  -14.9101   18.8675 O   0  0  0  0  0  0  0  0  0  0  0  0
  2  1  1  6
  3  2  1  0
  4  2  1  0
  4  5  1  1
  6  7  2  0
  6  4  1  0
  8  6  1  0
  9  8  1  0
  9 13  1  0
  9 10  1  6
 11 10  1  0
 11 15  1  0
 12 11  2  0
 13 16  1  0
 14 13  2  0
 16 17  1  0
 17 18  1  0
 18 19  2  0
 18 20  1  0
M  END
$$$$
