VDG.pdb
     RDKit          3D

 20 19  0  0  1  0  0  0  0  0999 V2000
    8.9671  -13.0750   20.7553 C   0  0  0  0  0  0  0  0  0  0  0  0
    8.0887  -13.5959   19.6295 C   0  0  1  0  0  0  0  0  0  0  0  0
    7.4511  -12.4168   18.9427 C   0  0  0  0  0  0  0  0  0  0  0  0
    8.9691  -14.4055   18.6931 C   0  0  2  0  0  0  0  0  0  0  0  0
    8.2053  -14.7588   17.5279 N   0  0  0  0  0  0  0  0  0  0  0  0
    9.5489  -15.5804   19.3778 C   0  0  0  0  0  0  0  0  0  0  0  0
    9.2434  -16.7510   19.0392 O   0  0  0  0  0  0  0  0  0  0  0  0
   10.4696  -15.3875   20.4374 N   0  0  0  0  0  0  0  0  0  0  0  0
   11.2218  -16.4835   21.0258 C   0  0  1  0  0  0  0  0  0  0  0  0
   11.9211  -17.2322   19.9139 C   0  0  0  0  0  0  0  0  0  0  0  0
   11.0489  -18.1315   19.1563 C   0  0  0  0  0  0  0  0  0  0  0  0
   10.2462  -18.9205   19.7468 O   0  0  0  0  0  0  0  0  0  0  0  0
   12.1037  -15.9762   22.0710 C   0  0  0  0  0  0  0  0  0  0  0  0
   13.0024  -15.1105   21.8802 O   0  0  0  0  0  0  0  0  0  0  0  0
   11.0273  -18.1950   17.7595 O   0  0  0  0  0  0  0  0  0  0  0  0
   11.9695  -16.4670   23.4054 N   0  0  0  0  0  0  0  0  0  0  0  0
   12.6401  -17.6671   23.8524 C   0  0  0  0  0  0  0  0  0  0  0  0
   14.0632  -17.3789   24.1546 C   0  0  0  0  0  0  0  0  0  0  0  0
   14.4222  -17.3276   25.3576 O   0  0  0  0  0  0  0  0  0  0  0  0
   14.9932  -17.1676   23.1522 O   0  0  0  0  0  0  0  0  0  0  0  0
  2  1  1  1
  3  2  1  0
  4  2  1  0
  4  5  1  6
  6  7  2  0
  6  4  1  0
  8  6  1  0
  9  8  1  0
  9 13  1  0
  9 10  1  6
 11 10  1  0
 11 15  1  0
 12 11  2  0
 13 16  1  0
 14 13  2  0
 16 17  1  0
 17 18  1  0
 18 19  2  0
 18 20  1  0
M  END
$$$$
