VDG.pdb
     RDKit          3D

 20 19  0  0  1  0  0  0  0  0999 V2000
    8.0372  -12.3896   20.0020 C   0  0  0  0  0  0  0  0  0  0  0  0
    8.4034  -13.5850   20.8665 C   0  0  1  0  0  0  0  0  0  0  0  0
    7.6271  -13.4934   22.1540 C   0  0  0  0  0  0  0  0  0  0  0  0
    8.0746  -14.8422   20.0799 C   0  0  2  0  0  0  0  0  0  0  0  0
    6.6549  -14.8948   19.8614 N   0  0  0  0  0  0  0  0  0  0  0  0
    8.5977  -16.0513   20.7506 C   0  0  0  0  0  0  0  0  0  0  0  0
    7.8538  -16.7861   21.4469 O   0  0  0  0  0  0  0  0  0  0  0  0
    9.9652  -16.3934   20.6070 N   0  0  0  0  0  0  0  0  0  0  0  0
   10.5338  -17.5956   21.1938 C   0  0  1  0  0  0  0  0  0  0  0  0
   11.4049  -18.2661   20.1558 C   0  0  0  0  0  0  0  0  0  0  0  0
   10.6586  -18.9753   19.1149 C   0  0  0  0  0  0  0  0  0  0  0  0
    9.5512  -19.5437   19.3718 O   0  0  0  0  0  0  0  0  0  0  0  0
   11.2127  -17.2661   22.4421 C   0  0  0  0  0  0  0  0  0  0  0  0
   11.5747  -18.1206   23.2978 O   0  0  0  0  0  0  0  0  0  0  0  0
   11.0900  -19.0829   17.7891 O   0  0  0  0  0  0  0  0  0  0  0  0
   11.5026  -15.9015   22.7473 N   0  0  0  0  0  0  0  0  0  0  0  0
   12.1768  -15.5146   23.9661 C   0  0  0  0  0  0  0  0  0  0  0  0
   13.6265  -15.8117   23.8686 C   0  0  0  0  0  0  0  0  0  0  0  0
   14.3799  -15.4348   24.8008 O   0  0  0  0  0  0  0  0  0  0  0  0
   14.1611  -16.4871   22.7857 O   0  0  0  0  0  0  0  0  0  0  0  0
  2  1  1  6
  3  2  1  0
  4  2  1  0
  4  5  1  1
  6  7  2  0
  6  4  1  0
  8  6  1  0
  9  8  1  0
  9 13  1  0
  9 10  1  6
 11 10  1  0
 11 15  1  0
 12 11  2  0
 13 16  1  0
 14 13  2  0
 16 17  1  0
 17 18  1  0
 18 19  2  0
 18 20  1  0
M  END
$$$$
