VDG.pdb
     RDKit          3D

 20 19  0  0  1  0  0  0  0  0999 V2000
    8.5765  -12.6625   26.3576 C   0  0  0  0  0  0  0  0  0  0  0  0
    7.1123  -13.0009   26.5858 C   0  0  1  0  0  0  0  0  0  0  0  0
    6.3386  -11.7123   26.6836 C   0  0  0  0  0  0  0  0  0  0  0  0
    6.6518  -13.8666   25.4257 C   0  0  2  0  0  0  0  0  0  0  0  0
    5.2411  -14.1080   25.5585 N   0  0  0  0  0  0  0  0  0  0  0  0
    7.4417  -15.1129   25.3349 C   0  0  0  0  0  0  0  0  0  0  0  0
    7.1075  -16.1462   25.9665 O   0  0  0  0  0  0  0  0  0  0  0  0
    8.5997  -15.1481   24.5192 N   0  0  0  0  0  0  0  0  0  0  0  0
    9.4480  -16.3244   24.4201 C   0  0  1  0  0  0  0  0  0  0  0  0
   10.4604  -16.0902   23.3218 C   0  0  0  0  0  0  0  0  0  0  0  0
    9.8855  -16.0481   21.9761 C   0  0  0  0  0  0  0  0  0  0  0  0
   10.2615  -15.1797   21.1276 O   0  0  0  0  0  0  0  0  0  0  0  0
   10.0213  -16.6350   25.7249 C   0  0  0  0  0  0  0  0  0  0  0  0
   10.5798  -15.7852   26.4729 O   0  0  0  0  0  0  0  0  0  0  0  0
    8.9027  -16.9350   21.5254 O   0  0  0  0  0  0  0  0  0  0  0  0
    9.9644  -17.9737   26.2187 N   0  0  0  0  0  0  0  0  0  0  0  0
    9.9445  -18.2692   27.6336 C   0  0  0  0  0  0  0  0  0  0  0  0
   11.3236  -18.4904   28.1322 C   0  0  0  0  0  0  0  0  0  0  0  0
   12.1893  -18.9217   27.3301 O   0  0  0  0  0  0  0  0  0  0  0  0
   11.6735  -18.2351   29.4463 O   0  0  0  0  0  0  0  0  0  0  0  0
  2  1  1  6
  3  2  1  0
  4  2  1  0
  4  5  1  1
  6  7  2  0
  6  4  1  0
  8  6  1  0
  9  8  1  0
  9 13  1  0
  9 10  1  6
 11 10  1  0
 11 15  1  0
 12 11  2  0
 13 16  1  0
 14 13  2  0
 16 17  1  0
 17 18  1  0
 18 19  2  0
 18 20  1  0
M  END
$$$$
