VDG.pdb
     RDKit          3D

 20 19  0  0  1  0  0  0  0  0999 V2000
    8.8512  -12.8805   20.9592 C   0  0  0  0  0  0  0  0  0  0  0  0
    7.7981  -13.4536   20.0248 C   0  0  1  0  0  0  0  0  0  0  0  0
    7.6152  -12.4979   18.8750 C   0  0  0  0  0  0  0  0  0  0  0  0
    8.2783  -14.8213   19.5706 C   0  0  2  0  0  0  0  0  0  0  0  0
    7.4136  -15.2924   18.5235 N   0  0  0  0  0  0  0  0  0  0  0  0
    8.3733  -15.7645   20.7049 C   0  0  0  0  0  0  0  0  0  0  0  0
    7.3552  -16.1104   21.3546 O   0  0  0  0  0  0  0  0  0  0  0  0
    9.6362  -16.2932   21.0699 N   0  0  0  0  0  0  0  0  0  0  0  0
    9.8196  -17.1376   22.2388 C   0  0  1  0  0  0  0  0  0  0  0  0
    9.8644  -18.5785   21.7831 C   0  0  0  0  0  0  0  0  0  0  0  0
    9.9005  -19.5517   22.8763 C   0  0  0  0  0  0  0  0  0  0  0  0
    8.9744  -19.5986   23.7455 O   0  0  0  0  0  0  0  0  0  0  0  0
   10.9888  -16.6971   22.9915 C   0  0  0  0  0  0  0  0  0  0  0  0
   11.3305  -17.1721   24.1101 O   0  0  0  0  0  0  0  0  0  0  0  0
   10.9281  -20.4841   23.0497 O   0  0  0  0  0  0  0  0  0  0  0  0
   11.8220  -15.6666   22.4594 N   0  0  0  0  0  0  0  0  0  0  0  0
   12.9289  -15.1129   23.2063 C   0  0  0  0  0  0  0  0  0  0  0  0
   14.1484  -15.9315   23.0012 C   0  0  0  0  0  0  0  0  0  0  0  0
   15.2441  -15.4940   23.4336 O   0  0  0  0  0  0  0  0  0  0  0  0
   14.1064  -17.1524   22.3515 O   0  0  0  0  0  0  0  0  0  0  0  0
  2  1  1  1
  3  2  1  0
  4  2  1  0
  4  5  1  6
  6  7  2  0
  6  4  1  0
  8  6  1  0
  9  8  1  0
  9 13  1  0
  9 10  1  6
 11 10  1  0
 11 15  1  0
 12 11  2  0
 13 16  1  0
 14 13  2  0
 16 17  1  0
 17 18  1  0
 18 19  2  0
 18 20  1  0
M  END
$$$$
