VDG.pdb
     RDKit          3D

 20 19  0  0  1  0  0  0  0  0999 V2000
    8.2416  -21.0467   17.6904 C   0  0  0  0  0  0  0  0  0  0  0  0
    9.2549  -20.8883   18.8122 C   0  0  1  0  0  0  0  0  0  0  0  0
   10.4407  -21.7652   18.5061 C   0  0  0  0  0  0  0  0  0  0  0  0
    9.6273  -19.4180   18.8944 C   0  0  2  0  0  0  0  0  0  0  0  0
   10.1372  -18.9965   17.6184 N   0  0  0  0  0  0  0  0  0  0  0  0
   10.5706  -19.1609   20.0033 C   0  0  0  0  0  0  0  0  0  0  0  0
   10.2453  -19.3662   21.1992 O   0  0  0  0  0  0  0  0  0  0  0  0
   11.8699  -18.6740   19.7163 N   0  0  0  0  0  0  0  0  0  0  0  0
   12.8828  -18.5023   20.7447 C   0  0  1  0  0  0  0  0  0  0  0  0
   14.2430  -18.5524   20.0865 C   0  0  0  0  0  0  0  0  0  0  0  0
   15.3626  -18.6084   21.0282 C   0  0  0  0  0  0  0  0  0  0  0  0
   15.1671  -18.7798   22.2723 O   0  0  0  0  0  0  0  0  0  0  0  0
   12.6162  -17.2875   21.5069 C   0  0  0  0  0  0  0  0  0  0  0  0
   12.7110  -16.1207   21.0348 O   0  0  0  0  0  0  0  0  0  0  0  0
   16.7022  -18.4815   20.6476 O   0  0  0  0  0  0  0  0  0  0  0  0
   12.2202  -17.3873   22.8753 N   0  0  0  0  0  0  0  0  0  0  0  0
   11.8451  -16.2271   23.6519 C   0  0  0  0  0  0  0  0  0  0  0  0
   11.4702  -16.6294   25.0292 C   0  0  0  0  0  0  0  0  0  0  0  0
   11.3773  -17.8547   25.2917 O   0  0  0  0  0  0  0  0  0  0  0  0
   11.2232  -15.6955   26.0199 O   0  0  0  0  0  0  0  0  0  0  0  0
  2  1  1  6
  3  2  1  0
  4  2  1  0
  4  5  1  6
  6  7  2  0
  6  4  1  0
  8  6  1  0
  9  8  1  0
  9 13  1  0
  9 10  1  6
 11 10  1  0
 11 15  1  0
 12 11  2  0
 13 16  1  0
 14 13  2  0
 16 17  1  0
 17 18  1  0
 18 19  2  0
 18 20  1  0
M  END
$$$$
