VDG.pdb
     RDKit          3D

 20 19  0  0  1  0  0  0  0  0999 V2000
    9.1489  -12.9660   20.5858 C   0  0  0  0  0  0  0  0  0  0  0  0
    7.9553  -13.5133   19.8202 C   0  0  1  0  0  0  0  0  0  0  0  0
    7.3410  -12.3860   19.0325 C   0  0  0  0  0  0  0  0  0  0  0  0
    8.4539  -14.6382   18.9294 C   0  0  2  0  0  0  0  0  0  0  0  0
    7.3520  -15.1392   18.1542 N   0  0  0  0  0  0  0  0  0  0  0  0
    9.1284  -15.6921   19.7167 C   0  0  0  0  0  0  0  0  0  0  0  0
    8.4780  -16.6196   20.2597 O   0  0  0  0  0  0  0  0  0  0  0  0
   10.5373  -15.6604   19.8635 N   0  0  0  0  0  0  0  0  0  0  0  0
   11.2663  -16.6736   20.6085 C   0  0  1  0  0  0  0  0  0  0  0  0
   12.5616  -16.9587   19.8824 C   0  0  0  0  0  0  0  0  0  0  0  0
   13.1260  -18.2805   20.1609 C   0  0  0  0  0  0  0  0  0  0  0  0
   13.8202  -18.8952   19.2916 O   0  0  0  0  0  0  0  0  0  0  0  0
   11.4225  -16.2535   21.9966 C   0  0  0  0  0  0  0  0  0  0  0  0
   11.9874  -15.1822   22.3525 O   0  0  0  0  0  0  0  0  0  0  0  0
   12.9530  -18.9573   21.3723 O   0  0  0  0  0  0  0  0  0  0  0  0
   10.9160  -17.0813   23.0443 N   0  0  0  0  0  0  0  0  0  0  0  0
   10.9457  -16.6694   24.4296 C   0  0  0  0  0  0  0  0  0  0  0  0
   11.5293  -17.7411   25.2725 C   0  0  0  0  0  0  0  0  0  0  0  0
   11.5606  -17.5747   26.5175 O   0  0  0  0  0  0  0  0  0  0  0  0
   12.0342  -18.9067   24.7238 O   0  0  0  0  0  0  0  0  0  0  0  0
  2  1  1  6
  3  2  1  0
  4  2  1  0
  4  5  1  1
  6  7  2  0
  6  4  1  0
  8  6  1  0
  9  8  1  0
  9 13  1  0
  9 10  1  6
 11 10  1  0
 11 15  1  0
 12 11  2  0
 13 16  1  0
 14 13  2  0
 16 17  1  0
 17 18  1  0
 18 19  2  0
 18 20  1  0
M  END
$$$$
