VDG.pdb
     RDKit          3D

 20 19  0  0  1  0  0  0  0  0999 V2000
    8.6747  -12.3741   18.9691 C   0  0  0  0  0  0  0  0  0  0  0  0
    8.7513  -13.3235   20.1537 C   0  0  1  0  0  0  0  0  0  0  0  0
    7.5702  -13.0580   21.0499 C   0  0  0  0  0  0  0  0  0  0  0  0
    8.7587  -14.7417   19.6096 C   0  0  2  0  0  0  0  0  0  0  0  0
    7.5838  -14.9360   18.8048 N   0  0  0  0  0  0  0  0  0  0  0  0
    8.8815  -15.7364   20.6963 C   0  0  0  0  0  0  0  0  0  0  0  0
    7.8908  -16.0683   21.3938 O   0  0  0  0  0  0  0  0  0  0  0  0
   10.1401  -16.3316   20.9595 N   0  0  0  0  0  0  0  0  0  0  0  0
   10.3226  -17.3502   21.9804 C   0  0  1  0  0  0  0  0  0  0  0  0
   10.5661  -18.6748   21.2934 C   0  0  0  0  0  0  0  0  0  0  0  0
    9.4044  -19.1983   20.5725 C   0  0  0  0  0  0  0  0  0  0  0  0
    8.3318  -19.4990   21.1845 O   0  0  0  0  0  0  0  0  0  0  0  0
   11.3701  -16.9407   22.9092 C   0  0  0  0  0  0  0  0  0  0  0  0
   11.6635  -17.5665   23.9656 O   0  0  0  0  0  0  0  0  0  0  0  0
    9.3793  -19.4049   19.1897 O   0  0  0  0  0  0  0  0  0  0  0  0
   12.1319  -15.7638   22.6375 N   0  0  0  0  0  0  0  0  0  0  0  0
   13.1260  -15.2635   23.5601 C   0  0  0  0  0  0  0  0  0  0  0  0
   14.4725  -15.7578   23.1831 C   0  0  0  0  0  0  0  0  0  0  0  0
   14.5591  -16.6476   22.3001 O   0  0  0  0  0  0  0  0  0  0  0  0
   15.6221  -15.2661   23.7758 O   0  0  0  0  0  0  0  0  0  0  0  0
  2  1  1  6
  3  2  1  0
  4  2  1  0
  4  5  1  1
  6  7  2  0
  6  4  1  0
  8  6  1  0
  9  8  1  0
  9 13  1  0
  9 10  1  6
 11 10  1  0
 11 15  1  0
 12 11  2  0
 13 16  1  0
 14 13  2  0
 16 17  1  0
 17 18  1  0
 18 19  2  0
 18 20  1  0
M  END
$$$$
