VDG.pdb
     RDKit          3D

 20 19  0  0  1  0  0  0  0  0999 V2000
    7.2634  -12.7799   18.7065 C   0  0  0  0  0  0  0  0  0  0  0  0
    8.1576  -13.3724   19.7835 C   0  0  1  0  0  0  0  0  0  0  0  0
    7.3863  -14.4505   20.4987 C   0  0  0  0  0  0  0  0  0  0  0  0
    9.4068  -13.9069   19.1045 C   0  0  2  0  0  0  0  0  0  0  0  0
    9.0196  -14.8816   18.1216 N   0  0  0  0  0  0  0  0  0  0  0  0
   10.3724  -14.4375   20.0902 C   0  0  0  0  0  0  0  0  0  0  0  0
   10.7764  -13.7372   21.0518 O   0  0  0  0  0  0  0  0  0  0  0  0
   10.8540  -15.7629   19.9526 N   0  0  0  0  0  0  0  0  0  0  0  0
   11.6654  -16.4073   20.9721 C   0  0  1  0  0  0  0  0  0  0  0  0
   11.5049  -17.9042   20.8327 C   0  0  0  0  0  0  0  0  0  0  0  0
   10.1984  -18.4089   21.2589 C   0  0  0  0  0  0  0  0  0  0  0  0
    9.5540  -17.8512   22.2018 O   0  0  0  0  0  0  0  0  0  0  0  0
   13.0408  -15.9288   20.8885 C   0  0  0  0  0  0  0  0  0  0  0  0
   13.8694  -15.9872   21.8390 O   0  0  0  0  0  0  0  0  0  0  0  0
    9.5689  -19.5153   20.6800 O   0  0  0  0  0  0  0  0  0  0  0  0
   13.5135  -15.3532   19.6701 N   0  0  0  0  0  0  0  0  0  0  0  0
   14.8998  -14.9897   19.4806 C   0  0  0  0  0  0  0  0  0  0  0  0
   15.1034  -14.4290   18.1228 C   0  0  0  0  0  0  0  0  0  0  0  0
   14.1559  -14.4913   17.2999 O   0  0  0  0  0  0  0  0  0  0  0  0
   16.3004  -13.8456   17.7468 O   0  0  0  0  0  0  0  0  0  0  0  0
  2  1  1  6
  3  2  1  0
  4  2  1  0
  4  5  1  6
  6  7  2  0
  6  4  1  0
  8  6  1  0
  9  8  1  0
  9 13  1  0
  9 10  1  6
 11 10  1  0
 11 15  1  0
 12 11  2  0
 13 16  1  0
 14 13  2  0
 16 17  1  0
 17 18  1  0
 18 19  2  0
 18 20  1  0
M  END
$$$$
