VDG.pdb
     RDKit          3D

 20 19  0  0  1  0  0  0  0  0999 V2000
    8.7610  -13.1541   21.3141 C   0  0  0  0  0  0  0  0  0  0  0  0
    7.7318  -13.6792   20.3265 C   0  0  1  0  0  0  0  0  0  0  0  0
    7.2131  -12.5171   19.5209 C   0  0  0  0  0  0  0  0  0  0  0  0
    8.4132  -14.7257   19.4616 C   0  0  2  0  0  0  0  0  0  0  0  0
    7.4978  -15.1484   18.4372 N   0  0  0  0  0  0  0  0  0  0  0  0
    8.9238  -15.8496   20.2749 C   0  0  0  0  0  0  0  0  0  0  0  0
    8.2092  -16.8516   20.5271 O   0  0  0  0  0  0  0  0  0  0  0  0
   10.2461  -15.8009   20.7816 N   0  0  0  0  0  0  0  0  0  0  0  0
   10.8327  -16.8964   21.5359 C   0  0  1  0  0  0  0  0  0  0  0  0
   12.0551  -17.3855   20.7927 C   0  0  0  0  0  0  0  0  0  0  0  0
   12.6872  -18.5637   21.3891 C   0  0  0  0  0  0  0  0  0  0  0  0
   12.1842  -19.1351   22.4068 O   0  0  0  0  0  0  0  0  0  0  0  0
   11.0796  -16.4768   22.9109 C   0  0  0  0  0  0  0  0  0  0  0  0
   11.9198  -15.5946   23.2416 O   0  0  0  0  0  0  0  0  0  0  0  0
   13.8636  -19.1418   20.9019 O   0  0  0  0  0  0  0  0  0  0  0  0
   10.3422  -17.0801   23.9747 N   0  0  0  0  0  0  0  0  0  0  0  0
   10.4528  -16.6215   25.3412 C   0  0  0  0  0  0  0  0  0  0  0  0
   11.3954  -17.4812   26.0976 C   0  0  0  0  0  0  0  0  0  0  0  0
   12.6228  -17.3936   25.8434 O   0  0  0  0  0  0  0  0  0  0  0  0
   10.9574  -18.3675   27.0657 O   0  0  0  0  0  0  0  0  0  0  0  0
  2  1  1  1
  3  2  1  0
  4  2  1  0
  4  5  1  6
  6  7  2  0
  6  4  1  0
  8  6  1  0
  9  8  1  0
  9 13  1  0
  9 10  1  6
 11 10  1  0
 11 15  1  0
 12 11  2  0
 13 16  1  0
 14 13  2  0
 16 17  1  0
 17 18  1  0
 18 19  2  0
 18 20  1  0
M  END
$$$$
