TKD.pdb
     RDKit          3D

 25 24  0  0  1  0  0  0  0  0999 V2000
   12.5732  -18.8284   17.5079 C   0  0  0  0  0  0  0  0  0  0  0  0
   13.3944  -17.9380   16.6153 C   0  0  1  0  0  0  0  0  0  0  0  0
   13.4807  -18.4327   15.3277 O   0  0  0  0  0  0  0  0  0  0  0  0
   12.7640  -16.5615   16.5627 C   0  0  2  0  0  0  0  0  0  0  0  0
   13.5744  -15.7526   15.6857 N   0  0  0  0  0  0  0  0  0  0  0  0
   12.7762  -15.9327   17.9096 C   0  0  0  0  0  0  0  0  0  0  0  0
   13.8637  -15.5902   18.3871 O   0  0  0  0  0  0  0  0  0  0  0  0
   11.6033  -15.7139   18.6570 N   0  0  0  0  0  0  0  0  0  0  0  0
   11.5314  -15.1084   19.9470 C   0  0  1  0  0  0  0  0  0  0  0  0
   10.1666  -14.6343   20.3624 C   0  0  0  0  0  0  0  0  0  0  0  0
    9.7380  -13.4018   19.5611 C   0  0  0  0  0  0  0  0  0  0  0  0
    8.2429  -13.5849   19.2644 C   0  0  0  0  0  0  0  0  0  0  0  0
    7.7635  -12.4759   18.3611 C   0  0  0  0  0  0  0  0  0  0  0  0
    6.3529  -12.7407   18.0866 N   0  0  0  0  0  0  0  0  0  0  0  0
   12.0009  -16.0265   21.0367 C   0  0  0  0  0  0  0  0  0  0  0  0
   11.7061  -17.2474   20.9666 O   0  0  0  0  0  0  0  0  0  0  0  0
   12.7594  -15.5905   22.1412 N   0  0  0  0  0  0  0  0  0  0  0  0
   13.3447  -16.4884   23.1227 C   0  0  1  0  0  0  0  0  0  0  0  0
   14.5377  -15.8717   23.8061 C   0  0  0  0  0  0  0  0  0  0  0  0
   15.7214  -15.8008   22.9123 C   0  0  0  0  0  0  0  0  0  0  0  0
   15.8485  -16.7219   22.0662 O   0  0  0  0  0  0  0  0  0  0  0  0
   12.3155  -16.7310   24.1657 C   0  0  0  0  0  0  0  0  0  0  0  0
   11.0929  -16.0800   24.1564 O   0  0  0  0  0  0  0  0  0  0  0  0
   16.6681  -14.8099   22.9521 O   0  0  0  0  0  0  0  0  0  0  0  0
   12.5356  -17.5396   25.0866 O   0  0  0  0  0  0  0  0  0  0  0  0
  2  1  1  1
  2  3  1  0
  4  6  1  0
  4  2  1  0
  4  5  1  6
  6  7  2  0
  8  9  1  0
  8  6  1  0
  9 15  1  0
  9 10  1  1
 11 10  1  0
 12 11  1  0
 12 13  1  0
 13 14  1  0
 15 16  2  0
 17 15  1  0
 17 18  1  0
 18 22  1  0
 18 19  1  1
 20 19  1  0
 21 20  2  0
 22 25  2  0
 22 23  1  0
 24 20  1  0
M  END
$$$$
