TKD.pdb
     RDKit          3D

 25 24  0  0  1  0  0  0  0  0999 V2000
    7.2071  -16.1681   19.2501 C   0  0  0  0  0  0  0  0  0  0  0  0
    8.0517  -15.0960   18.6167 C   0  0  1  0  0  0  0  0  0  0  0  0
    7.8411  -15.0080   17.2536 O   0  0  0  0  0  0  0  0  0  0  0  0
    7.7179  -13.7582   19.2444 C   0  0  2  0  0  0  0  0  0  0  0  0
    8.3973  -12.7436   18.4767 N   0  0  0  0  0  0  0  0  0  0  0  0
    8.2277  -13.6972   20.6394 C   0  0  0  0  0  0  0  0  0  0  0  0
    9.4491  -13.6233   20.8148 O   0  0  0  0  0  0  0  0  0  0  0  0
    7.3773  -13.7203   21.7611 N   0  0  0  0  0  0  0  0  0  0  0  0
    7.7876  -13.6577   23.1263 C   0  0  1  0  0  0  0  0  0  0  0  0
    6.7159  -13.2661   24.1051 C   0  0  0  0  0  0  0  0  0  0  0  0
    7.2747  -13.1539   25.5264 C   0  0  0  0  0  0  0  0  0  0  0  0
    6.1649  -12.5126   26.3714 C   0  0  0  0  0  0  0  0  0  0  0  0
    6.6356  -12.3563   27.7961 C   0  0  0  0  0  0  0  0  0  0  0  0
    5.5753  -11.6495   28.5114 N   0  0  0  0  0  0  0  0  0  0  0  0
    8.3411  -14.9628   23.6176 C   0  0  0  0  0  0  0  0  0  0  0  0
    7.5999  -15.9789   23.5976 O   0  0  0  0  0  0  0  0  0  0  0  0
    9.6554  -15.1109   24.1031 N   0  0  0  0  0  0  0  0  0  0  0  0
   10.1932  -16.3641   24.6057 C   0  0  1  0  0  0  0  0  0  0  0  0
   11.6929  -16.4248   24.4719 C   0  0  0  0  0  0  0  0  0  0  0  0
   12.1337  -17.5481   23.6066 C   0  0  0  0  0  0  0  0  0  0  0  0
   11.2375  -18.3184   23.1777 O   0  0  0  0  0  0  0  0  0  0  0  0
    9.8768  -16.4284   26.0555 C   0  0  0  0  0  0  0  0  0  0  0  0
    9.8142  -15.2917   26.8446 O   0  0  0  0  0  0  0  0  0  0  0  0
   13.4353  -17.7930   23.2523 O   0  0  0  0  0  0  0  0  0  0  0  0
    9.6574  -17.5262   26.6005 O   0  0  0  0  0  0  0  0  0  0  0  0
  2  1  1  1
  2  3  1  0
  4  6  1  0
  4  2  1  0
  4  5  1  6
  6  7  2  0
  8  9  1  0
  8  6  1  0
  9 15  1  0
  9 10  1  1
 11 10  1  0
 12 11  1  0
 12 13  1  0
 13 14  1  0
 15 16  2  0
 17 15  1  0
 17 18  1  0
 18 22  1  0
 18 19  1  1
 20 19  1  0
 21 20  2  0
 22 25  2  0
 22 23  1  0
 24 20  1  0
M  END
$$$$
