TKD.pdb
     RDKit          3D

 25 24  0  0  1  0  0  0  0  0999 V2000
    8.2998  -21.5771   19.9177 C   0  0  0  0  0  0  0  0  0  0  0  0
    9.0004  -20.3627   20.4639 C   0  0  1  0  0  0  0  0  0  0  0  0
   10.2056  -20.6837   21.0593 O   0  0  0  0  0  0  0  0  0  0  0  0
    9.2638  -19.3860   19.3362 C   0  0  2  0  0  0  0  0  0  0  0  0
   10.1899  -20.0187   18.4293 N   0  0  0  0  0  0  0  0  0  0  0  0
    9.9037  -18.1500   19.8581 C   0  0  0  0  0  0  0  0  0  0  0  0
   11.1383  -18.0983   19.8922 O   0  0  0  0  0  0  0  0  0  0  0  0
    9.1615  -17.0433   20.3122 N   0  0  0  0  0  0  0  0  0  0  0  0
    9.6966  -15.8589   20.9010 C   0  0  1  0  0  0  0  0  0  0  0  0
    8.7833  -14.6648   20.8935 C   0  0  0  0  0  0  0  0  0  0  0  0
    8.5025  -14.1882   19.4657 C   0  0  0  0  0  0  0  0  0  0  0  0
    7.4802  -13.0495   19.5896 C   0  0  0  0  0  0  0  0  0  0  0  0
    7.1319  -12.5264   18.2182 C   0  0  0  0  0  0  0  0  0  0  0  0
    6.1201  -11.4899   18.4107 N   0  0  0  0  0  0  0  0  0  0  0  0
   10.1000  -16.0634   22.3315 C   0  0  0  0  0  0  0  0  0  0  0  0
    9.2233  -16.4160   23.1618 O   0  0  0  0  0  0  0  0  0  0  0  0
   11.4173  -15.8800   22.7967 N   0  0  0  0  0  0  0  0  0  0  0  0
   11.9563  -16.5406   23.9737 C   0  0  1  0  0  0  0  0  0  0  0  0
   11.9408  -18.0406   23.8317 C   0  0  0  0  0  0  0  0  0  0  0  0
   11.6701  -18.7234   25.1223 C   0  0  0  0  0  0  0  0  0  0  0  0
   11.5218  -17.9888   26.1317 O   0  0  0  0  0  0  0  0  0  0  0  0
   13.3765  -16.1242   24.1000 C   0  0  0  0  0  0  0  0  0  0  0  0
   13.8519  -15.4670   25.2228 O   0  0  0  0  0  0  0  0  0  0  0  0
   11.5734  -20.0820   25.2785 O   0  0  0  0  0  0  0  0  0  0  0  0
   14.1829  -16.3622   23.1817 O   0  0  0  0  0  0  0  0  0  0  0  0
  2  1  1  6
  2  3  1  0
  4  6  1  0
  4  2  1  0
  4  5  1  6
  6  7  2  0
  8  9  1  0
  8  6  1  0
  9 15  1  0
  9 10  1  1
 11 10  1  0
 12 11  1  0
 12 13  1  0
 13 14  1  0
 15 16  2  0
 17 15  1  0
 17 18  1  0
 18 22  1  0
 18 19  1  6
 20 19  1  0
 21 20  2  0
 22 25  2  0
 22 23  1  0
 24 20  1  0
M  END
$$$$
