TKD.pdb
     RDKit          3D

 25 24  0  0  1  0  0  0  0  0999 V2000
   14.5379  -16.4510   16.6605 C   0  0  0  0  0  0  0  0  0  0  0  0
   13.8090  -16.3109   17.9693 C   0  0  1  0  0  0  0  0  0  0  0  0
   14.5100  -16.8785   19.0164 O   0  0  0  0  0  0  0  0  0  0  0  0
   13.5968  -14.8414   18.2705 C   0  0  2  0  0  0  0  0  0  0  0  0
   14.9001  -14.2446   18.4305 N   0  0  0  0  0  0  0  0  0  0  0  0
   12.8551  -14.6746   19.5478 C   0  0  0  0  0  0  0  0  0  0  0  0
   13.5047  -14.4937   20.5839 O   0  0  0  0  0  0  0  0  0  0  0  0
   11.4498  -14.7148   19.6216 N   0  0  0  0  0  0  0  0  0  0  0  0
   10.6729  -14.7368   20.8182 C   0  0  1  0  0  0  0  0  0  0  0  0
    9.1936  -14.5459   20.6310 C   0  0  0  0  0  0  0  0  0  0  0  0
    8.8838  -13.1864   19.9980 C   0  0  0  0  0  0  0  0  0  0  0  0
    7.9048  -13.4643   18.8486 C   0  0  0  0  0  0  0  0  0  0  0  0
    7.5166  -12.1663   18.1852 C   0  0  0  0  0  0  0  0  0  0  0  0
    6.6726  -12.5158   17.0447 N   0  0  0  0  0  0  0  0  0  0  0  0
   10.8322  -16.0194   21.5800 C   0  0  0  0  0  0  0  0  0  0  0  0
   10.9615  -17.0923   20.9361 O   0  0  0  0  0  0  0  0  0  0  0  0
   10.8448  -16.0858   22.9874 N   0  0  0  0  0  0  0  0  0  0  0  0
   11.2117  -17.2766   23.7355 C   0  0  1  0  0  0  0  0  0  0  0  0
   12.7050  -17.4745   23.7779 C   0  0  0  0  0  0  0  0  0  0  0  0
   13.0972  -18.5936   24.6717 C   0  0  0  0  0  0  0  0  0  0  0  0
   12.2227  -19.4665   24.9038 O   0  0  0  0  0  0  0  0  0  0  0  0
   10.7535  -17.0760   25.1340 C   0  0  0  0  0  0  0  0  0  0  0  0
   10.6679  -18.1235   26.0361 O   0  0  0  0  0  0  0  0  0  0  0  0
   14.3328  -18.7315   25.2495 O   0  0  0  0  0  0  0  0  0  0  0  0
   10.4313  -15.9405   25.5306 O   0  0  0  0  0  0  0  0  0  0  0  0
  2  1  1  6
  2  3  1  0
  4  6  1  0
  4  2  1  0
  4  5  1  1
  6  7  2  0
  8  9  1  0
  8  6  1  0
  9 15  1  0
  9 10  1  6
 11 10  1  0
 12 11  1  0
 12 13  1  0
 13 14  1  0
 15 16  2  0
 17 15  1  0
 17 18  1  0
 18 22  1  0
 18 19  1  1
 20 19  1  0
 21 20  2  0
 22 25  2  0
 22 23  1  0
 24 20  1  0
M  END
$$$$
