TKD.pdb
     RDKit          3D

 25 24  0  0  1  0  0  0  0  0999 V2000
    7.3013  -17.6434   28.3795 C   0  0  0  0  0  0  0  0  0  0  0  0
    7.9096  -17.4774   27.0133 C   0  0  1  0  0  0  0  0  0  0  0  0
    9.1241  -18.1280   26.9043 O   0  0  0  0  0  0  0  0  0  0  0  0
    6.9647  -18.0406   25.9716 C   0  0  2  0  0  0  0  0  0  0  0  0
    6.8925  -19.4653   26.1847 N   0  0  0  0  0  0  0  0  0  0  0  0
    7.4996  -17.8071   24.6046 C   0  0  0  0  0  0  0  0  0  0  0  0
    8.0547  -18.7464   24.0236 O   0  0  0  0  0  0  0  0  0  0  0  0
    7.3985  -16.5643   23.9508 N   0  0  0  0  0  0  0  0  0  0  0  0
    8.0945  -16.1808   22.7657 C   0  0  1  0  0  0  0  0  0  0  0  0
    7.5722  -14.9489   22.0804 C   0  0  0  0  0  0  0  0  0  0  0  0
    8.2650  -14.7257   20.7332 C   0  0  0  0  0  0  0  0  0  0  0  0
    7.5374  -13.5481   20.0695 C   0  0  0  0  0  0  0  0  0  0  0  0
    7.9849  -13.4162   18.6349 C   0  0  0  0  0  0  0  0  0  0  0  0
    7.0916  -12.4458   18.0059 N   0  0  0  0  0  0  0  0  0  0  0  0
    9.5526  -15.9301   23.0147 C   0  0  0  0  0  0  0  0  0  0  0  0
    9.9100  -15.5208   24.1492 O   0  0  0  0  0  0  0  0  0  0  0  0
   10.5488  -16.1303   22.0385 N   0  0  0  0  0  0  0  0  0  0  0  0
   11.9406  -16.4081   22.3515 C   0  0  1  0  0  0  0  0  0  0  0  0
   12.0921  -17.6675   23.1649 C   0  0  0  0  0  0  0  0  0  0  0  0
   12.9508  -17.4639   24.3591 C   0  0  0  0  0  0  0  0  0  0  0  0
   13.4058  -16.3059   24.5390 O   0  0  0  0  0  0  0  0  0  0  0  0
   12.6457  -16.6277   21.0629 C   0  0  0  0  0  0  0  0  0  0  0  0
   13.9445  -16.1942   20.8533 O   0  0  0  0  0  0  0  0  0  0  0  0
   13.2725  -18.4439   25.2623 O   0  0  0  0  0  0  0  0  0  0  0  0
   12.0725  -17.2171   20.1278 O   0  0  0  0  0  0  0  0  0  0  0  0
  2  1  1  1
  2  3  1  0
  4  6  1  0
  4  2  1  0
  4  5  1  1
  6  7  2  0
  8  9  1  0
  8  6  1  0
  9 15  1  0
  9 10  1  1
 11 10  1  0
 12 11  1  0
 12 13  1  0
 13 14  1  0
 15 16  2  0
 17 15  1  0
 17 18  1  0
 18 22  1  0
 18 19  1  1
 20 19  1  0
 21 20  2  0
 22 25  2  0
 22 23  1  0
 24 20  1  0
M  END
$$$$
