TKD.pdb
     RDKit          3D

 25 24  0  0  1  0  0  0  0  0999 V2000
    7.2902  -14.1623   17.5029 C   0  0  0  0  0  0  0  0  0  0  0  0
    7.9662  -14.5455   18.7914 C   0  0  1  0  0  0  0  0  0  0  0  0
    9.3413  -14.5934   18.6609 O   0  0  0  0  0  0  0  0  0  0  0  0
    7.6176  -13.5316   19.8617 C   0  0  2  0  0  0  0  0  0  0  0  0
    8.1487  -12.2599   19.4361 N   0  0  0  0  0  0  0  0  0  0  0  0
    8.2657  -13.8923   21.1499 C   0  0  0  0  0  0  0  0  0  0  0  0
    9.4225  -13.5066   21.3526 O   0  0  0  0  0  0  0  0  0  0  0  0
    7.6159  -14.6519   22.1412 N   0  0  0  0  0  0  0  0  0  0  0  0
    8.2246  -15.2066   23.3065 C   0  0  1  0  0  0  0  0  0  0  0  0
    7.3564  -16.1361   24.1079 C   0  0  0  0  0  0  0  0  0  0  0  0
    8.0721  -16.6114   25.3755 C   0  0  0  0  0  0  0  0  0  0  0  0
    7.1275  -17.6187   26.0462 C   0  0  0  0  0  0  0  0  0  0  0  0
    7.8538  -18.9201   26.2802 C   0  0  0  0  0  0  0  0  0  0  0  0
    6.9041  -19.8168   26.9352 N   0  0  0  0  0  0  0  0  0  0  0  0
    9.4728  -15.9758   22.9886 C   0  0  0  0  0  0  0  0  0  0  0  0
    9.6154  -16.4433   21.8295 O   0  0  0  0  0  0  0  0  0  0  0  0
   10.4999  -16.2035   23.9258 N   0  0  0  0  0  0  0  0  0  0  0  0
   11.7991  -16.7558   23.5804 C   0  0  1  0  0  0  0  0  0  0  0  0
   12.5701  -15.8438   22.6614 C   0  0  0  0  0  0  0  0  0  0  0  0
   13.9288  -16.3645   22.3650 C   0  0  0  0  0  0  0  0  0  0  0  0
   14.0337  -17.6044   22.1857 O   0  0  0  0  0  0  0  0  0  0  0  0
   12.5766  -16.8721   24.8406 C   0  0  0  0  0  0  0  0  0  0  0  0
   12.0481  -16.5023   26.0663 O   0  0  0  0  0  0  0  0  0  0  0  0
   15.0566  -15.5900   22.2763 O   0  0  0  0  0  0  0  0  0  0  0  0
   13.7411  -17.3125   24.8195 O   0  0  0  0  0  0  0  0  0  0  0  0
  2  1  1  6
  2  3  1  0
  4  6  1  0
  4  2  1  0
  4  5  1  6
  6  7  2  0
  8  9  1  0
  8  6  1  0
  9 15  1  0
  9 10  1  6
 11 10  1  0
 12 11  1  0
 12 13  1  0
 13 14  1  0
 15 16  2  0
 17 15  1  0
 17 18  1  0
 18 22  1  0
 18 19  1  6
 20 19  1  0
 21 20  2  0
 22 25  2  0
 22 23  1  0
 24 20  1  0
M  END
$$$$
