TKD.pdb
     RDKit          3D

 25 24  0  0  1  0  0  0  0  0999 V2000
    7.6835  -16.1192   19.1282 C   0  0  0  0  0  0  0  0  0  0  0  0
    8.2998  -14.8642   18.5722 C   0  0  1  0  0  0  0  0  0  0  0  0
    7.9742  -14.6719   17.2428 O   0  0  0  0  0  0  0  0  0  0  0  0
    7.8108  -13.6706   19.3667 C   0  0  2  0  0  0  0  0  0  0  0  0
    8.3337  -12.4878   18.7281 N   0  0  0  0  0  0  0  0  0  0  0  0
    8.3425  -13.7169   20.7541 C   0  0  0  0  0  0  0  0  0  0  0  0
    9.5636  -13.6155   20.9179 O   0  0  0  0  0  0  0  0  0  0  0  0
    7.5132  -13.8710   21.8812 N   0  0  0  0  0  0  0  0  0  0  0  0
    7.9512  -14.0907   23.2213 C   0  0  1  0  0  0  0  0  0  0  0  0
    6.8867  -13.9719   24.2761 C   0  0  0  0  0  0  0  0  0  0  0  0
    7.2701  -12.9391   25.3396 C   0  0  0  0  0  0  0  0  0  0  0  0
    6.0684  -12.8391   26.2897 C   0  0  0  0  0  0  0  0  0  0  0  0
    6.4063  -11.9288   27.4442 C   0  0  0  0  0  0  0  0  0  0  0  0
    5.2102  -11.8522   28.2801 N   0  0  0  0  0  0  0  0  0  0  0  0
    8.5688  -15.4454   23.4062 C   0  0  0  0  0  0  0  0  0  0  0  0
    8.4442  -16.2964   22.4882 O   0  0  0  0  0  0  0  0  0  0  0  0
    9.2855  -15.8168   24.5611 N   0  0  0  0  0  0  0  0  0  0  0  0
   10.1613  -16.9746   24.6293 C   0  0  1  0  0  0  0  0  0  0  0  0
   11.3058  -16.8704   23.6546 C   0  0  0  0  0  0  0  0  0  0  0  0
   11.8285  -18.2028   23.2589 C   0  0  0  0  0  0  0  0  0  0  0  0
   11.0645  -19.1858   23.4337 O   0  0  0  0  0  0  0  0  0  0  0  0
   10.7459  -17.0040   25.9944 C   0  0  0  0  0  0  0  0  0  0  0  0
   11.5227  -18.0615   26.4380 O   0  0  0  0  0  0  0  0  0  0  0  0
   13.0714  -18.4235   22.7239 O   0  0  0  0  0  0  0  0  0  0  0  0
   10.5455  -16.0606   26.7819 O   0  0  0  0  0  0  0  0  0  0  0  0
  2  1  1  1
  2  3  1  0
  4  6  1  0
  4  2  1  0
  4  5  1  6
  6  7  2  0
  8  9  1  0
  8  6  1  0
  9 15  1  0
  9 10  1  1
 11 10  1  0
 12 11  1  0
 12 13  1  0
 13 14  1  0
 15 16  2  0
 17 15  1  0
 17 18  1  0
 18 22  1  0
 18 19  1  6
 20 19  1  0
 21 20  2  0
 22 25  2  0
 22 23  1  0
 24 20  1  0
M  END
$$$$
