TKD.pdb
     RDKit          3D

 25 24  0  0  1  0  0  0  0  0999 V2000
    8.1501  -18.5592   20.5427 C   0  0  0  0  0  0  0  0  0  0  0  0
    9.2583  -18.0974   19.6357 C   0  0  1  0  0  0  0  0  0  0  0  0
    9.1342  -18.6157   18.3605 O   0  0  0  0  0  0  0  0  0  0  0  0
    9.2364  -16.5852   19.5467 C   0  0  2  0  0  0  0  0  0  0  0  0
   10.2849  -16.1946   18.6365 N   0  0  0  0  0  0  0  0  0  0  0  0
    9.5312  -15.9824   20.8731 C   0  0  0  0  0  0  0  0  0  0  0  0
   10.7004  -15.9910   21.2743 O   0  0  0  0  0  0  0  0  0  0  0  0
    8.5354  -15.4059   21.6842 N   0  0  0  0  0  0  0  0  0  0  0  0
    8.7162  -14.9110   23.0103 C   0  0  1  0  0  0  0  0  0  0  0  0
    7.5751  -14.0996   23.5576 C   0  0  0  0  0  0  0  0  0  0  0  0
    7.8461  -13.6603   24.9993 C   0  0  0  0  0  0  0  0  0  0  0  0
    6.6573  -12.7786   25.4069 C   0  0  0  0  0  0  0  0  0  0  0  0
    6.8624  -12.2641   26.8101 C   0  0  0  0  0  0  0  0  0  0  0  0
    5.7401  -11.3733   27.0969 N   0  0  0  0  0  0  0  0  0  0  0  0
    8.9571  -16.0099   24.0029 C   0  0  0  0  0  0  0  0  0  0  0  0
    8.0999  -16.9240   24.1119 O   0  0  0  0  0  0  0  0  0  0  0  0
   10.1002  -16.0722   24.8244 N   0  0  0  0  0  0  0  0  0  0  0  0
   10.4054  -17.1928   25.6981 C   0  0  1  0  0  0  0  0  0  0  0  0
   11.8553  -17.5936   25.6107 C   0  0  0  0  0  0  0  0  0  0  0  0
   12.1012  -18.5755   24.5242 C   0  0  0  0  0  0  0  0  0  0  0  0
   11.0925  -19.0020   23.9069 O   0  0  0  0  0  0  0  0  0  0  0  0
   10.1549  -16.7447   27.0918 C   0  0  0  0  0  0  0  0  0  0  0  0
   10.1403  -17.6305   28.1566 O   0  0  0  0  0  0  0  0  0  0  0  0
   13.3391  -19.0379   24.1588 O   0  0  0  0  0  0  0  0  0  0  0  0
    9.9492  -15.5410   27.3352 O   0  0  0  0  0  0  0  0  0  0  0  0
  2  1  1  1
  2  3  1  0
  4  6  1  0
  4  2  1  0
  4  5  1  6
  6  7  2  0
  8  9  1  0
  8  6  1  0
  9 15  1  0
  9 10  1  1
 11 10  1  0
 12 11  1  0
 12 13  1  0
 13 14  1  0
 15 16  2  0
 17 15  1  0
 17 18  1  0
 18 22  1  0
 18 19  1  1
 20 19  1  0
 21 20  2  0
 22 25  2  0
 22 23  1  0
 24 20  1  0
M  END
$$$$
