TKD.pdb
     RDKit          3D

 25 24  0  0  1  0  0  0  0  0999 V2000
   -4.5514  -21.5103   31.3699 C   0  0  0  0  0  0  0  0  0  0  0  0
   -4.7218  -20.7151   30.1040 C   0  0  1  0  0  0  0  0  0  0  0  0
   -4.1579  -19.4572   30.2022 O   0  0  0  0  0  0  0  0  0  0  0  0
   -4.0622  -21.4518   28.9563 C   0  0  2  0  0  0  0  0  0  0  0  0
   -4.1442  -20.5986   27.7962 N   0  0  0  0  0  0  0  0  0  0  0  0
   -4.7966  -22.7086   28.6551 C   0  0  0  0  0  0  0  0  0  0  0  0
   -5.8535  -22.6321   28.0185 O   0  0  0  0  0  0  0  0  0  0  0  0
   -4.3369  -23.9745   29.0650 N   0  0  0  0  0  0  0  0  0  0  0  0
   -5.0360  -25.2095   28.9161 C   0  0  1  0  0  0  0  0  0  0  0  0
   -4.1953  -26.4480   29.0551 C   0  0  0  0  0  0  0  0  0  0  0  0
   -3.2235  -26.5954   27.8809 C   0  0  0  0  0  0  0  0  0  0  0  0
   -2.4533  -27.9006   28.1262 C   0  0  0  0  0  0  0  0  0  0  0  0
   -1.4240  -28.0962   27.0408 C   0  0  0  0  0  0  0  0  0  0  0  0
   -0.6889  -29.3136   27.3764 N   0  0  0  0  0  0  0  0  0  0  0  0
   -6.1557  -25.3554   29.9039 C   0  0  0  0  0  0  0  0  0  0  0  0
   -5.9855  -24.9334   31.0766 O   0  0  0  0  0  0  0  0  0  0  0  0
   -7.3956  -25.9439   29.5851 N   0  0  0  0  0  0  0  0  0  0  0  0
   -8.5219  -25.9989   30.5020 C   0  0  1  0  0  0  0  0  0  0  0  0
   -8.9665  -24.6234   30.9275 C   0  0  0  0  0  0  0  0  0  0  0  0
  -10.1221  -24.6707   31.8589 C   0  0  0  0  0  0  0  0  0  0  0  0
  -10.2489  -25.7118   32.5520 O   0  0  0  0  0  0  0  0  0  0  0  0
   -9.6545  -26.6218   29.7704 C   0  0  0  0  0  0  0  0  0  0  0  0
   -9.5661  -26.9591   28.4299 O   0  0  0  0  0  0  0  0  0  0  0  0
  -11.0435  -23.6664   32.0072 O   0  0  0  0  0  0  0  0  0  0  0  0
  -10.7262  -26.8576   30.3589 O   0  0  0  0  0  0  0  0  0  0  0  0
  2  1  1  1
  2  3  1  0
  4  6  1  0
  4  2  1  0
  4  5  1  6
  6  7  2  0
  8  9  1  0
  8  6  1  0
  9 15  1  0
  9 10  1  1
 11 10  1  0
 12 11  1  0
 12 13  1  0
 13 14  1  0
 15 16  2  0
 17 15  1  0
 17 18  1  0
 18 22  1  0
 18 19  1  6
 20 19  1  0
 21 20  2  0
 22 25  2  0
 22 23  1  0
 24 20  1  0
M  END
$$$$
