TKD.pdb
     RDKit          3D

 25 24  0  0  1  0  0  0  0  0999 V2000
   14.0369  -17.2853   18.3293 C   0  0  0  0  0  0  0  0  0  0  0  0
   14.8798  -16.0776   18.0210 C   0  0  1  0  0  0  0  0  0  0  0  0
   15.5465  -16.2045   16.8171 O   0  0  0  0  0  0  0  0  0  0  0  0
   13.9933  -14.8508   17.9553 C   0  0  2  0  0  0  0  0  0  0  0  0
   14.8457  -13.7210   17.6771 N   0  0  0  0  0  0  0  0  0  0  0  0
   13.3328  -14.6162   19.2661 C   0  0  0  0  0  0  0  0  0  0  0  0
   14.0388  -14.3004   20.2304 O   0  0  0  0  0  0  0  0  0  0  0  0
   11.9424  -14.7395   19.4495 N   0  0  0  0  0  0  0  0  0  0  0  0
   11.2482  -14.6411   20.6922 C   0  0  1  0  0  0  0  0  0  0  0  0
    9.7587  -14.4673   20.5875 C   0  0  0  0  0  0  0  0  0  0  0  0
    9.3940  -13.4128   19.5388 C   0  0  0  0  0  0  0  0  0  0  0  0
    7.8675  -13.4730   19.3864 C   0  0  0  0  0  0  0  0  0  0  0  0
    7.4307  -12.5580   18.2695 C   0  0  0  0  0  0  0  0  0  0  0  0
    5.9731  -12.6402   18.2076 N   0  0  0  0  0  0  0  0  0  0  0  0
   11.4652  -15.8420   21.5650 C   0  0  0  0  0  0  0  0  0  0  0  0
   11.3879  -16.9862   21.0482 O   0  0  0  0  0  0  0  0  0  0  0  0
   11.7527  -15.7549   22.9416 N   0  0  0  0  0  0  0  0  0  0  0  0
   11.9799  -16.9107   23.7929 C   0  0  1  0  0  0  0  0  0  0  0  0
   13.3546  -16.8918   24.4096 C   0  0  0  0  0  0  0  0  0  0  0  0
   14.3985  -17.3695   23.4677 C   0  0  0  0  0  0  0  0  0  0  0  0
   13.9986  -17.8986   22.3997 O   0  0  0  0  0  0  0  0  0  0  0  0
   10.9970  -16.8385   24.9040 C   0  0  0  0  0  0  0  0  0  0  0  0
   10.1275  -15.7697   25.0470 O   0  0  0  0  0  0  0  0  0  0  0  0
   15.7483  -17.2711   23.6870 O   0  0  0  0  0  0  0  0  0  0  0  0
   10.9339  -17.7546   25.7449 O   0  0  0  0  0  0  0  0  0  0  0  0
  2  1  1  6
  2  3  1  0
  4  6  1  0
  4  2  1  0
  4  5  1  1
  6  7  2  0
  8  9  1  0
  8  6  1  0
  9 15  1  0
  9 10  1  6
 11 10  1  0
 12 11  1  0
 12 13  1  0
 13 14  1  0
 15 16  2  0
 17 15  1  0
 17 18  1  0
 18 22  1  0
 18 19  1  1
 20 19  1  0
 21 20  2  0
 22 25  2  0
 22 23  1  0
 24 20  1  0
M  END
$$$$
