TKD.pdb
     RDKit          3D

 25 24  0  0  1  0  0  0  0  0999 V2000
    8.1200  -16.0988   18.1928 C   0  0  0  0  0  0  0  0  0  0  0  0
    8.3159  -14.6102   18.0940 C   0  0  1  0  0  0  0  0  0  0  0  0
    7.8825  -14.1098   16.8808 O   0  0  0  0  0  0  0  0  0  0  0  0
    7.5412  -13.9276   19.2026 C   0  0  2  0  0  0  0  0  0  0  0  0
    7.6276  -12.5062   18.9729 N   0  0  0  0  0  0  0  0  0  0  0  0
    8.1588  -14.2181   20.5231 C   0  0  0  0  0  0  0  0  0  0  0  0
    9.2489  -13.6988   20.7876 O   0  0  0  0  0  0  0  0  0  0  0  0
    7.5528  -15.0569   21.4776 N   0  0  0  0  0  0  0  0  0  0  0  0
    8.1413  -15.4988   22.7001 C   0  0  1  0  0  0  0  0  0  0  0  0
    7.2875  -16.4128   23.5341 C   0  0  0  0  0  0  0  0  0  0  0  0
    8.0472  -16.9136   24.7658 C   0  0  0  0  0  0  0  0  0  0  0  0
    7.0629  -17.7990   25.5430 C   0  0  0  0  0  0  0  0  0  0  0  0
    7.6915  -18.2414   26.8410 C   0  0  0  0  0  0  0  0  0  0  0  0
    6.7327  -19.1354   27.4864 N   0  0  0  0  0  0  0  0  0  0  0  0
    9.4358  -16.2252   22.4819 C   0  0  0  0  0  0  0  0  0  0  0  0
    9.4620  -17.1801   21.6634 O   0  0  0  0  0  0  0  0  0  0  0  0
   10.6309  -15.8919   23.1496 N   0  0  0  0  0  0  0  0  0  0  0  0
   11.9084  -16.5323   22.8847 C   0  0  1  0  0  0  0  0  0  0  0  0
   12.9784  -15.5287   22.5403 C   0  0  0  0  0  0  0  0  0  0  0  0
   14.3094  -16.1644   22.3693 C   0  0  0  0  0  0  0  0  0  0  0  0
   14.3210  -17.3556   21.9675 O   0  0  0  0  0  0  0  0  0  0  0  0
   12.3277  -17.2117   24.1372 C   0  0  0  0  0  0  0  0  0  0  0  0
   13.2561  -18.2397   24.1396 O   0  0  0  0  0  0  0  0  0  0  0  0
   15.5061  -15.5434   22.6184 O   0  0  0  0  0  0  0  0  0  0  0  0
   11.8438  -16.8640   25.2305 O   0  0  0  0  0  0  0  0  0  0  0  0
  2  1  1  6
  2  3  1  0
  4  6  1  0
  4  2  1  0
  4  5  1  6
  6  7  2  0
  8  9  1  0
  8  6  1  0
  9 15  1  0
  9 10  1  6
 11 10  1  0
 12 11  1  0
 12 13  1  0
 13 14  1  0
 15 16  2  0
 17 15  1  0
 17 18  1  0
 18 22  1  0
 18 19  1  1
 20 19  1  0
 21 20  2  0
 22 25  2  0
 22 23  1  0
 24 20  1  0
M  END
$$$$
