TKD.pdb
     RDKit          3D

 25 24  0  0  1  0  0  0  0  0999 V2000
    8.0235  -13.9569   16.8806 C   0  0  0  0  0  0  0  0  0  0  0  0
    8.4455  -14.4069   18.2530 C   0  0  1  0  0  0  0  0  0  0  0  0
    9.7985  -14.2224   18.4657 O   0  0  0  0  0  0  0  0  0  0  0  0
    7.6806  -13.6189   19.2966 C   0  0  2  0  0  0  0  0  0  0  0  0
    8.0649  -12.2358   19.1555 N   0  0  0  0  0  0  0  0  0  0  0  0
    8.0585  -14.0636   20.6637 C   0  0  0  0  0  0  0  0  0  0  0  0
    9.0005  -13.4941   21.2262 O   0  0  0  0  0  0  0  0  0  0  0  0
    7.3883  -15.1023   21.3375 N   0  0  0  0  0  0  0  0  0  0  0  0
    7.7944  -15.7045   22.5657 C   0  0  1  0  0  0  0  0  0  0  0  0
    6.8616  -16.7493   23.1117 C   0  0  0  0  0  0  0  0  0  0  0  0
    7.0994  -18.1088   22.4484 C   0  0  0  0  0  0  0  0  0  0  0  0
    6.0844  -19.0736   23.0776 C   0  0  0  0  0  0  0  0  0  0  0  0
    6.2900  -20.4615   22.5235 C   0  0  0  0  0  0  0  0  0  0  0  0
    5.2413  -21.3008   23.0988 N   0  0  0  0  0  0  0  0  0  0  0  0
    9.1390  -16.3620   22.4631 C   0  0  0  0  0  0  0  0  0  0  0  0
    9.5291  -16.7669   21.3378 O   0  0  0  0  0  0  0  0  0  0  0  0
    9.9930  -16.5510   23.5678 N   0  0  0  0  0  0  0  0  0  0  0  0
   11.3968  -16.9087   23.4502 C   0  0  1  0  0  0  0  0  0  0  0  0
   12.2456  -15.7275   23.0565 C   0  0  0  0  0  0  0  0  0  0  0  0
   13.4505  -16.1335   22.2894 C   0  0  0  0  0  0  0  0  0  0  0  0
   13.4765  -17.3142   21.8585 O   0  0  0  0  0  0  0  0  0  0  0  0
   11.8519  -17.3508   24.7931 C   0  0  0  0  0  0  0  0  0  0  0  0
   11.0358  -17.2679   25.9091 O   0  0  0  0  0  0  0  0  0  0  0  0
   14.5181  -15.3145   22.0266 O   0  0  0  0  0  0  0  0  0  0  0  0
   12.9978  -17.8136   24.9449 O   0  0  0  0  0  0  0  0  0  0  0  0
  2  1  1  6
  2  3  1  0
  4  6  1  0
  4  2  1  0
  4  5  1  1
  6  7  2  0
  8  9  1  0
  8  6  1  0
  9 15  1  0
  9 10  1  6
 11 10  1  0
 12 11  1  0
 12 13  1  0
 13 14  1  0
 15 16  2  0
 17 15  1  0
 17 18  1  0
 18 22  1  0
 18 19  1  1
 20 19  1  0
 21 20  2  0
 22 25  2  0
 22 23  1  0
 24 20  1  0
M  END
$$$$
