TKD.pdb
     RDKit          3D

 25 24  0  0  1  0  0  0  0  0999 V2000
    7.2770  -14.0647   17.2544 C   0  0  0  0  0  0  0  0  0  0  0  0
    7.9925  -14.4637   18.5165 C   0  0  1  0  0  0  0  0  0  0  0  0
    9.3598  -14.5465   18.3331 O   0  0  0  0  0  0  0  0  0  0  0  0
    7.7112  -13.4402   19.5975 C   0  0  2  0  0  0  0  0  0  0  0  0
    8.1971  -12.1688   19.1202 N   0  0  0  0  0  0  0  0  0  0  0  0
    8.4541  -13.7790   20.8396 C   0  0  0  0  0  0  0  0  0  0  0  0
    9.5530  -13.2457   21.0297 O   0  0  0  0  0  0  0  0  0  0  0  0
    7.9564  -14.6785   21.8015 N   0  0  0  0  0  0  0  0  0  0  0  0
    8.6449  -15.1234   22.9694 C   0  0  1  0  0  0  0  0  0  0  0  0
    7.8621  -16.0359   23.8719 C   0  0  0  0  0  0  0  0  0  0  0  0
    8.7221  -16.5411   25.0338 C   0  0  0  0  0  0  0  0  0  0  0  0
    7.8464  -17.5327   25.8128 C   0  0  0  0  0  0  0  0  0  0  0  0
    8.6146  -18.0716   26.9940 C   0  0  0  0  0  0  0  0  0  0  0  0
    7.6874  -18.9135   27.7468 N   0  0  0  0  0  0  0  0  0  0  0  0
    9.9141  -15.8533   22.6418 C   0  0  0  0  0  0  0  0  0  0  0  0
    9.8579  -16.8475   21.8732 O   0  0  0  0  0  0  0  0  0  0  0  0
   11.1733  -15.4813   23.1529 N   0  0  0  0  0  0  0  0  0  0  0  0
   12.4105  -16.1733   22.8321 C   0  0  1  0  0  0  0  0  0  0  0  0
   13.5458  -15.2115   22.5941 C   0  0  0  0  0  0  0  0  0  0  0  0
   14.1585  -15.3878   21.2530 C   0  0  0  0  0  0  0  0  0  0  0  0
   13.6550  -16.2696   20.5117 O   0  0  0  0  0  0  0  0  0  0  0  0
   12.7717  -16.9986   24.0130 C   0  0  0  0  0  0  0  0  0  0  0  0
   13.8032  -17.9222   23.9755 O   0  0  0  0  0  0  0  0  0  0  0  0
   15.2210  -14.6611   20.7813 O   0  0  0  0  0  0  0  0  0  0  0  0
   12.1426  -16.8740   25.0802 O   0  0  0  0  0  0  0  0  0  0  0  0
  2  1  1  6
  2  3  1  0
  4  6  1  0
  4  2  1  0
  4  5  1  6
  6  7  2  0
  8  9  1  0
  8  6  1  0
  9 15  1  0
  9 10  1  6
 11 10  1  0
 12 11  1  0
 12 13  1  0
 13 14  1  0
 15 16  2  0
 17 15  1  0
 17 18  1  0
 18 22  1  0
 18 19  1  1
 20 19  1  0
 21 20  2  0
 22 25  2  0
 22 23  1  0
 24 20  1  0
M  END
$$$$
