TKD.pdb
     RDKit          3D

 25 24  0  0  1  0  0  0  0  0999 V2000
    9.3239  -15.8860   17.3279 C   0  0  0  0  0  0  0  0  0  0  0  0
    8.9445  -14.4318   17.2556 C   0  0  1  0  0  0  0  0  0  0  0  0
    8.7755  -14.0045   15.9522 O   0  0  0  0  0  0  0  0  0  0  0  0
    7.6475  -14.2137   18.0075 C   0  0  2  0  0  0  0  0  0  0  0  0
    7.3550  -12.8023   17.9563 N   0  0  0  0  0  0  0  0  0  0  0  0
    7.8032  -14.5993   19.4346 C   0  0  0  0  0  0  0  0  0  0  0  0
    8.4315  -13.8410   20.1818 O   0  0  0  0  0  0  0  0  0  0  0  0
    7.2654  -15.7878   19.9639 N   0  0  0  0  0  0  0  0  0  0  0  0
    7.5806  -16.3589   21.2329 C   0  0  1  0  0  0  0  0  0  0  0  0
    6.7167  -17.5153   21.6529 C   0  0  0  0  0  0  0  0  0  0  0  0
    5.2457  -17.2641   21.3099 C   0  0  0  0  0  0  0  0  0  0  0  0
    4.4874  -18.5309   21.7307 C   0  0  0  0  0  0  0  0  0  0  0  0
    3.0241  -18.3838   21.3948 C   0  0  0  0  0  0  0  0  0  0  0  0
    2.3648  -19.6039   21.8552 N   0  0  0  0  0  0  0  0  0  0  0  0
    8.9959  -16.8519   21.3026 C   0  0  0  0  0  0  0  0  0  0  0  0
    9.6303  -17.0202   20.2295 O   0  0  0  0  0  0  0  0  0  0  0  0
    9.6558  -17.1381   22.5142 N   0  0  0  0  0  0  0  0  0  0  0  0
   11.1016  -17.1888   22.6527 C   0  0  1  0  0  0  0  0  0  0  0  0
   11.7440  -15.8675   22.3179 C   0  0  0  0  0  0  0  0  0  0  0  0
   13.2242  -15.9208   22.4232 C   0  0  0  0  0  0  0  0  0  0  0  0
   13.7336  -15.4710   23.4809 O   0  0  0  0  0  0  0  0  0  0  0  0
   11.3969  -17.4736   24.0802 C   0  0  0  0  0  0  0  0  0  0  0  0
   12.6609  -17.8436   24.5090 O   0  0  0  0  0  0  0  0  0  0  0  0
   14.0556  -16.4218   21.4549 O   0  0  0  0  0  0  0  0  0  0  0  0
   10.4968  -17.3837   24.9359 O   0  0  0  0  0  0  0  0  0  0  0  0
  2  1  1  6
  2  3  1  0
  4  6  1  0
  4  2  1  0
  4  5  1  1
  6  7  2  0
  8  9  1  0
  8  6  1  0
  9 15  1  0
  9 10  1  6
 11 10  1  0
 12 11  1  0
 12 13  1  0
 13 14  1  0
 15 16  2  0
 17 15  1  0
 17 18  1  0
 18 22  1  0
 18 19  1  1
 20 19  1  0
 21 20  2  0
 22 25  2  0
 22 23  1  0
 24 20  1  0
M  END
$$$$
