CSD.pdb
     RDKit          3D

 21 20  0  0  1  0  0  0  0  0999 V2000
   20.3223  -14.3222  -16.5984 N   0  0  0  0  0  0  0  0  0  0  0  0
   19.2914  -13.3347  -16.4561 C   0  0  1  0  0  0  0  0  0  0  0  0
   18.8705  -13.3401  -14.9844 C   0  0  0  0  0  0  0  0  0  0  0  0
   18.0554  -14.9326  -14.6709 S   0  0  0  0  0  0  0  0  0  0  0  0
   19.7715  -11.9570  -16.7576 C   0  0  0  0  0  0  0  0  0  0  0  0
   20.9904  -11.7370  -16.4654 O   0  0  0  0  0  0  0  0  0  0  0  0
   17.3899   -8.7147  -18.1754 O   0  0  0  0  0  0  0  0  0  0  0  0
   18.6595   -8.9617  -18.6776 C   0  0  0  0  0  0  0  0  0  0  0  0
   19.5402   -9.6575  -17.6549 C   0  0  2  0  0  0  0  0  0  0  0  0
   18.9787  -10.9495  -17.3192 N   0  0  0  0  0  0  0  0  0  0  0  0
   19.7548   -8.8241  -16.4556 C   0  0  0  0  0  0  0  0  0  0  0  0
   19.0103   -9.0010  -15.4394 O   0  0  0  0  0  0  0  0  0  0  0  0
   20.7359   -7.8253  -16.3360 N   0  0  0  0  0  0  0  0  0  0  0  0
   20.9238   -6.9920  -15.1613 C   0  0  1  0  0  0  0  0  0  0  0  0
   22.2570   -6.3501  -15.0995 C   0  0  0  0  0  0  0  0  0  0  0  0
   22.3752   -5.5562  -13.8622 C   0  0  0  0  0  0  0  0  0  0  0  0
   22.0150   -5.9181  -12.7161 O   0  0  0  0  0  0  0  0  0  0  0  0
   19.8635   -5.9574  -15.1418 C   0  0  0  0  0  0  0  0  0  0  0  0
   19.5973   -5.3560  -14.0651 O   0  0  0  0  0  0  0  0  0  0  0  0
   22.9367   -4.2820  -13.9510 O   0  0  0  0  0  0  0  0  0  0  0  0
   19.1181   -5.5820  -16.2418 O   0  0  0  0  0  0  0  0  0  0  0  0
  2  5  1  0
  2  1  1  1
  3  2  1  0
  4  3  1  0
  5  6  2  0
  8  7  1  0
  9  8  1  6
 10  9  1  0
 10  5  1  0
 11 13  1  0
 11  9  1  0
 12 11  2  0
 14 13  1  0
 14 15  1  6
 15 16  1  0
 16 20  1  0
 16 17  2  0
 18 14  1  0
 19 18  2  0
 21 18  1  0
M  END
$$$$
