CSD.pdb
     RDKit          3D

 21 20  0  0  1  0  0  0  0  0999 V2000
   17.8130  -12.5611  -15.0663 N   0  0  0  0  0  0  0  0  0  0  0  0
   18.1913  -11.5564  -16.0179 C   0  0  1  0  0  0  0  0  0  0  0  0
   16.9541  -10.6895  -16.2650 C   0  0  0  0  0  0  0  0  0  0  0  0
   15.8940  -11.5961  -17.4282 S   0  0  0  0  0  0  0  0  0  0  0  0
   19.2527  -10.6478  -15.5011 C   0  0  0  0  0  0  0  0  0  0  0  0
   19.1079  -10.2872  -14.2891 O   0  0  0  0  0  0  0  0  0  0  0  0
   23.2754  -10.8208  -15.8831 O   0  0  0  0  0  0  0  0  0  0  0  0
   22.7056   -9.6380  -16.3317 C   0  0  0  0  0  0  0  0  0  0  0  0
   21.3710   -9.3694  -15.6591 C   0  0  2  0  0  0  0  0  0  0  0  0
   20.3439  -10.1991  -16.2540 N   0  0  0  0  0  0  0  0  0  0  0  0
   21.0123   -7.9382  -15.7001 C   0  0  0  0  0  0  0  0  0  0  0  0
   20.5329   -7.4521  -16.7735 O   0  0  0  0  0  0  0  0  0  0  0  0
   21.1586   -7.0418  -14.6279 N   0  0  0  0  0  0  0  0  0  0  0  0
   20.8285   -5.6286  -14.6850 C   0  0  1  0  0  0  0  0  0  0  0  0
   19.9735   -5.1759  -13.5637 C   0  0  0  0  0  0  0  0  0  0  0  0
   19.6508   -3.7456  -13.7239 C   0  0  0  0  0  0  0  0  0  0  0  0
   20.3170   -2.7838  -13.2709 O   0  0  0  0  0  0  0  0  0  0  0  0
   22.0886   -4.8498  -14.7058 C   0  0  0  0  0  0  0  0  0  0  0  0
   23.1110   -5.2998  -14.1190 O   0  0  0  0  0  0  0  0  0  0  0  0
   18.5033   -3.4082  -14.4422 O   0  0  0  0  0  0  0  0  0  0  0  0
   22.2437   -3.6315  -15.3369 O   0  0  0  0  0  0  0  0  0  0  0  0
  2  5  1  0
  2  1  1  1
  3  2  1  0
  4  3  1  0
  5  6  2  0
  8  7  1  0
  9  8  1  6
 10  9  1  0
 10  5  1  0
 11 13  1  0
 11  9  1  0
 12 11  2  0
 14 13  1  0
 14 15  1  1
 15 16  1  0
 16 20  1  0
 16 17  2  0
 18 14  1  0
 19 18  2  0
 21 18  1  0
M  END
$$$$
