CSD.pdb
     RDKit          3D

 21 20  0  0  1  0  0  0  0  0999 V2000
   20.0140  -12.5250  -18.3315 N   0  0  0  0  0  0  0  0  0  0  0  0
   20.9958  -11.4825  -18.2465 C   0  0  1  0  0  0  0  0  0  0  0  0
   21.0014  -10.7655  -19.5989 C   0  0  0  0  0  0  0  0  0  0  0  0
   21.9502  -11.8048  -20.7471 S   0  0  0  0  0  0  0  0  0  0  0  0
   20.6557  -10.4567  -17.2211 C   0  0  0  0  0  0  0  0  0  0  0  0
   19.4433  -10.0698  -17.2298 O   0  0  0  0  0  0  0  0  0  0  0  0
   21.0945   -8.5949  -12.9238 O   0  0  0  0  0  0  0  0  0  0  0  0
   21.5105   -9.4739  -13.9134 C   0  0  0  0  0  0  0  0  0  0  0  0
   21.1464   -8.9700  -15.2987 C   0  0  2  0  0  0  0  0  0  0  0  0
   21.5667   -9.9299  -16.2982 N   0  0  0  0  0  0  0  0  0  0  0  0
   21.7019   -7.6275  -15.5595 C   0  0  0  0  0  0  0  0  0  0  0  0
   22.9107   -7.5228  -15.9416 O   0  0  0  0  0  0  0  0  0  0  0  0
   20.9925   -6.4228  -15.4183 N   0  0  0  0  0  0  0  0  0  0  0  0
   21.5602   -5.1030  -15.6310 C   0  0  1  0  0  0  0  0  0  0  0  0
   20.5454   -4.0621  -15.9143 C   0  0  0  0  0  0  0  0  0  0  0  0
   19.9224   -4.3124  -17.2275 C   0  0  0  0  0  0  0  0  0  0  0  0
   20.5147   -4.7008  -18.2631 O   0  0  0  0  0  0  0  0  0  0  0  0
   22.3470   -4.7286  -14.4328 C   0  0  0  0  0  0  0  0  0  0  0  0
   22.2229   -5.3971  -13.3700 O   0  0  0  0  0  0  0  0  0  0  0  0
   18.5484   -4.1046  -17.3524 O   0  0  0  0  0  0  0  0  0  0  0  0
   23.2369   -3.6741  -14.3808 O   0  0  0  0  0  0  0  0  0  0  0  0
  2  5  1  0
  2  1  1  6
  3  2  1  0
  4  3  1  0
  5  6  2  0
  8  7  1  0
  9  8  1  1
 10  9  1  0
 10  5  1  0
 11 13  1  0
 11  9  1  0
 12 11  2  0
 14 13  1  0
 14 15  1  1
 15 16  1  0
 16 20  1  0
 16 17  2  0
 18 14  1  0
 19 18  2  0
 21 18  1  0
M  END
$$$$
