CSD.pdb
     RDKit          3D

 21 20  0  0  1  0  0  0  0  0999 V2000
   24.8537  -12.2628  -18.2550 N   0  0  0  0  0  0  0  0  0  0  0  0
   25.1239  -11.1431  -17.3998 C   0  0  1  0  0  0  0  0  0  0  0  0
   26.2979  -10.3821  -18.0209 C   0  0  0  0  0  0  0  0  0  0  0  0
   26.6591   -8.9781  -16.9268 S   0  0  0  0  0  0  0  0  0  0  0  0
   23.9840  -10.1864  -17.3304 C   0  0  0  0  0  0  0  0  0  0  0  0
   23.5598   -9.7737  -18.4571 O   0  0  0  0  0  0  0  0  0  0  0  0
   21.7412   -9.1975  -13.8546 O   0  0  0  0  0  0  0  0  0  0  0  0
   21.2453   -9.1931  -15.1504 C   0  0  0  0  0  0  0  0  0  0  0  0
   22.3089   -8.7867  -16.1551 C   0  0  2  0  0  0  0  0  0  0  0  0
   23.3928   -9.7469  -16.1403 N   0  0  0  0  0  0  0  0  0  0  0  0
   22.7909   -7.4115  -15.9203 C   0  0  0  0  0  0  0  0  0  0  0  0
   23.8386   -7.2352  -15.2208 O   0  0  0  0  0  0  0  0  0  0  0  0
   22.1762   -6.2488  -16.4154 N   0  0  0  0  0  0  0  0  0  0  0  0
   22.6263   -4.8965  -16.1359 C   0  0  1  0  0  0  0  0  0  0  0  0
   22.0810   -3.8871  -17.0724 C   0  0  0  0  0  0  0  0  0  0  0  0
   22.6588   -2.5629  -16.7756 C   0  0  0  0  0  0  0  0  0  0  0  0
   23.7993   -2.3453  -16.3003 O   0  0  0  0  0  0  0  0  0  0  0  0
   22.2494   -4.5513  -14.7454 C   0  0  0  0  0  0  0  0  0  0  0  0
   22.6113   -3.4460  -14.2561 O   0  0  0  0  0  0  0  0  0  0  0  0
   21.8828   -1.4340  -17.0402 O   0  0  0  0  0  0  0  0  0  0  0  0
   21.5080   -5.3651  -13.9120 O   0  0  0  0  0  0  0  0  0  0  0  0
  2  5  1  0
  2  1  1  6
  3  2  1  0
  4  3  1  0
  5  6  2  0
  8  7  1  0
  9  8  1  1
 10  9  1  0
 10  5  1  0
 11 13  1  0
 11  9  1  0
 12 11  2  0
 14 13  1  0
 14 15  1  6
 15 16  1  0
 16 20  1  0
 16 17  2  0
 18 14  1  0
 19 18  2  0
 21 18  1  0
M  END
$$$$
