CSD.pdb
     RDKit          3D

 21 20  0  0  1  0  0  0  0  0999 V2000
   25.9533  -13.2537  -17.7898 N   0  0  0  0  0  0  0  0  0  0  0  0
   25.5107  -12.5905  -16.5972 C   0  0  1  0  0  0  0  0  0  0  0  0
   26.7285  -11.8734  -16.0091 C   0  0  0  0  0  0  0  0  0  0  0  0
   27.8146  -13.1533  -15.3152 S   0  0  0  0  0  0  0  0  0  0  0  0
   24.4886  -11.5416  -16.8701 C   0  0  0  0  0  0  0  0  0  0  0  0
   24.6816  -10.8668  -17.9318 O   0  0  0  0  0  0  0  0  0  0  0  0
   20.8258  -11.2879  -14.8884 O   0  0  0  0  0  0  0  0  0  0  0  0
   20.9966  -10.8630  -16.1981 C   0  0  0  0  0  0  0  0  0  0  0  0
   22.3884  -10.3008  -16.4270 C   0  0  2  0  0  0  0  0  0  0  0  0
   23.3841  -11.2826  -16.0502 N   0  0  0  0  0  0  0  0  0  0  0  0
   22.5871   -9.0194  -15.7219 C   0  0  0  0  0  0  0  0  0  0  0  0
   23.1411   -9.0239  -14.5768 O   0  0  0  0  0  0  0  0  0  0  0  0
   22.2069   -7.7612  -16.2188 N   0  0  0  0  0  0  0  0  0  0  0  0
   22.3440   -6.5123  -15.4902 C   0  0  1  0  0  0  0  0  0  0  0  0
   22.1101   -5.3121  -16.3259 C   0  0  0  0  0  0  0  0  0  0  0  0
   22.3078   -4.0927  -15.5200 C   0  0  0  0  0  0  0  0  0  0  0  0
   23.1856   -3.9247  -14.6394 O   0  0  0  0  0  0  0  0  0  0  0  0
   21.3994   -6.5251  -14.3490 C   0  0  0  0  0  0  0  0  0  0  0  0
   21.5796   -5.7373  -13.3800 O   0  0  0  0  0  0  0  0  0  0  0  0
   21.4510   -3.0140  -15.7408 O   0  0  0  0  0  0  0  0  0  0  0  0
   20.2994   -7.3543  -14.2548 O   0  0  0  0  0  0  0  0  0  0  0  0
  2  5  1  0
  2  1  1  6
  3  2  1  0
  4  3  1  0
  5  6  2  0
  8  7  1  0
  9  8  1  1
 10  9  1  0
 10  5  1  0
 11 13  1  0
 11  9  1  0
 12 11  2  0
 14 13  1  0
 14 15  1  6
 15 16  1  0
 16 20  1  0
 16 17  2  0
 18 14  1  0
 19 18  2  0
 21 18  1  0
M  END
$$$$
