CSD.pdb
     RDKit          3D

 21 20  0  0  1  0  0  0  0  0999 V2000
   25.8385  -11.6929  -17.2355 N   0  0  0  0  0  0  0  0  0  0  0  0
   24.4854  -11.5611  -17.6935 C   0  0  1  0  0  0  0  0  0  0  0  0
   23.5793  -11.9110  -16.5105 C   0  0  0  0  0  0  0  0  0  0  0  0
   24.1048  -10.8751  -15.1143 S   0  0  0  0  0  0  0  0  0  0  0  0
   24.1481  -10.1656  -18.0913 C   0  0  0  0  0  0  0  0  0  0  0  0
   25.0392   -9.2989  -17.8184 O   0  0  0  0  0  0  0  0  0  0  0  0
   20.4325   -8.8759  -19.6963 O   0  0  0  0  0  0  0  0  0  0  0  0
   21.6309   -8.3647  -20.1733 C   0  0  0  0  0  0  0  0  0  0  0  0
   22.7212   -8.4172  -19.1178 C   0  0  2  0  0  0  0  0  0  0  0  0
   22.9550   -9.7897  -18.7192 N   0  0  0  0  0  0  0  0  0  0  0  0
   22.4091   -7.5554  -17.9608 C   0  0  0  0  0  0  0  0  0  0  0  0
   21.9661   -8.0894  -16.8946 O   0  0  0  0  0  0  0  0  0  0  0  0
   22.5624   -6.1589  -17.9343 N   0  0  0  0  0  0  0  0  0  0  0  0
   22.2246   -5.3147  -16.8017 C   0  0  1  0  0  0  0  0  0  0  0  0
   23.1633   -5.4490  -15.6641 C   0  0  0  0  0  0  0  0  0  0  0  0
   22.7813   -4.5185  -14.5853 C   0  0  0  0  0  0  0  0  0  0  0  0
   22.0944   -4.8028  -13.5746 O   0  0  0  0  0  0  0  0  0  0  0  0
   22.1828   -3.9060  -17.2586 C   0  0  0  0  0  0  0  0  0  0  0  0
   22.8037   -3.5697  -18.3043 O   0  0  0  0  0  0  0  0  0  0  0  0
   23.2130   -3.1949  -14.6768 O   0  0  0  0  0  0  0  0  0  0  0  0
   21.4961   -2.8959  -16.6147 O   0  0  0  0  0  0  0  0  0  0  0  0
  2  5  1  0
  2  1  1  1
  3  2  1  0
  4  3  1  0
  5  6  2  0
  8  7  1  0
  9  8  1  6
 10  9  1  0
 10  5  1  0
 11 13  1  0
 11  9  1  0
 12 11  2  0
 14 13  1  0
 14 15  1  1
 15 16  1  0
 16 20  1  0
 16 17  2  0
 18 14  1  0
 19 18  2  0
 21 18  1  0
M  END
$$$$
