CSD.pdb
     RDKit          3D

 21 20  0  0  1  0  0  0  0  0999 V2000
   21.1584   -9.9121  -16.2467 N   0  0  0  0  0  0  0  0  0  0  0  0
   20.7165   -9.5985  -14.9184 C   0  0  1  0  0  0  0  0  0  0  0  0
   21.8313   -8.7821  -14.2599 C   0  0  0  0  0  0  0  0  0  0  0  0
   23.2052   -9.9247  -13.9347 S   0  0  0  0  0  0  0  0  0  0  0  0
   19.4971   -8.7427  -14.9069 C   0  0  0  0  0  0  0  0  0  0  0  0
   19.4106   -7.9178  -15.8722 O   0  0  0  0  0  0  0  0  0  0  0  0
   16.6660   -8.6112  -11.8077 O   0  0  0  0  0  0  0  0  0  0  0  0
   16.2169   -8.5938  -13.1203 C   0  0  0  0  0  0  0  0  0  0  0  0
   17.2716   -8.0459  -14.0654 C   0  0  2  0  0  0  0  0  0  0  0  0
   18.4968   -8.8061  -13.9300 N   0  0  0  0  0  0  0  0  0  0  0  0
   17.4966   -6.6015  -13.8611 C   0  0  0  0  0  0  0  0  0  0  0  0
   18.3239   -6.2252  -12.9711 O   0  0  0  0  0  0  0  0  0  0  0  0
   16.8589   -5.5786  -14.5833 N   0  0  0  0  0  0  0  0  0  0  0  0
   17.0972   -4.1596  -14.3862 C   0  0  1  0  0  0  0  0  0  0  0  0
   17.3864   -3.4291  -15.6416 C   0  0  0  0  0  0  0  0  0  0  0  0
   17.6512   -2.0085  -15.3465 C   0  0  0  0  0  0  0  0  0  0  0  0
   17.7151   -1.4916  -14.2050 O   0  0  0  0  0  0  0  0  0  0  0  0
   15.9125   -3.5699  -13.7200 C   0  0  0  0  0  0  0  0  0  0  0  0
   14.8004   -4.1623  -13.7839 O   0  0  0  0  0  0  0  0  0  0  0  0
   17.8526   -1.1414  -16.4208 O   0  0  0  0  0  0  0  0  0  0  0  0
   15.9246   -2.3863  -13.0090 O   0  0  0  0  0  0  0  0  0  0  0  0
  2  5  1  0
  2  1  1  6
  3  2  1  0
  4  3  1  0
  5  6  2  0
  8  7  1  0
  9  8  1  1
 10  9  1  0
 10  5  1  0
 11 13  1  0
 11  9  1  0
 12 11  2  0
 14 13  1  0
 14 15  1  6
 15 16  1  0
 16 20  1  0
 16 17  2  0
 18 14  1  0
 19 18  2  0
 21 18  1  0
M  END
$$$$
