CSD.pdb
     RDKit          3D

 21 20  0  0  1  0  0  0  0  0999 V2000
   26.6973  -20.1816   -8.8340 N   0  0  0  0  0  0  0  0  0  0  0  0
   25.7466  -20.8460   -9.6782 C   0  0  1  0  0  0  0  0  0  0  0  0
   24.3609  -20.5737   -9.0876 C   0  0  0  0  0  0  0  0  0  0  0  0
   24.3072  -21.3843   -7.4631 S   0  0  0  0  0  0  0  0  0  0  0  0
   25.7334  -20.3029  -11.0653 C   0  0  0  0  0  0  0  0  0  0  0  0
   25.5365  -19.0483  -11.1492 O   0  0  0  0  0  0  0  0  0  0  0  0
   27.1487  -22.2841  -14.3675 O   0  0  0  0  0  0  0  0  0  0  0  0
   26.9372  -20.9138  -14.4169 C   0  0  0  0  0  0  0  0  0  0  0  0
   25.7728  -20.4953  -13.5368 C   0  0  2  0  0  0  0  0  0  0  0  0
   25.9191  -21.0751  -12.2178 N   0  0  0  0  0  0  0  0  0  0  0  0
   24.4722  -20.8375  -14.1453 C   0  0  0  0  0  0  0  0  0  0  0  0
   23.9860  -21.9970  -13.9523 O   0  0  0  0  0  0  0  0  0  0  0  0
   23.7042  -19.9705  -14.9410 N   0  0  0  0  0  0  0  0  0  0  0  0
   22.4967  -20.3561  -15.6500 C   0  0  1  0  0  0  0  0  0  0  0  0
   21.3760  -19.4052  -15.4683 C   0  0  0  0  0  0  0  0  0  0  0  0
   20.6707  -19.6954  -14.2058 C   0  0  0  0  0  0  0  0  0  0  0  0
   20.4518  -20.8347  -13.7281 O   0  0  0  0  0  0  0  0  0  0  0  0
   22.8171  -20.4902  -17.0902 C   0  0  0  0  0  0  0  0  0  0  0  0
   21.9394  -20.9204  -17.8880 O   0  0  0  0  0  0  0  0  0  0  0  0
   20.1948  -18.6184  -13.4574 O   0  0  0  0  0  0  0  0  0  0  0  0
   24.0373  -20.1710  -17.6520 O   0  0  0  0  0  0  0  0  0  0  0  0
  2  5  1  0
  2  1  1  1
  3  2  1  0
  4  3  1  0
  5  6  2  0
  8  7  1  0
  9  8  1  6
 10  9  1  0
 10  5  1  0
 11 13  1  0
 11  9  1  0
 12 11  2  0
 14 13  1  0
 14 15  1  6
 15 16  1  0
 16 20  1  0
 16 17  2  0
 18 14  1  0
 19 18  2  0
 21 18  1  0
M  END
$$$$
