CSD.pdb
     RDKit          3D

 21 20  0  0  1  0  0  0  0  0999 V2000
   17.9448  -12.7880  -16.5632 N   0  0  0  0  0  0  0  0  0  0  0  0
   18.3417  -11.4924  -17.0342 C   0  0  1  0  0  0  0  0  0  0  0  0
   17.0782  -10.6295  -17.0799 C   0  0  0  0  0  0  0  0  0  0  0  0
   17.5822   -8.9794  -17.6473 S   0  0  0  0  0  0  0  0  0  0  0  0
   19.2901  -10.8116  -16.1087 C   0  0  0  0  0  0  0  0  0  0  0  0
   18.8733  -10.6804  -14.9134 O   0  0  0  0  0  0  0  0  0  0  0  0
   23.0521  -11.3656  -15.1335 O   0  0  0  0  0  0  0  0  0  0  0  0
   22.8426  -10.1172  -15.7014 C   0  0  0  0  0  0  0  0  0  0  0  0
   21.4059   -9.6574  -15.5276 C   0  0  2  0  0  0  0  0  0  0  0  0
   20.5529  -10.3363  -16.4809 N   0  0  0  0  0  0  0  0  0  0  0  0
   21.2817   -8.1900  -15.6280 C   0  0  0  0  0  0  0  0  0  0  0  0
   21.2146   -7.6532  -16.7793 O   0  0  0  0  0  0  0  0  0  0  0  0
   21.2302   -7.3110  -14.5329 N   0  0  0  0  0  0  0  0  0  0  0  0
   21.1625   -5.8642  -14.6408 C   0  0  1  0  0  0  0  0  0  0  0  0
   19.7825   -5.3307  -14.5744 C   0  0  0  0  0  0  0  0  0  0  0  0
   19.7957   -3.8739  -14.8048 C   0  0  0  0  0  0  0  0  0  0  0  0
   20.7256   -3.2192  -15.3346 O   0  0  0  0  0  0  0  0  0  0  0  0
   21.9859   -5.2712  -13.5613 C   0  0  0  0  0  0  0  0  0  0  0  0
   22.2028   -4.0283  -13.5521 O   0  0  0  0  0  0  0  0  0  0  0  0
   18.6812   -3.1361  -14.4045 O   0  0  0  0  0  0  0  0  0  0  0  0
   22.5536   -5.9894  -12.5277 O   0  0  0  0  0  0  0  0  0  0  0  0
  2  5  1  0
  2  1  1  1
  3  2  1  0
  4  3  1  0
  5  6  2  0
  8  7  1  0
  9  8  1  6
 10  9  1  0
 10  5  1  0
 11 13  1  0
 11  9  1  0
 12 11  2  0
 14 13  1  0
 14 15  1  1
 15 16  1  0
 16 20  1  0
 16 17  2  0
 18 14  1  0
 19 18  2  0
 21 18  1  0
M  END
$$$$
