CSD.pdb
     RDKit          3D

 21 20  0  0  1  0  0  0  0  0999 V2000
   16.3936  -10.1340  -16.3169 N   0  0  0  0  0  0  0  0  0  0  0  0
   17.5210   -9.4660  -16.9006 C   0  0  1  0  0  0  0  0  0  0  0  0
   16.9653   -8.3651  -17.8074 C   0  0  0  0  0  0  0  0  0  0  0  0
   16.1763   -9.1890  -19.2208 S   0  0  0  0  0  0  0  0  0  0  0  0
   18.3765   -8.7909  -15.8849 C   0  0  0  0  0  0  0  0  0  0  0  0
   17.7477   -8.3024  -14.8921 O   0  0  0  0  0  0  0  0  0  0  0  0
   21.4191   -9.8880  -13.7141 O   0  0  0  0  0  0  0  0  0  0  0  0
   21.7479   -8.8520  -14.5765 C   0  0  0  0  0  0  0  0  0  0  0  0
   20.5321   -8.0163  -14.9363 C   0  0  2  0  0  0  0  0  0  0  0  0
   19.7688   -8.6786  -15.9736 N   0  0  0  0  0  0  0  0  0  0  0  0
   20.9044   -6.6411  -15.3223 C   0  0  0  0  0  0  0  0  0  0  0  0
   21.3190   -6.4223  -16.5048 O   0  0  0  0  0  0  0  0  0  0  0  0
   20.8391   -5.5227  -14.4740 N   0  0  0  0  0  0  0  0  0  0  0  0
   21.1669   -4.1655  -14.8740 C   0  0  1  0  0  0  0  0  0  0  0  0
   20.3982   -3.1322  -14.1427 C   0  0  0  0  0  0  0  0  0  0  0  0
   18.9783   -3.1891  -14.5378 C   0  0  0  0  0  0  0  0  0  0  0  0
   18.0145   -3.4748  -13.7871 O   0  0  0  0  0  0  0  0  0  0  0  0
   22.6190   -3.9516  -14.6729 C   0  0  0  0  0  0  0  0  0  0  0  0
   23.2432   -4.6538  -13.8308 O   0  0  0  0  0  0  0  0  0  0  0  0
   18.6542   -2.9022  -15.8642 O   0  0  0  0  0  0  0  0  0  0  0  0
   23.3727   -3.0171  -15.3550 O   0  0  0  0  0  0  0  0  0  0  0  0
  2  5  1  0
  2  1  1  1
  3  2  1  0
  4  3  1  0
  5  6  2  0
  8  7  1  0
  9  8  1  6
 10  9  1  0
 10  5  1  0
 11 13  1  0
 11  9  1  0
 12 11  2  0
 14 13  1  0
 14 15  1  1
 15 16  1  0
 16 20  1  0
 16 17  2  0
 18 14  1  0
 19 18  2  0
 21 18  1  0
M  END
$$$$
