CSD.pdb
     RDKit          3D

 21 20  0  0  1  0  0  0  0  0999 V2000
   23.8404  -13.7032  -15.4042 N   0  0  0  0  0  0  0  0  0  0  0  0
   24.6008  -12.6271  -15.9713 C   0  0  1  0  0  0  0  0  0  0  0  0
   25.2492  -13.1657  -17.2491 C   0  0  0  0  0  0  0  0  0  0  0  0
   26.4061  -14.4728  -16.7474 S   0  0  0  0  0  0  0  0  0  0  0  0
   23.7486  -11.4749  -16.3782 C   0  0  0  0  0  0  0  0  0  0  0  0
   24.3836  -10.4753  -16.8443 O   0  0  0  0  0  0  0  0  0  0  0  0
   19.5614  -11.3362  -15.9505 O   0  0  0  0  0  0  0  0  0  0  0  0
   20.1680  -10.6988  -17.0232 C   0  0  0  0  0  0  0  0  0  0  0  0
   21.5941  -10.2908  -16.6981 C   0  0  2  0  0  0  0  0  0  0  0  0
   22.3531  -11.4490  -16.2742 N   0  0  0  0  0  0  0  0  0  0  0  0
   21.6418   -9.2071  -15.6971 C   0  0  0  0  0  0  0  0  0  0  0  0
   21.6980   -9.5087  -14.4626 O   0  0  0  0  0  0  0  0  0  0  0  0
   21.6298   -7.8344  -15.9975 N   0  0  0  0  0  0  0  0  0  0  0  0
   21.6780   -6.7741  -15.0061 C   0  0  1  0  0  0  0  0  0  0  0  0
   22.3002   -5.5264  -15.5056 C   0  0  0  0  0  0  0  0  0  0  0  0
   22.1939   -4.4682  -14.4836 C   0  0  0  0  0  0  0  0  0  0  0  0
   22.8360   -4.4151  -13.4070 O   0  0  0  0  0  0  0  0  0  0  0  0
   20.2985   -6.4995  -14.5409 C   0  0  0  0  0  0  0  0  0  0  0  0
   19.3326   -6.6216  -15.3434 O   0  0  0  0  0  0  0  0  0  0  0  0
   21.3030   -3.4196  -14.7148 O   0  0  0  0  0  0  0  0  0  0  0  0
   19.9700   -6.1096  -13.2577 O   0  0  0  0  0  0  0  0  0  0  0  0
  2  5  1  0
  2  1  1  6
  3  2  1  0
  4  3  1  0
  5  6  2  0
  8  7  1  0
  9  8  1  1
 10  9  1  0
 10  5  1  0
 11 13  1  0
 11  9  1  0
 12 11  2  0
 14 13  1  0
 14 15  1  6
 15 16  1  0
 16 20  1  0
 16 17  2  0
 18 14  1  0
 19 18  2  0
 21 18  1  0
M  END
$$$$
