CSD.pdb
     RDKit          3D

 21 20  0  0  1  0  0  0  0  0999 V2000
   24.6548  -13.1525  -17.9905 N   0  0  0  0  0  0  0  0  0  0  0  0
   23.8259  -12.9296  -16.8411 C   0  0  1  0  0  0  0  0  0  0  0  0
   24.7642  -12.7257  -15.6489 C   0  0  0  0  0  0  0  0  0  0  0  0
   25.6309  -14.2990  -15.3799 S   0  0  0  0  0  0  0  0  0  0  0  0
   23.0069  -11.6906  -16.9563 C   0  0  0  0  0  0  0  0  0  0  0  0
   23.4977  -10.7905  -17.7103 O   0  0  0  0  0  0  0  0  0  0  0  0
   19.0744  -11.2845  -15.4761 O   0  0  0  0  0  0  0  0  0  0  0  0
   19.5155  -10.6974  -16.6533 C   0  0  0  0  0  0  0  0  0  0  0  0
   20.9821  -10.3127  -16.5715 C   0  0  2  0  0  0  0  0  0  0  0  0
   21.7852  -11.4877  -16.3040 N   0  0  0  0  0  0  0  0  0  0  0  0
   21.2172   -9.2490  -15.5754 C   0  0  0  0  0  0  0  0  0  0  0  0
   21.4582   -9.5745  -14.3695 O   0  0  0  0  0  0  0  0  0  0  0  0
   21.1969   -7.8712  -15.8508 N   0  0  0  0  0  0  0  0  0  0  0  0
   21.3213   -6.8289  -14.8471 C   0  0  1  0  0  0  0  0  0  0  0  0
   21.9167   -5.5764  -15.3668 C   0  0  0  0  0  0  0  0  0  0  0  0
   22.0044   -4.5760  -14.2865 C   0  0  0  0  0  0  0  0  0  0  0  0
   22.5092   -4.7573  -13.1523 O   0  0  0  0  0  0  0  0  0  0  0  0
   19.9792   -6.5541  -14.2829 C   0  0  0  0  0  0  0  0  0  0  0  0
   18.9560   -6.6959  -15.0073 O   0  0  0  0  0  0  0  0  0  0  0  0
   21.4842   -3.3038  -14.5263 O   0  0  0  0  0  0  0  0  0  0  0  0
   19.7465   -6.1435  -12.9853 O   0  0  0  0  0  0  0  0  0  0  0  0
  2  5  1  0
  2  1  1  6
  3  2  1  0
  4  3  1  0
  5  6  2  0
  8  7  1  0
  9  8  1  1
 10  9  1  0
 10  5  1  0
 11 13  1  0
 11  9  1  0
 12 11  2  0
 14 13  1  0
 14 15  1  6
 15 16  1  0
 16 20  1  0
 16 17  2  0
 18 14  1  0
 19 18  2  0
 21 18  1  0
M  END
$$$$
