CSD.pdb
     RDKit          3D

 21 20  0  0  1  0  0  0  0  0999 V2000
   17.7807  -12.0253  -16.9537 N   0  0  0  0  0  0  0  0  0  0  0  0
   18.7236  -11.0418  -17.4028 C   0  0  1  0  0  0  0  0  0  0  0  0
   18.0127  -10.1947  -18.4611 C   0  0  0  0  0  0  0  0  0  0  0  0
   17.8449  -11.2292  -19.9446 S   0  0  0  0  0  0  0  0  0  0  0  0
   19.1395  -10.1089  -16.3183 C   0  0  0  0  0  0  0  0  0  0  0  0
   18.2020   -9.7339  -15.5435 O   0  0  0  0  0  0  0  0  0  0  0  0
   23.0709   -9.5792  -15.0564 O   0  0  0  0  0  0  0  0  0  0  0  0
   21.9600   -9.4229  -14.2400 C   0  0  0  0  0  0  0  0  0  0  0  0
   20.7909   -8.8164  -14.9959 C   0  0  2  0  0  0  0  0  0  0  0  0
   20.4490   -9.6530  -16.1275 N   0  0  0  0  0  0  0  0  0  0  0  0
   21.0628   -7.4244  -15.4049 C   0  0  0  0  0  0  0  0  0  0  0  0
   21.5428   -7.2033  -16.5620 O   0  0  0  0  0  0  0  0  0  0  0  0
   20.8316   -6.2921  -14.6056 N   0  0  0  0  0  0  0  0  0  0  0  0
   21.2580   -4.9452  -14.9426 C   0  0  1  0  0  0  0  0  0  0  0  0
   20.1488   -3.9642  -14.9710 C   0  0  0  0  0  0  0  0  0  0  0  0
   20.6694   -2.6275  -15.3139 C   0  0  0  0  0  0  0  0  0  0  0  0
   20.8678   -1.6846  -14.5103 O   0  0  0  0  0  0  0  0  0  0  0  0
   22.2862   -4.5171  -13.9656 C   0  0  0  0  0  0  0  0  0  0  0  0
   22.2382   -4.9457  -12.7799 O   0  0  0  0  0  0  0  0  0  0  0  0
   20.9763   -2.3655  -16.6495 O   0  0  0  0  0  0  0  0  0  0  0  0
   23.3296   -3.6602  -14.2547 O   0  0  0  0  0  0  0  0  0  0  0  0
  2  5  1  0
  2  1  1  1
  3  2  1  0
  4  3  1  0
  5  6  2  0
  8  7  1  0
  9  8  1  6
 10  9  1  0
 10  5  1  0
 11 13  1  0
 11  9  1  0
 12 11  2  0
 14 13  1  0
 14 15  1  1
 15 16  1  0
 16 20  1  0
 16 17  2  0
 18 14  1  0
 19 18  2  0
 21 18  1  0
M  END
$$$$
