CSD.pdb
     RDKit          3D

 21 20  0  0  1  0  0  0  0  0999 V2000
   15.0959  -11.8074  -14.6895 N   0  0  0  0  0  0  0  0  0  0  0  0
   15.6878  -10.8195  -15.5450 C   0  0  1  0  0  0  0  0  0  0  0  0
   14.9228   -9.5142  -15.3128 C   0  0  0  0  0  0  0  0  0  0  0  0
   13.4392   -9.5747  -16.3588 S   0  0  0  0  0  0  0  0  0  0  0  0
   17.1121  -10.5457  -15.2049 C   0  0  0  0  0  0  0  0  0  0  0  0
   17.3828  -10.5756  -13.9617 O   0  0  0  0  0  0  0  0  0  0  0  0
   21.7517  -10.5443  -16.3918 O   0  0  0  0  0  0  0  0  0  0  0  0
   20.4207  -10.7445  -16.7287 C   0  0  0  0  0  0  0  0  0  0  0  0
   19.4858  -10.0706  -15.7399 C   0  0  2  0  0  0  0  0  0  0  0  0
   18.1106  -10.2719  -16.1468 N   0  0  0  0  0  0  0  0  0  0  0  0
   19.8037   -8.6392  -15.5699 C   0  0  0  0  0  0  0  0  0  0  0  0
   19.3006   -7.7946  -16.3772 O   0  0  0  0  0  0  0  0  0  0  0  0
   20.6365   -8.1144  -14.5670 N   0  0  0  0  0  0  0  0  0  0  0  0
   21.1089   -6.7417  -14.5237 C   0  0  1  0  0  0  0  0  0  0  0  0
   21.7542   -6.3793  -13.2409 C   0  0  0  0  0  0  0  0  0  0  0  0
   22.0883   -4.9427  -13.2350 C   0  0  0  0  0  0  0  0  0  0  0  0
   23.2397   -4.4527  -13.3261 O   0  0  0  0  0  0  0  0  0  0  0  0
   22.0569   -6.5329  -15.6428 C   0  0  0  0  0  0  0  0  0  0  0  0
   22.8646   -7.4500  -15.9568 O   0  0  0  0  0  0  0  0  0  0  0  0
   21.0428   -4.0262  -13.1184 O   0  0  0  0  0  0  0  0  0  0  0  0
   22.1318   -5.3796  -16.3983 O   0  0  0  0  0  0  0  0  0  0  0  0
  2  5  1  0
  2  1  1  1
  3  2  1  0
  4  3  1  0
  5  6  2  0
  8  7  1  0
  9  8  1  6
 10  9  1  0
 10  5  1  0
 11 13  1  0
 11  9  1  0
 12 11  2  0
 14 13  1  0
 14 15  1  1
 15 16  1  0
 16 20  1  0
 16 17  2  0
 18 14  1  0
 19 18  2  0
 21 18  1  0
M  END
$$$$
