CSD.pdb
     RDKit          3D

 21 20  0  0  1  0  0  0  0  0999 V2000
   15.5094  -20.6301    4.4402 N   0  0  0  0  0  0  0  0  0  0  0  0
   16.9280  -20.7846    4.2925 C   0  0  1  0  0  0  0  0  0  0  0  0
   17.4351  -19.5471    3.5478 C   0  0  0  0  0  0  0  0  0  0  0  0
   17.0411  -19.7859    1.7909 S   0  0  0  0  0  0  0  0  0  0  0  0
   17.6405  -20.8173    5.6004 C   0  0  0  0  0  0  0  0  0  0  0  0
   17.1157  -20.1058    6.5159 O   0  0  0  0  0  0  0  0  0  0  0  0
   21.3971  -22.4940    6.1983 O   0  0  0  0  0  0  0  0  0  0  0  0
   20.4726  -22.6688    7.2179 C   0  0  0  0  0  0  0  0  0  0  0  0
   19.3843  -21.6107    7.1739 C   0  0  2  0  0  0  0  0  0  0  0  0
   18.8011  -21.5590    5.8494 N   0  0  0  0  0  0  0  0  0  0  0  0
   19.8829  -20.2902    7.6059 C   0  0  0  0  0  0  0  0  0  0  0  0
   20.2536  -19.4515    6.7243 O   0  0  0  0  0  0  0  0  0  0  0  0
   19.9867  -19.8680    8.9421 N   0  0  0  0  0  0  0  0  0  0  0  0
   20.4992  -18.5749    9.3597 C   0  0  1  0  0  0  0  0  0  0  0  0
   19.4552  -17.5289    9.4563 C   0  0  0  0  0  0  0  0  0  0  0  0
   20.0616  -16.2513    9.8754 C   0  0  0  0  0  0  0  0  0  0  0  0
   21.2748  -15.9451    9.7831 O   0  0  0  0  0  0  0  0  0  0  0  0
   21.1762  -18.7352   10.6677 C   0  0  0  0  0  0  0  0  0  0  0  0
   20.6775  -19.4984   11.5399 O   0  0  0  0  0  0  0  0  0  0  0  0
   19.2274  -15.2791   10.4282 O   0  0  0  0  0  0  0  0  0  0  0  0
   22.3487  -18.0988   11.0236 O   0  0  0  0  0  0  0  0  0  0  0  0
  2  5  1  0
  2  1  1  1
  3  2  1  0
  4  3  1  0
  5  6  2  0
  8  7  1  0
  9  8  1  6
 10  9  1  0
 10  5  1  0
 11 13  1  0
 11  9  1  0
 12 11  2  0
 14 13  1  0
 14 15  1  1
 15 16  1  0
 16 20  1  0
 16 17  2  0
 18 14  1  0
 19 18  2  0
 21 18  1  0
M  END
$$$$
