CSD.pdb
     RDKit          3D

 21 20  0  0  1  0  0  0  0  0999 V2000
   17.4346  -12.3697  -15.3967 N   0  0  0  0  0  0  0  0  0  0  0  0
   17.8454  -11.2558  -16.2019 C   0  0  1  0  0  0  0  0  0  0  0  0
   16.7236  -10.2168  -16.1293 C   0  0  0  0  0  0  0  0  0  0  0  0
   15.4173  -10.7652  -17.2659 S   0  0  0  0  0  0  0  0  0  0  0  0
   19.0743  -10.5940  -15.6811 C   0  0  0  0  0  0  0  0  0  0  0  0
   19.0803  -10.3839  -14.4259 O   0  0  0  0  0  0  0  0  0  0  0  0
   22.8754  -11.3547  -16.5131 O   0  0  0  0  0  0  0  0  0  0  0  0
   22.5752  -10.0100  -16.6763 C   0  0  0  0  0  0  0  0  0  0  0  0
   21.3416   -9.6122  -15.8852 C   0  0  2  0  0  0  0  0  0  0  0  0
   20.1636  -10.2147  -16.4739 N   0  0  0  0  0  0  0  0  0  0  0  0
   21.2097   -8.1464  -15.7718 C   0  0  0  0  0  0  0  0  0  0  0  0
   20.5652   -7.5131  -16.6673 O   0  0  0  0  0  0  0  0  0  0  0  0
   21.7490   -7.3688  -14.7330 N   0  0  0  0  0  0  0  0  0  0  0  0
   21.6011   -5.9284  -14.6204 C   0  0  1  0  0  0  0  0  0  0  0  0
   22.0390   -5.3901  -13.3121 C   0  0  0  0  0  0  0  0  0  0  0  0
   21.7669   -3.9419  -13.2484 C   0  0  0  0  0  0  0  0  0  0  0  0
   22.6105   -3.0254  -13.3986 O   0  0  0  0  0  0  0  0  0  0  0  0
   22.3698   -5.2879  -15.7131 C   0  0  0  0  0  0  0  0  0  0  0  0
   21.8934   -4.2806  -16.3049 O   0  0  0  0  0  0  0  0  0  0  0  0
   20.4571   -3.5305  -12.9993 O   0  0  0  0  0  0  0  0  0  0  0  0
   23.6075   -5.7148  -16.1517 O   0  0  0  0  0  0  0  0  0  0  0  0
  2  5  1  0
  2  1  1  1
  3  2  1  0
  4  3  1  0
  5  6  2  0
  8  7  1  0
  9  8  1  6
 10  9  1  0
 10  5  1  0
 11 13  1  0
 11  9  1  0
 12 11  2  0
 14 13  1  0
 14 15  1  1
 15 16  1  0
 16 20  1  0
 16 17  2  0
 18 14  1  0
 19 18  2  0
 21 18  1  0
M  END
$$$$
