CSD.pdb
     RDKit          3D

 21 20  0  0  1  0  0  0  0  0999 V2000
   23.9557  -31.8161   -9.7846 N   0  0  0  0  0  0  0  0  0  0  0  0
   24.4322  -32.9780   -9.0911 C   0  0  1  0  0  0  0  0  0  0  0  0
   25.8680  -33.2202   -9.5634 C   0  0  0  0  0  0  0  0  0  0  0  0
   25.7655  -33.9350  -11.2300 S   0  0  0  0  0  0  0  0  0  0  0  0
   24.4960  -32.7795   -7.6160 C   0  0  0  0  0  0  0  0  0  0  0  0
   24.7694  -31.5932   -7.2451 O   0  0  0  0  0  0  0  0  0  0  0  0
   22.0242  -34.4345   -5.1669 O   0  0  0  0  0  0  0  0  0  0  0  0
   22.7938  -33.3382   -4.8051 C   0  0  0  0  0  0  0  0  0  0  0  0
   24.2354  -33.4931   -5.2561 C   0  0  2  0  0  0  0  0  0  0  0  0
   24.2789  -33.7905   -6.6728 N   0  0  0  0  0  0  0  0  0  0  0  0
   24.9550  -34.5069   -4.4604 C   0  0  0  0  0  0  0  0  0  0  0  0
   24.7974  -35.7377   -4.7402 O   0  0  0  0  0  0  0  0  0  0  0  0
   25.8220  -34.2228   -3.3916 N   0  0  0  0  0  0  0  0  0  0  0  0
   26.5389  -35.2258   -2.6238 C   0  0  1  0  0  0  0  0  0  0  0  0
   27.7199  -34.6897   -1.9088 C   0  0  0  0  0  0  0  0  0  0  0  0
   28.8768  -34.6333   -2.8219 C   0  0  0  0  0  0  0  0  0  0  0  0
   28.8871  -34.9957   -4.0230 O   0  0  0  0  0  0  0  0  0  0  0  0
   25.5996  -35.8412   -1.6574 C   0  0  0  0  0  0  0  0  0  0  0  0
   24.6954  -35.1368   -1.1299 O   0  0  0  0  0  0  0  0  0  0  0  0
   30.0812  -34.1340   -2.3252 O   0  0  0  0  0  0  0  0  0  0  0  0
   25.6309  -37.1673   -1.2740 O   0  0  0  0  0  0  0  0  0  0  0  0
  2  5  1  0
  2  1  1  6
  3  2  1  0
  4  3  1  0
  5  6  2  0
  8  7  1  0
  9  8  1  1
 10  9  1  0
 10  5  1  0
 11 13  1  0
 11  9  1  0
 12 11  2  0
 14 13  1  0
 14 15  1  1
 15 16  1  0
 16 20  1  0
 16 17  2  0
 18 14  1  0
 19 18  2  0
 21 18  1  0
M  END
$$$$
