LWA.pdb
     RDKit          3D

 28 29  0  0  1  0  0  0  0  0999 V2000
    7.2453  -12.2494   19.4936 C   0  0  0  0  0  0  0  0  0  0  0  0
    7.7031  -13.6716   19.7868 C   0  0  1  0  0  0  0  0  0  0  0  0
    8.3916  -14.2028   18.5755 C   0  0  0  0  0  0  0  0  0  0  0  0
    8.5289  -13.7429   21.0350 C   0  0  0  0  0  0  0  0  0  0  0  0
    8.8878  -15.1831   21.3072 C   0  0  2  0  0  0  0  0  0  0  0  0
    7.6870  -15.9884   21.3569 N   0  0  0  0  0  0  0  0  0  0  0  0
    9.6145  -15.3495   22.5833 C   0  0  0  0  0  0  0  0  0  0  0  0
   10.6435  -14.6655   22.7897 O   0  0  0  0  0  0  0  0  0  0  0  0
    9.2088  -16.2580   23.6133 N   0  0  0  0  0  0  0  0  0  0  0  0
    9.8379  -16.3238   24.8937 C   0  0  1  0  0  0  0  0  0  0  0  0
    8.8427  -16.4923   26.0030 C   0  0  0  0  0  0  0  0  0  0  0  0
    7.7218  -15.5402   25.9738 C   0  0  0  0  0  0  0  0  0  0  0  0
    6.3901  -15.8449   25.6845 C   0  0  0  0  0  0  0  0  0  0  0  0
    5.6630  -14.7172   25.7301 N   0  0  0  0  0  0  0  0  0  0  0  0
    6.4585  -13.6833   26.0376 C   0  0  0  0  0  0  0  0  0  0  0  0
    6.1398  -12.3454   26.1990 C   0  0  0  0  0  0  0  0  0  0  0  0
    7.1694  -11.4903   26.5306 C   0  0  0  0  0  0  0  0  0  0  0  0
    8.4571  -11.9554   26.6925 C   0  0  0  0  0  0  0  0  0  0  0  0
    8.7385  -13.2839   26.5253 C   0  0  0  0  0  0  0  0  0  0  0  0
    7.7437  -14.1836   26.1922 C   0  0  0  0  0  0  0  0  0  0  0  0
   10.8615  -17.4196   24.8706 C   0  0  0  0  0  0  0  0  0  0  0  0
   11.4695  -17.7710   25.9230 O   0  0  0  0  0  0  0  0  0  0  0  0
   12.0035  -19.9462   22.3317 C   0  0  0  0  0  0  0  0  0  0  0  0
   12.2388  -19.1055   23.5942 C   0  0  2  0  0  0  0  0  0  0  0  0
   11.2033  -18.1199   23.6759 N   0  0  0  0  0  0  0  0  0  0  0  0
   13.5966  -18.5655   23.4965 C   0  0  0  0  0  0  0  0  0  0  0  0
   13.7257  -17.1887   23.3086 O   0  0  0  0  0  0  0  0  0  0  0  0
   14.6614  -19.2185   23.5652 O   0  0  0  0  0  0  0  0  0  0  0  0
  2  1  1  6
  2  3  1  0
  4  5  1  0
  4  2  1  0
  5  6  1  1
  7  8  2  0
  7  5  1  0
  9  7  1  0
 10  9  1  0
 11 12  1  0
 10 11  1  1
 12 13  2  0
 12 20  1  0
 13 14  1  0
 14 15  1  0
 15 16  2  0
 17 16  1  0
 18 17  2  0
 19 20  2  0
 19 18  1  0
 20 15  1  0
 21 22  2  0
 21 10  1  0
 24 23  1  6
 24 25  1  0
 25 21  1  0
 26 24  1  0
 27 26  1  0
 28 26  2  0
M  END
$$$$
