LWA.pdb
     RDKit          3D

 28 29  0  0  1  0  0  0  0  0999 V2000
    6.8856  -12.5818   19.2707 C   0  0  0  0  0  0  0  0  0  0  0  0
    7.6258  -13.8777   19.5724 C   0  0  1  0  0  0  0  0  0  0  0  0
    8.6541  -14.0890   18.5134 C   0  0  0  0  0  0  0  0  0  0  0  0
    8.1771  -13.8910   20.9656 C   0  0  0  0  0  0  0  0  0  0  0  0
    8.8535  -15.2166   21.2156 C   0  0  2  0  0  0  0  0  0  0  0  0
    7.8821  -16.2861   21.1424 N   0  0  0  0  0  0  0  0  0  0  0  0
    9.5096  -15.2717   22.5387 C   0  0  0  0  0  0  0  0  0  0  0  0
   10.3891  -14.4239   22.8161 O   0  0  0  0  0  0  0  0  0  0  0  0
    9.1973  -16.2492   23.5376 N   0  0  0  0  0  0  0  0  0  0  0  0
    9.8062  -16.2733   24.8291 C   0  0  1  0  0  0  0  0  0  0  0  0
    8.8068  -16.5215   25.9195 C   0  0  0  0  0  0  0  0  0  0  0  0
    7.6612  -15.5987   25.9257 C   0  0  0  0  0  0  0  0  0  0  0  0
    6.3287  -15.9389   25.6834 C   0  0  0  0  0  0  0  0  0  0  0  0
    5.5746  -14.8302   25.7502 N   0  0  0  0  0  0  0  0  0  0  0  0
    6.3532  -13.7748   26.0266 C   0  0  0  0  0  0  0  0  0  0  0  0
    6.0056  -12.4449   26.1943 C   0  0  0  0  0  0  0  0  0  0  0  0
    7.0235  -11.5621   26.4873 C   0  0  0  0  0  0  0  0  0  0  0  0
    8.3276  -11.9931   26.6063 C   0  0  0  0  0  0  0  0  0  0  0  0
    8.6375  -13.3147   26.4341 C   0  0  0  0  0  0  0  0  0  0  0  0
    7.6554  -14.2411   26.1385 C   0  0  0  0  0  0  0  0  0  0  0  0
   10.9100  -17.2885   24.8214 C   0  0  0  0  0  0  0  0  0  0  0  0
   11.4362  -17.6929   25.8985 O   0  0  0  0  0  0  0  0  0  0  0  0
   12.3706  -19.6400   22.3190 C   0  0  0  0  0  0  0  0  0  0  0  0
   12.5340  -18.7507   23.5593 C   0  0  2  0  0  0  0  0  0  0  0  0
   11.4227  -17.8496   23.6144 N   0  0  0  0  0  0  0  0  0  0  0  0
   13.8445  -18.1063   23.4488 C   0  0  0  0  0  0  0  0  0  0  0  0
   14.9696  -18.9296   23.5110 O   0  0  0  0  0  0  0  0  0  0  0  0
   14.0596  -16.8827   23.3028 O   0  0  0  0  0  0  0  0  0  0  0  0
  2  1  1  6
  2  3  1  0
  4  5  1  0
  4  2  1  0
  5  6  1  1
  7  8  2  0
  7  5  1  0
  9  7  1  0
 10  9  1  0
 11 12  1  0
 10 11  1  1
 12 13  2  0
 12 20  1  0
 13 14  1  0
 14 15  1  0
 15 16  2  0
 17 16  1  0
 18 17  2  0
 19 20  2  0
 19 18  1  0
 20 15  1  0
 21 22  2  0
 21 10  1  0
 24 23  1  6
 24 25  1  0
 25 21  1  0
 26 24  1  0
 27 26  1  0
 28 26  2  0
M  END
$$$$
