LWA.pdb
     RDKit          3D

 28 29  0  0  1  0  0  0  0  0999 V2000
    7.0123  -12.4739   19.3033 C   0  0  0  0  0  0  0  0  0  0  0  0
    7.6426  -13.8205   19.6317 C   0  0  1  0  0  0  0  0  0  0  0  0
    8.6576  -14.1322   18.5849 C   0  0  0  0  0  0  0  0  0  0  0  0
    8.1812  -13.8553   21.0295 C   0  0  0  0  0  0  0  0  0  0  0  0
    8.8016  -15.2069   21.2854 C   0  0  2  0  0  0  0  0  0  0  0  0
    7.7959  -16.2401   21.1673 N   0  0  0  0  0  0  0  0  0  0  0  0
    9.4112  -15.3001   22.6284 C   0  0  0  0  0  0  0  0  0  0  0  0
   10.3171  -14.4935   22.9414 O   0  0  0  0  0  0  0  0  0  0  0  0
    9.0243  -16.2701   23.6084 N   0  0  0  0  0  0  0  0  0  0  0  0
    9.6931  -16.4309   24.8598 C   0  0  1  0  0  0  0  0  0  0  0  0
    8.7295  -16.5862   25.9985 C   0  0  0  0  0  0  0  0  0  0  0  0
    7.6319  -15.6068   26.0135 C   0  0  0  0  0  0  0  0  0  0  0  0
    6.3112  -15.8444   25.6271 C   0  0  0  0  0  0  0  0  0  0  0  0
    5.6066  -14.7088   25.7547 N   0  0  0  0  0  0  0  0  0  0  0  0
    6.4064  -13.7339   26.2090 C   0  0  0  0  0  0  0  0  0  0  0  0
    6.1077  -12.4122   26.4944 C   0  0  0  0  0  0  0  0  0  0  0  0
    7.1362  -11.6238   26.9655 C   0  0  0  0  0  0  0  0  0  0  0  0
    8.4035  -12.1371   27.1420 C   0  0  0  0  0  0  0  0  0  0  0  0
    8.6653  -13.4480   26.8502 C   0  0  0  0  0  0  0  0  0  0  0  0
    7.6708  -14.2814   26.3744 C   0  0  0  0  0  0  0  0  0  0  0  0
   10.6438  -17.5856   24.7520 C   0  0  0  0  0  0  0  0  0  0  0  0
   10.3618  -18.7153   25.2469 O   0  0  0  0  0  0  0  0  0  0  0  0
   13.8518  -18.1619   22.8596 C   0  0  0  0  0  0  0  0  0  0  0  0
   12.8048  -18.5747   23.9033 C   0  0  2  0  0  0  0  0  0  0  0  0
   11.9042  -17.4779   24.0929 N   0  0  0  0  0  0  0  0  0  0  0  0
   13.5401  -18.9822   25.1026 C   0  0  0  0  0  0  0  0  0  0  0  0
   13.3423  -18.2295   26.2610 O   0  0  0  0  0  0  0  0  0  0  0  0
   14.3339  -19.9446   25.1948 O   0  0  0  0  0  0  0  0  0  0  0  0
  2  1  1  6
  2  3  1  0
  4  5  1  0
  4  2  1  0
  5  6  1  1
  7  8  2  0
  7  5  1  0
  9  7  1  0
 10  9  1  0
 11 12  1  0
 10 11  1  1
 12 13  2  0
 12 20  1  0
 13 14  1  0
 14 15  1  0
 15 16  2  0
 17 16  1  0
 18 17  2  0
 19 20  2  0
 19 18  1  0
 20 15  1  0
 21 22  2  0
 21 10  1  0
 24 23  1  6
 24 25  1  0
 25 21  1  0
 26 24  1  0
 27 26  1  0
 28 26  2  0
M  END
$$$$
