LWA.pdb
     RDKit          3D

 28 29  0  0  1  0  0  0  0  0999 V2000
    6.9462  -12.3130   19.1042 C   0  0  0  0  0  0  0  0  0  0  0  0
    7.4138  -13.7227   19.4390 C   0  0  1  0  0  0  0  0  0  0  0  0
    8.1337  -14.2728   18.2547 C   0  0  0  0  0  0  0  0  0  0  0  0
    8.2137  -13.7564   20.7055 C   0  0  0  0  0  0  0  0  0  0  0  0
    8.6046  -15.1830   21.0042 C   0  0  2  0  0  0  0  0  0  0  0  0
    7.4221  -16.0139   21.0681 N   0  0  0  0  0  0  0  0  0  0  0  0
    9.3338  -15.3096   22.2834 C   0  0  0  0  0  0  0  0  0  0  0  0
   10.3420  -14.5928   22.4812 O   0  0  0  0  0  0  0  0  0  0  0  0
    8.9532  -16.2148   23.3259 N   0  0  0  0  0  0  0  0  0  0  0  0
    9.6308  -16.2961   24.5803 C   0  0  1  0  0  0  0  0  0  0  0  0
    8.6867  -16.5603   25.7153 C   0  0  0  0  0  0  0  0  0  0  0  0
    7.5801  -15.5981   25.8317 C   0  0  0  0  0  0  0  0  0  0  0  0
    6.2337  -15.8558   25.5657 C   0  0  0  0  0  0  0  0  0  0  0  0
    5.5262  -14.7313   25.7591 N   0  0  0  0  0  0  0  0  0  0  0  0
    6.3487  -13.7446   26.1416 C   0  0  0  0  0  0  0  0  0  0  0  0
    6.0568  -12.4279   26.4558 C   0  0  0  0  0  0  0  0  0  0  0  0
    7.1115  -11.6242   26.8339 C   0  0  0  0  0  0  0  0  0  0  0  0
    8.3973  -12.1179   26.8939 C   0  0  0  0  0  0  0  0  0  0  0  0
    8.6517  -13.4243   26.5765 C   0  0  0  0  0  0  0  0  0  0  0  0
    7.6311  -14.2726   26.1907 C   0  0  0  0  0  0  0  0  0  0  0  0
   10.7088  -17.3336   24.4780 C   0  0  0  0  0  0  0  0  0  0  0  0
   10.4519  -18.5096   24.0883 O   0  0  0  0  0  0  0  0  0  0  0  0
   14.4470  -17.3116   24.5660 C   0  0  0  0  0  0  0  0  0  0  0  0
   13.1125  -18.0367   24.7881 C   0  0  2  0  0  0  0  0  0  0  0  0
   12.0683  -17.0573   24.8096 N   0  0  0  0  0  0  0  0  0  0  0  0
   13.2530  -18.8143   26.0212 C   0  0  0  0  0  0  0  0  0  0  0  0
   14.2506  -19.7896   26.0524 O   0  0  0  0  0  0  0  0  0  0  0  0
   12.5640  -18.6917   27.0580 O   0  0  0  0  0  0  0  0  0  0  0  0
  2  1  1  6
  2  3  1  0
  4  5  1  0
  4  2  1  0
  5  6  1  1
  7  8  2  0
  7  5  1  0
  9  7  1  0
 10  9  1  0
 11 12  1  0
 10 11  1  1
 12 13  2  0
 12 20  1  0
 13 14  1  0
 14 15  1  0
 15 16  2  0
 17 16  1  0
 18 17  2  0
 19 20  2  0
 19 18  1  0
 20 15  1  0
 21 22  2  0
 21 10  1  0
 24 23  1  1
 24 25  1  0
 25 21  1  0
 26 24  1  0
 27 26  1  0
 28 26  2  0
M  END
$$$$
