LWA.pdb
     RDKit          3D

 28 29  0  0  1  0  0  0  0  0999 V2000
    6.9433  -12.2819   19.3201 C   0  0  0  0  0  0  0  0  0  0  0  0
    7.5074  -13.6660   19.6101 C   0  0  1  0  0  0  0  0  0  0  0  0
    8.3269  -14.0941   18.4402 C   0  0  0  0  0  0  0  0  0  0  0  0
    8.2445  -13.7033   20.9141 C   0  0  0  0  0  0  0  0  0  0  0  0
    8.7092  -15.1146   21.1778 C   0  0  2  0  0  0  0  0  0  0  0  0
    7.5798  -16.0181   21.1473 N   0  0  0  0  0  0  0  0  0  0  0  0
    9.3799  -15.2497   22.4877 C   0  0  0  0  0  0  0  0  0  0  0  0
   10.3242  -14.4761   22.7691 O   0  0  0  0  0  0  0  0  0  0  0  0
    9.0113  -16.2250   23.4695 N   0  0  0  0  0  0  0  0  0  0  0  0
    9.6548  -16.3423   24.7389 C   0  0  1  0  0  0  0  0  0  0  0  0
    8.6694  -16.4998   25.8585 C   0  0  0  0  0  0  0  0  0  0  0  0
    7.5997  -15.4902   25.8831 C   0  0  0  0  0  0  0  0  0  0  0  0
    6.2663  -15.6946   25.5218 C   0  0  0  0  0  0  0  0  0  0  0  0
    5.5957  -14.5388   25.6507 N   0  0  0  0  0  0  0  0  0  0  0  0
    6.4299  -13.5824   26.0818 C   0  0  0  0  0  0  0  0  0  0  0  0
    6.1728  -12.2504   26.3595 C   0  0  0  0  0  0  0  0  0  0  0  0
    7.2308  -11.4866   26.8053 C   0  0  0  0  0  0  0  0  0  0  0  0
    8.4863  -12.0332   26.9648 C   0  0  0  0  0  0  0  0  0  0  0  0
    8.7068  -13.3534   26.6810 C   0  0  0  0  0  0  0  0  0  0  0  0
    7.6814  -14.1632   26.2305 C   0  0  0  0  0  0  0  0  0  0  0  0
   10.6375  -17.4733   24.6770 C   0  0  0  0  0  0  0  0  0  0  0  0
   10.2502  -18.6775   24.6484 O   0  0  0  0  0  0  0  0  0  0  0  0
   14.3873  -17.7013   24.3127 C   0  0  0  0  0  0  0  0  0  0  0  0
   13.0173  -18.3122   24.6384 C   0  0  2  0  0  0  0  0  0  0  0  0
   12.0474  -17.2589   24.6465 N   0  0  0  0  0  0  0  0  0  0  0  0
   13.1628  -19.0252   25.9093 C   0  0  0  0  0  0  0  0  0  0  0  0
   14.1204  -20.0386   25.9684 O   0  0  0  0  0  0  0  0  0  0  0  0
   12.5104  -18.8163   26.9560 O   0  0  0  0  0  0  0  0  0  0  0  0
  2  1  1  6
  2  3  1  0
  4  5  1  0
  4  2  1  0
  5  6  1  1
  7  8  2  0
  7  5  1  0
  9  7  1  0
 10  9  1  0
 11 12  1  0
 10 11  1  1
 12 13  2  0
 12 20  1  0
 13 14  1  0
 14 15  1  0
 15 16  2  0
 17 16  1  0
 18 17  2  0
 19 20  2  0
 19 18  1  0
 20 15  1  0
 21 22  2  0
 21 10  1  0
 24 23  1  1
 24 25  1  0
 25 21  1  0
 26 24  1  0
 27 26  1  0
 28 26  2  0
M  END
$$$$
