LWA.pdb
     RDKit          3D

 28 29  0  0  1  0  0  0  0  0999 V2000
    8.1156  -12.4596   18.1229 C   0  0  0  0  0  0  0  0  0  0  0  0
    7.7896  -13.7058   18.9347 C   0  0  1  0  0  0  0  0  0  0  0  0
    8.1784  -14.9028   18.1349 C   0  0  0  0  0  0  0  0  0  0  0  0
    8.4099  -13.6587   20.2978 C   0  0  0  0  0  0  0  0  0  0  0  0
    7.9654  -14.8676   21.0840 C   0  0  2  0  0  0  0  0  0  0  0  0
    6.5222  -14.8870   21.1825 N   0  0  0  0  0  0  0  0  0  0  0  0
    8.5269  -14.8864   22.4509 C   0  0  0  0  0  0  0  0  0  0  0  0
    8.5646  -13.8196   23.1066 O   0  0  0  0  0  0  0  0  0  0  0  0
    9.0381  -16.0664   23.0812 N   0  0  0  0  0  0  0  0  0  0  0  0
    9.7836  -16.0450   24.2990 C   0  0  1  0  0  0  0  0  0  0  0  0
    8.9338  -16.3869   25.4866 C   0  0  0  0  0  0  0  0  0  0  0  0
    7.8206  -15.4577   25.7345 C   0  0  0  0  0  0  0  0  0  0  0  0
    6.4666  -15.7174   25.5126 C   0  0  0  0  0  0  0  0  0  0  0  0
    5.7534  -14.6256   25.8314 N   0  0  0  0  0  0  0  0  0  0  0  0
    6.5795  -13.6584   26.2542 C   0  0  0  0  0  0  0  0  0  0  0  0
    6.2846  -12.3773   26.6893 C   0  0  0  0  0  0  0  0  0  0  0  0
    7.3450  -11.5880   27.0816 C   0  0  0  0  0  0  0  0  0  0  0  0
    8.6390  -12.0614   27.0394 C   0  0  0  0  0  0  0  0  0  0  0  0
    8.8962  -13.3327   26.6038 C   0  0  0  0  0  0  0  0  0  0  0  0
    7.8702  -14.1652   26.1985 C   0  0  0  0  0  0  0  0  0  0  0  0
   10.9636  -16.9594   24.1564 C   0  0  0  0  0  0  0  0  0  0  0  0
   10.8127  -18.2083   24.0215 O   0  0  0  0  0  0  0  0  0  0  0  0
   14.4701  -16.5781   23.1187 C   0  0  0  0  0  0  0  0  0  0  0  0
   13.4572  -17.3166   24.0045 C   0  0  2  0  0  0  0  0  0  0  0  0
   12.3068  -16.4792   24.1639 N   0  0  0  0  0  0  0  0  0  0  0  0
   14.1503  -17.6543   25.2496 C   0  0  0  0  0  0  0  0  0  0  0  0
   15.4629  -17.2029   25.3939 O   0  0  0  0  0  0  0  0  0  0  0  0
   13.6813  -18.3117   26.2050 O   0  0  0  0  0  0  0  0  0  0  0  0
  2  1  1  6
  2  3  1  0
  4  5  1  0
  4  2  1  0
  5  6  1  1
  7  8  2  0
  7  5  1  0
  9  7  1  0
 10  9  1  0
 11 12  1  0
 10 11  1  1
 12 13  2  0
 12 20  1  0
 13 14  1  0
 14 15  1  0
 15 16  2  0
 17 16  1  0
 18 17  2  0
 19 20  2  0
 19 18  1  0
 20 15  1  0
 21 22  2  0
 21 10  1  0
 24 23  1  6
 24 25  1  0
 25 21  1  0
 26 24  1  0
 27 26  1  0
 28 26  2  0
M  END
$$$$
