LWA.pdb
     RDKit          3D

 28 29  0  0  1  0  0  0  0  0999 V2000
    6.9890  -12.5042   19.2574 C   0  0  0  0  0  0  0  0  0  0  0  0
    7.5912  -13.8674   19.5691 C   0  0  1  0  0  0  0  0  0  0  0  0
    8.5267  -14.2312   18.4663 C   0  0  0  0  0  0  0  0  0  0  0  0
    8.2156  -13.9004   20.9308 C   0  0  0  0  0  0  0  0  0  0  0  0
    8.7251  -15.2939   21.2060 C   0  0  2  0  0  0  0  0  0  0  0  0
    7.6420  -16.2458   21.0885 N   0  0  0  0  0  0  0  0  0  0  0  0
    9.3135  -15.4205   22.5557 C   0  0  0  0  0  0  0  0  0  0  0  0
   10.2580  -14.6641   22.8798 O   0  0  0  0  0  0  0  0  0  0  0  0
    8.8638  -16.3688   23.5302 N   0  0  0  0  0  0  0  0  0  0  0  0
    9.4006  -16.4509   24.8509 C   0  0  1  0  0  0  0  0  0  0  0  0
    8.3258  -16.5681   25.8904 C   0  0  0  0  0  0  0  0  0  0  0  0
    7.3085  -15.5064   25.8457 C   0  0  0  0  0  0  0  0  0  0  0  0
    5.9874  -15.6497   25.4163 C   0  0  0  0  0  0  0  0  0  0  0  0
    5.3700  -14.4602   25.4953 N   0  0  0  0  0  0  0  0  0  0  0  0
    6.2273  -13.5402   25.9588 C   0  0  0  0  0  0  0  0  0  0  0  0
    6.0234  -12.1931   26.2064 C   0  0  0  0  0  0  0  0  0  0  0  0
    7.0935  -11.4763   26.6988 C   0  0  0  0  0  0  0  0  0  0  0  0
    8.3098  -12.0821   26.9317 C   0  0  0  0  0  0  0  0  0  0  0  0
    8.4781  -13.4157   26.6759 C   0  0  0  0  0  0  0  0  0  0  0  0
    7.4385  -14.1802   26.1811 C   0  0  0  0  0  0  0  0  0  0  0  0
   10.3755  -17.5892   24.9037 C   0  0  0  0  0  0  0  0  0  0  0  0
    9.9793  -18.7893   24.9649 O   0  0  0  0  0  0  0  0  0  0  0  0
   14.0760  -17.9057   24.3634 C   0  0  0  0  0  0  0  0  0  0  0  0
   12.7486  -18.4476   24.9114 C   0  0  2  0  0  0  0  0  0  0  0  0
   11.7873  -17.3867   24.8874 N   0  0  0  0  0  0  0  0  0  0  0  0
   13.0304  -18.9933   26.2409 C   0  0  0  0  0  0  0  0  0  0  0  0
   12.3612  -18.4198   27.3229 O   0  0  0  0  0  0  0  0  0  0  0  0
   13.8164  -19.9293   26.5073 O   0  0  0  0  0  0  0  0  0  0  0  0
  2  1  1  6
  2  3  1  0
  4  5  1  0
  4  2  1  0
  5  6  1  1
  7  8  2  0
  7  5  1  0
  9  7  1  0
 10  9  1  0
 11 12  1  0
 10 11  1  1
 12 13  2  0
 12 20  1  0
 13 14  1  0
 14 15  1  0
 15 16  2  0
 17 16  1  0
 18 17  2  0
 19 20  2  0
 19 18  1  0
 20 15  1  0
 21 22  2  0
 21 10  1  0
 24 23  1  1
 24 25  1  0
 25 21  1  0
 26 24  1  0
 27 26  1  0
 28 26  2  0
M  END
$$$$
