LWA.pdb
     RDKit          3D

 28 29  0  0  1  0  0  0  0  0999 V2000
    7.1566  -12.2191   19.1313 C   0  0  0  0  0  0  0  0  0  0  0  0
    7.6548  -13.6202   19.4579 C   0  0  1  0  0  0  0  0  0  0  0  0
    8.4549  -14.1160   18.3014 C   0  0  0  0  0  0  0  0  0  0  0  0
    8.3876  -13.6586   20.7644 C   0  0  0  0  0  0  0  0  0  0  0  0
    8.8265  -15.0754   21.0422 C   0  0  2  0  0  0  0  0  0  0  0  0
    7.6809  -15.9586   21.0200 N   0  0  0  0  0  0  0  0  0  0  0  0
    9.4941  -15.2097   22.3538 C   0  0  0  0  0  0  0  0  0  0  0  0
   10.4667  -14.4661   22.6192 O   0  0  0  0  0  0  0  0  0  0  0  0
    9.0917  -16.1516   23.3547 N   0  0  0  0  0  0  0  0  0  0  0  0
    9.7312  -16.2663   24.6264 C   0  0  1  0  0  0  0  0  0  0  0  0
    8.7446  -16.4685   25.7378 C   0  0  0  0  0  0  0  0  0  0  0  0
    7.6850  -15.4509   25.8124 C   0  0  0  0  0  0  0  0  0  0  0  0
    6.3337  -15.6464   25.5194 C   0  0  0  0  0  0  0  0  0  0  0  0
    5.6789  -14.4851   25.6776 N   0  0  0  0  0  0  0  0  0  0  0  0
    6.5407  -13.5336   26.0626 C   0  0  0  0  0  0  0  0  0  0  0  0
    6.3078  -12.1987   26.3480 C   0  0  0  0  0  0  0  0  0  0  0  0
    7.3925  -11.4415   26.7371 C   0  0  0  0  0  0  0  0  0  0  0  0
    8.6504  -11.9970   26.8353 C   0  0  0  0  0  0  0  0  0  0  0  0
    8.8465  -13.3198   26.5457 C   0  0  0  0  0  0  0  0  0  0  0  0
    7.7939  -14.1234   26.1504 C   0  0  0  0  0  0  0  0  0  0  0  0
   10.7482  -17.3662   24.5556 C   0  0  0  0  0  0  0  0  0  0  0  0
   10.3982  -18.5816   24.5245 O   0  0  0  0  0  0  0  0  0  0  0  0
   14.4708  -17.5099   24.0319 C   0  0  0  0  0  0  0  0  0  0  0  0
   13.1528  -18.1306   24.5155 C   0  0  2  0  0  0  0  0  0  0  0  0
   12.1506  -17.1081   24.5192 N   0  0  0  0  0  0  0  0  0  0  0  0
   13.4229  -18.7330   25.8229 C   0  0  0  0  0  0  0  0  0  0  0  0
   12.6849  -18.2614   26.9093 O   0  0  0  0  0  0  0  0  0  0  0  0
   14.2548  -19.6349   26.0665 O   0  0  0  0  0  0  0  0  0  0  0  0
  2  1  1  6
  2  3  1  0
  4  5  1  0
  4  2  1  0
  5  6  1  1
  7  8  2  0
  7  5  1  0
  9  7  1  0
 10  9  1  0
 11 12  1  0
 10 11  1  1
 12 13  2  0
 12 20  1  0
 13 14  1  0
 14 15  1  0
 15 16  2  0
 17 16  1  0
 18 17  2  0
 19 20  2  0
 19 18  1  0
 20 15  1  0
 21 22  2  0
 21 10  1  0
 24 23  1  1
 24 25  1  0
 25 21  1  0
 26 24  1  0
 27 26  1  0
 28 26  2  0
M  END
$$$$
