LWA.pdb
     RDKit          3D

 28 29  0  0  1  0  0  0  0  0999 V2000
    7.0774  -12.2631   19.4661 C   0  0  0  0  0  0  0  0  0  0  0  0
    7.5635  -13.6822   19.7269 C   0  0  1  0  0  0  0  0  0  0  0  0
    8.3431  -14.1375   18.5402 C   0  0  0  0  0  0  0  0  0  0  0  0
    8.3121  -13.7838   21.0208 C   0  0  0  0  0  0  0  0  0  0  0  0
    8.7160  -15.2203   21.2454 C   0  0  2  0  0  0  0  0  0  0  0  0
    7.5424  -16.0662   21.2510 N   0  0  0  0  0  0  0  0  0  0  0  0
    9.4335  -15.4089   22.5236 C   0  0  0  0  0  0  0  0  0  0  0  0
   10.4614  -14.7292   22.7490 O   0  0  0  0  0  0  0  0  0  0  0  0
    9.0199  -16.3345   23.5351 N   0  0  0  0  0  0  0  0  0  0  0  0
    9.6768  -16.4633   24.7965 C   0  0  1  0  0  0  0  0  0  0  0  0
    8.7025  -16.5538   25.9332 C   0  0  0  0  0  0  0  0  0  0  0  0
    7.6288  -15.5485   25.9046 C   0  0  0  0  0  0  0  0  0  0  0  0
    6.2974  -15.7759   25.5500 C   0  0  0  0  0  0  0  0  0  0  0  0
    5.6219  -14.6178   25.6196 N   0  0  0  0  0  0  0  0  0  0  0  0
    6.4511  -13.6379   26.0053 C   0  0  0  0  0  0  0  0  0  0  0  0
    6.1880  -12.2948   26.2160 C   0  0  0  0  0  0  0  0  0  0  0  0
    7.2416  -11.5057   26.6266 C   0  0  0  0  0  0  0  0  0  0  0  0
    8.4987  -12.0387   26.8166 C   0  0  0  0  0  0  0  0  0  0  0  0
    8.7251  -13.3704   26.5991 C   0  0  0  0  0  0  0  0  0  0  0  0
    7.7044  -14.2057   26.1863 C   0  0  0  0  0  0  0  0  0  0  0  0
   10.6014  -17.6426   24.7389 C   0  0  0  0  0  0  0  0  0  0  0  0
   10.1549  -18.8264   24.7418 O   0  0  0  0  0  0  0  0  0  0  0  0
   14.2860  -18.0565   24.1009 C   0  0  0  0  0  0  0  0  0  0  0  0
   12.9317  -18.5977   24.5796 C   0  0  2  0  0  0  0  0  0  0  0  0
   12.0192  -17.4988   24.6778 N   0  0  0  0  0  0  0  0  0  0  0  0
   13.1795  -19.3067   25.8370 C   0  0  0  0  0  0  0  0  0  0  0  0
   12.6459  -18.7511   27.0006 O   0  0  0  0  0  0  0  0  0  0  0  0
   13.8260  -20.3687   25.9748 O   0  0  0  0  0  0  0  0  0  0  0  0
  2  1  1  6
  2  3  1  0
  4  5  1  0
  4  2  1  0
  5  6  1  1
  7  8  2  0
  7  5  1  0
  9  7  1  0
 10  9  1  0
 11 12  1  0
 10 11  1  1
 12 13  2  0
 12 20  1  0
 13 14  1  0
 14 15  1  0
 15 16  2  0
 17 16  1  0
 18 17  2  0
 19 20  2  0
 19 18  1  0
 20 15  1  0
 21 22  2  0
 21 10  1  0
 24 23  1  1
 24 25  1  0
 25 21  1  0
 26 24  1  0
 27 26  1  0
 28 26  2  0
M  END
$$$$
