LWA.pdb
     RDKit          3D

 28 29  0  0  1  0  0  0  0  0999 V2000
    7.0105  -12.5330   19.4254 C   0  0  0  0  0  0  0  0  0  0  0  0
    7.6499  -13.8801   19.7330 C   0  0  1  0  0  0  0  0  0  0  0  0
    8.5032  -14.2710   18.5743 C   0  0  0  0  0  0  0  0  0  0  0  0
    8.3758  -13.8639   21.0437 C   0  0  0  0  0  0  0  0  0  0  0  0
    8.8901  -15.2514   21.3398 C   0  0  2  0  0  0  0  0  0  0  0  0
    7.7885  -16.1887   21.3681 N   0  0  0  0  0  0  0  0  0  0  0  0
    9.5978  -15.3236   22.6351 C   0  0  0  0  0  0  0  0  0  0  0  0
   10.5747  -14.5656   22.8365 O   0  0  0  0  0  0  0  0  0  0  0  0
    9.2303  -16.2201   23.6897 N   0  0  0  0  0  0  0  0  0  0  0  0
    9.8490  -16.2129   24.9767 C   0  0  1  0  0  0  0  0  0  0  0  0
    8.8491  -16.3649   26.0842 C   0  0  0  0  0  0  0  0  0  0  0  0
    7.6749  -15.4851   25.9778 C   0  0  0  0  0  0  0  0  0  0  0  0
    6.3774  -15.8804   25.6456 C   0  0  0  0  0  0  0  0  0  0  0  0
    5.5823  -14.7989   25.6238 N   0  0  0  0  0  0  0  0  0  0  0  0
    6.3002  -13.7087   25.9280 C   0  0  0  0  0  0  0  0  0  0  0  0
    5.8946  -12.3887   26.0313 C   0  0  0  0  0  0  0  0  0  0  0  0
    6.8558  -11.4618   26.3750 C   0  0  0  0  0  0  0  0  0  0  0  0
    8.1613  -11.8411   26.6042 C   0  0  0  0  0  0  0  0  0  0  0  0
    8.5292  -13.1543   26.4934 C   0  0  0  0  0  0  0  0  0  0  0  0
    7.6056  -14.1237   26.1510 C   0  0  0  0  0  0  0  0  0  0  0  0
   10.9053  -17.2770   25.0083 C   0  0  0  0  0  0  0  0  0  0  0  0
   11.4910  -17.5875   26.0859 O   0  0  0  0  0  0  0  0  0  0  0  0
   12.0311  -19.9801   22.7002 C   0  0  0  0  0  0  0  0  0  0  0  0
   12.3422  -18.9777   23.8202 C   0  0  2  0  0  0  0  0  0  0  0  0
   11.3044  -17.9914   23.8399 N   0  0  0  0  0  0  0  0  0  0  0  0
   13.6847  -18.4539   23.5591 C   0  0  0  0  0  0  0  0  0  0  0  0
   14.7461  -19.3582   23.6140 O   0  0  0  0  0  0  0  0  0  0  0  0
   13.9790  -17.2684   23.2893 O   0  0  0  0  0  0  0  0  0  0  0  0
  2  1  1  6
  2  3  1  0
  4  5  1  0
  4  2  1  0
  5  6  1  1
  7  8  2  0
  7  5  1  0
  9  7  1  0
 10  9  1  0
 11 12  1  0
 10 11  1  1
 12 13  2  0
 12 20  1  0
 13 14  1  0
 14 15  1  0
 15 16  2  0
 17 16  1  0
 18 17  2  0
 19 20  2  0
 19 18  1  0
 20 15  1  0
 21 22  2  0
 21 10  1  0
 24 23  1  6
 24 25  1  0
 25 21  1  0
 26 24  1  0
 27 26  1  0
 28 26  2  0
M  END
$$$$
