LWA.pdb
     RDKit          3D

 28 29  0  0  1  0  0  0  0  0999 V2000
    7.2290  -12.4410   19.5060 C   0  0  0  0  0  0  0  0  0  0  0  0
    7.6983  -13.8450   19.8621 C   0  0  1  0  0  0  0  0  0  0  0  0
    8.3495  -14.4418   18.6608 C   0  0  0  0  0  0  0  0  0  0  0  0
    8.5627  -13.8478   21.0860 C   0  0  0  0  0  0  0  0  0  0  0  0
    8.9505  -15.2692   21.4126 C   0  0  2  0  0  0  0  0  0  0  0  0
    7.7746  -16.1119   21.4143 N   0  0  0  0  0  0  0  0  0  0  0  0
    9.6085  -15.3832   22.7309 C   0  0  0  0  0  0  0  0  0  0  0  0
   10.6019  -14.6612   22.9782 O   0  0  0  0  0  0  0  0  0  0  0  0
    9.1739  -16.2815   23.7581 N   0  0  0  0  0  0  0  0  0  0  0  0
    9.7852  -16.3546   25.0466 C   0  0  1  0  0  0  0  0  0  0  0  0
    8.7722  -16.4849   26.1449 C   0  0  0  0  0  0  0  0  0  0  0  0
    7.6448  -15.5441   26.0569 C   0  0  0  0  0  0  0  0  0  0  0  0
    6.3377  -15.8584   25.6793 C   0  0  0  0  0  0  0  0  0  0  0  0
    5.5966  -14.7391   25.6933 N   0  0  0  0  0  0  0  0  0  0  0  0
    6.3594  -13.7013   26.0645 C   0  0  0  0  0  0  0  0  0  0  0  0
    6.0161  -12.3692   26.2230 C   0  0  0  0  0  0  0  0  0  0  0  0
    7.0130  -11.5083   26.6308 C   0  0  0  0  0  0  0  0  0  0  0  0
    8.2929  -11.9622   26.8683 C   0  0  0  0  0  0  0  0  0  0  0  0
    8.5991  -13.2853   26.7018 C   0  0  0  0  0  0  0  0  0  0  0  0
    7.6376  -14.1905   26.2941 C   0  0  0  0  0  0  0  0  0  0  0  0
   10.7770  -17.4794   25.0452 C   0  0  0  0  0  0  0  0  0  0  0  0
   11.3324  -17.8650   26.1145 O   0  0  0  0  0  0  0  0  0  0  0  0
   11.9985  -19.9341   22.4586 C   0  0  0  0  0  0  0  0  0  0  0  0
   12.1385  -19.2009   23.7998 C   0  0  2  0  0  0  0  0  0  0  0  0
   11.1456  -18.1706   23.8532 N   0  0  0  0  0  0  0  0  0  0  0  0
   13.5221  -18.7276   23.8813 C   0  0  0  0  0  0  0  0  0  0  0  0
   13.7644  -17.3970   23.5375 O   0  0  0  0  0  0  0  0  0  0  0  0
   14.5169  -19.4005   24.2310 O   0  0  0  0  0  0  0  0  0  0  0  0
  2  1  1  6
  2  3  1  0
  4  5  1  0
  4  2  1  0
  5  6  1  1
  7  8  2  0
  7  5  1  0
  9  7  1  0
 10  9  1  0
 11 12  1  0
 10 11  1  1
 12 13  2  0
 12 20  1  0
 13 14  1  0
 14 15  1  0
 15 16  2  0
 17 16  1  0
 18 17  2  0
 19 20  2  0
 19 18  1  0
 20 15  1  0
 21 22  2  0
 21 10  1  0
 24 23  1  6
 24 25  1  0
 25 21  1  0
 26 24  1  0
 27 26  1  0
 28 26  2  0
M  END
$$$$
