LWA.pdb
     RDKit          3D

 28 29  0  0  1  0  0  0  0  0999 V2000
    7.8602  -12.6243   18.6941 C   0  0  0  0  0  0  0  0  0  0  0  0
    8.4061  -13.9057   19.3090 C   0  0  1  0  0  0  0  0  0  0  0  0
    9.2943  -14.5654   18.3093 C   0  0  0  0  0  0  0  0  0  0  0  0
    9.0637  -13.6510   20.6311 C   0  0  0  0  0  0  0  0  0  0  0  0
    9.5197  -14.9651   21.2163 C   0  0  2  0  0  0  0  0  0  0  0  0
    8.5311  -15.9888   20.9565 N   0  0  0  0  0  0  0  0  0  0  0  0
    9.7362  -14.8850   22.6760 C   0  0  0  0  0  0  0  0  0  0  0  0
   10.4641  -13.9735   23.1328 O   0  0  0  0  0  0  0  0  0  0  0  0
    9.1566  -15.7987   23.6141 N   0  0  0  0  0  0  0  0  0  0  0  0
    9.1234  -15.5618   25.0220 C   0  0  1  0  0  0  0  0  0  0  0  0
    7.8427  -16.0342   25.6434 C   0  0  0  0  0  0  0  0  0  0  0  0
    6.8163  -14.9928   25.8045 C   0  0  0  0  0  0  0  0  0  0  0  0
    5.4371  -15.1692   25.6753 C   0  0  0  0  0  0  0  0  0  0  0  0
    4.8249  -13.9901   25.8681 N   0  0  0  0  0  0  0  0  0  0  0  0
    5.7416  -13.0450   26.1192 C   0  0  0  0  0  0  0  0  0  0  0  0
    5.5660  -11.6972   26.3840 C   0  0  0  0  0  0  0  0  0  0  0  0
    6.7011  -10.9508   26.6203 C   0  0  0  0  0  0  0  0  0  0  0  0
    7.9522  -11.5291   26.5923 C   0  0  0  0  0  0  0  0  0  0  0  0
    8.0910  -12.8643   26.3271 C   0  0  0  0  0  0  0  0  0  0  0  0
    6.9862  -13.6578   26.0826 C   0  0  0  0  0  0  0  0  0  0  0  0
   10.3309  -16.1964   25.6449 C   0  0  0  0  0  0  0  0  0  0  0  0
   10.9777  -17.1035   25.0452 O   0  0  0  0  0  0  0  0  0  0  0  0
   11.9494  -15.8948   29.0507 C   0  0  0  0  0  0  0  0  0  0  0  0
   11.7364  -16.5965   27.7023 C   0  0  2  0  0  0  0  0  0  0  0  0
   10.8137  -15.8179   26.9326 N   0  0  0  0  0  0  0  0  0  0  0  0
   11.2931  -17.9603   27.9998 C   0  0  0  0  0  0  0  0  0  0  0  0
    9.9466  -18.2567   27.7842 O   0  0  0  0  0  0  0  0  0  0  0  0
   12.0049  -18.8942   28.4309 O   0  0  0  0  0  0  0  0  0  0  0  0
  2  1  1  6
  2  3  1  0
  4  5  1  0
  4  2  1  0
  5  6  1  1
  7  8  2  0
  7  5  1  0
  9  7  1  0
 10  9  1  0
 11 12  1  0
 10 11  1  1
 12 13  2  0
 12 20  1  0
 13 14  1  0
 14 15  1  0
 15 16  2  0
 17 16  1  0
 18 17  2  0
 19 20  2  0
 19 18  1  0
 20 15  1  0
 21 22  2  0
 21 10  1  0
 24 23  1  1
 24 25  1  0
 25 21  1  0
 26 24  1  0
 27 26  1  0
 28 26  2  0
M  END
$$$$
