FQM.pdb
     RDKit          3D

 29 29  0  0  1  0  0  0  0  0999 V2000
    5.2500  -18.2572   25.0068 N   0  0  0  0  0  0  0  0  0  0  0  0
    5.8771  -16.9658   24.9930 C   0  0  1  0  0  0  0  0  0  0  0  0
    6.6362  -16.7565   26.2932 C   0  0  0  0  0  0  0  0  0  0  0  0
    7.0189  -15.3284   26.3778 C   0  0  0  0  0  0  0  0  0  0  0  0
    6.0247  -14.3620   26.5500 C   0  0  0  0  0  0  0  0  0  0  0  0
    6.3084  -13.0180   26.6396 C   0  0  0  0  0  0  0  0  0  0  0  0
    7.6433  -12.6529   26.5508 C   0  0  0  0  0  0  0  0  0  0  0  0
    8.6637  -13.5681   26.3806 C   0  0  0  0  0  0  0  0  0  0  0  0
    8.3360  -14.9057   26.2955 C   0  0  0  0  0  0  0  0  0  0  0  0
    6.8545  -16.9474   23.8590 C   0  0  0  0  0  0  0  0  0  0  0  0
    7.5114  -17.9765   23.5424 O   0  0  0  0  0  0  0  0  0  0  0  0
    8.7073  -12.0128   20.2014 N   0  0  0  0  0  0  0  0  0  0  0  0
    9.1204  -13.3097   19.8208 C   0  0  0  0  0  0  0  0  0  0  0  0
   10.2948  -13.5695   19.5024 O   0  0  0  0  0  0  0  0  0  0  0  0
    8.1105  -14.4354   19.7943 C   0  0  0  0  0  0  0  0  0  0  0  0
    7.4267  -14.4892   21.1224 C   0  0  0  0  0  0  0  0  0  0  0  0
    7.9042  -15.5919   22.0087 C   0  0  2  0  0  0  0  0  0  0  0  0
    7.0103  -15.7301   23.1594 N   0  0  0  0  0  0  0  0  0  0  0  0
    9.2665  -15.4992   22.5093 C   0  0  0  0  0  0  0  0  0  0  0  0
   10.2169  -15.3965   21.6506 O   0  0  0  0  0  0  0  0  0  0  0  0
    9.7137  -14.2552   28.6179 C   0  0  0  0  0  0  0  0  0  0  0  0
   10.7824  -13.1312   27.6796 S   0  0  0  0  0  0  0  0  0  0  0  0
   10.6769  -13.6038   25.9166 C   0  0  0  0  0  0  0  0  0  0  0  0
   11.1102  -15.0257   25.7181 C   0  0  0  0  0  0  0  0  0  0  0  0
   11.0163  -15.3747   24.2465 C   0  0  2  0  0  0  0  0  0  0  0  0
    9.5908  -15.5110   23.8856 N   0  0  0  0  0  0  0  0  0  0  0  0
   11.6234  -16.6801   23.9848 C   0  0  0  0  0  0  0  0  0  0  0  0
   12.9832  -16.9222   23.7859 O   0  0  0  0  0  0  0  0  0  0  0  0
   10.9082  -17.7292   23.9158 O   0  0  0  0  0  0  0  0  0  0  0  0
  2  1  1  1
  2 10  1  0
  2  3  1  0
  3  4  1  0
  4  5  2  0
  4  9  1  0
  5  6  1  0
  6  7  2  0
  8  7  1  0
  9  8  2  0
 10 18  1  0
 11 10  2  0
 13 15  1  0
 13 12  1  0
 14 13  2  0
 17 16  1  1
 16 15  1  0
 18 17  1  0
 19 17  1  0
 19 20  2  0
 21 22  1  0
 22 23  1  0
 23 24  1  0
 25 24  1  1
 25 26  1  0
 25 27  1  0
 26 19  1  0
 27 28  1  0
 29 27  2  0
M  END
$$$$
