FQM.pdb
     RDKit          3D

 29 29  0  0  1  0  0  0  0  0999 V2000
    7.6512  -16.7825   21.0405 N   0  0  0  0  0  0  0  0  0  0  0  0
    8.3502  -16.0345   22.0469 C   0  0  1  0  0  0  0  0  0  0  0  0
    7.6294  -14.7192   22.2938 C   0  0  0  0  0  0  0  0  0  0  0  0
    7.6382  -13.9456   21.0310 C   0  0  0  0  0  0  0  0  0  0  0  0
    8.5627  -12.9107   20.8683 C   0  0  0  0  0  0  0  0  0  0  0  0
    8.6292  -12.1531   19.7210 C   0  0  0  0  0  0  0  0  0  0  0  0
    7.7269  -12.4617   18.7141 C   0  0  0  0  0  0  0  0  0  0  0  0
    6.7937  -13.4739   18.8246 C   0  0  0  0  0  0  0  0  0  0  0  0
    6.7606  -14.2094   19.9915 C   0  0  0  0  0  0  0  0  0  0  0  0
    8.3262  -16.8386   23.3096 C   0  0  0  0  0  0  0  0  0  0  0  0
    7.5346  -17.8099   23.4538 O   0  0  0  0  0  0  0  0  0  0  0  0
   11.7418  -21.2641   23.0410 N   0  0  0  0  0  0  0  0  0  0  0  0
   11.5972  -20.6794   24.3196 C   0  0  0  0  0  0  0  0  0  0  0  0
   12.4566  -20.8024   25.2109 O   0  0  0  0  0  0  0  0  0  0  0  0
   10.3580  -19.8707   24.6330 C   0  0  0  0  0  0  0  0  0  0  0  0
   10.6031  -18.4529   24.2277 C   0  0  0  0  0  0  0  0  0  0  0  0
    9.9677  -17.4442   25.1266 C   0  0  2  0  0  0  0  0  0  0  0  0
    9.2263  -16.4639   24.3319 N   0  0  0  0  0  0  0  0  0  0  0  0
   10.8428  -16.7162   26.0318 C   0  0  0  0  0  0  0  0  0  0  0  0
   11.5271  -17.3948   26.8818 O   0  0  0  0  0  0  0  0  0  0  0  0
    6.5818  -12.2495   25.6167 C   0  0  0  0  0  0  0  0  0  0  0  0
    7.7341  -12.1869   27.0147 S   0  0  0  0  0  0  0  0  0  0  0  0
    7.9213  -13.8874   27.6592 C   0  0  0  0  0  0  0  0  0  0  0  0
    8.7250  -14.7309   26.7148 C   0  0  0  0  0  0  0  0  0  0  0  0
   10.1994  -14.5424   27.0093 C   0  0  2  0  0  0  0  0  0  0  0  0
   10.9789  -15.3088   26.0164 N   0  0  0  0  0  0  0  0  0  0  0  0
   10.5428  -15.1094   28.3138 C   0  0  0  0  0  0  0  0  0  0  0  0
   10.5285  -16.4655   28.6431 O   0  0  0  0  0  0  0  0  0  0  0  0
   10.8906  -14.3588   29.2794 O   0  0  0  0  0  0  0  0  0  0  0  0
  2  1  1  6
  2 10  1  0
  2  3  1  0
  3  4  1  0
  4  5  2  0
  4  9  1  0
  5  6  1  0
  6  7  2  0
  8  7  1  0
  9  8  2  0
 10 18  1  0
 11 10  2  0
 13 15  1  0
 13 12  1  0
 14 13  2  0
 17 16  1  6
 16 15  1  0
 18 17  1  0
 19 17  1  0
 19 20  2  0
 21 22  1  0
 22 23  1  0
 23 24  1  0
 25 24  1  6
 25 26  1  0
 25 27  1  0
 26 19  1  0
 27 28  1  0
 29 27  2  0
M  END
$$$$
