FQM.pdb
     RDKit          3D

 29 29  0  0  1  0  0  0  0  0999 V2000
    6.1139  -17.5568   25.0794 N   0  0  0  0  0  0  0  0  0  0  0  0
    7.0086  -16.5239   24.6392 C   0  0  1  0  0  0  0  0  0  0  0  0
    7.5101  -15.7407   25.8415 C   0  0  0  0  0  0  0  0  0  0  0  0
    7.0891  -14.3301   25.6801 C   0  0  0  0  0  0  0  0  0  0  0  0
    7.8269  -13.4864   24.8458 C   0  0  0  0  0  0  0  0  0  0  0  0
    7.4916  -12.1663   24.6471 C   0  0  0  0  0  0  0  0  0  0  0  0
    6.3729  -11.6967   25.3190 C   0  0  0  0  0  0  0  0  0  0  0  0
    5.6099  -12.4888   26.1545 C   0  0  0  0  0  0  0  0  0  0  0  0
    5.9806  -13.8067   26.3261 C   0  0  0  0  0  0  0  0  0  0  0  0
    8.1768  -17.1863   23.9774 C   0  0  0  0  0  0  0  0  0  0  0  0
    8.4493  -18.3995   24.1885 O   0  0  0  0  0  0  0  0  0  0  0  0
   11.9584  -19.3359   20.5595 N   0  0  0  0  0  0  0  0  0  0  0  0
   11.0899  -18.4550   19.8759 C   0  0  0  0  0  0  0  0  0  0  0  0
   10.2280  -18.8566   19.0734 O   0  0  0  0  0  0  0  0  0  0  0  0
   11.1983  -16.9658   20.1171 C   0  0  0  0  0  0  0  0  0  0  0  0
   10.0264  -16.5327   20.9377 C   0  0  0  0  0  0  0  0  0  0  0  0
   10.1075  -16.9333   22.3738 C   0  0  2  0  0  0  0  0  0  0  0  0
    8.9607  -16.3959   23.1076 N   0  0  0  0  0  0  0  0  0  0  0  0
   11.3139  -16.5668   23.0986 C   0  0  0  0  0  0  0  0  0  0  0  0
   12.3383  -17.3345   22.9881 O   0  0  0  0  0  0  0  0  0  0  0  0
   10.1072  -13.3172   28.5166 C   0  0  0  0  0  0  0  0  0  0  0  0
   10.3214  -15.0690   28.9302 S   0  0  0  0  0  0  0  0  0  0  0  0
   11.3659  -15.8241   27.6335 C   0  0  0  0  0  0  0  0  0  0  0  0
   10.8398  -15.4985   26.2673 C   0  0  0  0  0  0  0  0  0  0  0  0
   11.9726  -15.5810   25.2641 C   0  0  2  0  0  0  0  0  0  0  0  0
   11.4130  -15.4115   23.9080 N   0  0  0  0  0  0  0  0  0  0  0  0
   12.5842  -16.9101   25.2829 C   0  0  0  0  0  0  0  0  0  0  0  0
   11.9925  -18.0734   25.7772 O   0  0  0  0  0  0  0  0  0  0  0  0
   13.7573  -17.0942   24.8281 O   0  0  0  0  0  0  0  0  0  0  0  0
  2  1  1  1
  2 10  1  0
  2  3  1  0
  3  4  1  0
  4  5  2  0
  4  9  1  0
  5  6  1  0
  6  7  2  0
  8  7  1  0
  9  8  2  0
 10 18  1  0
 11 10  2  0
 13 15  1  0
 13 12  1  0
 14 13  2  0
 17 16  1  6
 16 15  1  0
 18 17  1  0
 19 17  1  0
 19 20  2  0
 21 22  1  0
 22 23  1  0
 23 24  1  0
 25 24  1  1
 25 26  1  0
 25 27  1  0
 26 19  1  0
 27 28  1  0
 29 27  2  0
M  END
$$$$
