FQM.pdb
     RDKit          3D

 29 29  0  0  1  0  0  0  0  0999 V2000
    5.6717  -17.5518   24.1680 N   0  0  0  0  0  0  0  0  0  0  0  0
    6.7153  -16.5659   24.1540 C   0  0  1  0  0  0  0  0  0  0  0  0
    6.8442  -15.9439   25.5350 C   0  0  0  0  0  0  0  0  0  0  0  0
    6.6282  -14.4847   25.4043 C   0  0  0  0  0  0  0  0  0  0  0  0
    7.5667  -13.7124   24.7151 C   0  0  0  0  0  0  0  0  0  0  0  0
    7.4284  -12.3526   24.5528 C   0  0  0  0  0  0  0  0  0  0  0  0
    6.3013  -11.7672   25.1097 C   0  0  0  0  0  0  0  0  0  0  0  0
    5.3443  -12.4850   25.8000 C   0  0  0  0  0  0  0  0  0  0  0  0
    5.5211  -13.8462   25.9400 C   0  0  0  0  0  0  0  0  0  0  0  0
    7.9967  -17.2654   23.8219 C   0  0  0  0  0  0  0  0  0  0  0  0
    8.1374  -18.5038   24.0152 O   0  0  0  0  0  0  0  0  0  0  0  0
   11.3603  -16.9973   18.9939 N   0  0  0  0  0  0  0  0  0  0  0  0
   10.0480  -16.5227   19.2177 C   0  0  0  0  0  0  0  0  0  0  0  0
    9.2321  -16.3552   18.2933 O   0  0  0  0  0  0  0  0  0  0  0  0
    9.6021  -16.2017   20.6269 C   0  0  0  0  0  0  0  0  0  0  0  0
   10.7387  -16.4782   21.5575 C   0  0  0  0  0  0  0  0  0  0  0  0
   10.3237  -17.0526   22.8717 C   0  0  2  0  0  0  0  0  0  0  0  0
    9.0409  -16.4807   23.2838 N   0  0  0  0  0  0  0  0  0  0  0  0
   11.2532  -16.9120   23.9815 C   0  0  0  0  0  0  0  0  0  0  0  0
   12.5024  -17.1005   23.7469 O   0  0  0  0  0  0  0  0  0  0  0  0
   10.7999  -13.9960   29.8505 C   0  0  0  0  0  0  0  0  0  0  0  0
    9.4643  -14.1403   28.6334 S   0  0  0  0  0  0  0  0  0  0  0  0
   10.0071  -15.3215   27.3478 C   0  0  0  0  0  0  0  0  0  0  0  0
   11.4982  -15.4808   27.3644 C   0  0  0  0  0  0  0  0  0  0  0  0
   11.9009  -16.5124   26.3300 C   0  0  2  0  0  0  0  0  0  0  0  0
   10.8502  -16.5747   25.2942 N   0  0  0  0  0  0  0  0  0  0  0  0
   11.9570  -17.8476   26.9259 C   0  0  0  0  0  0  0  0  0  0  0  0
   11.0955  -18.9068   26.6368 O   0  0  0  0  0  0  0  0  0  0  0  0
   12.8404  -18.1375   27.7933 O   0  0  0  0  0  0  0  0  0  0  0  0
  2  1  1  1
  2 10  1  0
  2  3  1  0
  3  4  1  0
  4  5  2  0
  4  9  1  0
  5  6  1  0
  6  7  2  0
  8  7  1  0
  9  8  2  0
 10 18  1  0
 11 10  2  0
 13 15  1  0
 13 12  1  0
 14 13  2  0
 17 16  1  6
 16 15  1  0
 18 17  1  0
 19 17  1  0
 19 20  2  0
 21 22  1  0
 22 23  1  0
 23 24  1  0
 25 24  1  1
 25 26  1  0
 25 27  1  0
 26 19  1  0
 27 28  1  0
 29 27  2  0
M  END
$$$$
