FQM.pdb
     RDKit          3D

 29 29  0  0  1  0  0  0  0  0999 V2000
    6.5185  -17.9092   24.8972 N   0  0  0  0  0  0  0  0  0  0  0  0
    6.5973  -17.4389   23.5430 C   0  0  1  0  0  0  0  0  0  0  0  0
    5.8846  -16.1012   23.4282 C   0  0  0  0  0  0  0  0  0  0  0  0
    6.4790  -15.1764   24.4205 C   0  0  0  0  0  0  0  0  0  0  0  0
    6.9721  -13.9402   23.9952 C   0  0  0  0  0  0  0  0  0  0  0  0
    7.5345  -13.0313   24.8624 C   0  0  0  0  0  0  0  0  0  0  0  0
    7.5942  -13.3958   26.1991 C   0  0  0  0  0  0  0  0  0  0  0  0
    7.1215  -14.6047   26.6709 C   0  0  0  0  0  0  0  0  0  0  0  0
    6.5651  -15.4875   25.7681 C   0  0  0  0  0  0  0  0  0  0  0  0
    8.0445  -17.2408   23.2143 C   0  0  0  0  0  0  0  0  0  0  0  0
    8.9286  -18.0320   23.6420 O   0  0  0  0  0  0  0  0  0  0  0  0
    9.7872  -12.5989   19.2666 N   0  0  0  0  0  0  0  0  0  0  0  0
   10.9654  -13.3715   19.3780 C   0  0  0  0  0  0  0  0  0  0  0  0
   11.8907  -13.3010   18.5491 O   0  0  0  0  0  0  0  0  0  0  0  0
   11.1241  -14.3244   20.5419 C   0  0  0  0  0  0  0  0  0  0  0  0
    9.7644  -14.6821   21.0494 C   0  0  0  0  0  0  0  0  0  0  0  0
    9.7475  -15.8597   21.9672 C   0  0  2  0  0  0  0  0  0  0  0  0
    8.3778  -16.1311   22.4061 N   0  0  0  0  0  0  0  0  0  0  0  0
   10.5910  -15.7922   23.1501 C   0  0  0  0  0  0  0  0  0  0  0  0
   11.2560  -14.7117   23.3534 O   0  0  0  0  0  0  0  0  0  0  0  0
    8.8736  -13.1809   28.3186 C   0  0  0  0  0  0  0  0  0  0  0  0
    9.5532  -14.8610   28.2817 S   0  0  0  0  0  0  0  0  0  0  0  0
   10.2666  -15.1373   26.6213 C   0  0  0  0  0  0  0  0  0  0  0  0
   10.7870  -16.5377   26.4900 C   0  0  0  0  0  0  0  0  0  0  0  0
   11.6177  -16.6446   25.2272 C   0  0  2  0  0  0  0  0  0  0  0  0
   10.7081  -16.8493   24.0819 N   0  0  0  0  0  0  0  0  0  0  0  0
   12.4783  -17.8271   25.2728 C   0  0  0  0  0  0  0  0  0  0  0  0
   12.0628  -19.1460   25.0851 O   0  0  0  0  0  0  0  0  0  0  0  0
   13.7242  -17.7179   25.5024 O   0  0  0  0  0  0  0  0  0  0  0  0
  2  1  1  1
  2 10  1  0
  2  3  1  0
  3  4  1  0
  4  5  2  0
  4  9  1  0
  5  6  1  0
  6  7  2  0
  8  7  1  0
  9  8  2  0
 10 18  1  0
 11 10  2  0
 13 15  1  0
 13 12  1  0
 14 13  2  0
 17 16  1  1
 16 15  1  0
 18 17  1  0
 19 17  1  0
 19 20  2  0
 21 22  1  0
 22 23  1  0
 23 24  1  0
 25 24  1  1
 25 26  1  0
 25 27  1  0
 26 19  1  0
 27 28  1  0
 29 27  2  0
M  END
$$$$
