FQM.pdb
     RDKit          3D

 29 29  0  0  1  0  0  0  0  0999 V2000
    5.6034  -16.7567   22.0635 N   0  0  0  0  0  0  0  0  0  0  0  0
    6.7416  -17.0791   21.2500 C   0  0  1  0  0  0  0  0  0  0  0  0
    6.8296  -16.1008   20.0900 C   0  0  0  0  0  0  0  0  0  0  0  0
    7.0132  -14.7412   20.6477 C   0  0  0  0  0  0  0  0  0  0  0  0
    7.0758  -13.6478   19.7802 C   0  0  0  0  0  0  0  0  0  0  0  0
    7.2419  -12.3572   20.2290 C   0  0  0  0  0  0  0  0  0  0  0  0
    7.3467  -12.1801   21.6005 C   0  0  0  0  0  0  0  0  0  0  0  0
    7.2911  -13.2264   22.5003 C   0  0  0  0  0  0  0  0  0  0  0  0
    7.1237  -14.5047   22.0087 C   0  0  0  0  0  0  0  0  0  0  0  0
    7.9650  -16.9269   22.0994 C   0  0  0  0  0  0  0  0  0  0  0  0
    8.0349  -17.4438   23.2477 O   0  0  0  0  0  0  0  0  0  0  0  0
   13.9511  -13.8457   20.3712 N   0  0  0  0  0  0  0  0  0  0  0  0
   13.5630  -15.1814   20.1202 C   0  0  0  0  0  0  0  0  0  0  0  0
   13.8368  -15.7675   19.0574 O   0  0  0  0  0  0  0  0  0  0  0  0
   12.7854  -15.9413   21.1717 C   0  0  0  0  0  0  0  0  0  0  0  0
   11.3274  -15.8093   20.8696 C   0  0  0  0  0  0  0  0  0  0  0  0
   10.4370  -16.4857   21.8591 C   0  0  2  0  0  0  0  0  0  0  0  0
    9.0368  -16.1803   21.5613 N   0  0  0  0  0  0  0  0  0  0  0  0
   10.6680  -16.1984   23.2659 C   0  0  0  0  0  0  0  0  0  0  0  0
   11.7768  -16.5885   23.7850 O   0  0  0  0  0  0  0  0  0  0  0  0
    7.2382  -11.5652   25.7591 C   0  0  0  0  0  0  0  0  0  0  0  0
    6.7375  -13.1582   26.4645 S   0  0  0  0  0  0  0  0  0  0  0  0
    7.8165  -14.4487   25.7485 C   0  0  0  0  0  0  0  0  0  0  0  0
    9.2588  -14.1636   26.0448 C   0  0  0  0  0  0  0  0  0  0  0  0
   10.1128  -15.2868   25.4921 C   0  0  2  0  0  0  0  0  0  0  0  0
    9.7395  -15.5105   24.0809 N   0  0  0  0  0  0  0  0  0  0  0  0
    9.8282  -16.5427   26.1867 C   0  0  0  0  0  0  0  0  0  0  0  0
    9.3332  -17.7068   25.5973 O   0  0  0  0  0  0  0  0  0  0  0  0
   10.0223  -16.6536   27.4385 O   0  0  0  0  0  0  0  0  0  0  0  0
  2  1  1  1
  2 10  1  0
  2  3  1  0
  3  4  1  0
  4  5  2  0
  4  9  1  0
  5  6  1  0
  6  7  2  0
  8  7  1  0
  9  8  2  0
 10 18  1  0
 11 10  2  0
 13 15  1  0
 13 12  1  0
 14 13  2  0
 17 16  1  6
 16 15  1  0
 18 17  1  0
 19 17  1  0
 19 20  2  0
 21 22  1  0
 22 23  1  0
 23 24  1  0
 25 24  1  1
 25 26  1  0
 25 27  1  0
 26 19  1  0
 27 28  1  0
 29 27  2  0
M  END
$$$$
