FQM.pdb
     RDKit          3D

 29 29  0  0  1  0  0  0  0  0999 V2000
    5.9153  -17.0449   24.7708 N   0  0  0  0  0  0  0  0  0  0  0  0
    7.1250  -16.3686   24.3959 C   0  0  1  0  0  0  0  0  0  0  0  0
    7.6126  -15.5194   25.5584 C   0  0  0  0  0  0  0  0  0  0  0  0
    7.0373  -14.1628   25.4105 C   0  0  0  0  0  0  0  0  0  0  0  0
    7.5515  -13.3032   24.4364 C   0  0  0  0  0  0  0  0  0  0  0  0
    7.0634  -12.0311   24.2418 C   0  0  0  0  0  0  0  0  0  0  0  0
    6.0225  -11.6274   25.0644 C   0  0  0  0  0  0  0  0  0  0  0  0
    5.4785  -12.4378   26.0416 C   0  0  0  0  0  0  0  0  0  0  0  0
    5.9970  -13.7061   26.2039 C   0  0  0  0  0  0  0  0  0  0  0  0
    8.1561  -17.4128   24.0994 C   0  0  0  0  0  0  0  0  0  0  0  0
    8.0657  -18.5777   24.5743 O   0  0  0  0  0  0  0  0  0  0  0  0
   12.4473  -17.1170   19.5856 N   0  0  0  0  0  0  0  0  0  0  0  0
   11.0691  -17.4111   19.4775 C   0  0  0  0  0  0  0  0  0  0  0  0
   10.4718  -17.4187   18.3860 O   0  0  0  0  0  0  0  0  0  0  0  0
   10.2756  -17.7310   20.7249 C   0  0  0  0  0  0  0  0  0  0  0  0
   11.1702  -17.5640   21.9107 C   0  0  0  0  0  0  0  0  0  0  0  0
   10.4913  -17.7867   23.2217 C   0  0  2  0  0  0  0  0  0  0  0  0
    9.2340  -17.0387   23.2662 N   0  0  0  0  0  0  0  0  0  0  0  0
   11.2453  -17.4660   24.4233 C   0  0  0  0  0  0  0  0  0  0  0  0
   12.1600  -16.5676   24.3372 O   0  0  0  0  0  0  0  0  0  0  0  0
   10.3341  -13.4395   28.1778 C   0  0  0  0  0  0  0  0  0  0  0  0
   10.6874  -14.6268   29.5013 S   0  0  0  0  0  0  0  0  0  0  0  0
   11.5751  -16.0418   28.7583 C   0  0  0  0  0  0  0  0  0  0  0  0
   10.9625  -16.4262   27.4444 C   0  0  0  0  0  0  0  0  0  0  0  0
   11.7596  -17.5622   26.8360 C   0  0  2  0  0  0  0  0  0  0  0  0
   11.0168  -18.0875   25.6727 N   0  0  0  0  0  0  0  0  0  0  0  0
   11.8722  -18.6770   27.7771 C   0  0  0  0  0  0  0  0  0  0  0  0
   12.7201  -18.7271   28.8844 O   0  0  0  0  0  0  0  0  0  0  0  0
   11.1681  -19.7258   27.6322 O   0  0  0  0  0  0  0  0  0  0  0  0
  2  1  1  1
  2 10  1  0
  2  3  1  0
  3  4  1  0
  4  5  2  0
  4  9  1  0
  5  6  1  0
  6  7  2  0
  8  7  1  0
  9  8  2  0
 10 18  1  0
 11 10  2  0
 13 15  1  0
 13 12  1  0
 14 13  2  0
 17 16  1  6
 16 15  1  0
 18 17  1  0
 19 17  1  0
 19 20  2  0
 21 22  1  0
 22 23  1  0
 23 24  1  0
 25 24  1  1
 25 26  1  0
 25 27  1  0
 26 19  1  0
 27 28  1  0
 29 27  2  0
M  END
$$$$
