FQM.pdb
     RDKit          3D

 29 29  0  0  1  0  0  0  0  0999 V2000
    5.7045  -18.0989   23.2017 N   0  0  0  0  0  0  0  0  0  0  0  0
    6.5460  -16.9701   23.4821 C   0  0  1  0  0  0  0  0  0  0  0  0
    6.4667  -16.6335   24.9623 C   0  0  0  0  0  0  0  0  0  0  0  0
    6.6995  -15.1791   25.1165 C   0  0  0  0  0  0  0  0  0  0  0  0
    6.0649  -14.4901   26.1532 C   0  0  0  0  0  0  0  0  0  0  0  0
    6.2377  -13.1399   26.3573 C   0  0  0  0  0  0  0  0  0  0  0  0
    7.0813  -12.4771   25.4786 C   0  0  0  0  0  0  0  0  0  0  0  0
    7.7322  -13.1109   24.4383 C   0  0  0  0  0  0  0  0  0  0  0  0
    7.5315  -14.4655   24.2688 C   0  0  0  0  0  0  0  0  0  0  0  0
    7.9537  -17.3601   23.1539 C   0  0  0  0  0  0  0  0  0  0  0  0
    8.3974  -18.5083   23.4287 O   0  0  0  0  0  0  0  0  0  0  0  0
   13.5934  -13.8897   21.3662 N   0  0  0  0  0  0  0  0  0  0  0  0
   12.5552  -14.4003   20.5543 C   0  0  0  0  0  0  0  0  0  0  0  0
   12.0226  -13.7297   19.6517 O   0  0  0  0  0  0  0  0  0  0  0  0
   12.0612  -15.8124   20.7772 C   0  0  0  0  0  0  0  0  0  0  0  0
   10.5969  -15.7604   21.0730 C   0  0  0  0  0  0  0  0  0  0  0  0
   10.1766  -16.6189   22.2200 C   0  0  2  0  0  0  0  0  0  0  0  0
    8.7636  -16.3887   22.5245 N   0  0  0  0  0  0  0  0  0  0  0  0
   10.9281  -16.4878   23.4583 C   0  0  0  0  0  0  0  0  0  0  0  0
   12.1559  -16.8668   23.4594 O   0  0  0  0  0  0  0  0  0  0  0  0
   10.1077  -12.2587   28.3042 C   0  0  0  0  0  0  0  0  0  0  0  0
   10.7967  -13.6403   29.2540 S   0  0  0  0  0  0  0  0  0  0  0  0
   11.4584  -14.8599   28.0636 C   0  0  0  0  0  0  0  0  0  0  0  0
   10.6504  -14.8656   26.8002 C   0  0  0  0  0  0  0  0  0  0  0  0
   11.2790  -15.8258   25.8107 C   0  0  2  0  0  0  0  0  0  0  0  0
   10.3768  -15.9617   24.6494 N   0  0  0  0  0  0  0  0  0  0  0  0
   11.3923  -17.1647   26.3900 C   0  0  0  0  0  0  0  0  0  0  0  0
   12.5347  -17.7023   26.9843 O   0  0  0  0  0  0  0  0  0  0  0  0
   10.4031  -17.9637   26.3828 O   0  0  0  0  0  0  0  0  0  0  0  0
  2  1  1  1
  2 10  1  0
  2  3  1  0
  3  4  1  0
  4  5  2  0
  4  9  1  0
  5  6  1  0
  6  7  2  0
  8  7  1  0
  9  8  2  0
 10 18  1  0
 11 10  2  0
 13 15  1  0
 13 12  1  0
 14 13  2  0
 17 16  1  6
 16 15  1  0
 18 17  1  0
 19 17  1  0
 19 20  2  0
 21 22  1  0
 22 23  1  0
 23 24  1  0
 25 24  1  1
 25 26  1  0
 25 27  1  0
 26 19  1  0
 27 28  1  0
 29 27  2  0
M  END
$$$$
