FQM.pdb
     RDKit          3D

 29 29  0  0  1  0  0  0  0  0999 V2000
    5.5854  -18.1371   23.0630 N   0  0  0  0  0  0  0  0  0  0  0  0
    6.3297  -16.9414   23.3414 C   0  0  1  0  0  0  0  0  0  0  0  0
    5.8193  -16.3141   24.6284 C   0  0  0  0  0  0  0  0  0  0  0  0
    6.4714  -14.9940   24.7871 C   0  0  0  0  0  0  0  0  0  0  0  0
    6.4471  -14.3636   26.0338 C   0  0  0  0  0  0  0  0  0  0  0  0
    7.0349  -13.1386   26.2537 C   0  0  0  0  0  0  0  0  0  0  0  0
    7.6639  -12.5428   25.1708 C   0  0  0  0  0  0  0  0  0  0  0  0
    7.7164  -13.1233   23.9186 C   0  0  0  0  0  0  0  0  0  0  0  0
    7.1144  -14.3520   23.7409 C   0  0  0  0  0  0  0  0  0  0  0  0
    7.7621  -17.3323   23.5339 C   0  0  0  0  0  0  0  0  0  0  0  0
    8.1010  -18.1700   24.4138 O   0  0  0  0  0  0  0  0  0  0  0  0
   11.7171  -16.2263   18.8993 N   0  0  0  0  0  0  0  0  0  0  0  0
   12.6387  -16.7683   19.8238 C   0  0  0  0  0  0  0  0  0  0  0  0
   13.8416  -16.9303   19.5501 O   0  0  0  0  0  0  0  0  0  0  0  0
   12.1620  -17.1716   21.2014 C   0  0  0  0  0  0  0  0  0  0  0  0
   10.7194  -16.8018   21.3301 C   0  0  0  0  0  0  0  0  0  0  0  0
   10.1184  -17.1458   22.6529 C   0  0  2  0  0  0  0  0  0  0  0  0
    8.7174  -16.7236   22.6897 N   0  0  0  0  0  0  0  0  0  0  0  0
   10.7756  -16.6186   23.8384 C   0  0  0  0  0  0  0  0  0  0  0  0
   11.0617  -15.3661   23.8604 O   0  0  0  0  0  0  0  0  0  0  0  0
    9.5693  -12.7632   28.7350 C   0  0  0  0  0  0  0  0  0  0  0  0
    9.9718  -14.5284   28.8245 S   0  0  0  0  0  0  0  0  0  0  0  0
   10.7138  -15.0126   27.2253 C   0  0  0  0  0  0  0  0  0  0  0  0
   11.0231  -16.4799   27.2026 C   0  0  0  0  0  0  0  0  0  0  0  0
   11.9205  -16.7821   26.0195 C   0  0  2  0  0  0  0  0  0  0  0  0
   11.1065  -17.4125   24.9608 N   0  0  0  0  0  0  0  0  0  0  0  0
   12.9401  -17.7670   26.3821 C   0  0  0  0  0  0  0  0  0  0  0  0
   14.2182  -17.4789   26.8627 O   0  0  0  0  0  0  0  0  0  0  0  0
   12.7110  -19.0129   26.2716 O   0  0  0  0  0  0  0  0  0  0  0  0
  2  1  1  1
  2 10  1  0
  2  3  1  0
  3  4  1  0
  4  5  2  0
  4  9  1  0
  5  6  1  0
  6  7  2  0
  8  7  1  0
  9  8  2  0
 10 18  1  0
 11 10  2  0
 13 15  1  0
 13 12  1  0
 14 13  2  0
 17 16  1  6
 16 15  1  0
 18 17  1  0
 19 17  1  0
 19 20  2  0
 21 22  1  0
 22 23  1  0
 23 24  1  0
 25 24  1  1
 25 26  1  0
 25 27  1  0
 26 19  1  0
 27 28  1  0
 29 27  2  0
M  END
$$$$
