FQM.pdb
     RDKit          3D

 29 29  0  0  1  0  0  0  0  0999 V2000
    5.6216  -16.9565   24.6138 N   0  0  0  0  0  0  0  0  0  0  0  0
    6.5981  -15.9165   24.4532 C   0  0  1  0  0  0  0  0  0  0  0  0
    7.1586  -15.5324   25.8129 C   0  0  0  0  0  0  0  0  0  0  0  0
    6.9183  -14.0856   26.0177 C   0  0  0  0  0  0  0  0  0  0  0  0
    7.9308  -13.1730   25.7107 C   0  0  0  0  0  0  0  0  0  0  0  0
    7.7756  -11.8150   25.8735 C   0  0  0  0  0  0  0  0  0  0  0  0
    6.5534  -11.3789   26.3628 C   0  0  0  0  0  0  0  0  0  0  0  0
    5.5207  -12.2389   26.6813 C   0  0  0  0  0  0  0  0  0  0  0  0
    5.7176  -13.5929   26.5034 C   0  0  0  0  0  0  0  0  0  0  0  0
    7.7104  -16.4633   23.6133 C   0  0  0  0  0  0  0  0  0  0  0  0
    7.8982  -17.7054   23.5012 O   0  0  0  0  0  0  0  0  0  0  0  0
    6.1470  -16.3938   19.9947 N   0  0  0  0  0  0  0  0  0  0  0  0
    7.4535  -15.9739   19.6569 C   0  0  0  0  0  0  0  0  0  0  0  0
    8.1309  -16.5402   18.7803 O   0  0  0  0  0  0  0  0  0  0  0  0
    8.0665  -14.7940   20.3780 C   0  0  0  0  0  0  0  0  0  0  0  0
    9.4709  -15.1447   20.7507 C   0  0  0  0  0  0  0  0  0  0  0  0
    9.5868  -15.9346   22.0125 C   0  0  2  0  0  0  0  0  0  0  0  0
    8.5402  -15.5303   22.9525 N   0  0  0  0  0  0  0  0  0  0  0  0
   10.8605  -15.8849   22.7129 C   0  0  0  0  0  0  0  0  0  0  0  0
   11.5782  -14.8273   22.5809 O   0  0  0  0  0  0  0  0  0  0  0  0
   10.9620  -13.9384   29.4651 C   0  0  0  0  0  0  0  0  0  0  0  0
   10.1961  -14.3923   27.8861 S   0  0  0  0  0  0  0  0  0  0  0  0
   11.4027  -15.3973   26.9499 C   0  0  0  0  0  0  0  0  0  0  0  0
   10.8949  -15.6931   25.5701 C   0  0  0  0  0  0  0  0  0  0  0  0
   11.8988  -16.5674   24.8461 C   0  0  2  0  0  0  0  0  0  0  0  0
   11.3391  -16.9350   23.5299 N   0  0  0  0  0  0  0  0  0  0  0  0
   12.0994  -17.8270   25.5632 C   0  0  0  0  0  0  0  0  0  0  0  0
   13.0668  -18.0640   26.5407 O   0  0  0  0  0  0  0  0  0  0  0  0
   11.3662  -18.8377   25.3226 O   0  0  0  0  0  0  0  0  0  0  0  0
  2  1  1  1
  2 10  1  0
  2  3  1  0
  3  4  1  0
  4  5  2  0
  4  9  1  0
  5  6  1  0
  6  7  2  0
  8  7  1  0
  9  8  2  0
 10 18  1  0
 11 10  2  0
 13 15  1  0
 13 12  1  0
 14 13  2  0
 17 16  1  6
 16 15  1  0
 18 17  1  0
 19 17  1  0
 19 20  2  0
 21 22  1  0
 22 23  1  0
 23 24  1  0
 25 24  1  1
 25 26  1  0
 25 27  1  0
 26 19  1  0
 27 28  1  0
 29 27  2  0
M  END
$$$$
