FQM.pdb
     RDKit          3D

 29 29  0  0  1  0  0  0  0  0999 V2000
    5.6471  -17.7961   25.2131 N   0  0  0  0  0  0  0  0  0  0  0  0
    6.2397  -16.5307   24.8833 C   0  0  1  0  0  0  0  0  0  0  0  0
    7.0689  -16.0373   26.0578 C   0  0  0  0  0  0  0  0  0  0  0  0
    6.7850  -14.5964   26.2485 C   0  0  0  0  0  0  0  0  0  0  0  0
    7.6767  -13.8146   26.9873 C   0  0  0  0  0  0  0  0  0  0  0  0
    7.4774  -12.4697   27.2016 C   0  0  0  0  0  0  0  0  0  0  0  0
    6.3368  -11.9096   26.6461 C   0  0  0  0  0  0  0  0  0  0  0  0
    5.4243  -12.6377   25.9080 C   0  0  0  0  0  0  0  0  0  0  0  0
    5.6618  -13.9834   25.7167 C   0  0  0  0  0  0  0  0  0  0  0  0
    7.1475  -16.7455   23.7123 C   0  0  0  0  0  0  0  0  0  0  0  0
    7.6086  -17.8876   23.4405 O   0  0  0  0  0  0  0  0  0  0  0  0
    9.2264  -12.1186   18.9130 N   0  0  0  0  0  0  0  0  0  0  0  0
    8.8221  -13.4670   18.7868 C   0  0  0  0  0  0  0  0  0  0  0  0
    8.0959  -13.8617   17.8568 O   0  0  0  0  0  0  0  0  0  0  0  0
    9.2801  -14.4810   19.8113 C   0  0  0  0  0  0  0  0  0  0  0  0
    8.2423  -14.5728   20.8831 C   0  0  0  0  0  0  0  0  0  0  0  0
    8.5008  -15.6439   21.8908 C   0  0  2  0  0  0  0  0  0  0  0  0
    7.4659  -15.6163   22.9255 N   0  0  0  0  0  0  0  0  0  0  0  0
    9.7957  -15.6345   22.5529 C   0  0  0  0  0  0  0  0  0  0  0  0
   10.8318  -15.9267   21.8513 O   0  0  0  0  0  0  0  0  0  0  0  0
   10.7073  -15.3042   29.7785 C   0  0  0  0  0  0  0  0  0  0  0  0
   10.6914  -14.2617   28.2957 S   0  0  0  0  0  0  0  0  0  0  0  0
   11.3731  -15.2467   26.9145 C   0  0  0  0  0  0  0  0  0  0  0  0
   11.4230  -14.4358   25.6539 C   0  0  0  0  0  0  0  0  0  0  0  0
   11.3404  -15.3650   24.4598 C   0  0  2  0  0  0  0  0  0  0  0  0
    9.9667  -15.3159   23.9200 N   0  0  0  0  0  0  0  0  0  0  0  0
   11.5622  -16.7525   24.8679 C   0  0  0  0  0  0  0  0  0  0  0  0
   12.8022  -17.3393   25.1237 O   0  0  0  0  0  0  0  0  0  0  0  0
   10.5846  -17.5515   25.0188 O   0  0  0  0  0  0  0  0  0  0  0  0
  2  1  1  1
  2 10  1  0
  2  3  1  0
  3  4  1  0
  4  5  2  0
  4  9  1  0
  5  6  1  0
  6  7  2  0
  8  7  1  0
  9  8  2  0
 10 18  1  0
 11 10  2  0
 13 15  1  0
 13 12  1  0
 14 13  2  0
 17 16  1  6
 16 15  1  0
 18 17  1  0
 19 17  1  0
 19 20  2  0
 21 22  1  0
 22 23  1  0
 23 24  1  0
 25 24  1  1
 25 26  1  0
 25 27  1  0
 26 19  1  0
 27 28  1  0
 29 27  2  0
M  END
$$$$
