FQM.pdb
     RDKit          3D

 29 29  0  0  1  0  0  0  0  0999 V2000
    7.0801  -18.0087   19.9108 N   0  0  0  0  0  0  0  0  0  0  0  0
    7.6192  -16.7726   20.4033 C   0  0  1  0  0  0  0  0  0  0  0  0
    6.4839  -15.8669   20.8520 C   0  0  0  0  0  0  0  0  0  0  0  0
    7.0624  -14.5574   21.2313 C   0  0  0  0  0  0  0  0  0  0  0  0
    7.4760  -13.6755   20.2297 C   0  0  0  0  0  0  0  0  0  0  0  0
    8.0191  -12.4421   20.5096 C   0  0  0  0  0  0  0  0  0  0  0  0
    8.1424  -12.1017   21.8483 C   0  0  0  0  0  0  0  0  0  0  0  0
    7.7491  -12.9365   22.8759 C   0  0  0  0  0  0  0  0  0  0  0  0
    7.2095  -14.1643   22.5519 C   0  0  0  0  0  0  0  0  0  0  0  0
    8.4759  -17.0908   21.5892 C   0  0  0  0  0  0  0  0  0  0  0  0
    8.0823  -17.8816   22.4895 O   0  0  0  0  0  0  0  0  0  0  0  0
   14.2733  -15.2406   21.9812 N   0  0  0  0  0  0  0  0  0  0  0  0
   13.4645  -15.2531   20.8222 C   0  0  0  0  0  0  0  0  0  0  0  0
   13.7429  -14.5900   19.8068 O   0  0  0  0  0  0  0  0  0  0  0  0
   12.2104  -16.0983   20.7981 C   0  0  0  0  0  0  0  0  0  0  0  0
   12.0966  -16.8136   22.1057 C   0  0  0  0  0  0  0  0  0  0  0  0
   10.7241  -16.7930   22.6935 C   0  0  2  0  0  0  0  0  0  0  0  0
    9.7422  -16.4685   21.6577 N   0  0  0  0  0  0  0  0  0  0  0  0
   10.4972  -15.9015   23.8199 C   0  0  0  0  0  0  0  0  0  0  0  0
   11.3509  -14.9634   24.0256 O   0  0  0  0  0  0  0  0  0  0  0  0
    6.5578  -11.1237   25.7177 C   0  0  0  0  0  0  0  0  0  0  0  0
    6.6392  -12.7446   26.5252 S   0  0  0  0  0  0  0  0  0  0  0  0
    8.1577  -13.5809   25.9447 C   0  0  0  0  0  0  0  0  0  0  0  0
    8.2935  -14.9367   26.5712 C   0  0  0  0  0  0  0  0  0  0  0  0
    9.5762  -15.5830   26.0882 C   0  0  2  0  0  0  0  0  0  0  0  0
    9.3873  -16.0146   24.6886 N   0  0  0  0  0  0  0  0  0  0  0  0
    9.8602  -16.8002   26.8489 C   0  0  0  0  0  0  0  0  0  0  0  0
    9.8444  -18.1006   26.3429 O   0  0  0  0  0  0  0  0  0  0  0  0
   10.1511  -16.7429   28.0855 O   0  0  0  0  0  0  0  0  0  0  0  0
  2  1  1  1
  2 10  1  0
  2  3  1  0
  3  4  1  0
  4  5  2  0
  4  9  1  0
  5  6  1  0
  6  7  2  0
  8  7  1  0
  9  8  2  0
 10 18  1  0
 11 10  2  0
 13 15  1  0
 13 12  1  0
 14 13  2  0
 17 16  1  6
 16 15  1  0
 18 17  1  0
 19 17  1  0
 19 20  2  0
 21 22  1  0
 22 23  1  0
 23 24  1  0
 25 24  1  1
 25 26  1  0
 25 27  1  0
 26 19  1  0
 27 28  1  0
 29 27  2  0
M  END
$$$$
