FQM.pdb
     RDKit          3D

 29 29  0  0  1  0  0  0  0  0999 V2000
    5.7962  -16.7973   25.1074 N   0  0  0  0  0  0  0  0  0  0  0  0
    6.4619  -16.6381   23.8454 C   0  0  1  0  0  0  0  0  0  0  0  0
    6.3035  -15.2045   23.3655 C   0  0  0  0  0  0  0  0  0  0  0  0
    6.6620  -14.3026   24.4840 C   0  0  0  0  0  0  0  0  0  0  0  0
    7.0503  -14.8513   25.7088 C   0  0  0  0  0  0  0  0  0  0  0  0
    7.3995  -14.0733   26.7893 C   0  0  0  0  0  0  0  0  0  0  0  0
    7.3503  -12.6987   26.6128 C   0  0  0  0  0  0  0  0  0  0  0  0
    6.9736  -12.1062   25.4234 C   0  0  0  0  0  0  0  0  0  0  0  0
    6.6312  -12.9223   24.3649 C   0  0  0  0  0  0  0  0  0  0  0  0
    7.9177  -16.9131   24.0617 C   0  0  0  0  0  0  0  0  0  0  0  0
    8.3252  -17.5180   25.0906 O   0  0  0  0  0  0  0  0  0  0  0  0
   13.4791  -16.6437   19.4068 N   0  0  0  0  0  0  0  0  0  0  0  0
   12.3578  -17.3692   19.8693 C   0  0  0  0  0  0  0  0  0  0  0  0
   11.6028  -17.9921   19.1012 O   0  0  0  0  0  0  0  0  0  0  0  0
   12.0496  -17.4003   21.3498 C   0  0  0  0  0  0  0  0  0  0  0  0
   10.6519  -16.9108   21.5526 C   0  0  0  0  0  0  0  0  0  0  0  0
   10.1927  -16.9515   22.9727 C   0  0  2  0  0  0  0  0  0  0  0  0
    8.8148  -16.4665   23.0660 N   0  0  0  0  0  0  0  0  0  0  0  0
   10.9893  -16.2260   23.9496 C   0  0  0  0  0  0  0  0  0  0  0  0
   10.7460  -14.9750   24.1140 O   0  0  0  0  0  0  0  0  0  0  0  0
   10.0139  -13.2213   28.6785 C   0  0  0  0  0  0  0  0  0  0  0  0
   11.3094  -14.4706   28.4621 S   0  0  0  0  0  0  0  0  0  0  0  0
   10.4925  -16.0583   28.0693 C   0  0  0  0  0  0  0  0  0  0  0  0
   10.5388  -16.3324   26.5955 C   0  0  0  0  0  0  0  0  0  0  0  0
   11.9720  -16.6011   26.1831 C   0  0  2  0  0  0  0  0  0  0  0  0
   12.0066  -16.8295   24.7245 N   0  0  0  0  0  0  0  0  0  0  0  0
   12.4632  -17.8363   26.7947 C   0  0  0  0  0  0  0  0  0  0  0  0
   11.8118  -19.0703   26.7770 O   0  0  0  0  0  0  0  0  0  0  0  0
   13.5723  -17.8594   27.4161 O   0  0  0  0  0  0  0  0  0  0  0  0
  2  1  1  1
  2 10  1  0
  2  3  1  0
  3  4  1  0
  4  5  2  0
  4  9  1  0
  5  6  1  0
  6  7  2  0
  8  7  1  0
  9  8  2  0
 10 18  1  0
 11 10  2  0
 13 15  1  0
 13 12  1  0
 14 13  2  0
 17 16  1  6
 16 15  1  0
 18 17  1  0
 19 17  1  0
 19 20  2  0
 21 22  1  0
 22 23  1  0
 23 24  1  0
 25 24  1  1
 25 26  1  0
 25 27  1  0
 26 19  1  0
 27 28  1  0
 29 27  2  0
M  END
$$$$
