FQM.pdb
     RDKit          3D

 29 29  0  0  1  0  0  0  0  0999 V2000
    5.2371  -17.1495   21.2385 N   0  0  0  0  0  0  0  0  0  0  0  0
    6.5230  -16.5224   21.3574 C   0  0  1  0  0  0  0  0  0  0  0  0
    6.3436  -15.0726   21.7772 C   0  0  0  0  0  0  0  0  0  0  0  0
    7.1201  -14.2240   20.8444 C   0  0  0  0  0  0  0  0  0  0  0  0
    7.0747  -12.8344   20.9835 C   0  0  0  0  0  0  0  0  0  0  0  0
    7.7729  -11.9859   20.1546 C   0  0  0  0  0  0  0  0  0  0  0  0
    8.5372  -12.5734   19.1576 C   0  0  0  0  0  0  0  0  0  0  0  0
    8.6162  -13.9405   18.9776 C   0  0  0  0  0  0  0  0  0  0  0  0
    7.9006  -14.7556   19.8304 C   0  0  0  0  0  0  0  0  0  0  0  0
    7.2819  -17.2413   22.4292 C   0  0  0  0  0  0  0  0  0  0  0  0
    6.6883  -17.7943   23.3949 O   0  0  0  0  0  0  0  0  0  0  0  0
   10.9805  -19.9438   20.1351 N   0  0  0  0  0  0  0  0  0  0  0  0
   11.8799  -18.9607   20.6062 C   0  0  0  0  0  0  0  0  0  0  0  0
   12.8714  -18.5937   19.9500 O   0  0  0  0  0  0  0  0  0  0  0  0
   11.6435  -18.3202   21.9559 C   0  0  0  0  0  0  0  0  0  0  0  0
   10.4283  -18.9398   22.5673 C   0  0  0  0  0  0  0  0  0  0  0  0
    9.5427  -17.9701   23.2780 C   0  0  2  0  0  0  0  0  0  0  0  0
    8.6895  -17.2739   22.3139 N   0  0  0  0  0  0  0  0  0  0  0  0
   10.1884  -16.9671   24.1099 C   0  0  0  0  0  0  0  0  0  0  0  0
   10.6128  -15.8962   23.5403 O   0  0  0  0  0  0  0  0  0  0  0  0
    7.1075  -11.8577   26.2975 C   0  0  0  0  0  0  0  0  0  0  0  0
    6.9709  -13.5152   27.0187 S   0  0  0  0  0  0  0  0  0  0  0  0
    8.6580  -14.2073   27.1485 C   0  0  0  0  0  0  0  0  0  0  0  0
    8.8450  -15.3426   26.1866 C   0  0  0  0  0  0  0  0  0  0  0  0
   10.2492  -15.8933   26.3321 C   0  0  2  0  0  0  0  0  0  0  0  0
   10.3644  -17.1116   25.5055 N   0  0  0  0  0  0  0  0  0  0  0  0
   10.4979  -16.3180   27.7100 C   0  0  0  0  0  0  0  0  0  0  0  0
   11.1074  -15.5498   28.7030 O   0  0  0  0  0  0  0  0  0  0  0  0
   10.1580  -17.4775   28.1059 O   0  0  0  0  0  0  0  0  0  0  0  0
  2  1  1  1
  2 10  1  0
  2  3  1  0
  3  4  1  0
  4  5  2  0
  4  9  1  0
  5  6  1  0
  6  7  2  0
  8  7  1  0
  9  8  2  0
 10 18  1  0
 11 10  2  0
 13 15  1  0
 13 12  1  0
 14 13  2  0
 17 16  1  6
 16 15  1  0
 18 17  1  0
 19 17  1  0
 19 20  2  0
 21 22  1  0
 22 23  1  0
 23 24  1  0
 25 24  1  1
 25 26  1  0
 25 27  1  0
 26 19  1  0
 27 28  1  0
 29 27  2  0
M  END
$$$$
