FQM.pdb
     RDKit          3D

 29 29  0  0  1  0  0  0  0  0999 V2000
    6.0874  -18.9516   23.0752 N   0  0  0  0  0  0  0  0  0  0  0  0
    6.4095  -17.5752   23.3256 C   0  0  1  0  0  0  0  0  0  0  0  0
    6.2014  -17.2653   24.7990 C   0  0  0  0  0  0  0  0  0  0  0  0
    6.1670  -15.7935   24.9593 C   0  0  0  0  0  0  0  0  0  0  0  0
    6.3174  -14.9783   23.8345 C   0  0  0  0  0  0  0  0  0  0  0  0
    6.2928  -13.6042   23.9095 C   0  0  0  0  0  0  0  0  0  0  0  0
    6.1097  -13.0491   25.1671 C   0  0  0  0  0  0  0  0  0  0  0  0
    5.9562  -13.8096   26.3097 C   0  0  0  0  0  0  0  0  0  0  0  0
    5.9871  -15.1839   26.1907 C   0  0  0  0  0  0  0  0  0  0  0  0
    7.8564  -17.3795   22.9943 C   0  0  0  0  0  0  0  0  0  0  0  0
    8.7292  -18.2195   23.3455 O   0  0  0  0  0  0  0  0  0  0  0  0
    9.4769  -12.6042   19.2837 N   0  0  0  0  0  0  0  0  0  0  0  0
   10.7485  -13.2009   19.4399 C   0  0  0  0  0  0  0  0  0  0  0  0
   11.7695  -12.7500   18.8900 O   0  0  0  0  0  0  0  0  0  0  0  0
   10.8917  -14.4340   20.3042 C   0  0  0  0  0  0  0  0  0  0  0  0
    9.5528  -14.7668   20.8793 C   0  0  0  0  0  0  0  0  0  0  0  0
    9.5412  -16.0001   21.7209 C   0  0  2  0  0  0  0  0  0  0  0  0
    8.2028  -16.2154   22.2728 N   0  0  0  0  0  0  0  0  0  0  0  0
   10.4932  -16.0643   22.8186 C   0  0  0  0  0  0  0  0  0  0  0  0
   11.7094  -16.3734   22.5422 O   0  0  0  0  0  0  0  0  0  0  0  0
   11.2272  -12.2293   28.1374 C   0  0  0  0  0  0  0  0  0  0  0  0
   11.4852  -13.9026   28.7849 S   0  0  0  0  0  0  0  0  0  0  0  0
   11.9049  -14.9874   27.3744 C   0  0  0  0  0  0  0  0  0  0  0  0
   10.8726  -14.8792   26.2919 C   0  0  0  0  0  0  0  0  0  0  0  0
   11.2369  -15.8183   25.1598 C   0  0  2  0  0  0  0  0  0  0  0  0
   10.1469  -15.7990   24.1636 N   0  0  0  0  0  0  0  0  0  0  0  0
   11.3186  -17.1985   25.6388 C   0  0  0  0  0  0  0  0  0  0  0  0
   12.3367  -17.7273   26.4333 O   0  0  0  0  0  0  0  0  0  0  0  0
   10.4189  -18.0462   25.3404 O   0  0  0  0  0  0  0  0  0  0  0  0
  2  1  1  1
  2 10  1  0
  2  3  1  0
  3  4  1  0
  4  5  2  0
  4  9  1  0
  5  6  1  0
  6  7  2  0
  8  7  1  0
  9  8  2  0
 10 18  1  0
 11 10  2  0
 13 15  1  0
 13 12  1  0
 14 13  2  0
 17 16  1  1
 16 15  1  0
 18 17  1  0
 19 17  1  0
 19 20  2  0
 21 22  1  0
 22 23  1  0
 23 24  1  0
 25 24  1  1
 25 26  1  0
 25 27  1  0
 26 19  1  0
 27 28  1  0
 29 27  2  0
M  END
$$$$
