ATI.pdb
     RDKit          3D

 21 20  0  0  1  0  0  0  0  0999 V2000
   19.2442  -11.9017  -18.5836 C   0  0  0  0  0  0  0  0  0  0  0  0
   20.5081  -12.2169  -17.8541 C   0  0  2  0  0  0  0  0  0  0  0  0
   20.5637  -13.6326  -17.4976 N   0  0  0  0  0  0  0  0  0  0  0  0
   20.8087  -11.3721  -16.7104 C   0  0  0  0  0  0  0  0  0  0  0  0
   20.1018  -11.4667  -15.6725 O   0  0  0  0  0  0  0  0  0  0  0  0
   23.9248  -11.4873  -14.8910 C   0  0  0  0  0  0  0  0  0  0  0  0
   23.7782  -10.0569  -15.3421 C   0  0  1  0  0  0  0  0  0  0  0  0
   24.4821   -9.7948  -16.5067 O   0  0  0  0  0  0  0  0  0  0  0  0
   22.3173   -9.6849  -15.5721 C   0  0  2  0  0  0  0  0  0  0  0  0
   21.8696  -10.4504  -16.7319 N   0  0  0  0  0  0  0  0  0  0  0  0
   22.1531   -8.2235  -15.8164 C   0  0  0  0  0  0  0  0  0  0  0  0
   22.3923   -7.8021  -17.0023 O   0  0  0  0  0  0  0  0  0  0  0  0
   18.1671   -5.6132  -16.5337 C   0  0  0  0  0  0  0  0  0  0  0  0
   19.6033   -5.9918  -16.3948 C   0  0  0  0  0  0  0  0  0  0  0  0
   20.2757   -5.4492  -15.1540 C   0  0  2  0  0  0  0  0  0  0  0  0
   20.2588   -3.9614  -15.0914 C   0  0  0  0  0  0  0  0  0  0  0  0
   21.7065   -5.9273  -15.0527 C   0  0  2  0  0  0  0  0  0  0  0  0
   21.7509   -7.3364  -14.7904 N   0  0  0  0  0  0  0  0  0  0  0  0
   22.4094   -5.1677  -13.9698 C   0  0  0  0  0  0  0  0  0  0  0  0
   22.8030   -3.9934  -14.2408 O   0  0  0  0  0  0  0  0  0  0  0  0
   22.6510   -5.6618  -12.7118 O   0  0  0  0  0  0  0  0  0  0  0  0
  2  4  1  0
  2  3  1  0
  2  1  1  1
  4  5  2  0
  7  6  1  6
  7  9  1  0
  8  7  1  0
  9 11  1  0
  9 10  1  6
 10  4  1  0
 11 18  1  0
 11 12  2  0
 13 14  1  0
 14 15  1  0
 15 16  1  6
 17 15  1  0
 17 18  1  1
 19 17  1  0
 19 21  1  0
 20 19  2  0
M  END
$$$$
