ATI.pdb
     RDKit          3D

 21 20  0  0  1  0  0  0  0  0999 V2000
   14.6109  -10.0269  -14.3005 C   0  0  0  0  0  0  0  0  0  0  0  0
   14.4153   -8.6486  -14.8397 C   0  0  2  0  0  0  0  0  0  0  0  0
   13.3575   -8.6295  -15.8473 N   0  0  0  0  0  0  0  0  0  0  0  0
   15.6126   -7.9781  -15.3183 C   0  0  0  0  0  0  0  0  0  0  0  0
   16.1575   -8.3759  -16.3815 O   0  0  0  0  0  0  0  0  0  0  0  0
   15.9539   -4.4841  -16.3736 C   0  0  0  0  0  0  0  0  0  0  0  0
   16.8880   -4.6846  -15.2081 C   0  0  1  0  0  0  0  0  0  0  0  0
   16.3188   -4.3054  -14.0029 O   0  0  0  0  0  0  0  0  0  0  0  0
   17.3376   -6.1368  -15.0889 C   0  0  2  0  0  0  0  0  0  0  0  0
   16.1796   -6.8952  -14.6245 N   0  0  0  0  0  0  0  0  0  0  0  0
   18.4744   -6.2849  -14.1361 C   0  0  0  0  0  0  0  0  0  0  0  0
   18.1799   -6.4282  -12.8976 O   0  0  0  0  0  0  0  0  0  0  0  0
   23.0807   -9.3138  -12.6943 C   0  0  0  0  0  0  0  0  0  0  0  0
   22.8598   -7.8831  -13.0541 C   0  0  0  0  0  0  0  0  0  0  0  0
   21.7367   -7.6526  -14.0399 C   0  0  2  0  0  0  0  0  0  0  0  0
   22.2247   -7.4204  -15.4276 C   0  0  0  0  0  0  0  0  0  0  0  0
   20.8729   -6.4840  -13.6227 C   0  0  2  0  0  0  0  0  0  0  0  0
   19.8201   -6.2695  -14.5725 N   0  0  0  0  0  0  0  0  0  0  0  0
   21.7232   -5.2577  -13.4933 C   0  0  0  0  0  0  0  0  0  0  0  0
   22.5654   -5.2280  -12.5462 O   0  0  0  0  0  0  0  0  0  0  0  0
   21.6469   -4.1730  -14.3317 O   0  0  0  0  0  0  0  0  0  0  0  0
  2  4  1  0
  2  3  1  0
  2  1  1  6
  4  5  2  0
  7  6  1  6
  7  9  1  0
  8  7  1  0
  9 11  1  0
  9 10  1  1
 10  4  1  0
 11 18  1  0
 11 12  2  0
 13 14  1  0
 14 15  1  0
 15 16  1  6
 17 15  1  0
 17 18  1  6
 19 17  1  0
 19 21  1  0
 20 19  2  0
M  END
$$$$
