ATI.pdb
     RDKit          3D

 21 20  0  0  1  0  0  0  0  0999 V2000
   28.5403  -20.6520  -16.5542 C   0  0  0  0  0  0  0  0  0  0  0  0
   27.3381  -21.2449  -15.8968 C   0  0  2  0  0  0  0  0  0  0  0  0
   26.3050  -21.5531  -16.8828 N   0  0  0  0  0  0  0  0  0  0  0  0
   26.7927  -20.4961  -14.7770 C   0  0  0  0  0  0  0  0  0  0  0  0
   26.6264  -19.2530  -14.8903 O   0  0  0  0  0  0  0  0  0  0  0  0
   23.7639  -20.2263  -14.2324 C   0  0  0  0  0  0  0  0  0  0  0  0
   24.1566  -20.8555  -12.9207 C   0  0  1  0  0  0  0  0  0  0  0  0
   24.0184  -22.2344  -12.9332 O   0  0  0  0  0  0  0  0  0  0  0  0
   25.5963  -20.5225  -12.5440 C   0  0  2  0  0  0  0  0  0  0  0  0
   26.4453  -21.1238  -13.5684 N   0  0  0  0  0  0  0  0  0  0  0  0
   25.9496  -21.0528  -11.1963 C   0  0  0  0  0  0  0  0  0  0  0  0
   26.3546  -22.2667  -11.1372 O   0  0  0  0  0  0  0  0  0  0  0  0
   28.4913  -19.5924   -5.9092 C   0  0  0  0  0  0  0  0  0  0  0  0
   27.5813  -20.4679   -6.7033 C   0  0  0  0  0  0  0  0  0  0  0  0
   27.0748  -19.8448   -7.9844 C   0  0  2  0  0  0  0  0  0  0  0  0
   26.3039  -18.5921   -7.7522 C   0  0  0  0  0  0  0  0  0  0  0  0
   26.2124  -20.8136   -8.7613 C   0  0  2  0  0  0  0  0  0  0  0  0
   25.8455  -20.2572  -10.0310 N   0  0  0  0  0  0  0  0  0  0  0  0
   24.9915  -21.1461   -7.9596 C   0  0  0  0  0  0  0  0  0  0  0  0
   23.9028  -20.5902   -8.2955 O   0  0  0  0  0  0  0  0  0  0  0  0
   24.9801  -22.0098   -6.8923 O   0  0  0  0  0  0  0  0  0  0  0  0
  2  4  1  0
  2  3  1  0
  2  1  1  6
  4  5  2  0
  7  6  1  6
  7  9  1  0
  8  7  1  0
  9 11  1  0
  9 10  1  6
 10  4  1  0
 11 18  1  0
 11 12  2  0
 13 14  1  0
 14 15  1  0
 15 16  1  1
 17 15  1  0
 17 18  1  6
 19 17  1  0
 19 21  1  0
 20 19  2  0
M  END
$$$$
