ATI.pdb
     RDKit          3D

 21 20  0  0  1  0  0  0  0  0999 V2000
   20.0767  -17.5602  -16.3814 C   0  0  0  0  0  0  0  0  0  0  0  0
   21.4755  -17.4116  -16.8813 C   0  0  2  0  0  0  0  0  0  0  0  0
   21.4905  -17.1804  -18.3238 N   0  0  0  0  0  0  0  0  0  0  0  0
   22.3995  -18.4688  -16.5064 C   0  0  0  0  0  0  0  0  0  0  0  0
   21.9867  -19.6574  -16.4544 O   0  0  0  0  0  0  0  0  0  0  0  0
   25.4718  -19.2483  -18.3366 C   0  0  0  0  0  0  0  0  0  0  0  0
   25.8911  -18.9811  -16.9140 C   0  0  1  0  0  0  0  0  0  0  0  0
   26.3502  -17.6863  -16.7323 O   0  0  0  0  0  0  0  0  0  0  0  0
   24.7486  -19.2254  -15.9339 C   0  0  2  0  0  0  0  0  0  0  0  0
   23.7444  -18.1994  -16.1996 N   0  0  0  0  0  0  0  0  0  0  0  0
   25.2112  -19.1488  -14.5189 C   0  0  0  0  0  0  0  0  0  0  0  0
   24.9739  -18.0593  -13.8881 O   0  0  0  0  0  0  0  0  0  0  0  0
   25.1278  -20.8753   -9.0488 C   0  0  0  0  0  0  0  0  0  0  0  0
   26.0260  -20.3963  -10.1392 C   0  0  0  0  0  0  0  0  0  0  0  0
   25.4793  -20.5995  -11.5342 C   0  0  2  0  0  0  0  0  0  0  0  0
   25.1965  -22.0290  -11.8413 C   0  0  0  0  0  0  0  0  0  0  0  0
   26.4256  -20.0522  -12.5786 C   0  0  2  0  0  0  0  0  0  0  0  0
   25.8817  -20.2265  -13.8940 N   0  0  0  0  0  0  0  0  0  0  0  0
   27.7498  -20.7422  -12.4607 C   0  0  0  0  0  0  0  0  0  0  0  0
   27.9841  -21.6976  -13.2605 O   0  0  0  0  0  0  0  0  0  0  0  0
   28.7176  -20.4052  -11.5469 O   0  0  0  0  0  0  0  0  0  0  0  0
  2  4  1  0
  2  3  1  0
  2  1  1  6
  4  5  2  0
  7  6  1  6
  7  9  1  0
  8  7  1  0
  9 11  1  0
  9 10  1  1
 10  4  1  0
 11 18  1  0
 11 12  2  0
 13 14  1  0
 14 15  1  0
 15 16  1  6
 17 15  1  0
 17 18  1  6
 19 17  1  0
 19 21  1  0
 20 19  2  0
M  END
$$$$
