ATI.pdb
     RDKit          3D

 21 20  0  0  1  0  0  0  0  0999 V2000
   20.8746  -14.2002  -20.4966 C   0  0  0  0  0  0  0  0  0  0  0  0
   22.0357  -13.8643  -19.6204 C   0  0  2  0  0  0  0  0  0  0  0  0
   22.8881  -15.0331  -19.4158 N   0  0  0  0  0  0  0  0  0  0  0  0
   21.7135  -13.2184  -18.3591 C   0  0  0  0  0  0  0  0  0  0  0  0
   20.5620  -13.3626  -17.8701 O   0  0  0  0  0  0  0  0  0  0  0  0
   23.7477  -13.6698  -15.2094 C   0  0  0  0  0  0  0  0  0  0  0  0
   23.6653  -12.1960  -15.5123 C   0  0  1  0  0  0  0  0  0  0  0  0
   24.7847  -11.7306  -16.1837 O   0  0  0  0  0  0  0  0  0  0  0  0
   22.4334  -11.8594  -16.3457 C   0  0  2  0  0  0  0  0  0  0  0  0
   22.6549  -12.4354  -17.6690 N   0  0  0  0  0  0  0  0  0  0  0  0
   22.2219  -10.3872  -16.4463 C   0  0  0  0  0  0  0  0  0  0  0  0
   22.9470   -9.7522  -17.2902 O   0  0  0  0  0  0  0  0  0  0  0  0
   18.0475   -8.2074  -17.9677 C   0  0  0  0  0  0  0  0  0  0  0  0
   19.4781   -8.3344  -17.5646 C   0  0  0  0  0  0  0  0  0  0  0  0
   19.7738   -7.8739  -16.1552 C   0  0  2  0  0  0  0  0  0  0  0  0
   19.6346   -6.4007  -15.9876 C   0  0  0  0  0  0  0  0  0  0  0  0
   21.1629   -8.2866  -15.7240 C   0  0  2  0  0  0  0  0  0  0  0  0
   21.2653   -9.7150  -15.6496 N   0  0  0  0  0  0  0  0  0  0  0  0
   21.4770   -7.6664  -14.3972 C   0  0  0  0  0  0  0  0  0  0  0  0
   21.7215   -6.4226  -14.3769 O   0  0  0  0  0  0  0  0  0  0  0  0
   21.5154   -8.3575  -13.2114 O   0  0  0  0  0  0  0  0  0  0  0  0
  2  4  1  0
  2  3  1  0
  2  1  1  1
  4  5  2  0
  7  6  1  6
  7  9  1  0
  8  7  1  0
  9 11  1  0
  9 10  1  6
 10  4  1  0
 11 18  1  0
 11 12  2  0
 13 14  1  0
 14 15  1  0
 15 16  1  6
 17 15  1  0
 17 18  1  1
 19 17  1  0
 19 21  1  0
 20 19  2  0
M  END
$$$$
