ATI.pdb
     RDKit          3D

 21 20  0  0  1  0  0  0  0  0999 V2000
   27.9925  -15.7258  -17.6535 C   0  0  0  0  0  0  0  0  0  0  0  0
   28.2883  -16.8566  -16.7247 C   0  0  2  0  0  0  0  0  0  0  0  0
   28.7652  -18.0242  -17.4621 N   0  0  0  0  0  0  0  0  0  0  0  0
   27.2250  -17.2139  -15.8006 C   0  0  0  0  0  0  0  0  0  0  0  0
   26.4536  -16.3153  -15.3726 O   0  0  0  0  0  0  0  0  0  0  0  0
   24.3320  -19.0501  -16.4076 C   0  0  0  0  0  0  0  0  0  0  0  0
   25.0298  -19.8458  -15.3349 C   0  0  1  0  0  0  0  0  0  0  0  0
   25.7776  -20.8909  -15.8537 O   0  0  0  0  0  0  0  0  0  0  0  0
   25.9512  -18.9703  -14.4924 C   0  0  2  0  0  0  0  0  0  0  0  0
   27.0346  -18.5386  -15.3709 N   0  0  0  0  0  0  0  0  0  0  0  0
   26.4950  -19.7122  -13.3194 C   0  0  0  0  0  0  0  0  0  0  0  0
   27.7189  -20.0853  -13.3840 O   0  0  0  0  0  0  0  0  0  0  0  0
   27.4298  -19.8161   -7.5531 C   0  0  0  0  0  0  0  0  0  0  0  0
   27.1438  -20.6322   -8.7687 C   0  0  0  0  0  0  0  0  0  0  0  0
   26.4682  -19.8720   -9.8874 C   0  0  2  0  0  0  0  0  0  0  0  0
   25.1570  -19.2931   -9.4830 C   0  0  0  0  0  0  0  0  0  0  0  0
   26.2623  -20.7505  -11.1005 C   0  0  2  0  0  0  0  0  0  0  0  0
   25.7017  -19.9946  -12.1825 N   0  0  0  0  0  0  0  0  0  0  0  0
   25.3673  -21.8960  -10.7392 C   0  0  0  0  0  0  0  0  0  0  0  0
   24.1547  -21.8271  -11.1027 O   0  0  0  0  0  0  0  0  0  0  0  0
   25.7772  -23.0071  -10.0445 O   0  0  0  0  0  0  0  0  0  0  0  0
  2  4  1  0
  2  3  1  0
  2  1  1  6
  4  5  2  0
  7  6  1  6
  7  9  1  0
  8  7  1  0
  9 11  1  0
  9 10  1  6
 10  4  1  0
 11 18  1  0
 11 12  2  0
 13 14  1  0
 14 15  1  0
 15 16  1  1
 17 15  1  0
 17 18  1  6
 19 17  1  0
 19 21  1  0
 20 19  2  0
M  END
$$$$
