ATI.pdb
     RDKit          3D

 21 20  0  0  1  0  0  0  0  0999 V2000
   28.4517  -21.4470  -14.7642 C   0  0  0  0  0  0  0  0  0  0  0  0
   26.9782  -21.2107  -14.7224 C   0  0  2  0  0  0  0  0  0  0  0  0
   26.4989  -20.6871  -15.9993 N   0  0  0  0  0  0  0  0  0  0  0  0
   26.4947  -20.4115  -13.6090 C   0  0  0  0  0  0  0  0  0  0  0  0
   26.2984  -19.1788  -13.7756 O   0  0  0  0  0  0  0  0  0  0  0  0
   23.6927  -19.6709  -12.6957 C   0  0  0  0  0  0  0  0  0  0  0  0
   24.1303  -20.3376  -11.4171 C   0  0  1  0  0  0  0  0  0  0  0  0
   23.7540  -21.6701  -11.3597 O   0  0  0  0  0  0  0  0  0  0  0  0
   25.6415  -20.2588  -11.2284 C   0  0  2  0  0  0  0  0  0  0  0  0
   26.2399  -20.9790  -12.3486 N   0  0  0  0  0  0  0  0  0  0  0  0
   26.0669  -20.8620   -9.9333 C   0  0  0  0  0  0  0  0  0  0  0  0
   26.3152  -22.1188   -9.9312 O   0  0  0  0  0  0  0  0  0  0  0  0
   28.9325  -19.5803   -4.6683 C   0  0  0  0  0  0  0  0  0  0  0  0
   28.0279  -20.4353   -5.4905 C   0  0  0  0  0  0  0  0  0  0  0  0
   27.5723  -19.7997   -6.7845 C   0  0  2  0  0  0  0  0  0  0  0  0
   26.9015  -18.4863   -6.5783 C   0  0  0  0  0  0  0  0  0  0  0  0
   26.6372  -20.7132   -7.5440 C   0  0  2  0  0  0  0  0  0  0  0  0
   26.1936  -20.0878   -8.7559 N   0  0  0  0  0  0  0  0  0  0  0  0
   25.4691  -21.0640   -6.6745 C   0  0  0  0  0  0  0  0  0  0  0  0
   24.3581  -20.5131   -6.9383 O   0  0  0  0  0  0  0  0  0  0  0  0
   25.5279  -21.9392   -5.6182 O   0  0  0  0  0  0  0  0  0  0  0  0
  2  4  1  0
  2  3  1  0
  2  1  1  6
  4  5  2  0
  7  6  1  6
  7  9  1  0
  8  7  1  0
  9 11  1  0
  9 10  1  6
 10  4  1  0
 11 18  1  0
 11 12  2  0
 13 14  1  0
 14 15  1  0
 15 16  1  1
 17 15  1  0
 17 18  1  6
 19 17  1  0
 19 21  1  0
 20 19  2  0
M  END
$$$$
