ATI.pdb
     RDKit          3D

 21 20  0  0  1  0  0  0  0  0999 V2000
   18.1428  -11.3390  -17.9079 C   0  0  0  0  0  0  0  0  0  0  0  0
   19.4873  -11.8004  -17.4515 C   0  0  2  0  0  0  0  0  0  0  0  0
   19.4766  -13.2336  -17.1679 N   0  0  0  0  0  0  0  0  0  0  0  0
   20.0782  -11.0498  -16.3563 C   0  0  0  0  0  0  0  0  0  0  0  0
   19.6017  -11.1739  -15.1973 O   0  0  0  0  0  0  0  0  0  0  0  0
   23.4793  -11.3356  -15.1528 C   0  0  0  0  0  0  0  0  0  0  0  0
   23.3116   -9.8867  -15.5314 C   0  0  1  0  0  0  0  0  0  0  0  0
   23.8096   -9.6091  -16.7945 O   0  0  0  0  0  0  0  0  0  0  0  0
   21.8486   -9.4584  -15.4893 C   0  0  2  0  0  0  0  0  0  0  0  0
   21.1697  -10.1873  -16.5568 N   0  0  0  0  0  0  0  0  0  0  0  0
   21.6994   -7.9881  -15.6846 C   0  0  0  0  0  0  0  0  0  0  0  0
   21.3000   -7.5923  -16.8357 O   0  0  0  0  0  0  0  0  0  0  0  0
   18.5183   -3.6237  -15.4287 C   0  0  0  0  0  0  0  0  0  0  0  0
   19.9572   -3.9470  -15.2048 C   0  0  0  0  0  0  0  0  0  0  0  0
   20.2538   -5.4242  -15.0788 C   0  0  2  0  0  0  0  0  0  0  0  0
   19.4878   -6.0757  -13.9804 C   0  0  0  0  0  0  0  0  0  0  0  0
   21.7294   -5.6700  -14.8594 C   0  0  2  0  0  0  0  0  0  0  0  0
   21.9835   -7.0657  -14.6502 N   0  0  0  0  0  0  0  0  0  0  0  0
   22.1982   -4.8676  -13.6846 C   0  0  0  0  0  0  0  0  0  0  0  0
   22.2161   -5.4420  -12.5545 O   0  0  0  0  0  0  0  0  0  0  0  0
   22.6068   -3.5588  -13.7569 O   0  0  0  0  0  0  0  0  0  0  0  0
  2  4  1  0
  2  3  1  0
  2  1  1  1
  4  5  2  0
  7  6  1  6
  7  9  1  0
  8  7  1  0
  9 11  1  0
  9 10  1  6
 10  4  1  0
 11 18  1  0
 11 12  2  0
 13 14  1  0
 14 15  1  0
 15 16  1  1
 17 15  1  0
 17 18  1  1
 19 17  1  0
 19 21  1  0
 20 19  2  0
M  END
$$$$
