ATI.pdb
     RDKit          3D

 21 20  0  0  1  0  0  0  0  0999 V2000
   14.8538  -12.3889  -14.2727 C   0  0  0  0  0  0  0  0  0  0  0  0
   15.1319  -12.6808  -15.7102 C   0  0  2  0  0  0  0  0  0  0  0  0
   15.0921  -14.1186  -15.9661 N   0  0  0  0  0  0  0  0  0  0  0  0
   16.3363  -12.0801  -16.2586 C   0  0  0  0  0  0  0  0  0  0  0  0
   17.1129  -12.7844  -16.9561 O   0  0  0  0  0  0  0  0  0  0  0  0
   16.4239   -9.1272  -18.5058 C   0  0  0  0  0  0  0  0  0  0  0  0
   17.2614   -8.7926  -17.2986 C   0  0  1  0  0  0  0  0  0  0  0  0
   16.5598   -8.0596  -16.3547 O   0  0  0  0  0  0  0  0  0  0  0  0
   17.8040  -10.0474  -16.6231 C   0  0  2  0  0  0  0  0  0  0  0  0
   16.6579  -10.7309  -16.0306 N   0  0  0  0  0  0  0  0  0  0  0  0
   18.8128   -9.7171  -15.5765 C   0  0  0  0  0  0  0  0  0  0  0  0
   18.3832   -9.5825  -14.3771 O   0  0  0  0  0  0  0  0  0  0  0  0
   23.3472  -12.3288  -15.3337 C   0  0  0  0  0  0  0  0  0  0  0  0
   22.1304  -11.4974  -15.1029 C   0  0  0  0  0  0  0  0  0  0  0  0
   22.3967  -10.0120  -15.0091 C   0  0  2  0  0  0  0  0  0  0  0  0
   23.3221   -9.6601  -13.8967 C   0  0  0  0  0  0  0  0  0  0  0  0
   21.1110   -9.2344  -14.8410 C   0  0  2  0  0  0  0  0  0  0  0  0
   20.1842   -9.5586  -15.8861 N   0  0  0  0  0  0  0  0  0  0  0  0
   21.4130   -7.7673  -14.8415 C   0  0  0  0  0  0  0  0  0  0  0  0
   21.2825   -7.1443  -15.9379 O   0  0  0  0  0  0  0  0  0  0  0  0
   21.8188   -7.0620  -13.7355 O   0  0  0  0  0  0  0  0  0  0  0  0
  2  4  1  0
  2  3  1  0
  2  1  1  1
  4  5  2  0
  7  6  1  6
  7  9  1  0
  8  7  1  0
  9 11  1  0
  9 10  1  1
 10  4  1  0
 11 18  1  0
 11 12  2  0
 13 14  1  0
 14 15  1  0
 15 16  1  1
 17 15  1  0
 17 18  1  6
 19 17  1  0
 19 21  1  0
 20 19  2  0
M  END
$$$$
