ATI.pdb
     RDKit          3D

 21 20  0  0  1  0  0  0  0  0999 V2000
   29.5348  -22.2194  -18.3436 C   0  0  0  0  0  0  0  0  0  0  0  0
   28.6031  -22.6263  -17.2504 C   0  0  2  0  0  0  0  0  0  0  0  0
   27.6072  -23.5755  -17.7421 N   0  0  0  0  0  0  0  0  0  0  0  0
   27.9790  -21.5416  -16.5114 C   0  0  0  0  0  0  0  0  0  0  0  0
   28.7067  -20.6967  -15.9263 O   0  0  0  0  0  0  0  0  0  0  0  0
   25.7466  -18.8138  -17.6134 C   0  0  0  0  0  0  0  0  0  0  0  0
   24.9718  -19.6498  -16.6276 C   0  0  1  0  0  0  0  0  0  0  0  0
   24.1647  -20.5889  -17.2499 O   0  0  0  0  0  0  0  0  0  0  0  0
   25.8954  -20.3799  -15.6585 C   0  0  2  0  0  0  0  0  0  0  0  0
   26.5818  -21.4101  -16.4325 N   0  0  0  0  0  0  0  0  0  0  0  0
   25.1370  -20.9929  -14.5310 C   0  0  0  0  0  0  0  0  0  0  0  0
   24.7845  -22.2172  -14.6653 O   0  0  0  0  0  0  0  0  0  0  0  0
   24.8817  -21.1441   -8.4952 C   0  0  0  0  0  0  0  0  0  0  0  0
   24.1939  -21.3199   -9.8072 C   0  0  0  0  0  0  0  0  0  0  0  0
   24.8953  -20.6623  -10.9740 C   0  0  2  0  0  0  0  0  0  0  0  0
   25.0531  -19.1919  -10.7990 C   0  0  0  0  0  0  0  0  0  0  0  0
   24.1649  -20.9254  -12.2713 C   0  0  2  0  0  0  0  0  0  0  0  0
   24.8179  -20.2623  -13.3623 N   0  0  0  0  0  0  0  0  0  0  0  0
   22.7461  -20.4615  -12.1465 C   0  0  0  0  0  0  0  0  0  0  0  0
   22.4478  -19.3463  -12.6706 O   0  0  0  0  0  0  0  0  0  0  0  0
   21.7571  -21.1652  -11.5047 O   0  0  0  0  0  0  0  0  0  0  0  0
  2  4  1  0
  2  3  1  0
  2  1  1  6
  4  5  2  0
  7  6  1  6
  7  9  1  0
  8  7  1  0
  9 11  1  0
  9 10  1  6
 10  4  1  0
 11 18  1  0
 11 12  2  0
 13 14  1  0
 14 15  1  0
 15 16  1  1
 17 15  1  0
 17 18  1  6
 19 17  1  0
 19 21  1  0
 20 19  2  0
M  END
$$$$
