ATI.pdb
     RDKit          3D

 21 20  0  0  1  0  0  0  0  0999 V2000
   14.2111  -13.0328  -17.2642 C   0  0  0  0  0  0  0  0  0  0  0  0
   15.3054  -12.6674  -16.3167 C   0  0  2  0  0  0  0  0  0  0  0  0
   14.7824  -12.4795  -14.9656 N   0  0  0  0  0  0  0  0  0  0  0  0
   16.1460  -11.5516  -16.7174 C   0  0  0  0  0  0  0  0  0  0  0  0
   16.7139  -11.5811  -17.8409 O   0  0  0  0  0  0  0  0  0  0  0  0
   15.2805   -8.0106  -17.2341 C   0  0  0  0  0  0  0  0  0  0  0  0
   16.2979   -8.0571  -16.1235 C   0  0  1  0  0  0  0  0  0  0  0  0
   15.7114   -8.0408  -14.8680 O   0  0  0  0  0  0  0  0  0  0  0  0
   17.1839   -9.2943  -16.2216 C   0  0  2  0  0  0  0  0  0  0  0  0
   16.3422  -10.4381  -15.8824 N   0  0  0  0  0  0  0  0  0  0  0  0
   18.3496   -9.2116  -15.2960 C   0  0  0  0  0  0  0  0  0  0  0  0
   18.1426   -9.5253  -14.0713 O   0  0  0  0  0  0  0  0  0  0  0  0
   23.1508  -10.8869  -13.5651 C   0  0  0  0  0  0  0  0  0  0  0  0
   23.0204   -9.6127  -14.3298 C   0  0  0  0  0  0  0  0  0  0  0  0
   21.8820   -9.5944  -15.3247 C   0  0  2  0  0  0  0  0  0  0  0  0
   22.2905   -9.0783  -16.6606 C   0  0  0  0  0  0  0  0  0  0  0  0
   20.7221   -8.7696  -14.8149 C   0  0  2  0  0  0  0  0  0  0  0  0
   19.6294   -8.8066  -15.7428 N   0  0  0  0  0  0  0  0  0  0  0  0
   21.1748   -7.3595  -14.5905 C   0  0  0  0  0  0  0  0  0  0  0  0
   21.8610   -7.1246  -13.5508 O   0  0  0  0  0  0  0  0  0  0  0  0
   20.8943   -6.3146  -15.4359 O   0  0  0  0  0  0  0  0  0  0  0  0
  2  4  1  0
  2  3  1  0
  2  1  1  6
  4  5  2  0
  7  6  1  6
  7  9  1  0
  8  7  1  0
  9 11  1  0
  9 10  1  1
 10  4  1  0
 11 18  1  0
 11 12  2  0
 13 14  1  0
 14 15  1  0
 15 16  1  6
 17 15  1  0
 17 18  1  6
 19 17  1  0
 19 21  1  0
 20 19  2  0
M  END
$$$$
