SVL.pdb
     RDKit          3D

 22 21  0  0  1  0  0  0  0  0999 V2000
   27.4826  -26.2027  -17.7456 O   0  0  0  0  0  0  0  0  0  0  0  0
   27.5999  -25.2139  -16.7730 C   0  0  0  0  0  0  0  0  0  0  0  0
   28.5566  -24.1708  -17.3187 C   0  0  2  0  0  0  0  0  0  0  0  0
   29.9103  -24.6745  -17.2017 N   0  0  0  0  0  0  0  0  0  0  0  0
   28.4585  -22.9695  -16.4522 C   0  0  0  0  0  0  0  0  0  0  0  0
   29.5010  -22.2638  -16.2636 O   0  0  0  0  0  0  0  0  0  0  0  0
   28.2420  -20.3414  -17.5699 C   0  0  0  0  0  0  0  0  0  0  0  0
   26.8937  -20.3794  -16.8673 C   0  0  2  0  0  0  0  0  0  0  0  0
   26.4419  -18.9554  -16.7340 C   0  0  0  0  0  0  0  0  0  0  0  0
   27.0073  -21.1190  -15.5464 C   0  0  2  0  0  0  0  0  0  0  0  0
   27.2819  -22.5348  -15.8063 N   0  0  0  0  0  0  0  0  0  0  0  0
   25.7752  -21.0771  -14.7390 C   0  0  0  0  0  0  0  0  0  0  0  0
   24.7059  -21.6147  -15.1943 O   0  0  0  0  0  0  0  0  0  0  0  0
   25.7879  -22.3294  -10.2757 C   0  0  0  0  0  0  0  0  0  0  0  0
   25.8072  -20.8560  -10.4697 C   0  0  2  0  0  0  0  0  0  0  0  0
   26.0165  -20.1645   -9.1175 C   0  0  0  0  0  0  0  0  0  0  0  0
   24.6966  -20.2576  -11.2396 C   0  0  0  0  0  0  0  0  0  0  0  0
   24.4609  -20.7385  -12.6183 C   0  0  2  0  0  0  0  0  0  0  0  0
   25.6390  -20.4832  -13.4575 N   0  0  0  0  0  0  0  0  0  0  0  0
   23.3323  -19.9088  -13.1802 C   0  0  0  0  0  0  0  0  0  0  0  0
   23.5444  -18.8902  -13.8729 O   0  0  0  0  0  0  0  0  0  0  0  0
   22.0089  -20.2530  -12.9440 O   0  0  0  0  0  0  0  0  0  0  0  0
  2  1  1  0
  3  2  1  0
  3  4  1  1
  5  3  1  0
  5  6  2  0
  8  7  1  1
  8 10  1  0
  9  8  1  0
 10 11  1  6
 10 12  1  0
 11  5  1  0
 12 19  1  0
 13 12  2  0
 15 14  1  1
 16 15  1  0
 17 15  1  0
 18 17  1  1
 19 18  1  0
 20 22  1  0
 20 18  1  0
 21 20  2  0
M  END
$$$$
