SVL.pdb
     RDKit          3D

 22 21  0  0  1  0  0  0  0  0999 V2000
   28.5711  -18.1740  -14.9636 O   0  0  0  0  0  0  0  0  0  0  0  0
   28.6450  -19.4952  -14.5321 C   0  0  0  0  0  0  0  0  0  0  0  0
   27.2241  -20.0251  -14.4908 C   0  0  2  0  0  0  0  0  0  0  0  0
   26.4429  -19.3408  -15.5014 N   0  0  0  0  0  0  0  0  0  0  0  0
   26.6459  -19.6669  -13.1714 C   0  0  0  0  0  0  0  0  0  0  0  0
   26.1713  -18.4970  -13.0081 O   0  0  0  0  0  0  0  0  0  0  0  0
   23.6300  -20.5094  -12.2276 C   0  0  0  0  0  0  0  0  0  0  0  0
   24.4236  -21.0201  -11.0349 C   0  0  2  0  0  0  0  0  0  0  0  0
   23.5208  -20.9084   -9.8424 C   0  0  0  0  0  0  0  0  0  0  0  0
   25.7260  -20.2521  -10.8993 C   0  0  2  0  0  0  0  0  0  0  0  0
   26.5765  -20.5324  -12.0594 N   0  0  0  0  0  0  0  0  0  0  0  0
   26.5109  -20.6270   -9.7097 C   0  0  0  0  0  0  0  0  0  0  0  0
   27.0891  -21.7688   -9.6715 O   0  0  0  0  0  0  0  0  0  0  0  0
   28.8288  -20.8605   -4.9193 C   0  0  0  0  0  0  0  0  0  0  0  0
   28.9670  -19.5087   -5.5212 C   0  0  2  0  0  0  0  0  0  0  0  0
   28.8410  -18.4448   -4.4245 C   0  0  0  0  0  0  0  0  0  0  0  0
   28.1298  -19.2011   -6.6996 C   0  0  0  0  0  0  0  0  0  0  0  0
   27.4676  -20.3227   -7.4006 C   0  0  2  0  0  0  0  0  0  0  0  0
   26.7060  -19.8265   -8.5544 N   0  0  0  0  0  0  0  0  0  0  0  0
   26.4685  -20.9095   -6.4335 C   0  0  0  0  0  0  0  0  0  0  0  0
   25.3949  -20.3300   -6.1621 O   0  0  0  0  0  0  0  0  0  0  0  0
   26.7116  -22.1241   -5.8077 O   0  0  0  0  0  0  0  0  0  0  0  0
  2  1  1  0
  3  2  1  0
  3  4  1  6
  5  3  1  0
  5  6  2  0
  8  7  1  6
  8 10  1  0
  9  8  1  0
 10 11  1  6
 10 12  1  0
 11  5  1  0
 12 19  1  0
 13 12  2  0
 15 14  1  1
 16 15  1  0
 17 15  1  0
 18 17  1  1
 19 18  1  0
 20 22  1  0
 20 18  1  0
 21 20  2  0
M  END
$$$$
