SVL.pdb
     RDKit          3D

 22 21  0  0  1  0  0  0  0  0999 V2000
   22.5956  -11.6955  -21.1237 O   0  0  0  0  0  0  0  0  0  0  0  0
   22.1127  -10.9724  -20.0368 C   0  0  0  0  0  0  0  0  0  0  0  0
   22.2462  -11.8665  -18.8187 C   0  0  2  0  0  0  0  0  0  0  0  0
   21.4453  -13.0565  -19.0251 N   0  0  0  0  0  0  0  0  0  0  0  0
   21.6662  -11.1422  -17.6601 C   0  0  0  0  0  0  0  0  0  0  0  0
   20.4006  -11.1162  -17.5253 O   0  0  0  0  0  0  0  0  0  0  0  0
   23.6552  -10.5116  -14.1099 C   0  0  0  0  0  0  0  0  0  0  0  0
   22.1446  -10.4149  -14.2566 C   0  0  2  0  0  0  0  0  0  0  0  0
   21.6123  -11.8103  -14.1187 C   0  0  0  0  0  0  0  0  0  0  0  0
   21.7834   -9.7415  -15.5683 C   0  0  2  0  0  0  0  0  0  0  0  0
   22.4155  -10.4657  -16.6745 N   0  0  0  0  0  0  0  0  0  0  0  0
   22.2516   -8.3475  -15.6644 C   0  0  0  0  0  0  0  0  0  0  0  0
   23.4755   -8.1136  -15.9596 O   0  0  0  0  0  0  0  0  0  0  0  0
   20.8421   -2.8592  -17.7725 C   0  0  0  0  0  0  0  0  0  0  0  0
   21.6935   -3.6666  -16.8603 C   0  0  2  0  0  0  0  0  0  0  0  0
   23.1575   -3.5659  -17.3040 C   0  0  0  0  0  0  0  0  0  0  0  0
   21.2801   -5.0619  -16.6030 C   0  0  0  0  0  0  0  0  0  0  0  0
   22.0309   -5.8403  -15.5939 C   0  0  2  0  0  0  0  0  0  0  0  0
   21.4609   -7.1873  -15.4590 N   0  0  0  0  0  0  0  0  0  0  0  0
   21.8299   -5.1431  -14.2706 C   0  0  0  0  0  0  0  0  0  0  0  0
   22.5205   -4.1574  -13.9331 O   0  0  0  0  0  0  0  0  0  0  0  0
   20.8621   -5.5778  -13.3760 O   0  0  0  0  0  0  0  0  0  0  0  0
  2  1  1  0
  3  2  1  0
  3  4  1  6
  5  3  1  0
  5  6  2  0
  8  7  1  6
  8 10  1  0
  9  8  1  0
 10 11  1  6
 10 12  1  0
 11  5  1  0
 12 19  1  0
 13 12  2  0
 15 14  1  6
 16 15  1  0
 17 15  1  0
 18 17  1  6
 19 18  1  0
 20 22  1  0
 20 18  1  0
 21 20  2  0
M  END
$$$$
