SVL.pdb
     RDKit          3D

 22 21  0  0  1  0  0  0  0  0999 V2000
   17.0549  -11.6328  -17.0605 O   0  0  0  0  0  0  0  0  0  0  0  0
   16.9264  -12.8455  -16.3896 C   0  0  0  0  0  0  0  0  0  0  0  0
   18.2771  -13.5324  -16.4588 C   0  0  2  0  0  0  0  0  0  0  0  0
   18.1870  -14.8062  -15.7738 N   0  0  0  0  0  0  0  0  0  0  0  0
   19.2482  -12.6977  -15.7079 C   0  0  0  0  0  0  0  0  0  0  0  0
   19.0716  -12.5269  -14.4589 O   0  0  0  0  0  0  0  0  0  0  0  0
   22.8259  -13.1062  -14.8892 C   0  0  0  0  0  0  0  0  0  0  0  0
   22.6995  -11.7762  -15.6158 C   0  0  2  0  0  0  0  0  0  0  0  0
   23.7557  -10.8766  -15.0458 C   0  0  0  0  0  0  0  0  0  0  0  0
   21.2876  -11.2343  -15.4836 C   0  0  2  0  0  0  0  0  0  0  0  0
   20.3745  -12.0641  -16.2742 N   0  0  0  0  0  0  0  0  0  0  0  0
   21.1350   -9.8568  -15.9847 C   0  0  0  0  0  0  0  0  0  0  0  0
   21.1009   -9.6468  -17.2474 O   0  0  0  0  0  0  0  0  0  0  0  0
   17.5940   -5.4379  -16.6302 C   0  0  0  0  0  0  0  0  0  0  0  0
   19.0240   -5.8356  -16.7073 C   0  0  2  0  0  0  0  0  0  0  0  0
   19.5112   -5.7155  -18.1560 C   0  0  0  0  0  0  0  0  0  0  0  0
   19.4046   -7.1246  -16.0928 C   0  0  0  0  0  0  0  0  0  0  0  0
   20.8336   -7.3643  -15.7955 C   0  0  2  0  0  0  0  0  0  0  0  0
   21.0143   -8.6891  -15.1876 N   0  0  0  0  0  0  0  0  0  0  0  0
   21.2378   -6.3454  -14.7581 C   0  0  0  0  0  0  0  0  0  0  0  0
   21.1491   -6.5803  -13.5337 O   0  0  0  0  0  0  0  0  0  0  0  0
   21.7261   -5.1018  -15.1334 O   0  0  0  0  0  0  0  0  0  0  0  0
  2  1  1  0
  3  2  1  0
  3  4  1  1
  5  3  1  0
  5  6  2  0
  8  7  1  1
  8 10  1  0
  9  8  1  0
 10 11  1  6
 10 12  1  0
 11  5  1  0
 12 19  1  0
 13 12  2  0
 15 14  1  6
 16 15  1  0
 17 15  1  0
 18 17  1  1
 19 18  1  0
 20 22  1  0
 20 18  1  0
 21 20  2  0
M  END
$$$$
