SVL.pdb
     RDKit          3D

 22 21  0  0  1  0  0  0  0  0999 V2000
   28.0315  -19.5549  -17.0594 O   0  0  0  0  0  0  0  0  0  0  0  0
   27.0283  -20.1619  -16.3095 C   0  0  0  0  0  0  0  0  0  0  0  0
   27.7155  -21.0745  -15.3115 C   0  0  2  0  0  0  0  0  0  0  0  0
   28.1064  -22.2944  -15.9889 N   0  0  0  0  0  0  0  0  0  0  0  0
   26.7180  -21.4467  -14.2772 C   0  0  0  0  0  0  0  0  0  0  0  0
   26.0017  -22.4827  -14.4621 O   0  0  0  0  0  0  0  0  0  0  0  0
   27.1534  -21.3186  -10.2760 C   0  0  0  0  0  0  0  0  0  0  0  0
   25.8694  -20.6417  -10.7301 C   0  0  2  0  0  0  0  0  0  0  0  0
   24.8469  -20.9091   -9.6659 C   0  0  0  0  0  0  0  0  0  0  0  0
   25.4712  -21.1357  -12.1092 C   0  0  2  0  0  0  0  0  0  0  0  0
   26.4920  -20.7337  -13.0809 N   0  0  0  0  0  0  0  0  0  0  0  0
   24.1964  -20.5752  -12.5913 C   0  0  0  0  0  0  0  0  0  0  0  0
   24.1719  -19.3872  -13.0685 O   0  0  0  0  0  0  0  0  0  0  0  0
   20.4523  -21.3564  -16.8383 C   0  0  0  0  0  0  0  0  0  0  0  0
   20.6545  -20.6331  -15.5558 C   0  0  2  0  0  0  0  0  0  0  0  0
   20.6613  -19.1222  -15.8160 C   0  0  0  0  0  0  0  0  0  0  0  0
   21.7851  -21.0608  -14.7057 C   0  0  0  0  0  0  0  0  0  0  0  0
   21.7762  -20.6701  -13.2791 C   0  0  2  0  0  0  0  0  0  0  0  0
   22.9410  -21.2365  -12.5864 N   0  0  0  0  0  0  0  0  0  0  0  0
   20.5499  -21.2994  -12.6645 C   0  0  0  0  0  0  0  0  0  0  0  0
   19.4433  -20.7183  -12.6585 O   0  0  0  0  0  0  0  0  0  0  0  0
   20.6112  -22.5565  -12.0800 O   0  0  0  0  0  0  0  0  0  0  0  0
  2  1  1  0
  3  2  1  0
  3  4  1  6
  5  3  1  0
  5  6  2  0
  8  7  1  1
  8 10  1  0
  9  8  1  0
 10 11  1  6
 10 12  1  0
 11  5  1  0
 12 19  1  0
 13 12  2  0
 15 14  1  6
 16 15  1  0
 17 15  1  0
 18 17  1  6
 19 18  1  0
 20 22  1  0
 20 18  1  0
 21 20  2  0
M  END
$$$$
