SVL.pdb
     RDKit          3D

 22 21  0  0  1  0  0  0  0  0999 V2000
   18.2235  -14.9088  -15.7345 O   0  0  0  0  0  0  0  0  0  0  0  0
   18.3854  -13.6362  -16.2745 C   0  0  0  0  0  0  0  0  0  0  0  0
   17.0281  -12.9606  -16.2245 C   0  0  2  0  0  0  0  0  0  0  0  0
   16.2252  -13.4474  -17.3283 N   0  0  0  0  0  0  0  0  0  0  0  0
   17.2378  -11.5072  -16.4414 C   0  0  0  0  0  0  0  0  0  0  0  0
   17.5446  -11.1002  -17.6078 O   0  0  0  0  0  0  0  0  0  0  0  0
   15.2002   -8.4330  -16.6112 C   0  0  0  0  0  0  0  0  0  0  0  0
   16.1743   -8.2768  -15.4538 C   0  0  2  0  0  0  0  0  0  0  0  0
   16.4353   -6.8068  -15.3112 C   0  0  0  0  0  0  0  0  0  0  0  0
   17.4221   -9.1062  -15.6983 C   0  0  2  0  0  0  0  0  0  0  0  0
   17.1232  -10.5178  -15.4421 N   0  0  0  0  0  0  0  0  0  0  0  0
   18.5473   -8.7537  -14.8143 C   0  0  0  0  0  0  0  0  0  0  0  0
   18.5461   -9.1624  -13.6008 O   0  0  0  0  0  0  0  0  0  0  0  0
   22.9203  -10.7359  -15.1313 C   0  0  0  0  0  0  0  0  0  0  0  0
   22.1097   -9.5012  -15.2968 C   0  0  2  0  0  0  0  0  0  0  0  0
   22.8146   -8.5536  -16.2746 C   0  0  0  0  0  0  0  0  0  0  0  0
   21.6657   -8.8104  -14.0681 C   0  0  0  0  0  0  0  0  0  0  0  0
   20.7356   -7.6684  -14.2036 C   0  0  2  0  0  0  0  0  0  0  0  0
   19.6806   -7.9805  -15.1767 N   0  0  0  0  0  0  0  0  0  0  0  0
   21.5354   -6.5227  -14.7741 C   0  0  0  0  0  0  0  0  0  0  0  0
   22.4569   -5.9767  -14.1299 O   0  0  0  0  0  0  0  0  0  0  0  0
   21.2712   -6.0329  -16.0454 O   0  0  0  0  0  0  0  0  0  0  0  0
  2  1  1  0
  3  2  1  0
  3  4  1  6
  5  3  1  0
  5  6  2  0
  8  7  1  6
  8 10  1  0
  9  8  1  0
 10 11  1  1
 10 12  1  0
 11  5  1  0
 12 19  1  0
 13 12  2  0
 15 14  1  1
 16 15  1  0
 17 15  1  0
 18 17  1  6
 19 18  1  0
 20 22  1  0
 20 18  1  0
 21 20  2  0
M  END
$$$$
