SVL.pdb
     RDKit          3D

 22 21  0  0  1  0  0  0  0  0999 V2000
   26.7939  -25.8674  -17.4537 O   0  0  0  0  0  0  0  0  0  0  0  0
   27.2726  -25.0031  -16.4732 C   0  0  0  0  0  0  0  0  0  0  0  0
   27.6900  -23.7261  -17.1775 C   0  0  2  0  0  0  0  0  0  0  0  0
   28.9753  -23.9429  -17.8108 N   0  0  0  0  0  0  0  0  0  0  0  0
   27.8815  -22.6801  -16.1419 C   0  0  0  0  0  0  0  0  0  0  0  0
   29.0621  -22.4262  -15.7389 O   0  0  0  0  0  0  0  0  0  0  0  0
   25.1961  -19.6646  -15.7339 C   0  0  0  0  0  0  0  0  0  0  0  0
   26.6272  -19.5240  -15.2389 C   0  0  2  0  0  0  0  0  0  0  0  0
   27.4422  -19.0704  -16.4135 C   0  0  0  0  0  0  0  0  0  0  0  0
   27.1029  -20.8269  -14.6217 C   0  0  2  0  0  0  0  0  0  0  0  0
   26.8430  -21.9275  -15.5539 N   0  0  0  0  0  0  0  0  0  0  0  0
   26.4102  -21.1733  -13.3680 C   0  0  0  0  0  0  0  0  0  0  0  0
   25.3380  -21.8717  -13.4137 O   0  0  0  0  0  0  0  0  0  0  0  0
   26.1043  -19.2256   -7.4495 C   0  0  0  0  0  0  0  0  0  0  0  0
   25.6229  -20.1243   -8.5309 C   0  0  2  0  0  0  0  0  0  0  0  0
   25.2196  -21.4764   -7.9310 C   0  0  0  0  0  0  0  0  0  0  0  0
   26.4833  -20.2741   -9.7231 C   0  0  0  0  0  0  0  0  0  0  0  0
   25.9281  -20.9682  -10.9053 C   0  0  2  0  0  0  0  0  0  0  0  0
   26.8200  -20.8040  -12.0606 N   0  0  0  0  0  0  0  0  0  0  0  0
   24.6326  -20.2738  -11.2474 C   0  0  0  0  0  0  0  0  0  0  0  0
   24.6113  -19.1596  -11.8136 O   0  0  0  0  0  0  0  0  0  0  0  0
   23.4102  -20.8552  -10.9416 O   0  0  0  0  0  0  0  0  0  0  0  0
  2  1  1  0
  3  2  1  0
  3  4  1  1
  5  3  1  0
  5  6  2  0
  8  7  1  6
  8 10  1  0
  9  8  1  0
 10 11  1  6
 10 12  1  0
 11  5  1  0
 12 19  1  0
 13 12  2  0
 15 14  1  1
 16 15  1  0
 17 15  1  0
 18 17  1  1
 19 18  1  0
 20 22  1  0
 20 18  1  0
 21 20  2  0
M  END
$$$$
