SVL.pdb
     RDKit          3D

 22 21  0  0  1  0  0  0  0  0999 V2000
   21.2640  -20.9020  -11.3169 O   0  0  0  0  0  0  0  0  0  0  0  0
   22.0245  -19.8701  -11.8593 C   0  0  0  0  0  0  0  0  0  0  0  0
   23.0193  -20.5089  -12.8098 C   0  0  2  0  0  0  0  0  0  0  0  0
   22.3696  -21.6097  -13.4925 N   0  0  0  0  0  0  0  0  0  0  0  0
   24.1182  -21.0847  -11.9948 C   0  0  0  0  0  0  0  0  0  0  0  0
   24.0812  -22.3237  -11.7049 O   0  0  0  0  0  0  0  0  0  0  0  0
   27.6499  -21.4563  -12.8373 C   0  0  0  0  0  0  0  0  0  0  0  0
   27.6287  -20.7322  -11.5000 C   0  0  2  0  0  0  0  0  0  0  0  0
   28.8472  -21.1838  -10.7510 C   0  0  0  0  0  0  0  0  0  0  0  0
   26.3220  -21.0000  -10.7752 C   0  0  2  0  0  0  0  0  0  0  0  0
   25.2240  -20.3588  -11.5038 N   0  0  0  0  0  0  0  0  0  0  0  0
   26.2846  -20.4559   -9.4061 C   0  0  0  0  0  0  0  0  0  0  0  0
   25.7353  -19.3184   -9.1959 O   0  0  0  0  0  0  0  0  0  0  0  0
   28.4117  -19.3512   -4.5454 C   0  0  0  0  0  0  0  0  0  0  0  0
   27.7240  -20.6680   -4.5890 C   0  0  2  0  0  0  0  0  0  0  0  0
   28.4407  -21.6507   -3.6556 C   0  0  0  0  0  0  0  0  0  0  0  0
   27.4580  -21.2516   -5.9204 C   0  0  0  0  0  0  0  0  0  0  0  0
   26.8314  -20.3933   -6.9492 C   0  0  2  0  0  0  0  0  0  0  0  0
   26.8106  -21.0819   -8.2464 N   0  0  0  0  0  0  0  0  0  0  0  0
   27.7215  -19.1848   -7.1068 C   0  0  0  0  0  0  0  0  0  0  0  0
   28.8294  -19.2524   -7.6814 O   0  0  0  0  0  0  0  0  0  0  0  0
   27.3352  -17.9463   -6.6141 O   0  0  0  0  0  0  0  0  0  0  0  0
  2  1  1  0
  3  2  1  0
  3  4  1  1
  5  3  1  0
  5  6  2  0
  8  7  1  6
  8 10  1  0
  9  8  1  0
 10 11  1  6
 10 12  1  0
 11  5  1  0
 12 19  1  0
 13 12  2  0
 15 14  1  6
 16 15  1  0
 17 15  1  0
 18 17  1  1
 19 18  1  0
 20 22  1  0
 20 18  1  0
 21 20  2  0
M  END
$$$$
