SVL.pdb
     RDKit          3D

 22 21  0  0  1  0  0  0  0  0999 V2000
   21.3401  -17.0703  -17.5733 O   0  0  0  0  0  0  0  0  0  0  0  0
   21.9678  -18.0457  -16.8038 C   0  0  0  0  0  0  0  0  0  0  0  0
   23.1196  -18.5851  -17.6306 C   0  0  2  0  0  0  0  0  0  0  0  0
   22.5934  -19.5124  -18.6121 N   0  0  0  0  0  0  0  0  0  0  0  0
   24.0034  -19.3599  -16.7240 C   0  0  0  0  0  0  0  0  0  0  0  0
   23.7114  -20.5734  -16.4737 O   0  0  0  0  0  0  0  0  0  0  0  0
   28.0594  -19.4358  -16.5585 C   0  0  0  0  0  0  0  0  0  0  0  0
   27.4111  -19.1459  -15.2136 C   0  0  2  0  0  0  0  0  0  0  0  0
   28.2973  -19.7607  -14.1714 C   0  0  0  0  0  0  0  0  0  0  0  0
   25.9831  -19.6608  -15.1938 C   0  0  2  0  0  0  0  0  0  0  0  0
   25.1648  -18.8537  -16.1030 N   0  0  0  0  0  0  0  0  0  0  0  0
   25.3422  -19.5718  -13.8698 C   0  0  0  0  0  0  0  0  0  0  0  0
   24.7420  -18.4922  -13.5326 O   0  0  0  0  0  0  0  0  0  0  0  0
   21.1269  -21.3190  -10.4452 C   0  0  0  0  0  0  0  0  0  0  0  0
   22.3262  -20.4476  -10.5502 C   0  0  2  0  0  0  0  0  0  0  0  0
   21.9199  -18.9876  -10.3184 C   0  0  0  0  0  0  0  0  0  0  0  0
   23.1804  -20.6089  -11.7454 C   0  0  0  0  0  0  0  0  0  0  0  0
   24.6373  -20.3996  -11.5989 C   0  0  2  0  0  0  0  0  0  0  0  0
   25.3143  -20.5954  -12.8875 N   0  0  0  0  0  0  0  0  0  0  0  0
   25.1392  -21.4779  -10.6699 C   0  0  0  0  0  0  0  0  0  0  0  0
   25.4998  -22.5974  -11.0930 O   0  0  0  0  0  0  0  0  0  0  0  0
   25.2178  -21.2597   -9.3016 O   0  0  0  0  0  0  0  0  0  0  0  0
  2  1  1  0
  3  2  1  0
  3  4  1  6
  5  3  1  0
  5  6  2  0
  8  7  1  6
  8 10  1  0
  9  8  1  0
 10 11  1  6
 10 12  1  0
 11  5  1  0
 12 19  1  0
 13 12  2  0
 15 14  1  6
 16 15  1  0
 17 15  1  0
 18 17  1  6
 19 18  1  0
 20 22  1  0
 20 18  1  0
 21 20  2  0
M  END
$$$$
