SVL.pdb
     RDKit          3D

 22 21  0  0  1  0  0  0  0  0999 V2000
   16.5221  -15.8301  -17.5948 O   0  0  0  0  0  0  0  0  0  0  0  0
   16.7717  -14.5211  -17.9965 C   0  0  0  0  0  0  0  0  0  0  0  0
   17.5678  -13.8636  -16.8852 C   0  0  2  0  0  0  0  0  0  0  0  0
   16.7213  -13.7429  -15.7152 N   0  0  0  0  0  0  0  0  0  0  0  0
   17.9076  -12.4873  -17.3253 C   0  0  0  0  0  0  0  0  0  0  0  0
   18.6298  -12.3369  -18.3627 O   0  0  0  0  0  0  0  0  0  0  0  0
   15.9906   -9.3951  -18.4993 C   0  0  0  0  0  0  0  0  0  0  0  0
   16.7684   -9.0508  -17.2385 C   0  0  2  0  0  0  0  0  0  0  0  0
   17.1339   -7.6001  -17.3456 C   0  0  0  0  0  0  0  0  0  0  0  0
   17.9593   -9.9793  -17.0827 C   0  0  2  0  0  0  0  0  0  0  0  0
   17.4886  -11.3064  -16.6766 N   0  0  0  0  0  0  0  0  0  0  0  0
   18.9152   -9.5443  -16.0489 C   0  0  0  0  0  0  0  0  0  0  0  0
   18.5881   -9.6291  -14.8138 O   0  0  0  0  0  0  0  0  0  0  0  0
   22.4956  -10.9592  -13.6138 C   0  0  0  0  0  0  0  0  0  0  0  0
   22.7510  -10.5629  -15.0233 C   0  0  2  0  0  0  0  0  0  0  0  0
   24.1658  -10.9937  -15.4276 C   0  0  0  0  0  0  0  0  0  0  0  0
   22.4626   -9.1628  -15.3982 C   0  0  0  0  0  0  0  0  0  0  0  0
   21.0963   -8.6438  -15.1707 C   0  0  2  0  0  0  0  0  0  0  0  0
   20.2138   -9.0220  -16.2822 N   0  0  0  0  0  0  0  0  0  0  0  0
   21.1968   -7.1380  -15.1815 C   0  0  0  0  0  0  0  0  0  0  0  0
   21.6393   -6.4996  -14.2023 O   0  0  0  0  0  0  0  0  0  0  0  0
   20.7971   -6.4053  -16.2903 O   0  0  0  0  0  0  0  0  0  0  0  0
  2  1  1  0
  3  2  1  0
  3  4  1  1
  5  3  1  0
  5  6  2  0
  8  7  1  6
  8 10  1  0
  9  8  1  0
 10 11  1  1
 10 12  1  0
 11  5  1  0
 12 19  1  0
 13 12  2  0
 15 14  1  1
 16 15  1  0
 17 15  1  0
 18 17  1  6
 19 18  1  0
 20 22  1  0
 20 18  1  0
 21 20  2  0
M  END
$$$$
