SVL.pdb
     RDKit          3D

 22 21  0  0  1  0  0  0  0  0999 V2000
   15.0926  -21.0473  -13.9810 O   0  0  0  0  0  0  0  0  0  0  0  0
   15.9448  -21.5856  -13.0211 C   0  0  0  0  0  0  0  0  0  0  0  0
   17.3467  -21.5342  -13.5984 C   0  0  2  0  0  0  0  0  0  0  0  0
   17.4597  -22.5394  -14.6360 N   0  0  0  0  0  0  0  0  0  0  0  0
   18.2944  -21.9086  -12.5190 C   0  0  0  0  0  0  0  0  0  0  0  0
   18.5778  -23.1384  -12.3523 O   0  0  0  0  0  0  0  0  0  0  0  0
   21.7189  -20.0403  -11.4593 C   0  0  0  0  0  0  0  0  0  0  0  0
   20.8069  -20.3027  -10.2709 C   0  0  2  0  0  0  0  0  0  0  0  0
   21.7016  -20.5756   -9.0985 C   0  0  0  0  0  0  0  0  0  0  0  0
   19.8392  -21.4291  -10.5864 C   0  0  2  0  0  0  0  0  0  0  0  0
   18.9210  -20.9966  -11.6436 N   0  0  0  0  0  0  0  0  0  0  0  0
   18.9980  -21.8221   -9.4420 C   0  0  0  0  0  0  0  0  0  0  0  0
   17.8995  -21.2007   -9.2257 O   0  0  0  0  0  0  0  0  0  0  0  0
   16.3217  -25.2407   -6.1534 C   0  0  0  0  0  0  0  0  0  0  0  0
   16.0004  -24.2630   -7.2257 C   0  0  2  0  0  0  0  0  0  0  0  0
   14.7818  -24.7528   -8.0165 C   0  0  0  0  0  0  0  0  0  0  0  0
   17.1061  -23.8346   -8.1078 C   0  0  0  0  0  0  0  0  0  0  0  0
   18.3134  -23.2501   -7.4845 C   0  0  2  0  0  0  0  0  0  0  0  0
   19.2831  -22.8588   -8.5160 N   0  0  0  0  0  0  0  0  0  0  0  0
   18.9556  -24.3467   -6.6704 C   0  0  0  0  0  0  0  0  0  0  0  0
   19.6827  -25.2177   -7.1948 O   0  0  0  0  0  0  0  0  0  0  0  0
   18.7579  -24.4248   -5.2990 O   0  0  0  0  0  0  0  0  0  0  0  0
  2  1  1  0
  3  2  1  0
  3  4  1  6
  5  3  1  0
  5  6  2  0
  8  7  1  6
  8 10  1  0
  9  8  1  0
 10 11  1  6
 10 12  1  0
 11  5  1  0
 12 19  1  0
 13 12  2  0
 15 14  1  1
 16 15  1  0
 17 15  1  0
 18 17  1  6
 19 18  1  0
 20 22  1  0
 20 18  1  0
 21 20  2  0
M  END
$$$$
