SVL.pdb
     RDKit          3D

 22 21  0  0  1  0  0  0  0  0999 V2000
   17.7744  -13.6367  -17.0371 O   0  0  0  0  0  0  0  0  0  0  0  0
   17.9465  -12.7526  -18.0983 C   0  0  0  0  0  0  0  0  0  0  0  0
   19.4410  -12.6160  -18.3197 C   0  0  2  0  0  0  0  0  0  0  0  0
   20.0517  -13.9239  -18.1921 N   0  0  0  0  0  0  0  0  0  0  0  0
   19.9844  -11.7692  -17.2283 C   0  0  0  0  0  0  0  0  0  0  0  0
   20.4525  -12.3357  -16.1889 O   0  0  0  0  0  0  0  0  0  0  0  0
   22.8781   -9.4424  -17.0633 C   0  0  0  0  0  0  0  0  0  0  0  0
   21.6497   -8.6463  -16.6506 C   0  0  2  0  0  0  0  0  0  0  0  0
   22.1156   -7.6316  -15.6492 C   0  0  0  0  0  0  0  0  0  0  0  0
   20.5676   -9.5762  -16.1319 C   0  0  2  0  0  0  0  0  0  0  0  0
   20.0267  -10.3590  -17.2465 N   0  0  0  0  0  0  0  0  0  0  0  0
   19.4237   -8.8709  -15.5272 C   0  0  0  0  0  0  0  0  0  0  0  0
   18.5365   -8.3447  -16.2858 O   0  0  0  0  0  0  0  0  0  0  0  0
   15.6905   -9.7307  -12.4533 C   0  0  0  0  0  0  0  0  0  0  0  0
   17.0837   -9.5637  -11.9634 C   0  0  2  0  0  0  0  0  0  0  0  0
   17.1550   -9.9510  -10.4817 C   0  0  0  0  0  0  0  0  0  0  0  0
   17.7503   -8.2737  -12.2384 C   0  0  0  0  0  0  0  0  0  0  0  0
   18.0458   -7.9235  -13.6448 C   0  0  2  0  0  0  0  0  0  0  0  0
   19.1867   -8.7061  -14.1378 N   0  0  0  0  0  0  0  0  0  0  0  0
   18.4701   -6.4752  -13.6514 C   0  0  0  0  0  0  0  0  0  0  0  0
   17.6371   -5.5440  -13.6172 O   0  0  0  0  0  0  0  0  0  0  0  0
   19.8125   -6.1263  -13.6961 O   0  0  0  0  0  0  0  0  0  0  0  0
  2  1  1  0
  3  2  1  0
  3  4  1  1
  5  3  1  0
  5  6  2  0
  8  7  1  1
  8 10  1  0
  9  8  1  0
 10 11  1  6
 10 12  1  0
 11  5  1  0
 12 19  1  0
 13 12  2  0
 15 14  1  1
 16 15  1  0
 17 15  1  0
 18 17  1  1
 19 18  1  0
 20 22  1  0
 20 18  1  0
 21 20  2  0
M  END
$$$$
