LGR.pdb
     RDKit          3D

 24 23  0  0  1  0  0  0  0  0999 V2000
   28.4757  -18.9981  -18.7421 C   0  0  0  0  0  0  0  0  0  0  0  0
   27.8137  -17.6931  -19.0236 C   0  0  2  0  0  0  0  0  0  0  0  0
   28.2666  -17.2071  -20.4069 C   0  0  0  0  0  0  0  0  0  0  0  0
   28.0907  -16.5922  -18.0677 C   0  0  0  0  0  0  0  0  0  0  0  0
   27.6698  -16.8212  -16.6512 C   0  0  2  0  0  0  0  0  0  0  0  0
   27.2410  -18.1379  -16.3295 N   0  0  0  0  0  0  0  0  0  0  0  0
   26.6492  -15.8437  -16.1961 C   0  0  0  0  0  0  0  0  0  0  0  0
   26.8515  -14.5947  -16.3308 O   0  0  0  0  0  0  0  0  0  0  0  0
   25.4312  -16.2468  -15.6034 N   0  0  0  0  0  0  0  0  0  0  0  0
   24.3969  -15.3223  -15.2079 C   0  0  0  0  0  0  0  0  0  0  0  0
   23.3996  -15.0339  -16.2421 C   0  0  0  0  0  0  0  0  0  0  0  0
   23.6985  -15.2387  -17.4700 O   0  0  0  0  0  0  0  0  0  0  0  0
   18.4848  -18.6787  -14.3647 N   0  0  0  0  0  0  0  0  0  0  0  0
   17.9700  -18.6845  -15.7016 C   0  0  0  0  0  0  0  0  0  0  0  0
   17.4389  -19.7514  -16.1797 N   0  0  0  0  0  0  0  0  0  0  0  0
   18.0631  -17.4915  -16.4727 N   0  0  0  0  0  0  0  0  0  0  0  0
   18.7532  -16.3434  -15.9213 C   0  0  0  0  0  0  0  0  0  0  0  0
   18.8251  -15.2567  -16.9934 C   0  0  0  0  0  0  0  0  0  0  0  0
   19.7468  -14.1473  -16.5752 C   0  0  0  0  0  0  0  0  0  0  0  0
   21.1125  -14.3484  -17.1067 C   0  0  2  0  0  0  0  0  0  0  0  0
   22.0918  -14.5386  -16.0385 N   0  0  0  0  0  0  0  0  0  0  0  0
   21.5529  -13.2048  -17.9170 C   0  0  0  0  0  0  0  0  0  0  0  0
   21.3630  -13.0362  -19.2757 O   0  0  0  0  0  0  0  0  0  0  0  0
   22.1833  -12.2435  -17.3481 O   0  0  0  0  0  0  0  0  0  0  0  0
  2  1  1  1
  2  4  1  0
  3  2  1  0
  4  5  1  0
  5  6  1  6
  7  5  1  0
  7  9  1  0
  8  7  2  0
  9 10  1  0
 11 12  2  0
 11 10  1  0
 13 14  1  0
 14 15  2  0
 16 14  1  0
 16 17  1  0
 17 18  1  0
 19 18  1  0
 20 19  1  1
 20 22  1  0
 20 21  1  0
 21 11  1  0
 22 23  1  0
 24 22  2  0
M  END
$$$$
