LGR.pdb
     RDKit          3D

 24 23  0  0  1  0  0  0  0  0999 V2000
   30.5664  -23.2672  -17.7837 C   0  0  0  0  0  0  0  0  0  0  0  0
   29.5696  -22.4140  -18.4901 C   0  0  2  0  0  0  0  0  0  0  0  0
   30.2381  -21.8155  -19.7350 C   0  0  0  0  0  0  0  0  0  0  0  0
   29.0047  -21.2803  -17.7168 C   0  0  0  0  0  0  0  0  0  0  0  0
   28.3619  -21.6224  -16.4107 C   0  0  2  0  0  0  0  0  0  0  0  0
   27.4298  -22.6955  -16.4326 N   0  0  0  0  0  0  0  0  0  0  0  0
   27.7427  -20.4427  -15.7554 C   0  0  0  0  0  0  0  0  0  0  0  0
   28.4184  -19.3796  -15.5762 O   0  0  0  0  0  0  0  0  0  0  0  0
   26.4020  -20.4463  -15.3086 N   0  0  0  0  0  0  0  0  0  0  0  0
   25.7368  -19.2783  -14.7850 C   0  0  0  0  0  0  0  0  0  0  0  0
   24.3231  -19.4717  -14.4515 C   0  0  0  0  0  0  0  0  0  0  0  0
   23.6899  -18.5327  -13.8545 O   0  0  0  0  0  0  0  0  0  0  0  0
   17.2276  -23.9881  -17.1825 N   0  0  0  0  0  0  0  0  0  0  0  0
   16.8554  -23.2057  -16.0416 C   0  0  0  0  0  0  0  0  0  0  0  0
   15.6263  -22.8810  -15.8601 N   0  0  0  0  0  0  0  0  0  0  0  0
   17.8719  -22.8047  -15.1294 N   0  0  0  0  0  0  0  0  0  0  0  0
   19.2477  -22.7522  -15.5799 C   0  0  0  0  0  0  0  0  0  0  0  0
   20.1007  -22.1374  -14.4708 C   0  0  0  0  0  0  0  0  0  0  0  0
   21.5262  -21.9749  -14.9146 C   0  0  0  0  0  0  0  0  0  0  0  0
   22.1438  -20.7686  -14.3218 C   0  0  2  0  0  0  0  0  0  0  0  0
   23.5410  -20.6170  -14.7230 N   0  0  0  0  0  0  0  0  0  0  0  0
   22.1028  -20.8041  -12.8536 C   0  0  0  0  0  0  0  0  0  0  0  0
   23.1034  -21.2528  -12.0122 O   0  0  0  0  0  0  0  0  0  0  0  0
   21.0505  -20.3888  -12.2491 O   0  0  0  0  0  0  0  0  0  0  0  0
  2  1  1  1
  2  4  1  0
  3  2  1  0
  4  5  1  0
  5  6  1  6
  7  5  1  0
  7  9  1  0
  8  7  2  0
  9 10  1  0
 11 12  2  0
 11 10  1  0
 13 14  1  0
 14 15  2  0
 16 14  1  0
 16 17  1  0
 17 18  1  0
 19 18  1  0
 20 19  1  6
 20 22  1  0
 20 21  1  0
 21 11  1  0
 22 23  1  0
 24 22  2  0
M  END
$$$$
