LGR.pdb
     RDKit          3D

 24 23  0  0  1  0  0  0  0  0999 V2000
   25.3905  -18.7635  -18.7981 C   0  0  0  0  0  0  0  0  0  0  0  0
   25.2155  -19.8750  -17.8211 C   0  0  2  0  0  0  0  0  0  0  0  0
   25.4353  -21.2051  -18.5542 C   0  0  0  0  0  0  0  0  0  0  0  0
   23.8938  -19.9645  -17.1522 C   0  0  0  0  0  0  0  0  0  0  0  0
   23.4173  -18.7301  -16.4556 C   0  0  2  0  0  0  0  0  0  0  0  0
   24.1088  -18.3752  -15.2653 N   0  0  0  0  0  0  0  0  0  0  0  0
   21.9567  -18.7547  -16.1905 C   0  0  0  0  0  0  0  0  0  0  0  0
   21.1364  -18.9853  -17.1354 O   0  0  0  0  0  0  0  0  0  0  0  0
   21.4207  -18.5267  -14.9028 N   0  0  0  0  0  0  0  0  0  0  0  0
   20.0116  -18.6053  -14.6045 C   0  0  0  0  0  0  0  0  0  0  0  0
   19.5109  -19.9579  -14.3455 C   0  0  0  0  0  0  0  0  0  0  0  0
   19.5230  -20.8186  -15.2932 O   0  0  0  0  0  0  0  0  0  0  0  0
   18.9662  -26.4248   -8.1586 N   0  0  0  0  0  0  0  0  0  0  0  0
   18.8791  -26.5407   -9.5839 C   0  0  0  0  0  0  0  0  0  0  0  0
   19.5017  -27.4866  -10.1895 N   0  0  0  0  0  0  0  0  0  0  0  0
   18.0947  -25.5915  -10.2980 N   0  0  0  0  0  0  0  0  0  0  0  0
   18.5963  -24.2433  -10.4693 C   0  0  0  0  0  0  0  0  0  0  0  0
   17.6086  -23.4620  -11.3351 C   0  0  0  0  0  0  0  0  0  0  0  0
   18.0696  -22.0468  -11.5351 C   0  0  0  0  0  0  0  0  0  0  0  0
   18.5579  -21.8261  -12.9138 C   0  0  2  0  0  0  0  0  0  0  0  0
   18.9970  -20.4479  -13.1237 N   0  0  0  0  0  0  0  0  0  0  0  0
   17.5192  -22.1198  -13.9105 C   0  0  0  0  0  0  0  0  0  0  0  0
   17.3318  -23.3162  -14.5769 O   0  0  0  0  0  0  0  0  0  0  0  0
   16.6813  -21.2017  -14.2269 O   0  0  0  0  0  0  0  0  0  0  0  0
  2  1  1  6
  2  4  1  0
  3  2  1  0
  4  5  1  0
  5  6  1  1
  7  5  1  0
  7  9  1  0
  8  7  2  0
  9 10  1  0
 11 12  2  0
 11 10  1  0
 13 14  1  0
 14 15  2  0
 16 14  1  0
 16 17  1  0
 17 18  1  0
 19 18  1  0
 20 19  1  1
 20 22  1  0
 20 21  1  0
 21 11  1  0
 22 23  1  0
 24 22  2  0
M  END
$$$$
