LGR.pdb
     RDKit          3D

 24 23  0  0  1  0  0  0  0  0999 V2000
   25.0513  -14.8005  -19.5528 C   0  0  0  0  0  0  0  0  0  0  0  0
   25.9182  -15.7877  -20.2560 C   0  0  2  0  0  0  0  0  0  0  0  0
   25.1941  -16.2510  -21.5272 C   0  0  0  0  0  0  0  0  0  0  0  0
   26.2789  -17.0099  -19.4953 C   0  0  0  0  0  0  0  0  0  0  0  0
   26.9657  -16.7973  -18.1841 C   0  0  2  0  0  0  0  0  0  0  0  0
   28.2245  -16.1386  -18.2352 N   0  0  0  0  0  0  0  0  0  0  0  0
   27.0952  -18.0515  -17.4001 C   0  0  0  0  0  0  0  0  0  0  0  0
   28.1986  -18.6846  -17.3793 O   0  0  0  0  0  0  0  0  0  0  0  0
   26.0205  -18.5897  -16.6567 N   0  0  0  0  0  0  0  0  0  0  0  0
   26.1107  -19.8192  -15.9078 C   0  0  0  0  0  0  0  0  0  0  0  0
   25.5697  -19.7535  -14.5476 C   0  0  0  0  0  0  0  0  0  0  0  0
   25.3411  -18.6083  -14.0228 O   0  0  0  0  0  0  0  0  0  0  0  0
   19.3392  -24.1064  -10.5629 N   0  0  0  0  0  0  0  0  0  0  0  0
   19.2091  -22.7700  -10.0634 C   0  0  0  0  0  0  0  0  0  0  0  0
   18.2628  -22.4807   -9.2449 N   0  0  0  0  0  0  0  0  0  0  0  0
   20.1446  -21.7875  -10.4943 N   0  0  0  0  0  0  0  0  0  0  0  0
   21.0747  -22.1123  -11.5563 C   0  0  0  0  0  0  0  0  0  0  0  0
   22.0704  -20.9619  -11.7011 C   0  0  0  0  0  0  0  0  0  0  0  0
   22.9966  -21.1935  -12.8603 C   0  0  0  0  0  0  0  0  0  0  0  0
   24.3760  -20.7619  -12.5459 C   0  0  2  0  0  0  0  0  0  0  0  0
   25.2542  -20.8480  -13.7111 N   0  0  0  0  0  0  0  0  0  0  0  0
   24.9698  -21.5786  -11.4787 C   0  0  0  0  0  0  0  0  0  0  0  0
   25.9100  -22.5798  -11.6339 O   0  0  0  0  0  0  0  0  0  0  0  0
   24.6064  -21.3783  -10.2650 O   0  0  0  0  0  0  0  0  0  0  0  0
  2  1  1  1
  2  4  1  0
  3  2  1  0
  4  5  1  0
  5  6  1  6
  7  5  1  0
  7  9  1  0
  8  7  2  0
  9 10  1  0
 11 12  2  0
 11 10  1  0
 13 14  1  0
 14 15  2  0
 16 14  1  0
 16 17  1  0
 17 18  1  0
 19 18  1  0
 20 19  1  6
 20 22  1  0
 20 21  1  0
 21 11  1  0
 22 23  1  0
 24 22  2  0
M  END
$$$$
