LGR.pdb
     RDKit          3D

 24 23  0  0  1  0  0  0  0  0999 V2000
   16.5279  -18.8480  -18.3841 C   0  0  0  0  0  0  0  0  0  0  0  0
   17.3012  -20.1200  -18.3148 C   0  0  2  0  0  0  0  0  0  0  0  0
   16.3552  -21.2820  -18.6460 C   0  0  0  0  0  0  0  0  0  0  0  0
   17.9347  -20.4376  -17.0109 C   0  0  0  0  0  0  0  0  0  0  0  0
   18.9711  -19.4757  -16.5244 C   0  0  2  0  0  0  0  0  0  0  0  0
   20.0182  -19.1683  -17.4355 N   0  0  0  0  0  0  0  0  0  0  0  0
   19.5533  -19.8790  -15.2196 C   0  0  0  0  0  0  0  0  0  0  0  0
   18.7948  -20.1969  -14.2488 O   0  0  0  0  0  0  0  0  0  0  0  0
   20.9485  -19.9266  -14.9995 N   0  0  0  0  0  0  0  0  0  0  0  0
   21.5456  -20.4773  -13.8074 C   0  0  0  0  0  0  0  0  0  0  0  0
   23.0109  -20.4771  -13.7954 C   0  0  0  0  0  0  0  0  0  0  0  0
   23.6429  -20.4786  -14.9088 O   0  0  0  0  0  0  0  0  0  0  0  0
   30.1520  -20.6525   -7.7891 N   0  0  0  0  0  0  0  0  0  0  0  0
   28.9819  -21.0240   -8.5273 C   0  0  0  0  0  0  0  0  0  0  0  0
   27.8470  -21.1054   -7.9319 N   0  0  0  0  0  0  0  0  0  0  0  0
   29.1118  -21.2964   -9.9185 N   0  0  0  0  0  0  0  0  0  0  0  0
   27.9439  -21.7027  -10.6731 C   0  0  0  0  0  0  0  0  0  0  0  0
   27.4138  -20.4919  -11.4402 C   0  0  0  0  0  0  0  0  0  0  0  0
   25.9153  -20.4228  -11.3692 C   0  0  0  0  0  0  0  0  0  0  0  0
   25.3017  -20.5855  -12.7052 C   0  0  2  0  0  0  0  0  0  0  0  0
   23.8453  -20.4727  -12.6549 N   0  0  0  0  0  0  0  0  0  0  0  0
   25.6278  -21.8904  -13.2964 C   0  0  0  0  0  0  0  0  0  0  0  0
   24.9247  -23.0687  -13.1304 O   0  0  0  0  0  0  0  0  0  0  0  0
   26.6625  -21.9935  -14.0474 O   0  0  0  0  0  0  0  0  0  0  0  0
  2  1  1  1
  2  4  1  0
  3  2  1  0
  4  5  1  0
  5  6  1  6
  7  5  1  0
  7  9  1  0
  8  7  2  0
  9 10  1  0
 11 12  2  0
 11 10  1  0
 13 14  1  0
 14 15  2  0
 16 14  1  0
 16 17  1  0
 17 18  1  0
 19 18  1  0
 20 19  1  1
 20 22  1  0
 20 21  1  0
 21 11  1  0
 22 23  1  0
 24 22  2  0
M  END
$$$$
