LGR.pdb
     RDKit          3D

 24 23  0  0  1  0  0  0  0  0999 V2000
   28.4273  -17.0510  -18.1477 C   0  0  0  0  0  0  0  0  0  0  0  0
   27.0696  -17.0031  -18.7602 C   0  0  2  0  0  0  0  0  0  0  0  0
   26.9681  -15.7345  -19.6175 C   0  0  0  0  0  0  0  0  0  0  0  0
   25.9214  -16.9815  -17.8202 C   0  0  0  0  0  0  0  0  0  0  0  0
   25.9038  -18.0448  -16.7690 C   0  0  2  0  0  0  0  0  0  0  0  0
   26.0181  -19.3846  -17.2303 N   0  0  0  0  0  0  0  0  0  0  0  0
   24.7316  -17.9313  -15.8649 C   0  0  0  0  0  0  0  0  0  0  0  0
   24.4679  -16.8267  -15.2912 O   0  0  0  0  0  0  0  0  0  0  0  0
   23.8726  -19.0228  -15.6042 N   0  0  0  0  0  0  0  0  0  0  0  0
   22.6695  -18.9152  -14.8157 C   0  0  0  0  0  0  0  0  0  0  0  0
   21.9603  -20.1788  -14.5978 C   0  0  0  0  0  0  0  0  0  0  0  0
   22.0301  -21.0942  -15.4901 O   0  0  0  0  0  0  0  0  0  0  0  0
   18.2124  -24.4258   -7.6668 N   0  0  0  0  0  0  0  0  0  0  0  0
   18.2639  -25.3868   -8.7280 C   0  0  0  0  0  0  0  0  0  0  0  0
   17.8470  -26.5849   -8.5289 N   0  0  0  0  0  0  0  0  0  0  0  0
   18.7827  -24.9811   -9.9900 N   0  0  0  0  0  0  0  0  0  0  0  0
   19.2263  -23.6135  -10.1673 C   0  0  0  0  0  0  0  0  0  0  0  0
   19.7191  -23.4432  -11.6038 C   0  0  0  0  0  0  0  0  0  0  0  0
   20.0897  -22.0145  -11.8807 C   0  0  0  0  0  0  0  0  0  0  0  0
   20.5754  -21.8398  -13.2669 C   0  0  2  0  0  0  0  0  0  0  0  0
   21.1776  -20.5241  -13.4729 N   0  0  0  0  0  0  0  0  0  0  0  0
   19.4897  -21.9914  -14.2450 C   0  0  0  0  0  0  0  0  0  0  0  0
   18.6878  -20.9843  -14.7483 O   0  0  0  0  0  0  0  0  0  0  0  0
   19.2221  -23.1590  -14.7035 O   0  0  0  0  0  0  0  0  0  0  0  0
  2  1  1  1
  2  4  1  0
  3  2  1  0
  4  5  1  0
  5  6  1  6
  7  5  1  0
  7  9  1  0
  8  7  2  0
  9 10  1  0
 11 12  2  0
 11 10  1  0
 13 14  1  0
 14 15  2  0
 16 14  1  0
 16 17  1  0
 17 18  1  0
 19 18  1  0
 20 19  1  1
 20 22  1  0
 20 21  1  0
 21 11  1  0
 22 23  1  0
 24 22  2  0
M  END
$$$$
