LGR.pdb
     RDKit          3D

 24 23  0  0  1  0  0  0  0  0999 V2000
   27.3806  -21.9527  -13.9225 C   0  0  0  0  0  0  0  0  0  0  0  0
   26.8075  -21.7706  -15.2860 C   0  0  2  0  0  0  0  0  0  0  0  0
   27.4007  -20.4933  -15.8954 C   0  0  0  0  0  0  0  0  0  0  0  0
   25.3313  -21.6434  -15.3704 C   0  0  0  0  0  0  0  0  0  0  0  0
   24.7361  -20.4081  -14.7740 C   0  0  2  0  0  0  0  0  0  0  0  0
   25.1191  -20.1095  -13.4380 N   0  0  0  0  0  0  0  0  0  0  0  0
   23.2556  -20.3811  -14.8819 C   0  0  0  0  0  0  0  0  0  0  0  0
   22.6898  -20.5816  -16.0037 O   0  0  0  0  0  0  0  0  0  0  0  0
   22.4232  -20.1354  -13.7665 N   0  0  0  0  0  0  0  0  0  0  0  0
   20.9823  -20.1630  -13.8302 C   0  0  0  0  0  0  0  0  0  0  0  0
   20.3728  -21.4395  -13.4479 C   0  0  0  0  0  0  0  0  0  0  0  0
   20.0181  -22.2597  -14.3648 O   0  0  0  0  0  0  0  0  0  0  0  0
   16.7625  -25.7810   -7.7851 N   0  0  0  0  0  0  0  0  0  0  0  0
   17.9658  -25.2623   -7.2060 C   0  0  0  0  0  0  0  0  0  0  0  0
   18.3478  -25.6688   -6.0493 N   0  0  0  0  0  0  0  0  0  0  0  0
   18.7138  -24.2978   -7.9385 N   0  0  0  0  0  0  0  0  0  0  0  0
   18.0890  -23.0417   -8.2996 C   0  0  0  0  0  0  0  0  0  0  0  0
   18.1639  -22.8786   -9.8173 C   0  0  0  0  0  0  0  0  0  0  0  0
   19.4567  -23.4219  -10.3546 C   0  0  0  0  0  0  0  0  0  0  0  0
   19.5686  -23.2093  -11.8141 C   0  0  2  0  0  0  0  0  0  0  0  0
   20.1211  -21.8944  -12.1339 N   0  0  0  0  0  0  0  0  0  0  0  0
   18.2633  -23.3183  -12.4796 C   0  0  0  0  0  0  0  0  0  0  0  0
   17.3570  -22.2957  -12.6881 O   0  0  0  0  0  0  0  0  0  0  0  0
   17.8843  -24.4596  -12.9258 O   0  0  0  0  0  0  0  0  0  0  0  0
  2  1  1  1
  2  4  1  0
  3  2  1  0
  4  5  1  0
  5  6  1  1
  7  5  1  0
  7  9  1  0
  8  7  2  0
  9 10  1  0
 11 12  2  0
 11 10  1  0
 13 14  1  0
 14 15  2  0
 16 14  1  0
 16 17  1  0
 17 18  1  0
 19 18  1  0
 20 19  1  1
 20 22  1  0
 20 21  1  0
 21 11  1  0
 22 23  1  0
 24 22  2  0
M  END
$$$$
