LGR.pdb
     RDKit          3D

 24 23  0  0  1  0  0  0  0  0999 V2000
   19.9161  -15.9752  -17.4159 C   0  0  0  0  0  0  0  0  0  0  0  0
   19.3984  -14.8675  -18.2678 C   0  0  2  0  0  0  0  0  0  0  0  0
   20.0019  -15.0115  -19.6713 C   0  0  0  0  0  0  0  0  0  0  0  0
   19.6961  -13.4877  -17.8098 C   0  0  0  0  0  0  0  0  0  0  0  0
   19.1591  -13.1030  -16.4682 C   0  0  2  0  0  0  0  0  0  0  0  0
   17.7547  -13.2372  -16.2929 N   0  0  0  0  0  0  0  0  0  0  0  0
   19.5810  -11.7405  -16.0562 C   0  0  0  0  0  0  0  0  0  0  0  0
   20.8114  -11.4169  -16.0725 O   0  0  0  0  0  0  0  0  0  0  0  0
   18.6545  -10.7601  -15.6345 N   0  0  0  0  0  0  0  0  0  0  0  0
   19.0301   -9.4126  -15.2824 C   0  0  0  0  0  0  0  0  0  0  0  0
   17.9086   -8.5185  -14.9823 C   0  0  0  0  0  0  0  0  0  0  0  0
   16.9374   -8.4372  -15.8125 O   0  0  0  0  0  0  0  0  0  0  0  0
   14.8355   -7.2199   -7.2332 N   0  0  0  0  0  0  0  0  0  0  0  0
   13.9780   -7.9856   -8.0880 C   0  0  0  0  0  0  0  0  0  0  0  0
   12.9555   -8.5879   -7.5975 N   0  0  0  0  0  0  0  0  0  0  0  0
   14.2879   -8.0584   -9.4755 N   0  0  0  0  0  0  0  0  0  0  0  0
   15.2478   -7.1300  -10.0368 C   0  0  0  0  0  0  0  0  0  0  0  0
   15.4055   -7.4330  -11.5264 C   0  0  0  0  0  0  0  0  0  0  0  0
   16.4404   -6.5419  -12.1510 C   0  0  0  0  0  0  0  0  0  0  0  0
   16.6115   -6.8368  -13.5903 C   0  0  2  0  0  0  0  0  0  0  0  0
   17.7626   -7.7029  -13.8375 N   0  0  0  0  0  0  0  0  0  0  0  0
   16.7995   -5.6100  -14.3766 C   0  0  0  0  0  0  0  0  0  0  0  0
   15.8063   -4.8405  -14.9527 O   0  0  0  0  0  0  0  0  0  0  0  0
   17.9890   -5.1734  -14.5759 O   0  0  0  0  0  0  0  0  0  0  0  0
  2  1  1  1
  2  4  1  0
  3  2  1  0
  4  5  1  0
  5  6  1  6
  7  5  1  0
  7  9  1  0
  8  7  2  0
  9 10  1  0
 11 12  2  0
 11 10  1  0
 13 14  1  0
 14 15  2  0
 16 14  1  0
 16 17  1  0
 17 18  1  0
 19 18  1  0
 20 19  1  1
 20 22  1  0
 20 21  1  0
 21 11  1  0
 22 23  1  0
 24 22  2  0
M  END
$$$$
