LGR.pdb
     RDKit          3D

 24 23  0  0  1  0  0  0  0  0999 V2000
   20.1847  -20.1124  -18.5153 C   0  0  0  0  0  0  0  0  0  0  0  0
   19.8011  -19.5221  -17.2019 C   0  0  2  0  0  0  0  0  0  0  0  0
   18.7653  -18.4174  -17.4499 C   0  0  0  0  0  0  0  0  0  0  0  0
   20.8965  -18.9153  -16.4054 C   0  0  0  0  0  0  0  0  0  0  0  0
   21.8694  -19.8649  -15.7827 C   0  0  2  0  0  0  0  0  0  0  0  0
   21.8596  -21.1936  -16.2881 N   0  0  0  0  0  0  0  0  0  0  0  0
   21.7635  -19.8980  -14.3022 C   0  0  0  0  0  0  0  0  0  0  0  0
   21.7199  -18.8142  -13.6372 O   0  0  0  0  0  0  0  0  0  0  0  0
   21.7085  -21.1102  -13.5776 N   0  0  0  0  0  0  0  0  0  0  0  0
   21.4479  -21.1765  -12.1604 C   0  0  0  0  0  0  0  0  0  0  0  0
   20.4196  -22.1435  -11.7673 C   0  0  0  0  0  0  0  0  0  0  0  0
   19.8848  -22.8835  -12.6648 O   0  0  0  0  0  0  0  0  0  0  0  0
   17.9242  -26.2057   -4.2191 N   0  0  0  0  0  0  0  0  0  0  0  0
   17.2086  -26.8710   -5.2668 C   0  0  0  0  0  0  0  0  0  0  0  0
   16.5020  -27.9099   -5.0012 N   0  0  0  0  0  0  0  0  0  0  0  0
   17.3024  -26.3552   -6.5902 N   0  0  0  0  0  0  0  0  0  0  0  0
   18.1214  -25.1864   -6.8386 C   0  0  0  0  0  0  0  0  0  0  0  0
   18.0936  -24.8810   -8.3358 C   0  0  0  0  0  0  0  0  0  0  0  0
   18.9765  -23.7114   -8.6638 C   0  0  0  0  0  0  0  0  0  0  0  0
   18.9783  -23.4242  -10.1148 C   0  0  2  0  0  0  0  0  0  0  0  0
   19.9282  -22.3689  -10.4616 N   0  0  0  0  0  0  0  0  0  0  0  0
   17.6520  -23.0028  -10.5858 C   0  0  0  0  0  0  0  0  0  0  0  0
   16.6789  -23.8129  -11.1399 O   0  0  0  0  0  0  0  0  0  0  0  0
   17.3220  -21.7666  -10.4952 O   0  0  0  0  0  0  0  0  0  0  0  0
  2  1  1  6
  2  4  1  0
  3  2  1  0
  4  5  1  0
  5  6  1  6
  7  5  1  0
  7  9  1  0
  8  7  2  0
  9 10  1  0
 11 12  2  0
 11 10  1  0
 13 14  1  0
 14 15  2  0
 16 14  1  0
 16 17  1  0
 17 18  1  0
 19 18  1  0
 20 19  1  1
 20 22  1  0
 20 21  1  0
 21 11  1  0
 22 23  1  0
 24 22  2  0
M  END
$$$$
