LGR.pdb
     RDKit          3D

 24 23  0  0  1  0  0  0  0  0999 V2000
   28.1908  -29.4328  -16.5761 C   0  0  0  0  0  0  0  0  0  0  0  0
   27.6120  -28.2070  -17.1950 C   0  0  2  0  0  0  0  0  0  0  0  0
   28.3456  -26.9841  -16.6284 C   0  0  0  0  0  0  0  0  0  0  0  0
   26.1618  -27.9790  -16.9776 C   0  0  0  0  0  0  0  0  0  0  0  0
   25.2421  -29.0619  -17.4440 C   0  0  2  0  0  0  0  0  0  0  0  0
   25.3272  -29.4073  -18.8204 N   0  0  0  0  0  0  0  0  0  0  0  0
   23.8254  -28.7978  -17.0870 C   0  0  0  0  0  0  0  0  0  0  0  0
   22.9890  -28.4615  -17.9849 O   0  0  0  0  0  0  0  0  0  0  0  0
   23.3502  -28.9043  -15.7603 N   0  0  0  0  0  0  0  0  0  0  0  0
   21.9592  -28.7709  -15.4025 C   0  0  0  0  0  0  0  0  0  0  0  0
   21.6663  -28.9723  -13.9809 C   0  0  0  0  0  0  0  0  0  0  0  0
   22.3751  -29.8012  -13.3103 O   0  0  0  0  0  0  0  0  0  0  0  0
   18.0217  -23.1211  -11.8258 N   0  0  0  0  0  0  0  0  0  0  0  0
   19.0487  -23.1419  -12.8243 C   0  0  0  0  0  0  0  0  0  0  0  0
   19.0761  -22.2369  -13.7349 N   0  0  0  0  0  0  0  0  0  0  0  0
   20.0226  -24.1791  -12.7785 N   0  0  0  0  0  0  0  0  0  0  0  0
   19.5860  -25.5596  -12.7330 C   0  0  0  0  0  0  0  0  0  0  0  0
   19.9341  -26.1360  -11.3610 C   0  0  0  0  0  0  0  0  0  0  0  0
   19.4733  -27.5603  -11.2422 C   0  0  0  0  0  0  0  0  0  0  0  0
   20.4757  -28.5011  -11.7880 C   0  0  2  0  0  0  0  0  0  0  0  0
   20.6549  -28.3331  -13.2289 N   0  0  0  0  0  0  0  0  0  0  0  0
   20.0953  -29.8994  -11.5460 C   0  0  0  0  0  0  0  0  0  0  0  0
   20.4690  -30.6801  -10.4684 O   0  0  0  0  0  0  0  0  0  0  0  0
   19.3432  -30.4970  -12.3960 O   0  0  0  0  0  0  0  0  0  0  0  0
  2  1  1  1
  2  4  1  0
  3  2  1  0
  4  5  1  0
  5  6  1  6
  7  5  1  0
  7  9  1  0
  8  7  2  0
  9 10  1  0
 11 12  2  0
 11 10  1  0
 13 14  1  0
 14 15  2  0
 16 14  1  0
 16 17  1  0
 17 18  1  0
 19 18  1  0
 20 19  1  6
 20 22  1  0
 20 21  1  0
 21 11  1  0
 22 23  1  0
 24 22  2  0
M  END
$$$$
