LGR.pdb
     RDKit          3D

 24 23  0  0  1  0  0  0  0  0999 V2000
   25.5002  -15.5136  -17.0161 C   0  0  0  0  0  0  0  0  0  0  0  0
   25.5248  -15.9340  -15.5866 C   0  0  2  0  0  0  0  0  0  0  0  0
   25.1513  -14.7251  -14.7184 C   0  0  0  0  0  0  0  0  0  0  0  0
   26.8172  -16.4515  -15.0725 C   0  0  0  0  0  0  0  0  0  0  0  0
   27.3747  -17.6529  -15.7666 C   0  0  2  0  0  0  0  0  0  0  0  0
   26.9123  -17.8826  -17.0912 N   0  0  0  0  0  0  0  0  0  0  0  0
   27.2208  -18.8942  -14.9668 C   0  0  0  0  0  0  0  0  0  0  0  0
   27.5296  -18.9051  -13.7325 O   0  0  0  0  0  0  0  0  0  0  0  0
   26.7353  -20.0969  -15.5280 N   0  0  0  0  0  0  0  0  0  0  0  0
   26.6339  -21.3326  -14.7908 C   0  0  0  0  0  0  0  0  0  0  0  0
   25.3621  -21.5298  -14.0902 C   0  0  0  0  0  0  0  0  0  0  0  0
   25.1503  -22.6372  -13.4836 O   0  0  0  0  0  0  0  0  0  0  0  0
   20.7611  -22.4448   -7.7298 N   0  0  0  0  0  0  0  0  0  0  0  0
   21.8431  -21.5570   -8.0356 C   0  0  0  0  0  0  0  0  0  0  0  0
   22.7746  -21.3606   -7.1738 N   0  0  0  0  0  0  0  0  0  0  0  0
   21.8552  -20.9088   -9.3029 N   0  0  0  0  0  0  0  0  0  0  0  0
   21.3279  -21.6038  -10.4593 C   0  0  0  0  0  0  0  0  0  0  0  0
   21.3481  -20.6494  -11.6528 C   0  0  0  0  0  0  0  0  0  0  0  0
   22.7531  -20.4039  -12.1228 C   0  0  0  0  0  0  0  0  0  0  0  0
   22.9684  -20.9347  -13.4866 C   0  0  2  0  0  0  0  0  0  0  0  0
   24.2975  -20.6051  -13.9975 N   0  0  0  0  0  0  0  0  0  0  0  0
   21.9812  -20.4048  -14.4369 C   0  0  0  0  0  0  0  0  0  0  0  0
   20.7172  -20.9090  -14.6786 O   0  0  0  0  0  0  0  0  0  0  0  0
   22.2809  -19.3721  -15.1361 O   0  0  0  0  0  0  0  0  0  0  0  0
  2  1  1  6
  2  4  1  0
  3  2  1  0
  4  5  1  0
  5  6  1  6
  7  5  1  0
  7  9  1  0
  8  7  2  0
  9 10  1  0
 11 12  2  0
 11 10  1  0
 13 14  1  0
 14 15  2  0
 16 14  1  0
 16 17  1  0
 17 18  1  0
 19 18  1  0
 20 19  1  1
 20 22  1  0
 20 21  1  0
 21 11  1  0
 22 23  1  0
 24 22  2  0
M  END
$$$$
