LGR.pdb
     RDKit          3D

 24 23  0  0  1  0  0  0  0  0999 V2000
   30.0075  -18.9233   -5.4197 C   0  0  0  0  0  0  0  0  0  0  0  0
   28.5955  -19.1844   -5.0213 C   0  0  2  0  0  0  0  0  0  0  0  0
   28.5931  -19.7956   -3.6137 C   0  0  0  0  0  0  0  0  0  0  0  0
   27.8227  -20.1044   -5.8923 C   0  0  0  0  0  0  0  0  0  0  0  0
   27.7047  -19.7142   -7.3310 C   0  0  2  0  0  0  0  0  0  0  0  0
   27.1982  -18.4109   -7.5877 N   0  0  0  0  0  0  0  0  0  0  0  0
   26.9419  -20.7072   -8.1288 C   0  0  0  0  0  0  0  0  0  0  0  0
   27.1679  -21.9517   -7.9907 O   0  0  0  0  0  0  0  0  0  0  0  0
   25.9506  -20.3240   -9.0603 N   0  0  0  0  0  0  0  0  0  0  0  0
   25.1840  -21.2676   -9.8367 C   0  0  0  0  0  0  0  0  0  0  0  0
   24.1971  -20.6666  -10.7379 C   0  0  0  0  0  0  0  0  0  0  0  0
   24.0444  -19.3955  -10.7357 O   0  0  0  0  0  0  0  0  0  0  0  0
   17.7246  -21.1966  -18.1510 N   0  0  0  0  0  0  0  0  0  0  0  0
   18.5445  -21.9342  -17.2367 C   0  0  0  0  0  0  0  0  0  0  0  0
   18.5580  -23.2176  -17.2794 N   0  0  0  0  0  0  0  0  0  0  0  0
   19.3314  -21.2143  -16.2939 N   0  0  0  0  0  0  0  0  0  0  0  0
   20.1961  -21.9435  -15.3889 C   0  0  0  0  0  0  0  0  0  0  0  0
   20.9255  -20.9397  -14.4967 C   0  0  0  0  0  0  0  0  0  0  0  0
   21.8126  -21.6417  -13.5091 C   0  0  0  0  0  0  0  0  0  0  0  0
   22.4345  -20.6871  -12.5657 C   0  0  2  0  0  0  0  0  0  0  0  0
   23.3604  -21.3496  -11.6491 N   0  0  0  0  0  0  0  0  0  0  0  0
   21.4261  -19.9911  -11.7550 C   0  0  0  0  0  0  0  0  0  0  0  0
   20.8369  -18.7737  -12.0403 O   0  0  0  0  0  0  0  0  0  0  0  0
   21.0241  -20.5297  -10.6625 O   0  0  0  0  0  0  0  0  0  0  0  0
  2  1  1  6
  2  4  1  0
  3  2  1  0
  4  5  1  0
  5  6  1  1
  7  5  1  0
  7  9  1  0
  8  7  2  0
  9 10  1  0
 11 12  2  0
 11 10  1  0
 13 14  1  0
 14 15  2  0
 16 14  1  0
 16 17  1  0
 17 18  1  0
 19 18  1  0
 20 19  1  6
 20 22  1  0
 20 21  1  0
 21 11  1  0
 22 23  1  0
 24 22  2  0
M  END
$$$$
