PDQ.pdb
     RDKit          3D

 25 25  0  0  1  0  0  0  0  0999 V2000
    8.7080  -12.8809   20.3335 N   0  0  0  0  0  0  0  0  0  0  0  0
    9.0223  -12.4102   19.0029 C   0  0  0  0  0  0  0  0  0  0  0  0
    8.7690  -13.6423   18.1225 C   0  0  0  0  0  0  0  0  0  0  0  0
    7.4717  -14.1357   18.7216 C   0  0  0  0  0  0  0  0  0  0  0  0
    7.7311  -13.9116   20.2109 C   0  0  1  0  0  0  0  0  0  0  0  0
    8.1866  -15.2362   20.7402 C   0  0  0  0  0  0  0  0  0  0  0  0
    7.8418  -16.2898   20.1505 O   0  0  0  0  0  0  0  0  0  0  0  0
    8.9925  -15.2560   21.8906 N   0  0  0  0  0  0  0  0  0  0  0  0
    9.6413  -16.4809   22.3660 C   0  0  1  0  0  0  0  0  0  0  0  0
   10.4926  -17.0484   21.2858 C   0  0  0  0  0  0  0  0  0  0  0  0
   11.2893  -18.2333   21.6445 C   0  0  0  0  0  0  0  0  0  0  0  0
   10.7132  -19.2557   22.1398 O   0  0  0  0  0  0  0  0  0  0  0  0
   10.3276  -16.1587   23.6233 C   0  0  0  0  0  0  0  0  0  0  0  0
   11.0514  -17.0477   24.1703 O   0  0  0  0  0  0  0  0  0  0  0  0
   12.6618  -18.3202   21.4765 O   0  0  0  0  0  0  0  0  0  0  0  0
    6.8323  -11.9551   26.7427 N   0  0  0  0  0  0  0  0  0  0  0  0
    6.3743  -13.2759   26.5394 C   0  0  0  0  0  0  0  0  0  0  0  0
    5.2007  -13.5596   26.8872 O   0  0  0  0  0  0  0  0  0  0  0  0
    7.2627  -14.3209   25.9230 C   0  0  0  0  0  0  0  0  0  0  0  0
    8.6235  -13.7465   25.6235 C   0  0  0  0  0  0  0  0  0  0  0  0
    9.7067  -14.7971   25.6387 C   0  0  2  0  0  0  0  0  0  0  0  0
   10.2370  -14.9109   24.2713 N   0  0  0  0  0  0  0  0  0  0  0  0
    9.2207  -16.0941   26.1521 C   0  0  0  0  0  0  0  0  0  0  0  0
    8.4190  -16.8041   25.4999 O   0  0  0  0  0  0  0  0  0  0  0  0
    9.6477  -16.5607   27.3856 O   0  0  0  0  0  0  0  0  0  0  0  0
  1  5  1  0
  2  1  1  0
  3  4  1  0
  3  2  1  0
  4  5  1  0
  6  7  2  0
  5  6  1  6
  8  6  1  0
  9  8  1  0
  9 13  1  0
  9 10  1  6
 11 10  1  0
 11 15  1  0
 12 11  2  0
 13 14  2  0
 13 22  1  0
 16 17  1  0
 17 19  1  0
 18 17  2  0
 19 20  1  0
 21 20  1  6
 21 23  1  0
 22 21  1  0
 23 24  2  0
 23 25  1  0
M  END
$$$$
