PDQ.pdb
     RDKit          3D

 25 25  0  0  1  0  0  0  0  0999 V2000
    8.0301  -13.6202   20.6455 N   0  0  0  0  0  0  0  0  0  0  0  0
    8.3009  -12.3617   19.9868 C   0  0  0  0  0  0  0  0  0  0  0  0
    8.7114  -12.7852   18.5692 C   0  0  0  0  0  0  0  0  0  0  0  0
    7.6697  -13.8461   18.2958 C   0  0  0  0  0  0  0  0  0  0  0  0
    7.6011  -14.5478   19.6518 C   0  0  1  0  0  0  0  0  0  0  0  0
    8.4900  -15.7463   19.5260 C   0  0  0  0  0  0  0  0  0  0  0  0
    8.2353  -16.6171   18.6582 O   0  0  0  0  0  0  0  0  0  0  0  0
    9.5903  -15.8573   20.3923 N   0  0  0  0  0  0  0  0  0  0  0  0
   10.4941  -17.0103   20.3595 C   0  0  1  0  0  0  0  0  0  0  0  0
   10.9603  -17.2419   18.9657 C   0  0  0  0  0  0  0  0  0  0  0  0
   11.6174  -18.5341   18.7091 C   0  0  0  0  0  0  0  0  0  0  0  0
   10.9436  -19.6122   18.7878 O   0  0  0  0  0  0  0  0  0  0  0  0
   11.5444  -16.7778   21.3587 C   0  0  0  0  0  0  0  0  0  0  0  0
   12.3788  -15.8405   21.1622 O   0  0  0  0  0  0  0  0  0  0  0  0
   12.9559  -18.6667   18.3771 O   0  0  0  0  0  0  0  0  0  0  0  0
    7.7408  -14.7462   23.6431 N   0  0  0  0  0  0  0  0  0  0  0  0
    8.4405  -14.7433   24.8703 C   0  0  0  0  0  0  0  0  0  0  0  0
    7.9744  -14.0657   25.8202 O   0  0  0  0  0  0  0  0  0  0  0  0
    9.7111  -15.5287   25.0430 C   0  0  0  0  0  0  0  0  0  0  0  0
   10.0883  -16.2121   23.7538 C   0  0  0  0  0  0  0  0  0  0  0  0
   11.3983  -16.9540   23.8585 C   0  0  2  0  0  0  0  0  0  0  0  0
   11.6888  -17.5345   22.5385 N   0  0  0  0  0  0  0  0  0  0  0  0
   11.3763  -17.9806   24.9204 C   0  0  0  0  0  0  0  0  0  0  0  0
   11.0506  -19.1682   24.6842 O   0  0  0  0  0  0  0  0  0  0  0  0
   11.7207  -17.6469   26.2209 O   0  0  0  0  0  0  0  0  0  0  0  0
  1  5  1  0
  2  1  1  0
  3  4  1  0
  3  2  1  0
  4  5  1  0
  6  7  2  0
  5  6  1  6
  8  6  1  0
  9  8  1  0
  9 13  1  0
  9 10  1  6
 11 10  1  0
 11 15  1  0
 12 11  2  0
 13 14  2  0
 13 22  1  0
 16 17  1  0
 17 19  1  0
 18 17  2  0
 19 20  1  0
 21 20  1  6
 21 23  1  0
 22 21  1  0
 23 24  2  0
 23 25  1  0
M  END
$$$$
