PDQ.pdb
     RDKit          3D

 25 25  0  0  1  0  0  0  0  0999 V2000
    9.5781  -14.2179   18.6906 N   0  0  0  0  0  0  0  0  0  0  0  0
    8.7173  -14.1330   17.5319 C   0  0  0  0  0  0  0  0  0  0  0  0
    7.3075  -14.2487   18.1289 C   0  0  0  0  0  0  0  0  0  0  0  0
    7.4510  -13.3409   19.3292 C   0  0  0  0  0  0  0  0  0  0  0  0
    8.8561  -13.7051   19.8074 C   0  0  1  0  0  0  0  0  0  0  0  0
    8.6574  -14.7052   20.9041 C   0  0  0  0  0  0  0  0  0  0  0  0
    7.6130  -14.6613   21.5996 O   0  0  0  0  0  0  0  0  0  0  0  0
    9.6565  -15.6687   21.1202 N   0  0  0  0  0  0  0  0  0  0  0  0
    9.5958  -16.6168   22.2360 C   0  0  1  0  0  0  0  0  0  0  0  0
   10.5394  -17.7406   21.9903 C   0  0  0  0  0  0  0  0  0  0  0  0
   10.7013  -18.7028   23.0927 C   0  0  0  0  0  0  0  0  0  0  0  0
    9.6837  -19.3193   23.5477 O   0  0  0  0  0  0  0  0  0  0  0  0
    9.8088  -15.8572   23.4742 C   0  0  0  0  0  0  0  0  0  0  0  0
   10.8117  -15.0815   23.5510 O   0  0  0  0  0  0  0  0  0  0  0  0
   11.9170  -18.9960   23.6887 O   0  0  0  0  0  0  0  0  0  0  0  0
    5.3220  -12.8440   25.9736 N   0  0  0  0  0  0  0  0  0  0  0  0
    6.4065  -12.3756   26.7481 C   0  0  0  0  0  0  0  0  0  0  0  0
    6.2411  -11.3395   27.4395 O   0  0  0  0  0  0  0  0  0  0  0  0
    7.7279  -13.0932   26.7505 C   0  0  0  0  0  0  0  0  0  0  0  0
    7.7525  -14.1568   25.6831 C   0  0  0  0  0  0  0  0  0  0  0  0
    9.0426  -14.9397   25.6816 C   0  0  2  0  0  0  0  0  0  0  0  0
    8.9616  -15.9308   24.5976 N   0  0  0  0  0  0  0  0  0  0  0  0
    9.3148  -15.5720   26.9885 C   0  0  0  0  0  0  0  0  0  0  0  0
    9.4861  -14.8922   28.0282 O   0  0  0  0  0  0  0  0  0  0  0  0
    9.3878  -16.9521   27.0944 O   0  0  0  0  0  0  0  0  0  0  0  0
  1  5  1  0
  2  1  1  0
  3  4  1  0
  3  2  1  0
  4  5  1  0
  6  7  2  0
  5  6  1  1
  8  6  1  0
  9  8  1  0
  9 13  1  0
  9 10  1  6
 11 10  1  0
 11 15  1  0
 12 11  2  0
 13 14  2  0
 13 22  1  0
 16 17  1  0
 17 19  1  0
 18 17  2  0
 19 20  1  0
 21 20  1  1
 21 23  1  0
 22 21  1  0
 23 24  2  0
 23 25  1  0
M  END
$$$$
