PDQ.pdb
     RDKit          3D

 25 25  0  0  1  0  0  0  0  0999 V2000
    9.2472  -14.4902   18.8235 N   0  0  0  0  0  0  0  0  0  0  0  0
    8.4003  -14.0564   17.7347 C   0  0  0  0  0  0  0  0  0  0  0  0
    7.1678  -13.4856   18.4507 C   0  0  0  0  0  0  0  0  0  0  0  0
    7.8400  -12.7066   19.5582 C   0  0  0  0  0  0  0  0  0  0  0  0
    8.9657  -13.6631   19.9498 C   0  0  1  0  0  0  0  0  0  0  0  0
    8.4522  -14.4191   21.1360 C   0  0  0  0  0  0  0  0  0  0  0  0
    7.9585  -13.7901   22.1040 O   0  0  0  0  0  0  0  0  0  0  0  0
    8.5413  -15.8210   21.1260 N   0  0  0  0  0  0  0  0  0  0  0  0
    8.0856  -16.6383   22.2537 C   0  0  1  0  0  0  0  0  0  0  0  0
    7.6935  -17.9887   21.7675 C   0  0  0  0  0  0  0  0  0  0  0  0
    7.3503  -18.9757   22.8044 C   0  0  0  0  0  0  0  0  0  0  0  0
    6.1891  -18.9643   23.3279 O   0  0  0  0  0  0  0  0  0  0  0  0
    9.1366  -16.6038   23.2783 C   0  0  0  0  0  0  0  0  0  0  0  0
   10.3504  -16.5503   22.9079 O   0  0  0  0  0  0  0  0  0  0  0  0
    8.2247  -19.9463   23.2656 O   0  0  0  0  0  0  0  0  0  0  0  0
   10.0098  -14.1411   30.0655 N   0  0  0  0  0  0  0  0  0  0  0  0
    9.7866  -14.0028   28.6775 C   0  0  0  0  0  0  0  0  0  0  0  0
    9.0647  -13.0534   28.2820 O   0  0  0  0  0  0  0  0  0  0  0  0
   10.3940  -14.9629   27.6925 C   0  0  0  0  0  0  0  0  0  0  0  0
    9.3756  -15.3751   26.6609 C   0  0  0  0  0  0  0  0  0  0  0  0
    9.9463  -16.3268   25.6382 C   0  0  2  0  0  0  0  0  0  0  0  0
    8.8846  -16.6243   24.6645 N   0  0  0  0  0  0  0  0  0  0  0  0
   10.4874  -17.5541   26.2571 C   0  0  0  0  0  0  0  0  0  0  0  0
    9.8230  -18.6162   26.3081 O   0  0  0  0  0  0  0  0  0  0  0  0
   11.7615  -17.5569   26.8031 O   0  0  0  0  0  0  0  0  0  0  0  0
  1  5  1  0
  2  1  1  0
  3  4  1  0
  3  2  1  0
  4  5  1  0
  6  7  2  0
  5  6  1  1
  8  6  1  0
  9  8  1  0
  9 13  1  0
  9 10  1  6
 11 10  1  0
 11 15  1  0
 12 11  2  0
 13 14  2  0
 13 22  1  0
 16 17  1  0
 17 19  1  0
 18 17  2  0
 19 20  1  0
 21 20  1  1
 21 23  1  0
 22 21  1  0
 23 24  2  0
 23 25  1  0
M  END
$$$$
