PDQ.pdb
     RDKit          3D

 25 25  0  0  1  0  0  0  0  0999 V2000
    9.4467  -13.9429   19.0546 N   0  0  0  0  0  0  0  0  0  0  0  0
    8.6169  -13.7870   17.8807 C   0  0  0  0  0  0  0  0  0  0  0  0
    7.1909  -13.9138   18.4358 C   0  0  0  0  0  0  0  0  0  0  0  0
    7.3151  -13.0706   19.6844 C   0  0  0  0  0  0  0  0  0  0  0  0
    8.7028  -13.4780   20.1781 C   0  0  1  0  0  0  0  0  0  0  0  0
    8.4638  -14.5301   21.2165 C   0  0  0  0  0  0  0  0  0  0  0  0
    7.4411  -14.4623   21.9418 O   0  0  0  0  0  0  0  0  0  0  0  0
    9.4014  -15.5680   21.3458 N   0  0  0  0  0  0  0  0  0  0  0  0
    9.3109  -16.5712   22.4102 C   0  0  1  0  0  0  0  0  0  0  0  0
   10.0784  -17.7849   22.0212 C   0  0  0  0  0  0  0  0  0  0  0  0
    9.6422  -18.4589   20.7871 C   0  0  0  0  0  0  0  0  0  0  0  0
    8.5074  -19.0363   20.7499 O   0  0  0  0  0  0  0  0  0  0  0  0
    9.7209  -15.9251   23.6632 C   0  0  0  0  0  0  0  0  0  0  0  0
   10.4809  -14.9089   23.6072 O   0  0  0  0  0  0  0  0  0  0  0  0
   10.3989  -18.5115   19.6278 O   0  0  0  0  0  0  0  0  0  0  0  0
    7.4003  -11.8310   26.4765 N   0  0  0  0  0  0  0  0  0  0  0  0
    6.7027  -13.0500   26.6275 C   0  0  0  0  0  0  0  0  0  0  0  0
    5.5978  -13.0339   27.2257 O   0  0  0  0  0  0  0  0  0  0  0  0
    7.2613  -14.3379   26.0887 C   0  0  0  0  0  0  0  0  0  0  0  0
    8.7455  -14.2136   25.8583 C   0  0  0  0  0  0  0  0  0  0  0  0
    9.4788  -15.5051   26.1262 C   0  0  2  0  0  0  0  0  0  0  0  0
    9.3200  -16.3622   24.9413 N   0  0  0  0  0  0  0  0  0  0  0  0
    9.0064  -16.1716   27.3570 C   0  0  0  0  0  0  0  0  0  0  0  0
    9.3247  -15.7565   28.4966 O   0  0  0  0  0  0  0  0  0  0  0  0
    8.1885  -17.2877   27.2762 O   0  0  0  0  0  0  0  0  0  0  0  0
  1  5  1  0
  2  1  1  0
  3  4  1  0
  3  2  1  0
  4  5  1  0
  6  7  2  0
  5  6  1  1
  8  6  1  0
  9  8  1  0
  9 13  1  0
  9 10  1  6
 11 10  1  0
 11 15  1  0
 12 11  2  0
 13 14  2  0
 13 22  1  0
 16 17  1  0
 17 19  1  0
 18 17  2  0
 19 20  1  0
 21 20  1  6
 21 23  1  0
 22 21  1  0
 23 24  2  0
 23 25  1  0
M  END
$$$$
