PDQ.pdb
     RDKit          3D

 25 25  0  0  1  0  0  0  0  0999 V2000
    9.4797  -13.8159   18.8170 N   0  0  0  0  0  0  0  0  0  0  0  0
    8.3918  -13.6157   17.8858 C   0  0  0  0  0  0  0  0  0  0  0  0
    7.1444  -13.9197   18.7278 C   0  0  0  0  0  0  0  0  0  0  0  0
    7.5037  -13.1978   20.0065 C   0  0  0  0  0  0  0  0  0  0  0  0
    8.9904  -13.5312   20.1252 C   0  0  1  0  0  0  0  0  0  0  0  0
    9.0640  -14.6984   21.0605 C   0  0  0  0  0  0  0  0  0  0  0  0
    8.3414  -14.7148   22.0873 O   0  0  0  0  0  0  0  0  0  0  0  0
    9.9481  -15.7463   20.7549 N   0  0  0  0  0  0  0  0  0  0  0  0
   10.0829  -16.9267   21.6127 C   0  0  1  0  0  0  0  0  0  0  0  0
   10.8489  -17.9818   20.8961 C   0  0  0  0  0  0  0  0  0  0  0  0
   10.2704  -18.4526   19.6267 C   0  0  0  0  0  0  0  0  0  0  0  0
    9.1107  -18.9793   19.6179 O   0  0  0  0  0  0  0  0  0  0  0  0
   10.6459  -16.4810   22.8933 C   0  0  0  0  0  0  0  0  0  0  0  0
   11.6838  -15.7488   22.8835 O   0  0  0  0  0  0  0  0  0  0  0  0
   10.9149  -18.3606   18.4038 O   0  0  0  0  0  0  0  0  0  0  0  0
    9.6002  -13.0841   29.0824 N   0  0  0  0  0  0  0  0  0  0  0  0
    9.3448  -13.7318   27.8533 C   0  0  0  0  0  0  0  0  0  0  0  0
    8.2854  -13.4489   27.2397 O   0  0  0  0  0  0  0  0  0  0  0  0
   10.3112  -14.7351   27.2872 C   0  0  0  0  0  0  0  0  0  0  0  0
    9.7925  -15.2913   25.9860 C   0  0  0  0  0  0  0  0  0  0  0  0
   10.7133  -16.3324   25.3983 C   0  0  2  0  0  0  0  0  0  0  0  0
   10.1025  -16.8143   24.1499 N   0  0  0  0  0  0  0  0  0  0  0  0
   10.9846  -17.4359   26.3421 C   0  0  0  0  0  0  0  0  0  0  0  0
   10.3821  -18.5329   26.2663 O   0  0  0  0  0  0  0  0  0  0  0  0
   11.9261  -17.2790   27.3473 O   0  0  0  0  0  0  0  0  0  0  0  0
  1  5  1  0
  2  1  1  0
  3  4  1  0
  3  2  1  0
  4  5  1  0
  6  7  2  0
  5  6  1  1
  8  6  1  0
  9  8  1  0
  9 13  1  0
  9 10  1  6
 11 10  1  0
 11 15  1  0
 12 11  2  0
 13 14  2  0
 13 22  1  0
 16 17  1  0
 17 19  1  0
 18 17  2  0
 19 20  1  0
 21 20  1  1
 21 23  1  0
 22 21  1  0
 23 24  2  0
 23 25  1  0
M  END
$$$$
