PDQ.pdb
     RDKit          3D

 25 25  0  0  1  0  0  0  0  0999 V2000
    9.4967  -14.3598   18.6287 N   0  0  0  0  0  0  0  0  0  0  0  0
    8.5966  -14.0713   17.5345 C   0  0  0  0  0  0  0  0  0  0  0  0
    7.2329  -13.9296   18.2258 C   0  0  0  0  0  0  0  0  0  0  0  0
    7.6291  -13.1066   19.4305 C   0  0  0  0  0  0  0  0  0  0  0  0
    8.9630  -13.7527   19.8028 C   0  0  1  0  0  0  0  0  0  0  0  0
    8.6428  -14.7301   20.8912 C   0  0  0  0  0  0  0  0  0  0  0  0
    7.6839  -14.4987   21.6680 O   0  0  0  0  0  0  0  0  0  0  0  0
    9.4342  -15.8848   21.0078 N   0  0  0  0  0  0  0  0  0  0  0  0
    9.2738  -16.8301   22.1160 C   0  0  1  0  0  0  0  0  0  0  0  0
   10.1517  -18.0114   21.8978 C   0  0  0  0  0  0  0  0  0  0  0  0
    9.8089  -18.8698   20.7519 C   0  0  0  0  0  0  0  0  0  0  0  0
    8.5865  -19.1067   20.4833 O   0  0  0  0  0  0  0  0  0  0  0  0
    9.4913  -16.0891   23.3647 C   0  0  0  0  0  0  0  0  0  0  0  0
   10.5744  -15.4419   23.5111 O   0  0  0  0  0  0  0  0  0  0  0  0
   10.7478  -19.4557   19.9185 O   0  0  0  0  0  0  0  0  0  0  0  0
    5.3525  -12.6943   26.1849 N   0  0  0  0  0  0  0  0  0  0  0  0
    6.4984  -12.4328   26.9684 C   0  0  0  0  0  0  0  0  0  0  0  0
    6.4631  -11.4672   27.7717 O   0  0  0  0  0  0  0  0  0  0  0  0
    7.7325  -13.2837   26.8500 C   0  0  0  0  0  0  0  0  0  0  0  0
    7.5807  -14.2800   25.7293 C   0  0  0  0  0  0  0  0  0  0  0  0
    8.7831  -15.1821   25.5956 C   0  0  2  0  0  0  0  0  0  0  0  0
    8.5646  -16.0459   24.4251 N   0  0  0  0  0  0  0  0  0  0  0  0
    9.0327  -15.9668   26.8220 C   0  0  0  0  0  0  0  0  0  0  0  0
    9.5188  -15.4442   27.8529 O   0  0  0  0  0  0  0  0  0  0  0  0
    8.7300  -17.3190   26.8590 O   0  0  0  0  0  0  0  0  0  0  0  0
  1  5  1  0
  2  1  1  0
  3  4  1  0
  3  2  1  0
  4  5  1  0
  6  7  2  0
  5  6  1  1
  8  6  1  0
  9  8  1  0
  9 13  1  0
  9 10  1  6
 11 10  1  0
 11 15  1  0
 12 11  2  0
 13 14  2  0
 13 22  1  0
 16 17  1  0
 17 19  1  0
 18 17  2  0
 19 20  1  0
 21 20  1  1
 21 23  1  0
 22 21  1  0
 23 24  2  0
 23 25  1  0
M  END
$$$$
