PDQ.pdb
     RDKit          3D

 25 25  0  0  1  0  0  0  0  0999 V2000
    9.1170  -14.1785   18.6131 N   0  0  0  0  0  0  0  0  0  0  0  0
    8.0041  -13.7785   17.7811 C   0  0  0  0  0  0  0  0  0  0  0  0
    6.8917  -13.4809   18.7968 C   0  0  0  0  0  0  0  0  0  0  0  0
    7.6788  -12.7182   19.8381 C   0  0  0  0  0  0  0  0  0  0  0  0
    8.9794  -13.5200   19.8698 C   0  0  1  0  0  0  0  0  0  0  0  0
    8.8406  -14.4596   21.0276 C   0  0  0  0  0  0  0  0  0  0  0  0
    8.3588  -14.0417   22.1091 O   0  0  0  0  0  0  0  0  0  0  0  0
    9.2587  -15.7906   20.8632 N   0  0  0  0  0  0  0  0  0  0  0  0
    9.0047  -16.8175   21.8772 C   0  0  1  0  0  0  0  0  0  0  0  0
    9.1465  -18.1679   21.2690 C   0  0  0  0  0  0  0  0  0  0  0  0
   10.5166  -18.5822   20.9246 C   0  0  0  0  0  0  0  0  0  0  0  0
   11.1898  -19.2845   21.7468 O   0  0  0  0  0  0  0  0  0  0  0  0
    9.8776  -16.5334   23.0230 C   0  0  0  0  0  0  0  0  0  0  0  0
   11.0473  -16.0885   22.8053 O   0  0  0  0  0  0  0  0  0  0  0  0
   11.1458  -18.2545   19.7346 O   0  0  0  0  0  0  0  0  0  0  0  0
   10.1092  -13.4639   29.5899 N   0  0  0  0  0  0  0  0  0  0  0  0
    9.7024  -13.8320   28.2881 C   0  0  0  0  0  0  0  0  0  0  0  0
    8.6813  -13.2816   27.8052 O   0  0  0  0  0  0  0  0  0  0  0  0
   10.4667  -14.8553   27.4945 C   0  0  0  0  0  0  0  0  0  0  0  0
    9.6282  -15.3720   26.3537 C   0  0  0  0  0  0  0  0  0  0  0  0
   10.3867  -16.3345   25.4731 C   0  0  2  0  0  0  0  0  0  0  0  0
    9.4979  -16.7219   24.3667 N   0  0  0  0  0  0  0  0  0  0  0  0
   10.8796  -17.5084   26.2222 C   0  0  0  0  0  0  0  0  0  0  0  0
   10.3119  -18.6241   26.1497 O   0  0  0  0  0  0  0  0  0  0  0  0
   11.9978  -17.3991   27.0340 O   0  0  0  0  0  0  0  0  0  0  0  0
  1  5  1  0
  2  1  1  0
  3  4  1  0
  3  2  1  0
  4  5  1  0
  6  7  2  0
  5  6  1  1
  8  6  1  0
  9  8  1  0
  9 13  1  0
  9 10  1  6
 11 10  1  0
 11 15  1  0
 12 11  2  0
 13 14  2  0
 13 22  1  0
 16 17  1  0
 17 19  1  0
 18 17  2  0
 19 20  1  0
 21 20  1  1
 21 23  1  0
 22 21  1  0
 23 24  2  0
 23 25  1  0
M  END
$$$$
