PDQ.pdb
     RDKit          3D

 25 25  0  0  1  0  0  0  0  0999 V2000
   12.4503  -22.0784   24.4186 N   0  0  0  0  0  0  0  0  0  0  0  0
   12.8814  -22.6537   23.1639 C   0  0  0  0  0  0  0  0  0  0  0  0
   13.9688  -23.6517   23.5870 C   0  0  0  0  0  0  0  0  0  0  0  0
   13.3019  -24.2779   24.7906 C   0  0  0  0  0  0  0  0  0  0  0  0
   12.6526  -23.0549   25.4371 C   0  0  1  0  0  0  0  0  0  0  0  0
   13.6040  -22.6172   26.5075 C   0  0  0  0  0  0  0  0  0  0  0  0
   13.8653  -23.3944   27.4584 O   0  0  0  0  0  0  0  0  0  0  0  0
   14.1777  -21.3386   26.4110 N   0  0  0  0  0  0  0  0  0  0  0  0
   15.1474  -20.8442   27.3922 C   0  0  1  0  0  0  0  0  0  0  0  0
   15.9845  -19.7794   26.7763 C   0  0  0  0  0  0  0  0  0  0  0  0
   16.9769  -20.2279   25.7857 C   0  0  0  0  0  0  0  0  0  0  0  0
   17.4639  -19.3925   24.9565 O   0  0  0  0  0  0  0  0  0  0  0  0
   14.4012  -20.4596   28.5967 C   0  0  0  0  0  0  0  0  0  0  0  0
   13.6544  -19.4331   28.5518 O   0  0  0  0  0  0  0  0  0  0  0  0
   17.4342  -21.5319   25.6873 O   0  0  0  0  0  0  0  0  0  0  0  0
   10.3544  -23.6968   29.9595 N   0  0  0  0  0  0  0  0  0  0  0  0
   11.1135  -23.4372   31.1222 C   0  0  0  0  0  0  0  0  0  0  0  0
   10.6123  -23.7261   32.2377 O   0  0  0  0  0  0  0  0  0  0  0  0
   12.4869  -22.8312   31.0353 C   0  0  0  0  0  0  0  0  0  0  0  0
   12.4018  -21.3266   31.0540 C   0  0  0  0  0  0  0  0  0  0  0  0
   13.7617  -20.6736   31.0147 C   0  0  2  0  0  0  0  0  0  0  0  0
   14.4577  -21.1646   29.8153 N   0  0  0  0  0  0  0  0  0  0  0  0
   14.5387  -20.9249   32.2456 C   0  0  0  0  0  0  0  0  0  0  0  0
   15.6038  -21.5863   32.2308 O   0  0  0  0  0  0  0  0  0  0  0  0
   14.0992  -20.4268   33.4622 O   0  0  0  0  0  0  0  0  0  0  0  0
  1  5  1  0
  2  1  1  0
  3  4  1  0
  3  2  1  0
  4  5  1  0
  6  7  2  0
  5  6  1  1
  8  6  1  0
  9  8  1  0
  9 13  1  0
  9 10  1  6
 11 10  1  0
 11 15  1  0
 12 11  2  0
 13 14  2  0
 13 22  1  0
 16 17  1  0
 17 19  1  0
 18 17  2  0
 19 20  1  0
 21 20  1  1
 21 23  1  0
 22 21  1  0
 23 24  2  0
 23 25  1  0
M  END
$$$$
