PDQ.pdb
     RDKit          3D

 25 25  0  0  1  0  0  0  0  0999 V2000
    9.2447  -14.3216   18.5829 N   0  0  0  0  0  0  0  0  0  0  0  0
    8.0873  -14.0685   17.7539 C   0  0  0  0  0  0  0  0  0  0  0  0
    6.9675  -13.8219   18.7750 C   0  0  0  0  0  0  0  0  0  0  0  0
    7.6962  -12.9377   19.7612 C   0  0  0  0  0  0  0  0  0  0  0  0
    9.0656  -13.6145   19.8075 C   0  0  1  0  0  0  0  0  0  0  0  0
    9.0315  -14.5018   21.0133 C   0  0  0  0  0  0  0  0  0  0  0  0
    8.6170  -14.0442   22.1065 O   0  0  0  0  0  0  0  0  0  0  0  0
    9.4692  -15.8299   20.8795 N   0  0  0  0  0  0  0  0  0  0  0  0
    9.3407  -16.8053   21.9656 C   0  0  1  0  0  0  0  0  0  0  0  0
    9.3705  -18.1839   21.4067 C   0  0  0  0  0  0  0  0  0  0  0  0
    9.3737  -19.2806   22.3889 C   0  0  0  0  0  0  0  0  0  0  0  0
    8.2703  -19.7887   22.7722 O   0  0  0  0  0  0  0  0  0  0  0  0
   10.3708  -16.4938   22.9643 C   0  0  0  0  0  0  0  0  0  0  0  0
   11.5297  -16.1617   22.5644 O   0  0  0  0  0  0  0  0  0  0  0  0
   10.5247  -19.8173   22.9426 O   0  0  0  0  0  0  0  0  0  0  0  0
   10.8203  -13.4430   28.3740 N   0  0  0  0  0  0  0  0  0  0  0  0
    9.7577  -14.3614   28.2219 C   0  0  0  0  0  0  0  0  0  0  0  0
    8.8419  -14.3606   29.0821 O   0  0  0  0  0  0  0  0  0  0  0  0
    9.7168  -15.3184   27.0627 C   0  0  0  0  0  0  0  0  0  0  0  0
   10.8435  -15.0335   26.1033 C   0  0  0  0  0  0  0  0  0  0  0  0
   11.2415  -16.2515   25.3062 C   0  0  2  0  0  0  0  0  0  0  0  0
   10.1554  -16.5371   24.3560 N   0  0  0  0  0  0  0  0  0  0  0  0
   11.5390  -17.4124   26.1698 C   0  0  0  0  0  0  0  0  0  0  0  0
   12.5751  -17.4632   26.8743 O   0  0  0  0  0  0  0  0  0  0  0  0
   10.6650  -18.4871   26.2199 O   0  0  0  0  0  0  0  0  0  0  0  0
  1  5  1  0
  2  1  1  0
  3  4  1  0
  3  2  1  0
  4  5  1  0
  6  7  2  0
  5  6  1  1
  8  6  1  0
  9  8  1  0
  9 13  1  0
  9 10  1  6
 11 10  1  0
 11 15  1  0
 12 11  2  0
 13 14  2  0
 13 22  1  0
 16 17  1  0
 17 19  1  0
 18 17  2  0
 19 20  1  0
 21 20  1  1
 21 23  1  0
 22 21  1  0
 23 24  2  0
 23 25  1  0
M  END
$$$$
