PDQ.pdb
     RDKit          3D

 25 25  0  0  1  0  0  0  0  0999 V2000
    9.5027  -14.3573   18.3880 N   0  0  0  0  0  0  0  0  0  0  0  0
    8.6318  -14.2567   17.2381 C   0  0  0  0  0  0  0  0  0  0  0  0
    7.2498  -14.0126   17.8609 C   0  0  0  0  0  0  0  0  0  0  0  0
    7.6118  -13.0017   18.9250 C   0  0  0  0  0  0  0  0  0  0  0  0
    8.9365  -13.5701   19.4328 C   0  0  1  0  0  0  0  0  0  0  0  0
    8.5888  -14.3588   20.6573 C   0  0  0  0  0  0  0  0  0  0  0  0
    7.8194  -13.8613   21.5158 O   0  0  0  0  0  0  0  0  0  0  0  0
    9.1410  -15.6418   20.8061 N   0  0  0  0  0  0  0  0  0  0  0  0
    8.7873  -16.5166   21.9273 C   0  0  1  0  0  0  0  0  0  0  0  0
    9.3806  -17.8648   21.7173 C   0  0  0  0  0  0  0  0  0  0  0  0
   10.8511  -17.9342   21.7300 C   0  0  0  0  0  0  0  0  0  0  0  0
   11.5138  -17.4746   20.7440 O   0  0  0  0  0  0  0  0  0  0  0  0
    9.1759  -15.8287   23.1649 C   0  0  0  0  0  0  0  0  0  0  0  0
   10.2374  -15.1313   23.1695 O   0  0  0  0  0  0  0  0  0  0  0  0
   11.5890  -18.4787   22.7684 O   0  0  0  0  0  0  0  0  0  0  0  0
    6.6052  -11.1006   27.7977 N   0  0  0  0  0  0  0  0  0  0  0  0
    6.5251  -12.2991   27.0542 C   0  0  0  0  0  0  0  0  0  0  0  0
    5.4296  -12.5923   26.5132 O   0  0  0  0  0  0  0  0  0  0  0  0
    7.7160  -13.2056   26.9093 C   0  0  0  0  0  0  0  0  0  0  0  0
    7.5339  -14.1321   25.7346 C   0  0  0  0  0  0  0  0  0  0  0  0
    8.7440  -15.0012   25.4951 C   0  0  2  0  0  0  0  0  0  0  0  0
    8.4380  -15.8900   24.3636 N   0  0  0  0  0  0  0  0  0  0  0  0
    9.1365  -15.7582   26.7014 C   0  0  0  0  0  0  0  0  0  0  0  0
    8.8089  -16.9576   26.8640 O   0  0  0  0  0  0  0  0  0  0  0  0
    9.8869  -15.1485   27.6945 O   0  0  0  0  0  0  0  0  0  0  0  0
  1  5  1  0
  2  1  1  0
  3  4  1  0
  3  2  1  0
  4  5  1  0
  6  7  2  0
  5  6  1  1
  8  6  1  0
  9  8  1  0
  9 13  1  0
  9 10  1  6
 11 10  1  0
 11 15  1  0
 12 11  2  0
 13 14  2  0
 13 22  1  0
 16 17  1  0
 17 19  1  0
 18 17  2  0
 19 20  1  0
 21 20  1  1
 21 23  1  0
 22 21  1  0
 23 24  2  0
 23 25  1  0
M  END
$$$$
