PDQ.pdb
     RDKit          3D

 25 25  0  0  1  0  0  0  0  0999 V2000
    9.6183  -14.1297   18.5222 N   0  0  0  0  0  0  0  0  0  0  0  0
    8.8221  -14.0067   17.3214 C   0  0  0  0  0  0  0  0  0  0  0  0
    7.3819  -13.9794   17.8529 C   0  0  0  0  0  0  0  0  0  0  0  0
    7.5509  -13.0498   19.0331 C   0  0  0  0  0  0  0  0  0  0  0  0
    8.8947  -13.5202   19.5884 C   0  0  1  0  0  0  0  0  0  0  0  0
    8.5581  -14.4637   20.7015 C   0  0  0  0  0  0  0  0  0  0  0  0
    7.6280  -14.1776   21.4949 O   0  0  0  0  0  0  0  0  0  0  0  0
    9.3021  -15.6491   20.8221 N   0  0  0  0  0  0  0  0  0  0  0  0
    9.0653  -16.6107   21.9022 C   0  0  1  0  0  0  0  0  0  0  0  0
    9.7762  -17.8834   21.6046 C   0  0  0  0  0  0  0  0  0  0  0  0
    9.6354  -18.9531   22.6062 C   0  0  0  0  0  0  0  0  0  0  0  0
   10.6614  -19.3659   23.2382 O   0  0  0  0  0  0  0  0  0  0  0  0
    9.4235  -15.9541   23.1656 C   0  0  0  0  0  0  0  0  0  0  0  0
   10.5294  -15.3338   23.2403 O   0  0  0  0  0  0  0  0  0  0  0  0
    8.4313  -19.5613   22.9217 O   0  0  0  0  0  0  0  0  0  0  0  0
    5.4495  -12.5952   26.1286 N   0  0  0  0  0  0  0  0  0  0  0  0
    6.6002  -12.3581   26.9128 C   0  0  0  0  0  0  0  0  0  0  0  0
    6.5772  -11.4052   27.7315 O   0  0  0  0  0  0  0  0  0  0  0  0
    7.8251  -13.2198   26.7772 C   0  0  0  0  0  0  0  0  0  0  0  0
    7.6566  -14.2019   25.6464 C   0  0  0  0  0  0  0  0  0  0  0  0
    8.8777  -15.0663   25.4492 C   0  0  2  0  0  0  0  0  0  0  0  0
    8.6098  -15.9648   24.3158 N   0  0  0  0  0  0  0  0  0  0  0  0
    9.2382  -15.8124   26.6721 C   0  0  0  0  0  0  0  0  0  0  0  0
    8.9843  -17.0337   26.7995 O   0  0  0  0  0  0  0  0  0  0  0  0
    9.8748  -15.1675   27.7210 O   0  0  0  0  0  0  0  0  0  0  0  0
  1  5  1  0
  2  1  1  0
  3  4  1  0
  3  2  1  0
  4  5  1  0
  6  7  2  0
  5  6  1  1
  8  6  1  0
  9  8  1  0
  9 13  1  0
  9 10  1  6
 11 10  1  0
 11 15  1  0
 12 11  2  0
 13 14  2  0
 13 22  1  0
 16 17  1  0
 17 19  1  0
 18 17  2  0
 19 20  1  0
 21 20  1  1
 21 23  1  0
 22 21  1  0
 23 24  2  0
 23 25  1  0
M  END
$$$$
