PDQ.pdb
     RDKit          3D

 25 25  0  0  1  0  0  0  0  0999 V2000
    9.4819  -13.8396   19.0140 N   0  0  0  0  0  0  0  0  0  0  0  0
    8.6750  -13.9108   17.8162 C   0  0  0  0  0  0  0  0  0  0  0  0
    7.2772  -14.2542   18.3508 C   0  0  0  0  0  0  0  0  0  0  0  0
    7.2107  -13.3233   19.5401 C   0  0  0  0  0  0  0  0  0  0  0  0
    8.6323  -13.4432   20.0878 C   0  0  1  0  0  0  0  0  0  0  0  0
    8.5506  -14.4516   21.1919 C   0  0  0  0  0  0  0  0  0  0  0  0
    7.6109  -14.3852   22.0220 O   0  0  0  0  0  0  0  0  0  0  0  0
    9.5382  -15.4480   21.2627 N   0  0  0  0  0  0  0  0  0  0  0  0
    9.5581  -16.4503   22.3316 C   0  0  1  0  0  0  0  0  0  0  0  0
   10.4747  -17.5615   21.9593 C   0  0  0  0  0  0  0  0  0  0  0  0
   10.5402  -18.6902   22.9023 C   0  0  0  0  0  0  0  0  0  0  0  0
   10.6637  -18.4648   24.1498 O   0  0  0  0  0  0  0  0  0  0  0  0
    9.8687  -15.7533   23.5860 C   0  0  0  0  0  0  0  0  0  0  0  0
   10.6038  -14.7183   23.5447 O   0  0  0  0  0  0  0  0  0  0  0  0
   10.4744  -20.0201   22.5198 O   0  0  0  0  0  0  0  0  0  0  0  0
    5.7273  -12.9510   25.7685 N   0  0  0  0  0  0  0  0  0  0  0  0
    6.6406  -12.6418   26.8009 C   0  0  0  0  0  0  0  0  0  0  0  0
    6.3663  -11.6895   27.5734 O   0  0  0  0  0  0  0  0  0  0  0  0
    7.9103  -13.4277   26.9774 C   0  0  0  0  0  0  0  0  0  0  0  0
    8.0950  -14.3949   25.8364 C   0  0  0  0  0  0  0  0  0  0  0  0
    9.3463  -15.2254   25.9838 C   0  0  2  0  0  0  0  0  0  0  0  0
    9.3970  -16.1607   24.8496 N   0  0  0  0  0  0  0  0  0  0  0  0
    9.4014  -15.9282   27.2819 C   0  0  0  0  0  0  0  0  0  0  0  0
    9.1779  -17.1584   27.3769 O   0  0  0  0  0  0  0  0  0  0  0  0
    9.7061  -15.2311   28.4406 O   0  0  0  0  0  0  0  0  0  0  0  0
  1  5  1  0
  2  1  1  0
  3  4  1  0
  3  2  1  0
  4  5  1  0
  6  7  2  0
  5  6  1  1
  8  6  1  0
  9  8  1  0
  9 13  1  0
  9 10  1  6
 11 10  1  0
 11 15  1  0
 12 11  2  0
 13 14  2  0
 13 22  1  0
 16 17  1  0
 17 19  1  0
 18 17  2  0
 19 20  1  0
 21 20  1  1
 21 23  1  0
 22 21  1  0
 23 24  2  0
 23 25  1  0
M  END
$$$$
