PDQ.pdb
     RDKit          3D

 25 25  0  0  1  0  0  0  0  0999 V2000
    9.5357  -14.5233   18.3972 N   0  0  0  0  0  0  0  0  0  0  0  0
    8.7528  -14.2111   17.2222 C   0  0  0  0  0  0  0  0  0  0  0  0
    7.3746  -13.8570   17.7989 C   0  0  0  0  0  0  0  0  0  0  0  0
    7.7893  -13.0002   18.9734 C   0  0  0  0  0  0  0  0  0  0  0  0
    9.0050  -13.7716   19.4858 C   0  0  1  0  0  0  0  0  0  0  0  0
    8.4944  -14.6205   20.6087 C   0  0  0  0  0  0  0  0  0  0  0  0
    7.6205  -14.1605   21.3841 O   0  0  0  0  0  0  0  0  0  0  0  0
    9.0158  -15.9162   20.7587 N   0  0  0  0  0  0  0  0  0  0  0  0
    8.6381  -16.7829   21.8785 C   0  0  1  0  0  0  0  0  0  0  0  0
    9.2247  -18.1364   21.6843 C   0  0  0  0  0  0  0  0  0  0  0  0
    8.6354  -18.9489   20.6073 C   0  0  0  0  0  0  0  0  0  0  0  0
    7.4224  -18.7618   20.2662 O   0  0  0  0  0  0  0  0  0  0  0  0
    9.0123  -16.0917   23.1186 C   0  0  0  0  0  0  0  0  0  0  0  0
   10.2320  -15.7918   23.3075 O   0  0  0  0  0  0  0  0  0  0  0  0
    9.3254  -19.9314   19.9160 O   0  0  0  0  0  0  0  0  0  0  0  0
    5.2938  -12.3289   26.4044 N   0  0  0  0  0  0  0  0  0  0  0  0
    6.4965  -12.2466   27.1410 C   0  0  0  0  0  0  0  0  0  0  0  0
    6.5802  -11.3837   28.0504 O   0  0  0  0  0  0  0  0  0  0  0  0
    7.6511  -13.1649   26.8500 C   0  0  0  0  0  0  0  0  0  0  0  0
    7.3543  -14.0201   25.6450 C   0  0  0  0  0  0  0  0  0  0  0  0
    8.5089  -14.9213   25.2815 C   0  0  2  0  0  0  0  0  0  0  0  0
    8.0951  -15.7321   24.1259 N   0  0  0  0  0  0  0  0  0  0  0  0
    8.9430  -15.7600   26.4173 C   0  0  0  0  0  0  0  0  0  0  0  0
    9.5332  -15.2727   27.4105 O   0  0  0  0  0  0  0  0  0  0  0  0
    8.7031  -17.1252   26.4085 O   0  0  0  0  0  0  0  0  0  0  0  0
  1  5  1  0
  2  1  1  0
  3  4  1  0
  3  2  1  0
  4  5  1  0
  6  7  2  0
  5  6  1  1
  8  6  1  0
  9  8  1  0
  9 13  1  0
  9 10  1  6
 11 10  1  0
 11 15  1  0
 12 11  2  0
 13 14  2  0
 13 22  1  0
 16 17  1  0
 17 19  1  0
 18 17  2  0
 19 20  1  0
 21 20  1  1
 21 23  1  0
 22 21  1  0
 23 24  2  0
 23 25  1  0
M  END
$$$$
