EIS.pdb
     RDKit          3D

 24 23  0  0  1  0  0  0  0  0999 V2000
   17.5507  -11.9725  -16.3050 N   0  0  0  0  0  0  0  0  0  0  0  0
   18.2010  -10.7846  -16.8533 C   0  0  1  0  0  0  0  0  0  0  0  0
   17.1367   -9.7849  -17.2062 C   0  0  0  0  0  0  0  0  0  0  0  0
   16.2624  -10.3839  -18.2885 C   0  0  0  0  0  0  0  0  0  0  0  0
   14.8412  -10.0904  -18.0405 C   0  0  0  0  0  0  0  0  0  0  0  0
   14.3477   -8.9262  -18.0382 O   0  0  0  0  0  0  0  0  0  0  0  0
   19.2161  -10.2539  -15.9245 C   0  0  0  0  0  0  0  0  0  0  0  0
   18.9515  -10.1713  -14.7093 O   0  0  0  0  0  0  0  0  0  0  0  0
   13.9668  -11.1335  -17.7914 O   0  0  0  0  0  0  0  0  0  0  0  0
   23.8142  -10.0318  -13.4847 C   0  0  0  0  0  0  0  0  0  0  0  0
   23.8579   -9.3760  -14.8587 C   0  0  0  0  0  0  0  0  0  0  0  0
   22.7623   -9.9647  -15.7235 C   0  0  2  0  0  0  0  0  0  0  0  0
   23.2309   -9.8923  -17.1620 C   0  0  0  0  0  0  0  0  0  0  0  0
   21.4852   -9.2238  -15.5626 C   0  0  2  0  0  0  0  0  0  0  0  0
   20.4721   -9.8427  -16.3944 N   0  0  0  0  0  0  0  0  0  0  0  0
   21.5511   -7.7804  -15.7563 C   0  0  0  0  0  0  0  0  0  0  0  0
   22.1171   -7.3479  -16.7933 O   0  0  0  0  0  0  0  0  0  0  0  0
   18.7261   -5.4019  -15.5200 O   0  0  0  0  0  0  0  0  0  0  0  0
   19.6834   -4.8695  -14.6854 C   0  0  0  0  0  0  0  0  0  0  0  0
   21.0881   -5.4099  -14.9926 C   0  0  2  0  0  0  0  0  0  0  0  0
   21.0198   -6.8440  -14.8535 N   0  0  0  0  0  0  0  0  0  0  0  0
   22.0705   -4.7821  -14.0951 C   0  0  0  0  0  0  0  0  0  0  0  0
   22.3573   -3.4449  -14.2321 O   0  0  0  0  0  0  0  0  0  0  0  0
   22.6391   -5.4550  -13.2174 O   0  0  0  0  0  0  0  0  0  0  0  0
  2  1  1  1
  3  2  1  0
  4  3  1  0
  5  4  1  0
  6  5  2  0
  7  2  1  0
  7  8  2  0
  9  5  1  0
 10 11  1  0
 11 12  1  0
 12 13  1  6
 14 12  1  0
 14 15  1  6
 15  7  1  0
 16 14  1  0
 17 16  2  0
 19 18  1  0
 20 19  1  1
 20 22  1  0
 20 21  1  0
 21 16  1  0
 22 23  1  0
 24 22  2  0
M  END
$$$$
