EIS.pdb
     RDKit          3D

 24 23  0  0  1  0  0  0  0  0999 V2000
   20.8299  -20.7057  -11.4977 N   0  0  0  0  0  0  0  0  0  0  0  0
   21.4347  -21.1325  -12.7574 C   0  0  1  0  0  0  0  0  0  0  0  0
   20.4167  -20.9658  -13.8496 C   0  0  0  0  0  0  0  0  0  0  0  0
   19.2568  -21.8972  -13.5641 C   0  0  0  0  0  0  0  0  0  0  0  0
   17.9713  -21.1891  -13.6803 C   0  0  0  0  0  0  0  0  0  0  0  0
   17.8604  -19.9659  -13.9808 O   0  0  0  0  0  0  0  0  0  0  0  0
   22.6941  -20.4107  -13.0175 C   0  0  0  0  0  0  0  0  0  0  0  0
   22.7451  -19.1796  -12.8295 O   0  0  0  0  0  0  0  0  0  0  0  0
   16.7939  -21.8794  -13.4521 O   0  0  0  0  0  0  0  0  0  0  0  0
   26.8298  -21.4717  -10.4881 C   0  0  0  0  0  0  0  0  0  0  0  0
   25.7735  -20.8157  -11.3677 C   0  0  0  0  0  0  0  0  0  0  0  0
   26.1298  -21.0431  -12.8225 C   0  0  2  0  0  0  0  0  0  0  0  0
   27.4769  -20.3952  -13.0666 C   0  0  0  0  0  0  0  0  0  0  0  0
   25.1087  -20.4602  -13.7300 C   0  0  2  0  0  0  0  0  0  0  0  0
   23.8310  -21.0945  -13.4728 N   0  0  0  0  0  0  0  0  0  0  0  0
   25.4425  -20.4483  -15.1491 C   0  0  0  0  0  0  0  0  0  0  0  0
   25.4351  -21.5436  -15.7678 O   0  0  0  0  0  0  0  0  0  0  0  0
   25.5411  -17.9354  -19.2261 O   0  0  0  0  0  0  0  0  0  0  0  0
   25.2789  -18.1042  -17.8848 C   0  0  0  0  0  0  0  0  0  0  0  0
   26.1188  -19.2314  -17.2655 C   0  0  2  0  0  0  0  0  0  0  0  0
   25.7718  -19.2858  -15.8664 N   0  0  0  0  0  0  0  0  0  0  0  0
   27.5481  -18.9758  -17.5032 C   0  0  0  0  0  0  0  0  0  0  0  0
   28.1869  -19.6095  -18.5422 O   0  0  0  0  0  0  0  0  0  0  0  0
   28.1763  -18.1920  -16.7702 O   0  0  0  0  0  0  0  0  0  0  0  0
  2  1  1  1
  3  2  1  0
  4  3  1  0
  5  4  1  0
  6  5  2  0
  7  2  1  0
  7  8  2  0
  9  5  1  0
 10 11  1  0
 11 12  1  0
 12 13  1  6
 14 12  1  0
 14 15  1  6
 15  7  1  0
 16 14  1  0
 17 16  2  0
 19 18  1  0
 20 19  1  6
 20 22  1  0
 20 21  1  0
 21 16  1  0
 22 23  1  0
 24 22  2  0
M  END
$$$$
