EIS.pdb
     RDKit          3D

 24 23  0  0  1  0  0  0  0  0999 V2000
   18.3615  -11.2469  -18.5379 N   0  0  0  0  0  0  0  0  0  0  0  0
   19.4047  -10.2288  -18.6372 C   0  0  1  0  0  0  0  0  0  0  0  0
   18.9425   -9.1722  -19.6000 C   0  0  0  0  0  0  0  0  0  0  0  0
   18.9560   -9.7622  -20.9951 C   0  0  0  0  0  0  0  0  0  0  0  0
   20.2868   -9.6294  -21.6106 C   0  0  0  0  0  0  0  0  0  0  0  0
   20.7094   -8.5744  -22.1649 O   0  0  0  0  0  0  0  0  0  0  0  0
   19.7585   -9.6944  -17.3090 C   0  0  0  0  0  0  0  0  0  0  0  0
   18.8858   -9.6311  -16.4215 O   0  0  0  0  0  0  0  0  0  0  0  0
   21.1511  -10.7100  -21.5968 O   0  0  0  0  0  0  0  0  0  0  0  0
   23.5975  -11.7764  -14.7954 C   0  0  0  0  0  0  0  0  0  0  0  0
   22.3443  -11.0154  -15.2079 C   0  0  0  0  0  0  0  0  0  0  0  0
   22.6659   -9.5371  -15.2860 C   0  0  2  0  0  0  0  0  0  0  0  0
   23.0816   -9.0890  -13.9001 C   0  0  0  0  0  0  0  0  0  0  0  0
   21.4952   -8.7495  -15.7496 C   0  0  2  0  0  0  0  0  0  0  0  0
   21.0634   -9.2582  -17.0365 N   0  0  0  0  0  0  0  0  0  0  0  0
   21.6574   -7.3007  -15.7558 C   0  0  0  0  0  0  0  0  0  0  0  0
   22.4918   -6.8022  -16.5546 O   0  0  0  0  0  0  0  0  0  0  0  0
   18.6602   -4.8484  -15.2840 O   0  0  0  0  0  0  0  0  0  0  0  0
   19.6861   -4.4452  -14.4586 C   0  0  0  0  0  0  0  0  0  0  0  0
   21.0479   -4.9902  -14.9147 C   0  0  2  0  0  0  0  0  0  0  0  0
   20.9368   -6.4284  -14.9226 N   0  0  0  0  0  0  0  0  0  0  0  0
   22.1076   -4.4911  -14.0246 C   0  0  0  0  0  0  0  0  0  0  0  0
   22.7096   -3.2857  -14.2959 O   0  0  0  0  0  0  0  0  0  0  0  0
   22.4583   -5.1539  -13.0325 O   0  0  0  0  0  0  0  0  0  0  0  0
  2  1  1  1
  3  2  1  0
  4  3  1  0
  5  4  1  0
  6  5  2  0
  7  2  1  0
  7  8  2  0
  9  5  1  0
 10 11  1  0
 11 12  1  0
 12 13  1  1
 14 12  1  0
 14 15  1  6
 15  7  1  0
 16 14  1  0
 17 16  2  0
 19 18  1  0
 20 19  1  1
 20 22  1  0
 20 21  1  0
 21 16  1  0
 22 23  1  0
 24 22  2  0
M  END
$$$$
