EIS.pdb
     RDKit          3D

 24 23  0  0  1  0  0  0  0  0999 V2000
   23.1863  -12.0766  -17.6831 N   0  0  0  0  0  0  0  0  0  0  0  0
   23.0169  -10.9454  -18.5922 C   0  0  1  0  0  0  0  0  0  0  0  0
   22.4705  -11.4631  -19.8923 C   0  0  0  0  0  0  0  0  0  0  0  0
   23.4429  -12.4859  -20.4427 C   0  0  0  0  0  0  0  0  0  0  0  0
   22.9982  -13.8551  -20.1345 C   0  0  0  0  0  0  0  0  0  0  0  0
   21.9937  -14.1297  -19.4171 O   0  0  0  0  0  0  0  0  0  0  0  0
   22.1818   -9.8922  -17.9856 C   0  0  0  0  0  0  0  0  0  0  0  0
   21.8935   -8.8789  -18.6516 O   0  0  0  0  0  0  0  0  0  0  0  0
   23.7039  -14.9290  -20.6479 O   0  0  0  0  0  0  0  0  0  0  0  0
   18.8296  -11.9677  -15.6228 C   0  0  0  0  0  0  0  0  0  0  0  0
   18.8252  -10.4882  -15.9849 C   0  0  0  0  0  0  0  0  0  0  0  0
   19.8757   -9.7735  -15.1600 C   0  0  2  0  0  0  0  0  0  0  0  0
   19.1547   -8.7959  -14.2551 C   0  0  0  0  0  0  0  0  0  0  0  0
   20.8470   -9.0530  -16.0222 C   0  0  2  0  0  0  0  0  0  0  0  0
   21.7107  -10.0199  -16.6706 N   0  0  0  0  0  0  0  0  0  0  0  0
   21.6010   -7.9812  -15.3837 C   0  0  0  0  0  0  0  0  0  0  0  0
   22.4080   -8.2891  -14.4689 O   0  0  0  0  0  0  0  0  0  0  0  0
   22.3486   -3.1282  -15.3060 O   0  0  0  0  0  0  0  0  0  0  0  0
   21.8436   -4.2679  -15.8911 C   0  0  0  0  0  0  0  0  0  0  0  0
   22.1174   -5.5237  -15.0499 C   0  0  2  0  0  0  0  0  0  0  0  0
   21.4798   -6.6247  -15.7296 N   0  0  0  0  0  0  0  0  0  0  0  0
   21.6262   -5.3210  -13.6780 C   0  0  0  0  0  0  0  0  0  0  0  0
   22.4925   -4.8833  -12.7049 O   0  0  0  0  0  0  0  0  0  0  0  0
   20.4352   -5.5438  -13.3981 O   0  0  0  0  0  0  0  0  0  0  0  0
  2  1  1  1
  3  2  1  0
  4  3  1  0
  5  4  1  0
  6  5  2  0
  7  2  1  0
  7  8  2  0
  9  5  1  0
 10 11  1  0
 11 12  1  0
 12 13  1  1
 14 12  1  0
 14 15  1  1
 15  7  1  0
 16 14  1  0
 17 16  2  0
 19 18  1  0
 20 19  1  6
 20 22  1  0
 20 21  1  0
 21 16  1  0
 22 23  1  0
 24 22  2  0
M  END
$$$$
