EIS.pdb
     RDKit          3D

 24 23  0  0  1  0  0  0  0  0999 V2000
   15.7832  -11.9424  -13.0745 N   0  0  0  0  0  0  0  0  0  0  0  0
   16.3072  -10.6045  -13.3390 C   0  0  1  0  0  0  0  0  0  0  0  0
   16.4237  -10.4291  -14.8264 C   0  0  0  0  0  0  0  0  0  0  0  0
   17.8056   -9.8905  -15.1344 C   0  0  0  0  0  0  0  0  0  0  0  0
   18.7767  -10.9866  -15.2860 C   0  0  0  0  0  0  0  0  0  0  0  0
   18.5061  -12.2059  -15.0887 O   0  0  0  0  0  0  0  0  0  0  0  0
   15.4805   -9.5689  -12.6917 C   0  0  0  0  0  0  0  0  0  0  0  0
   14.9362   -8.6929  -13.3916 O   0  0  0  0  0  0  0  0  0  0  0  0
   20.0746  -10.6947  -15.6671 O   0  0  0  0  0  0  0  0  0  0  0  0
   11.4380   -9.1879   -8.3703 C   0  0  0  0  0  0  0  0  0  0  0  0
   12.5894   -8.4074   -8.9908 C   0  0  0  0  0  0  0  0  0  0  0  0
   13.4090   -9.3402   -9.8587 C   0  0  2  0  0  0  0  0  0  0  0  0
   14.0302  -10.3790   -8.9481 C   0  0  0  0  0  0  0  0  0  0  0  0
   14.4686   -8.6061  -10.5965 C   0  0  2  0  0  0  0  0  0  0  0  0
   15.3017   -9.5608  -11.3004 N   0  0  0  0  0  0  0  0  0  0  0  0
   15.2548   -7.6578   -9.8169 C   0  0  0  0  0  0  0  0  0  0  0  0
   16.1410   -8.1140   -9.0493 O   0  0  0  0  0  0  0  0  0  0  0  0
   15.9294   -3.8928  -11.0328 O   0  0  0  0  0  0  0  0  0  0  0  0
   16.6636   -4.4797  -10.0264 C   0  0  0  0  0  0  0  0  0  0  0  0
   15.7856   -5.2970   -9.0669 C   0  0  2  0  0  0  0  0  0  0  0  0
   15.0813   -6.2645   -9.8724 N   0  0  0  0  0  0  0  0  0  0  0  0
   14.8923   -4.3974   -8.3204 C   0  0  0  0  0  0  0  0  0  0  0  0
   15.4241   -3.5140   -7.4116 O   0  0  0  0  0  0  0  0  0  0  0  0
   13.6637   -4.4341   -8.5088 O   0  0  0  0  0  0  0  0  0  0  0  0
  2  1  1  6
  3  2  1  0
  4  3  1  0
  5  4  1  0
  6  5  2  0
  7  2  1  0
  7  8  2  0
  9  5  1  0
 10 11  1  0
 11 12  1  0
 12 13  1  1
 14 12  1  0
 14 15  1  1
 15  7  1  0
 16 14  1  0
 17 16  2  0
 19 18  1  0
 20 19  1  6
 20 22  1  0
 20 21  1  0
 21 16  1  0
 22 23  1  0
 24 22  2  0
M  END
$$$$
