EIS.pdb
     RDKit          3D

 24 23  0  0  1  0  0  0  0  0999 V2000
   16.4764  -19.2815    2.3736 N   0  0  0  0  0  0  0  0  0  0  0  0
   15.8827  -18.2666    3.2408 C   0  0  1  0  0  0  0  0  0  0  0  0
   14.8751  -18.9375    4.1306 C   0  0  0  0  0  0  0  0  0  0  0  0
   13.8553  -19.6336    3.2530 C   0  0  0  0  0  0  0  0  0  0  0  0
   12.8485  -18.6806    2.7575 C   0  0  0  0  0  0  0  0  0  0  0  0
   12.7381  -17.4893    3.1667 O   0  0  0  0  0  0  0  0  0  0  0  0
   16.9187  -17.5270    3.9854 C   0  0  0  0  0  0  0  0  0  0  0  0
   18.0196  -18.0683    4.2053 O   0  0  0  0  0  0  0  0  0  0  0  0
   11.9534  -19.0855    1.7829 O   0  0  0  0  0  0  0  0  0  0  0  0
   19.0303  -11.9783    4.6876 C   0  0  0  0  0  0  0  0  0  0  0  0
   18.8252  -13.3078    5.4020 C   0  0  0  0  0  0  0  0  0  0  0  0
   17.7957  -14.1223    4.6461 C   0  0  2  0  0  0  0  0  0  0  0  0
   16.4928  -13.3506    4.6791 C   0  0  0  0  0  0  0  0  0  0  0  0
   17.6115  -15.4650    5.2538 C   0  0  2  0  0  0  0  0  0  0  0  0
   16.6772  -16.2245    4.4467 N   0  0  0  0  0  0  0  0  0  0  0  0
   17.2622  -15.4871    6.6690 C   0  0  0  0  0  0  0  0  0  0  0  0
   16.0991  -15.1374    6.9969 O   0  0  0  0  0  0  0  0  0  0  0  0
   19.2330  -17.8088    9.3458 O   0  0  0  0  0  0  0  0  0  0  0  0
   18.0068  -17.2535    9.6365 C   0  0  0  0  0  0  0  0  0  0  0  0
   17.8775  -15.8185    9.1040 C   0  0  2  0  0  0  0  0  0  0  0  0
   18.1479  -15.8761    7.6882 N   0  0  0  0  0  0  0  0  0  0  0  0
   18.7926  -14.9305    9.8377 C   0  0  0  0  0  0  0  0  0  0  0  0
   18.5733  -14.6827   11.1718 O   0  0  0  0  0  0  0  0  0  0  0  0
   19.7592  -14.4063    9.2569 O   0  0  0  0  0  0  0  0  0  0  0  0
  2  1  1  1
  3  2  1  0
  4  3  1  0
  5  4  1  0
  6  5  2  0
  7  2  1  0
  7  8  2  0
  9  5  1  0
 10 11  1  0
 11 12  1  0
 12 13  1  1
 14 12  1  0
 14 15  1  6
 15  7  1  0
 16 14  1  0
 17 16  2  0
 19 18  1  0
 20 19  1  1
 20 22  1  0
 20 21  1  0
 21 16  1  0
 22 23  1  0
 24 22  2  0
M  END
$$$$
