EIS.pdb
     RDKit          3D

 24 23  0  0  1  0  0  0  0  0999 V2000
   18.8277  -12.9496  -17.4100 N   0  0  0  0  0  0  0  0  0  0  0  0
   19.4437  -11.7034  -17.8595 C   0  0  1  0  0  0  0  0  0  0  0  0
   18.6557  -11.1823  -19.0275 C   0  0  0  0  0  0  0  0  0  0  0  0
   18.1218  -12.3666  -19.8067 C   0  0  0  0  0  0  0  0  0  0  0  0
   17.3933  -11.9229  -21.0066 C   0  0  0  0  0  0  0  0  0  0  0  0
   16.8205  -12.7055  -21.8180 O   0  0  0  0  0  0  0  0  0  0  0  0
   19.5589  -10.7345  -16.7537 C   0  0  0  0  0  0  0  0  0  0  0  0
   18.7076  -10.7393  -15.8433 O   0  0  0  0  0  0  0  0  0  0  0  0
   17.3136  -10.5708  -21.2902 O   0  0  0  0  0  0  0  0  0  0  0  0
   23.6145  -10.6086  -13.8704 C   0  0  0  0  0  0  0  0  0  0  0  0
   22.2233  -10.4298  -14.4639 C   0  0  0  0  0  0  0  0  0  0  0  0
   22.0975   -9.0250  -15.0167 C   0  0  2  0  0  0  0  0  0  0  0  0
   22.2584   -8.0645  -13.8567 C   0  0  0  0  0  0  0  0  0  0  0  0
   20.7836   -8.8158  -15.6769 C   0  0  2  0  0  0  0  0  0  0  0  0
   20.6140   -9.8110  -16.7171 N   0  0  0  0  0  0  0  0  0  0  0  0
   20.5133   -7.4659  -16.1562 C   0  0  0  0  0  0  0  0  0  0  0  0
   21.2937   -6.9744  -17.0119 O   0  0  0  0  0  0  0  0  0  0  0  0
   17.1804   -5.4213  -14.7266 O   0  0  0  0  0  0  0  0  0  0  0  0
   17.5497   -5.2450  -16.0414 C   0  0  0  0  0  0  0  0  0  0  0  0
   19.0655   -5.3890  -16.2441 C   0  0  2  0  0  0  0  0  0  0  0  0
   19.4327   -6.6813  -15.7190 N   0  0  0  0  0  0  0  0  0  0  0  0
   19.7640   -4.2723  -15.5885 C   0  0  0  0  0  0  0  0  0  0  0  0
   19.6311   -3.0001  -16.0913 O   0  0  0  0  0  0  0  0  0  0  0  0
   20.4707   -4.4757  -14.5857 O   0  0  0  0  0  0  0  0  0  0  0  0
  2  1  1  1
  3  2  1  0
  4  3  1  0
  5  4  1  0
  6  5  2  0
  7  2  1  0
  7  8  2  0
  9  5  1  0
 10 11  1  0
 11 12  1  0
 12 13  1  1
 14 12  1  0
 14 15  1  6
 15  7  1  0
 16 14  1  0
 17 16  2  0
 19 18  1  0
 20 19  1  1
 20 22  1  0
 20 21  1  0
 21 16  1  0
 22 23  1  0
 24 22  2  0
M  END
$$$$
