EIS.pdb
     RDKit          3D

 24 23  0  0  1  0  0  0  0  0999 V2000
   17.5852  -10.8379  -17.6161 N   0  0  0  0  0  0  0  0  0  0  0  0
   18.6744   -9.8996  -17.8763 C   0  0  1  0  0  0  0  0  0  0  0  0
   18.1482   -8.7970  -18.7505 C   0  0  0  0  0  0  0  0  0  0  0  0
   17.8624   -9.3734  -20.1218 C   0  0  0  0  0  0  0  0  0  0  0  0
   17.3614   -8.3343  -21.0364 C   0  0  0  0  0  0  0  0  0  0  0  0
   17.0690   -7.1569  -20.6797 O   0  0  0  0  0  0  0  0  0  0  0  0
   19.2729   -9.4132  -16.6193 C   0  0  0  0  0  0  0  0  0  0  0  0
   18.5765   -9.3664  -15.5867 O   0  0  0  0  0  0  0  0  0  0  0  0
   17.1896   -8.6355  -22.3760 O   0  0  0  0  0  0  0  0  0  0  0  0
   23.4314  -11.5022  -14.7519 C   0  0  0  0  0  0  0  0  0  0  0  0
   22.1407  -10.6956  -14.8114 C   0  0  0  0  0  0  0  0  0  0  0  0
   22.4755   -9.2460  -15.0968 C   0  0  2  0  0  0  0  0  0  0  0  0
   23.1699   -8.6905  -13.8706 C   0  0  0  0  0  0  0  0  0  0  0  0
   21.2549   -8.4548  -15.3970 C   0  0  2  0  0  0  0  0  0  0  0  0
   20.6139   -9.0043  -16.5753 N   0  0  0  0  0  0  0  0  0  0  0  0
   21.4319   -7.0107  -15.4886 C   0  0  0  0  0  0  0  0  0  0  0  0
   22.1716   -6.5621  -16.4021 O   0  0  0  0  0  0  0  0  0  0  0  0
   18.6211   -4.3652  -14.9416 O   0  0  0  0  0  0  0  0  0  0  0  0
   19.6940   -4.0392  -14.1423 C   0  0  0  0  0  0  0  0  0  0  0  0
   21.0053   -4.6596  -14.6475 C   0  0  2  0  0  0  0  0  0  0  0  0
   20.8251   -6.0905  -14.6172 N   0  0  0  0  0  0  0  0  0  0  0  0
   22.1282   -4.1947  -13.8183 C   0  0  0  0  0  0  0  0  0  0  0  0
   22.6231   -2.9249  -13.9967 O   0  0  0  0  0  0  0  0  0  0  0  0
   22.6282   -4.9440  -12.9610 O   0  0  0  0  0  0  0  0  0  0  0  0
  2  1  1  1
  3  2  1  0
  4  3  1  0
  5  4  1  0
  6  5  2  0
  7  2  1  0
  7  8  2  0
  9  5  1  0
 10 11  1  0
 11 12  1  0
 12 13  1  1
 14 12  1  0
 14 15  1  6
 15  7  1  0
 16 14  1  0
 17 16  2  0
 19 18  1  0
 20 19  1  1
 20 22  1  0
 20 21  1  0
 21 16  1  0
 22 23  1  0
 24 22  2  0
M  END
$$$$
