EIS.pdb
     RDKit          3D

 24 23  0  0  1  0  0  0  0  0999 V2000
   18.7187  -13.3596  -16.5566 N   0  0  0  0  0  0  0  0  0  0  0  0
   18.9495  -11.9486  -16.8577 C   0  0  1  0  0  0  0  0  0  0  0  0
   17.6159  -11.2785  -17.0281 C   0  0  0  0  0  0  0  0  0  0  0  0
   16.9115  -11.9157  -18.2082 C   0  0  0  0  0  0  0  0  0  0  0  0
   16.0467  -13.0237  -17.7702 C   0  0  0  0  0  0  0  0  0  0  0  0
   15.8587  -14.0821  -18.4361 O   0  0  0  0  0  0  0  0  0  0  0  0
   19.7951  -11.3139  -15.8296 C   0  0  0  0  0  0  0  0  0  0  0  0
   19.4606  -11.3853  -14.6311 O   0  0  0  0  0  0  0  0  0  0  0  0
   15.3854  -12.9295  -16.5584 O   0  0  0  0  0  0  0  0  0  0  0  0
   24.6754  -12.3768  -15.0127 C   0  0  0  0  0  0  0  0  0  0  0  0
   23.2331  -11.8933  -14.9355 C   0  0  0  0  0  0  0  0  0  0  0  0
   23.1818  -10.4266  -15.3111 C   0  0  2  0  0  0  0  0  0  0  0  0
   24.0696   -9.6777  -14.3389 C   0  0  0  0  0  0  0  0  0  0  0  0
   21.7952   -9.8978  -15.2506 C   0  0  2  0  0  0  0  0  0  0  0  0
   20.9682  -10.6329  -16.1870 N   0  0  0  0  0  0  0  0  0  0  0  0
   21.6507   -8.4552  -15.4022 C   0  0  0  0  0  0  0  0  0  0  0  0
   22.2120   -7.7121  -14.5562 O   0  0  0  0  0  0  0  0  0  0  0  0
   20.8235   -6.9228  -18.9829 O   0  0  0  0  0  0  0  0  0  0  0  0
   20.1345   -6.2296  -18.0127 C   0  0  0  0  0  0  0  0  0  0  0  0
   20.7424   -6.4254  -16.6157 C   0  0  2  0  0  0  0  0  0  0  0  0
   20.9219   -7.8456  -16.4374 N   0  0  0  0  0  0  0  0  0  0  0  0
   19.8679   -5.8155  -15.6020 C   0  0  0  0  0  0  0  0  0  0  0  0
   19.7580   -4.4470  -15.5355 O   0  0  0  0  0  0  0  0  0  0  0  0
   19.2311   -6.5313  -14.8092 O   0  0  0  0  0  0  0  0  0  0  0  0
  2  1  1  1
  3  2  1  0
  4  3  1  0
  5  4  1  0
  6  5  2  0
  7  2  1  0
  7  8  2  0
  9  5  1  0
 10 11  1  0
 11 12  1  0
 12 13  1  1
 14 12  1  0
 14 15  1  6
 15  7  1  0
 16 14  1  0
 17 16  2  0
 19 18  1  0
 20 19  1  6
 20 22  1  0
 20 21  1  0
 21 16  1  0
 22 23  1  0
 24 22  2  0
M  END
$$$$
