EIS.pdb
     RDKit          3D

 24 23  0  0  1  0  0  0  0  0999 V2000
   20.9346  -13.4719  -17.4493 N   0  0  0  0  0  0  0  0  0  0  0  0
   21.1159  -12.0842  -17.8689 C   0  0  1  0  0  0  0  0  0  0  0  0
   19.7956  -11.5647  -18.3629 C   0  0  0  0  0  0  0  0  0  0  0  0
   19.4390  -12.3065  -19.6346 C   0  0  0  0  0  0  0  0  0  0  0  0
   20.1312  -11.7242  -20.7961 C   0  0  0  0  0  0  0  0  0  0  0  0
   19.6401  -10.8241  -21.5361 O   0  0  0  0  0  0  0  0  0  0  0  0
   21.6958  -11.2693  -16.7852 C   0  0  0  0  0  0  0  0  0  0  0  0
   21.1682  -11.2860  -15.6561 O   0  0  0  0  0  0  0  0  0  0  0  0
   21.3998  -12.1699  -21.1230 O   0  0  0  0  0  0  0  0  0  0  0  0
   26.7656  -11.3421  -15.6526 C   0  0  0  0  0  0  0  0  0  0  0  0
   25.2486  -11.2061  -15.6575 C   0  0  0  0  0  0  0  0  0  0  0  0
   24.8806   -9.7777  -16.0025 C   0  0  2  0  0  0  0  0  0  0  0  0
   25.5073   -8.8816  -14.9544 C   0  0  0  0  0  0  0  0  0  0  0  0
   23.4080   -9.5860  -16.0265 C   0  0  2  0  0  0  0  0  0  0  0  0
   22.8316  -10.4783  -17.0127 N   0  0  0  0  0  0  0  0  0  0  0  0
   22.9414   -8.2140  -16.1850 C   0  0  0  0  0  0  0  0  0  0  0  0
   23.2225   -7.6132  -17.2540 O   0  0  0  0  0  0  0  0  0  0  0  0
   19.7078   -4.9036  -14.8825 O   0  0  0  0  0  0  0  0  0  0  0  0
   20.2783   -6.1549  -14.8113 C   0  0  0  0  0  0  0  0  0  0  0  0
   21.7255   -6.1643  -15.3261 C   0  0  2  0  0  0  0  0  0  0  0  0
   22.1961   -7.5233  -15.2145 N   0  0  0  0  0  0  0  0  0  0  0  0
   22.5329   -5.2019  -14.5603 C   0  0  0  0  0  0  0  0  0  0  0  0
   22.8484   -3.9858  -15.1177 O   0  0  0  0  0  0  0  0  0  0  0  0
   22.9285   -5.4845  -13.4157 O   0  0  0  0  0  0  0  0  0  0  0  0
  2  1  1  1
  3  2  1  0
  4  3  1  0
  5  4  1  0
  6  5  2  0
  7  2  1  0
  7  8  2  0
  9  5  1  0
 10 11  1  0
 11 12  1  0
 12 13  1  1
 14 12  1  0
 14 15  1  6
 15  7  1  0
 16 14  1  0
 17 16  2  0
 19 18  1  0
 20 19  1  1
 20 22  1  0
 20 21  1  0
 21 16  1  0
 22 23  1  0
 24 22  2  0
M  END
$$$$
