EIS.pdb
     RDKit          3D

 24 23  0  0  1  0  0  0  0  0999 V2000
   18.1425  -12.2412  -17.5769 N   0  0  0  0  0  0  0  0  0  0  0  0
   18.4600  -10.8222  -17.7184 C   0  0  1  0  0  0  0  0  0  0  0  0
   17.1749  -10.0452  -17.6784 C   0  0  0  0  0  0  0  0  0  0  0  0
   17.3235   -8.8348  -18.5770 C   0  0  0  0  0  0  0  0  0  0  0  0
   17.3292   -7.5911  -17.7892 C   0  0  0  0  0  0  0  0  0  0  0  0
   16.4274   -7.2714  -16.9625 O   0  0  0  0  0  0  0  0  0  0  0  0
   19.4366  -10.3887  -16.7019 C   0  0  0  0  0  0  0  0  0  0  0  0
   19.2139  -10.6241  -15.4984 O   0  0  0  0  0  0  0  0  0  0  0  0
   18.3740   -6.6966  -17.9418 O   0  0  0  0  0  0  0  0  0  0  0  0
   24.1445  -10.6631  -14.3964 C   0  0  0  0  0  0  0  0  0  0  0  0
   24.0203   -9.6496  -15.5266 C   0  0  0  0  0  0  0  0  0  0  0  0
   22.8868  -10.0650  -16.4418 C   0  0  2  0  0  0  0  0  0  0  0  0
   23.3313   -9.7983  -17.8650 C   0  0  0  0  0  0  0  0  0  0  0  0
   21.6426   -9.3107  -16.1435 C   0  0  2  0  0  0  0  0  0  0  0  0
   20.6095   -9.7164  -17.0758 N   0  0  0  0  0  0  0  0  0  0  0  0
   21.7741   -7.8611  -16.0630 C   0  0  0  0  0  0  0  0  0  0  0  0
   22.0692   -7.2344  -17.1132 O   0  0  0  0  0  0  0  0  0  0  0  0
   19.4837   -5.3808  -14.1230 O   0  0  0  0  0  0  0  0  0  0  0  0
   20.4566   -5.0236  -15.0297 C   0  0  0  0  0  0  0  0  0  0  0  0
   21.8026   -5.7031  -14.7363 C   0  0  2  0  0  0  0  0  0  0  0  0
   21.5904   -7.1225  -14.8818 N   0  0  0  0  0  0  0  0  0  0  0  0
   22.2739   -5.3173  -13.3971 C   0  0  0  0  0  0  0  0  0  0  0  0
   22.6849   -4.0258  -13.1685 O   0  0  0  0  0  0  0  0  0  0  0  0
   22.3013   -6.1525  -12.4762 O   0  0  0  0  0  0  0  0  0  0  0  0
  2  1  1  1
  3  2  1  0
  4  3  1  0
  5  4  1  0
  6  5  2  0
  7  2  1  0
  7  8  2  0
  9  5  1  0
 10 11  1  0
 11 12  1  0
 12 13  1  6
 14 12  1  0
 14 15  1  6
 15  7  1  0
 16 14  1  0
 17 16  2  0
 19 18  1  0
 20 19  1  1
 20 22  1  0
 20 21  1  0
 21 16  1  0
 22 23  1  0
 24 22  2  0
M  END
$$$$
