EIS.pdb
     RDKit          3D

 24 23  0  0  1  0  0  0  0  0999 V2000
   17.2132  -11.6915  -15.0519 N   0  0  0  0  0  0  0  0  0  0  0  0
   18.0542  -10.9643  -15.9999 C   0  0  1  0  0  0  0  0  0  0  0  0
   17.2124  -10.5905  -17.1867 C   0  0  0  0  0  0  0  0  0  0  0  0
   16.8672  -11.8573  -17.9422 C   0  0  0  0  0  0  0  0  0  0  0  0
   18.0321  -12.3592  -18.6895 C   0  0  0  0  0  0  0  0  0  0  0  0
   18.0895  -12.4271  -19.9509 O   0  0  0  0  0  0  0  0  0  0  0  0
   18.7060   -9.8075  -15.3584 C   0  0  0  0  0  0  0  0  0  0  0  0
   18.0931   -9.1663  -14.4827 O   0  0  0  0  0  0  0  0  0  0  0  0
   19.1486  -12.7906  -17.9952 O   0  0  0  0  0  0  0  0  0  0  0  0
   22.7461  -10.9780  -14.5807 C   0  0  0  0  0  0  0  0  0  0  0  0
   22.3966   -9.6397  -13.9430 C   0  0  0  0  0  0  0  0  0  0  0  0
   22.1478   -8.6204  -15.0358 C   0  0  2  0  0  0  0  0  0  0  0  0
   22.9422   -7.3786  -14.6878 C   0  0  0  0  0  0  0  0  0  0  0  0
   20.7046   -8.2895  -15.1526 C   0  0  2  0  0  0  0  0  0  0  0  0
   20.0048   -9.4234  -15.7233 N   0  0  0  0  0  0  0  0  0  0  0  0
   20.3849   -7.0429  -15.8373 C   0  0  0  0  0  0  0  0  0  0  0  0
   20.5572   -6.9907  -17.0824 O   0  0  0  0  0  0  0  0  0  0  0  0
   17.2866   -4.9116  -15.0093 O   0  0  0  0  0  0  0  0  0  0  0  0
   18.3701   -4.0623  -15.0402 C   0  0  0  0  0  0  0  0  0  0  0  0
   19.5485   -4.6517  -15.8299 C   0  0  2  0  0  0  0  0  0  0  0  0
   19.8955   -5.8964  -15.1888 N   0  0  0  0  0  0  0  0  0  0  0  0
   20.6568   -3.6848  -15.8666 C   0  0  0  0  0  0  0  0  0  0  0  0
   20.4981   -2.4960  -16.5379 O   0  0  0  0  0  0  0  0  0  0  0  0
   21.7314   -3.9392  -15.2947 O   0  0  0  0  0  0  0  0  0  0  0  0
  2  1  1  1
  3  2  1  0
  4  3  1  0
  5  4  1  0
  6  5  2  0
  7  2  1  0
  7  8  2  0
  9  5  1  0
 10 11  1  0
 11 12  1  0
 12 13  1  1
 14 12  1  0
 14 15  1  6
 15  7  1  0
 16 14  1  0
 17 16  2  0
 19 18  1  0
 20 19  1  1
 20 22  1  0
 20 21  1  0
 21 16  1  0
 22 23  1  0
 24 22  2  0
M  END
$$$$
