EIS.pdb
     RDKit          3D

 24 23  0  0  1  0  0  0  0  0999 V2000
   18.2622  -24.6694   -6.1282 N   0  0  0  0  0  0  0  0  0  0  0  0
   18.6412  -24.8479   -7.5278 C   0  0  1  0  0  0  0  0  0  0  0  0
   17.9059  -26.0418   -8.0669 C   0  0  0  0  0  0  0  0  0  0  0  0
   18.4953  -27.2870   -7.4370 C   0  0  0  0  0  0  0  0  0  0  0  0
   17.6284  -27.7939   -6.3605 C   0  0  0  0  0  0  0  0  0  0  0  0
   16.4295  -28.1591   -6.5284 O   0  0  0  0  0  0  0  0  0  0  0  0
   18.4073  -23.6174   -8.3062 C   0  0  0  0  0  0  0  0  0  0  0  0
   17.3875  -22.9361   -8.0842 O   0  0  0  0  0  0  0  0  0  0  0  0
   18.1295  -27.8880   -5.0740 O   0  0  0  0  0  0  0  0  0  0  0  0
   22.2963  -20.2362   -8.8569 C   0  0  0  0  0  0  0  0  0  0  0  0
   20.9358  -20.9125   -8.7503 C   0  0  0  0  0  0  0  0  0  0  0  0
   20.4586  -21.2867  -10.1385 C   0  0  2  0  0  0  0  0  0  0  0  0
   20.3127  -20.0034  -10.9297 C   0  0  0  0  0  0  0  0  0  0  0  0
   19.1623  -22.0100  -10.0915 C   0  0  2  0  0  0  0  0  0  0  0  0
   19.3187  -23.2081   -9.2908 N   0  0  0  0  0  0  0  0  0  0  0  0
   18.5331  -22.2848  -11.3775 C   0  0  0  0  0  0  0  0  0  0  0  0
   19.2437  -22.7795  -12.2902 O   0  0  0  0  0  0  0  0  0  0  0  0
   14.3213  -22.0609  -13.8882 O   0  0  0  0  0  0  0  0  0  0  0  0
   15.0595  -21.8478  -12.7454 C   0  0  0  0  0  0  0  0  0  0  0  0
   16.5489  -22.1645  -12.9478 C   0  0  2  0  0  0  0  0  0  0  0  0
   17.1800  -22.0298  -11.6577 N   0  0  0  0  0  0  0  0  0  0  0  0
   17.1138  -21.2703  -13.9705 C   0  0  0  0  0  0  0  0  0  0  0  0
   17.3604  -21.7540  -15.2332 O   0  0  0  0  0  0  0  0  0  0  0  0
   17.3675  -20.0841  -13.6967 O   0  0  0  0  0  0  0  0  0  0  0  0
  2  1  1  1
  3  2  1  0
  4  3  1  0
  5  4  1  0
  6  5  2  0
  7  2  1  0
  7  8  2  0
  9  5  1  0
 10 11  1  0
 11 12  1  0
 12 13  1  6
 14 12  1  0
 14 15  1  6
 15  7  1  0
 16 14  1  0
 17 16  2  0
 19 18  1  0
 20 19  1  1
 20 22  1  0
 20 21  1  0
 21 16  1  0
 22 23  1  0
 24 22  2  0
M  END
$$$$
