EIS.pdb
     RDKit          3D

 24 23  0  0  1  0  0  0  0  0999 V2000
   17.1470   -9.6846  -13.2131 N   0  0  0  0  0  0  0  0  0  0  0  0
   17.7665   -9.2248  -14.4539 C   0  0  1  0  0  0  0  0  0  0  0  0
   16.7864   -8.3401  -15.1706 C   0  0  0  0  0  0  0  0  0  0  0  0
   15.6215   -9.1940  -15.6274 C   0  0  0  0  0  0  0  0  0  0  0  0
   15.9092   -9.8274  -16.9248 C   0  0  0  0  0  0  0  0  0  0  0  0
   16.8669   -9.4933  -17.6800 O   0  0  0  0  0  0  0  0  0  0  0  0
   19.0624   -8.5707  -14.1941 C   0  0  0  0  0  0  0  0  0  0  0  0
   19.1943   -7.8506  -13.1855 O   0  0  0  0  0  0  0  0  0  0  0  0
   15.0980  -10.8553  -17.3723 O   0  0  0  0  0  0  0  0  0  0  0  0
   23.6967  -11.0759  -14.6657 C   0  0  0  0  0  0  0  0  0  0  0  0
   22.5282  -10.1650  -14.3128 C   0  0  0  0  0  0  0  0  0  0  0  0
   22.5139   -8.9866  -15.2646 C   0  0  2  0  0  0  0  0  0  0  0  0
   23.8484   -8.2820  -15.1350 C   0  0  0  0  0  0  0  0  0  0  0  0
   21.4063   -8.0479  -14.9516 C   0  0  2  0  0  0  0  0  0  0  0  0
   20.1441   -8.7509  -15.0688 N   0  0  0  0  0  0  0  0  0  0  0  0
   21.4056   -6.7879  -15.6847 C   0  0  0  0  0  0  0  0  0  0  0  0
   21.4799   -6.8335  -16.9398 O   0  0  0  0  0  0  0  0  0  0  0  0
   19.1135   -3.8066  -14.8604 O   0  0  0  0  0  0  0  0  0  0  0  0
   20.4007   -3.3255  -14.9499 C   0  0  0  0  0  0  0  0  0  0  0  0
   21.3148   -4.2574  -15.7596 C   0  0  2  0  0  0  0  0  0  0  0  0
   21.3267   -5.5256  -15.0724 N   0  0  0  0  0  0  0  0  0  0  0  0
   22.6496   -3.6530  -15.8932 C   0  0  0  0  0  0  0  0  0  0  0  0
   22.8211   -2.5606  -16.7096 O   0  0  0  0  0  0  0  0  0  0  0  0
   23.6180   -4.1257  -15.2726 O   0  0  0  0  0  0  0  0  0  0  0  0
  2  1  1  1
  3  2  1  0
  4  3  1  0
  5  4  1  0
  6  5  2  0
  7  2  1  0
  7  8  2  0
  9  5  1  0
 10 11  1  0
 11 12  1  0
 12 13  1  1
 14 12  1  0
 14 15  1  6
 15  7  1  0
 16 14  1  0
 17 16  2  0
 19 18  1  0
 20 19  1  1
 20 22  1  0
 20 21  1  0
 21 16  1  0
 22 23  1  0
 24 22  2  0
M  END
$$$$
