EIS.pdb
     RDKit          3D

 24 23  0  0  1  0  0  0  0  0999 V2000
   16.0176  -11.0063  -12.2449 N   0  0  0  0  0  0  0  0  0  0  0  0
   16.6875  -10.0318  -11.3868 C   0  0  1  0  0  0  0  0  0  0  0  0
   17.9247   -9.5541  -12.0924 C   0  0  0  0  0  0  0  0  0  0  0  0
   17.5058   -8.8840  -13.3848 C   0  0  0  0  0  0  0  0  0  0  0  0
   18.6802   -8.5192  -14.1942 C   0  0  0  0  0  0  0  0  0  0  0  0
   19.8733   -8.7886  -13.8737 O   0  0  0  0  0  0  0  0  0  0  0  0
   15.7742   -8.9389  -11.0045 C   0  0  0  0  0  0  0  0  0  0  0  0
   14.9350   -8.5251  -11.8278 O   0  0  0  0  0  0  0  0  0  0  0  0
   18.4979   -7.8385  -15.3851 O   0  0  0  0  0  0  0  0  0  0  0  0
   12.3487   -9.0765   -7.2723 C   0  0  0  0  0  0  0  0  0  0  0  0
   13.1133   -8.6489   -8.5183 C   0  0  0  0  0  0  0  0  0  0  0  0
   14.2098   -7.6829   -8.1192 C   0  0  2  0  0  0  0  0  0  0  0  0
   13.5459   -6.4832   -7.4756 C   0  0  0  0  0  0  0  0  0  0  0  0
   15.0123   -7.2556   -9.2937 C   0  0  2  0  0  0  0  0  0  0  0  0
   15.8412   -8.3628   -9.7273 N   0  0  0  0  0  0  0  0  0  0  0  0
   15.7760   -6.0239   -9.1361 C   0  0  0  0  0  0  0  0  0  0  0  0
   16.7229   -6.0167   -8.3078 O   0  0  0  0  0  0  0  0  0  0  0  0
   15.2941   -3.0258  -11.8989 O   0  0  0  0  0  0  0  0  0  0  0  0
   16.4840   -3.1327  -11.2140 C   0  0  0  0  0  0  0  0  0  0  0  0
   16.2833   -3.6251   -9.7729 C   0  0  2  0  0  0  0  0  0  0  0  0
   15.5171   -4.8445   -9.8547 N   0  0  0  0  0  0  0  0  0  0  0  0
   15.6288   -2.5765   -8.9749 C   0  0  0  0  0  0  0  0  0  0  0  0
   16.3094   -1.4171   -8.6893 O   0  0  0  0  0  0  0  0  0  0  0  0
   14.4673   -2.7359   -8.5603 O   0  0  0  0  0  0  0  0  0  0  0  0
  2  1  1  6
  3  2  1  0
  4  3  1  0
  5  4  1  0
  6  5  2  0
  7  2  1  0
  7  8  2  0
  9  5  1  0
 10 11  1  0
 11 12  1  0
 12 13  1  6
 14 12  1  0
 14 15  1  1
 15  7  1  0
 16 14  1  0
 17 16  2  0
 19 18  1  0
 20 19  1  6
 20 22  1  0
 20 21  1  0
 21 16  1  0
 22 23  1  0
 24 22  2  0
M  END
$$$$
