ARV.pdb
     RDKit          3D

 24 23  0  0  1  0  0  0  0  0999 V2000
   17.6170  -11.6981  -17.3244 C   0  0  0  0  0  0  0  0  0  0  0  0
   18.5663  -11.4267  -16.1923 C   0  0  2  0  0  0  0  0  0  0  0  0
   18.1878  -12.2197  -15.0655 N   0  0  0  0  0  0  0  0  0  0  0  0
   18.4664   -9.9591  -15.8870 C   0  0  0  0  0  0  0  0  0  0  0  0
   18.7619   -9.0837  -16.7119 O   0  0  0  0  0  0  0  0  0  0  0  0
   13.4055   -7.5502   -9.5818 N   0  0  0  0  0  0  0  0  0  0  0  0
   14.7681   -7.1909   -9.2865 C   0  0  0  0  0  0  0  0  0  0  0  0
   15.1411   -6.9343   -8.0664 N   0  0  0  0  0  0  0  0  0  0  0  0
   15.7497   -7.1034  -10.3063 N   0  0  0  0  0  0  0  0  0  0  0  0
   15.3621   -6.7601  -11.6565 C   0  0  0  0  0  0  0  0  0  0  0  0
   16.5392   -6.7989  -12.6022 C   0  0  0  0  0  0  0  0  0  0  0  0
   16.7469   -8.2034  -13.1421 C   0  0  0  0  0  0  0  0  0  0  0  0
   17.8828   -8.2095  -14.1708 C   0  0  2  0  0  0  0  0  0  0  0  0
   18.0180   -9.5804  -14.6093 N   0  0  0  0  0  0  0  0  0  0  0  0
   19.1510   -7.7711  -13.5649 C   0  0  0  0  0  0  0  0  0  0  0  0
   19.5738   -8.4046  -12.5319 O   0  0  0  0  0  0  0  0  0  0  0  0
   16.1425   -6.7051   -7.9040 C   0  0  0  0  0  0  0  0  0  0  0  0
   22.5248   -8.1042  -14.8181 C   0  0  2  0  0  0  0  0  0  0  0  0
   22.3625   -6.7000  -14.3954 C   0  0  0  0  0  0  0  0  0  0  0  0
   22.2479   -5.8121  -15.6278 C   0  0  2  0  0  0  0  0  0  0  0  0
   21.1860   -6.4031  -13.5281 N   0  0  0  0  0  0  0  0  0  0  0  0
   19.9192   -6.6868  -14.0707 C   0  0  0  0  0  0  0  0  0  0  0  0
   21.2329   -4.9940  -13.0584 O   0  0  0  0  0  0  0  0  0  0  0  0
   22.2631   -4.5929  -12.2323 O   0  0  0  0  0  0  0  0  0  0  0  0
  2  1  1  6
  2  3  1  0
  4  5  2  0
  4  2  1  0
  6  7  1  0
  7  9  1  0
  8  7  2  0
  9 10  1  0
 10 11  1  0
 11 12  1  0
 13 12  1  1
 13 14  1  0
 14  4  1  0
 15 21  1  0
 15 13  1  0
 16 15  2  0
 18 20  1  0
 18 17  1  6
 19 18  1  0
 20 22  1  0
 20 21  1  1
 22 23  1  0
 24 22  2  0
M  END
$$$$
