ARV.pdb
     RDKit          3D

 24 23  0  0  1  0  0  0  0  0999 V2000
   28.6546  -17.3252  -16.0005 C   0  0  0  0  0  0  0  0  0  0  0  0
   27.7208  -17.9621  -16.9899 C   0  0  2  0  0  0  0  0  0  0  0  0
   27.1096  -16.9401  -17.7797 N   0  0  0  0  0  0  0  0  0  0  0  0
   26.6991  -18.7220  -16.1925 C   0  0  0  0  0  0  0  0  0  0  0  0
   25.6182  -18.2259  -15.8463 O   0  0  0  0  0  0  0  0  0  0  0  0
   22.1827  -23.9905  -15.4548 N   0  0  0  0  0  0  0  0  0  0  0  0
   22.8070  -25.2029  -14.9928 C   0  0  0  0  0  0  0  0  0  0  0  0
   22.1211  -26.1043  -14.3521 N   0  0  0  0  0  0  0  0  0  0  0  0
   24.1836  -25.4601  -15.2165 N   0  0  0  0  0  0  0  0  0  0  0  0
   24.9973  -24.4893  -15.9140 C   0  0  0  0  0  0  0  0  0  0  0  0
   25.1338  -23.2070  -15.1275 C   0  0  0  0  0  0  0  0  0  0  0  0
   25.9888  -22.2037  -15.8822 C   0  0  0  0  0  0  0  0  0  0  0  0
   26.1066  -20.9034  -15.0800 C   0  0  2  0  0  0  0  0  0  0  0  0
   26.9967  -20.0482  -15.8327 N   0  0  0  0  0  0  0  0  0  0  0  0
   26.6873  -21.1501  -13.7498 C   0  0  0  0  0  0  0  0  0  0  0  0
   27.7964  -21.7929  -13.6884 O   0  0  0  0  0  0  0  0  0  0  0  0
   22.6143  -26.9729  -14.0620 C   0  0  0  0  0  0  0  0  0  0  0  0
   28.6748  -19.6884  -11.3496 C   0  0  2  0  0  0  0  0  0  0  0  0
   27.4858  -20.1400  -10.6019 C   0  0  0  0  0  0  0  0  0  0  0  0
   26.6304  -18.9333  -10.2378 C   0  0  2  0  0  0  0  0  0  0  0  0
   26.5978  -21.1146  -11.2993 N   0  0  0  0  0  0  0  0  0  0  0  0
   26.0776  -20.7108  -12.5427 C   0  0  0  0  0  0  0  0  0  0  0  0
   25.4931  -21.5413  -10.4015 O   0  0  0  0  0  0  0  0  0  0  0  0
   25.7922  -22.2443   -9.2521 O   0  0  0  0  0  0  0  0  0  0  0  0
  2  1  1  1
  2  3  1  0
  4  5  2  0
  4  2  1  0
  6  7  1  0
  7  9  1  0
  8  7  2  0
  9 10  1  0
 10 11  1  0
 11 12  1  0
 13 12  1  6
 13 14  1  0
 14  4  1  0
 15 21  1  0
 15 13  1  0
 16 15  2  0
 18 20  1  0
 18 17  1  1
 19 18  1  0
 20 22  1  0
 20 21  1  1
 22 23  1  0
 24 22  2  0
M  END
$$$$
