ARV.pdb
     RDKit          3D

 24 23  0  0  1  0  0  0  0  0999 V2000
   23.8311  -17.4090  -19.3239 C   0  0  0  0  0  0  0  0  0  0  0  0
   24.8360  -17.7877  -18.2735 C   0  0  2  0  0  0  0  0  0  0  0  0
   26.0139  -18.2844  -18.9120 N   0  0  0  0  0  0  0  0  0  0  0  0
   24.1912  -18.8415  -17.4186 C   0  0  0  0  0  0  0  0  0  0  0  0
   23.9571  -19.9856  -17.8317 O   0  0  0  0  0  0  0  0  0  0  0  0
   24.6739  -21.6380   -9.5257 N   0  0  0  0  0  0  0  0  0  0  0  0
   25.5142  -21.0070  -10.5100 C   0  0  0  0  0  0  0  0  0  0  0  0
   26.6333  -21.5567  -10.8828 N   0  0  0  0  0  0  0  0  0  0  0  0
   25.1577  -19.7711  -11.1071 N   0  0  0  0  0  0  0  0  0  0  0  0
   23.7652  -19.4471  -11.3240 C   0  0  0  0  0  0  0  0  0  0  0  0
   23.2909  -19.9042  -12.6833 C   0  0  0  0  0  0  0  0  0  0  0  0
   23.8635  -19.0187  -13.7766 C   0  0  0  0  0  0  0  0  0  0  0  0
   23.2942  -19.4291  -15.1388 C   0  0  2  0  0  0  0  0  0  0  0  0
   23.8456  -18.4998  -16.0993 N   0  0  0  0  0  0  0  0  0  0  0  0
   21.8259  -19.3229  -15.1552 C   0  0  0  0  0  0  0  0  0  0  0  0
   21.3061  -18.1588  -15.0073 O   0  0  0  0  0  0  0  0  0  0  0  0
   27.2619  -21.0045  -11.5008 C   0  0  0  0  0  0  0  0  0  0  0  0
   17.3550  -20.8386  -16.3947 C   0  0  2  0  0  0  0  0  0  0  0  0
   18.8167  -21.0375  -16.3725 C   0  0  0  0  0  0  0  0  0  0  0  0
   19.3982  -20.6575  -17.7281 C   0  0  1  0  0  0  0  0  0  0  0  0
   19.5718  -20.2714  -15.3393 N   0  0  0  0  0  0  0  0  0  0  0  0
   20.9681  -20.4440  -15.3263 C   0  0  0  0  0  0  0  0  0  0  0  0
   19.0148  -20.5390  -13.9878 O   0  0  0  0  0  0  0  0  0  0  0  0
   18.0410  -19.7018  -13.4824 O   0  0  0  0  0  0  0  0  0  0  0  0
  2  1  1  6
  2  3  1  0
  4  5  2  0
  4  2  1  0
  6  7  1  0
  7  9  1  0
  8  7  2  0
  9 10  1  0
 10 11  1  0
 11 12  1  0
 13 12  1  1
 13 14  1  0
 14  4  1  0
 15 21  1  0
 15 13  1  0
 16 15  2  0
 18 20  1  0
 18 17  1  6
 19 18  1  0
 20 22  1  0
 20 21  1  1
 22 23  1  0
 24 22  2  0
M  END
$$$$
