ARV.pdb
     RDKit          3D

 24 23  0  0  1  0  0  0  0  0999 V2000
   25.1526  -11.7759  -15.1621 C   0  0  0  0  0  0  0  0  0  0  0  0
   24.0297  -12.3858  -15.9518 C   0  0  2  0  0  0  0  0  0  0  0  0
   24.5778  -13.2044  -16.9868 N   0  0  0  0  0  0  0  0  0  0  0  0
   23.2322  -11.2462  -16.5198 C   0  0  0  0  0  0  0  0  0  0  0  0
   23.5682  -10.6432  -17.5482 O   0  0  0  0  0  0  0  0  0  0  0  0
   18.7484  -14.1450  -17.2896 N   0  0  0  0  0  0  0  0  0  0  0  0
   18.1236  -13.7211  -16.0637 C   0  0  0  0  0  0  0  0  0  0  0  0
   17.9225  -14.5625  -15.0915 N   0  0  0  0  0  0  0  0  0  0  0  0
   17.7059  -12.3798  -15.8693 N   0  0  0  0  0  0  0  0  0  0  0  0
   17.7792  -11.4336  -16.9604 C   0  0  0  0  0  0  0  0  0  0  0  0
   19.1984  -10.9834  -17.2145 C   0  0  0  0  0  0  0  0  0  0  0  0
   19.7601  -10.2686  -15.9976 C   0  0  0  0  0  0  0  0  0  0  0  0
   21.1890   -9.7921  -16.2796 C   0  0  2  0  0  0  0  0  0  0  0  0
   22.0602  -10.8609  -15.8454 N   0  0  0  0  0  0  0  0  0  0  0  0
   21.5039   -8.5742  -15.5148 C   0  0  0  0  0  0  0  0  0  0  0  0
   21.7841   -8.7029  -14.2689 O   0  0  0  0  0  0  0  0  0  0  0  0
   17.3970  -14.2252  -14.2598 C   0  0  0  0  0  0  0  0  0  0  0  0
   22.9431   -3.8666  -15.2662 C   0  0  2  0  0  0  0  0  0  0  0  0
   22.4746   -5.0063  -16.0777 C   0  0  0  0  0  0  0  0  0  0  0  0
   23.6309   -5.5392  -16.9139 C   0  0  1  0  0  0  0  0  0  0  0  0
   21.9054   -6.1622  -15.3264 N   0  0  0  0  0  0  0  0  0  0  0  0
   21.5106   -7.2747  -16.0920 C   0  0  0  0  0  0  0  0  0  0  0  0
   20.7809   -5.7147  -14.4642 O   0  0  0  0  0  0  0  0  0  0  0  0
   21.0578   -5.0596  -13.2815 O   0  0  0  0  0  0  0  0  0  0  0  0
  2  1  1  6
  2  3  1  0
  4  5  2  0
  4  2  1  0
  6  7  1  0
  7  9  1  0
  8  7  2  0
  9 10  1  0
 10 11  1  0
 11 12  1  0
 13 12  1  1
 13 14  1  0
 14  4  1  0
 15 21  1  0
 15 13  1  0
 16 15  2  0
 18 20  1  0
 18 17  1  6
 19 18  1  0
 20 22  1  0
 20 21  1  6
 22 23  1  0
 24 22  2  0
M  END
$$$$
