ARV.pdb
     RDKit          3D

 24 23  0  0  1  0  0  0  0  0999 V2000
   29.4496  -27.5705  -19.8272 C   0  0  0  0  0  0  0  0  0  0  0  0
   30.6705  -27.8470  -20.6575 C   0  0  2  0  0  0  0  0  0  0  0  0
   30.2865  -27.9590  -22.0292 N   0  0  0  0  0  0  0  0  0  0  0  0
   31.2584  -29.1319  -20.1470 C   0  0  0  0  0  0  0  0  0  0  0  0
   30.9511  -30.2381  -20.6120 O   0  0  0  0  0  0  0  0  0  0  0  0
   39.3756  -30.0057  -16.8973 N   0  0  0  0  0  0  0  0  0  0  0  0
   38.7260  -31.2413  -16.5447 C   0  0  0  0  0  0  0  0  0  0  0  0
   39.3952  -32.2147  -15.9987 N   0  0  0  0  0  0  0  0  0  0  0  0
   37.3418  -31.4441  -16.7769 N   0  0  0  0  0  0  0  0  0  0  0  0
   36.5382  -30.3799  -17.3363 C   0  0  0  0  0  0  0  0  0  0  0  0
   35.1289  -30.8387  -17.6276 C   0  0  0  0  0  0  0  0  0  0  0  0
   34.3128  -29.7107  -18.2352 C   0  0  0  0  0  0  0  0  0  0  0  0
   32.8977  -30.2006  -18.5603 C   0  0  2  0  0  0  0  0  0  0  0  0
   32.1931  -29.0590  -19.0993 N   0  0  0  0  0  0  0  0  0  0  0  0
   32.2041  -30.6650  -17.3476 C   0  0  0  0  0  0  0  0  0  0  0  0
   32.2359  -29.9092  -16.3107 O   0  0  0  0  0  0  0  0  0  0  0  0
   38.8768  -33.0838  -15.7581 C   0  0  0  0  0  0  0  0  0  0  0  0
   28.7846  -30.7781  -16.5044 C   0  0  2  0  0  0  0  0  0  0  0  0
   29.3096  -32.1189  -16.1831 C   0  0  0  0  0  0  0  0  0  0  0  0
   28.8192  -33.1158  -17.2253 C   0  0  2  0  0  0  0  0  0  0  0  0
   30.7940  -32.2480  -16.1148 N   0  0  0  0  0  0  0  0  0  0  0  0
   31.5078  -31.9027  -17.2771 C   0  0  0  0  0  0  0  0  0  0  0  0
   31.1739  -33.6152  -15.6733 O   0  0  0  0  0  0  0  0  0  0  0  0
   31.8187  -34.4546  -16.5590 O   0  0  0  0  0  0  0  0  0  0  0  0
  2  1  1  1
  2  3  1  0
  4  5  2  0
  4  2  1  0
  6  7  1  0
  7  9  1  0
  8  7  2  0
  9 10  1  0
 10 11  1  0
 11 12  1  0
 13 12  1  1
 13 14  1  0
 14  4  1  0
 15 21  1  0
 15 13  1  0
 16 15  2  0
 18 20  1  0
 18 17  1  1
 19 18  1  0
 20 22  1  0
 20 21  1  1
 22 23  1  0
 24 22  2  0
M  END
$$$$
