ARV.pdb
     RDKit          3D

 24 23  0  0  1  0  0  0  0  0999 V2000
   26.3997  -21.8154  -20.8843 C   0  0  0  0  0  0  0  0  0  0  0  0
   26.0230  -20.6360  -20.0337 C   0  0  2  0  0  0  0  0  0  0  0  0
   27.1992  -20.1140  -19.4124 N   0  0  0  0  0  0  0  0  0  0  0  0
   25.0405  -21.1357  -19.0128 C   0  0  0  0  0  0  0  0  0  0  0  0
   23.9560  -21.6467  -19.3239 O   0  0  0  0  0  0  0  0  0  0  0  0
   26.4857  -20.0752  -10.8179 N   0  0  0  0  0  0  0  0  0  0  0  0
   25.2364  -20.7758  -10.6716 C   0  0  0  0  0  0  0  0  0  0  0  0
   24.4685  -20.5629   -9.6428 N   0  0  0  0  0  0  0  0  0  0  0  0
   24.7973  -21.7183  -11.6360 N   0  0  0  0  0  0  0  0  0  0  0  0
   25.5123  -21.8630  -12.8846 C   0  0  0  0  0  0  0  0  0  0  0  0
   24.6270  -21.5676  -14.0723 C   0  0  0  0  0  0  0  0  0  0  0  0
   25.4158  -21.6665  -15.3666 C   0  0  0  0  0  0  0  0  0  0  0  0
   24.5042  -21.3723  -16.5627 C   0  0  2  0  0  0  0  0  0  0  0  0
   25.3806  -21.0111  -17.6543 N   0  0  0  0  0  0  0  0  0  0  0  0
   23.6009  -20.2452  -16.2780 C   0  0  0  0  0  0  0  0  0  0  0  0
   24.1220  -19.1467  -15.8669 O   0  0  0  0  0  0  0  0  0  0  0  0
   23.5568  -21.0623   -9.6071 C   0  0  0  0  0  0  0  0  0  0  0  0
   19.6802  -19.8054  -18.0075 C   0  0  2  0  0  0  0  0  0  0  0  0
   20.5634  -18.7667  -17.4440 C   0  0  0  0  0  0  0  0  0  0  0  0
   19.7237  -17.5734  -17.0066 C   0  0  1  0  0  0  0  0  0  0  0  0
   21.3962  -19.1711  -16.2745 N   0  0  0  0  0  0  0  0  0  0  0  0
   22.1900  -20.3213  -16.4376 C   0  0  0  0  0  0  0  0  0  0  0  0
   20.5505  -19.3062  -15.0601 O   0  0  0  0  0  0  0  0  0  0  0  0
   20.3849  -20.5517  -14.4892 O   0  0  0  0  0  0  0  0  0  0  0  0
  2  1  1  6
  2  3  1  0
  4  5  2  0
  4  2  1  0
  6  7  1  0
  7  9  1  0
  8  7  2  0
  9 10  1  0
 10 11  1  0
 11 12  1  0
 13 12  1  1
 13 14  1  0
 14  4  1  0
 15 21  1  0
 15 13  1  0
 16 15  2  0
 18 20  1  0
 18 17  1  6
 19 18  1  0
 20 22  1  0
 20 21  1  6
 22 23  1  0
 24 22  2  0
M  END
$$$$
