ARV.pdb
     RDKit          3D

 24 23  0  0  1  0  0  0  0  0999 V2000
   24.5777  -19.2210  -15.6697 C   0  0  0  0  0  0  0  0  0  0  0  0
   25.6048  -20.2865  -15.9271 C   0  0  2  0  0  0  0  0  0  0  0  0
   25.0649  -21.2445  -16.8396 N   0  0  0  0  0  0  0  0  0  0  0  0
   25.9198  -20.9131  -14.5985 C   0  0  0  0  0  0  0  0  0  0  0  0
   25.1776  -21.7459  -14.0601 O   0  0  0  0  0  0  0  0  0  0  0  0
   33.4726  -22.6392  -10.4108 N   0  0  0  0  0  0  0  0  0  0  0  0
   32.8594  -22.8877  -11.6896 C   0  0  0  0  0  0  0  0  0  0  0  0
   33.3592  -23.7657  -12.5099 N   0  0  0  0  0  0  0  0  0  0  0  0
   31.6954  -22.1903  -12.1020 N   0  0  0  0  0  0  0  0  0  0  0  0
   31.0810  -21.2227  -11.2205 C   0  0  0  0  0  0  0  0  0  0  0  0
   29.5735  -21.3110  -11.2587 C   0  0  0  0  0  0  0  0  0  0  0  0
   29.0444  -20.8631  -12.6102 C   0  0  0  0  0  0  0  0  0  0  0  0
   27.5202  -21.0143  -12.6554 C   0  0  2  0  0  0  0  0  0  0  0  0
   27.1083  -20.5284  -13.9532 N   0  0  0  0  0  0  0  0  0  0  0  0
   26.8743  -20.2026  -11.6107 C   0  0  0  0  0  0  0  0  0  0  0  0
   27.0389  -18.9304  -11.6509 O   0  0  0  0  0  0  0  0  0  0  0  0
   32.8686  -23.9181  -13.4143 C   0  0  0  0  0  0  0  0  0  0  0  0
   23.1069  -20.6924  -10.0074 C   0  0  2  0  0  0  0  0  0  0  0  0
   24.1839  -20.4032   -9.0414 C   0  0  0  0  0  0  0  0  0  0  0  0
   24.4867  -21.6582   -8.2329 C   0  0  2  0  0  0  0  0  0  0  0  0
   25.4756  -19.9270   -9.6152 N   0  0  0  0  0  0  0  0  0  0  0  0
   26.0838  -20.7626  -10.5699 C   0  0  0  0  0  0  0  0  0  0  0  0
   26.4392  -19.6128   -8.5284 O   0  0  0  0  0  0  0  0  0  0  0  0
   26.1763  -18.5573   -7.6789 O   0  0  0  0  0  0  0  0  0  0  0  0
  2  1  1  1
  2  3  1  0
  4  5  2  0
  4  2  1  0
  6  7  1  0
  7  9  1  0
  8  7  2  0
  9 10  1  0
 10 11  1  0
 11 12  1  0
 13 12  1  6
 13 14  1  0
 14  4  1  0
 15 21  1  0
 15 13  1  0
 16 15  2  0
 18 20  1  0
 18 17  1  1
 19 18  1  0
 20 22  1  0
 20 21  1  1
 22 23  1  0
 24 22  2  0
M  END
$$$$
