ARV.pdb
     RDKit          3D

 24 23  0  0  1  0  0  0  0  0999 V2000
   23.9755  -19.3455  -19.4943 C   0  0  0  0  0  0  0  0  0  0  0  0
   24.8860  -20.2705  -18.7380 C   0  0  2  0  0  0  0  0  0  0  0  0
   25.3480  -21.2951  -19.6203 N   0  0  0  0  0  0  0  0  0  0  0  0
   24.0781  -20.8441  -17.6086 C   0  0  0  0  0  0  0  0  0  0  0  0
   23.1203  -21.6075  -17.7930 O   0  0  0  0  0  0  0  0  0  0  0  0
   27.4470  -21.6460  -10.2367 N   0  0  0  0  0  0  0  0  0  0  0  0
   27.4009  -20.7799  -11.3860 C   0  0  0  0  0  0  0  0  0  0  0  0
   28.4917  -20.4382  -12.0081 N   0  0  0  0  0  0  0  0  0  0  0  0
   26.1740  -20.2693  -11.8812 N   0  0  0  0  0  0  0  0  0  0  0  0
   24.9227  -20.8634  -11.4661 C   0  0  0  0  0  0  0  0  0  0  0  0
   23.9899  -21.0745  -12.6352 C   0  0  0  0  0  0  0  0  0  0  0  0
   24.6919  -20.7588  -13.9448 C   0  0  0  0  0  0  0  0  0  0  0  0
   23.7169  -20.9168  -15.1163 C   0  0  2  0  0  0  0  0  0  0  0  0
   24.4362  -20.4905  -16.2957 N   0  0  0  0  0  0  0  0  0  0  0  0
   22.5316  -20.0614  -14.9406 C   0  0  0  0  0  0  0  0  0  0  0  0
   22.7199  -18.8075  -14.7416 O   0  0  0  0  0  0  0  0  0  0  0  0
   28.4049  -19.7924  -12.8188 C   0  0  0  0  0  0  0  0  0  0  0  0
   19.6799  -19.1337  -17.2177 C   0  0  2  0  0  0  0  0  0  0  0  0
   19.1390  -19.5932  -15.9242 C   0  0  0  0  0  0  0  0  0  0  0  0
   18.5171  -20.9727  -16.0989 C   0  0  2  0  0  0  0  0  0  0  0  0
   20.1120  -19.6885  -14.7978 N   0  0  0  0  0  0  0  0  0  0  0  0
   21.2008  -20.5605  -14.9816 C   0  0  0  0  0  0  0  0  0  0  0  0
   19.4063  -20.0176  -13.5320 O   0  0  0  0  0  0  0  0  0  0  0  0
   19.6387  -21.2366  -12.9281 O   0  0  0  0  0  0  0  0  0  0  0  0
  2  1  1  6
  2  3  1  0
  4  5  2  0
  4  2  1  0
  6  7  1  0
  7  9  1  0
  8  7  2  0
  9 10  1  0
 10 11  1  0
 11 12  1  0
 13 12  1  1
 13 14  1  0
 14  4  1  0
 15 21  1  0
 15 13  1  0
 16 15  2  0
 18 20  1  0
 18 17  1  6
 19 18  1  0
 20 22  1  0
 20 21  1  1
 22 23  1  0
 24 22  2  0
M  END
$$$$
