ARV.pdb
     RDKit          3D

 24 23  0  0  1  0  0  0  0  0999 V2000
   30.4876  -21.3282  -11.2138 C   0  0  0  0  0  0  0  0  0  0  0  0
   29.9696  -20.3494  -12.2287 C   0  0  2  0  0  0  0  0  0  0  0  0
   29.8800  -19.0565  -11.6268 N   0  0  0  0  0  0  0  0  0  0  0  0
   28.6192  -20.8474  -12.6593 C   0  0  0  0  0  0  0  0  0  0  0  0
   28.4518  -21.9596  -13.1781 O   0  0  0  0  0  0  0  0  0  0  0  0
   23.4013  -21.5018   -8.7101 N   0  0  0  0  0  0  0  0  0  0  0  0
   22.1436  -21.4052   -9.4043 C   0  0  0  0  0  0  0  0  0  0  0  0
   21.1750  -22.2360   -9.1490 N   0  0  0  0  0  0  0  0  0  0  0  0
   21.9130  -20.4082  -10.3861 N   0  0  0  0  0  0  0  0  0  0  0  0
   22.9759  -19.5022  -10.7611 C   0  0  0  0  0  0  0  0  0  0  0  0
   23.8244  -20.0678  -11.8754 C   0  0  0  0  0  0  0  0  0  0  0  0
   25.2996  -19.8387  -11.5950 C   0  0  0  0  0  0  0  0  0  0  0  0
   26.1457  -20.3781  -12.7532 C   0  0  2  0  0  0  0  0  0  0  0  0
   27.5112  -20.0055  -12.4585 N   0  0  0  0  0  0  0  0  0  0  0  0
   25.7462  -19.7685  -14.0323 C   0  0  0  0  0  0  0  0  0  0  0  0
   25.8059  -18.4904  -14.1332 O   0  0  0  0  0  0  0  0  0  0  0  0
   20.2885  -22.1250   -9.6816 C   0  0  0  0  0  0  0  0  0  0  0  0
   27.1903  -20.6274  -17.5660 C   0  0  2  0  0  0  0  0  0  0  0  0
   25.7175  -20.5404  -17.5787 C   0  0  0  0  0  0  0  0  0  0  0  0
   25.1305  -21.9405  -17.7025 C   0  0  2  0  0  0  0  0  0  0  0  0
   25.0834  -19.9009  -16.3897 N   0  0  0  0  0  0  0  0  0  0  0  0
   25.3017  -20.5279  -15.1492 C   0  0  0  0  0  0  0  0  0  0  0  0
   23.6261  -19.7187  -16.6168 O   0  0  0  0  0  0  0  0  0  0  0  0
   23.2001  -18.8091  -17.5633 O   0  0  0  0  0  0  0  0  0  0  0  0
  2  1  1  1
  2  3  1  0
  4  5  2  0
  4  2  1  0
  6  7  1  0
  7  9  1  0
  8  7  2  0
  9 10  1  0
 10 11  1  0
 11 12  1  0
 13 12  1  1
 13 14  1  0
 14  4  1  0
 15 21  1  0
 15 13  1  0
 16 15  2  0
 18 20  1  0
 18 17  1  6
 19 18  1  0
 20 22  1  0
 20 21  1  6
 22 23  1  0
 24 22  2  0
M  END
$$$$
