ARV.pdb
     RDKit          3D

 24 23  0  0  1  0  0  0  0  0999 V2000
   18.6168  -21.6329  -13.5688 C   0  0  0  0  0  0  0  0  0  0  0  0
   19.2964  -22.5834  -14.5128 C   0  0  2  0  0  0  0  0  0  0  0  0
   18.5384  -23.7927  -14.5836 N   0  0  0  0  0  0  0  0  0  0  0  0
   20.6716  -22.8311  -13.9609 C   0  0  0  0  0  0  0  0  0  0  0  0
   20.8642  -23.4035  -12.8794 O   0  0  0  0  0  0  0  0  0  0  0  0
   27.5704  -25.3617  -16.2362 N   0  0  0  0  0  0  0  0  0  0  0  0
   26.5005  -25.3308  -17.1993 C   0  0  0  0  0  0  0  0  0  0  0  0
   26.1039  -26.4198  -17.7911 N   0  0  0  0  0  0  0  0  0  0  0  0
   25.8422  -24.1212  -17.5380 N   0  0  0  0  0  0  0  0  0  0  0  0
   26.1355  -22.9083  -16.8072 C   0  0  0  0  0  0  0  0  0  0  0  0
   25.3899  -22.8532  -15.4947 C   0  0  0  0  0  0  0  0  0  0  0  0
   23.8925  -22.7614  -15.7324 C   0  0  0  0  0  0  0  0  0  0  0  0
   23.1498  -22.6959  -14.3936 C   0  0  2  0  0  0  0  0  0  0  0  0
   21.7737  -22.3896  -14.7140 N   0  0  0  0  0  0  0  0  0  0  0  0
   23.6928  -21.6293  -13.5361 C   0  0  0  0  0  0  0  0  0  0  0  0
   23.4038  -20.4146  -13.8327 O   0  0  0  0  0  0  0  0  0  0  0  0
   25.3044  -26.3480  -18.4526 C   0  0  0  0  0  0  0  0  0  0  0  0
   26.8854  -21.8022  -10.2456 C   0  0  2  0  0  0  0  0  0  0  0  0
   25.5646  -21.1470  -10.3005 C   0  0  0  0  0  0  0  0  0  0  0  0
   25.6137  -19.8457   -9.5102 C   0  0  1  0  0  0  0  0  0  0  0  0
   25.0470  -20.8171  -11.6598 N   0  0  0  0  0  0  0  0  0  0  0  0
   24.5154  -21.8856  -12.4050 C   0  0  0  0  0  0  0  0  0  0  0  0
   26.0888  -20.1142  -12.4529 O   0  0  0  0  0  0  0  0  0  0  0  0
   26.1784  -18.7390  -12.3791 O   0  0  0  0  0  0  0  0  0  0  0  0
  2  1  1  1
  2  3  1  0
  4  5  2  0
  4  2  1  0
  6  7  1  0
  7  9  1  0
  8  7  2  0
  9 10  1  0
 10 11  1  0
 11 12  1  0
 13 12  1  6
 13 14  1  0
 14  4  1  0
 15 21  1  0
 15 13  1  0
 16 15  2  0
 18 20  1  0
 18 17  1  1
 19 18  1  0
 20 22  1  0
 20 21  1  1
 22 23  1  0
 24 22  2  0
M  END
$$$$
