ARV.pdb
     RDKit          3D

 24 23  0  0  1  0  0  0  0  0999 V2000
   16.9560   -9.7082  -17.8728 C   0  0  0  0  0  0  0  0  0  0  0  0
   18.0292  -10.7422  -18.0616 C   0  0  2  0  0  0  0  0  0  0  0  0
   17.5219  -12.0187  -17.6677 N   0  0  0  0  0  0  0  0  0  0  0  0
   19.1878  -10.3245  -17.2012 C   0  0  0  0  0  0  0  0  0  0  0  0
   19.0710  -10.0930  -15.9900 O   0  0  0  0  0  0  0  0  0  0  0  0
   26.6236  -13.2849  -15.8945 N   0  0  0  0  0  0  0  0  0  0  0  0
   27.0413  -11.9071  -15.9034 C   0  0  0  0  0  0  0  0  0  0  0  0
   28.2493  -11.5738  -15.5526 N   0  0  0  0  0  0  0  0  0  0  0  0
   26.1589  -10.8671  -16.2920 N   0  0  0  0  0  0  0  0  0  0  0  0
   24.9007  -11.1858  -16.9296 C   0  0  0  0  0  0  0  0  0  0  0  0
   24.1432   -9.9398  -17.3236 C   0  0  0  0  0  0  0  0  0  0  0  0
   22.8204  -10.3009  -17.9771 C   0  0  0  0  0  0  0  0  0  0  0  0
   21.6544   -9.8207  -17.1064 C   0  0  2  0  0  0  0  0  0  0  0  0
   20.4486  -10.1959  -17.8101 N   0  0  0  0  0  0  0  0  0  0  0  0
   21.6804   -8.3578  -16.9429 C   0  0  0  0  0  0  0  0  0  0  0  0
   21.8504   -7.6390  -17.9925 O   0  0  0  0  0  0  0  0  0  0  0  0
   28.5199  -10.5732  -15.6378 C   0  0  0  0  0  0  0  0  0  0  0  0
   19.0602   -6.1040  -15.0134 C   0  0  2  0  0  0  0  0  0  0  0  0
   20.1847   -5.6538  -15.8558 C   0  0  0  0  0  0  0  0  0  0  0  0
   20.3865   -4.1556  -15.6692 C   0  0  1  0  0  0  0  0  0  0  0  0
   21.5008   -6.3096  -15.6061 N   0  0  0  0  0  0  0  0  0  0  0  0
   21.5266   -7.7142  -15.6844 C   0  0  0  0  0  0  0  0  0  0  0  0
   22.0617   -5.8635  -14.3043 O   0  0  0  0  0  0  0  0  0  0  0  0
   22.2477   -6.7893  -13.2978 O   0  0  0  0  0  0  0  0  0  0  0  0
  2  1  1  1
  2  3  1  0
  4  5  2  0
  4  2  1  0
  6  7  1  0
  7  9  1  0
  8  7  2  0
  9 10  1  0
 10 11  1  0
 11 12  1  0
 13 12  1  6
 13 14  1  0
 14  4  1  0
 15 21  1  0
 15 13  1  0
 16 15  2  0
 18 20  1  0
 18 17  1  6
 19 18  1  0
 20 22  1  0
 20 21  1  6
 22 23  1  0
 24 22  2  0
M  END
$$$$
