ARV.pdb
     RDKit          3D

 24 23  0  0  1  0  0  0  0  0999 V2000
   26.8777  -18.2468  -16.7004 C   0  0  0  0  0  0  0  0  0  0  0  0
   27.9340  -19.3148  -16.7119 C   0  0  2  0  0  0  0  0  0  0  0  0
   27.7913  -20.0997  -17.8974 N   0  0  0  0  0  0  0  0  0  0  0  0
   27.7230  -20.1446  -15.4773 C   0  0  0  0  0  0  0  0  0  0  0  0
   26.8789  -21.0491  -15.4168 O   0  0  0  0  0  0  0  0  0  0  0  0
   32.3741  -23.0887  -13.2262 N   0  0  0  0  0  0  0  0  0  0  0  0
   32.8932  -23.2146  -11.8891 C   0  0  0  0  0  0  0  0  0  0  0  0
   33.8194  -24.0857  -11.6122 N   0  0  0  0  0  0  0  0  0  0  0  0
   32.4187  -22.4000  -10.8296 N   0  0  0  0  0  0  0  0  0  0  0  0
   31.6575  -21.2054  -11.1201 C   0  0  0  0  0  0  0  0  0  0  0  0
   30.4050  -21.5184  -11.9041 C   0  0  0  0  0  0  0  0  0  0  0  0
   29.6971  -20.2394  -12.3167 C   0  0  0  0  0  0  0  0  0  0  0  0
   28.4191  -20.5720  -13.0941 C   0  0  2  0  0  0  0  0  0  0  0  0
   28.5236  -19.8712  -14.3543 N   0  0  0  0  0  0  0  0  0  0  0  0
   27.2230  -20.0985  -12.3783 C   0  0  0  0  0  0  0  0  0  0  0  0
   27.1429  -18.8471  -12.1045 O   0  0  0  0  0  0  0  0  0  0  0  0
   34.1044  -24.1902  -10.6173 C   0  0  0  0  0  0  0  0  0  0  0  0
   23.6378  -19.9725  -13.3876 C   0  0  2  0  0  0  0  0  0  0  0  0
   23.7276  -20.5907  -12.0510 C   0  0  0  0  0  0  0  0  0  0  0  0
   23.4545  -22.0849  -12.1669 C   0  0  2  0  0  0  0  0  0  0  0  0
   25.0281  -20.4352  -11.3374 N   0  0  0  0  0  0  0  0  0  0  0  0
   26.1637  -20.9600  -11.9814 C   0  0  0  0  0  0  0  0  0  0  0  0
   24.9293  -20.9804   -9.9585 O   0  0  0  0  0  0  0  0  0  0  0  0
   24.0765  -20.3788   -9.0555 O   0  0  0  0  0  0  0  0  0  0  0  0
  2  1  1  6
  2  3  1  0
  4  5  2  0
  4  2  1  0
  6  7  1  0
  7  9  1  0
  8  7  2  0
  9 10  1  0
 10 11  1  0
 11 12  1  0
 13 12  1  1
 13 14  1  0
 14  4  1  0
 15 21  1  0
 15 13  1  0
 16 15  2  0
 18 20  1  0
 18 17  1  1
 19 18  1  0
 20 22  1  0
 20 21  1  1
 22 23  1  0
 24 22  2  0
M  END
$$$$
