ARV.pdb
     RDKit          3D

 24 23  0  0  1  0  0  0  0  0999 V2000
   27.6858  -23.0350  -16.8617 C   0  0  0  0  0  0  0  0  0  0  0  0
   27.6705  -24.5224  -16.6519 C   0  0  2  0  0  0  0  0  0  0  0  0
   28.5957  -25.1307  -17.5552 N   0  0  0  0  0  0  0  0  0  0  0  0
   26.2648  -24.9817  -16.9167 C   0  0  0  0  0  0  0  0  0  0  0  0
   25.8784  -25.3370  -18.0386 O   0  0  0  0  0  0  0  0  0  0  0  0
   20.2644  -26.1602  -11.5518 N   0  0  0  0  0  0  0  0  0  0  0  0
   19.8748  -27.3373  -12.2837 C   0  0  0  0  0  0  0  0  0  0  0  0
   18.6611  -27.8002  -12.2057 N   0  0  0  0  0  0  0  0  0  0  0  0
   20.7918  -28.0329  -13.1121 N   0  0  0  0  0  0  0  0  0  0  0  0
   22.1566  -27.5696  -13.2295 C   0  0  0  0  0  0  0  0  0  0  0  0
   22.3785  -26.8063  -14.5139 C   0  0  0  0  0  0  0  0  0  0  0  0
   23.8250  -26.3566  -14.6272 C   0  0  0  0  0  0  0  0  0  0  0  0
   24.0244  -25.5425  -15.9100 C   0  0  2  0  0  0  0  0  0  0  0  0
   25.3639  -25.0033  -15.8374 N   0  0  0  0  0  0  0  0  0  0  0  0
   23.0623  -24.4309  -15.9891 C   0  0  0  0  0  0  0  0  0  0  0  0
   23.1575  -23.4910  -15.1203 O   0  0  0  0  0  0  0  0  0  0  0  0
   18.4193  -28.6266  -12.7892 C   0  0  0  0  0  0  0  0  0  0  0  0
   22.3013  -22.0144  -18.9477 C   0  0  2  0  0  0  0  0  0  0  0  0
   21.0641  -22.5712  -18.3680 C   0  0  0  0  0  0  0  0  0  0  0  0
   20.4777  -23.6011  -19.3249 C   0  0  2  0  0  0  0  0  0  0  0  0
   21.1974  -23.2322  -17.0376 N   0  0  0  0  0  0  0  0  0  0  0  0
   22.0425  -24.3554  -16.9771 C   0  0  0  0  0  0  0  0  0  0  0  0
   19.8573  -23.5756  -16.4947 O   0  0  0  0  0  0  0  0  0  0  0  0
   19.0149  -22.5610  -16.0877 O   0  0  0  0  0  0  0  0  0  0  0  0
  2  1  1  6
  2  3  1  0
  4  5  2  0
  4  2  1  0
  6  7  1  0
  7  9  1  0
  8  7  2  0
  9 10  1  0
 10 11  1  0
 11 12  1  0
 13 12  1  1
 13 14  1  0
 14  4  1  0
 15 21  1  0
 15 13  1  0
 16 15  2  0
 18 20  1  0
 18 17  1  6
 19 18  1  0
 20 22  1  0
 20 21  1  1
 22 23  1  0
 24 22  2  0
M  END
$$$$
