ARV.pdb
     RDKit          3D

 24 23  0  0  1  0  0  0  0  0999 V2000
   20.3097  -30.0373  -11.6350 C   0  0  0  0  0  0  0  0  0  0  0  0
   20.8332  -28.6306  -11.6968 C   0  0  2  0  0  0  0  0  0  0  0  0
   21.8093  -28.4503  -10.6689 N   0  0  0  0  0  0  0  0  0  0  0  0
   19.6539  -27.7215  -11.4971 C   0  0  0  0  0  0  0  0  0  0  0  0
   18.6200  -27.8103  -12.1735 O   0  0  0  0  0  0  0  0  0  0  0  0
   15.9133  -26.8824   -5.1255 N   0  0  0  0  0  0  0  0  0  0  0  0
   16.9052  -25.8703   -4.8708 C   0  0  0  0  0  0  0  0  0  0  0  0
   17.1788  -25.4952   -3.6551 N   0  0  0  0  0  0  0  0  0  0  0  0
   17.6172  -25.2472   -5.9272 N   0  0  0  0  0  0  0  0  0  0  0  0
   16.9787  -25.0421   -7.2083 C   0  0  0  0  0  0  0  0  0  0  0  0
   17.9222  -24.4169   -8.2085 C   0  0  0  0  0  0  0  0  0  0  0  0
   18.9576  -25.4267   -8.6726 C   0  0  0  0  0  0  0  0  0  0  0  0
   18.6459  -25.8815  -10.1024 C   0  0  2  0  0  0  0  0  0  0  0  0
   19.7430  -26.7356  -10.4987 N   0  0  0  0  0  0  0  0  0  0  0  0
   18.5738  -24.7336  -11.0214 C   0  0  0  0  0  0  0  0  0  0  0  0
   19.6101  -23.9841  -11.1289 O   0  0  0  0  0  0  0  0  0  0  0  0
   17.9728  -24.8374   -3.5181 C   0  0  0  0  0  0  0  0  0  0  0  0
   17.4758  -24.7471  -14.8467 C   0  0  2  0  0  0  0  0  0  0  0  0
   16.8458  -23.6676  -14.0628 C   0  0  0  0  0  0  0  0  0  0  0  0
   15.3792  -24.0049  -13.8273 C   0  0  2  0  0  0  0  0  0  0  0  0
   17.4507  -23.3797  -12.7301 N   0  0  0  0  0  0  0  0  0  0  0  0
   17.4166  -24.4234  -11.7872 C   0  0  0  0  0  0  0  0  0  0  0  0
   16.8548  -22.1495  -12.1472 O   0  0  0  0  0  0  0  0  0  0  0  0
   17.0954  -20.9324  -12.7518 O   0  0  0  0  0  0  0  0  0  0  0  0
  2  1  1  1
  2  3  1  0
  4  5  2  0
  4  2  1  0
  6  7  1  0
  7  9  1  0
  8  7  2  0
  9 10  1  0
 10 11  1  0
 11 12  1  0
 13 12  1  1
 13 14  1  0
 14  4  1  0
 15 21  1  0
 15 13  1  0
 16 15  2  0
 18 20  1  0
 18 17  1  6
 19 18  1  0
 20 22  1  0
 20 21  1  6
 22 23  1  0
 24 22  2  0
M  END
$$$$
