ARV.pdb
     RDKit          3D

 24 23  0  0  1  0  0  0  0  0999 V2000
   28.2777  -17.9372  -16.0626 C   0  0  0  0  0  0  0  0  0  0  0  0
   27.1786  -18.6459  -16.8017 C   0  0  2  0  0  0  0  0  0  0  0  0
   26.5220  -17.7160  -17.6654 N   0  0  0  0  0  0  0  0  0  0  0  0
   26.2376  -19.1862  -15.7625 C   0  0  0  0  0  0  0  0  0  0  0  0
   25.4907  -18.4579  -15.0947 O   0  0  0  0  0  0  0  0  0  0  0  0
   21.6395  -24.1104  -12.9920 N   0  0  0  0  0  0  0  0  0  0  0  0
   21.4469  -24.3951  -14.3902 C   0  0  0  0  0  0  0  0  0  0  0  0
   20.2852  -24.2257  -14.9517 N   0  0  0  0  0  0  0  0  0  0  0  0
   22.5078  -24.8679  -15.2038 N   0  0  0  0  0  0  0  0  0  0  0  0
   23.8742  -24.7692  -14.7409 C   0  0  0  0  0  0  0  0  0  0  0  0
   24.1795  -23.3960  -14.1908 C   0  0  0  0  0  0  0  0  0  0  0  0
   25.0295  -22.6035  -15.1689 C   0  0  0  0  0  0  0  0  0  0  0  0
   25.3785  -21.2349  -14.5744 C   0  0  2  0  0  0  0  0  0  0  0  0
   26.2159  -20.5761  -15.5516 N   0  0  0  0  0  0  0  0  0  0  0  0
   26.1291  -21.3777  -13.3160 C   0  0  0  0  0  0  0  0  0  0  0  0
   27.1643  -22.1363  -13.3168 O   0  0  0  0  0  0  0  0  0  0  0  0
   20.1976  -24.4552  -15.9624 C   0  0  0  0  0  0  0  0  0  0  0  0
   28.5259  -19.8001  -11.1892 C   0  0  2  0  0  0  0  0  0  0  0  0
   27.3577  -20.1011  -10.3398 C   0  0  0  0  0  0  0  0  0  0  0  0
   26.6034  -18.8112  -10.0439 C   0  0  2  0  0  0  0  0  0  0  0  0
   26.3700  -21.0711  -10.8948 N   0  0  0  0  0  0  0  0  0  0  0  0
   25.7595  -20.7174  -12.1121 C   0  0  0  0  0  0  0  0  0  0  0  0
   25.3319  -21.3890   -9.8801 O   0  0  0  0  0  0  0  0  0  0  0  0
   25.7070  -21.9995   -8.7006 O   0  0  0  0  0  0  0  0  0  0  0  0
  2  1  1  1
  2  3  1  0
  4  5  2  0
  4  2  1  0
  6  7  1  0
  7  9  1  0
  8  7  2  0
  9 10  1  0
 10 11  1  0
 11 12  1  0
 13 12  1  6
 13 14  1  0
 14  4  1  0
 15 21  1  0
 15 13  1  0
 16 15  2  0
 18 20  1  0
 18 17  1  1
 19 18  1  0
 20 22  1  0
 20 21  1  1
 22 23  1  0
 24 22  2  0
M  END
$$$$
