ARV.pdb
     RDKit          3D

 24 23  0  0  1  0  0  0  0  0999 V2000
   16.5171  -24.5022  -12.6502 C   0  0  0  0  0  0  0  0  0  0  0  0
   17.7279  -24.1617  -11.8290 C   0  0  2  0  0  0  0  0  0  0  0  0
   17.3527  -24.0886  -10.4521 N   0  0  0  0  0  0  0  0  0  0  0  0
   18.2316  -22.8380  -12.3300 C   0  0  0  0  0  0  0  0  0  0  0  0
   17.5562  -21.8013  -12.2726 O   0  0  0  0  0  0  0  0  0  0  0  0
   26.7193  -21.2789  -12.8896 N   0  0  0  0  0  0  0  0  0  0  0  0
   25.6873  -21.3810  -11.8908 C   0  0  0  0  0  0  0  0  0  0  0  0
   25.9852  -21.6053  -10.6440 N   0  0  0  0  0  0  0  0  0  0  0  0
   24.3159  -21.2422  -12.2244 N   0  0  0  0  0  0  0  0  0  0  0  0
   23.9331  -20.8347  -13.5580 C   0  0  0  0  0  0  0  0  0  0  0  0
   22.4450  -20.5984  -13.6640 C   0  0  0  0  0  0  0  0  0  0  0  0
   21.6735  -21.8153  -13.1833 C   0  0  0  0  0  0  0  0  0  0  0  0
   20.1673  -21.5781  -13.3365 C   0  0  2  0  0  0  0  0  0  0  0  0
   19.5233  -22.7906  -12.8834 N   0  0  0  0  0  0  0  0  0  0  0  0
   19.8072  -21.3394  -14.7439 C   0  0  0  0  0  0  0  0  0  0  0  0
   19.9171  -22.3184  -15.5665 O   0  0  0  0  0  0  0  0  0  0  0  0
   25.2020  -21.6674   -9.9624 C   0  0  0  0  0  0  0  0  0  0  0  0
   17.3671  -18.9619  -18.2538 C   0  0  2  0  0  0  0  0  0  0  0  0
   17.7277  -19.1580  -16.8367 C   0  0  0  0  0  0  0  0  0  0  0  0
   16.5902  -19.8754  -16.1213 C   0  0  1  0  0  0  0  0  0  0  0  0
   18.9729  -19.9357  -16.5736 N   0  0  0  0  0  0  0  0  0  0  0  0
   19.3475  -20.0829  -15.2254 C   0  0  0  0  0  0  0  0  0  0  0  0
   20.1058  -19.3776  -17.3570 O   0  0  0  0  0  0  0  0  0  0  0  0
   20.3251  -19.8316  -18.6417 O   0  0  0  0  0  0  0  0  0  0  0  0
  2  1  1  6
  2  3  1  0
  4  5  2  0
  4  2  1  0
  6  7  1  0
  7  9  1  0
  8  7  2  0
  9 10  1  0
 10 11  1  0
 11 12  1  0
 13 12  1  6
 13 14  1  0
 14  4  1  0
 15 21  1  0
 15 13  1  0
 16 15  2  0
 18 20  1  0
 18 17  1  1
 19 18  1  0
 20 22  1  0
 20 21  1  1
 22 23  1  0
 24 22  2  0
M  END
$$$$
