VIA.pdb
     RDKit          3D

 21 20  0  0  1  0  0  0  0  0999 V2000
    7.8910  -17.1284   21.2186 C   0  0  0  0  0  0  0  0  0  0  0  0
    6.7141  -16.1943   21.1777 C   0  0  2  0  0  0  0  0  0  0  0  0
    5.7930  -16.4893   20.0181 C   0  0  0  0  0  0  0  0  0  0  0  0
    7.1658  -14.7641   21.1738 C   0  0  2  0  0  0  0  0  0  0  0  0
    7.9576  -14.4879   20.0095 N   0  0  0  0  0  0  0  0  0  0  0  0
    7.9012  -14.5068   22.4423 C   0  0  0  0  0  0  0  0  0  0  0  0
    9.1542  -14.4244   22.3656 O   0  0  0  0  0  0  0  0  0  0  0  0
    5.7877  -11.4241   26.3204 C   0  0  0  0  0  0  0  0  0  0  0  0
    6.7685  -12.1035   25.4079 C   0  0  0  0  0  0  0  0  0  0  0  0
    7.1507  -13.4785   25.9040 C   0  0  2  0  0  0  0  0  0  0  0  0
    7.8757  -13.3930   27.2191 C   0  0  0  0  0  0  0  0  0  0  0  0
    8.0282  -14.2166   24.9245 C   0  0  2  0  0  0  0  0  0  0  0  0
    7.2703  -14.3548   23.6976 N   0  0  0  0  0  0  0  0  0  0  0  0
    8.4397  -15.5400   25.3839 C   0  0  0  0  0  0  0  0  0  0  0  0
    7.5978  -16.3612   25.7964 O   0  0  0  0  0  0  0  0  0  0  0  0
   11.6093  -17.5510   25.1045 C   0  0  0  0  0  0  0  0  0  0  0  0
   10.2701  -17.2338   25.7119 C   0  0  2  0  0  0  0  0  0  0  0  0
    9.7978  -15.9140   25.3694 N   0  0  0  0  0  0  0  0  0  0  0  0
   10.4239  -17.2937   27.1905 C   0  0  0  0  0  0  0  0  0  0  0  0
   10.2557  -16.1962   28.0183 O   0  0  0  0  0  0  0  0  0  0  0  0
   10.7249  -18.3872   27.7724 O   0  0  0  0  0  0  0  0  0  0  0  0
  2  1  1  6
  2  4  1  0
  3  2  1  0
  4  5  1  6
  6  7  2  0
  6  4  1  0
  8  9  1  0
  9 10  1  0
 10 12  1  0
 10 11  1  1
 12 14  1  0
 12 13  1  6
 13  6  1  0
 14 18  1  0
 15 14  2  0
 17 16  1  6
 17 19  1  0
 18 17  1  0
 19 21  2  0
 19 20  1  0
M  END
$$$$
