VIA.pdb
     RDKit          3D

 21 20  0  0  1  0  0  0  0  0999 V2000
    6.8221  -15.6051   19.0886 C   0  0  0  0  0  0  0  0  0  0  0  0
    7.4366  -15.4929   20.4558 C   0  0  2  0  0  0  0  0  0  0  0  0
    6.8975  -16.5322   21.4094 C   0  0  0  0  0  0  0  0  0  0  0  0
    7.2756  -14.1056   21.0027 C   0  0  2  0  0  0  0  0  0  0  0  0
    7.7425  -13.1328   20.0569 N   0  0  0  0  0  0  0  0  0  0  0  0
    7.9963  -14.0336   22.3033 C   0  0  0  0  0  0  0  0  0  0  0  0
    9.2435  -13.8767   22.2535 O   0  0  0  0  0  0  0  0  0  0  0  0
    5.9824  -11.3684   26.4454 C   0  0  0  0  0  0  0  0  0  0  0  0
    6.9405  -12.0046   25.4791 C   0  0  0  0  0  0  0  0  0  0  0  0
    7.2347  -13.4439   25.8324 C   0  0  2  0  0  0  0  0  0  0  0  0
    7.9201  -13.5402   27.1677 C   0  0  0  0  0  0  0  0  0  0  0  0
    8.1040  -14.1196   24.8018 C   0  0  2  0  0  0  0  0  0  0  0  0
    7.3577  -14.1312   23.5601 N   0  0  0  0  0  0  0  0  0  0  0  0
    8.4741  -15.4884   25.1499 C   0  0  0  0  0  0  0  0  0  0  0  0
    7.6033  -16.3241   25.4605 O   0  0  0  0  0  0  0  0  0  0  0  0
   11.6159  -17.5363   24.8055 C   0  0  0  0  0  0  0  0  0  0  0  0
   10.2596  -17.2441   25.3870 C   0  0  2  0  0  0  0  0  0  0  0  0
    9.8242  -15.8906   25.1411 N   0  0  0  0  0  0  0  0  0  0  0  0
   10.3541  -17.4324   26.8598 C   0  0  0  0  0  0  0  0  0  0  0  0
   10.6376  -18.6504   27.4547 O   0  0  0  0  0  0  0  0  0  0  0  0
   10.1731  -16.4539   27.6565 O   0  0  0  0  0  0  0  0  0  0  0  0
  2  1  1  6
  2  4  1  0
  3  2  1  0
  4  5  1  6
  6  7  2  0
  6  4  1  0
  8  9  1  0
  9 10  1  0
 10 12  1  0
 10 11  1  1
 12 14  1  0
 12 13  1  6
 13  6  1  0
 14 18  1  0
 15 14  2  0
 17 16  1  6
 17 19  1  0
 18 17  1  0
 19 21  2  0
 19 20  1  0
M  END
$$$$
