VIA.pdb
     RDKit          3D

 21 20  0  0  1  0  0  0  0  0999 V2000
    7.9971  -17.0261   20.8009 C   0  0  0  0  0  0  0  0  0  0  0  0
    6.8084  -16.1124   20.9087 C   0  0  2  0  0  0  0  0  0  0  0  0
    5.8666  -16.2630   19.7380 C   0  0  0  0  0  0  0  0  0  0  0  0
    7.2427  -14.6881   21.0881 C   0  0  2  0  0  0  0  0  0  0  0  0
    8.0028  -14.2454   19.9544 N   0  0  0  0  0  0  0  0  0  0  0  0
    8.0054  -14.5931   22.3630 C   0  0  0  0  0  0  0  0  0  0  0  0
    9.2599  -14.5645   22.2735 O   0  0  0  0  0  0  0  0  0  0  0  0
    5.6982  -11.7110   26.1415 C   0  0  0  0  0  0  0  0  0  0  0  0
    6.7905  -12.2961   25.2925 C   0  0  0  0  0  0  0  0  0  0  0  0
    7.2817  -13.6205   25.8287 C   0  0  2  0  0  0  0  0  0  0  0  0
    8.0453  -13.4314   27.1107 C   0  0  0  0  0  0  0  0  0  0  0  0
    8.1718  -14.3405   24.8470 C   0  0  2  0  0  0  0  0  0  0  0  0
    7.3981  -14.5351   23.6376 N   0  0  0  0  0  0  0  0  0  0  0  0
    8.6475  -15.6359   25.3238 C   0  0  0  0  0  0  0  0  0  0  0  0
    7.8434  -16.5100   25.7012 O   0  0  0  0  0  0  0  0  0  0  0  0
   11.9835  -17.3967   25.2038 C   0  0  0  0  0  0  0  0  0  0  0  0
   10.5659  -17.2239   25.6768 C   0  0  2  0  0  0  0  0  0  0  0  0
   10.0262  -15.9222   25.3663 N   0  0  0  0  0  0  0  0  0  0  0  0
   10.5663  -17.3762   27.1568 C   0  0  0  0  0  0  0  0  0  0  0  0
   10.9295  -18.5468   27.8014 O   0  0  0  0  0  0  0  0  0  0  0  0
   10.2230  -16.4093   27.9132 O   0  0  0  0  0  0  0  0  0  0  0  0
  2  1  1  6
  2  4  1  0
  3  2  1  0
  4  5  1  6
  6  7  2  0
  6  4  1  0
  8  9  1  0
  9 10  1  0
 10 12  1  0
 10 11  1  1
 12 14  1  0
 12 13  1  6
 13  6  1  0
 14 18  1  0
 15 14  2  0
 17 16  1  1
 17 19  1  0
 18 17  1  0
 19 21  2  0
 19 20  1  0
M  END
$$$$
