VIA.pdb
     RDKit          3D

 21 20  0  0  1  0  0  0  0  0999 V2000
    6.9301  -15.3864   18.7171 C   0  0  0  0  0  0  0  0  0  0  0  0
    7.5290  -15.2981   20.0929 C   0  0  2  0  0  0  0  0  0  0  0  0
    6.9003  -16.2806   21.0518 C   0  0  0  0  0  0  0  0  0  0  0  0
    7.4610  -13.8946   20.6172 C   0  0  2  0  0  0  0  0  0  0  0  0
    8.0460  -12.9772   19.6817 N   0  0  0  0  0  0  0  0  0  0  0  0
    8.1302  -13.8634   21.9467 C   0  0  0  0  0  0  0  0  0  0  0  0
    9.3870  -13.8091   21.9486 O   0  0  0  0  0  0  0  0  0  0  0  0
    7.2458  -11.7141   27.5337 C   0  0  0  0  0  0  0  0  0  0  0  0
    7.9833  -12.7117   26.6867 C   0  0  0  0  0  0  0  0  0  0  0  0
    7.3367  -12.8996   25.3341 C   0  0  2  0  0  0  0  0  0  0  0  0
    5.9417  -13.4439   25.4763 C   0  0  0  0  0  0  0  0  0  0  0  0
    8.1234  -13.8332   24.4487 C   0  0  2  0  0  0  0  0  0  0  0  0
    7.4339  -13.8914   23.1759 N   0  0  0  0  0  0  0  0  0  0  0  0
    8.2515  -15.1851   24.9852 C   0  0  0  0  0  0  0  0  0  0  0  0
    7.2459  -15.9020   25.1522 O   0  0  0  0  0  0  0  0  0  0  0  0
   10.8631  -17.7357   25.0195 C   0  0  0  0  0  0  0  0  0  0  0  0
    9.7352  -17.0649   25.7547 C   0  0  2  0  0  0  0  0  0  0  0  0
    9.5161  -15.7051   25.3246 N   0  0  0  0  0  0  0  0  0  0  0  0
   10.0970  -17.0342   27.1975 C   0  0  0  0  0  0  0  0  0  0  0  0
   10.2618  -18.1749   27.9653 O   0  0  0  0  0  0  0  0  0  0  0  0
   10.2750  -15.9267   27.8030 O   0  0  0  0  0  0  0  0  0  0  0  0
  2  1  1  6
  2  4  1  0
  3  2  1  0
  4  5  1  6
  6  7  2  0
  6  4  1  0
  8  9  1  0
  9 10  1  0
 10 12  1  0
 10 11  1  1
 12 14  1  0
 12 13  1  6
 13  6  1  0
 14 18  1  0
 15 14  2  0
 17 16  1  6
 17 19  1  0
 18 17  1  0
 19 21  2  0
 19 20  1  0
M  END
$$$$
