VIA.pdb
     RDKit          3D

 21 20  0  0  1  0  0  0  0  0999 V2000
    7.9768  -17.0777   21.2244 C   0  0  0  0  0  0  0  0  0  0  0  0
    6.7710  -16.1803   21.2362 C   0  0  2  0  0  0  0  0  0  0  0  0
    5.8262  -16.4811   20.0973 C   0  0  0  0  0  0  0  0  0  0  0  0
    7.1782  -14.7369   21.2489 C   0  0  2  0  0  0  0  0  0  0  0  0
    7.9068  -14.4073   20.0576 N   0  0  0  0  0  0  0  0  0  0  0  0
    7.9630  -14.4876   22.4892 C   0  0  0  0  0  0  0  0  0  0  0  0
    9.2156  -14.4691   22.3744 O   0  0  0  0  0  0  0  0  0  0  0  0
    5.9831  -11.3029   26.3110 C   0  0  0  0  0  0  0  0  0  0  0  0
    6.9534  -12.0075   25.4064 C   0  0  0  0  0  0  0  0  0  0  0  0
    7.3631  -13.3564   25.9500 C   0  0  2  0  0  0  0  0  0  0  0  0
    8.1670  -13.2055   27.2122 C   0  0  0  0  0  0  0  0  0  0  0  0
    8.1782  -14.1489   24.9591 C   0  0  2  0  0  0  0  0  0  0  0  0
    7.3781  -14.2762   23.7580 N   0  0  0  0  0  0  0  0  0  0  0  0
    8.5469  -15.4805   25.4312 C   0  0  0  0  0  0  0  0  0  0  0  0
    7.6867  -16.2508   25.8999 O   0  0  0  0  0  0  0  0  0  0  0  0
   11.6352  -17.6292   25.1601 C   0  0  0  0  0  0  0  0  0  0  0  0
   10.3159  -17.2368   25.7671 C   0  0  2  0  0  0  0  0  0  0  0  0
    9.8838  -15.9199   25.3657 N   0  0  0  0  0  0  0  0  0  0  0  0
   10.4875  -17.2298   27.2449 C   0  0  0  0  0  0  0  0  0  0  0  0
   10.3212  -16.0977   28.0250 O   0  0  0  0  0  0  0  0  0  0  0  0
   10.8033  -18.2943   27.8711 O   0  0  0  0  0  0  0  0  0  0  0  0
  2  1  1  6
  2  4  1  0
  3  2  1  0
  4  5  1  6
  6  7  2  0
  6  4  1  0
  8  9  1  0
  9 10  1  0
 10 12  1  0
 10 11  1  1
 12 14  1  0
 12 13  1  6
 13  6  1  0
 14 18  1  0
 15 14  2  0
 17 16  1  6
 17 19  1  0
 18 17  1  0
 19 21  2  0
 19 20  1  0
M  END
$$$$
