VIA.pdb
     RDKit          3D

 21 20  0  0  1  0  0  0  0  0999 V2000
    7.7992  -17.2799   21.0605 C   0  0  0  0  0  0  0  0  0  0  0  0
    6.7124  -16.2415   21.0533 C   0  0  2  0  0  0  0  0  0  0  0  0
    5.7969  -16.3837   19.8610 C   0  0  0  0  0  0  0  0  0  0  0  0
    7.2910  -14.8607   21.1434 C   0  0  2  0  0  0  0  0  0  0  0  0
    8.1265  -14.5884   20.0091 N   0  0  0  0  0  0  0  0  0  0  0  0
    8.0222  -14.7479   22.4352 C   0  0  0  0  0  0  0  0  0  0  0  0
    9.2745  -14.8588   22.3904 O   0  0  0  0  0  0  0  0  0  0  0  0
    5.8441  -11.4962   26.1290 C   0  0  0  0  0  0  0  0  0  0  0  0
    6.8370  -12.2081   25.2551 C   0  0  0  0  0  0  0  0  0  0  0  0
    7.2573  -13.5380   25.8361 C   0  0  2  0  0  0  0  0  0  0  0  0
    7.9927  -13.3488   27.1345 C   0  0  0  0  0  0  0  0  0  0  0  0
    8.1429  -14.3182   24.8974 C   0  0  2  0  0  0  0  0  0  0  0  0
    7.3881  -14.5272   23.6786 N   0  0  0  0  0  0  0  0  0  0  0  0
    8.5658  -15.6120   25.4256 C   0  0  0  0  0  0  0  0  0  0  0  0
    7.7254  -16.4501   25.8057 O   0  0  0  0  0  0  0  0  0  0  0  0
   11.7961  -17.5333   25.3918 C   0  0  0  0  0  0  0  0  0  0  0  0
   10.4249  -17.2292   25.9306 C   0  0  2  0  0  0  0  0  0  0  0  0
    9.9334  -15.9375   25.5157 N   0  0  0  0  0  0  0  0  0  0  0  0
   10.5181  -17.2263   27.4155 C   0  0  0  0  0  0  0  0  0  0  0  0
   10.8650  -18.3423   28.1585 O   0  0  0  0  0  0  0  0  0  0  0  0
   10.2759  -16.1678   28.0832 O   0  0  0  0  0  0  0  0  0  0  0  0
  2  1  1  6
  2  4  1  0
  3  2  1  0
  4  5  1  6
  6  7  2  0
  6  4  1  0
  8  9  1  0
  9 10  1  0
 10 12  1  0
 10 11  1  1
 12 14  1  0
 12 13  1  6
 13  6  1  0
 14 18  1  0
 15 14  2  0
 17 16  1  6
 17 19  1  0
 18 17  1  0
 19 21  2  0
 19 20  1  0
M  END
$$$$
