VIA.pdb
     RDKit          3D

 21 20  0  0  1  0  0  0  0  0999 V2000
    6.3665  -16.8592   19.8134 C   0  0  0  0  0  0  0  0  0  0  0  0
    7.0839  -16.5229   21.0907 C   0  0  2  0  0  0  0  0  0  0  0  0
    6.5498  -17.3052   22.2667 C   0  0  0  0  0  0  0  0  0  0  0  0
    7.0516  -15.0459   21.3498 C   0  0  2  0  0  0  0  0  0  0  0  0
    7.5294  -14.3223   20.2067 N   0  0  0  0  0  0  0  0  0  0  0  0
    7.8496  -14.7730   22.5766 C   0  0  0  0  0  0  0  0  0  0  0  0
    9.0983  -14.7076   22.4388 O   0  0  0  0  0  0  0  0  0  0  0  0
    5.9783  -11.3161   26.1082 C   0  0  0  0  0  0  0  0  0  0  0  0
    6.8807  -12.1537   25.2477 C   0  0  0  0  0  0  0  0  0  0  0  0
    7.2966  -13.4336   25.9346 C   0  0  2  0  0  0  0  0  0  0  0  0
    8.1194  -13.1431   27.1597 C   0  0  0  0  0  0  0  0  0  0  0  0
    8.0956  -14.3358   25.0281 C   0  0  2  0  0  0  0  0  0  0  0  0
    7.2810  -14.5886   23.8570 N   0  0  0  0  0  0  0  0  0  0  0  0
    8.4621  -15.6099   25.6397 C   0  0  0  0  0  0  0  0  0  0  0  0
    7.5968  -16.3354   26.1671 O   0  0  0  0  0  0  0  0  0  0  0  0
   11.5587  -17.7565   25.5301 C   0  0  0  0  0  0  0  0  0  0  0  0
   10.2201  -17.3528   26.0854 C   0  0  2  0  0  0  0  0  0  0  0  0
    9.8024  -16.0437   25.6450 N   0  0  0  0  0  0  0  0  0  0  0  0
   10.3426  -17.3177   27.5677 C   0  0  0  0  0  0  0  0  0  0  0  0
   10.5686  -18.4451   28.3396 O   0  0  0  0  0  0  0  0  0  0  0  0
   10.2418  -16.2188   28.2058 O   0  0  0  0  0  0  0  0  0  0  0  0
  2  1  1  6
  2  4  1  0
  3  2  1  0
  4  5  1  6
  6  7  2  0
  6  4  1  0
  8  9  1  0
  9 10  1  0
 10 12  1  0
 10 11  1  1
 12 14  1  0
 12 13  1  6
 13  6  1  0
 14 18  1  0
 15 14  2  0
 17 16  1  6
 17 19  1  0
 18 17  1  0
 19 21  2  0
 19 20  1  0
M  END
$$$$
