VIA.pdb
     RDKit          3D

 21 20  0  0  1  0  0  0  0  0999 V2000
    8.3203  -17.2748   21.3931 C   0  0  0  0  0  0  0  0  0  0  0  0
    7.0005  -16.5555   21.4072 C   0  0  2  0  0  0  0  0  0  0  0  0
    6.1089  -16.9792   20.2645 C   0  0  0  0  0  0  0  0  0  0  0  0
    7.2012  -15.0693   21.4289 C   0  0  2  0  0  0  0  0  0  0  0  0
    7.8288  -14.6268   20.2169 N   0  0  0  0  0  0  0  0  0  0  0  0
    7.9915  -14.7260   22.6430 C   0  0  0  0  0  0  0  0  0  0  0  0
    9.2149  -14.4857   22.4749 O   0  0  0  0  0  0  0  0  0  0  0  0
    6.0787  -11.4337   26.2474 C   0  0  0  0  0  0  0  0  0  0  0  0
    7.0433  -12.2096   25.3966 C   0  0  0  0  0  0  0  0  0  0  0  0
    7.4337  -13.5240   26.0315 C   0  0  2  0  0  0  0  0  0  0  0  0
    8.2172  -13.2984   27.2955 C   0  0  0  0  0  0  0  0  0  0  0  0
    8.2596  -14.3828   25.1070 C   0  0  2  0  0  0  0  0  0  0  0  0
    7.4424  -14.6597   23.9433 N   0  0  0  0  0  0  0  0  0  0  0  0
    8.6875  -15.6456   25.7021 C   0  0  0  0  0  0  0  0  0  0  0  0
    7.8709  -16.3829   26.2873 O   0  0  0  0  0  0  0  0  0  0  0  0
   11.8906  -17.6616   25.6399 C   0  0  0  0  0  0  0  0  0  0  0  0
   10.5234  -17.3042   26.1556 C   0  0  2  0  0  0  0  0  0  0  0  0
   10.0334  -16.0547   25.6256 N   0  0  0  0  0  0  0  0  0  0  0  0
   10.6249  -17.1643   27.6333 C   0  0  0  0  0  0  0  0  0  0  0  0
   10.8648  -18.2304   28.4840 O   0  0  0  0  0  0  0  0  0  0  0  0
   10.4916  -16.0266   28.1926 O   0  0  0  0  0  0  0  0  0  0  0  0
  2  1  1  6
  2  4  1  0
  3  2  1  0
  4  5  1  6
  6  7  2  0
  6  4  1  0
  8  9  1  0
  9 10  1  0
 10 12  1  0
 10 11  1  1
 12 14  1  0
 12 13  1  6
 13  6  1  0
 14 18  1  0
 15 14  2  0
 17 16  1  6
 17 19  1  0
 18 17  1  0
 19 21  2  0
 19 20  1  0
M  END
$$$$
