VIA.pdb
     RDKit          3D

 21 20  0  0  1  0  0  0  0  0999 V2000
    5.8845  -16.8136   19.8909 C   0  0  0  0  0  0  0  0  0  0  0  0
    6.7612  -16.5107   21.0738 C   0  0  2  0  0  0  0  0  0  0  0  0
    6.4180  -17.3653   22.2705 C   0  0  0  0  0  0  0  0  0  0  0  0
    6.7212  -15.0494   21.4094 C   0  0  2  0  0  0  0  0  0  0  0  0
    7.0505  -14.2580   20.2587 N   0  0  0  0  0  0  0  0  0  0  0  0
    7.6439  -14.8111   22.5531 C   0  0  0  0  0  0  0  0  0  0  0  0
    8.8692  -14.7171   22.2841 O   0  0  0  0  0  0  0  0  0  0  0  0
    5.9802  -11.5111   26.3659 C   0  0  0  0  0  0  0  0  0  0  0  0
    6.8567  -12.2557   25.3996 C   0  0  0  0  0  0  0  0  0  0  0  0
    7.3673  -13.5549   25.9778 C   0  0  2  0  0  0  0  0  0  0  0  0
    8.2614  -13.3022   27.1605 C   0  0  0  0  0  0  0  0  0  0  0  0
    8.1352  -14.3684   24.9664 C   0  0  2  0  0  0  0  0  0  0  0  0
    7.2153  -14.6889   23.8941 N   0  0  0  0  0  0  0  0  0  0  0  0
    8.6905  -15.6063   25.5058 C   0  0  0  0  0  0  0  0  0  0  0  0
    7.9672  -16.4143   26.1200 O   0  0  0  0  0  0  0  0  0  0  0  0
   11.9924  -17.3972   25.0713 C   0  0  0  0  0  0  0  0  0  0  0  0
   10.6438  -17.1790   25.7011 C   0  0  2  0  0  0  0  0  0  0  0  0
   10.0561  -15.9111   25.3419 N   0  0  0  0  0  0  0  0  0  0  0  0
   10.8314  -17.1931   27.1769 C   0  0  0  0  0  0  0  0  0  0  0  0
   11.2698  -18.3041   27.8778 O   0  0  0  0  0  0  0  0  0  0  0  0
   10.5898  -16.1550   27.8761 O   0  0  0  0  0  0  0  0  0  0  0  0
  2  1  1  6
  2  4  1  0
  3  2  1  0
  4  5  1  6
  6  7  2  0
  6  4  1  0
  8  9  1  0
  9 10  1  0
 10 12  1  0
 10 11  1  1
 12 14  1  0
 12 13  1  6
 13  6  1  0
 14 18  1  0
 15 14  2  0
 17 16  1  6
 17 19  1  0
 18 17  1  0
 19 21  2  0
 19 20  1  0
M  END
$$$$
