VIA.pdb
     RDKit          3D

 21 20  0  0  1  0  0  0  0  0999 V2000
    6.5119  -17.3086   19.9063 C   0  0  0  0  0  0  0  0  0  0  0  0
    7.2444  -16.8912   21.1508 C   0  0  2  0  0  0  0  0  0  0  0  0
    6.7930  -17.6677   22.3646 C   0  0  0  0  0  0  0  0  0  0  0  0
    7.1301  -15.4116   21.3682 C   0  0  2  0  0  0  0  0  0  0  0  0
    7.5603  -14.6952   20.2018 N   0  0  0  0  0  0  0  0  0  0  0  0
    7.9179  -15.0592   22.5813 C   0  0  0  0  0  0  0  0  0  0  0  0
    9.1605  -14.9301   22.4336 O   0  0  0  0  0  0  0  0  0  0  0  0
    6.0030  -11.6020   26.1401 C   0  0  0  0  0  0  0  0  0  0  0  0
    6.9334  -12.4100   25.2811 C   0  0  0  0  0  0  0  0  0  0  0  0
    7.3276  -13.7129   25.9369 C   0  0  2  0  0  0  0  0  0  0  0  0
    8.1100  -13.4650   27.1973 C   0  0  0  0  0  0  0  0  0  0  0  0
    8.1562  -14.5839   25.0264 C   0  0  2  0  0  0  0  0  0  0  0  0
    7.3463  -14.8679   23.8593 N   0  0  0  0  0  0  0  0  0  0  0  0
    8.5742  -15.8430   25.6361 C   0  0  0  0  0  0  0  0  0  0  0  0
    7.7420  -16.5943   26.1803 O   0  0  0  0  0  0  0  0  0  0  0  0
   11.7051  -17.9194   25.4532 C   0  0  0  0  0  0  0  0  0  0  0  0
   10.3982  -17.5171   26.0802 C   0  0  2  0  0  0  0  0  0  0  0  0
    9.9279  -16.2327   25.6206 N   0  0  0  0  0  0  0  0  0  0  0  0
   10.6164  -17.4239   27.5490 C   0  0  0  0  0  0  0  0  0  0  0  0
   10.9230  -18.5159   28.3436 O   0  0  0  0  0  0  0  0  0  0  0  0
   10.5278  -16.3049   28.1530 O   0  0  0  0  0  0  0  0  0  0  0  0
  2  1  1  6
  2  4  1  0
  3  2  1  0
  4  5  1  6
  6  7  2  0
  6  4  1  0
  8  9  1  0
  9 10  1  0
 10 12  1  0
 10 11  1  1
 12 14  1  0
 12 13  1  6
 13  6  1  0
 14 18  1  0
 15 14  2  0
 17 16  1  6
 17 19  1  0
 18 17  1  0
 19 21  2  0
 19 20  1  0
M  END
$$$$
