VIA.pdb
     RDKit          3D

 21 20  0  0  1  0  0  0  0  0999 V2000
    6.4351  -17.3334   20.2206 C   0  0  0  0  0  0  0  0  0  0  0  0
    7.2377  -16.8775   21.4070 C   0  0  2  0  0  0  0  0  0  0  0  0
    6.9243  -17.6785   22.6482 C   0  0  0  0  0  0  0  0  0  0  0  0
    7.0603  -15.4065   21.6400 C   0  0  2  0  0  0  0  0  0  0  0  0
    7.3815  -14.6652   20.4542 N   0  0  0  0  0  0  0  0  0  0  0  0
    7.9006  -15.0172   22.8056 C   0  0  0  0  0  0  0  0  0  0  0  0
    9.1349  -14.8903   22.5986 O   0  0  0  0  0  0  0  0  0  0  0  0
    6.0253  -11.5991   26.4587 C   0  0  0  0  0  0  0  0  0  0  0  0
    6.9783  -12.3437   25.5678 C   0  0  0  0  0  0  0  0  0  0  0  0
    7.4369  -13.6446   26.1845 C   0  0  2  0  0  0  0  0  0  0  0  0
    8.2677  -13.3936   27.4129 C   0  0  0  0  0  0  0  0  0  0  0  0
    8.2476  -14.4783   25.2244 C   0  0  2  0  0  0  0  0  0  0  0  0
    7.3862  -14.7894   24.1018 N   0  0  0  0  0  0  0  0  0  0  0  0
    8.7479  -15.7224   25.8023 C   0  0  0  0  0  0  0  0  0  0  0  0
    7.9690  -16.5332   26.3400 O   0  0  0  0  0  0  0  0  0  0  0  0
   12.0522  -17.5471   25.7006 C   0  0  0  0  0  0  0  0  0  0  0  0
   10.6821  -17.2655   26.2543 C   0  0  2  0  0  0  0  0  0  0  0  0
   10.1221  -16.0298   25.7628 N   0  0  0  0  0  0  0  0  0  0  0  0
   10.8113  -17.1516   27.7321 C   0  0  0  0  0  0  0  0  0  0  0  0
   11.2497  -18.1876   28.5398 O   0  0  0  0  0  0  0  0  0  0  0  0
   10.5157  -16.0665   28.3321 O   0  0  0  0  0  0  0  0  0  0  0  0
  2  1  1  6
  2  4  1  0
  3  2  1  0
  4  5  1  6
  6  7  2  0
  6  4  1  0
  8  9  1  0
  9 10  1  0
 10 12  1  0
 10 11  1  1
 12 14  1  0
 12 13  1  6
 13  6  1  0
 14 18  1  0
 15 14  2  0
 17 16  1  6
 17 19  1  0
 18 17  1  0
 19 21  2  0
 19 20  1  0
M  END
$$$$
