VIA.pdb
     RDKit          3D

 21 20  0  0  1  0  0  0  0  0999 V2000
    6.9923  -17.0298   19.7874 C   0  0  0  0  0  0  0  0  0  0  0  0
    7.6410  -16.6391   21.0858 C   0  0  2  0  0  0  0  0  0  0  0  0
    7.2730  -17.5765   22.2110 C   0  0  0  0  0  0  0  0  0  0  0  0
    7.3302  -15.2131   21.4316 C   0  0  2  0  0  0  0  0  0  0  0  0
    7.6304  -14.3487   20.3263 N   0  0  0  0  0  0  0  0  0  0  0  0
    8.0908  -14.8579   22.6611 C   0  0  0  0  0  0  0  0  0  0  0  0
    9.3162  -14.6108   22.5192 O   0  0  0  0  0  0  0  0  0  0  0  0
    5.8919  -11.6823   26.1898 C   0  0  0  0  0  0  0  0  0  0  0  0
    6.9690  -12.3654   25.3963 C   0  0  0  0  0  0  0  0  0  0  0  0
    7.4165  -13.6582   26.0378 C   0  0  2  0  0  0  0  0  0  0  0  0
    8.1707  -13.3931   27.3118 C   0  0  0  0  0  0  0  0  0  0  0  0
    8.2968  -14.4748   25.1252 C   0  0  2  0  0  0  0  0  0  0  0  0
    7.5121  -14.7877   23.9483 N   0  0  0  0  0  0  0  0  0  0  0  0
    8.7750  -15.7170   25.7251 C   0  0  0  0  0  0  0  0  0  0  0  0
    7.9799  -16.5120   26.2628 O   0  0  0  0  0  0  0  0  0  0  0  0
   12.0597  -17.5795   25.6749 C   0  0  0  0  0  0  0  0  0  0  0  0
   10.6830  -17.2843   26.2046 C   0  0  2  0  0  0  0  0  0  0  0  0
   10.1459  -16.0408   25.7074 N   0  0  0  0  0  0  0  0  0  0  0  0
   10.7865  -17.1769   27.6849 C   0  0  0  0  0  0  0  0  0  0  0  0
   10.4778  -16.0243   28.3878 O   0  0  0  0  0  0  0  0  0  0  0  0
   11.1741  -18.1682   28.3864 O   0  0  0  0  0  0  0  0  0  0  0  0
  2  1  1  6
  2  4  1  0
  3  2  1  0
  4  5  1  6
  6  7  2  0
  6  4  1  0
  8  9  1  0
  9 10  1  0
 10 12  1  0
 10 11  1  1
 12 14  1  0
 12 13  1  6
 13  6  1  0
 14 18  1  0
 15 14  2  0
 17 16  1  6
 17 19  1  0
 18 17  1  0
 19 21  2  0
 19 20  1  0
M  END
$$$$
