VIA.pdb
     RDKit          3D

 21 20  0  0  1  0  0  0  0  0999 V2000
    6.7406  -16.2826   19.4246 C   0  0  0  0  0  0  0  0  0  0  0  0
    7.3562  -16.0783   20.7806 C   0  0  2  0  0  0  0  0  0  0  0  0
    6.7186  -16.9535   21.8331 C   0  0  0  0  0  0  0  0  0  0  0  0
    7.3218  -14.6308   21.1715 C   0  0  2  0  0  0  0  0  0  0  0  0
    7.9126  -13.8172   20.1479 N   0  0  0  0  0  0  0  0  0  0  0  0
    8.0082  -14.4889   22.4849 C   0  0  0  0  0  0  0  0  0  0  0  0
    9.2661  -14.4823   22.4705 O   0  0  0  0  0  0  0  0  0  0  0  0
    5.9286  -11.3810   26.3488 C   0  0  0  0  0  0  0  0  0  0  0  0
    6.9044  -12.1052   25.4658 C   0  0  0  0  0  0  0  0  0  0  0  0
    7.1534  -13.5207   25.9321 C   0  0  2  0  0  0  0  0  0  0  0  0
    7.8003  -13.5332   27.2899 C   0  0  0  0  0  0  0  0  0  0  0  0
    8.0330  -14.2905   24.9792 C   0  0  2  0  0  0  0  0  0  0  0  0
    7.3267  -14.3644   23.7165 N   0  0  0  0  0  0  0  0  0  0  0  0
    8.3479  -15.6428   25.4306 C   0  0  0  0  0  0  0  0  0  0  0  0
    7.4416  -16.4287   25.7685 O   0  0  0  0  0  0  0  0  0  0  0  0
   11.2855  -17.9142   25.1446 C   0  0  0  0  0  0  0  0  0  0  0  0
   10.0696  -17.4207   25.8801 C   0  0  2  0  0  0  0  0  0  0  0  0
    9.6840  -16.0852   25.4928 N   0  0  0  0  0  0  0  0  0  0  0  0
   10.4026  -17.3968   27.3299 C   0  0  0  0  0  0  0  0  0  0  0  0
   10.4173  -16.2383   28.0885 O   0  0  0  0  0  0  0  0  0  0  0  0
   10.6961  -18.4709   27.9506 O   0  0  0  0  0  0  0  0  0  0  0  0
  2  1  1  6
  2  4  1  0
  3  2  1  0
  4  5  1  6
  6  7  2  0
  6  4  1  0
  8  9  1  0
  9 10  1  0
 10 12  1  0
 10 11  1  1
 12 14  1  0
 12 13  1  6
 13  6  1  0
 14 18  1  0
 15 14  2  0
 17 16  1  6
 17 19  1  0
 18 17  1  0
 19 21  2  0
 19 20  1  0
M  END
$$$$
