VIA.pdb
     RDKit          3D

 21 20  0  0  1  0  0  0  0  0999 V2000
    6.4929  -16.5268   19.4742 C   0  0  0  0  0  0  0  0  0  0  0  0
    7.1952  -16.3027   20.7842 C   0  0  2  0  0  0  0  0  0  0  0  0
    6.6366  -17.1715   21.8857 C   0  0  0  0  0  0  0  0  0  0  0  0
    7.1739  -14.8513   21.1614 C   0  0  2  0  0  0  0  0  0  0  0  0
    7.6783  -14.0432   20.0884 N   0  0  0  0  0  0  0  0  0  0  0  0
    7.9539  -14.6876   22.4188 C   0  0  0  0  0  0  0  0  0  0  0  0
    9.2045  -14.6117   22.3054 O   0  0  0  0  0  0  0  0  0  0  0  0
    5.9681  -11.4864   26.1604 C   0  0  0  0  0  0  0  0  0  0  0  0
    6.9063  -12.2394   25.2610 C   0  0  0  0  0  0  0  0  0  0  0  0
    7.2992  -13.5786   25.8400 C   0  0  2  0  0  0  0  0  0  0  0  0
    8.0513  -13.4061   27.1311 C   0  0  0  0  0  0  0  0  0  0  0  0
    8.1563  -14.3816   24.8940 C   0  0  2  0  0  0  0  0  0  0  0  0
    7.3668  -14.6157   23.7021 N   0  0  0  0  0  0  0  0  0  0  0  0
    8.5915  -15.6644   25.4387 C   0  0  0  0  0  0  0  0  0  0  0  0
    7.7683  -16.4583   25.9338 O   0  0  0  0  0  0  0  0  0  0  0  0
   11.8203  -17.6222   25.3574 C   0  0  0  0  0  0  0  0  0  0  0  0
   10.4510  -17.2975   25.8888 C   0  0  2  0  0  0  0  0  0  0  0  0
    9.9520  -16.0292   25.4148 N   0  0  0  0  0  0  0  0  0  0  0  0
   10.5524  -17.2223   27.3712 C   0  0  0  0  0  0  0  0  0  0  0  0
   10.8097  -18.3216   28.1732 O   0  0  0  0  0  0  0  0  0  0  0  0
   10.4025  -16.1129   27.9810 O   0  0  0  0  0  0  0  0  0  0  0  0
  2  1  1  6
  2  4  1  0
  3  2  1  0
  4  5  1  6
  6  7  2  0
  6  4  1  0
  8  9  1  0
  9 10  1  0
 10 12  1  0
 10 11  1  1
 12 14  1  0
 12 13  1  6
 13  6  1  0
 14 18  1  0
 15 14  2  0
 17 16  1  6
 17 19  1  0
 18 17  1  0
 19 21  2  0
 19 20  1  0
M  END
$$$$
