FIH.pdb
     RDKit          3D

 30 31  0  0  1  0  0  0  0  0999 V2000
    5.8687  -16.5243   25.1361 N   0  0  0  0  0  0  0  0  0  0  0  0
    6.7605  -15.5426   24.6082 C   0  0  1  0  0  0  0  0  0  0  0  0
    7.7801  -15.0479   25.6205 C   0  0  0  0  0  0  0  0  0  0  0  0
    7.4770  -13.6713   26.0711 C   0  0  0  0  0  0  0  0  0  0  0  0
    6.9316  -13.4223   27.3078 C   0  0  0  0  0  0  0  0  0  0  0  0
    6.6720  -12.1187   27.6698 C   0  0  0  0  0  0  0  0  0  0  0  0
    6.9331  -11.0369   26.8481 C   0  0  0  0  0  0  0  0  0  0  0  0
    7.4830  -11.3282   25.6091 C   0  0  0  0  0  0  0  0  0  0  0  0
    7.7507  -12.6221   25.2260 C   0  0  0  0  0  0  0  0  0  0  0  0
    7.4943  -16.0097   23.4030 C   0  0  0  0  0  0  0  0  0  0  0  0
    7.5177  -17.2587   23.1843 O   0  0  0  0  0  0  0  0  0  0  0  0
    7.4779  -12.6856   19.2876 C   0  0  0  0  0  0  0  0  0  0  0  0
    7.4235  -14.0309   20.0157 C   0  0  0  0  0  0  0  0  0  0  0  0
    8.8170  -14.5799   20.2143 C   0  0  2  0  0  0  0  0  0  0  0  0
    9.4150  -15.0189   18.9070 C   0  0  0  0  0  0  0  0  0  0  0  0
    8.8642  -15.5900   21.3063 C   0  0  2  0  0  0  0  0  0  0  0  0
    8.1585  -15.1481   22.4999 N   0  0  0  0  0  0  0  0  0  0  0  0
   10.2735  -15.9229   21.6820 C   0  0  0  0  0  0  0  0  0  0  0  0
   11.0136  -15.1397   22.3287 O   0  0  0  0  0  0  0  0  0  0  0  0
   10.8582  -17.1630   21.3211 N   0  0  0  0  0  0  0  0  0  0  0  0
   12.2742  -17.4212   21.6015 C   0  0  1  0  0  0  0  0  0  0  0  0
   13.0631  -16.1652   21.7013 C   0  0  0  0  0  0  0  0  0  0  0  0
   13.4347  -15.6862   20.3670 C   0  0  0  0  0  0  0  0  0  0  0  0
   13.0714  -16.1404   19.1288 C   0  0  0  0  0  0  0  0  0  0  0  0
   13.6287  -15.3183   18.1910 N   0  0  0  0  0  0  0  0  0  0  0  0
   14.3212  -14.3741   18.8232 C   0  0  0  0  0  0  0  0  0  0  0  0
   14.2073  -14.5912   20.1343 N   0  0  0  0  0  0  0  0  0  0  0  0
   12.2105  -17.9672   23.0224 C   0  0  0  0  0  0  0  0  0  0  0  0
   11.0880  -18.0611   23.6330 O   0  0  0  0  0  0  0  0  0  0  0  0
   13.2916  -18.3854   23.7454 O   0  0  0  0  0  0  0  0  0  0  0  0
  2  1  1  1
  2 10  1  0
  3  2  1  0
  3  4  1  0
  4  9  1  0
  4  5  2  0
  5  6  1  0
  6  7  2  0
  8  7  1  0
  9  8  2  0
 10 11  2  0
 13 12  1  0
 14 13  1  0
 14 15  1  6
 16 14  1  0
 17 10  1  0
 16 17  1  1
 18 16  1  0
 18 19  2  0
 20 18  1  0
 21 20  1  0
 21 22  1  1
 23 24  2  0
 23 22  1  0
 25 24  1  0
 26 27  2  0
 26 25  1  0
 27 23  1  0
 28 30  1  0
 28 21  1  0
 29 28  2  0
M  END
$$$$
