FIH.pdb
     RDKit          3D

 30 31  0  0  1  0  0  0  0  0999 V2000
    5.7148  -19.2009   22.4736 N   0  0  0  0  0  0  0  0  0  0  0  0
    6.2203  -18.6714   23.6991 C   0  0  1  0  0  0  0  0  0  0  0  0
    7.2217  -19.5867   24.3836 C   0  0  0  0  0  0  0  0  0  0  0  0
    6.5471  -20.6801   25.1181 C   0  0  0  0  0  0  0  0  0  0  0  0
    7.2547  -21.5806   25.8779 C   0  0  0  0  0  0  0  0  0  0  0  0
    6.5695  -22.5766   26.5383 C   0  0  0  0  0  0  0  0  0  0  0  0
    5.1949  -22.7206   26.4774 C   0  0  0  0  0  0  0  0  0  0  0  0
    4.5164  -21.7935   25.7012 C   0  0  0  0  0  0  0  0  0  0  0  0
    5.1795  -20.7904   25.0329 C   0  0  0  0  0  0  0  0  0  0  0  0
    6.8492  -17.3340   23.5408 C   0  0  0  0  0  0  0  0  0  0  0  0
    6.9402  -16.8699   22.3641 O   0  0  0  0  0  0  0  0  0  0  0  0
    5.2902  -13.1259   26.2772 C   0  0  0  0  0  0  0  0  0  0  0  0
    5.8733  -14.0554   25.2101 C   0  0  0  0  0  0  0  0  0  0  0  0
    7.3527  -14.2593   25.4396 C   0  0  2  0  0  0  0  0  0  0  0  0
    8.0714  -12.9420   25.5264 C   0  0  0  0  0  0  0  0  0  0  0  0
    7.9326  -15.2381   24.4801 C   0  0  2  0  0  0  0  0  0  0  0  0
    7.3446  -16.5622   24.6170 N   0  0  0  0  0  0  0  0  0  0  0  0
    9.4146  -15.3554   24.6481 C   0  0  0  0  0  0  0  0  0  0  0  0
   10.2338  -15.0307   23.7521 O   0  0  0  0  0  0  0  0  0  0  0  0
    9.9824  -15.8486   25.8499 N   0  0  0  0  0  0  0  0  0  0  0  0
   11.1388  -16.7492   25.8051 C   0  0  1  0  0  0  0  0  0  0  0  0
   10.7338  -18.1794   25.7838 C   0  0  0  0  0  0  0  0  0  0  0  0
   10.0876  -18.5478   27.0465 C   0  0  0  0  0  0  0  0  0  0  0  0
    9.8776  -17.8146   28.1822 C   0  0  0  0  0  0  0  0  0  0  0  0
    9.1713  -18.5831   29.0632 N   0  0  0  0  0  0  0  0  0  0  0  0
    8.9435  -19.7651   28.4957 C   0  0  0  0  0  0  0  0  0  0  0  0
    9.4932  -19.7487   27.2806 N   0  0  0  0  0  0  0  0  0  0  0  0
   11.6912  -16.4694   24.4132 C   0  0  0  0  0  0  0  0  0  0  0  0
   11.0791  -15.6717   23.6190 O   0  0  0  0  0  0  0  0  0  0  0  0
   12.8342  -17.0177   23.9040 O   0  0  0  0  0  0  0  0  0  0  0  0
  2  1  1  6
  2 10  1  0
  3  2  1  0
  3  4  1  0
  4  9  1  0
  4  5  2  0
  5  6  1  0
  6  7  2  0
  8  7  1  0
  9  8  2  0
 10 11  2  0
 13 12  1  0
 14 13  1  0
 14 15  1  6
 16 14  1  0
 17 10  1  0
 16 17  1  1
 18 16  1  0
 18 19  2  0
 20 18  1  0
 21 20  1  0
 21 22  1  6
 23 24  2  0
 23 22  1  0
 25 24  1  0
 26 27  2  0
 26 25  1  0
 27 23  1  0
 28 30  1  0
 28 21  1  0
 29 28  2  0
M  END
$$$$
