FIH.pdb
     RDKit          3D

 30 31  0  0  1  0  0  0  0  0999 V2000
    5.9993  -17.3893   25.6026 N   0  0  0  0  0  0  0  0  0  0  0  0
    6.6766  -16.2177   25.1481 C   0  0  1  0  0  0  0  0  0  0  0  0
    7.5034  -15.5418   26.2290 C   0  0  0  0  0  0  0  0  0  0  0  0
    7.1835  -14.1012   26.3390 C   0  0  0  0  0  0  0  0  0  0  0  0
    8.1706  -13.1500   26.4381 C   0  0  0  0  0  0  0  0  0  0  0  0
    7.8091  -11.8245   26.5378 C   0  0  0  0  0  0  0  0  0  0  0  0
    6.4940  -11.3952   26.5437 C   0  0  0  0  0  0  0  0  0  0  0  0
    5.5272  -12.3837   26.4420 C   0  0  0  0  0  0  0  0  0  0  0  0
    5.8646  -13.7136   26.3414 C   0  0  0  0  0  0  0  0  0  0  0  0
    7.5605  -16.4715   23.9804 C   0  0  0  0  0  0  0  0  0  0  0  0
    8.1028  -17.6151   23.8995 O   0  0  0  0  0  0  0  0  0  0  0  0
    8.7372  -12.4172   19.9514 C   0  0  0  0  0  0  0  0  0  0  0  0
    8.9757  -13.4412   21.0637 C   0  0  0  0  0  0  0  0  0  0  0  0
    8.3502  -14.7681   20.7019 C   0  0  2  0  0  0  0  0  0  0  0  0
    6.9190  -14.5918   20.2779 C   0  0  0  0  0  0  0  0  0  0  0  0
    8.5796  -15.7943   21.7552 C   0  0  2  0  0  0  0  0  0  0  0  0
    7.8255  -15.5195   22.9691 N   0  0  0  0  0  0  0  0  0  0  0  0
   10.0295  -15.8996   22.1088 C   0  0  0  0  0  0  0  0  0  0  0  0
   10.5934  -15.1291   22.9258 O   0  0  0  0  0  0  0  0  0  0  0  0
   10.8582  -16.8933   21.5293 N   0  0  0  0  0  0  0  0  0  0  0  0
   12.3170  -16.7468   21.5576 C   0  0  1  0  0  0  0  0  0  0  0  0
   12.7420  -15.3367   21.3554 C   0  0  0  0  0  0  0  0  0  0  0  0
   12.7272  -14.9965   19.9299 C   0  0  0  0  0  0  0  0  0  0  0  0
   12.2398  -15.6919   18.8573 C   0  0  0  0  0  0  0  0  0  0  0  0
   12.4028  -14.9239   17.7396 N   0  0  0  0  0  0  0  0  0  0  0  0
   12.9753  -13.7782   18.1010 C   0  0  0  0  0  0  0  0  0  0  0  0
   13.1725  -13.8170   19.4196 N   0  0  0  0  0  0  0  0  0  0  0  0
   12.6272  -17.0523   23.0175 C   0  0  0  0  0  0  0  0  0  0  0  0
   13.8405  -17.1185   23.4243 O   0  0  0  0  0  0  0  0  0  0  0  0
   11.6873  -17.2761   23.9834 O   0  0  0  0  0  0  0  0  0  0  0  0
  2  1  1  1
  2 10  1  0
  3  2  1  0
  3  4  1  0
  4  9  1  0
  4  5  2  0
  5  6  1  0
  6  7  2  0
  8  7  1  0
  9  8  2  0
 10 11  2  0
 13 12  1  0
 14 13  1  0
 14 15  1  1
 16 14  1  0
 17 10  1  0
 16 17  1  1
 18 16  1  0
 18 19  2  0
 20 18  1  0
 21 20  1  0
 21 22  1  1
 23 24  2  0
 23 22  1  0
 25 24  1  0
 26 27  2  0
 26 25  1  0
 27 23  1  0
 28 30  1  0
 28 21  1  0
 29 28  2  0
M  END
$$$$
