FIH.pdb
     RDKit          3D

 30 31  0  0  1  0  0  0  0  0999 V2000
    5.5700  -17.1470   25.3716 N   0  0  0  0  0  0  0  0  0  0  0  0
    6.3803  -16.0118   25.0677 C   0  0  1  0  0  0  0  0  0  0  0  0
    7.2393  -15.5545   26.2348 C   0  0  0  0  0  0  0  0  0  0  0  0
    6.8709  -14.1928   26.6820 C   0  0  0  0  0  0  0  0  0  0  0  0
    7.5630  -13.5513   27.6811 C   0  0  0  0  0  0  0  0  0  0  0  0
    7.1715  -12.2840   28.0532 C   0  0  0  0  0  0  0  0  0  0  0  0
    6.1096  -11.6162   27.4701 C   0  0  0  0  0  0  0  0  0  0  0  0
    5.4363  -12.2957   26.4664 C   0  0  0  0  0  0  0  0  0  0  0  0
    5.8093  -13.5617   26.0782 C   0  0  0  0  0  0  0  0  0  0  0  0
    7.2689  -16.2268   23.8958 C   0  0  0  0  0  0  0  0  0  0  0  0
    7.6215  -17.4188   23.6444 O   0  0  0  0  0  0  0  0  0  0  0  0
    7.2014  -12.3036   20.2747 C   0  0  0  0  0  0  0  0  0  0  0  0
    7.2214  -13.7846   20.6609 C   0  0  0  0  0  0  0  0  0  0  0  0
    8.6279  -14.2234   20.9953 C   0  0  2  0  0  0  0  0  0  0  0  0
    9.4484  -14.4001   19.7484 C   0  0  0  0  0  0  0  0  0  0  0  0
    8.6395  -15.3789   21.9333 C   0  0  2  0  0  0  0  0  0  0  0  0
    7.7358  -15.1880   23.0578 N   0  0  0  0  0  0  0  0  0  0  0  0
   10.0138  -15.6369   22.4653 C   0  0  0  0  0  0  0  0  0  0  0  0
   10.6967  -14.7609   23.0533 O   0  0  0  0  0  0  0  0  0  0  0  0
   10.6287  -16.9072   22.3310 N   0  0  0  0  0  0  0  0  0  0  0  0
   12.0173  -17.1045   22.7589 C   0  0  1  0  0  0  0  0  0  0  0  0
   12.2841  -18.5099   23.1632 C   0  0  0  0  0  0  0  0  0  0  0  0
   11.7140  -18.7796   24.4861 C   0  0  0  0  0  0  0  0  0  0  0  0
   11.2801  -17.9188   25.4570 C   0  0  0  0  0  0  0  0  0  0  0  0
   10.7700  -18.6573   26.4867 N   0  0  0  0  0  0  0  0  0  0  0  0
   10.8796  -19.9452   26.1702 C   0  0  0  0  0  0  0  0  0  0  0  0
   11.4474  -20.0241   24.9658 N   0  0  0  0  0  0  0  0  0  0  0  0
   12.7714  -16.9156   21.4487 C   0  0  0  0  0  0  0  0  0  0  0  0
   14.0526  -16.9162   21.4300 O   0  0  0  0  0  0  0  0  0  0  0  0
   12.1818  -16.7338   20.2298 O   0  0  0  0  0  0  0  0  0  0  0  0
  2  1  1  1
  2 10  1  0
  3  2  1  0
  3  4  1  0
  4  9  1  0
  4  5  2  0
  5  6  1  0
  6  7  2  0
  8  7  1  0
  9  8  2  0
 10 11  2  0
 13 12  1  0
 14 13  1  0
 14 15  1  6
 16 14  1  0
 17 10  1  0
 16 17  1  1
 18 16  1  0
 18 19  2  0
 20 18  1  0
 21 20  1  0
 21 22  1  6
 23 24  2  0
 23 22  1  0
 25 24  1  0
 26 27  2  0
 26 25  1  0
 27 23  1  0
 28 30  1  0
 28 21  1  0
 29 28  2  0
M  END
$$$$
