FIH.pdb
     RDKit          3D

 30 31  0  0  1  0  0  0  0  0999 V2000
   10.6236  -15.1517   21.6191 N   0  0  0  0  0  0  0  0  0  0  0  0
    9.6981  -14.9140   22.6797 C   0  0  1  0  0  0  0  0  0  0  0  0
    8.2911  -15.3982   22.3719 C   0  0  0  0  0  0  0  0  0  0  0  0
    7.6485  -14.5746   21.3237 C   0  0  0  0  0  0  0  0  0  0  0  0
    7.2912  -13.2675   21.5533 C   0  0  0  0  0  0  0  0  0  0  0  0
    6.6961  -12.5525   20.5373 C   0  0  0  0  0  0  0  0  0  0  0  0
    6.4364  -13.0841   19.2868 C   0  0  0  0  0  0  0  0  0  0  0  0
    6.8110  -14.4050   19.0935 C   0  0  0  0  0  0  0  0  0  0  0  0
    7.4066  -15.1384   20.0934 C   0  0  0  0  0  0  0  0  0  0  0  0
   10.1228  -15.5172   23.9701 C   0  0  0  0  0  0  0  0  0  0  0  0
   11.1507  -16.2599   23.9542 O   0  0  0  0  0  0  0  0  0  0  0  0
    8.1924  -12.5558   27.9284 C   0  0  0  0  0  0  0  0  0  0  0  0
    9.3209  -13.2552   27.1667 C   0  0  0  0  0  0  0  0  0  0  0  0
    9.4051  -14.7096   27.5673 C   0  0  2  0  0  0  0  0  0  0  0  0
    9.9977  -14.8572   28.9407 C   0  0  0  0  0  0  0  0  0  0  0  0
   10.0403  -15.5401   26.5081 C   0  0  2  0  0  0  0  0  0  0  0  0
    9.4516  -15.3102   25.1972 N   0  0  0  0  0  0  0  0  0  0  0  0
    9.9417  -16.9989   26.8251 C   0  0  0  0  0  0  0  0  0  0  0  0
    8.8468  -17.6110   26.9027 O   0  0  0  0  0  0  0  0  0  0  0  0
   11.1006  -17.7813   27.0591 N   0  0  0  0  0  0  0  0  0  0  0  0
   10.9746  -19.1764   27.4929 C   0  0  1  0  0  0  0  0  0  0  0  0
   12.1545  -19.9924   27.1034 C   0  0  0  0  0  0  0  0  0  0  0  0
   12.1421  -20.2555   25.6617 C   0  0  0  0  0  0  0  0  0  0  0  0
   11.1951  -19.9706   24.7164 C   0  0  0  0  0  0  0  0  0  0  0  0
   11.6771  -20.3563   23.4980 N   0  0  0  0  0  0  0  0  0  0  0  0
   12.8930  -20.8679   23.6737 C   0  0  0  0  0  0  0  0  0  0  0  0
   13.1778  -20.8091   24.9755 N   0  0  0  0  0  0  0  0  0  0  0  0
   11.0682  -19.0359   29.0070 C   0  0  0  0  0  0  0  0  0  0  0  0
   11.6335  -18.0125   29.5313 O   0  0  0  0  0  0  0  0  0  0  0  0
   10.5841  -19.9445   29.9051 O   0  0  0  0  0  0  0  0  0  0  0  0
  2  1  1  6
  2 10  1  0
  3  2  1  0
  3  4  1  0
  4  9  1  0
  4  5  2  0
  5  6  1  0
  6  7  2  0
  8  7  1  0
  9  8  2  0
 10 11  2  0
 13 12  1  0
 14 13  1  0
 14 15  1  1
 16 14  1  0
 17 10  1  0
 16 17  1  6
 18 16  1  0
 18 19  2  0
 20 18  1  0
 21 20  1  0
 21 22  1  6
 23 24  2  0
 23 22  1  0
 25 24  1  0
 26 27  2  0
 26 25  1  0
 27 23  1  0
 28 30  1  0
 28 21  1  0
 29 28  2  0
M  END
$$$$
