FIH.pdb
     RDKit          3D

 30 31  0  0  1  0  0  0  0  0999 V2000
    5.3384  -17.0076   25.3355 N   0  0  0  0  0  0  0  0  0  0  0  0
    6.2633  -15.9562   25.0581 C   0  0  1  0  0  0  0  0  0  0  0  0
    7.0801  -15.5369   26.2689 C   0  0  0  0  0  0  0  0  0  0  0  0
    7.0089  -14.0761   26.4949 C   0  0  0  0  0  0  0  0  0  0  0  0
    8.1188  -13.2743   26.3762 C   0  0  0  0  0  0  0  0  0  0  0  0
    7.9885  -11.9212   26.5993 C   0  0  0  0  0  0  0  0  0  0  0  0
    6.7897  -11.3204   26.9395 C   0  0  0  0  0  0  0  0  0  0  0  0
    5.6932  -12.1618   27.0497 C   0  0  0  0  0  0  0  0  0  0  0  0
    5.7995  -13.5159   26.8315 C   0  0  0  0  0  0  0  0  0  0  0  0
    7.2050  -16.2840   23.9559 C   0  0  0  0  0  0  0  0  0  0  0  0
    7.5029  -17.5055   23.7896 O   0  0  0  0  0  0  0  0  0  0  0  0
    7.2990  -12.7074   20.0944 C   0  0  0  0  0  0  0  0  0  0  0  0
    7.3488  -14.1833   20.4968 C   0  0  0  0  0  0  0  0  0  0  0  0
    8.7326  -14.5523   20.9781 C   0  0  2  0  0  0  0  0  0  0  0  0
    9.6571  -14.8036   19.8199 C   0  0  0  0  0  0  0  0  0  0  0  0
    8.6934  -15.6283   22.0056 C   0  0  2  0  0  0  0  0  0  0  0  0
    7.7786  -15.3204   23.0947 N   0  0  0  0  0  0  0  0  0  0  0  0
   10.0504  -15.8837   22.5813 C   0  0  0  0  0  0  0  0  0  0  0  0
   10.6533  -15.0552   23.3089 O   0  0  0  0  0  0  0  0  0  0  0  0
   10.7398  -17.0970   22.3309 N   0  0  0  0  0  0  0  0  0  0  0  0
   12.0945  -17.2983   22.8548 C   0  0  1  0  0  0  0  0  0  0  0  0
   12.4084  -18.7373   23.0569 C   0  0  0  0  0  0  0  0  0  0  0  0
   11.7195  -19.2501   24.2444 C   0  0  0  0  0  0  0  0  0  0  0  0
   11.3745  -18.6222   25.4099 C   0  0  0  0  0  0  0  0  0  0  0  0
   10.6854  -19.5098   26.1864 N   0  0  0  0  0  0  0  0  0  0  0  0
   10.5994  -20.6620   25.5262 C   0  0  0  0  0  0  0  0  0  0  0  0
   11.2207  -20.5106   24.3556 N   0  0  0  0  0  0  0  0  0  0  0  0
   12.9486  -16.8655   21.6699 C   0  0  0  0  0  0  0  0  0  0  0  0
   12.4429  -16.7969   20.4946 O   0  0  0  0  0  0  0  0  0  0  0  0
   14.2705  -16.5285   21.7442 O   0  0  0  0  0  0  0  0  0  0  0  0
  2  1  1  1
  2 10  1  0
  3  2  1  0
  3  4  1  0
  4  9  1  0
  4  5  2  0
  5  6  1  0
  6  7  2  0
  8  7  1  0
  9  8  2  0
 10 11  2  0
 13 12  1  0
 14 13  1  0
 14 15  1  6
 16 14  1  0
 17 10  1  0
 16 17  1  1
 18 16  1  0
 18 19  2  0
 20 18  1  0
 21 20  1  0
 21 22  1  6
 23 24  2  0
 23 22  1  0
 25 24  1  0
 26 27  2  0
 26 25  1  0
 27 23  1  0
 28 30  1  0
 28 21  1  0
 29 28  2  0
M  END
$$$$
