FIH.pdb
     RDKit          3D

 30 31  0  0  1  0  0  0  0  0999 V2000
    5.6569  -17.3681   21.2705 N   0  0  0  0  0  0  0  0  0  0  0  0
    5.5197  -17.0290   22.6504 C   0  0  1  0  0  0  0  0  0  0  0  0
    5.1971  -18.2217   23.5350 C   0  0  0  0  0  0  0  0  0  0  0  0
    4.0081  -18.9558   23.0477 C   0  0  0  0  0  0  0  0  0  0  0  0
    4.1078  -20.2249   22.5300 C   0  0  0  0  0  0  0  0  0  0  0  0
    2.9643  -20.8564   22.0926 C   0  0  0  0  0  0  0  0  0  0  0  0
    1.7095  -20.2766   22.1468 C   0  0  0  0  0  0  0  0  0  0  0  0
    1.6495  -18.9961   22.6753 C   0  0  0  0  0  0  0  0  0  0  0  0
    2.7780  -18.3460   23.1183 C   0  0  0  0  0  0  0  0  0  0  0  0
    6.7205  -16.3522   23.2065 C   0  0  0  0  0  0  0  0  0  0  0  0
    7.7844  -16.3968   22.5176 O   0  0  0  0  0  0  0  0  0  0  0  0
    5.7370  -12.0285   26.5670 C   0  0  0  0  0  0  0  0  0  0  0  0
    6.3588  -12.8171   25.4120 C   0  0  0  0  0  0  0  0  0  0  0  0
    7.3474  -13.8314   25.9379 C   0  0  2  0  0  0  0  0  0  0  0  0
    8.4477  -13.1609   26.7119 C   0  0  0  0  0  0  0  0  0  0  0  0
    7.7987  -14.7688   24.8736 C   0  0  2  0  0  0  0  0  0  0  0  0
    6.7399  -15.6707   24.4452 N   0  0  0  0  0  0  0  0  0  0  0  0
    8.9671  -15.5867   25.3254 C   0  0  0  0  0  0  0  0  0  0  0  0
   10.0739  -15.0835   25.6434 O   0  0  0  0  0  0  0  0  0  0  0  0
    8.8846  -16.9988   25.4200 N   0  0  0  0  0  0  0  0  0  0  0  0
   10.0714  -17.7862   25.7691 C   0  0  1  0  0  0  0  0  0  0  0  0
   11.3284  -17.1351   25.3154 C   0  0  0  0  0  0  0  0  0  0  0  0
   11.4492  -17.2146   23.8570 C   0  0  0  0  0  0  0  0  0  0  0  0
   10.6002  -17.7449   22.9245 C   0  0  0  0  0  0  0  0  0  0  0  0
   11.1280  -17.5156   21.6857 N   0  0  0  0  0  0  0  0  0  0  0  0
   12.2755  -16.8587   21.8367 C   0  0  0  0  0  0  0  0  0  0  0  0
   12.4733  -16.6748   23.1429 N   0  0  0  0  0  0  0  0  0  0  0  0
   10.0838  -17.6646   27.2877 C   0  0  0  0  0  0  0  0  0  0  0  0
   10.9932  -18.2450   27.9789 O   0  0  0  0  0  0  0  0  0  0  0  0
    9.1699  -16.9616   28.0204 O   0  0  0  0  0  0  0  0  0  0  0  0
  2  1  1  6
  2 10  1  0
  3  2  1  0
  3  4  1  0
  4  9  1  0
  4  5  2  0
  5  6  1  0
  6  7  2  0
  8  7  1  0
  9  8  2  0
 10 11  2  0
 13 12  1  0
 14 13  1  0
 14 15  1  6
 16 14  1  0
 17 10  1  0
 16 17  1  1
 18 16  1  0
 18 19  2  0
 20 18  1  0
 21 20  1  0
 21 22  1  6
 23 24  2  0
 23 22  1  0
 25 24  1  0
 26 27  2  0
 26 25  1  0
 27 23  1  0
 28 30  1  0
 28 21  1  0
 29 28  2  0
M  END
$$$$
