FIH.pdb
     RDKit          3D

 30 31  0  0  1  0  0  0  0  0999 V2000
    5.5553  -15.6211   22.1809 N   0  0  0  0  0  0  0  0  0  0  0  0
    6.8477  -16.2272   22.1927 C   0  0  1  0  0  0  0  0  0  0  0  0
    7.5604  -16.1537   20.8527 C   0  0  0  0  0  0  0  0  0  0  0  0
    7.6715  -14.7590   20.3704 C   0  0  0  0  0  0  0  0  0  0  0  0
    7.2482  -13.6974   21.1337 C   0  0  0  0  0  0  0  0  0  0  0  0
    7.3783  -12.4221   20.6293 C   0  0  0  0  0  0  0  0  0  0  0  0
    7.9169  -12.1499   19.3845 C   0  0  0  0  0  0  0  0  0  0  0  0
    8.3324  -13.2463   18.6445 C   0  0  0  0  0  0  0  0  0  0  0  0
    8.2124  -14.5288   19.1277 C   0  0  0  0  0  0  0  0  0  0  0  0
    7.7493  -15.6573   23.2279 C   0  0  0  0  0  0  0  0  0  0  0  0
    8.8435  -15.1529   22.8321 O   0  0  0  0  0  0  0  0  0  0  0  0
    6.5006  -11.9861   26.4990 C   0  0  0  0  0  0  0  0  0  0  0  0
    7.2125  -13.0176   25.6205 C   0  0  0  0  0  0  0  0  0  0  0  0
    7.8227  -14.1053   26.4732 C   0  0  2  0  0  0  0  0  0  0  0  0
    8.7642  -13.5271   27.4924 C   0  0  0  0  0  0  0  0  0  0  0  0
    8.3808  -15.2100   25.6466 C   0  0  2  0  0  0  0  0  0  0  0  0
    7.4565  -15.6476   24.6112 N   0  0  0  0  0  0  0  0  0  0  0  0
    8.7467  -16.3913   26.4886 C   0  0  0  0  0  0  0  0  0  0  0  0
    7.9060  -17.0418   27.1589 O   0  0  0  0  0  0  0  0  0  0  0  0
   10.0865  -16.8466   26.5755 N   0  0  0  0  0  0  0  0  0  0  0  0
   10.4034  -18.0719   27.3160 C   0  0  1  0  0  0  0  0  0  0  0  0
   11.2398  -19.0072   26.5188 C   0  0  0  0  0  0  0  0  0  0  0  0
   10.5178  -19.4468   25.3216 C   0  0  0  0  0  0  0  0  0  0  0  0
    9.2156  -19.8356   25.1641 C   0  0  0  0  0  0  0  0  0  0  0  0
    9.0022  -20.0898   23.8392 N   0  0  0  0  0  0  0  0  0  0  0  0
   10.1383  -19.8657   23.1835 C   0  0  0  0  0  0  0  0  0  0  0  0
   11.0543  -19.4778   24.0721 N   0  0  0  0  0  0  0  0  0  0  0  0
   11.3258  -17.5411   28.4062 C   0  0  0  0  0  0  0  0  0  0  0  0
   11.6336  -16.2980   28.4490 O   0  0  0  0  0  0  0  0  0  0  0  0
   11.8867  -18.3033   29.3915 O   0  0  0  0  0  0  0  0  0  0  0  0
  2  1  1  6
  2 10  1  0
  3  2  1  0
  3  4  1  0
  4  9  1  0
  4  5  2  0
  5  6  1  0
  6  7  2  0
  8  7  1  0
  9  8  2  0
 10 11  2  0
 13 12  1  0
 14 13  1  0
 14 15  1  6
 16 14  1  0
 17 10  1  0
 16 17  1  6
 18 16  1  0
 18 19  2  0
 20 18  1  0
 21 20  1  0
 21 22  1  6
 23 24  2  0
 23 22  1  0
 25 24  1  0
 26 27  2  0
 26 25  1  0
 27 23  1  0
 28 30  1  0
 28 21  1  0
 29 28  2  0
M  END
$$$$
