FIH.pdb
     RDKit          3D

 30 31  0  0  1  0  0  0  0  0999 V2000
    6.4666  -16.6095   22.0424 N   0  0  0  0  0  0  0  0  0  0  0  0
    7.8915  -16.6141   21.9556 C   0  0  1  0  0  0  0  0  0  0  0  0
    8.4182  -16.0251   20.6577 C   0  0  0  0  0  0  0  0  0  0  0  0
    8.0570  -14.5965   20.5214 C   0  0  0  0  0  0  0  0  0  0  0  0
    6.7520  -14.1959   20.3616 C   0  0  0  0  0  0  0  0  0  0  0  0
    6.4794  -12.8511   20.2400 C   0  0  0  0  0  0  0  0  0  0  0  0
    7.4572  -11.8730   20.2705 C   0  0  0  0  0  0  0  0  0  0  0  0
    8.7609  -12.3161   20.4332 C   0  0  0  0  0  0  0  0  0  0  0  0
    9.0570  -13.6538   20.5566 C   0  0  0  0  0  0  0  0  0  0  0  0
    8.5465  -15.9041   23.0852 C   0  0  0  0  0  0  0  0  0  0  0  0
    9.7921  -15.6851   22.9903 O   0  0  0  0  0  0  0  0  0  0  0  0
    5.9764  -12.1657   26.1195 C   0  0  0  0  0  0  0  0  0  0  0  0
    7.0093  -12.9749   25.3314 C   0  0  0  0  0  0  0  0  0  0  0  0
    7.6342  -14.0321   26.2115 C   0  0  2  0  0  0  0  0  0  0  0  0
    8.2598  -13.4169   27.4319 C   0  0  0  0  0  0  0  0  0  0  0  0
    8.5165  -14.9471   25.4373 C   0  0  2  0  0  0  0  0  0  0  0  0
    7.8649  -15.4657   24.2438 N   0  0  0  0  0  0  0  0  0  0  0  0
    8.9719  -16.1025   26.2715 C   0  0  0  0  0  0  0  0  0  0  0  0
    8.1774  -16.8770   26.8615 O   0  0  0  0  0  0  0  0  0  0  0  0
   10.3498  -16.3888   26.4427 N   0  0  0  0  0  0  0  0  0  0  0  0
   10.7694  -17.5920   27.1684 C   0  0  1  0  0  0  0  0  0  0  0  0
   12.0951  -18.0868   26.7126 C   0  0  0  0  0  0  0  0  0  0  0  0
   12.0446  -18.4559   25.2952 C   0  0  0  0  0  0  0  0  0  0  0  0
   12.1835  -17.6861   24.1728 C   0  0  0  0  0  0  0  0  0  0  0  0
   12.1232  -18.5056   23.0817 N   0  0  0  0  0  0  0  0  0  0  0  0
   11.9524  -19.7547   23.5076 C   0  0  0  0  0  0  0  0  0  0  0  0
   11.9047  -19.7301   24.8404 N   0  0  0  0  0  0  0  0  0  0  0  0
   11.0089  -17.0381   28.5672 C   0  0  0  0  0  0  0  0  0  0  0  0
   11.3685  -17.8144   29.5211 O   0  0  0  0  0  0  0  0  0  0  0  0
   10.8673  -15.7260   28.9204 O   0  0  0  0  0  0  0  0  0  0  0  0
  2  1  1  1
  2 10  1  0
  3  2  1  0
  3  4  1  0
  4  9  1  0
  4  5  2  0
  5  6  1  0
  6  7  2  0
  8  7  1  0
  9  8  2  0
 10 11  2  0
 13 12  1  0
 14 13  1  0
 14 15  1  1
 16 14  1  0
 17 10  1  0
 16 17  1  6
 18 16  1  0
 18 19  2  0
 20 18  1  0
 21 20  1  0
 21 22  1  6
 23 24  2  0
 23 22  1  0
 25 24  1  0
 26 27  2  0
 26 25  1  0
 27 23  1  0
 28 30  1  0
 28 21  1  0
 29 28  2  0
M  END
$$$$
