FIH.pdb
     RDKit          3D

 30 31  0  0  1  0  0  0  0  0999 V2000
    6.5365  -16.5429   21.7406 N   0  0  0  0  0  0  0  0  0  0  0  0
    7.9605  -16.4687   21.8078 C   0  0  1  0  0  0  0  0  0  0  0  0
    8.5796  -15.7035   20.6501 C   0  0  0  0  0  0  0  0  0  0  0  0
    7.9816  -14.3577   20.5046 C   0  0  0  0  0  0  0  0  0  0  0  0
    6.6608  -14.1898   20.1637 C   0  0  0  0  0  0  0  0  0  0  0  0
    6.1625  -12.9112   20.0434 C   0  0  0  0  0  0  0  0  0  0  0  0
    6.9268  -11.7766   20.2492 C   0  0  0  0  0  0  0  0  0  0  0  0
    8.2539  -11.9866   20.5915 C   0  0  0  0  0  0  0  0  0  0  0  0
    8.7734  -13.2542   20.7173 C   0  0  0  0  0  0  0  0  0  0  0  0
    8.4538  -15.8688   23.0751 C   0  0  0  0  0  0  0  0  0  0  0  0
    9.6677  -15.5034   23.1115 O   0  0  0  0  0  0  0  0  0  0  0  0
    6.2277  -12.1048   25.9178 C   0  0  0  0  0  0  0  0  0  0  0  0
    7.2007  -13.1065   25.2912 C   0  0  0  0  0  0  0  0  0  0  0  0
    7.4137  -14.2831   26.2146 C   0  0  2  0  0  0  0  0  0  0  0  0
    7.9613  -13.8354   27.5409 C   0  0  0  0  0  0  0  0  0  0  0  0
    8.1717  -15.3784   25.5508 C   0  0  2  0  0  0  0  0  0  0  0  0
    7.6533  -15.6864   24.2263 N   0  0  0  0  0  0  0  0  0  0  0  0
    8.1555  -16.6294   26.3713 C   0  0  0  0  0  0  0  0  0  0  0  0
    7.1136  -17.0840   26.9071 O   0  0  0  0  0  0  0  0  0  0  0  0
    9.3373  -17.3810   26.5909 N   0  0  0  0  0  0  0  0  0  0  0  0
    9.2963  -18.6008   27.4038 C   0  0  1  0  0  0  0  0  0  0  0  0
    9.8405  -19.7771   26.6758 C   0  0  0  0  0  0  0  0  0  0  0  0
    9.0458  -20.0489   25.4747 C   0  0  0  0  0  0  0  0  0  0  0  0
    7.6937  -20.1876   25.3186 C   0  0  0  0  0  0  0  0  0  0  0  0
    7.4327  -20.3680   23.9901 N   0  0  0  0  0  0  0  0  0  0  0  0
    8.5885  -20.3421   23.3309 C   0  0  0  0  0  0  0  0  0  0  0  0
    9.5632  -20.1498   24.2209 N   0  0  0  0  0  0  0  0  0  0  0  0
   10.3266  -18.2858   28.4810 C   0  0  0  0  0  0  0  0  0  0  0  0
   10.5520  -19.1185   29.4284 O   0  0  0  0  0  0  0  0  0  0  0  0
   11.0695  -17.1406   28.5374 O   0  0  0  0  0  0  0  0  0  0  0  0
  2  1  1  1
  2 10  1  0
  3  2  1  0
  3  4  1  0
  4  9  1  0
  4  5  2  0
  5  6  1  0
  6  7  2  0
  8  7  1  0
  9  8  2  0
 10 11  2  0
 13 12  1  0
 14 13  1  0
 14 15  1  1
 16 14  1  0
 17 10  1  0
 16 17  1  6
 18 16  1  0
 18 19  2  0
 20 18  1  0
 21 20  1  0
 21 22  1  6
 23 24  2  0
 23 22  1  0
 25 24  1  0
 26 27  2  0
 26 25  1  0
 27 23  1  0
 28 30  1  0
 28 21  1  0
 29 28  2  0
M  END
$$$$
