YEL.pdb
     RDKit          3D

 30 30  0  0  1  0  0  0  0  0999 V2000
   11.3646  -17.2802   31.1756 O   0  0  0  0  0  0  0  0  0  0  0  0
   11.6753  -16.7652   29.9145 C   0  0  0  0  0  0  0  0  0  0  0  0
   11.5409  -15.4203   29.6709 C   0  0  0  0  0  0  0  0  0  0  0  0
   11.8417  -14.8695   28.4235 C   0  0  0  0  0  0  0  0  0  0  0  0
   12.2862  -15.6669   27.3912 C   0  0  0  0  0  0  0  0  0  0  0  0
   12.6207  -15.1343   26.0439 C   0  0  0  0  0  0  0  0  0  0  0  0
   13.1880  -16.2122   25.1430 C   0  0  2  0  0  0  0  0  0  0  0  0
   14.6014  -15.9240   24.9637 N   0  0  0  0  0  0  0  0  0  0  0  0
   12.5334  -16.1018   23.8225 C   0  0  0  0  0  0  0  0  0  0  0  0
   12.7731  -15.0364   23.1618 O   0  0  0  0  0  0  0  0  0  0  0  0
   12.4173  -17.0233   27.6510 C   0  0  0  0  0  0  0  0  0  0  0  0
   12.1205  -17.5639   28.8805 C   0  0  0  0  0  0  0  0  0  0  0  0
   11.6848  -17.0527   23.2427 N   0  0  0  0  0  0  0  0  0  0  0  0
   10.3830  -16.7391   22.7206 C   0  0  1  0  0  0  0  0  0  0  0  0
    9.9476  -17.7763   21.7483 C   0  0  0  0  0  0  0  0  0  0  0  0
    8.5850  -17.6627   21.1679 C   0  0  0  0  0  0  0  0  0  0  0  0
    8.1406  -18.6018   20.1691 C   0  0  0  0  0  0  0  0  0  0  0  0
    8.3359  -18.4882   18.9581 O   0  0  0  0  0  0  0  0  0  0  0  0
    9.3878  -16.3176   23.7067 C   0  0  0  0  0  0  0  0  0  0  0  0
    9.1709  -16.9523   24.7950 O   0  0  0  0  0  0  0  0  0  0  0  0
    7.4232  -19.7530   20.5674 O   0  0  0  0  0  0  0  0  0  0  0  0
    4.9659  -11.8639   24.7031 C   0  0  0  0  0  0  0  0  0  0  0  0
    5.7167  -13.1003   25.0531 C   0  0  2  0  0  0  0  0  0  0  0  0
    6.3173  -12.9174   26.4506 C   0  0  0  0  0  0  0  0  0  0  0  0
    6.8342  -13.4820   24.1551 C   0  0  0  0  0  0  0  0  0  0  0  0
    7.5608  -14.7428   24.4681 C   0  0  2  0  0  0  0  0  0  0  0  0
    8.5728  -15.1389   23.5266 N   0  0  0  0  0  0  0  0  0  0  0  0
    6.5592  -15.8318   24.6014 C   0  0  0  0  0  0  0  0  0  0  0  0
    5.8749  -15.9230   25.6676 O   0  0  0  0  0  0  0  0  0  0  0  0
    6.3117  -16.7759   23.6256 O   0  0  0  0  0  0  0  0  0  0  0  0
  2  1  1  0
  3  2  2  0
  4  3  1  0
  5  4  2  0
  5 11  1  0
  6  5  1  0
  7  8  1  6
  7  6  1  0
  9  7  1  0
  9 13  1  0
 10  9  2  0
 11 12  2  0
 12  2  1  0
 14 13  1  0
 14 15  1  1
 15 16  1  0
 16 17  1  0
 17 18  2  0
 17 21  1  0
 19 14  1  0
 20 19  2  0
 23 22  1  6
 23 24  1  0
 25 23  1  0
 26 25  1  6
 26 28  1  0
 26 27  1  0
 27 19  1  0
 28 30  1  0
 29 28  2  0
M  END
$$$$
