YEL.pdb
     RDKit          3D

 30 30  0  0  1  0  0  0  0  0999 V2000
    7.7602  -12.5475   15.7724 O   0  0  0  0  0  0  0  0  0  0  0  0
    7.7695  -13.2655   16.9710 C   0  0  0  0  0  0  0  0  0  0  0  0
    8.4350  -12.7667   18.0640 C   0  0  0  0  0  0  0  0  0  0  0  0
    8.4662  -13.4558   19.2781 C   0  0  0  0  0  0  0  0  0  0  0  0
    7.8242  -14.6674   19.4161 C   0  0  0  0  0  0  0  0  0  0  0  0
    7.8249  -15.4434   20.6843 C   0  0  0  0  0  0  0  0  0  0  0  0
    9.1648  -16.1057   20.9324 C   0  0  2  0  0  0  0  0  0  0  0  0
    9.7294  -16.4353   19.6342 N   0  0  0  0  0  0  0  0  0  0  0  0
    8.9267  -17.3721   21.6563 C   0  0  0  0  0  0  0  0  0  0  0  0
    9.3193  -18.4373   21.0728 O   0  0  0  0  0  0  0  0  0  0  0  0
    7.1560  -15.1593   18.3043 C   0  0  0  0  0  0  0  0  0  0  0  0
    7.1264  -14.4790   17.1092 C   0  0  0  0  0  0  0  0  0  0  0  0
    8.3160  -17.5012   22.9095 N   0  0  0  0  0  0  0  0  0  0  0  0
    9.0478  -17.5623   24.1449 C   0  0  1  0  0  0  0  0  0  0  0  0
   10.1817  -18.5175   24.0324 C   0  0  0  0  0  0  0  0  0  0  0  0
   10.0620  -19.8291   24.7191 C   0  0  0  0  0  0  0  0  0  0  0  0
   11.2416  -20.5209   25.1742 C   0  0  0  0  0  0  0  0  0  0  0  0
   11.9362  -21.2631   24.4784 O   0  0  0  0  0  0  0  0  0  0  0  0
    9.3462  -16.2740   24.7708 C   0  0  0  0  0  0  0  0  0  0  0  0
   10.2762  -15.4980   24.3620 O   0  0  0  0  0  0  0  0  0  0  0  0
   11.6674  -20.3626   26.5129 O   0  0  0  0  0  0  0  0  0  0  0  0
    8.1994  -11.7072   27.1816 C   0  0  0  0  0  0  0  0  0  0  0  0
    7.0659  -12.3077   26.4270 C   0  0  2  0  0  0  0  0  0  0  0  0
    5.7983  -12.1715   27.2768 C   0  0  0  0  0  0  0  0  0  0  0  0
    7.1861  -13.7419   26.0670 C   0  0  0  0  0  0  0  0  0  0  0  0
    8.5237  -14.3754   26.2255 C   0  0  2  0  0  0  0  0  0  0  0  0
    8.6021  -15.7745   25.9034 N   0  0  0  0  0  0  0  0  0  0  0  0
    8.9699  -14.1672   27.6271 C   0  0  0  0  0  0  0  0  0  0  0  0
    9.3375  -13.0098   27.9995 O   0  0  0  0  0  0  0  0  0  0  0  0
    9.0147  -15.1659   28.5787 O   0  0  0  0  0  0  0  0  0  0  0  0
  2  1  1  0
  3  2  2  0
  4  3  1  0
  5  4  2  0
  5 11  1  0
  6  5  1  0
  7  8  1  6
  7  6  1  0
  9  7  1  0
  9 13  1  0
 10  9  2  0
 11 12  2  0
 12  2  1  0
 14 13  1  0
 14 15  1  6
 15 16  1  0
 16 17  1  0
 17 18  2  0
 17 21  1  0
 19 14  1  0
 20 19  2  0
 23 22  1  1
 23 24  1  0
 25 23  1  0
 26 25  1  1
 26 28  1  0
 26 27  1  0
 27 19  1  0
 28 30  1  0
 29 28  2  0
M  END
$$$$
