YEL.pdb
     RDKit          3D

 30 30  0  0  1  0  0  0  0  0999 V2000
    8.8967  -11.6829   18.2597 O   0  0  0  0  0  0  0  0  0  0  0  0
    8.4206  -12.5942   19.2057 C   0  0  0  0  0  0  0  0  0  0  0  0
    7.0687  -12.7858   19.3536 C   0  0  0  0  0  0  0  0  0  0  0  0
    6.5560  -13.6878   20.2882 C   0  0  0  0  0  0  0  0  0  0  0  0
    7.3995  -14.4186   21.0967 C   0  0  0  0  0  0  0  0  0  0  0  0
    6.9086  -15.3919   22.1079 C   0  0  0  0  0  0  0  0  0  0  0  0
    7.2355  -16.8179   21.7142 C   0  0  2  0  0  0  0  0  0  0  0  0
    6.0204  -17.5989   21.8764 N   0  0  0  0  0  0  0  0  0  0  0  0
    8.2390  -17.3407   22.6652 C   0  0  0  0  0  0  0  0  0  0  0  0
    7.8246  -17.5754   23.8494 O   0  0  0  0  0  0  0  0  0  0  0  0
    8.7624  -14.2152   20.9367 C   0  0  0  0  0  0  0  0  0  0  0  0
    9.2655  -13.3263   20.0156 C   0  0  0  0  0  0  0  0  0  0  0  0
    9.5860  -17.5968   22.3819 N   0  0  0  0  0  0  0  0  0  0  0  0
   10.5876  -17.7810   23.3960 C   0  0  1  0  0  0  0  0  0  0  0  0
   11.8595  -18.2587   22.7918 C   0  0  0  0  0  0  0  0  0  0  0  0
   13.0070  -18.5248   23.6967 C   0  0  0  0  0  0  0  0  0  0  0  0
   14.2702  -18.9621   23.1581 C   0  0  0  0  0  0  0  0  0  0  0  0
   14.9826  -18.2984   22.4034 O   0  0  0  0  0  0  0  0  0  0  0  0
   10.7024  -16.7033   24.3787 C   0  0  0  0  0  0  0  0  0  0  0  0
   10.7303  -15.4661   24.0580 O   0  0  0  0  0  0  0  0  0  0  0  0
   14.7645  -20.2426   23.4967 O   0  0  0  0  0  0  0  0  0  0  0  0
   10.0472  -14.1279   29.1368 C   0  0  0  0  0  0  0  0  0  0  0  0
    9.8796  -13.7641   27.7036 C   0  0  2  0  0  0  0  0  0  0  0  0
    8.5843  -12.9581   27.5615 C   0  0  0  0  0  0  0  0  0  0  0  0
    9.7938  -14.8837   26.7340 C   0  0  0  0  0  0  0  0  0  0  0  0
   10.8773  -15.9037   26.7720 C   0  0  2  0  0  0  0  0  0  0  0  0
   10.7870  -16.9575   25.7979 N   0  0  0  0  0  0  0  0  0  0  0  0
   10.9077  -16.4942   28.1347 C   0  0  0  0  0  0  0  0  0  0  0  0
   10.0958  -17.4255   28.4294 O   0  0  0  0  0  0  0  0  0  0  0  0
   11.7767  -16.0941   29.1295 O   0  0  0  0  0  0  0  0  0  0  0  0
  2  1  1  0
  3  2  2  0
  4  3  1  0
  5  4  2  0
  5 11  1  0
  6  5  1  0
  7  8  1  1
  7  6  1  0
  9  7  1  0
  9 13  1  0
 10  9  2  0
 11 12  2  0
 12  2  1  0
 14 13  1  0
 14 15  1  6
 15 16  1  0
 16 17  1  0
 17 18  2  0
 17 21  1  0
 19 14  1  0
 20 19  2  0
 23 22  1  1
 23 24  1  0
 25 23  1  0
 26 25  1  1
 26 28  1  0
 26 27  1  0
 27 19  1  0
 28 30  1  0
 29 28  2  0
M  END
$$$$
