YEL.pdb
     RDKit          3D

 30 30  0  0  1  0  0  0  0  0999 V2000
    9.0284  -11.7834   19.4581 O   0  0  0  0  0  0  0  0  0  0  0  0
    8.2634  -12.8525   19.9314 C   0  0  0  0  0  0  0  0  0  0  0  0
    7.7085  -13.7438   19.0460 C   0  0  0  0  0  0  0  0  0  0  0  0
    6.9383  -14.8239   19.4818 C   0  0  0  0  0  0  0  0  0  0  0  0
    6.7106  -15.0289   20.8254 C   0  0  0  0  0  0  0  0  0  0  0  0
    5.8991  -16.1613   21.3449 C   0  0  0  0  0  0  0  0  0  0  0  0
    6.6668  -17.4665   21.2958 C   0  0  2  0  0  0  0  0  0  0  0  0
    5.7663  -18.5133   21.7498 N   0  0  0  0  0  0  0  0  0  0  0  0
    7.7836  -17.3815   22.2603 C   0  0  0  0  0  0  0  0  0  0  0  0
    7.4773  -17.5237   23.4912 O   0  0  0  0  0  0  0  0  0  0  0  0
    7.2770  -14.1212   21.7085 C   0  0  0  0  0  0  0  0  0  0  0  0
    8.0353  -13.0578   21.2773 C   0  0  0  0  0  0  0  0  0  0  0  0
    9.1295  -17.1616   21.9434 N   0  0  0  0  0  0  0  0  0  0  0  0
   10.1695  -17.0611   22.9303 C   0  0  1  0  0  0  0  0  0  0  0  0
   11.4959  -17.3426   22.3203 C   0  0  0  0  0  0  0  0  0  0  0  0
   11.6518  -18.5912   21.5309 C   0  0  0  0  0  0  0  0  0  0  0  0
   12.7708  -18.7499   20.6367 C   0  0  0  0  0  0  0  0  0  0  0  0
   12.6894  -19.1180   19.4638 O   0  0  0  0  0  0  0  0  0  0  0  0
   10.0969  -15.8968   23.8132 C   0  0  0  0  0  0  0  0  0  0  0  0
   10.1945  -14.6938   23.3917 O   0  0  0  0  0  0  0  0  0  0  0  0
   14.0769  -18.4728   21.1013 O   0  0  0  0  0  0  0  0  0  0  0  0
    8.6461  -13.1922   28.2830 C   0  0  0  0  0  0  0  0  0  0  0  0
    8.2064  -13.0027   26.8739 C   0  0  2  0  0  0  0  0  0  0  0  0
    6.6945  -12.7542   26.8726 C   0  0  0  0  0  0  0  0  0  0  0  0
    8.4548  -14.1266   25.9379 C   0  0  0  0  0  0  0  0  0  0  0  0
    9.7278  -14.8809   26.1000 C   0  0  2  0  0  0  0  0  0  0  0  0
    9.9014  -16.0192   25.2389 N   0  0  0  0  0  0  0  0  0  0  0  0
    9.8296  -15.3153   27.5169 C   0  0  0  0  0  0  0  0  0  0  0  0
    9.0650  -16.2353   27.9439 O   0  0  0  0  0  0  0  0  0  0  0  0
   10.7179  -14.7781   28.4265 O   0  0  0  0  0  0  0  0  0  0  0  0
  2  1  1  0
  3  2  2  0
  4  3  1  0
  5  4  2  0
  5 11  1  0
  6  5  1  0
  7  8  1  1
  7  6  1  0
  9  7  1  0
  9 13  1  0
 10  9  2  0
 11 12  2  0
 12  2  1  0
 14 13  1  0
 14 15  1  6
 15 16  1  0
 16 17  1  0
 17 18  2  0
 17 21  1  0
 19 14  1  0
 20 19  2  0
 23 22  1  1
 23 24  1  0
 25 23  1  0
 26 25  1  1
 26 28  1  0
 26 27  1  0
 27 19  1  0
 28 30  1  0
 29 28  2  0
M  END
$$$$
