YEL.pdb
     RDKit          3D

 30 30  0  0  1  0  0  0  0  0999 V2000
    0.1598  -19.9141   20.0553 O   0  0  0  0  0  0  0  0  0  0  0  0
    1.3270  -19.4224   20.6455 C   0  0  0  0  0  0  0  0  0  0  0  0
    2.3931  -19.0603   19.8590 C   0  0  0  0  0  0  0  0  0  0  0  0
    3.5753  -18.5651   20.4128 C   0  0  0  0  0  0  0  0  0  0  0  0
    3.7079  -18.4240   21.7772 C   0  0  0  0  0  0  0  0  0  0  0  0
    4.9429  -17.9025   22.4204 C   0  0  0  0  0  0  0  0  0  0  0  0
    6.1004  -18.8686   22.2706 C   0  0  2  0  0  0  0  0  0  0  0  0
    5.7666  -20.0619   23.0304 N   0  0  0  0  0  0  0  0  0  0  0  0
    7.2947  -18.2574   22.8908 C   0  0  0  0  0  0  0  0  0  0  0  0
    7.3581  -18.3107   24.1645 O   0  0  0  0  0  0  0  0  0  0  0  0
    2.6235  -18.7934   22.5596 C   0  0  0  0  0  0  0  0  0  0  0  0
    1.4597  -19.2810   22.0121 C   0  0  0  0  0  0  0  0  0  0  0  0
    8.3475  -17.6340   22.2101 N   0  0  0  0  0  0  0  0  0  0  0  0
    9.5029  -17.0881   22.8677 C   0  0  1  0  0  0  0  0  0  0  0  0
   10.6407  -16.9783   21.9168 C   0  0  0  0  0  0  0  0  0  0  0  0
   11.8977  -16.3513   22.3997 C   0  0  0  0  0  0  0  0  0  0  0  0
   13.0332  -16.2305   21.5204 C   0  0  0  0  0  0  0  0  0  0  0  0
   13.2036  -15.3183   20.7102 O   0  0  0  0  0  0  0  0  0  0  0  0
    9.2580  -15.9253   23.7212 C   0  0  0  0  0  0  0  0  0  0  0  0
    8.9251  -14.7797   23.2615 O   0  0  0  0  0  0  0  0  0  0  0  0
   14.0502  -17.2117   21.5594 O   0  0  0  0  0  0  0  0  0  0  0  0
    6.0714  -12.7273   27.0087 C   0  0  0  0  0  0  0  0  0  0  0  0
    7.5011  -13.1139   26.8633 C   0  0  2  0  0  0  0  0  0  0  0  0
    8.2844  -11.8856   26.3886 C   0  0  0  0  0  0  0  0  0  0  0  0
    7.8052  -14.2086   25.9093 C   0  0  0  0  0  0  0  0  0  0  0  0
    9.1482  -14.8434   26.0048 C   0  0  2  0  0  0  0  0  0  0  0  0
    9.3683  -15.9858   25.1599 N   0  0  0  0  0  0  0  0  0  0  0  0
    9.3776  -15.2273   27.4214 C   0  0  0  0  0  0  0  0  0  0  0  0
    9.0683  -16.3967   27.8089 O   0  0  0  0  0  0  0  0  0  0  0  0
    9.9166  -14.3837   28.3716 O   0  0  0  0  0  0  0  0  0  0  0  0
  2  1  1  0
  3  2  2  0
  4  3  1  0
  5  4  2  0
  5 11  1  0
  6  5  1  0
  7  8  1  1
  7  6  1  0
  9  7  1  0
  9 13  1  0
 10  9  2  0
 11 12  2  0
 12  2  1  0
 14 13  1  0
 14 15  1  6
 15 16  1  0
 16 17  1  0
 17 18  2  0
 17 21  1  0
 19 14  1  0
 20 19  2  0
 23 22  1  6
 23 24  1  0
 25 23  1  0
 26 25  1  1
 26 28  1  0
 26 27  1  0
 27 19  1  0
 28 30  1  0
 29 28  2  0
M  END
$$$$
