YEL.pdb
     RDKit          3D

 30 30  0  0  1  0  0  0  0  0999 V2000
    8.8599  -11.7039   18.1306 O   0  0  0  0  0  0  0  0  0  0  0  0
    8.2515  -12.6107   19.0023 C   0  0  0  0  0  0  0  0  0  0  0  0
    8.2709  -12.3792   20.3559 C   0  0  0  0  0  0  0  0  0  0  0  0
    7.6737  -13.2626   21.2574 C   0  0  0  0  0  0  0  0  0  0  0  0
    7.0415  -14.4028   20.8109 C   0  0  0  0  0  0  0  0  0  0  0  0
    6.3897  -15.3773   21.7253 C   0  0  0  0  0  0  0  0  0  0  0  0
    7.0166  -16.7521   21.6142 C   0  0  2  0  0  0  0  0  0  0  0  0
    5.9433  -17.7255   21.7293 N   0  0  0  0  0  0  0  0  0  0  0  0
    7.9229  -16.9405   22.7664 C   0  0  0  0  0  0  0  0  0  0  0  0
    7.3701  -17.2560   23.8727 O   0  0  0  0  0  0  0  0  0  0  0  0
    7.0293  -14.6242   19.4414 C   0  0  0  0  0  0  0  0  0  0  0  0
    7.6182  -13.7528   18.5550 C   0  0  0  0  0  0  0  0  0  0  0  0
    9.3163  -16.8044   22.7480 N   0  0  0  0  0  0  0  0  0  0  0  0
   10.1547  -17.0856   23.8810 C   0  0  1  0  0  0  0  0  0  0  0  0
   11.4815  -17.5876   23.4359 C   0  0  0  0  0  0  0  0  0  0  0  0
   12.4495  -18.0223   24.4753 C   0  0  0  0  0  0  0  0  0  0  0  0
   13.7586  -18.4917   24.0976 C   0  0  0  0  0  0  0  0  0  0  0  0
   14.0523  -19.6699   23.8895 O   0  0  0  0  0  0  0  0  0  0  0  0
   10.1669  -16.0664   24.9307 C   0  0  0  0  0  0  0  0  0  0  0  0
   10.8780  -15.0060   24.8658 O   0  0  0  0  0  0  0  0  0  0  0  0
   14.8129  -17.5625   23.9438 O   0  0  0  0  0  0  0  0  0  0  0  0
    9.3505  -12.1925   26.4510 C   0  0  0  0  0  0  0  0  0  0  0  0
    8.2480  -13.1921   26.4471 C   0  0  2  0  0  0  0  0  0  0  0  0
    6.9380  -12.4626   26.7620 C   0  0  0  0  0  0  0  0  0  0  0  0
    8.3558  -14.3119   27.4142 C   0  0  0  0  0  0  0  0  0  0  0  0
    9.4837  -15.2658   27.2306 C   0  0  2  0  0  0  0  0  0  0  0  0
    9.3650  -16.1792   26.1265 N   0  0  0  0  0  0  0  0  0  0  0  0
    9.6471  -16.0353   28.4908 C   0  0  0  0  0  0  0  0  0  0  0  0
    9.4119  -17.2835   28.4945 O   0  0  0  0  0  0  0  0  0  0  0  0
   10.0465  -15.4780   29.6886 O   0  0  0  0  0  0  0  0  0  0  0  0
  2  1  1  0
  3  2  2  0
  4  3  1  0
  5  4  2  0
  5 11  1  0
  6  5  1  0
  7  8  1  1
  7  6  1  0
  9  7  1  0
  9 13  1  0
 10  9  2  0
 11 12  2  0
 12  2  1  0
 14 13  1  0
 14 15  1  6
 15 16  1  0
 16 17  1  0
 17 18  2  0
 17 21  1  0
 19 14  1  0
 20 19  2  0
 23 22  1  1
 23 24  1  0
 25 23  1  0
 26 25  1  1
 26 28  1  0
 26 27  1  0
 27 19  1  0
 28 30  1  0
 29 28  2  0
M  END
$$$$
