YEL.pdb
     RDKit          3D

 30 30  0  0  1  0  0  0  0  0999 V2000
    8.8345  -12.1101   20.4351 O   0  0  0  0  0  0  0  0  0  0  0  0
    8.1188  -13.1591   21.0177 C   0  0  0  0  0  0  0  0  0  0  0  0
    7.3527  -13.9857   20.2329 C   0  0  0  0  0  0  0  0  0  0  0  0
    6.6239  -15.0440   20.7794 C   0  0  0  0  0  0  0  0  0  0  0  0
    6.6525  -15.2920   22.1347 C   0  0  0  0  0  0  0  0  0  0  0  0
    5.8967  -16.4038   22.7698 C   0  0  0  0  0  0  0  0  0  0  0  0
    6.5039  -17.7518   22.4387 C   0  0  2  0  0  0  0  0  0  0  0  0
    5.6506  -18.7666   23.0343 N   0  0  0  0  0  0  0  0  0  0  0  0
    7.8275  -17.8345   23.0913 C   0  0  0  0  0  0  0  0  0  0  0  0
    7.8241  -18.0835   24.3431 O   0  0  0  0  0  0  0  0  0  0  0  0
    7.4303  -14.4494   22.9155 C   0  0  0  0  0  0  0  0  0  0  0  0
    8.1474  -13.4075   22.3753 C   0  0  0  0  0  0  0  0  0  0  0  0
    9.0669  -17.6656   22.4624 N   0  0  0  0  0  0  0  0  0  0  0  0
   10.3221  -17.7076   23.1612 C   0  0  1  0  0  0  0  0  0  0  0  0
   11.4528  -17.7778   22.1982 C   0  0  0  0  0  0  0  0  0  0  0  0
   12.8354  -17.7654   22.7409 C   0  0  0  0  0  0  0  0  0  0  0  0
   13.8836  -18.4964   22.0747 C   0  0  0  0  0  0  0  0  0  0  0  0
   14.2201  -19.6503   22.3451 O   0  0  0  0  0  0  0  0  0  0  0  0
   10.4680  -16.7558   24.2627 C   0  0  0  0  0  0  0  0  0  0  0  0
   10.5841  -15.4951   24.0853 O   0  0  0  0  0  0  0  0  0  0  0  0
   14.6042  -17.8790   21.0269 O   0  0  0  0  0  0  0  0  0  0  0  0
    8.8785  -13.0892   28.0399 C   0  0  0  0  0  0  0  0  0  0  0  0
    9.9465  -14.1137   27.8830 C   0  0  2  0  0  0  0  0  0  0  0  0
   11.2872  -13.3888   27.7257 C   0  0  0  0  0  0  0  0  0  0  0  0
    9.8235  -15.0382   26.7293 C   0  0  0  0  0  0  0  0  0  0  0  0
   10.6872  -16.2505   26.7313 C   0  0  2  0  0  0  0  0  0  0  0  0
   10.4855  -17.1715   25.6457 N   0  0  0  0  0  0  0  0  0  0  0  0
   10.4856  -16.9586   28.0216 C   0  0  0  0  0  0  0  0  0  0  0  0
    9.5723  -17.8364   28.1155 O   0  0  0  0  0  0  0  0  0  0  0  0
   11.2383  -16.7261   29.1549 O   0  0  0  0  0  0  0  0  0  0  0  0
  2  1  1  0
  3  2  2  0
  4  3  1  0
  5  4  2  0
  5 11  1  0
  6  5  1  0
  7  8  1  1
  7  6  1  0
  9  7  1  0
  9 13  1  0
 10  9  2  0
 11 12  2  0
 12  2  1  0
 14 13  1  0
 14 15  1  6
 15 16  1  0
 16 17  1  0
 17 18  2  0
 17 21  1  0
 19 14  1  0
 20 19  2  0
 23 22  1  6
 23 24  1  0
 25 23  1  0
 26 25  1  6
 26 28  1  0
 26 27  1  0
 27 19  1  0
 28 30  1  0
 29 28  2  0
M  END
$$$$
