YEL.pdb
     RDKit          3D

 30 30  0  0  1  0  0  0  0  0999 V2000
    7.1783  -12.0185   16.7322 O   0  0  0  0  0  0  0  0  0  0  0  0
    7.3451  -12.7495   17.9113 C   0  0  0  0  0  0  0  0  0  0  0  0
    8.6084  -13.0345   18.3685 C   0  0  0  0  0  0  0  0  0  0  0  0
    8.8141  -13.7623   19.5424 C   0  0  0  0  0  0  0  0  0  0  0  0
    7.7457  -14.2197   20.2829 C   0  0  0  0  0  0  0  0  0  0  0  0
    7.9065  -14.9986   21.5392 C   0  0  0  0  0  0  0  0  0  0  0  0
    8.2722  -16.4418   21.2579 C   0  0  2  0  0  0  0  0  0  0  0  0
    7.0293  -17.1750   21.0835 N   0  0  0  0  0  0  0  0  0  0  0  0
    8.9543  -16.9860   22.4508 C   0  0  0  0  0  0  0  0  0  0  0  0
    8.2131  -17.2329   23.4603 O   0  0  0  0  0  0  0  0  0  0  0  0
    6.4755  -13.9247   19.8096 C   0  0  0  0  0  0  0  0  0  0  0  0
    6.2749  -13.2077   18.6530 C   0  0  0  0  0  0  0  0  0  0  0  0
   10.3244  -17.2500   22.5665 N   0  0  0  0  0  0  0  0  0  0  0  0
   10.9717  -17.5445   23.8153 C   0  0  1  0  0  0  0  0  0  0  0  0
   12.3319  -18.0970   23.5799 C   0  0  0  0  0  0  0  0  0  0  0  0
   13.1847  -18.3833   24.7619 C   0  0  0  0  0  0  0  0  0  0  0  0
   14.5133  -18.9139   24.5874 C   0  0  0  0  0  0  0  0  0  0  0  0
   14.8217  -19.7909   23.7791 O   0  0  0  0  0  0  0  0  0  0  0  0
   10.8616  -16.5128   24.8468 C   0  0  0  0  0  0  0  0  0  0  0  0
   11.3787  -15.3496   24.7287 O   0  0  0  0  0  0  0  0  0  0  0  0
   15.5704  -18.4175   25.3841 O   0  0  0  0  0  0  0  0  0  0  0  0
    7.3447  -12.9986   27.8881 C   0  0  0  0  0  0  0  0  0  0  0  0
    8.5943  -13.8004   27.9907 C   0  0  2  0  0  0  0  0  0  0  0  0
    9.7837  -12.8348   28.0088 C   0  0  0  0  0  0  0  0  0  0  0  0
    8.8543  -14.7772   26.9048 C   0  0  0  0  0  0  0  0  0  0  0  0
   10.0013  -15.7087   27.0853 C   0  0  2  0  0  0  0  0  0  0  0  0
   10.1490  -16.7300   26.0840 N   0  0  0  0  0  0  0  0  0  0  0  0
    9.8737  -16.3444   28.4219 C   0  0  0  0  0  0  0  0  0  0  0  0
    9.8526  -15.6139   29.4607 O   0  0  0  0  0  0  0  0  0  0  0  0
    9.7736  -17.7064   28.6218 O   0  0  0  0  0  0  0  0  0  0  0  0
  2  1  1  0
  3  2  2  0
  4  3  1  0
  5  4  2  0
  5 11  1  0
  6  5  1  0
  7  8  1  1
  7  6  1  0
  9  7  1  0
  9 13  1  0
 10  9  2  0
 11 12  2  0
 12  2  1  0
 14 13  1  0
 14 15  1  6
 15 16  1  0
 16 17  1  0
 17 18  2  0
 17 21  1  0
 19 14  1  0
 20 19  2  0
 23 22  1  6
 23 24  1  0
 25 23  1  0
 26 25  1  6
 26 28  1  0
 26 27  1  0
 27 19  1  0
 28 30  1  0
 29 28  2  0
M  END
$$$$
