YEL.pdb
     RDKit          3D

 30 30  0  0  1  0  0  0  0  0999 V2000
    8.7328  -12.6508   17.4251 O   0  0  0  0  0  0  0  0  0  0  0  0
    8.3355  -13.3038   18.5946 C   0  0  0  0  0  0  0  0  0  0  0  0
    7.3574  -12.7556   19.3878 C   0  0  0  0  0  0  0  0  0  0  0  0
    6.9346  -13.3792   20.5634 C   0  0  0  0  0  0  0  0  0  0  0  0
    7.4916  -14.5739   20.9656 C   0  0  0  0  0  0  0  0  0  0  0  0
    7.0800  -15.2810   22.2071 C   0  0  0  0  0  0  0  0  0  0  0  0
    7.1683  -16.7851   22.0477 C   0  0  2  0  0  0  0  0  0  0  0  0
    5.9072  -17.3419   22.5086 N   0  0  0  0  0  0  0  0  0  0  0  0
    8.2352  -17.2821   22.9418 C   0  0  0  0  0  0  0  0  0  0  0  0
    7.9218  -17.4188   24.1716 O   0  0  0  0  0  0  0  0  0  0  0  0
    8.4782  -15.1163   20.1552 C   0  0  0  0  0  0  0  0  0  0  0  0
    8.8934  -14.5005   18.9975 C   0  0  0  0  0  0  0  0  0  0  0  0
    9.5416  -17.6109   22.5604 N   0  0  0  0  0  0  0  0  0  0  0  0
   10.5911  -17.9020   23.4981 C   0  0  1  0  0  0  0  0  0  0  0  0
   11.8283  -18.3148   22.7842 C   0  0  0  0  0  0  0  0  0  0  0  0
   13.0432  -18.5911   23.5929 C   0  0  0  0  0  0  0  0  0  0  0  0
   14.2778  -18.9585   22.9465 C   0  0  0  0  0  0  0  0  0  0  0  0
   14.6378  -20.1145   22.7191 O   0  0  0  0  0  0  0  0  0  0  0  0
   10.7614  -16.9337   24.5816 C   0  0  0  0  0  0  0  0  0  0  0  0
   11.1675  -15.7366   24.3907 O   0  0  0  0  0  0  0  0  0  0  0  0
   15.1708  -17.9463   22.5264 O   0  0  0  0  0  0  0  0  0  0  0  0
    8.8632  -13.2547   28.5098 C   0  0  0  0  0  0  0  0  0  0  0  0
    9.8780  -14.3318   28.3526 C   0  0  2  0  0  0  0  0  0  0  0  0
   11.2556  -13.6760   28.2118 C   0  0  0  0  0  0  0  0  0  0  0  0
    9.7168  -15.2394   27.1902 C   0  0  0  0  0  0  0  0  0  0  0  0
   10.7100  -16.3377   27.0392 C   0  0  2  0  0  0  0  0  0  0  0  0
   10.4750  -17.2578   25.9596 N   0  0  0  0  0  0  0  0  0  0  0  0
   10.7680  -17.0869   28.3207 C   0  0  0  0  0  0  0  0  0  0  0  0
   11.3546  -16.5681   29.3207 O   0  0  0  0  0  0  0  0  0  0  0  0
   10.2163  -18.3380   28.5083 O   0  0  0  0  0  0  0  0  0  0  0  0
  2  1  1  0
  3  2  2  0
  4  3  1  0
  5  4  2  0
  5 11  1  0
  6  5  1  0
  7  8  1  1
  7  6  1  0
  9  7  1  0
  9 13  1  0
 10  9  2  0
 11 12  2  0
 12  2  1  0
 14 13  1  0
 14 15  1  6
 15 16  1  0
 16 17  1  0
 17 18  2  0
 17 21  1  0
 19 14  1  0
 20 19  2  0
 23 22  1  6
 23 24  1  0
 25 23  1  0
 26 25  1  1
 26 28  1  0
 26 27  1  0
 27 19  1  0
 28 30  1  0
 29 28  2  0
M  END
$$$$
