YEL.pdb
     RDKit          3D

 30 30  0  0  1  0  0  0  0  0999 V2000
    4.4153   -9.8167   25.6667 O   0  0  0  0  0  0  0  0  0  0  0  0
    5.2205  -10.9582   25.6364 C   0  0  0  0  0  0  0  0  0  0  0  0
    5.0010  -11.9762   26.5319 C   0  0  0  0  0  0  0  0  0  0  0  0
    5.7849  -13.1317   26.5318 C   0  0  0  0  0  0  0  0  0  0  0  0
    6.8111  -13.2856   25.6249 C   0  0  0  0  0  0  0  0  0  0  0  0
    7.6766  -14.4937   25.5799 C   0  0  0  0  0  0  0  0  0  0  0  0
    7.1578  -15.5150   24.5883 C   0  0  2  0  0  0  0  0  0  0  0  0
    5.9631  -16.1081   25.1659 N   0  0  0  0  0  0  0  0  0  0  0  0
    8.1714  -16.5820   24.4519 C   0  0  0  0  0  0  0  0  0  0  0  0
    8.1720  -17.4783   25.3607 O   0  0  0  0  0  0  0  0  0  0  0  0
    7.0216  -12.2498   24.7264 C   0  0  0  0  0  0  0  0  0  0  0  0
    6.2483  -11.1123   24.7280 C   0  0  0  0  0  0  0  0  0  0  0  0
    9.1173  -16.6921   23.4255 N   0  0  0  0  0  0  0  0  0  0  0  0
   10.3915  -17.3365   23.5884 C   0  0  1  0  0  0  0  0  0  0  0  0
   11.1573  -17.3070   22.3142 C   0  0  0  0  0  0  0  0  0  0  0  0
   12.4778  -17.9860   22.2760 C   0  0  0  0  0  0  0  0  0  0  0  0
   13.2676  -17.9708   21.0706 C   0  0  0  0  0  0  0  0  0  0  0  0
   14.3496  -18.5425   20.9293 O   0  0  0  0  0  0  0  0  0  0  0  0
   11.1335  -16.9804   24.7980 C   0  0  0  0  0  0  0  0  0  0  0  0
   11.9206  -15.9751   24.8636 O   0  0  0  0  0  0  0  0  0  0  0  0
   12.8010  -17.2577   19.9426 O   0  0  0  0  0  0  0  0  0  0  0  0
   11.2622  -14.3337   27.5003 C   0  0  0  0  0  0  0  0  0  0  0  0
   10.3984  -15.4604   27.9466 C   0  0  2  0  0  0  0  0  0  0  0  0
    9.6394  -15.0154   29.2009 C   0  0  0  0  0  0  0  0  0  0  0  0
   11.0808  -16.7322   28.2897 C   0  0  0  0  0  0  0  0  0  0  0  0
   11.8016  -17.4369   27.1944 C   0  0  2  0  0  0  0  0  0  0  0  0
   11.0271  -17.7402   26.0216 N   0  0  0  0  0  0  0  0  0  0  0  0
   12.3685  -18.6933   27.7485 C   0  0  0  0  0  0  0  0  0  0  0  0
   11.9205  -19.8112   27.3448 O   0  0  0  0  0  0  0  0  0  0  0  0
   13.3727  -18.7350   28.6944 O   0  0  0  0  0  0  0  0  0  0  0  0
  2  1  1  0
  3  2  2  0
  4  3  1  0
  5  4  2  0
  5 11  1  0
  6  5  1  0
  7  8  1  1
  7  6  1  0
  9  7  1  0
  9 13  1  0
 10  9  2  0
 11 12  2  0
 12  2  1  0
 14 13  1  0
 14 15  1  6
 15 16  1  0
 16 17  1  0
 17 18  2  0
 17 21  1  0
 19 14  1  0
 20 19  2  0
 23 22  1  1
 23 24  1  0
 25 23  1  0
 26 25  1  1
 26 28  1  0
 26 27  1  0
 27 19  1  0
 28 30  1  0
 29 28  2  0
M  END
$$$$
