YEL.pdb
     RDKit          3D

 30 30  0  0  1  0  0  0  0  0999 V2000
    7.9293  -11.8808   17.3721 O   0  0  0  0  0  0  0  0  0  0  0  0
    7.8771  -12.6697   18.5241 C   0  0  0  0  0  0  0  0  0  0  0  0
    6.6623  -13.0411   19.0464 C   0  0  0  0  0  0  0  0  0  0  0  0
    6.5707  -13.8286   20.1959 C   0  0  0  0  0  0  0  0  0  0  0  0
    7.7069  -14.2601   20.8454 C   0  0  0  0  0  0  0  0  0  0  0  0
    7.6681  -15.0997   22.0719 C   0  0  0  0  0  0  0  0  0  0  0  0
    7.7859  -16.5739   21.7428 C   0  0  2  0  0  0  0  0  0  0  0  0
    6.4572  -17.1503   21.8660 N   0  0  0  0  0  0  0  0  0  0  0  0
    8.6492  -17.2067   22.7620 C   0  0  0  0  0  0  0  0  0  0  0  0
    8.1178  -17.4073   23.9050 O   0  0  0  0  0  0  0  0  0  0  0  0
    8.9270  -13.8777   20.3071 C   0  0  0  0  0  0  0  0  0  0  0  0
    9.0151  -13.1019   19.1748 C   0  0  0  0  0  0  0  0  0  0  0  0
    9.9812  -17.5994   22.5832 N   0  0  0  0  0  0  0  0  0  0  0  0
   10.8482  -17.9761   23.6658 C   0  0  1  0  0  0  0  0  0  0  0  0
   12.1169  -18.5483   23.1427 C   0  0  0  0  0  0  0  0  0  0  0  0
   13.1330  -19.0090   24.1233 C   0  0  0  0  0  0  0  0  0  0  0  0
   14.3951  -19.5353   23.6682 C   0  0  0  0  0  0  0  0  0  0  0  0
   15.3697  -18.8528   23.3489 O   0  0  0  0  0  0  0  0  0  0  0  0
   10.9761  -16.9985   24.7468 C   0  0  0  0  0  0  0  0  0  0  0  0
   11.4388  -15.8198   24.5709 O   0  0  0  0  0  0  0  0  0  0  0  0
   14.5687  -20.9346   23.5663 O   0  0  0  0  0  0  0  0  0  0  0  0
    8.6838  -13.3383   28.5349 C   0  0  0  0  0  0  0  0  0  0  0  0
    9.7739  -14.3436   28.4091 C   0  0  2  0  0  0  0  0  0  0  0  0
   11.0995  -13.5948   28.2366 C   0  0  0  0  0  0  0  0  0  0  0  0
    9.6749  -15.3011   27.2802 C   0  0  0  0  0  0  0  0  0  0  0  0
   10.7291  -16.3471   27.1783 C   0  0  2  0  0  0  0  0  0  0  0  0
   10.5800  -17.2915   26.1044 N   0  0  0  0  0  0  0  0  0  0  0  0
   10.7822  -17.0764   28.4714 C   0  0  0  0  0  0  0  0  0  0  0  0
   10.1356  -18.1617   28.6026 O   0  0  0  0  0  0  0  0  0  0  0  0
   11.5020  -16.6492   29.5688 O   0  0  0  0  0  0  0  0  0  0  0  0
  2  1  1  0
  3  2  2  0
  4  3  1  0
  5  4  2  0
  5 11  1  0
  6  5  1  0
  7  8  1  1
  7  6  1  0
  9  7  1  0
  9 13  1  0
 10  9  2  0
 11 12  2  0
 12  2  1  0
 14 13  1  0
 14 15  1  6
 15 16  1  0
 16 17  1  0
 17 18  2  0
 17 21  1  0
 19 14  1  0
 20 19  2  0
 23 22  1  6
 23 24  1  0
 25 23  1  0
 26 25  1  1
 26 28  1  0
 26 27  1  0
 27 19  1  0
 28 30  1  0
 29 28  2  0
M  END
$$$$
