YEL.pdb
     RDKit          3D

 30 30  0  0  1  0  0  0  0  0999 V2000
    9.7192  -11.9203   19.3160 O   0  0  0  0  0  0  0  0  0  0  0  0
    8.7598  -12.8915   19.6138 C   0  0  0  0  0  0  0  0  0  0  0  0
    8.0251  -12.7978   20.7703 C   0  0  0  0  0  0  0  0  0  0  0  0
    7.0580  -13.7490   21.1013 C   0  0  0  0  0  0  0  0  0  0  0  0
    6.8104  -14.8194   20.2694 C   0  0  0  0  0  0  0  0  0  0  0  0
    5.7933  -15.8609   20.5720 C   0  0  0  0  0  0  0  0  0  0  0  0
    6.4110  -17.2431   20.6315 C   0  0  2  0  0  0  0  0  0  0  0  0
    5.3294  -18.1892   20.8501 N   0  0  0  0  0  0  0  0  0  0  0  0
    7.3047  -17.2990   21.8074 C   0  0  0  0  0  0  0  0  0  0  0  0
    6.7470  -17.1559   22.9466 O   0  0  0  0  0  0  0  0  0  0  0  0
    7.5595  -14.9017   19.1047 C   0  0  0  0  0  0  0  0  0  0  0  0
    8.5118  -13.9636   18.7804 C   0  0  0  0  0  0  0  0  0  0  0  0
    8.6910  -17.4926   21.7788 N   0  0  0  0  0  0  0  0  0  0  0  0
    9.5245  -17.4264   22.9478 C   0  0  1  0  0  0  0  0  0  0  0  0
   10.8662  -18.0011   22.6647 C   0  0  0  0  0  0  0  0  0  0  0  0
   11.8841  -17.9667   23.7459 C   0  0  0  0  0  0  0  0  0  0  0  0
   12.7206  -19.1140   23.9925 C   0  0  0  0  0  0  0  0  0  0  0  0
   13.7168  -19.4150   23.3332 O   0  0  0  0  0  0  0  0  0  0  0  0
    9.5044  -16.1547   23.6710 C   0  0  0  0  0  0  0  0  0  0  0  0
    9.9807  -15.0703   23.1898 O   0  0  0  0  0  0  0  0  0  0  0  0
   12.4090  -19.9848   25.0617 O   0  0  0  0  0  0  0  0  0  0  0  0
    6.7634  -11.7264   26.3632 C   0  0  0  0  0  0  0  0  0  0  0  0
    7.9625  -12.6066   26.4109 C   0  0  2  0  0  0  0  0  0  0  0  0
    9.1728  -11.7945   25.9387 C   0  0  0  0  0  0  0  0  0  0  0  0
    7.9241  -13.8362   25.5818 C   0  0  0  0  0  0  0  0  0  0  0  0
    9.0289  -14.8169   25.7642 C   0  0  2  0  0  0  0  0  0  0  0  0
    8.9343  -16.0259   24.9917 N   0  0  0  0  0  0  0  0  0  0  0  0
    9.1079  -15.1599   27.2075 C   0  0  0  0  0  0  0  0  0  0  0  0
    8.6388  -16.2689   27.6119 O   0  0  0  0  0  0  0  0  0  0  0  0
    9.6688  -14.3399   28.1656 O   0  0  0  0  0  0  0  0  0  0  0  0
  2  1  1  0
  3  2  2  0
  4  3  1  0
  5  4  2  0
  5 11  1  0
  6  5  1  0
  7  8  1  1
  7  6  1  0
  9  7  1  0
  9 13  1  0
 10  9  2  0
 11 12  2  0
 12  2  1  0
 14 13  1  0
 14 15  1  6
 15 16  1  0
 16 17  1  0
 17 18  2  0
 17 21  1  0
 19 14  1  0
 20 19  2  0
 23 22  1  6
 23 24  1  0
 25 23  1  0
 26 25  1  1
 26 28  1  0
 26 27  1  0
 27 19  1  0
 28 30  1  0
 29 28  2  0
M  END
$$$$
