FSP.pdb
     RDKit          3D

 25 26  0  0  1  0  0  0  0  0999 V2000
    7.9312  -16.0586   26.1724 N   0  0  0  0  0  0  0  0  0  0  0  0
    7.5200  -15.5282   24.9113 C   0  0  1  0  0  0  0  0  0  0  0  0
    8.0653  -14.1303   24.7660 C   0  0  0  0  0  0  0  0  0  0  0  0
    7.4607  -13.2982   25.8223 C   0  0  0  0  0  0  0  0  0  0  0  0
    8.2079  -12.7977   26.8575 C   0  0  0  0  0  0  0  0  0  0  0  0
    7.6306  -12.0076   27.8594 C   0  0  0  0  0  0  0  0  0  0  0  0
    6.2754  -11.7281   27.7994 C   0  0  0  0  0  0  0  0  0  0  0  0
    5.5177  -12.2282   26.7611 C   0  0  0  0  0  0  0  0  0  0  0  0
    6.1201  -13.0157   25.7721 C   0  0  0  0  0  0  0  0  0  0  0  0
    7.8629  -16.4034   23.7690 C   0  0  0  0  0  0  0  0  0  0  0  0
    8.8002  -17.2282   23.9194 O   0  0  0  0  0  0  0  0  0  0  0  0
    5.1448  -17.6010   21.2464 O   0  0  0  0  0  0  0  0  0  0  0  0
    6.3827  -18.2439   21.2277 C   0  0  0  0  0  0  0  0  0  0  0  0
    7.5197  -17.2539   21.4064 C   0  0  2  0  0  0  0  0  0  0  0  0
    7.1916  -16.3591   22.5206 N   0  0  0  0  0  0  0  0  0  0  0  0
    7.7793  -16.4678   20.1822 C   0  0  0  0  0  0  0  0  0  0  0  0
    8.0831  -17.0624   19.0887 O   0  0  0  0  0  0  0  0  0  0  0  0
    7.7114  -15.0451   20.1270 N   0  0  0  0  0  0  0  0  0  0  0  0
    7.3340  -14.1423   21.1768 C   0  0  0  0  0  0  0  0  0  0  0  0
    8.3419  -12.9961   20.9856 C   0  0  0  0  0  0  0  0  0  0  0  0
    8.1302  -12.7983   19.4812 C   0  0  0  0  0  0  0  0  0  0  0  0
    8.0307  -14.2282   18.9474 C   0  0  1  0  0  0  0  0  0  0  0  0
    9.3516  -14.6458   18.4014 C   0  0  0  0  0  0  0  0  0  0  0  0
    9.7089  -14.3485   17.1100 O   0  0  0  0  0  0  0  0  0  0  0  0
   10.1422  -15.2788   19.1368 O   0  0  0  0  0  0  0  0  0  0  0  0
  2  1  1  1
  2 10  1  0
  3  2  1  0
  4  5  2  0
  4  3  1  0
  6  5  1  0
  7  6  2  0
  8  7  1  0
  8  9  2  0
  9  4  1  0
 10 15  1  0
 10 11  2  0
 13 12  1  0
 14 13  1  6
 15 14  1  0
 16 14  1  0
 16 17  2  0
 18 16  1  0
 19 18  1  0
 20 19  1  0
 20 21  1  0
 21 22  1  0
 22 18  1  0
 22 23  1  1
 24 23  1  0
 25 23  2  0
M  END
$$$$
