FSP.pdb
     RDKit          3D

 25 26  0  0  1  0  0  0  0  0999 V2000
    7.9014  -13.0578   20.3882 N   0  0  0  0  0  0  0  0  0  0  0  0
    7.5097  -14.0428   21.3459 C   0  0  1  0  0  0  0  0  0  0  0  0
    7.8959  -15.4066   20.8326 C   0  0  0  0  0  0  0  0  0  0  0  0
    7.3580  -16.4101   21.7693 C   0  0  0  0  0  0  0  0  0  0  0  0
    8.1032  -16.8856   22.8176 C   0  0  0  0  0  0  0  0  0  0  0  0
    7.5894  -17.8389   23.7057 C   0  0  0  0  0  0  0  0  0  0  0  0
    6.3002  -18.3089   23.5172 C   0  0  0  0  0  0  0  0  0  0  0  0
    5.5449  -17.8351   22.4649 C   0  0  0  0  0  0  0  0  0  0  0  0
    6.0830  -16.8817   21.5915 C   0  0  0  0  0  0  0  0  0  0  0  0
    8.0223  -13.7715   22.7068 C   0  0  0  0  0  0  0  0  0  0  0  0
    9.2163  -13.3941   22.8221 O   0  0  0  0  0  0  0  0  0  0  0  0
    5.8049  -14.2431   26.4783 O   0  0  0  0  0  0  0  0  0  0  0  0
    6.5064  -13.1163   26.0492 C   0  0  0  0  0  0  0  0  0  0  0  0
    7.7088  -13.5041   25.2074 C   0  0  2  0  0  0  0  0  0  0  0  0
    7.2395  -13.9150   23.8806 N   0  0  0  0  0  0  0  0  0  0  0  0
    8.5021  -14.5876   25.8245 C   0  0  0  0  0  0  0  0  0  0  0  0
    8.2771  -15.8089   25.5090 O   0  0  0  0  0  0  0  0  0  0  0  0
    9.5384  -14.3645   26.7773 N   0  0  0  0  0  0  0  0  0  0  0  0
    9.9813  -13.1102   27.3159 C   0  0  0  0  0  0  0  0  0  0  0  0
   10.2167  -13.4661   28.7937 C   0  0  0  0  0  0  0  0  0  0  0  0
   11.0668  -14.7191   28.5602 C   0  0  0  0  0  0  0  0  0  0  0  0
   10.3577  -15.4156   27.3977 C   0  0  1  0  0  0  0  0  0  0  0  0
    9.4681  -16.4847   27.9295 C   0  0  0  0  0  0  0  0  0  0  0  0
    9.9841  -17.6713   28.3870 O   0  0  0  0  0  0  0  0  0  0  0  0
    8.2318  -16.2918   27.9547 O   0  0  0  0  0  0  0  0  0  0  0  0
  2  1  1  6
  2 10  1  0
  3  2  1  0
  4  5  2  0
  4  3  1  0
  6  5  1  0
  7  6  2  0
  8  7  1  0
  8  9  2  0
  9  4  1  0
 10 15  1  0
 10 11  2  0
 13 12  1  0
 14 13  1  1
 15 14  1  0
 16 14  1  0
 16 17  2  0
 18 16  1  0
 19 18  1  0
 20 19  1  0
 20 21  1  0
 21 22  1  0
 22 18  1  0
 22 23  1  1
 24 23  1  0
 25 23  2  0
M  END
$$$$
