FSP.pdb
     RDKit          3D

 25 26  0  0  1  0  0  0  0  0999 V2000
    5.9158  -16.2493   25.2571 N   0  0  0  0  0  0  0  0  0  0  0  0
    7.2016  -15.6427   25.1176 C   0  0  1  0  0  0  0  0  0  0  0  0
    7.4021  -14.6550   26.2387 C   0  0  0  0  0  0  0  0  0  0  0  0
    6.7934  -13.3766   25.8280 C   0  0  0  0  0  0  0  0  0  0  0  0
    5.5888  -12.9600   26.3336 C   0  0  0  0  0  0  0  0  0  0  0  0
    5.0131  -11.7450   25.9414 C   0  0  0  0  0  0  0  0  0  0  0  0
    5.6784  -10.9502   25.0227 C   0  0  0  0  0  0  0  0  0  0  0  0
    6.8905  -11.3629   24.5099 C   0  0  0  0  0  0  0  0  0  0  0  0
    7.4439  -12.5825   24.9192 C   0  0  0  0  0  0  0  0  0  0  0  0
    8.3027  -16.6246   25.0091 C   0  0  0  0  0  0  0  0  0  0  0  0
    8.0788  -17.8044   25.3823 O   0  0  0  0  0  0  0  0  0  0  0  0
   11.8096  -15.6210   23.1401 O   0  0  0  0  0  0  0  0  0  0  0  0
   11.5927  -16.9866   23.3243 C   0  0  0  0  0  0  0  0  0  0  0  0
   10.7135  -17.2459   24.5345 C   0  0  2  0  0  0  0  0  0  0  0  0
    9.5902  -16.3039   24.5085 N   0  0  0  0  0  0  0  0  0  0  0  0
   11.4548  -17.1185   25.8066 C   0  0  0  0  0  0  0  0  0  0  0  0
   12.4436  -17.8946   26.0550 O   0  0  0  0  0  0  0  0  0  0  0  0
   11.1401  -16.1587   26.8123 N   0  0  0  0  0  0  0  0  0  0  0  0
   10.1520  -15.1195   26.7562 C   0  0  0  0  0  0  0  0  0  0  0  0
    9.5667  -15.1626   28.1781 C   0  0  0  0  0  0  0  0  0  0  0  0
   10.8964  -15.1283   28.9382 C   0  0  0  0  0  0  0  0  0  0  0  0
   11.7916  -16.0663   28.1268 C   0  0  1  0  0  0  0  0  0  0  0  0
   11.8067  -17.4114   28.7652 C   0  0  0  0  0  0  0  0  0  0  0  0
   10.9064  -18.3794   28.3964 O   0  0  0  0  0  0  0  0  0  0  0  0
   12.6552  -17.6551   29.6524 O   0  0  0  0  0  0  0  0  0  0  0  0
  2  1  1  1
  2 10  1  0
  3  2  1  0
  4  5  2  0
  4  3  1  0
  6  5  1  0
  7  6  2  0
  8  7  1  0
  8  9  2  0
  9  4  1  0
 10 15  1  0
 10 11  2  0
 13 12  1  0
 14 13  1  6
 15 14  1  0
 16 14  1  0
 16 17  2  0
 18 16  1  0
 19 18  1  0
 20 19  1  0
 20 21  1  0
 21 22  1  0
 22 18  1  0
 22 23  1  1
 24 23  1  0
 25 23  2  0
M  END
$$$$
