FSP.pdb
     RDKit          3D

 25 26  0  0  1  0  0  0  0  0999 V2000
    6.7891  -18.0841   20.6074 N   0  0  0  0  0  0  0  0  0  0  0  0
    7.1366  -16.8047   21.1396 C   0  0  1  0  0  0  0  0  0  0  0  0
    6.4241  -15.7356   20.3510 C   0  0  0  0  0  0  0  0  0  0  0  0
    7.0140  -14.4353   20.7185 C   0  0  0  0  0  0  0  0  0  0  0  0
    7.9698  -13.8350   19.9398 C   0  0  0  0  0  0  0  0  0  0  0  0
    8.5283  -12.5998   20.2916 C   0  0  0  0  0  0  0  0  0  0  0  0
    8.1030  -11.9746   21.4520 C   0  0  0  0  0  0  0  0  0  0  0  0
    7.1419  -12.5726   22.2401 C   0  0  0  0  0  0  0  0  0  0  0  0
    6.5999  -13.8082   21.8651 C   0  0  0  0  0  0  0  0  0  0  0  0
    6.9081  -16.6961   22.5972 C   0  0  0  0  0  0  0  0  0  0  0  0
    5.7369  -16.8624   23.0238 O   0  0  0  0  0  0  0  0  0  0  0  0
    7.1940  -18.1891   26.6534 O   0  0  0  0  0  0  0  0  0  0  0  0
    7.3366  -17.9829   25.2811 C   0  0  0  0  0  0  0  0  0  0  0  0
    7.7597  -16.5563   24.9800 C   0  0  2  0  0  0  0  0  0  0  0  0
    7.9374  -16.4156   23.5315 N   0  0  0  0  0  0  0  0  0  0  0  0
    9.0024  -16.1771   25.6842 C   0  0  0  0  0  0  0  0  0  0  0  0
   10.0283  -16.9431   25.6354 O   0  0  0  0  0  0  0  0  0  0  0  0
    9.1488  -14.9766   26.4386 N   0  0  0  0  0  0  0  0  0  0  0  0
    8.2243  -13.8835   26.5382 C   0  0  0  0  0  0  0  0  0  0  0  0
    8.3205  -13.5229   28.0304 C   0  0  0  0  0  0  0  0  0  0  0  0
    9.8483  -13.4469   28.1153 C   0  0  0  0  0  0  0  0  0  0  0  0
   10.3085  -14.6406   27.2769 C   0  0  1  0  0  0  0  0  0  0  0  0
   10.6163  -15.7873   28.1755 C   0  0  0  0  0  0  0  0  0  0  0  0
   11.8310  -15.8848   28.8068 O   0  0  0  0  0  0  0  0  0  0  0  0
    9.7496  -16.6729   28.3515 O   0  0  0  0  0  0  0  0  0  0  0  0
  2  1  1  6
  2 10  1  0
  3  2  1  0
  4  5  2  0
  4  3  1  0
  6  5  1  0
  7  6  2  0
  8  7  1  0
  8  9  2  0
  9  4  1  0
 10 15  1  0
 10 11  2  0
 13 12  1  0
 14 13  1  6
 15 14  1  0
 16 14  1  0
 16 17  2  0
 18 16  1  0
 19 18  1  0
 20 19  1  0
 20 21  1  0
 21 22  1  0
 22 18  1  0
 22 23  1  1
 24 23  1  0
 25 23  2  0
M  END
$$$$
