FSP.pdb
     RDKit          3D

 25 26  0  0  1  0  0  0  0  0999 V2000
    7.3272  -17.6932   26.0535 N   0  0  0  0  0  0  0  0  0  0  0  0
    7.2796  -16.2810   25.8426 C   0  0  1  0  0  0  0  0  0  0  0  0
    7.3793  -15.5826   27.1748 C   0  0  0  0  0  0  0  0  0  0  0  0
    7.2291  -14.1352   26.9378 C   0  0  0  0  0  0  0  0  0  0  0  0
    5.9995  -13.5664   26.7257 C   0  0  0  0  0  0  0  0  0  0  0  0
    5.8601  -12.1911   26.5008 C   0  0  0  0  0  0  0  0  0  0  0  0
    6.9913  -11.3920   26.4933 C   0  0  0  0  0  0  0  0  0  0  0  0
    8.2313  -11.9573   26.7059 C   0  0  0  0  0  0  0  0  0  0  0  0
    8.3426  -13.3355   26.9284 C   0  0  0  0  0  0  0  0  0  0  0  0
    8.2795  -15.8020   24.8632 C   0  0  0  0  0  0  0  0  0  0  0  0
    9.3930  -15.4139   25.3001 O   0  0  0  0  0  0  0  0  0  0  0  0
   11.2855  -15.8447   21.7485 O   0  0  0  0  0  0  0  0  0  0  0  0
   10.2957  -16.1898   22.6690 C   0  0  0  0  0  0  0  0  0  0  0  0
    9.0610  -15.3227   22.5005 C   0  0  2  0  0  0  0  0  0  0  0  0
    8.0465  -15.7589   23.4650 N   0  0  0  0  0  0  0  0  0  0  0  0
    8.5160  -15.3798   21.1281 C   0  0  0  0  0  0  0  0  0  0  0  0
    8.3160  -16.5119   20.5623 O   0  0  0  0  0  0  0  0  0  0  0  0
    8.1820  -14.2255   20.3615 N   0  0  0  0  0  0  0  0  0  0  0  0
    8.1907  -12.8552   20.7878 C   0  0  0  0  0  0  0  0  0  0  0  0
    8.7720  -12.1439   19.5540 C   0  0  0  0  0  0  0  0  0  0  0  0
    7.8472  -12.7770   18.5094 C   0  0  0  0  0  0  0  0  0  0  0  0
    7.7608  -14.2382   18.9532 C   0  0  1  0  0  0  0  0  0  0  0  0
    8.7201  -15.0544   18.1590 C   0  0  0  0  0  0  0  0  0  0  0  0
    8.3780  -15.5440   16.9233 O   0  0  0  0  0  0  0  0  0  0  0  0
    9.8532  -15.2950   18.6329 O   0  0  0  0  0  0  0  0  0  0  0  0
  2  1  1  1
  2 10  1  0
  3  2  1  0
  4  5  2  0
  4  3  1  0
  6  5  1  0
  7  6  2  0
  8  7  1  0
  8  9  2  0
  9  4  1  0
 10 15  1  0
 10 11  2  0
 13 12  1  0
 14 13  1  6
 15 14  1  0
 16 14  1  0
 16 17  2  0
 18 16  1  0
 19 18  1  0
 20 19  1  0
 20 21  1  0
 21 22  1  0
 22 18  1  0
 22 23  1  6
 24 23  1  0
 25 23  2  0
M  END
$$$$
