FSP.pdb
     RDKit          3D

 25 26  0  0  1  0  0  0  0  0999 V2000
    6.2198  -16.6533   25.4607 N   0  0  0  0  0  0  0  0  0  0  0  0
    7.2488  -15.7901   24.9739 C   0  0  1  0  0  0  0  0  0  0  0  0
    7.8876  -15.0818   26.1413 C   0  0  0  0  0  0  0  0  0  0  0  0
    7.1938  -13.7935   26.3219 C   0  0  0  0  0  0  0  0  0  0  0  0
    7.1854  -12.8386   25.3379 C   0  0  0  0  0  0  0  0  0  0  0  0
    6.5255  -11.6158   25.5125 C   0  0  0  0  0  0  0  0  0  0  0  0
    5.8683  -11.3698   26.7066 C   0  0  0  0  0  0  0  0  0  0  0  0
    5.8725  -12.3258   27.7009 C   0  0  0  0  0  0  0  0  0  0  0  0
    6.5403  -13.5403   27.5003 C   0  0  0  0  0  0  0  0  0  0  0  0
    8.2309  -16.4806   24.1096 C   0  0  0  0  0  0  0  0  0  0  0  0
    8.6437  -17.6112   24.4738 O   0  0  0  0  0  0  0  0  0  0  0  0
    8.7421  -16.1430   20.0137 O   0  0  0  0  0  0  0  0  0  0  0  0
    9.8857  -15.8833   20.7694 C   0  0  0  0  0  0  0  0  0  0  0  0
    9.8107  -16.5540   22.1293 C   0  0  2  0  0  0  0  0  0  0  0  0
    8.7271  -15.9346   22.8985 N   0  0  0  0  0  0  0  0  0  0  0  0
   11.0830  -16.4585   22.8750 C   0  0  0  0  0  0  0  0  0  0  0  0
   11.4861  -15.3252   23.3162 O   0  0  0  0  0  0  0  0  0  0  0  0
   11.9231  -17.5763   23.1513 N   0  0  0  0  0  0  0  0  0  0  0  0
   11.6243  -18.9674   22.9637 C   0  0  0  0  0  0  0  0  0  0  0  0
   12.9580  -19.5066   22.4191 C   0  0  0  0  0  0  0  0  0  0  0  0
   13.8677  -18.8970   23.4905 C   0  0  0  0  0  0  0  0  0  0  0  0
   13.2883  -17.4956   23.6903 C   0  0  1  0  0  0  0  0  0  0  0  0
   14.0762  -16.5158   22.8924 C   0  0  0  0  0  0  0  0  0  0  0  0
   15.1477  -15.8563   23.4407 O   0  0  0  0  0  0  0  0  0  0  0  0
   13.7492  -16.2942   21.7048 O   0  0  0  0  0  0  0  0  0  0  0  0
  2  1  1  1
  2 10  1  0
  3  2  1  0
  4  5  2  0
  4  3  1  0
  6  5  1  0
  7  6  2  0
  8  7  1  0
  8  9  2  0
  9  4  1  0
 10 15  1  0
 10 11  2  0
 13 12  1  0
 14 13  1  6
 15 14  1  0
 16 14  1  0
 16 17  2  0
 18 16  1  0
 19 18  1  0
 20 19  1  0
 20 21  1  0
 21 22  1  0
 22 18  1  0
 22 23  1  6
 24 23  1  0
 25 23  2  0
M  END
$$$$
