FSP.pdb
     RDKit          3D

 25 26  0  0  1  0  0  0  0  0999 V2000
    6.0979  -17.6891   26.2918 N   0  0  0  0  0  0  0  0  0  0  0  0
    6.6214  -16.4761   25.7481 C   0  0  1  0  0  0  0  0  0  0  0  0
    7.6367  -15.9072   26.7064 C   0  0  0  0  0  0  0  0  0  0  0  0
    7.4448  -14.4461   26.7519 C   0  0  0  0  0  0  0  0  0  0  0  0
    6.1937  -13.8854   26.7283 C   0  0  0  0  0  0  0  0  0  0  0  0
    6.0146  -12.4971   26.7717 C   0  0  0  0  0  0  0  0  0  0  0  0
    7.1283  -11.6764   26.8399 C   0  0  0  0  0  0  0  0  0  0  0  0
    8.3898  -12.2334   26.8641 C   0  0  0  0  0  0  0  0  0  0  0  0
    8.5406  -13.6250   26.8196 C   0  0  0  0  0  0  0  0  0  0  0  0
    7.1473  -16.6302   24.3740 C   0  0  0  0  0  0  0  0  0  0  0  0
    7.6272  -17.7462   24.0487 O   0  0  0  0  0  0  0  0  0  0  0  0
    8.0037  -14.5375   20.0069 O   0  0  0  0  0  0  0  0  0  0  0  0
    7.4579  -14.4624   21.2885 C   0  0  0  0  0  0  0  0  0  0  0  0
    7.7338  -15.7286   22.0792 C   0  0  2  0  0  0  0  0  0  0  0  0
    7.1374  -15.5890   23.4113 N   0  0  0  0  0  0  0  0  0  0  0  0
    9.1788  -16.0156   22.1964 C   0  0  0  0  0  0  0  0  0  0  0  0
    9.9215  -15.2831   22.9404 O   0  0  0  0  0  0  0  0  0  0  0  0
    9.8292  -17.0882   21.5195 N   0  0  0  0  0  0  0  0  0  0  0  0
    9.2263  -18.1175   20.7216 C   0  0  0  0  0  0  0  0  0  0  0  0
   10.2269  -18.2442   19.5602 C   0  0  0  0  0  0  0  0  0  0  0  0
   11.4973  -18.3624   20.4084 C   0  0  0  0  0  0  0  0  0  0  0  0
   11.2788  -17.3320   21.5175 C   0  0  1  0  0  0  0  0  0  0  0  0
   11.9903  -16.0712   21.1690 C   0  0  0  0  0  0  0  0  0  0  0  0
   13.2729  -15.8409   21.5995 O   0  0  0  0  0  0  0  0  0  0  0  0
   11.4025  -15.2122   20.4739 O   0  0  0  0  0  0  0  0  0  0  0  0
  2  1  1  1
  2 10  1  0
  3  2  1  0
  4  5  2  0
  4  3  1  0
  6  5  1  0
  7  6  2  0
  8  7  1  0
  8  9  2  0
  9  4  1  0
 10 15  1  0
 10 11  2  0
 13 12  1  0
 14 13  1  6
 15 14  1  0
 16 14  1  0
 16 17  2  0
 18 16  1  0
 19 18  1  0
 20 19  1  0
 20 21  1  0
 21 22  1  0
 22 18  1  0
 22 23  1  6
 24 23  1  0
 25 23  2  0
M  END
$$$$
