FSP.pdb
     RDKit          3D

 25 26  0  0  1  0  0  0  0  0999 V2000
    6.8394  -18.1127   21.0014 N   0  0  0  0  0  0  0  0  0  0  0  0
    7.1816  -16.7444   21.2286 C   0  0  1  0  0  0  0  0  0  0  0  0
    6.4827  -15.8875   20.2038 C   0  0  0  0  0  0  0  0  0  0  0  0
    7.0620  -14.5337   20.2772 C   0  0  0  0  0  0  0  0  0  0  0  0
    6.6318  -13.6182   21.2030 C   0  0  0  0  0  0  0  0  0  0  0  0
    7.1840  -12.3329   21.2701 C   0  0  0  0  0  0  0  0  0  0  0  0
    8.1860  -11.9832   20.3802 C   0  0  0  0  0  0  0  0  0  0  0  0
    8.6237  -12.8990   19.4463 C   0  0  0  0  0  0  0  0  0  0  0  0
    8.0543  -14.1777   19.4008 C   0  0  0  0  0  0  0  0  0  0  0  0
    6.9321  -16.3022   22.6180 C   0  0  0  0  0  0  0  0  0  0  0  0
    5.7441  -16.0673   22.9571 O   0  0  0  0  0  0  0  0  0  0  0  0
    7.2361  -18.0699   25.6658 O   0  0  0  0  0  0  0  0  0  0  0  0
    6.6761  -16.7998   25.5262 C   0  0  0  0  0  0  0  0  0  0  0  0
    7.6901  -15.8078   24.9853 C   0  0  2  0  0  0  0  0  0  0  0  0
    7.9592  -16.1311   23.5807 N   0  0  0  0  0  0  0  0  0  0  0  0
    8.9494  -15.8117   25.7586 C   0  0  0  0  0  0  0  0  0  0  0  0
    9.7720  -16.7873   25.6427 O   0  0  0  0  0  0  0  0  0  0  0  0
    9.3305  -14.7704   26.6541 N   0  0  0  0  0  0  0  0  0  0  0  0
    8.6659  -13.5185   26.8793 C   0  0  0  0  0  0  0  0  0  0  0  0
    8.7887  -13.3652   28.4049 C   0  0  0  0  0  0  0  0  0  0  0  0
   10.2922  -13.6409   28.5089 C   0  0  0  0  0  0  0  0  0  0  0  0
   10.5069  -14.8007   27.5350 C   0  0  1  0  0  0  0  0  0  0  0  0
   10.5247  -16.0841   28.2898 C   0  0  0  0  0  0  0  0  0  0  0  0
   11.6424  -16.4837   28.9789 O   0  0  0  0  0  0  0  0  0  0  0  0
    9.5017  -16.8051   28.2898 O   0  0  0  0  0  0  0  0  0  0  0  0
  2  1  1  1
  2 10  1  0
  3  2  1  0
  4  5  2  0
  4  3  1  0
  6  5  1  0
  7  6  2  0
  8  7  1  0
  8  9  2  0
  9  4  1  0
 10 15  1  0
 10 11  2  0
 13 12  1  0
 14 13  1  1
 15 14  1  0
 16 14  1  0
 16 17  2  0
 18 16  1  0
 19 18  1  0
 20 19  1  0
 20 21  1  0
 21 22  1  0
 22 18  1  0
 22 23  1  1
 24 23  1  0
 25 23  2  0
M  END
$$$$
