FSP.pdb
     RDKit          3D

 25 26  0  0  1  0  0  0  0  0999 V2000
    5.8267  -17.7529   26.2087 N   0  0  0  0  0  0  0  0  0  0  0  0
    6.4266  -16.5266   25.7877 C   0  0  1  0  0  0  0  0  0  0  0  0
    7.1576  -15.9124   26.9543 C   0  0  0  0  0  0  0  0  0  0  0  0
    7.1459  -14.4492   26.7743 C   0  0  0  0  0  0  0  0  0  0  0  0
    6.0003  -13.7145   26.9421 C   0  0  0  0  0  0  0  0  0  0  0  0
    5.9924  -12.3246   26.7703 C   0  0  0  0  0  0  0  0  0  0  0  0
    7.1695  -11.6823   26.4235 C   0  0  0  0  0  0  0  0  0  0  0  0
    8.3256  -12.4149   26.2531 C   0  0  0  0  0  0  0  0  0  0  0  0
    8.3058  -13.8039   26.4310 C   0  0  0  0  0  0  0  0  0  0  0  0
    7.2769  -16.6738   24.5862 C   0  0  0  0  0  0  0  0  0  0  0  0
    8.0352  -17.6748   24.5202 O   0  0  0  0  0  0  0  0  0  0  0  0
    8.6699  -14.8221   20.2479 O   0  0  0  0  0  0  0  0  0  0  0  0
    7.8255  -14.7788   21.3575 C   0  0  0  0  0  0  0  0  0  0  0  0
    8.1571  -15.8833   22.3449 C   0  0  2  0  0  0  0  0  0  0  0  0
    7.2796  -15.7482   23.5117 N   0  0  0  0  0  0  0  0  0  0  0  0
    9.5731  -15.8544   22.7672 C   0  0  0  0  0  0  0  0  0  0  0  0
   10.0413  -14.8295   23.3771 O   0  0  0  0  0  0  0  0  0  0  0  0
   10.4879  -16.9235   22.5394 N   0  0  0  0  0  0  0  0  0  0  0  0
   10.1931  -18.2464   22.0678 C   0  0  0  0  0  0  0  0  0  0  0  0
   11.3666  -18.5090   21.1087 C   0  0  0  0  0  0  0  0  0  0  0  0
   12.4940  -18.1020   22.0628 C   0  0  0  0  0  0  0  0  0  0  0  0
   11.9408  -16.8530   22.7510 C   0  0  1  0  0  0  0  0  0  0  0  0
   12.4786  -15.6381   22.0786 C   0  0  0  0  0  0  0  0  0  0  0  0
   13.7058  -15.1264   22.4188 O   0  0  0  0  0  0  0  0  0  0  0  0
   11.7945  -15.0795   21.1918 O   0  0  0  0  0  0  0  0  0  0  0  0
  2  1  1  1
  2 10  1  0
  3  2  1  0
  4  5  2  0
  4  3  1  0
  6  5  1  0
  7  6  2  0
  8  7  1  0
  8  9  2  0
  9  4  1  0
 10 15  1  0
 10 11  2  0
 13 12  1  0
 14 13  1  6
 15 14  1  0
 16 14  1  0
 16 17  2  0
 18 16  1  0
 19 18  1  0
 20 19  1  0
 20 21  1  0
 21 22  1  0
 22 18  1  0
 22 23  1  6
 24 23  1  0
 25 23  2  0
M  END
$$$$
