FSP.pdb
     RDKit          3D

 25 26  0  0  1  0  0  0  0  0999 V2000
    8.2836  -18.3982   20.2983 N   0  0  0  0  0  0  0  0  0  0  0  0
    8.2676  -16.9937   20.5596 C   0  0  1  0  0  0  0  0  0  0  0  0
    7.8016  -16.2700   19.3220 C   0  0  0  0  0  0  0  0  0  0  0  0
    7.8764  -14.8223   19.5909 C   0  0  0  0  0  0  0  0  0  0  0  0
    9.0290  -14.1111   19.3764 C   0  0  0  0  0  0  0  0  0  0  0  0
    9.0969  -12.7359   19.6329 C   0  0  0  0  0  0  0  0  0  0  0  0
    7.9732  -12.0843   20.1134 C   0  0  0  0  0  0  0  0  0  0  0  0
    6.8104  -12.7933   20.3315 C   0  0  0  0  0  0  0  0  0  0  0  0
    6.7696  -14.1679   20.0667 C   0  0  0  0  0  0  0  0  0  0  0  0
    7.4923  -16.6322   21.7664 C   0  0  0  0  0  0  0  0  0  0  0  0
    6.2544  -16.8540   21.7596 O   0  0  0  0  0  0  0  0  0  0  0  0
    7.8059  -17.9456   25.1768 O   0  0  0  0  0  0  0  0  0  0  0  0
    6.7836  -17.1499   24.6594 C   0  0  0  0  0  0  0  0  0  0  0  0
    7.3200  -15.8200   24.1609 C   0  0  2  0  0  0  0  0  0  0  0  0
    8.0714  -16.0517   22.9234 N   0  0  0  0  0  0  0  0  0  0  0  0
    8.1786  -15.1494   25.1594 C   0  0  0  0  0  0  0  0  0  0  0  0
    9.3469  -15.6091   25.4152 O   0  0  0  0  0  0  0  0  0  0  0  0
    7.7885  -13.9848   25.8827 N   0  0  0  0  0  0  0  0  0  0  0  0
    6.5365  -13.2866   25.8142 C   0  0  0  0  0  0  0  0  0  0  0  0
    6.2884  -12.9367   27.2914 C   0  0  0  0  0  0  0  0  0  0  0  0
    7.6652  -12.3312   27.5830 C   0  0  0  0  0  0  0  0  0  0  0  0
    8.6268  -13.2756   26.8600 C   0  0  1  0  0  0  0  0  0  0  0  0
    9.1847  -14.2547   27.8334 C   0  0  0  0  0  0  0  0  0  0  0  0
   10.2467  -13.9251   28.6379 O   0  0  0  0  0  0  0  0  0  0  0  0
    8.6732  -15.3942   27.9122 O   0  0  0  0  0  0  0  0  0  0  0  0
  2  1  1  6
  2 10  1  0
  3  2  1  0
  4  5  2  0
  4  3  1  0
  6  5  1  0
  7  6  2  0
  8  7  1  0
  8  9  2  0
  9  4  1  0
 10 15  1  0
 10 11  2  0
 13 12  1  0
 14 13  1  1
 15 14  1  0
 16 14  1  0
 16 17  2  0
 18 16  1  0
 19 18  1  0
 20 19  1  0
 20 21  1  0
 21 22  1  0
 22 18  1  0
 22 23  1  1
 24 23  1  0
 25 23  2  0
M  END
$$$$
