FSP.pdb
     RDKit          3D

 25 26  0  0  1  0  0  0  0  0999 V2000
    5.9732  -17.8009   25.9540 N   0  0  0  0  0  0  0  0  0  0  0  0
    6.4758  -16.5121   25.5970 C   0  0  1  0  0  0  0  0  0  0  0  0
    7.2207  -15.9333   26.7729 C   0  0  0  0  0  0  0  0  0  0  0  0
    6.9454  -14.4854   26.8129 C   0  0  0  0  0  0  0  0  0  0  0  0
    7.9476  -13.5601   26.6726 C   0  0  0  0  0  0  0  0  0  0  0  0
    7.6829  -12.1854   26.7111 C   0  0  0  0  0  0  0  0  0  0  0  0
    6.3792  -11.7556   26.8951 C   0  0  0  0  0  0  0  0  0  0  0  0
    5.3660  -12.6807   27.0369 C   0  0  0  0  0  0  0  0  0  0  0  0
    5.6583  -14.0497   26.9945 C   0  0  0  0  0  0  0  0  0  0  0  0
    7.2771  -16.5209   24.3535 C   0  0  0  0  0  0  0  0  0  0  0  0
    8.1260  -17.4370   24.2062 O   0  0  0  0  0  0  0  0  0  0  0  0
    8.1856  -14.4136   20.0046 O   0  0  0  0  0  0  0  0  0  0  0  0
    7.6207  -14.3486   21.2785 C   0  0  0  0  0  0  0  0  0  0  0  0
    7.8599  -15.6324   22.0527 C   0  0  2  0  0  0  0  0  0  0  0  0
    7.1366  -15.5540   23.3257 N   0  0  0  0  0  0  0  0  0  0  0  0
    9.2956  -15.8828   22.2979 C   0  0  0  0  0  0  0  0  0  0  0  0
    9.9826  -15.0557   22.9946 O   0  0  0  0  0  0  0  0  0  0  0  0
    9.9960  -17.0199   21.7998 N   0  0  0  0  0  0  0  0  0  0  0  0
    9.4493  -18.1618   21.1242 C   0  0  0  0  0  0  0  0  0  0  0  0
   10.5029  -18.4181   20.0331 C   0  0  0  0  0  0  0  0  0  0  0  0
   11.7362  -18.3893   20.9415 C   0  0  0  0  0  0  0  0  0  0  0  0
   11.4487  -17.2252   21.8909 C   0  0  1  0  0  0  0  0  0  0  0  0
   12.1505  -16.0051   21.4050 C   0  0  0  0  0  0  0  0  0  0  0  0
   13.4038  -15.6813   21.8612 O   0  0  0  0  0  0  0  0  0  0  0  0
   11.5817  -15.2675   20.5690 O   0  0  0  0  0  0  0  0  0  0  0  0
  2  1  1  1
  2 10  1  0
  3  2  1  0
  4  5  2  0
  4  3  1  0
  6  5  1  0
  7  6  2  0
  8  7  1  0
  8  9  2  0
  9  4  1  0
 10 15  1  0
 10 11  2  0
 13 12  1  0
 14 13  1  1
 15 14  1  0
 16 14  1  0
 16 17  2  0
 18 16  1  0
 19 18  1  0
 20 19  1  0
 20 21  1  0
 21 22  1  0
 22 18  1  0
 22 23  1  6
 24 23  1  0
 25 23  2  0
M  END
$$$$
