KRE.pdb
     RDKit          3D

 30 29  0  0  1  0  0  0  0  0999 V2000
    9.6067  -13.9869   18.6185 N   0  0  0  0  0  0  0  0  0  0  0  0
   10.7087  -14.7793   19.1182 C   0  0  1  0  0  0  0  0  0  0  0  0
   11.8966  -13.8517   19.2942 C   0  0  0  0  0  0  0  0  0  0  0  0
   13.1149  -14.6574   18.8988 C   0  0  0  0  0  0  0  0  0  0  0  0
   14.3747  -13.8407   18.8816 C   0  0  0  0  0  0  0  0  0  0  0  0
   15.5885  -14.6206   18.4998 C   0  0  0  0  0  0  0  0  0  0  0  0
   16.7196  -13.7057   18.4822 N   0  0  0  0  0  0  0  0  0  0  0  0
   10.3313  -15.4808   20.3543 C   0  0  0  0  0  0  0  0  0  0  0  0
    9.1504  -15.5574   20.7764 O   0  0  0  0  0  0  0  0  0  0  0  0
    9.4533  -19.3967   17.5152 N   0  0  0  0  0  0  0  0  0  0  0  0
   10.0853  -20.6149   17.8491 C   0  0  0  0  0  0  0  0  0  0  0  0
   10.3770  -21.4364   16.9033 N   0  0  0  0  0  0  0  0  0  0  0  0
   10.3840  -20.9040   19.2165 N   0  0  0  0  0  0  0  0  0  0  0  0
    9.8755  -20.1019   20.2831 C   0  0  0  0  0  0  0  0  0  0  0  0
   10.7888  -18.9382   20.6464 C   0  0  0  0  0  0  0  0  0  0  0  0
   10.2076  -18.0966   21.7225 C   0  0  0  0  0  0  0  0  0  0  0  0
   11.0637  -16.9966   22.2585 C   0  0  2  0  0  0  0  0  0  0  0  0
   11.3538  -16.1067   21.1153 N   0  0  0  0  0  0  0  0  0  0  0  0
   12.3529  -17.4018   22.8327 C   0  0  0  0  0  0  0  0  0  0  0  0
   13.0591  -18.2474   22.2264 O   0  0  0  0  0  0  0  0  0  0  0  0
   10.7786  -22.3556   17.1214 N   0  0  0  0  0  0  0  0  0  0  0  0
   12.8932  -16.9067   24.0474 C   0  0  2  0  0  0  0  0  0  0  0  0
   13.1924  -17.8142   25.1741 C   0  0  0  0  0  0  0  0  0  0  0  0
   11.9392  -18.1323   25.9177 C   0  0  0  0  0  0  0  0  0  0  0  0
   12.0724  -19.1200   27.0248 C   0  0  0  0  0  0  0  0  0  0  0  0
   10.8270  -19.4397   27.7395 O   0  0  0  0  0  0  0  0  0  0  0  0
    9.7436  -18.9674   27.3678 C   0  0  0  0  0  0  0  0  0  0  0  0
   13.8651  -19.0128   24.6355 O   0  0  0  0  0  0  0  0  0  0  0  0
   15.0871  -19.4723   25.0923 O   0  0  0  0  0  0  0  0  0  0  0  0
   10.8674  -20.2747   28.8356 O   0  0  0  0  0  0  0  0  0  0  0  0
  2  1  1  1
  3  4  1  0
  3  2  1  0
  4  5  1  0
  6  5  1  0
  7  6  1  0
  8  2  1  0
  8  9  2  0
 10 11  1  0
 11 13  1  0
 12 11  2  0
 13 14  1  0
 14 15  1  0
 16 15  1  0
 17 16  1  6
 17 18  1  0
 18  8  1  0
 19 20  2  0
 19 17  1  0
 21 19  1  0
 22 21  1  0
 22 23  1  6
 23 24  1  0
 24 25  1  0
 25 26  2  0
 25 29  1  0
 27 22  1  0
 28 27  1  0
 30 27  2  0
M  END
$$$$
