KRE.pdb
     RDKit          3D

 30 29  0  0  1  0  0  0  0  0999 V2000
    7.1484  -20.3872   21.3509 N   0  0  0  0  0  0  0  0  0  0  0  0
    7.9322  -19.9135   22.4704 C   0  0  1  0  0  0  0  0  0  0  0  0
    8.5087  -21.1288   23.1723 C   0  0  0  0  0  0  0  0  0  0  0  0
    9.3145  -20.5931   24.3357 C   0  0  0  0  0  0  0  0  0  0  0  0
    9.8792  -21.6797   25.2045 C   0  0  0  0  0  0  0  0  0  0  0  0
   10.8137  -21.1808   26.2557 C   0  0  0  0  0  0  0  0  0  0  0  0
   11.2576  -22.3246   27.0377 N   0  0  0  0  0  0  0  0  0  0  0  0
    8.9583  -18.9589   22.0247 C   0  0  0  0  0  0  0  0  0  0  0  0
    9.9841  -19.2924   21.3804 O   0  0  0  0  0  0  0  0  0  0  0  0
    8.7230  -14.1708   18.1884 N   0  0  0  0  0  0  0  0  0  0  0  0
    7.6584  -13.2567   18.3486 C   0  0  0  0  0  0  0  0  0  0  0  0
    7.3248  -12.5190   17.3491 N   0  0  0  0  0  0  0  0  0  0  0  0
    6.9820  -13.1733   19.6049 N   0  0  0  0  0  0  0  0  0  0  0  0
    7.6086  -13.5734   20.8243 C   0  0  0  0  0  0  0  0  0  0  0  0
    8.5020  -14.7970   20.6662 C   0  0  0  0  0  0  0  0  0  0  0  0
    9.0479  -15.2530   21.9693 C   0  0  0  0  0  0  0  0  0  0  0  0
    9.7805  -16.5543   21.9782 C   0  0  2  0  0  0  0  0  0  0  0  0
    8.7844  -17.5847   22.3374 N   0  0  0  0  0  0  0  0  0  0  0  0
   10.8877  -16.6666   22.9361 C   0  0  0  0  0  0  0  0  0  0  0  0
   10.6604  -16.5050   24.1624 O   0  0  0  0  0  0  0  0  0  0  0  0
    6.6505  -11.7549   17.4718 N   0  0  0  0  0  0  0  0  0  0  0  0
   12.2337  -16.9540   22.5925 C   0  0  1  0  0  0  0  0  0  0  0  0
   13.2993  -16.9479   23.6158 C   0  0  0  0  0  0  0  0  0  0  0  0
   13.7671  -18.3409   23.8713 C   0  0  0  0  0  0  0  0  0  0  0  0
   14.4936  -18.5583   25.1534 C   0  0  0  0  0  0  0  0  0  0  0  0
   14.9608  -19.9331   25.3897 O   0  0  0  0  0  0  0  0  0  0  0  0
   14.5301  -20.8747   24.7092 C   0  0  0  0  0  0  0  0  0  0  0  0
   14.3775  -16.0514   23.1542 O   0  0  0  0  0  0  0  0  0  0  0  0
   14.3838  -15.4411   21.9130 O   0  0  0  0  0  0  0  0  0  0  0  0
   15.8885  -20.1751   26.3801 O   0  0  0  0  0  0  0  0  0  0  0  0
  2  1  1  6
  3  4  1  0
  3  2  1  0
  4  5  1  0
  6  5  1  0
  7  6  1  0
  8  2  1  0
  8  9  2  0
 10 11  1  0
 11 13  1  0
 12 11  2  0
 13 14  1  0
 14 15  1  0
 16 15  1  0
 17 16  1  1
 17 18  1  0
 18  8  1  0
 19 20  2  0
 19 17  1  0
 21 19  1  0
 22 21  1  0
 22 23  1  1
 23 24  1  0
 24 25  1  0
 25 26  2  0
 25 29  1  0
 27 22  1  0
 28 27  1  0
 30 27  2  0
M  END
$$$$
