KRE.pdb
     RDKit          3D

 30 29  0  0  1  0  0  0  0  0999 V2000
   10.9256  -19.2841   17.8944 N   0  0  0  0  0  0  0  0  0  0  0  0
   12.3005  -19.0652   18.2867 C   0  0  1  0  0  0  0  0  0  0  0  0
   12.9999  -18.3687   17.1343 C   0  0  0  0  0  0  0  0  0  0  0  0
   12.3467  -18.8930   15.8741 C   0  0  0  0  0  0  0  0  0  0  0  0
   13.0312  -18.4237   14.6228 C   0  0  0  0  0  0  0  0  0  0  0  0
   12.4438  -18.9870   13.3719 C   0  0  0  0  0  0  0  0  0  0  0  0
   13.2610  -18.5399   12.2543 N   0  0  0  0  0  0  0  0  0  0  0  0
   12.3717  -18.3140   19.5489 C   0  0  0  0  0  0  0  0  0  0  0  0
   13.4505  -17.9556   20.0839 O   0  0  0  0  0  0  0  0  0  0  0  0
    6.1013  -12.9625   19.9430 N   0  0  0  0  0  0  0  0  0  0  0  0
    7.1196  -12.9305   18.9649 C   0  0  0  0  0  0  0  0  0  0  0  0
    6.9496  -12.1953   17.9232 N   0  0  0  0  0  0  0  0  0  0  0  0
    8.3043  -13.7074   19.1531 N   0  0  0  0  0  0  0  0  0  0  0  0
    8.4354  -14.6285   20.2366 C   0  0  0  0  0  0  0  0  0  0  0  0
    9.8048  -15.2928   20.2967 C   0  0  0  0  0  0  0  0  0  0  0  0
    9.8626  -16.3426   21.3449 C   0  0  0  0  0  0  0  0  0  0  0  0
   11.1172  -17.1486   21.4273 C   0  0  2  0  0  0  0  0  0  0  0  0
   11.1577  -17.9731   20.2019 N   0  0  0  0  0  0  0  0  0  0  0  0
   11.2244  -18.0631   22.5710 C   0  0  0  0  0  0  0  0  0  0  0  0
   10.6670  -19.1889   22.5142 O   0  0  0  0  0  0  0  0  0  0  0  0
    7.6482  -12.1938   17.1710 N   0  0  0  0  0  0  0  0  0  0  0  0
   11.9259  -17.7838   23.7720 C   0  0  1  0  0  0  0  0  0  0  0  0
   11.9625  -18.7623   24.8782 C   0  0  0  0  0  0  0  0  0  0  0  0
   13.3704  -19.1761   25.1450 C   0  0  0  0  0  0  0  0  0  0  0  0
   13.5656  -20.1300   26.2724 C   0  0  0  0  0  0  0  0  0  0  0  0
   14.9618  -20.4981   26.5539 O   0  0  0  0  0  0  0  0  0  0  0  0
   15.6811  -20.9807   25.6681 C   0  0  0  0  0  0  0  0  0  0  0  0
   11.3057  -18.1557   26.0530 O   0  0  0  0  0  0  0  0  0  0  0  0
   10.9117  -18.8780   27.1648 O   0  0  0  0  0  0  0  0  0  0  0  0
   15.4744  -20.3033   27.8186 O   0  0  0  0  0  0  0  0  0  0  0  0
  2  1  1  6
  3  4  1  0
  3  2  1  0
  4  5  1  0
  6  5  1  0
  7  6  1  0
  8  2  1  0
  8  9  2  0
 10 11  1  0
 11 13  1  0
 12 11  2  0
 13 14  1  0
 14 15  1  0
 16 15  1  0
 17 16  1  1
 17 18  1  0
 18  8  1  0
 19 20  2  0
 19 17  1  0
 21 19  1  0
 22 21  1  0
 22 23  1  6
 23 24  1  0
 24 25  1  0
 25 26  2  0
 25 29  1  0
 27 22  1  0
 28 27  1  0
 30 27  2  0
M  END
$$$$
