KRE.pdb
     RDKit          3D

 30 29  0  0  1  0  0  0  0  0999 V2000
    9.8589  -20.2424   17.9588 N   0  0  0  0  0  0  0  0  0  0  0  0
   10.9587  -19.4116   17.5203 C   0  0  1  0  0  0  0  0  0  0  0  0
   10.7056  -19.0455   16.0697 C   0  0  0  0  0  0  0  0  0  0  0  0
    9.3415  -18.3914   16.0384 C   0  0  0  0  0  0  0  0  0  0  0  0
    8.9348  -17.9545   14.6606 C   0  0  0  0  0  0  0  0  0  0  0  0
    7.5770  -17.3378   14.6045 C   0  0  0  0  0  0  0  0  0  0  0  0
    7.2600  -17.0826   13.2077 N   0  0  0  0  0  0  0  0  0  0  0  0
   11.1123  -18.2407   18.3967 C   0  0  0  0  0  0  0  0  0  0  0  0
   11.9578  -17.3324   18.2003 O   0  0  0  0  0  0  0  0  0  0  0  0
    7.9044  -11.5776   21.2669 N   0  0  0  0  0  0  0  0  0  0  0  0
    8.3757  -12.2528   20.1194 C   0  0  0  0  0  0  0  0  0  0  0  0
    8.9823  -11.5733   19.2112 N   0  0  0  0  0  0  0  0  0  0  0  0
    8.1705  -13.6617   19.9948 N   0  0  0  0  0  0  0  0  0  0  0  0
    7.6704  -14.4474   21.0774 C   0  0  0  0  0  0  0  0  0  0  0  0
    8.6970  -15.4266   21.6321 C   0  0  0  0  0  0  0  0  0  0  0  0
    8.9110  -16.5772   20.7187 C   0  0  0  0  0  0  0  0  0  0  0  0
   10.3249  -16.9821   20.4597 C   0  0  2  0  0  0  0  0  0  0  0  0
   10.2610  -18.1265   19.5275 N   0  0  0  0  0  0  0  0  0  0  0  0
   11.0979  -17.4167   21.6300 C   0  0  0  0  0  0  0  0  0  0  0  0
   10.8031  -18.5006   22.1955 O   0  0  0  0  0  0  0  0  0  0  0  0
    9.2857  -12.0264   18.3415 N   0  0  0  0  0  0  0  0  0  0  0  0
   12.1851  -16.7030   22.1968 C   0  0  2  0  0  0  0  0  0  0  0  0
   13.0048  -17.2932   23.2749 C   0  0  0  0  0  0  0  0  0  0  0  0
   14.4322  -16.8959   23.1040 C   0  0  0  0  0  0  0  0  0  0  0  0
   15.3808  -17.4229   24.1246 C   0  0  0  0  0  0  0  0  0  0  0  0
   16.7831  -17.0117   23.9558 O   0  0  0  0  0  0  0  0  0  0  0  0
   17.0849  -15.8141   23.8565 C   0  0  0  0  0  0  0  0  0  0  0  0
   12.4379  -16.8697   24.5705 O   0  0  0  0  0  0  0  0  0  0  0  0
   12.5866  -17.5911   25.7411 O   0  0  0  0  0  0  0  0  0  0  0  0
   17.7718  -17.9710   23.9078 O   0  0  0  0  0  0  0  0  0  0  0  0
  2  1  1  1
  3  4  1  0
  3  2  1  0
  4  5  1  0
  6  5  1  0
  7  6  1  0
  8  2  1  0
  8  9  2  0
 10 11  1  0
 11 13  1  0
 12 11  2  0
 13 14  1  0
 14 15  1  0
 16 15  1  0
 17 16  1  1
 17 18  1  0
 18  8  1  0
 19 20  2  0
 19 17  1  0
 21 19  1  0
 22 21  1  0
 22 23  1  6
 23 24  1  0
 24 25  1  0
 25 26  2  0
 25 29  1  0
 27 22  1  0
 28 27  1  0
 30 27  2  0
M  END
$$$$
