KRE.pdb
     RDKit          3D

 30 29  0  0  1  0  0  0  0  0999 V2000
    7.4220  -12.7739   15.9596 N   0  0  0  0  0  0  0  0  0  0  0  0
    7.6957  -14.0798   16.5178 C   0  0  1  0  0  0  0  0  0  0  0  0
    8.3986  -14.8962   15.4493 C   0  0  0  0  0  0  0  0  0  0  0  0
    7.3598  -15.1665   14.3827 C   0  0  0  0  0  0  0  0  0  0  0  0
    7.8994  -15.9643   13.2308 C   0  0  0  0  0  0  0  0  0  0  0  0
    6.9648  -16.0473   12.0702 C   0  0  0  0  0  0  0  0  0  0  0  0
    7.6265  -16.8029   11.0175 N   0  0  0  0  0  0  0  0  0  0  0  0
    8.4686  -13.9654   17.7637 C   0  0  0  0  0  0  0  0  0  0  0  0
    9.5978  -13.4191   17.8328 O   0  0  0  0  0  0  0  0  0  0  0  0
    9.4302  -15.1911   26.3289 N   0  0  0  0  0  0  0  0  0  0  0  0
    8.3081  -14.8240   25.5537 C   0  0  0  0  0  0  0  0  0  0  0  0
    8.0260  -13.5749   25.4320 N   0  0  0  0  0  0  0  0  0  0  0  0
    7.5197  -15.8385   24.9277 N   0  0  0  0  0  0  0  0  0  0  0  0
    7.0844  -15.7233   23.5724 C   0  0  0  0  0  0  0  0  0  0  0  0
    8.1708  -15.2122   22.6349 C   0  0  0  0  0  0  0  0  0  0  0  0
    7.6428  -14.9443   21.2735 C   0  0  0  0  0  0  0  0  0  0  0  0
    8.6183  -14.4576   20.2528 C   0  0  2  0  0  0  0  0  0  0  0  0
    7.9122  -14.5003   18.9557 N   0  0  0  0  0  0  0  0  0  0  0  0
    9.8477  -15.2467   20.1052 C   0  0  0  0  0  0  0  0  0  0  0  0
    9.8117  -16.3306   19.4685 O   0  0  0  0  0  0  0  0  0  0  0  0
    7.2748  -13.2729   24.8011 N   0  0  0  0  0  0  0  0  0  0  0  0
   11.1147  -14.8833   20.6300 C   0  0  2  0  0  0  0  0  0  0  0  0
   12.3243  -15.6707   20.3148 C   0  0  0  0  0  0  0  0  0  0  0  0
   13.2974  -14.8285   19.5611 C   0  0  0  0  0  0  0  0  0  0  0  0
   14.6293  -15.4446   19.3048 C   0  0  0  0  0  0  0  0  0  0  0  0
   15.5880  -14.5977   18.5782 O   0  0  0  0  0  0  0  0  0  0  0  0
   15.5940  -13.3687   18.7352 C   0  0  0  0  0  0  0  0  0  0  0  0
   12.8741  -16.1983   21.5792 O   0  0  0  0  0  0  0  0  0  0  0  0
   12.3049  -15.9606   22.8172 O   0  0  0  0  0  0  0  0  0  0  0  0
   16.4895  -15.1797   17.7130 O   0  0  0  0  0  0  0  0  0  0  0  0
  2  1  1  6
  3  4  1  0
  3  2  1  0
  4  5  1  0
  6  5  1  0
  7  6  1  0
  8  2  1  0
  8  9  2  0
 10 11  1  0
 11 13  1  0
 12 11  2  0
 13 14  1  0
 14 15  1  0
 16 15  1  0
 17 16  1  1
 17 18  1  0
 18  8  1  0
 19 20  2  0
 19 17  1  0
 21 19  1  0
 22 21  1  0
 22 23  1  6
 23 24  1  0
 24 25  1  0
 25 26  2  0
 25 29  1  0
 27 22  1  0
 28 27  1  0
 30 27  2  0
M  END
$$$$
