KRE.pdb
     RDKit          3D

 30 29  0  0  1  0  0  0  0  0999 V2000
   11.7708  -20.2702   17.9835 N   0  0  0  0  0  0  0  0  0  0  0  0
   10.8615  -19.7391   18.9750 C   0  0  1  0  0  0  0  0  0  0  0  0
   10.1338  -20.9126   19.6039 C   0  0  0  0  0  0  0  0  0  0  0  0
    9.5528  -21.7057   18.4535 C   0  0  0  0  0  0  0  0  0  0  0  0
    8.0887  -21.9927   18.6227 C   0  0  0  0  0  0  0  0  0  0  0  0
    7.5360  -22.9151   17.5877 C   0  0  0  0  0  0  0  0  0  0  0  0
    6.1453  -23.1802   17.9230 N   0  0  0  0  0  0  0  0  0  0  0  0
   11.5803  -18.9093   19.9536 C   0  0  0  0  0  0  0  0  0  0  0  0
   12.7483  -19.1536   20.3465 O   0  0  0  0  0  0  0  0  0  0  0  0
    6.5890  -12.1491   20.2706 N   0  0  0  0  0  0  0  0  0  0  0  0
    7.5601  -13.0175   19.7252 C   0  0  0  0  0  0  0  0  0  0  0  0
    7.2358  -13.7484   18.7176 N   0  0  0  0  0  0  0  0  0  0  0  0
    8.8683  -13.0636   20.2988 N   0  0  0  0  0  0  0  0  0  0  0  0
    9.8935  -13.9037   19.7670 C   0  0  0  0  0  0  0  0  0  0  0  0
    9.9350  -15.2821   20.4141 C   0  0  0  0  0  0  0  0  0  0  0  0
   11.2036  -15.5067   21.1518 C   0  0  0  0  0  0  0  0  0  0  0  0
   11.5274  -16.9151   21.5285 C   0  0  2  0  0  0  0  0  0  0  0  0
   10.9220  -17.7693   20.4861 N   0  0  0  0  0  0  0  0  0  0  0  0
   11.0081  -17.3740   22.8230 C   0  0  0  0  0  0  0  0  0  0  0  0
    9.8445  -17.8464   22.8878 O   0  0  0  0  0  0  0  0  0  0  0  0
    7.9068  -14.4208   18.3284 N   0  0  0  0  0  0  0  0  0  0  0  0
   11.7251  -17.3348   24.0465 C   0  0  1  0  0  0  0  0  0  0  0  0
   11.5960  -18.4200   25.0405 C   0  0  0  0  0  0  0  0  0  0  0  0
   12.2885  -19.6458   24.5482 C   0  0  0  0  0  0  0  0  0  0  0  0
   12.3517  -20.7860   25.5048 C   0  0  0  0  0  0  0  0  0  0  0  0
   13.0981  -21.9637   25.0358 O   0  0  0  0  0  0  0  0  0  0  0  0
   13.5951  -21.9886   23.9011 C   0  0  0  0  0  0  0  0  0  0  0  0
   12.1289  -17.9326   26.3280 O   0  0  0  0  0  0  0  0  0  0  0  0
   13.0427  -16.8997   26.4340 O   0  0  0  0  0  0  0  0  0  0  0  0
   13.2455  -23.0514   25.8696 O   0  0  0  0  0  0  0  0  0  0  0  0
  2  1  1  6
  3  4  1  0
  3  2  1  0
  4  5  1  0
  6  5  1  0
  7  6  1  0
  8  2  1  0
  8  9  2  0
 10 11  1  0
 11 13  1  0
 12 11  2  0
 13 14  1  0
 14 15  1  0
 16 15  1  0
 17 16  1  6
 17 18  1  0
 18  8  1  0
 19 20  2  0
 19 17  1  0
 21 19  1  0
 22 21  1  0
 22 23  1  1
 23 24  1  0
 24 25  1  0
 25 26  2  0
 25 29  1  0
 27 22  1  0
 28 27  1  0
 30 27  2  0
M  END
$$$$
