KRE.pdb
     RDKit          3D

 30 29  0  0  1  0  0  0  0  0999 V2000
    9.1977  -20.0882   23.5219 N   0  0  0  0  0  0  0  0  0  0  0  0
   10.4806  -19.4249   23.4433 C   0  0  1  0  0  0  0  0  0  0  0  0
   11.4869  -20.2852   24.1846 C   0  0  0  0  0  0  0  0  0  0  0  0
   11.3159  -19.9538   25.6512 C   0  0  0  0  0  0  0  0  0  0  0  0
   12.1928  -20.7841   26.5435 C   0  0  0  0  0  0  0  0  0  0  0  0
   12.0260  -20.4822   27.9956 C   0  0  0  0  0  0  0  0  0  0  0  0
   12.8653  -21.4064   28.7428 N   0  0  0  0  0  0  0  0  0  0  0  0
   10.8535  -19.1701   22.0438 C   0  0  0  0  0  0  0  0  0  0  0  0
   11.3229  -20.0494   21.2790 O   0  0  0  0  0  0  0  0  0  0  0  0
    7.3081  -13.0808   20.5415 N   0  0  0  0  0  0  0  0  0  0  0  0
    8.0104  -12.6273   19.4032 C   0  0  0  0  0  0  0  0  0  0  0  0
    8.2214  -11.3652   19.2726 N   0  0  0  0  0  0  0  0  0  0  0  0
    8.4668  -13.5715   18.4323 N   0  0  0  0  0  0  0  0  0  0  0  0
    8.4932  -14.9738   18.7015 C   0  0  0  0  0  0  0  0  0  0  0  0
    9.8117  -15.4445   19.3018 C   0  0  0  0  0  0  0  0  0  0  0  0
    9.8253  -16.9130   19.5191 C   0  0  0  0  0  0  0  0  0  0  0  0
   11.0513  -17.4936   20.1437 C   0  0  2  0  0  0  0  0  0  0  0  0
   10.6752  -17.8605   21.5245 N   0  0  0  0  0  0  0  0  0  0  0  0
   12.2158  -16.6035   20.2316 C   0  0  0  0  0  0  0  0  0  0  0  0
   12.2845  -15.7695   21.1703 O   0  0  0  0  0  0  0  0  0  0  0  0
    8.6987  -11.0036   18.4388 N   0  0  0  0  0  0  0  0  0  0  0  0
   13.3078  -16.6018   19.3260 C   0  0  1  0  0  0  0  0  0  0  0  0
   14.4890  -15.7455   19.5583 C   0  0  0  0  0  0  0  0  0  0  0  0
   15.7376  -16.5394   19.3706 C   0  0  0  0  0  0  0  0  0  0  0  0
   16.4560  -16.9266   20.6168 C   0  0  0  0  0  0  0  0  0  0  0  0
   17.6435  -17.7734   20.4244 O   0  0  0  0  0  0  0  0  0  0  0  0
   18.5429  -17.8066   21.2759 C   0  0  0  0  0  0  0  0  0  0  0  0
   14.4015  -14.5827   18.6530 O   0  0  0  0  0  0  0  0  0  0  0  0
   15.1115  -13.4112   18.8444 O   0  0  0  0  0  0  0  0  0  0  0  0
   17.7554  -18.5383   19.2831 O   0  0  0  0  0  0  0  0  0  0  0  0
  2  1  1  6
  3  4  1  0
  3  2  1  0
  4  5  1  0
  6  5  1  0
  7  6  1  0
  8  2  1  0
  8  9  2  0
 10 11  1  0
 11 13  1  0
 12 11  2  0
 13 14  1  0
 14 15  1  0
 16 15  1  0
 17 16  1  1
 17 18  1  0
 18  8  1  0
 19 20  2  0
 19 17  1  0
 21 19  1  0
 22 21  1  0
 22 23  1  6
 23 24  1  0
 24 25  1  0
 25 26  2  0
 25 29  1  0
 27 22  1  0
 28 27  1  0
 30 27  2  0
M  END
$$$$
