KRE.pdb
     RDKit          3D

 30 29  0  0  1  0  0  0  0  0999 V2000
   16.4674  -18.8267   15.7622 N   0  0  0  0  0  0  0  0  0  0  0  0
   16.4920  -19.4366   17.0734 C   0  0  1  0  0  0  0  0  0  0  0  0
   17.7131  -20.3349   17.1375 C   0  0  0  0  0  0  0  0  0  0  0  0
   17.2451  -21.7042   16.6949 C   0  0  0  0  0  0  0  0  0  0  0  0
   18.3028  -22.7594   16.8442 C   0  0  0  0  0  0  0  0  0  0  0  0
   17.8554  -24.1194   16.4228 C   0  0  0  0  0  0  0  0  0  0  0  0
   19.0018  -25.0115   16.5042 N   0  0  0  0  0  0  0  0  0  0  0  0
   16.4685  -18.4121   18.1282 C   0  0  0  0  0  0  0  0  0  0  0  0
   16.9645  -17.2656   17.9939 O   0  0  0  0  0  0  0  0  0  0  0  0
    9.9768  -18.0862   24.0032 N   0  0  0  0  0  0  0  0  0  0  0  0
   10.7044  -16.9081   24.2811 C   0  0  0  0  0  0  0  0  0  0  0  0
   10.1768  -16.0270   25.0556 N   0  0  0  0  0  0  0  0  0  0  0  0
   11.9980  -16.7238   23.7020 N   0  0  0  0  0  0  0  0  0  0  0  0
   12.4906  -17.5829   22.6731 C   0  0  0  0  0  0  0  0  0  0  0  0
   13.8655  -17.1757   22.1590 C   0  0  0  0  0  0  0  0  0  0  0  0
   14.3208  -18.0513   21.0500 C   0  0  0  0  0  0  0  0  0  0  0  0
   15.6427  -17.7307   20.4333 C   0  0  2  0  0  0  0  0  0  0  0  0
   15.8530  -18.7318   19.3673 N   0  0  0  0  0  0  0  0  0  0  0  0
   16.8060  -17.7955   21.3270 C   0  0  0  0  0  0  0  0  0  0  0  0
   17.1986  -18.9138   21.7473 O   0  0  0  0  0  0  0  0  0  0  0  0
   10.6861  -15.1649   25.2817 N   0  0  0  0  0  0  0  0  0  0  0  0
   17.5536  -16.6745   21.7706 C   0  0  2  0  0  0  0  0  0  0  0  0
   18.7240  -16.8414   22.6564 C   0  0  0  0  0  0  0  0  0  0  0  0
   19.9637  -16.4100   21.9482 C   0  0  0  0  0  0  0  0  0  0  0  0
   20.3822  -14.9978   22.1706 C   0  0  0  0  0  0  0  0  0  0  0  0
   21.5129  -14.5371   21.3500 O   0  0  0  0  0  0  0  0  0  0  0  0
   22.2979  -13.6789   21.7770 C   0  0  0  0  0  0  0  0  0  0  0  0
   18.4746  -16.0838   23.8987 O   0  0  0  0  0  0  0  0  0  0  0  0
   19.2660  -16.1879   25.0282 O   0  0  0  0  0  0  0  0  0  0  0  0
   21.7000  -15.0673   20.0914 O   0  0  0  0  0  0  0  0  0  0  0  0
  2  1  1  6
  3  4  1  0
  3  2  1  0
  4  5  1  0
  6  5  1  0
  7  6  1  0
  8  2  1  0
  8  9  2  0
 10 11  1  0
 11 13  1  0
 12 11  2  0
 13 14  1  0
 14 15  1  0
 16 15  1  0
 17 16  1  1
 17 18  1  0
 18  8  1  0
 19 20  2  0
 19 17  1  0
 21 19  1  0
 22 21  1  0
 22 23  1  6
 23 24  1  0
 24 25  1  0
 25 26  2  0
 25 29  1  0
 27 22  1  0
 28 27  1  0
 30 27  2  0
M  END
$$$$
