KRE.pdb
     RDKit          3D

 30 29  0  0  1  0  0  0  0  0999 V2000
   11.1400  -19.3501   17.6827 N   0  0  0  0  0  0  0  0  0  0  0  0
   10.4703  -19.5312   18.9519 C   0  0  1  0  0  0  0  0  0  0  0  0
   11.0355  -20.7850   19.5928 C   0  0  0  0  0  0  0  0  0  0  0  0
   10.8081  -21.9000   18.5953 C   0  0  0  0  0  0  0  0  0  0  0  0
    9.3739  -22.3395   18.5277 C   0  0  0  0  0  0  0  0  0  0  0  0
    9.1544  -23.5354   17.6623 C   0  0  0  0  0  0  0  0  0  0  0  0
    9.6195  -24.7054   18.3915 N   0  0  0  0  0  0  0  0  0  0  0  0
   10.6116  -18.3340   19.7942 C   0  0  0  0  0  0  0  0  0  0  0  0
   11.7015  -17.7349   19.9723 O   0  0  0  0  0  0  0  0  0  0  0  0
    8.0261  -14.2726   18.2728 N   0  0  0  0  0  0  0  0  0  0  0  0
    7.8422  -13.2934   19.2739 C   0  0  0  0  0  0  0  0  0  0  0  0
    8.2364  -12.0917   19.0393 N   0  0  0  0  0  0  0  0  0  0  0  0
    7.2278  -13.6561   20.5122 N   0  0  0  0  0  0  0  0  0  0  0  0
    7.9716  -13.7230   21.7296 C   0  0  0  0  0  0  0  0  0  0  0  0
    7.8468  -15.0671   22.4355 C   0  0  0  0  0  0  0  0  0  0  0  0
    8.0871  -16.2012   21.5081 C   0  0  0  0  0  0  0  0  0  0  0  0
    9.5006  -16.6550   21.3455 C   0  0  2  0  0  0  0  0  0  0  0  0
    9.4561  -17.8242   20.4434 N   0  0  0  0  0  0  0  0  0  0  0  0
   10.1893  -17.0772   22.5716 C   0  0  0  0  0  0  0  0  0  0  0  0
    9.7131  -18.0217   23.2519 O   0  0  0  0  0  0  0  0  0  0  0  0
    8.1688  -11.3729   19.7690 N   0  0  0  0  0  0  0  0  0  0  0  0
   11.3842  -16.4997   23.0727 C   0  0  2  0  0  0  0  0  0  0  0  0
   11.9881  -16.9728   24.3352 C   0  0  0  0  0  0  0  0  0  0  0  0
   13.3599  -16.4072   24.4863 C   0  0  0  0  0  0  0  0  0  0  0  0
   14.3421  -16.7929   23.4349 C   0  0  0  0  0  0  0  0  0  0  0  0
   15.6716  -16.1746   23.5548 O   0  0  0  0  0  0  0  0  0  0  0  0
   16.4813  -16.5722   24.4040 C   0  0  0  0  0  0  0  0  0  0  0  0
   11.0859  -16.6057   25.4446 O   0  0  0  0  0  0  0  0  0  0  0  0
   11.2137  -17.1030   26.7288 O   0  0  0  0  0  0  0  0  0  0  0  0
   16.0190  -15.1408   22.7117 O   0  0  0  0  0  0  0  0  0  0  0  0
  2  1  1  6
  3  4  1  0
  3  2  1  0
  4  5  1  0
  6  5  1  0
  7  6  1  0
  8  2  1  0
  8  9  2  0
 10 11  1  0
 11 13  1  0
 12 11  2  0
 13 14  1  0
 14 15  1  0
 16 15  1  0
 17 16  1  1
 17 18  1  0
 18  8  1  0
 19 20  2  0
 19 17  1  0
 21 19  1  0
 22 21  1  0
 22 23  1  6
 23 24  1  0
 24 25  1  0
 25 26  2  0
 25 29  1  0
 27 22  1  0
 28 27  1  0
 30 27  2  0
M  END
$$$$
