KRE.pdb
     RDKit          3D

 30 29  0  0  1  0  0  0  0  0999 V2000
    8.7342  -17.1560   19.9336 N   0  0  0  0  0  0  0  0  0  0  0  0
    9.7152  -16.2234   20.4433 C   0  0  1  0  0  0  0  0  0  0  0  0
    8.9984  -14.9176   20.7322 C   0  0  0  0  0  0  0  0  0  0  0  0
    8.5087  -14.4078   19.3943 C   0  0  0  0  0  0  0  0  0  0  0  0
    7.6773  -13.1631   19.5124 C   0  0  0  0  0  0  0  0  0  0  0  0
    7.2602  -12.5948   18.1970 C   0  0  0  0  0  0  0  0  0  0  0  0
    6.4478  -11.4162   18.4574 N   0  0  0  0  0  0  0  0  0  0  0  0
   10.4058  -16.7790   21.6168 C   0  0  0  0  0  0  0  0  0  0  0  0
    9.8325  -17.4639   22.5003 O   0  0  0  0  0  0  0  0  0  0  0  0
   16.8363  -16.3100   18.4495 N   0  0  0  0  0  0  0  0  0  0  0  0
   16.0660  -15.4936   19.3068 C   0  0  0  0  0  0  0  0  0  0  0  0
   15.6553  -14.3562   18.8686 N   0  0  0  0  0  0  0  0  0  0  0  0
   15.7628  -15.9456   20.6283 N   0  0  0  0  0  0  0  0  0  0  0  0
   15.8067  -17.3295   20.9784 C   0  0  0  0  0  0  0  0  0  0  0  0
   14.5336  -17.8168   21.6580 C   0  0  0  0  0  0  0  0  0  0  0  0
   13.9975  -16.8116   22.6099 C   0  0  0  0  0  0  0  0  0  0  0  0
   12.5525  -16.9234   22.9700 C   0  0  2  0  0  0  0  0  0  0  0  0
   11.7962  -16.5300   21.7633 N   0  0  0  0  0  0  0  0  0  0  0  0
   12.0921  -16.0674   24.0706 C   0  0  0  0  0  0  0  0  0  0  0  0
   12.4438  -14.8604   24.1011 O   0  0  0  0  0  0  0  0  0  0  0  0
   15.0523  -13.7640   19.4512 N   0  0  0  0  0  0  0  0  0  0  0  0
   11.2561  -16.4916   25.1353 C   0  0  1  0  0  0  0  0  0  0  0  0
   10.9177  -15.5806   26.2479 C   0  0  0  0  0  0  0  0  0  0  0  0
    9.5862  -14.9539   26.0052 C   0  0  0  0  0  0  0  0  0  0  0  0
    9.1093  -14.0116   27.0557 C   0  0  0  0  0  0  0  0  0  0  0  0
    7.8141  -13.3682   26.7867 O   0  0  0  0  0  0  0  0  0  0  0  0
    7.3524  -12.5225   27.5656 C   0  0  0  0  0  0  0  0  0  0  0  0
   10.9742  -16.3488   27.5073 O   0  0  0  0  0  0  0  0  0  0  0  0
   11.1311  -15.7649   28.7512 O   0  0  0  0  0  0  0  0  0  0  0  0
    7.1068  -13.7112   25.6543 O   0  0  0  0  0  0  0  0  0  0  0  0
  2  1  1  1
  3  4  1  0
  3  2  1  0
  4  5  1  0
  6  5  1  0
  7  6  1  0
  8  2  1  0
  8  9  2  0
 10 11  1  0
 11 13  1  0
 12 11  2  0
 13 14  1  0
 14 15  1  0
 16 15  1  0
 17 16  1  6
 17 18  1  0
 18  8  1  0
 19 20  2  0
 19 17  1  0
 21 19  1  0
 22 21  1  0
 22 23  1  1
 23 24  1  0
 24 25  1  0
 25 26  2  0
 25 29  1  0
 27 22  1  0
 28 27  1  0
 30 27  2  0
M  END
$$$$
