YCK.pdb
     RDKit          3D

 28 28  0  0  1  0  0  0  0  0999 V2000
   23.6494  -20.6315   -7.3462 O   0  0  0  0  0  0  0  0  0  0  0  0
   24.0338  -20.5032   -8.6855 C   0  0  0  0  0  0  0  0  0  0  0  0
   25.3326  -20.2387   -9.0076 C   0  0  0  0  0  0  0  0  0  0  0  0
   25.7317  -20.1078  -10.3425 C   0  0  0  0  0  0  0  0  0  0  0  0
   24.8205  -20.2427  -11.3746 C   0  0  0  0  0  0  0  0  0  0  0  0
   25.2189  -20.1094  -12.7767 C   0  0  0  0  0  0  0  0  0  0  0  0
   25.4112  -21.4161  -13.4910 C   0  0  2  0  0  0  0  0  0  0  0  0
   26.4215  -22.2436  -12.9109 N   0  0  0  0  0  0  0  0  0  0  0  0
   25.7257  -21.0771  -14.9135 C   0  0  0  0  0  0  0  0  0  0  0  0
   26.8929  -20.7420  -15.2181 O   0  0  0  0  0  0  0  0  0  0  0  0
   23.5148  -20.5098  -11.0208 C   0  0  0  0  0  0  0  0  0  0  0  0
   23.1069  -20.6415   -9.7083 C   0  0  0  0  0  0  0  0  0  0  0  0
   24.7496  -21.1186  -15.9458 N   0  0  0  0  0  0  0  0  0  0  0  0
   25.0763  -21.2842  -17.3471 C   0  0  1  0  0  0  0  0  0  0  0  0
   25.7006  -22.6787  -17.4949 C   0  0  0  0  0  0  0  0  0  0  0  0
   27.3257  -22.7147  -16.7337 S   0  0  0  0  0  0  0  0  0  0  0  0
   23.8887  -21.1455  -18.2153 C   0  0  0  0  0  0  0  0  0  0  0  0
   22.7953  -21.6708  -17.8910 O   0  0  0  0  0  0  0  0  0  0  0  0
   23.9265  -20.4245  -19.4360 N   0  0  0  0  0  0  0  0  0  0  0  0
   22.8611  -19.5027  -19.8385 C   0  0  1  0  0  0  0  0  0  0  0  0
   22.6863  -18.5270  -18.7153 C   0  0  0  0  0  0  0  0  0  0  0  0
   21.5850  -17.5399  -18.9010 C   0  0  0  0  0  0  0  0  0  0  0  0
   21.3604  -16.6622  -17.6979 C   0  0  0  0  0  0  0  0  0  0  0  0
   20.1533  -15.7659  -17.8650 C   0  0  0  0  0  0  0  0  0  0  0  0
   19.7979  -15.0996  -16.6379 N   0  0  0  0  0  0  0  0  0  0  0  0
   23.1919  -18.8468  -21.1210 C   0  0  0  0  0  0  0  0  0  0  0  0
   24.4080  -18.6171  -21.4104 O   0  0  0  0  0  0  0  0  0  0  0  0
   22.2611  -18.4513  -22.0596 O   0  0  0  0  0  0  0  0  0  0  0  0
  2  1  1  0
  2 12  2  0
  3  2  1  0
  4  3  2  0
  4  5  1  0
  5 11  2  0
  6  5  1  0
  7  9  1  0
  7  6  1  0
  7  8  1  1
  9 10  2  0
 11 12  1  0
 13  9  1  0
 13 14  1  0
 14 17  1  0
 15 16  1  0
 14 15  1  1
 17 18  2  0
 19 17  1  0
 19 20  1  0
 20 26  1  0
 20 21  1  1
 22 21  1  0
 23 22  1  0
 24 23  1  0
 25 24  1  0
 26 27  2  0
 26 28  1  0
M  END
$$$$
