YCK.pdb
     RDKit          3D

 28 28  0  0  1  0  0  0  0  0999 V2000
   16.1339   -7.5750  -18.4484 O   0  0  0  0  0  0  0  0  0  0  0  0
   17.5133   -7.7710  -18.3192 C   0  0  0  0  0  0  0  0  0  0  0  0
   18.3894   -6.9671  -18.9876 C   0  0  0  0  0  0  0  0  0  0  0  0
   19.7716   -7.1511  -18.8680 C   0  0  0  0  0  0  0  0  0  0  0  0
   20.2897   -8.1539  -18.0682 C   0  0  0  0  0  0  0  0  0  0  0  0
   21.7320   -8.3618  -17.9303 C   0  0  0  0  0  0  0  0  0  0  0  0
   22.3478   -7.6584  -16.7554 C   0  0  2  0  0  0  0  0  0  0  0  0
   22.1995   -6.2376  -16.7953 N   0  0  0  0  0  0  0  0  0  0  0  0
   23.7879   -8.0619  -16.7292 C   0  0  0  0  0  0  0  0  0  0  0  0
   24.6698   -7.1754  -16.6669 O   0  0  0  0  0  0  0  0  0  0  0  0
   19.3819   -8.9516  -17.4042 C   0  0  0  0  0  0  0  0  0  0  0  0
   18.0161   -8.7816  -17.5127 C   0  0  0  0  0  0  0  0  0  0  0  0
   24.2049   -9.4199  -16.7724 N   0  0  0  0  0  0  0  0  0  0  0  0
   25.5889   -9.8337  -16.6677 C   0  0  1  0  0  0  0  0  0  0  0  0
   26.0337   -9.5337  -15.2295 C   0  0  0  0  0  0  0  0  0  0  0  0
   27.6755  -10.1973  -14.9368 S   0  0  0  0  0  0  0  0  0  0  0  0
   25.7669  -11.2658  -16.9848 C   0  0  0  0  0  0  0  0  0  0  0  0
   25.2266  -12.1493  -16.2748 O   0  0  0  0  0  0  0  0  0  0  0  0
   26.5435  -11.7037  -18.0878 N   0  0  0  0  0  0  0  0  0  0  0  0
   26.6704  -13.1180  -18.4486 C   0  0  1  0  0  0  0  0  0  0  0  0
   25.2989  -13.5950  -18.8170 C   0  0  0  0  0  0  0  0  0  0  0  0
   25.2384  -14.9762  -19.3742 C   0  0  0  0  0  0  0  0  0  0  0  0
   23.8538  -15.3884  -19.7998 C   0  0  0  0  0  0  0  0  0  0  0  0
   23.8116  -16.8191  -20.2896 C   0  0  0  0  0  0  0  0  0  0  0  0
   22.4643  -17.2731  -20.5238 N   0  0  0  0  0  0  0  0  0  0  0  0
   27.6510  -13.2949  -19.5401 C   0  0  0  0  0  0  0  0  0  0  0  0
   27.9336  -14.4668  -19.9430 O   0  0  0  0  0  0  0  0  0  0  0  0
   28.3052  -12.2613  -20.1783 O   0  0  0  0  0  0  0  0  0  0  0  0
  2  1  1  0
  2 12  2  0
  3  2  1  0
  4  3  2  0
  4  5  1  0
  5 11  2  0
  6  5  1  0
  7  9  1  0
  7  6  1  0
  7  8  1  6
  9 10  2  0
 11 12  1  0
 13  9  1  0
 13 14  1  0
 14 17  1  0
 15 16  1  0
 14 15  1  1
 17 18  2  0
 19 17  1  0
 19 20  1  0
 20 26  1  0
 20 21  1  6
 22 21  1  0
 23 22  1  0
 24 23  1  0
 25 24  1  0
 26 27  2  0
 26 28  1  0
M  END
$$$$
