YCK.pdb
     RDKit          3D

 28 28  0  0  1  0  0  0  0  0999 V2000
   30.0136  -16.3221  -19.4001 O   0  0  0  0  0  0  0  0  0  0  0  0
   29.2740  -17.0555  -18.4657 C   0  0  0  0  0  0  0  0  0  0  0  0
   28.2111  -17.8102  -18.8672 C   0  0  0  0  0  0  0  0  0  0  0  0
   27.4621  -18.5489  -17.9442 C   0  0  0  0  0  0  0  0  0  0  0  0
   27.7779  -18.5351  -16.5974 C   0  0  0  0  0  0  0  0  0  0  0  0
   27.0067  -19.3011  -15.6171 C   0  0  0  0  0  0  0  0  0  0  0  0
   27.7352  -20.4830  -15.0454 C   0  0  2  0  0  0  0  0  0  0  0  0
   28.1303  -21.4431  -16.0274 N   0  0  0  0  0  0  0  0  0  0  0  0
   26.8259  -21.0842  -14.0212 C   0  0  0  0  0  0  0  0  0  0  0  0
   26.0080  -21.9649  -14.3718 O   0  0  0  0  0  0  0  0  0  0  0  0
   28.8567  -17.7640  -16.2192 C   0  0  0  0  0  0  0  0  0  0  0  0
   29.6045  -17.0304  -17.1186 C   0  0  0  0  0  0  0  0  0  0  0  0
   26.8484  -20.6971  -12.6538 N   0  0  0  0  0  0  0  0  0  0  0  0
   25.8187  -21.0636  -11.7034 C   0  0  1  0  0  0  0  0  0  0  0  0
   26.2613  -20.5189  -10.3383 C   0  0  0  0  0  0  0  0  0  0  0  0
   24.8489  -20.3759   -9.2400 S   0  0  0  0  0  0  0  0  0  0  0  0
   24.4960  -20.5240  -12.0806 C   0  0  0  0  0  0  0  0  0  0  0  0
   24.3717  -19.3251  -12.4327 O   0  0  0  0  0  0  0  0  0  0  0  0
   23.3229  -21.3209  -12.0634 N   0  0  0  0  0  0  0  0  0  0  0  0
   22.0039  -20.7872  -12.4124 C   0  0  1  0  0  0  0  0  0  0  0  0
   21.5681  -21.4930  -13.6599 C   0  0  0  0  0  0  0  0  0  0  0  0
   20.2367  -21.0799  -14.1877 C   0  0  0  0  0  0  0  0  0  0  0  0
   19.8504  -21.7921  -15.4573 C   0  0  0  0  0  0  0  0  0  0  0  0
   18.4659  -21.4048  -15.9280 C   0  0  0  0  0  0  0  0  0  0  0  0
   18.0322  -22.1983  -17.0497 N   0  0  0  0  0  0  0  0  0  0  0  0
   21.0543  -20.9624  -11.2935 C   0  0  0  0  0  0  0  0  0  0  0  0
   21.2426  -21.8983  -10.4544 O   0  0  0  0  0  0  0  0  0  0  0  0
   19.9463  -20.1693  -11.0771 O   0  0  0  0  0  0  0  0  0  0  0  0
  2  1  1  0
  2 12  2  0
  3  2  1  0
  4  3  2  0
  4  5  1  0
  5 11  2  0
  6  5  1  0
  7  9  1  0
  7  6  1  0
  7  8  1  6
  9 10  2  0
 11 12  1  0
 13  9  1  0
 13 14  1  0
 14 17  1  0
 15 16  1  0
 14 15  1  1
 17 18  2  0
 19 17  1  0
 19 20  1  0
 20 26  1  0
 20 21  1  6
 22 21  1  0
 23 22  1  0
 24 23  1  0
 25 24  1  0
 26 27  2  0
 26 28  1  0
M  END
$$$$
