YCK.pdb
     RDKit          3D

 28 28  0  0  1  0  0  0  0  0999 V2000
   21.5581  -21.2281  -11.9885 O   0  0  0  0  0  0  0  0  0  0  0  0
   21.3545  -20.3102  -13.0248 C   0  0  0  0  0  0  0  0  0  0  0  0
   21.4990  -20.6955  -14.3253 C   0  0  0  0  0  0  0  0  0  0  0  0
   21.2986  -19.7886  -15.3721 C   0  0  0  0  0  0  0  0  0  0  0  0
   20.9481  -18.4746  -15.1185 C   0  0  0  0  0  0  0  0  0  0  0  0
   20.7340  -17.5116  -16.1998 C   0  0  0  0  0  0  0  0  0  0  0  0
   19.3168  -17.4389  -16.6905 C   0  0  2  0  0  0  0  0  0  0  0  0
   18.8269  -18.6752  -17.2138 N   0  0  0  0  0  0  0  0  0  0  0  0
   19.2812  -16.3526  -17.7181 C   0  0  0  0  0  0  0  0  0  0  0  0
   19.5845  -16.6217  -18.9026 O   0  0  0  0  0  0  0  0  0  0  0  0
   20.8087  -18.1122  -13.7954 C   0  0  0  0  0  0  0  0  0  0  0  0
   21.0033  -18.9960  -12.7526 C   0  0  0  0  0  0  0  0  0  0  0  0
   18.9149  -15.0149  -17.4078 N   0  0  0  0  0  0  0  0  0  0  0  0
   18.7957  -13.9687  -18.4023 C   0  0  1  0  0  0  0  0  0  0  0  0
   17.3938  -13.3640  -18.2438 C   0  0  0  0  0  0  0  0  0  0  0  0
   16.1420  -14.6242  -18.5016 S   0  0  0  0  0  0  0  0  0  0  0  0
   19.8361  -12.9312  -18.2456 C   0  0  0  0  0  0  0  0  0  0  0  0
   20.2092  -12.5678  -17.1031 O   0  0  0  0  0  0  0  0  0  0  0  0
   20.4528  -12.3066  -19.3596 N   0  0  0  0  0  0  0  0  0  0  0  0
   21.4924  -11.2847  -19.2129 C   0  0  1  0  0  0  0  0  0  0  0  0
   22.1098  -11.0988  -20.5651 C   0  0  0  0  0  0  0  0  0  0  0  0
   23.2405  -10.1288  -20.6158 C   0  0  0  0  0  0  0  0  0  0  0  0
   23.8774  -10.0247  -21.9766 C   0  0  0  0  0  0  0  0  0  0  0  0
   25.0636   -9.0858  -21.9791 C   0  0  0  0  0  0  0  0  0  0  0  0
   25.6662   -8.9759  -23.2832 N   0  0  0  0  0  0  0  0  0  0  0  0
   20.9254  -10.0346  -18.6651 C   0  0  0  0  0  0  0  0  0  0  0  0
   21.5751   -9.3859  -17.7860 O   0  0  0  0  0  0  0  0  0  0  0  0
   19.7119   -9.4962  -19.0408 O   0  0  0  0  0  0  0  0  0  0  0  0
  2  1  1  0
  2 12  2  0
  3  2  1  0
  4  3  2  0
  4  5  1  0
  5 11  2  0
  6  5  1  0
  7  9  1  0
  7  6  1  0
  7  8  1  6
  9 10  2  0
 11 12  1  0
 13  9  1  0
 13 14  1  0
 14 17  1  0
 15 16  1  0
 14 15  1  1
 17 18  2  0
 19 17  1  0
 19 20  1  0
 20 26  1  0
 20 21  1  6
 22 21  1  0
 23 22  1  0
 24 23  1  0
 25 24  1  0
 26 27  2  0
 26 28  1  0
M  END
$$$$
