YCK.pdb
     RDKit          3D

 28 28  0  0  1  0  0  0  0  0999 V2000
   25.0287  -15.3603  -24.6306 O   0  0  0  0  0  0  0  0  0  0  0  0
   24.7929  -14.9501  -23.3137 C   0  0  0  0  0  0  0  0  0  0  0  0
   24.6289  -13.6276  -23.0225 C   0  0  0  0  0  0  0  0  0  0  0  0
   24.3924  -13.2026  -21.7103 C   0  0  0  0  0  0  0  0  0  0  0  0
   24.3181  -14.1114  -20.6700 C   0  0  0  0  0  0  0  0  0  0  0  0
   24.0714  -13.6862  -19.2913 C   0  0  0  0  0  0  0  0  0  0  0  0
   25.3160  -13.4713  -18.4793 C   0  0  2  0  0  0  0  0  0  0  0  0
   26.1090  -14.6498  -18.3222 N   0  0  0  0  0  0  0  0  0  0  0  0
   24.8700  -12.9269  -17.1594 C   0  0  0  0  0  0  0  0  0  0  0  0
   25.1110  -13.5774  -16.1171 O   0  0  0  0  0  0  0  0  0  0  0  0
   24.4876  -15.4413  -20.9924 C   0  0  0  0  0  0  0  0  0  0  0  0
   24.7214  -15.8750  -22.2822 C   0  0  0  0  0  0  0  0  0  0  0  0
   24.1778  -11.6921  -17.0333 N   0  0  0  0  0  0  0  0  0  0  0  0
   23.8805  -11.0700  -15.7596 C   0  0  1  0  0  0  0  0  0  0  0  0
   25.2276  -10.7259  -15.1092 C   0  0  0  0  0  0  0  0  0  0  0  0
   26.0279   -9.3938  -16.0074 S   0  0  0  0  0  0  0  0  0  0  0  0
   23.0467   -9.8598  -15.9127 C   0  0  0  0  0  0  0  0  0  0  0  0
   23.2944   -9.0233  -16.8157 O   0  0  0  0  0  0  0  0  0  0  0  0
   21.9451   -9.5898  -15.0613 N   0  0  0  0  0  0  0  0  0  0  0  0
   21.1158   -8.3903  -15.2040 C   0  0  1  0  0  0  0  0  0  0  0  0
   19.7323   -8.7671  -14.7703 C   0  0  0  0  0  0  0  0  0  0  0  0
   19.0528   -9.7765  -15.6313 C   0  0  0  0  0  0  0  0  0  0  0  0
   17.7043  -10.1966  -15.1086 C   0  0  0  0  0  0  0  0  0  0  0  0
   17.1232  -11.3502  -15.8960 C   0  0  0  0  0  0  0  0  0  0  0  0
   15.9563  -11.9078  -15.2608 N   0  0  0  0  0  0  0  0  0  0  0  0
   21.6763   -7.2690  -14.4211 C   0  0  0  0  0  0  0  0  0  0  0  0
   22.5146   -7.5095  -13.4965 O   0  0  0  0  0  0  0  0  0  0  0  0
   21.3554   -5.9415  -14.6171 O   0  0  0  0  0  0  0  0  0  0  0  0
  2  1  1  0
  2 12  2  0
  3  2  1  0
  4  3  2  0
  4  5  1  0
  5 11  2  0
  6  5  1  0
  7  9  1  0
  7  6  1  0
  7  8  1  1
  9 10  2  0
 11 12  1  0
 13  9  1  0
 13 14  1  0
 14 17  1  0
 15 16  1  0
 14 15  1  6
 17 18  2  0
 19 17  1  0
 19 20  1  0
 20 26  1  0
 20 21  1  1
 22 21  1  0
 23 22  1  0
 24 23  1  0
 25 24  1  0
 26 27  2  0
 26 28  1  0
M  END
$$$$
