YCK.pdb
     RDKit          3D

 28 28  0  0  1  0  0  0  0  0999 V2000
   20.1718  -17.1645  -21.6622 O   0  0  0  0  0  0  0  0  0  0  0  0
   20.4090  -17.8839  -20.4858 C   0  0  0  0  0  0  0  0  0  0  0  0
   19.8096  -17.5127  -19.3181 C   0  0  0  0  0  0  0  0  0  0  0  0
   20.0373  -18.2225  -18.1337 C   0  0  0  0  0  0  0  0  0  0  0  0
   20.8771  -19.3216  -18.1126 C   0  0  0  0  0  0  0  0  0  0  0  0
   21.1274  -20.0768  -16.8840 C   0  0  0  0  0  0  0  0  0  0  0  0
   22.1493  -19.4566  -15.9753 C   0  0  2  0  0  0  0  0  0  0  0  0
   23.4492  -19.3534  -16.5599 N   0  0  0  0  0  0  0  0  0  0  0  0
   22.1684  -20.2879  -14.7320 C   0  0  0  0  0  0  0  0  0  0  0  0
   23.1872  -20.9647  -14.4650 O   0  0  0  0  0  0  0  0  0  0  0  0
   21.4696  -19.6748  -19.3065 C   0  0  0  0  0  0  0  0  0  0  0  0
   21.2542  -18.9839  -20.4824 C   0  0  0  0  0  0  0  0  0  0  0  0
   21.0711  -20.3450  -13.8305 N   0  0  0  0  0  0  0  0  0  0  0  0
   21.0985  -21.0843  -12.5853 C   0  0  1  0  0  0  0  0  0  0  0  0
   21.2273  -20.0500  -11.4585 C   0  0  0  0  0  0  0  0  0  0  0  0
   19.9468  -18.8017  -11.6129 S   0  0  0  0  0  0  0  0  0  0  0  0
   19.8881  -21.9119  -12.4030 C   0  0  0  0  0  0  0  0  0  0  0  0
   18.7720  -21.5111  -12.8155 O   0  0  0  0  0  0  0  0  0  0  0  0
   19.9285  -23.1774  -11.7640 N   0  0  0  0  0  0  0  0  0  0  0  0
   18.7441  -24.0294  -11.6302 C   0  0  1  0  0  0  0  0  0  0  0  0
   19.2116  -25.3330  -11.0590 C   0  0  0  0  0  0  0  0  0  0  0  0
   18.1818  -26.4098  -11.0159 C   0  0  0  0  0  0  0  0  0  0  0  0
   18.7076  -27.7182  -10.4868 C   0  0  0  0  0  0  0  0  0  0  0  0
   17.6098  -28.7446  -10.3148 C   0  0  0  0  0  0  0  0  0  0  0  0
   18.1127  -29.9987   -9.8143 N   0  0  0  0  0  0  0  0  0  0  0  0
   17.7173  -23.3727  -10.7941 C   0  0  0  0  0  0  0  0  0  0  0  0
   18.0781  -22.6625   -9.8037 O   0  0  0  0  0  0  0  0  0  0  0  0
   16.3575  -23.4693  -11.0064 O   0  0  0  0  0  0  0  0  0  0  0  0
  2  1  1  0
  2 12  2  0
  3  2  1  0
  4  3  2  0
  4  5  1  0
  5 11  2  0
  6  5  1  0
  7  9  1  0
  7  6  1  0
  7  8  1  6
  9 10  2  0
 11 12  1  0
 13  9  1  0
 13 14  1  0
 14 17  1  0
 15 16  1  0
 14 15  1  1
 17 18  2  0
 19 17  1  0
 19 20  1  0
 20 26  1  0
 20 21  1  1
 22 21  1  0
 23 22  1  0
 24 23  1  0
 25 24  1  0
 26 27  2  0
 26 28  1  0
M  END
$$$$
