YCK.pdb
     RDKit          3D

 28 28  0  0  1  0  0  0  0  0999 V2000
   20.4286  -22.7841   -5.6680 O   0  0  0  0  0  0  0  0  0  0  0  0
   21.4066  -22.2086   -6.4867 C   0  0  0  0  0  0  0  0  0  0  0  0
   22.5540  -22.8887   -6.7723 C   0  0  0  0  0  0  0  0  0  0  0  0
   23.5410  -22.3259   -7.5895 C   0  0  0  0  0  0  0  0  0  0  0  0
   23.3816  -21.0632   -8.1316 C   0  0  0  0  0  0  0  0  0  0  0  0
   24.4023  -20.4580   -8.9886 C   0  0  0  0  0  0  0  0  0  0  0  0
   24.1588  -20.6366  -10.4594 C   0  0  2  0  0  0  0  0  0  0  0  0
   23.9030  -21.9905  -10.8382 N   0  0  0  0  0  0  0  0  0  0  0  0
   25.3630  -20.0873  -11.1562 C   0  0  0  0  0  0  0  0  0  0  0  0
   25.7405  -18.9220  -10.8970 O   0  0  0  0  0  0  0  0  0  0  0  0
   22.2127  -20.3982   -7.8268 C   0  0  0  0  0  0  0  0  0  0  0  0
   21.2307  -20.9410   -7.0222 C   0  0  0  0  0  0  0  0  0  0  0  0
   26.1059  -20.8357  -12.1091 N   0  0  0  0  0  0  0  0  0  0  0  0
   27.2104  -20.2877  -12.8691 C   0  0  1  0  0  0  0  0  0  0  0  0
   28.2736  -21.3908  -12.9640 C   0  0  0  0  0  0  0  0  0  0  0  0
   29.0027  -21.6899  -11.3514 S   0  0  0  0  0  0  0  0  0  0  0  0
   26.7931  -19.8430  -14.2150 C   0  0  0  0  0  0  0  0  0  0  0  0
   25.9764  -20.5198  -14.8869 O   0  0  0  0  0  0  0  0  0  0  0  0
   27.2869  -18.6503  -14.8024 N   0  0  0  0  0  0  0  0  0  0  0  0
   26.8544  -18.1862  -16.1231 C   0  0  1  0  0  0  0  0  0  0  0  0
   27.2842  -16.7559  -16.2407 C   0  0  0  0  0  0  0  0  0  0  0  0
   26.9432  -16.0977  -17.5339 C   0  0  0  0  0  0  0  0  0  0  0  0
   27.4443  -14.6809  -17.6334 C   0  0  0  0  0  0  0  0  0  0  0  0
   27.1272  -14.0582  -18.9751 C   0  0  0  0  0  0  0  0  0  0  0  0
   27.6668  -12.7279  -19.0972 N   0  0  0  0  0  0  0  0  0  0  0  0
   27.4149  -19.0424  -17.1895 C   0  0  0  0  0  0  0  0  0  0  0  0
   28.5856  -19.5194  -17.0577 O   0  0  0  0  0  0  0  0  0  0  0  0
   26.7519  -19.3778  -18.3520 O   0  0  0  0  0  0  0  0  0  0  0  0
  2  1  1  0
  2 12  2  0
  3  2  1  0
  4  3  2  0
  4  5  1  0
  5 11  2  0
  6  5  1  0
  7  9  1  0
  7  6  1  0
  7  8  1  1
  9 10  2  0
 11 12  1  0
 13  9  1  0
 13 14  1  0
 14 17  1  0
 15 16  1  0
 14 15  1  6
 17 18  2  0
 19 17  1  0
 19 20  1  0
 20 26  1  0
 20 21  1  6
 22 21  1  0
 23 22  1  0
 24 23  1  0
 25 24  1  0
 26 27  2  0
 26 28  1  0
M  END
$$$$
