YCK.pdb
     RDKit          3D

 28 28  0  0  1  0  0  0  0  0999 V2000
   17.2904  -16.8973  -21.5496 O   0  0  0  0  0  0  0  0  0  0  0  0
   17.6637  -15.8218  -20.7360 C   0  0  0  0  0  0  0  0  0  0  0  0
   16.7143  -15.0097  -20.1886 C   0  0  0  0  0  0  0  0  0  0  0  0
   17.0726  -13.9303  -19.3729 C   0  0  0  0  0  0  0  0  0  0  0  0
   18.4002  -13.6556  -19.0980 C   0  0  0  0  0  0  0  0  0  0  0  0
   18.7945  -12.5317  -18.2472 C   0  0  0  0  0  0  0  0  0  0  0  0
   19.0583  -12.9031  -16.8165 C   0  0  2  0  0  0  0  0  0  0  0  0
   17.8988  -13.3647  -16.1205 N   0  0  0  0  0  0  0  0  0  0  0  0
   19.6448  -11.6900  -16.1669 C   0  0  0  0  0  0  0  0  0  0  0  0
   18.8825  -10.8608  -15.6202 O   0  0  0  0  0  0  0  0  0  0  0  0
   19.3388  -14.4923  -19.6641 C   0  0  0  0  0  0  0  0  0  0  0  0
   19.0000  -15.5605  -20.4705 C   0  0  0  0  0  0  0  0  0  0  0  0
   21.0424  -11.4332  -16.1418 N   0  0  0  0  0  0  0  0  0  0  0  0
   21.6205  -10.2122  -15.6196 C   0  0  1  0  0  0  0  0  0  0  0  0
   22.8736  -10.6170  -14.8308 C   0  0  0  0  0  0  0  0  0  0  0  0
   23.7236   -9.1569  -14.2249 S   0  0  0  0  0  0  0  0  0  0  0  0
   21.9613   -9.2550  -16.6923 C   0  0  0  0  0  0  0  0  0  0  0  0
   22.6734   -9.6105  -17.6634 O   0  0  0  0  0  0  0  0  0  0  0  0
   21.5080   -7.9112  -16.6766 N   0  0  0  0  0  0  0  0  0  0  0  0
   21.8565   -6.9510  -17.7269 C   0  0  1  0  0  0  0  0  0  0  0  0
   20.5888   -6.6310  -18.4581 C   0  0  0  0  0  0  0  0  0  0  0  0
   20.7151   -5.5887  -19.5162 C   0  0  0  0  0  0  0  0  0  0  0  0
   19.4119   -5.2725  -20.2017 C   0  0  0  0  0  0  0  0  0  0  0  0
   19.5718   -4.2071  -21.2638 C   0  0  0  0  0  0  0  0  0  0  0  0
   19.7882   -2.9014  -20.6945 N   0  0  0  0  0  0  0  0  0  0  0  0
   22.5029   -5.7538  -17.1496 C   0  0  0  0  0  0  0  0  0  0  0  0
   23.0211   -4.8887  -17.9233 O   0  0  0  0  0  0  0  0  0  0  0  0
   22.5928   -5.4889  -15.7986 O   0  0  0  0  0  0  0  0  0  0  0  0
  2  1  1  0
  2 12  2  0
  3  2  1  0
  4  3  2  0
  4  5  1  0
  5 11  2  0
  6  5  1  0
  7  9  1  0
  7  6  1  0
  7  8  1  1
  9 10  2  0
 11 12  1  0
 13  9  1  0
 13 14  1  0
 14 17  1  0
 15 16  1  0
 14 15  1  6
 17 18  2  0
 19 17  1  0
 19 20  1  0
 20 26  1  0
 20 21  1  1
 22 21  1  0
 23 22  1  0
 24 23  1  0
 25 24  1  0
 26 27  2  0
 26 28  1  0
M  END
$$$$
