YCK.pdb
     RDKit          3D

 28 28  0  0  1  0  0  0  0  0999 V2000
   26.2732  -11.8842  -21.4287 O   0  0  0  0  0  0  0  0  0  0  0  0
   25.3277  -11.3352  -20.5554 C   0  0  0  0  0  0  0  0  0  0  0  0
   25.7153  -10.4679  -19.5764 C   0  0  0  0  0  0  0  0  0  0  0  0
   24.7811   -9.9109  -18.6958 C   0  0  0  0  0  0  0  0  0  0  0  0
   23.4370  -10.2238  -18.7924 C   0  0  0  0  0  0  0  0  0  0  0  0
   22.4450   -9.6513  -17.8809 C   0  0  0  0  0  0  0  0  0  0  0  0
   22.5484  -10.1452  -16.4666 C   0  0  2  0  0  0  0  0  0  0  0  0
   22.5381  -11.5697  -16.3543 N   0  0  0  0  0  0  0  0  0  0  0  0
   21.4111   -9.5249  -15.7189 C   0  0  0  0  0  0  0  0  0  0  0  0
   20.3880  -10.2080  -15.4861 O   0  0  0  0  0  0  0  0  0  0  0  0
   23.0729  -11.1027  -19.7906 C   0  0  0  0  0  0  0  0  0  0  0  0
   23.9835  -11.6597  -20.6663 C   0  0  0  0  0  0  0  0  0  0  0  0
   21.4393   -8.1815  -15.2558 N   0  0  0  0  0  0  0  0  0  0  0  0
   20.3701   -7.5799  -14.4860 C   0  0  1  0  0  0  0  0  0  0  0  0
   20.4144   -8.2188  -13.0910 C   0  0  0  0  0  0  0  0  0  0  0  0
   21.6981   -9.4715  -13.0230 S   0  0  0  0  0  0  0  0  0  0  0  0
   20.5077   -6.1115  -14.3960 C   0  0  0  0  0  0  0  0  0  0  0  0
   21.6111   -5.5579  -14.6254 O   0  0  0  0  0  0  0  0  0  0  0  0
   19.4183   -5.2711  -14.0518 N   0  0  0  0  0  0  0  0  0  0  0  0
   19.2575   -3.9246  -14.6065 C   0  0  1  0  0  0  0  0  0  0  0  0
   19.3955   -4.0501  -16.0929 C   0  0  0  0  0  0  0  0  0  0  0  0
   19.2129   -2.7816  -16.8541 C   0  0  0  0  0  0  0  0  0  0  0  0
   19.5174   -2.9172  -18.3228 C   0  0  0  0  0  0  0  0  0  0  0  0
   19.4026   -1.5966  -19.0518 C   0  0  0  0  0  0  0  0  0  0  0  0
   19.7509   -1.7137  -20.4450 N   0  0  0  0  0  0  0  0  0  0  0  0
   17.9626   -3.3405  -14.1985 C   0  0  0  0  0  0  0  0  0  0  0  0
   16.9035   -4.0360  -14.2994 O   0  0  0  0  0  0  0  0  0  0  0  0
   17.8031   -2.0634  -13.7014 O   0  0  0  0  0  0  0  0  0  0  0  0
  2  1  1  0
  2 12  2  0
  3  2  1  0
  4  3  2  0
  4  5  1  0
  5 11  2  0
  6  5  1  0
  7  9  1  0
  7  6  1  0
  7  8  1  6
  9 10  2  0
 11 12  1  0
 13  9  1  0
 13 14  1  0
 14 17  1  0
 15 16  1  0
 14 15  1  1
 17 18  2  0
 19 17  1  0
 19 20  1  0
 20 26  1  0
 20 21  1  6
 22 21  1  0
 23 22  1  0
 24 23  1  0
 25 24  1  0
 26 27  2  0
 26 28  1  0
M  END
$$$$
