YCK.pdb
     RDKit          3D

 28 28  0  0  1  0  0  0  0  0999 V2000
   15.6119  -14.5615  -19.7190 O   0  0  0  0  0  0  0  0  0  0  0  0
   16.2387  -15.6732  -19.1451 C   0  0  0  0  0  0  0  0  0  0  0  0
   16.8317  -15.5743  -17.9207 C   0  0  0  0  0  0  0  0  0  0  0  0
   17.4623  -16.6775  -17.3342 C   0  0  0  0  0  0  0  0  0  0  0  0
   17.5026  -17.9005  -17.9792 C   0  0  0  0  0  0  0  0  0  0  0  0
   18.1571  -19.0657  -17.3820 C   0  0  0  0  0  0  0  0  0  0  0  0
   19.6572  -18.9997  -17.3838 C   0  0  2  0  0  0  0  0  0  0  0  0
   20.2287  -18.9759  -18.6934 N   0  0  0  0  0  0  0  0  0  0  0  0
   20.1324  -20.1793  -16.5962 C   0  0  0  0  0  0  0  0  0  0  0  0
   20.6826  -21.1318  -17.1942 O   0  0  0  0  0  0  0  0  0  0  0  0
   16.8957  -17.9724  -19.2153 C   0  0  0  0  0  0  0  0  0  0  0  0
   16.2700  -16.8925  -19.8059 C   0  0  0  0  0  0  0  0  0  0  0  0
   19.9863  -20.2688  -15.1854 N   0  0  0  0  0  0  0  0  0  0  0  0
   20.4850  -21.3789  -14.4000 C   0  0  1  0  0  0  0  0  0  0  0  0
   21.3314  -20.7773  -13.2696 C   0  0  0  0  0  0  0  0  0  0  0  0
   21.8819  -22.0693  -12.1519 S   0  0  0  0  0  0  0  0  0  0  0  0
   19.3918  -22.2089  -13.8531 C   0  0  0  0  0  0  0  0  0  0  0  0
   18.4753  -21.6892  -13.1702 O   0  0  0  0  0  0  0  0  0  0  0  0
   19.3264  -23.6090  -14.0699 N   0  0  0  0  0  0  0  0  0  0  0  0
   18.2638  -24.4440  -13.5039 C   0  0  1  0  0  0  0  0  0  0  0  0
   18.8124  -25.8347  -13.4067 C   0  0  0  0  0  0  0  0  0  0  0  0
   17.9407  -26.8095  -12.6914 C   0  0  0  0  0  0  0  0  0  0  0  0
   16.9426  -27.4901  -13.5906 C   0  0  0  0  0  0  0  0  0  0  0  0
   16.0125  -28.4018  -12.8210 C   0  0  0  0  0  0  0  0  0  0  0  0
   14.9454  -28.9097  -13.6452 N   0  0  0  0  0  0  0  0  0  0  0  0
   17.8171  -23.9118  -12.1995 C   0  0  0  0  0  0  0  0  0  0  0  0
   18.6807  -23.4936  -11.3659 O   0  0  0  0  0  0  0  0  0  0  0  0
   16.4994  -23.8282  -11.7992 O   0  0  0  0  0  0  0  0  0  0  0  0
  2  1  1  0
  2 12  2  0
  3  2  1  0
  4  3  2  0
  4  5  1  0
  5 11  2  0
  6  5  1  0
  7  9  1  0
  7  6  1  0
  7  8  1  6
  9 10  2  0
 11 12  1  0
 13  9  1  0
 13 14  1  0
 14 17  1  0
 15 16  1  0
 14 15  1  1
 17 18  2  0
 19 17  1  0
 19 20  1  0
 20 26  1  0
 20 21  1  1
 22 21  1  0
 23 22  1  0
 24 23  1  0
 25 24  1  0
 26 27  2  0
 26 28  1  0
M  END
$$$$
