YCK.pdb
     RDKit          3D

 28 28  0  0  1  0  0  0  0  0999 V2000
   21.9128  -22.1708   -6.7818 O   0  0  0  0  0  0  0  0  0  0  0  0
   22.6693  -21.6089   -7.8161 C   0  0  0  0  0  0  0  0  0  0  0  0
   22.0761  -21.2631   -8.9947 C   0  0  0  0  0  0  0  0  0  0  0  0
   22.8199  -20.7003  -10.0380 C   0  0  0  0  0  0  0  0  0  0  0  0
   24.1788  -20.4781   -9.9044 C   0  0  0  0  0  0  0  0  0  0  0  0
   24.9734  -19.8904  -10.9840 C   0  0  0  0  0  0  0  0  0  0  0  0
   24.6734  -20.4479  -12.3456 C   0  0  2  0  0  0  0  0  0  0  0  0
   25.1015  -21.8002  -12.5188 N   0  0  0  0  0  0  0  0  0  0  0  0
   25.3281  -19.5319  -13.3303 C   0  0  0  0  0  0  0  0  0  0  0  0
   25.0634  -18.3086  -13.2966 O   0  0  0  0  0  0  0  0  0  0  0  0
   24.7527  -20.8368   -8.7030 C   0  0  0  0  0  0  0  0  0  0  0  0
   24.0313  -21.3929   -7.6653 C   0  0  0  0  0  0  0  0  0  0  0  0
   26.2466  -19.9917  -14.3126 N   0  0  0  0  0  0  0  0  0  0  0  0
   26.9126  -19.1162  -15.2547 C   0  0  1  0  0  0  0  0  0  0  0  0
   28.3903  -19.0635  -14.8425 C   0  0  0  0  0  0  0  0  0  0  0  0
   28.9525  -20.6922  -14.3398 S   0  0  0  0  0  0  0  0  0  0  0  0
   26.7723  -19.5882  -16.6478 C   0  0  0  0  0  0  0  0  0  0  0  0
   26.8594  -20.8109  -16.9200 O   0  0  0  0  0  0  0  0  0  0  0  0
   26.5364  -18.6977  -17.7261 N   0  0  0  0  0  0  0  0  0  0  0  0
   26.2690  -19.1654  -19.0887 C   0  0  1  0  0  0  0  0  0  0  0  0
   25.1921  -18.2848  -19.6445 C   0  0  0  0  0  0  0  0  0  0  0  0
   24.6716  -18.6896  -20.9812 C   0  0  0  0  0  0  0  0  0  0  0  0
   23.5766  -17.7911  -21.4930 C   0  0  0  0  0  0  0  0  0  0  0  0
   23.0023  -18.2837  -22.8030 C   0  0  0  0  0  0  0  0  0  0  0  0
   21.9186  -17.4549  -23.2664 N   0  0  0  0  0  0  0  0  0  0  0  0
   27.5029  -19.1446  -19.9019 C   0  0  0  0  0  0  0  0  0  0  0  0
   27.7278  -20.0900  -20.7212 O   0  0  0  0  0  0  0  0  0  0  0  0
   28.4605  -18.1530  -19.8442 O   0  0  0  0  0  0  0  0  0  0  0  0
  2  1  1  0
  2 12  2  0
  3  2  1  0
  4  3  2  0
  4  5  1  0
  5 11  2  0
  6  5  1  0
  7  9  1  0
  7  6  1  0
  7  8  1  1
  9 10  2  0
 11 12  1  0
 13  9  1  0
 13 14  1  0
 14 17  1  0
 15 16  1  0
 14 15  1  1
 17 18  2  0
 19 17  1  0
 19 20  1  0
 20 26  1  0
 20 21  1  6
 22 21  1  0
 23 22  1  0
 24 23  1  0
 25 24  1  0
 26 27  2  0
 26 28  1  0
M  END
$$$$
