YCK.pdb
     RDKit          3D

 28 28  0  0  1  0  0  0  0  0999 V2000
   28.7050  -20.3533   -3.5777 O   0  0  0  0  0  0  0  0  0  0  0  0
   28.2543  -20.2270   -4.8963 C   0  0  0  0  0  0  0  0  0  0  0  0
   28.9743  -19.5084   -5.8050 C   0  0  0  0  0  0  0  0  0  0  0  0
   28.5360  -19.3733   -7.1272 C   0  0  0  0  0  0  0  0  0  0  0  0
   27.3595  -19.9647   -7.5512 C   0  0  0  0  0  0  0  0  0  0  0  0
   26.8849  -19.8349   -8.9298 C   0  0  0  0  0  0  0  0  0  0  0  0
   27.1250  -21.0474   -9.7823 C   0  0  2  0  0  0  0  0  0  0  0  0
   28.5085  -21.3247  -10.0085 N   0  0  0  0  0  0  0  0  0  0  0  0
   26.3928  -20.8129  -11.0654 C   0  0  0  0  0  0  0  0  0  0  0  0
   26.9407  -20.1392  -11.9673 O   0  0  0  0  0  0  0  0  0  0  0  0
   26.6517  -20.6850   -6.6124 C   0  0  0  0  0  0  0  0  0  0  0  0
   27.0719  -20.8267   -5.3048 C   0  0  0  0  0  0  0  0  0  0  0  0
   25.0899  -21.3254  -11.3097 N   0  0  0  0  0  0  0  0  0  0  0  0
   24.3752  -21.1289  -12.5541 C   0  0  1  0  0  0  0  0  0  0  0  0
   24.4225  -22.4651  -13.3081 C   0  0  0  0  0  0  0  0  0  0  0  0
   25.4269  -23.6498  -12.4086 S   0  0  0  0  0  0  0  0  0  0  0  0
   22.9788  -20.7002  -12.3319 C   0  0  0  0  0  0  0  0  0  0  0  0
   22.3315  -21.1199  -11.3412 O   0  0  0  0  0  0  0  0  0  0  0  0
   22.3139  -19.8089  -13.2122 N   0  0  0  0  0  0  0  0  0  0  0  0
   20.9639  -19.3039  -12.9488 C   0  0  1  0  0  0  0  0  0  0  0  0
   20.6401  -18.3412  -14.0500 C   0  0  0  0  0  0  0  0  0  0  0  0
   19.2835  -17.7282  -13.9751 C   0  0  0  0  0  0  0  0  0  0  0  0
   19.0160  -16.7335  -15.0739 C   0  0  0  0  0  0  0  0  0  0  0  0
   17.6459  -16.1042  -14.9504 C   0  0  0  0  0  0  0  0  0  0  0  0
   17.4644  -15.0134  -15.8740 N   0  0  0  0  0  0  0  0  0  0  0  0
   19.9960  -20.4170  -12.8577 C   0  0  0  0  0  0  0  0  0  0  0  0
   19.0292  -20.3392  -12.0363 O   0  0  0  0  0  0  0  0  0  0  0  0
   20.0563  -21.5692  -13.6143 O   0  0  0  0  0  0  0  0  0  0  0  0
  2  1  1  0
  2 12  2  0
  3  2  1  0
  4  3  2  0
  4  5  1  0
  5 11  2  0
  6  5  1  0
  7  9  1  0
  7  6  1  0
  7  8  1  6
  9 10  2  0
 11 12  1  0
 13  9  1  0
 13 14  1  0
 14 17  1  0
 15 16  1  0
 14 15  1  1
 17 18  2  0
 19 17  1  0
 19 20  1  0
 20 26  1  0
 20 21  1  6
 22 21  1  0
 23 22  1  0
 24 23  1  0
 25 24  1  0
 26 27  2  0
 26 28  1  0
M  END
$$$$
