NIY.pdb
     RDKit          3D

 29 29  0  0  1  0  0  0  0  0999 V2000
   14.2962  -14.9812   17.6173 N   0  0  0  0  0  0  0  0  0  0  0  0
   14.3492  -14.8230   19.0151 C   0  0  0  0  0  0  0  0  0  0  0  0
   15.3852  -15.1339   19.6390 O   0  0  0  0  0  0  0  0  0  0  0  0
   13.1837  -14.2892   19.7564 C   0  0  0  0  0  0  0  0  0  0  0  0
   12.4624  -15.5107   20.3299 C   0  0  2  0  0  0  0  0  0  0  0  0
   11.8640  -16.2941   19.2789 N   0  0  0  0  0  0  0  0  0  0  0  0
   11.4697  -15.0497   21.3298 C   0  0  0  0  0  0  0  0  0  0  0  0
   11.8522  -14.5334   22.3841 O   0  0  0  0  0  0  0  0  0  0  0  0
    7.6241  -12.7535   18.8805 C   0  0  0  0  0  0  0  0  0  0  0  0
    8.4745  -13.1665   20.0188 C   0  0  0  0  0  0  0  0  0  0  0  0
    7.9069  -14.2866   20.8567 C   0  0  2  0  0  0  0  0  0  0  0  0
    6.6891  -13.9145   21.6046 C   0  0  0  0  0  0  0  0  0  0  0  0
    9.0267  -14.6130   21.8612 C   0  0  2  0  0  0  0  0  0  0  0  0
   10.1039  -15.2153   21.0452 N   0  0  0  0  0  0  0  0  0  0  0  0
    8.6347  -15.6540   22.8359 C   0  0  0  0  0  0  0  0  0  0  0  0
    8.9092  -16.8837   22.5722 O   0  0  0  0  0  0  0  0  0  0  0  0
   11.9298  -14.2471   29.0328 O   0  0  0  0  0  0  0  0  0  0  0  0
   10.7960  -14.6885   28.3604 C   0  0  0  0  0  0  0  0  0  0  0  0
    9.8881  -13.8017   27.8026 C   0  0  0  0  0  0  0  0  0  0  0  0
    8.7657  -14.2269   27.1357 C   0  0  0  0  0  0  0  0  0  0  0  0
    8.5089  -15.5722   27.0016 C   0  0  0  0  0  0  0  0  0  0  0  0
    7.3024  -16.0444   26.3130 C   0  0  0  0  0  0  0  0  0  0  0  0
    7.6687  -16.5308   24.9311 C   0  0  2  0  0  0  0  0  0  0  0  0
    7.9734  -15.4025   24.0580 N   0  0  0  0  0  0  0  0  0  0  0  0
    6.6056  -17.3064   24.3050 C   0  0  0  0  0  0  0  0  0  0  0  0
    6.3920  -18.6347   24.5682 O   0  0  0  0  0  0  0  0  0  0  0  0
    9.3883  -16.4730   27.5432 C   0  0  0  0  0  0  0  0  0  0  0  0
   10.5298  -16.0343   28.2211 C   0  0  0  0  0  0  0  0  0  0  0  0
    5.8192  -16.7634   23.4682 O   0  0  0  0  0  0  0  0  0  0  0  0
  2  1  1  0
  2  3  2  0
  4  5  1  0
  4  2  1  0
  5  6  1  6
  7  5  1  0
  8  7  2  0
 10  9  1  0
 11 10  1  0
 11 13  1  0
 11 12  1  1
 13 14  1  6
 14  7  1  0
 15 24  1  0
 15 13  1  0
 16 15  2  0
 17 18  1  0
 18 28  2  0
 19 18  1  0
 19 20  2  0
 20 21  1  0
 21 27  2  0
 21 22  1  0
 23 22  1  1
 23 24  1  0
 23 25  1  0
 25 26  1  0
 28 27  1  0
 29 25  2  0
M  END
$$$$
