NIY.pdb
     RDKit          3D

 29 29  0  0  1  0  0  0  0  0999 V2000
   11.6841  -18.5162   15.6534 N   0  0  0  0  0  0  0  0  0  0  0  0
   11.6965  -18.4788   17.0605 C   0  0  0  0  0  0  0  0  0  0  0  0
   11.9221  -19.5210   17.7101 O   0  0  0  0  0  0  0  0  0  0  0  0
   11.4436  -17.2102   17.7814 C   0  0  0  0  0  0  0  0  0  0  0  0
   10.6443  -17.5942   19.0282 C   0  0  2  0  0  0  0  0  0  0  0  0
    9.3461  -18.1057   18.6686 N   0  0  0  0  0  0  0  0  0  0  0  0
   10.5618  -16.4139   19.9216 C   0  0  0  0  0  0  0  0  0  0  0  0
   11.5856  -15.7860   20.2079 O   0  0  0  0  0  0  0  0  0  0  0  0
    7.1988  -12.8059   18.9255 C   0  0  0  0  0  0  0  0  0  0  0  0
    8.2770  -13.5333   19.6311 C   0  0  0  0  0  0  0  0  0  0  0  0
    7.8510  -14.2026   20.9154 C   0  0  2  0  0  0  0  0  0  0  0  0
    7.4216  -13.2583   21.9666 C   0  0  0  0  0  0  0  0  0  0  0  0
    9.1143  -14.9396   21.3954 C   0  0  2  0  0  0  0  0  0  0  0  0
    9.3043  -16.0384   20.4230 N   0  0  0  0  0  0  0  0  0  0  0  0
    8.9293  -15.5957   22.7080 C   0  0  0  0  0  0  0  0  0  0  0  0
    8.1031  -16.5788   22.7977 O   0  0  0  0  0  0  0  0  0  0  0  0
    6.4185  -10.7074   27.8648 O   0  0  0  0  0  0  0  0  0  0  0  0
    6.7073  -11.9040   27.2188 C   0  0  0  0  0  0  0  0  0  0  0  0
    5.9541  -13.0480   27.4331 C   0  0  0  0  0  0  0  0  0  0  0  0
    6.2301  -14.2345   26.7997 C   0  0  0  0  0  0  0  0  0  0  0  0
    7.2831  -14.3194   25.9179 C   0  0  0  0  0  0  0  0  0  0  0  0
    7.6072  -15.5850   25.2501 C   0  0  0  0  0  0  0  0  0  0  0  0
    9.1069  -15.7406   25.1655 C   0  0  2  0  0  0  0  0  0  0  0  0
    9.6015  -15.2254   23.8934 N   0  0  0  0  0  0  0  0  0  0  0  0
    9.5385  -17.1274   25.2845 C   0  0  0  0  0  0  0  0  0  0  0  0
   10.2409  -17.7805   24.3049 O   0  0  0  0  0  0  0  0  0  0  0  0
    8.0461  -13.2048   25.6861 C   0  0  0  0  0  0  0  0  0  0  0  0
    7.7605  -11.9991   26.3338 C   0  0  0  0  0  0  0  0  0  0  0  0
    9.2693  -17.7986   26.3287 O   0  0  0  0  0  0  0  0  0  0  0  0
  2  1  1  0
  2  3  2  0
  4  5  1  0
  4  2  1  0
  5  6  1  6
  7  5  1  0
  8  7  2  0
 10  9  1  0
 11 10  1  0
 11 13  1  0
 11 12  1  1
 13 14  1  6
 14  7  1  0
 15 24  1  0
 15 13  1  0
 16 15  2  0
 17 18  1  0
 18 28  2  0
 19 18  1  0
 19 20  2  0
 20 21  1  0
 21 27  2  0
 21 22  1  0
 23 22  1  6
 23 24  1  0
 23 25  1  0
 25 26  1  0
 28 27  1  0
 29 25  2  0
M  END
$$$$
