NIY.pdb
     RDKit          3D

 29 29  0  0  1  0  0  0  0  0999 V2000
   14.3945  -16.1337   18.6426 N   0  0  0  0  0  0  0  0  0  0  0  0
   14.4979  -16.3557   20.0288 C   0  0  0  0  0  0  0  0  0  0  0  0
   15.4006  -17.0929   20.4767 O   0  0  0  0  0  0  0  0  0  0  0  0
   13.5425  -15.7209   20.9655 C   0  0  0  0  0  0  0  0  0  0  0  0
   12.5628  -14.9368   20.0900 C   0  0  2  0  0  0  0  0  0  0  0  0
   13.2354  -13.8665   19.3985 N   0  0  0  0  0  0  0  0  0  0  0  0
   11.4494  -14.4520   20.9405 C   0  0  0  0  0  0  0  0  0  0  0  0
   11.6209  -13.4823   21.6851 O   0  0  0  0  0  0  0  0  0  0  0  0
    7.1513  -13.4235   18.5441 C   0  0  0  0  0  0  0  0  0  0  0  0
    8.1449  -13.5887   19.6281 C   0  0  0  0  0  0  0  0  0  0  0  0
    7.8720  -14.7414   20.5639 C   0  0  2  0  0  0  0  0  0  0  0  0
    6.5774  -14.6452   21.2678 C   0  0  0  0  0  0  0  0  0  0  0  0
    9.0079  -14.6651   21.5999 C   0  0  2  0  0  0  0  0  0  0  0  0
   10.2144  -15.1185   20.8734 N   0  0  0  0  0  0  0  0  0  0  0  0
    8.8303  -15.6210   22.7145 C   0  0  0  0  0  0  0  0  0  0  0  0
    9.6187  -16.6357   22.7912 O   0  0  0  0  0  0  0  0  0  0  0  0
    7.7189  -10.4512   26.8416 O   0  0  0  0  0  0  0  0  0  0  0  0
    7.5359  -11.8107   26.6165 C   0  0  0  0  0  0  0  0  0  0  0  0
    6.3264  -12.3190   26.1688 C   0  0  0  0  0  0  0  0  0  0  0  0
    6.1353  -13.6597   25.9424 C   0  0  0  0  0  0  0  0  0  0  0  0
    7.1613  -14.5508   26.1589 C   0  0  0  0  0  0  0  0  0  0  0  0
    6.9680  -15.9895   25.9451 C   0  0  0  0  0  0  0  0  0  0  0  0
    7.8692  -16.4586   24.8279 C   0  0  2  0  0  0  0  0  0  0  0  0
    7.8483  -15.5065   23.7226 N   0  0  0  0  0  0  0  0  0  0  0  0
    7.4855  -17.7624   24.3022 C   0  0  0  0  0  0  0  0  0  0  0  0
    7.6849  -18.9343   24.9852 O   0  0  0  0  0  0  0  0  0  0  0  0
    8.3687  -14.0779   26.6021 C   0  0  0  0  0  0  0  0  0  0  0  0
    8.5577  -12.7116   26.8308 C   0  0  0  0  0  0  0  0  0  0  0  0
    6.9395  -17.8612   23.1596 O   0  0  0  0  0  0  0  0  0  0  0  0
  2  1  1  0
  2  3  2  0
  4  5  1  0
  4  2  1  0
  5  6  1  1
  7  5  1  0
  8  7  2  0
 10  9  1  0
 11 10  1  0
 11 13  1  0
 11 12  1  1
 13 14  1  6
 14  7  1  0
 15 24  1  0
 15 13  1  0
 16 15  2  0
 17 18  1  0
 18 28  2  0
 19 18  1  0
 19 20  2  0
 20 21  1  0
 21 27  2  0
 21 22  1  0
 23 22  1  1
 23 24  1  0
 23 25  1  0
 25 26  1  0
 28 27  1  0
 29 25  2  0
M  END
$$$$
