NIY.pdb
     RDKit          3D

 29 29  0  0  1  0  0  0  0  0999 V2000
   10.9078  -18.0934   15.2159 N   0  0  0  0  0  0  0  0  0  0  0  0
   11.5531  -18.1502   16.4657 C   0  0  0  0  0  0  0  0  0  0  0  0
   12.1456  -19.1923   16.8148 O   0  0  0  0  0  0  0  0  0  0  0  0
   11.5361  -16.9812   17.3747 C   0  0  0  0  0  0  0  0  0  0  0  0
   10.8136  -17.4500   18.6392 C   0  0  2  0  0  0  0  0  0  0  0  0
    9.5082  -17.9710   18.3215 N   0  0  0  0  0  0  0  0  0  0  0  0
   10.7562  -16.3216   19.5992 C   0  0  0  0  0  0  0  0  0  0  0  0
   11.8013  -15.8440   20.0509 O   0  0  0  0  0  0  0  0  0  0  0  0
    7.4329  -12.4722   18.7400 C   0  0  0  0  0  0  0  0  0  0  0  0
    8.4980  -13.2680   19.3893 C   0  0  0  0  0  0  0  0  0  0  0  0
    8.0598  -14.0222   20.6214 C   0  0  2  0  0  0  0  0  0  0  0  0
    7.6499  -13.1503   21.7407 C   0  0  0  0  0  0  0  0  0  0  0  0
    9.3086  -14.8175   21.0426 C   0  0  2  0  0  0  0  0  0  0  0  0
    9.4974  -15.8211   19.9721 N   0  0  0  0  0  0  0  0  0  0  0  0
    9.1004  -15.5932   22.2846 C   0  0  0  0  0  0  0  0  0  0  0  0
    8.3353  -16.6278   22.2474 O   0  0  0  0  0  0  0  0  0  0  0  0
    6.1581  -10.9118   27.4855 O   0  0  0  0  0  0  0  0  0  0  0  0
    6.4980  -12.0682   26.7930 C   0  0  0  0  0  0  0  0  0  0  0  0
    6.1403  -13.3256   27.2545 C   0  0  0  0  0  0  0  0  0  0  0  0
    6.4701  -14.4740   26.5780 C   0  0  0  0  0  0  0  0  0  0  0  0
    7.1785  -14.4039   25.4003 C   0  0  0  0  0  0  0  0  0  0  0  0
    7.5600  -15.6217   24.6763 C   0  0  0  0  0  0  0  0  0  0  0  0
    9.0581  -15.7996   24.7437 C   0  0  2  0  0  0  0  0  0  0  0  0
    9.6871  -15.2861   23.5318 N   0  0  0  0  0  0  0  0  0  0  0  0
    9.4551  -17.1933   24.8974 C   0  0  0  0  0  0  0  0  0  0  0  0
   10.0218  -17.6894   26.0429 O   0  0  0  0  0  0  0  0  0  0  0  0
    7.5465  -13.1745   24.9194 C   0  0  0  0  0  0  0  0  0  0  0  0
    7.2079  -12.0083   25.6124 C   0  0  0  0  0  0  0  0  0  0  0  0
    9.2869  -18.0196   23.9475 O   0  0  0  0  0  0  0  0  0  0  0  0
  2  1  1  0
  2  3  2  0
  4  5  1  0
  4  2  1  0
  5  6  1  6
  7  5  1  0
  8  7  2  0
 10  9  1  0
 11 10  1  0
 11 13  1  0
 11 12  1  1
 13 14  1  6
 14  7  1  0
 15 24  1  0
 15 13  1  0
 16 15  2  0
 17 18  1  0
 18 28  2  0
 19 18  1  0
 19 20  2  0
 20 21  1  0
 21 27  2  0
 21 22  1  0
 23 22  1  6
 23 24  1  0
 23 25  1  0
 25 26  1  0
 28 27  1  0
 29 25  2  0
M  END
$$$$
