NIY.pdb
     RDKit          3D

 29 29  0  0  1  0  0  0  0  0999 V2000
    7.7144  -19.9716   17.1554 N   0  0  0  0  0  0  0  0  0  0  0  0
    7.8956  -19.8786   18.5483 C   0  0  0  0  0  0  0  0  0  0  0  0
    7.1235  -20.4853   19.3195 O   0  0  0  0  0  0  0  0  0  0  0  0
    8.9976  -19.0648   19.1106 C   0  0  0  0  0  0  0  0  0  0  0  0
    8.9516  -17.7311   18.3623 C   0  0  2  0  0  0  0  0  0  0  0  0
    9.6740  -17.8150   17.1184 N   0  0  0  0  0  0  0  0  0  0  0  0
    9.4765  -16.6685   19.2531 C   0  0  0  0  0  0  0  0  0  0  0  0
   10.6740  -16.3705   19.2163 O   0  0  0  0  0  0  0  0  0  0  0  0
    6.9591  -12.1833   19.3102 C   0  0  0  0  0  0  0  0  0  0  0  0
    8.0135  -13.1682   19.6389 C   0  0  0  0  0  0  0  0  0  0  0  0
    7.8004  -13.9118   20.9352 C   0  0  2  0  0  0  0  0  0  0  0  0
    7.8331  -13.0469   22.1318 C   0  0  0  0  0  0  0  0  0  0  0  0
    8.9792  -14.8993   21.0034 C   0  0  2  0  0  0  0  0  0  0  0  0
    8.5841  -16.0222   20.1248 N   0  0  0  0  0  0  0  0  0  0  0  0
    9.1547  -15.4879   22.3489 C   0  0  0  0  0  0  0  0  0  0  0  0
    8.7067  -14.8439   23.3695 O   0  0  0  0  0  0  0  0  0  0  0  0
    7.9778  -20.6293   29.0218 O   0  0  0  0  0  0  0  0  0  0  0  0
    8.0399  -19.8346   27.8829 C   0  0  0  0  0  0  0  0  0  0  0  0
    7.4618  -20.2296   26.6864 C   0  0  0  0  0  0  0  0  0  0  0  0
    7.5165  -19.4522   25.5559 C   0  0  0  0  0  0  0  0  0  0  0  0
    8.1600  -18.2360   25.5833 C   0  0  0  0  0  0  0  0  0  0  0  0
    8.2488  -17.4029   24.3788 C   0  0  0  0  0  0  0  0  0  0  0  0
    9.6929  -17.2845   23.9533 C   0  0  2  0  0  0  0  0  0  0  0  0
    9.7836  -16.7251   22.6090 N   0  0  0  0  0  0  0  0  0  0  0  0
   10.3884  -18.5652   23.9526 C   0  0  0  0  0  0  0  0  0  0  0  0
   10.4179  -19.4015   22.8667 O   0  0  0  0  0  0  0  0  0  0  0  0
    8.7415  -17.8190   26.7520 C   0  0  0  0  0  0  0  0  0  0  0  0
    8.6826  -18.6148   27.9002 C   0  0  0  0  0  0  0  0  0  0  0  0
   11.0069  -18.9630   24.9882 O   0  0  0  0  0  0  0  0  0  0  0  0
  2  1  1  0
  2  3  2  0
  4  5  1  0
  4  2  1  0
  5  6  1  6
  7  5  1  0
  8  7  2  0
 10  9  1  0
 11 10  1  0
 11 13  1  0
 11 12  1  1
 13 14  1  6
 14  7  1  0
 15 24  1  0
 15 13  1  0
 16 15  2  0
 17 18  1  0
 18 28  2  0
 19 18  1  0
 19 20  2  0
 20 21  1  0
 21 27  2  0
 21 22  1  0
 23 22  1  6
 23 24  1  0
 23 25  1  0
 25 26  1  0
 28 27  1  0
 29 25  2  0
M  END
$$$$
