NIY.pdb
     RDKit          3D

 29 29  0  0  1  0  0  0  0  0999 V2000
    8.1423  -21.6752   20.1110 N   0  0  0  0  0  0  0  0  0  0  0  0
    9.2297  -21.0106   19.5134 C   0  0  0  0  0  0  0  0  0  0  0  0
    9.6667  -21.3974   18.4096 O   0  0  0  0  0  0  0  0  0  0  0  0
    9.8636  -19.8521   20.1836 C   0  0  0  0  0  0  0  0  0  0  0  0
    9.7110  -18.6781   19.2144 C   0  0  2  0  0  0  0  0  0  0  0  0
   10.5115  -18.8799   18.0333 N   0  0  0  0  0  0  0  0  0  0  0  0
   10.0572  -17.4254   19.9276 C   0  0  0  0  0  0  0  0  0  0  0  0
   11.2275  -17.0324   19.9487 O   0  0  0  0  0  0  0  0  0  0  0  0
    7.7395  -12.0059   20.5624 C   0  0  0  0  0  0  0  0  0  0  0  0
    8.5638  -13.1049   21.1122 C   0  0  0  0  0  0  0  0  0  0  0  0
    8.1555  -14.4865   20.6610 C   0  0  2  0  0  0  0  0  0  0  0  0
    6.8406  -14.9184   21.1763 C   0  0  0  0  0  0  0  0  0  0  0  0
    9.2432  -15.4101   21.2381 C   0  0  2  0  0  0  0  0  0  0  0  0
    9.0301  -16.7115   20.5674 N   0  0  0  0  0  0  0  0  0  0  0  0
    9.0638  -15.6715   22.6828 C   0  0  0  0  0  0  0  0  0  0  0  0
    8.2155  -16.5680   23.0489 O   0  0  0  0  0  0  0  0  0  0  0  0
    6.3281  -10.6402   27.4449 O   0  0  0  0  0  0  0  0  0  0  0  0
    6.7761  -11.8593   26.9492 C   0  0  0  0  0  0  0  0  0  0  0  0
    5.9408  -12.9625   26.8640 C   0  0  0  0  0  0  0  0  0  0  0  0
    6.3726  -14.1707   26.3753 C   0  0  0  0  0  0  0  0  0  0  0  0
    7.6725  -14.3197   25.9489 C   0  0  0  0  0  0  0  0  0  0  0  0
    8.1578  -15.6098   25.4460 C   0  0  0  0  0  0  0  0  0  0  0  0
    9.6183  -15.4914   25.0810 C   0  0  2  0  0  0  0  0  0  0  0  0
    9.7638  -15.0062   23.7129 N   0  0  0  0  0  0  0  0  0  0  0  0
   10.3310  -16.7583   25.1843 C   0  0  0  0  0  0  0  0  0  0  0  0
   10.3895  -17.4935   26.3400 O   0  0  0  0  0  0  0  0  0  0  0  0
    8.5219  -13.2468   26.0215 C   0  0  0  0  0  0  0  0  0  0  0  0
    8.0767  -12.0186   26.5199 C   0  0  0  0  0  0  0  0  0  0  0  0
   10.9417  -17.2377   24.1790 O   0  0  0  0  0  0  0  0  0  0  0  0
  2  1  1  0
  2  3  2  0
  4  5  1  0
  4  2  1  0
  5  6  1  6
  7  5  1  0
  8  7  2  0
 10  9  1  0
 11 10  1  0
 11 13  1  0
 11 12  1  1
 13 14  1  6
 14  7  1  0
 15 24  1  0
 15 13  1  0
 16 15  2  0
 17 18  1  0
 18 28  2  0
 19 18  1  0
 19 20  2  0
 20 21  1  0
 21 27  2  0
 21 22  1  0
 23 22  1  6
 23 24  1  0
 23 25  1  0
 25 26  1  0
 28 27  1  0
 29 25  2  0
M  END
$$$$
