NIY.pdb
     RDKit          3D

 29 29  0  0  1  0  0  0  0  0999 V2000
    9.8050  -20.1673   17.1729 N   0  0  0  0  0  0  0  0  0  0  0  0
   10.9788  -20.1470   17.9496 C   0  0  0  0  0  0  0  0  0  0  0  0
   11.8532  -21.0224   17.7811 O   0  0  0  0  0  0  0  0  0  0  0  0
   11.1882  -19.0934   18.9689 C   0  0  0  0  0  0  0  0  0  0  0  0
   10.0574  -18.0842   18.7600 C   0  0  2  0  0  0  0  0  0  0  0  0
   10.0306  -17.6178   17.3969 N   0  0  0  0  0  0  0  0  0  0  0  0
   10.2209  -16.9793   19.7349 C   0  0  0  0  0  0  0  0  0  0  0  0
   11.3480  -16.5433   19.9877 O   0  0  0  0  0  0  0  0  0  0  0  0
    6.6142  -13.2343   19.1501 C   0  0  0  0  0  0  0  0  0  0  0  0
    7.8272  -13.9525   19.5999 C   0  0  0  0  0  0  0  0  0  0  0  0
    7.7178  -14.5802   20.9684 C   0  0  2  0  0  0  0  0  0  0  0  0
    7.4696  -13.6087   22.0526 C   0  0  0  0  0  0  0  0  0  0  0  0
    9.0913  -15.2372   21.1945 C   0  0  2  0  0  0  0  0  0  0  0  0
    9.0734  -16.4527   20.3512 N   0  0  0  0  0  0  0  0  0  0  0  0
    9.2743  -15.7166   22.5818 C   0  0  0  0  0  0  0  0  0  0  0  0
    8.5610  -16.7057   22.9940 O   0  0  0  0  0  0  0  0  0  0  0  0
   10.4561  -16.2369   31.2016 O   0  0  0  0  0  0  0  0  0  0  0  0
   10.5412  -15.8380   29.8727 C   0  0  0  0  0  0  0  0  0  0  0  0
   11.1325  -16.6390   28.9079 C   0  0  0  0  0  0  0  0  0  0  0  0
   11.2209  -16.2551   27.5926 C   0  0  0  0  0  0  0  0  0  0  0  0
   10.7142  -15.0404   27.1909 C   0  0  0  0  0  0  0  0  0  0  0  0
   10.8210  -14.6036   25.7943 C   0  0  0  0  0  0  0  0  0  0  0  0
   10.1077  -15.5909   24.9015 C   0  0  2  0  0  0  0  0  0  0  0  0
   10.1884  -15.1679   23.5076 N   0  0  0  0  0  0  0  0  0  0  0  0
    8.6990  -15.7444   25.2413 C   0  0  0  0  0  0  0  0  0  0  0  0
    7.7343  -14.8468   24.8626 O   0  0  0  0  0  0  0  0  0  0  0  0
   10.1242  -14.2267   28.1224 C   0  0  0  0  0  0  0  0  0  0  0  0
   10.0367  -14.6227   29.4605 C   0  0  0  0  0  0  0  0  0  0  0  0
    8.3053  -16.7424   25.9213 O   0  0  0  0  0  0  0  0  0  0  0  0
  2  1  1  0
  2  3  2  0
  4  5  1  0
  4  2  1  0
  5  6  1  6
  7  5  1  0
  8  7  2  0
 10  9  1  0
 11 10  1  0
 11 13  1  0
 11 12  1  1
 13 14  1  6
 14  7  1  0
 15 24  1  0
 15 13  1  0
 16 15  2  0
 17 18  1  0
 18 28  2  0
 19 18  1  0
 19 20  2  0
 20 21  1  0
 21 27  2  0
 21 22  1  0
 23 22  1  1
 23 24  1  0
 23 25  1  0
 25 26  1  0
 28 27  1  0
 29 25  2  0
M  END
$$$$
