NIY.pdb
     RDKit          3D

 29 29  0  0  1  0  0  0  0  0999 V2000
    5.5478  -19.8967   18.9351 N   0  0  0  0  0  0  0  0  0  0  0  0
    5.8311  -19.9755   20.3117 C   0  0  0  0  0  0  0  0  0  0  0  0
    5.1877  -20.7626   21.0367 O   0  0  0  0  0  0  0  0  0  0  0  0
    6.8891  -19.1305   20.9115 C   0  0  0  0  0  0  0  0  0  0  0  0
    7.3462  -18.1861   19.7979 C   0  0  2  0  0  0  0  0  0  0  0  0
    7.9316  -18.9235   18.7072 N   0  0  0  0  0  0  0  0  0  0  0  0
    8.2794  -17.1888   20.3745 C   0  0  0  0  0  0  0  0  0  0  0  0
    9.4749  -17.4681   20.5052 O   0  0  0  0  0  0  0  0  0  0  0  0
    7.2500  -12.3136   18.9528 C   0  0  0  0  0  0  0  0  0  0  0  0
    7.9470  -13.4797   19.5392 C   0  0  0  0  0  0  0  0  0  0  0  0
    7.8782  -13.5644   21.0448 C   0  0  2  0  0  0  0  0  0  0  0  0
    8.5640  -12.4546   21.7370 C   0  0  0  0  0  0  0  0  0  0  0  0
    8.5986  -14.8819   21.3833 C   0  0  2  0  0  0  0  0  0  0  0  0
    7.7700  -15.9375   20.7604 N   0  0  0  0  0  0  0  0  0  0  0  0
    8.5984  -15.1776   22.8325 C   0  0  0  0  0  0  0  0  0  0  0  0
    7.6258  -14.7400   23.5534 O   0  0  0  0  0  0  0  0  0  0  0  0
    5.8114  -11.3233   27.1564 O   0  0  0  0  0  0  0  0  0  0  0  0
    6.4342  -12.5031   26.7656 C   0  0  0  0  0  0  0  0  0  0  0  0
    5.7064  -13.6310   26.4189 C   0  0  0  0  0  0  0  0  0  0  0  0
    6.3113  -14.8008   26.0307 C   0  0  0  0  0  0  0  0  0  0  0  0
    7.6838  -14.8845   25.9747 C   0  0  0  0  0  0  0  0  0  0  0  0
    8.3477  -16.1335   25.5850 C   0  0  0  0  0  0  0  0  0  0  0  0
    9.6834  -15.8188   24.9546 C   0  0  2  0  0  0  0  0  0  0  0  0
    9.5971  -15.9184   23.5017 N   0  0  0  0  0  0  0  0  0  0  0  0
   10.7437  -16.7129   25.4019 C   0  0  0  0  0  0  0  0  0  0  0  0
   11.1783  -16.7695   26.7009 O   0  0  0  0  0  0  0  0  0  0  0  0
    8.4300  -13.7856   26.3122 C   0  0  0  0  0  0  0  0  0  0  0  0
    7.8086  -12.5969   26.7067 C   0  0  0  0  0  0  0  0  0  0  0  0
   11.3198  -17.4911   24.5797 O   0  0  0  0  0  0  0  0  0  0  0  0
  2  1  1  0
  2  3  2  0
  4  5  1  0
  4  2  1  0
  5  6  1  6
  7  5  1  0
  8  7  2  0
 10  9  1  0
 11 10  1  0
 11 13  1  0
 11 12  1  1
 13 14  1  6
 14  7  1  0
 15 24  1  0
 15 13  1  0
 16 15  2  0
 17 18  1  0
 18 28  2  0
 19 18  1  0
 19 20  2  0
 20 21  1  0
 21 27  2  0
 21 22  1  0
 23 22  1  1
 23 24  1  0
 23 25  1  0
 25 26  1  0
 28 27  1  0
 29 25  2  0
M  END
$$$$
