NIY.pdb
     RDKit          3D

 29 29  0  0  1  0  0  0  0  0999 V2000
   10.6592  -19.7355   17.5436 N   0  0  0  0  0  0  0  0  0  0  0  0
   11.8615  -19.5043   18.2383 C   0  0  0  0  0  0  0  0  0  0  0  0
   12.7613  -20.3701   18.2328 O   0  0  0  0  0  0  0  0  0  0  0  0
   12.0709  -18.2392   18.9789 C   0  0  0  0  0  0  0  0  0  0  0  0
   10.7552  -17.4673   18.8611 C   0  0  2  0  0  0  0  0  0  0  0  0
   10.6174  -16.8843   17.5505 N   0  0  0  0  0  0  0  0  0  0  0  0
   10.7009  -16.4538   19.9418 C   0  0  0  0  0  0  0  0  0  0  0  0
   11.7478  -16.0137   20.4260 O   0  0  0  0  0  0  0  0  0  0  0  0
    6.8121  -13.0091   19.0029 C   0  0  0  0  0  0  0  0  0  0  0  0
    8.0467  -13.5852   19.5804 C   0  0  0  0  0  0  0  0  0  0  0  0
    7.8537  -14.3014   20.8952 C   0  0  2  0  0  0  0  0  0  0  0  0
    7.3828  -13.4266   21.9879 C   0  0  0  0  0  0  0  0  0  0  0  0
    9.2563  -14.8275   21.2492 C   0  0  2  0  0  0  0  0  0  0  0  0
    9.4428  -16.0171   20.3896 N   0  0  0  0  0  0  0  0  0  0  0  0
    9.3472  -15.3220   22.6402 C   0  0  0  0  0  0  0  0  0  0  0  0
    8.7949  -16.4469   22.9345 O   0  0  0  0  0  0  0  0  0  0  0  0
   10.7901  -16.7860   31.1230 O   0  0  0  0  0  0  0  0  0  0  0  0
   10.7950  -16.2095   29.8580 C   0  0  0  0  0  0  0  0  0  0  0  0
   11.4184  -16.8206   28.7811 C   0  0  0  0  0  0  0  0  0  0  0  0
   11.4284  -16.2605   27.5276 C   0  0  0  0  0  0  0  0  0  0  0  0
   10.8068  -15.0532   27.3044 C   0  0  0  0  0  0  0  0  0  0  0  0
   10.8278  -14.4284   25.9771 C   0  0  0  0  0  0  0  0  0  0  0  0
    9.9980  -15.2504   25.0199 C   0  0  2  0  0  0  0  0  0  0  0  0
   10.0064  -14.6478   23.6913 N   0  0  0  0  0  0  0  0  0  0  0  0
    8.6097  -15.3799   25.4435 C   0  0  0  0  0  0  0  0  0  0  0  0
    8.1390  -16.4555   26.1513 O   0  0  0  0  0  0  0  0  0  0  0  0
   10.1825  -14.4249   28.3501 C   0  0  0  0  0  0  0  0  0  0  0  0
   10.1753  -15.0000   29.6245 C   0  0  0  0  0  0  0  0  0  0  0  0
    7.7631  -14.4759   25.1615 O   0  0  0  0  0  0  0  0  0  0  0  0
  2  1  1  0
  2  3  2  0
  4  5  1  0
  4  2  1  0
  5  6  1  6
  7  5  1  0
  8  7  2  0
 10  9  1  0
 11 10  1  0
 11 13  1  0
 11 12  1  1
 13 14  1  6
 14  7  1  0
 15 24  1  0
 15 13  1  0
 16 15  2  0
 17 18  1  0
 18 28  2  0
 19 18  1  0
 19 20  2  0
 20 21  1  0
 21 27  2  0
 21 22  1  0
 23 22  1  1
 23 24  1  0
 23 25  1  0
 25 26  1  0
 28 27  1  0
 29 25  2  0
M  END
$$$$
