NIY.pdb
     RDKit          3D

 29 29  0  0  1  0  0  0  0  0999 V2000
    7.6293  -19.9638   16.7824 N   0  0  0  0  0  0  0  0  0  0  0  0
    8.0695  -20.3806   18.0529 C   0  0  0  0  0  0  0  0  0  0  0  0
    7.9127  -21.5671   18.4090 O   0  0  0  0  0  0  0  0  0  0  0  0
    8.7197  -19.4219   18.9754 C   0  0  0  0  0  0  0  0  0  0  0  0
    8.7257  -18.0794   18.2414 C   0  0  2  0  0  0  0  0  0  0  0  0
    9.3949  -18.1922   16.9703 N   0  0  0  0  0  0  0  0  0  0  0  0
    9.3462  -17.0601   19.1211 C   0  0  0  0  0  0  0  0  0  0  0  0
   10.5753  -16.9975   19.2190 O   0  0  0  0  0  0  0  0  0  0  0  0
    6.5098  -12.6455   19.5393 C   0  0  0  0  0  0  0  0  0  0  0  0
    7.6667  -13.5621   19.6443 C   0  0  0  0  0  0  0  0  0  0  0  0
    7.8411  -14.2053   20.9989 C   0  0  2  0  0  0  0  0  0  0  0  0
    8.1954  -13.2530   22.0706 C   0  0  0  0  0  0  0  0  0  0  0  0
    9.0081  -15.1898   20.8031 C   0  0  2  0  0  0  0  0  0  0  0  0
    8.5066  -16.1825   19.8274 N   0  0  0  0  0  0  0  0  0  0  0  0
    9.3204  -15.9570   22.0284 C   0  0  0  0  0  0  0  0  0  0  0  0
    8.4127  -16.7203   22.5290 O   0  0  0  0  0  0  0  0  0  0  0  0
    6.4192  -20.8197   26.1552 O   0  0  0  0  0  0  0  0  0  0  0  0
    7.4605  -20.1854   25.4875 C   0  0  0  0  0  0  0  0  0  0  0  0
    7.2321  -19.1348   24.6123 C   0  0  0  0  0  0  0  0  0  0  0  0
    8.2532  -18.5008   23.9484 C   0  0  0  0  0  0  0  0  0  0  0  0
    9.5559  -18.9009   24.1395 C   0  0  0  0  0  0  0  0  0  0  0  0
   10.6574  -18.2507   23.4206 C   0  0  0  0  0  0  0  0  0  0  0  0
   10.7551  -16.8058   23.8485 C   0  0  2  0  0  0  0  0  0  0  0  0
   10.5593  -15.9214   22.7049 N   0  0  0  0  0  0  0  0  0  0  0  0
   12.0419  -16.4807   24.4501 C   0  0  0  0  0  0  0  0  0  0  0  0
   12.9275  -15.5948   23.8929 O   0  0  0  0  0  0  0  0  0  0  0  0
    9.8127  -19.9374   24.9985 C   0  0  0  0  0  0  0  0  0  0  0  0
    8.7690  -20.5792   25.6720 C   0  0  0  0  0  0  0  0  0  0  0  0
   12.3985  -17.0239   25.5415 O   0  0  0  0  0  0  0  0  0  0  0  0
  2  1  1  0
  2  3  2  0
  4  5  1  0
  4  2  1  0
  5  6  1  6
  7  5  1  0
  8  7  2  0
 10  9  1  0
 11 10  1  0
 11 13  1  0
 11 12  1  1
 13 14  1  6
 14  7  1  0
 15 24  1  0
 15 13  1  0
 16 15  2  0
 17 18  1  0
 18 28  2  0
 19 18  1  0
 19 20  2  0
 20 21  1  0
 21 27  2  0
 21 22  1  0
 23 22  1  6
 23 24  1  0
 23 25  1  0
 25 26  1  0
 28 27  1  0
 29 25  2  0
M  END
$$$$
