NIY.pdb
     RDKit          3D

 29 29  0  0  1  0  0  0  0  0999 V2000
   12.8595  -20.4473   18.2598 N   0  0  0  0  0  0  0  0  0  0  0  0
   11.7691  -19.9579   19.0035 C   0  0  0  0  0  0  0  0  0  0  0  0
   10.6672  -20.5430   18.9532 O   0  0  0  0  0  0  0  0  0  0  0  0
   11.9162  -18.7508   19.8486 C   0  0  0  0  0  0  0  0  0  0  0  0
   10.9563  -17.7142   19.2614 C   0  0  2  0  0  0  0  0  0  0  0  0
   11.4064  -17.2735   17.9654 N   0  0  0  0  0  0  0  0  0  0  0  0
   10.8179  -16.5958   20.2247 C   0  0  0  0  0  0  0  0  0  0  0  0
   11.8259  -16.0661   20.7019 O   0  0  0  0  0  0  0  0  0  0  0  0
    6.6609  -13.3430   19.2473 C   0  0  0  0  0  0  0  0  0  0  0  0
    7.9406  -13.8516   19.7888 C   0  0  0  0  0  0  0  0  0  0  0  0
    7.8248  -14.5715   21.1106 C   0  0  2  0  0  0  0  0  0  0  0  0
    7.3144  -13.7255   22.2083 C   0  0  0  0  0  0  0  0  0  0  0  0
    9.2679  -14.9945   21.4391 C   0  0  2  0  0  0  0  0  0  0  0  0
    9.5264  -16.1647   20.5715 N   0  0  0  0  0  0  0  0  0  0  0  0
    9.4181  -15.4852   22.8263 C   0  0  0  0  0  0  0  0  0  0  0  0
    8.9864  -16.6626   23.1165 O   0  0  0  0  0  0  0  0  0  0  0  0
   10.7297  -16.7238   31.3285 O   0  0  0  0  0  0  0  0  0  0  0  0
   10.8009  -16.1936   30.0454 C   0  0  0  0  0  0  0  0  0  0  0  0
   10.2692  -14.9501   29.7402 C   0  0  0  0  0  0  0  0  0  0  0  0
   10.3350  -14.4168   28.4767 C   0  0  0  0  0  0  0  0  0  0  0  0
   10.9431  -15.1179   27.4607 C   0  0  0  0  0  0  0  0  0  0  0  0
   11.0017  -14.5739   26.0993 C   0  0  0  0  0  0  0  0  0  0  0  0
   10.0801  -15.3639   25.2009 C   0  0  2  0  0  0  0  0  0  0  0  0
   10.0113  -14.7529   23.8779 N   0  0  0  0  0  0  0  0  0  0  0  0
    8.7226  -15.4539   25.7230 C   0  0  0  0  0  0  0  0  0  0  0  0
    7.7470  -14.5340   25.4373 O   0  0  0  0  0  0  0  0  0  0  0  0
   11.4776  -16.3502   27.7321 C   0  0  0  0  0  0  0  0  0  0  0  0
   11.4079  -16.8885   29.0206 C   0  0  0  0  0  0  0  0  0  0  0  0
    8.3874  -16.4139   26.4842 O   0  0  0  0  0  0  0  0  0  0  0  0
  2  1  1  0
  2  3  2  0
  4  5  1  0
  4  2  1  0
  5  6  1  6
  7  5  1  0
  8  7  2  0
 10  9  1  0
 11 10  1  0
 11 13  1  0
 11 12  1  1
 13 14  1  6
 14  7  1  0
 15 24  1  0
 15 13  1  0
 16 15  2  0
 17 18  1  0
 18 28  2  0
 19 18  1  0
 19 20  2  0
 20 21  1  0
 21 27  2  0
 21 22  1  0
 23 22  1  1
 23 24  1  0
 23 25  1  0
 25 26  1  0
 28 27  1  0
 29 25  2  0
M  END
$$$$
