NIY.pdb
     RDKit          3D

 29 29  0  0  1  0  0  0  0  0999 V2000
   12.6293  -19.8100   18.3006 N   0  0  0  0  0  0  0  0  0  0  0  0
   11.7150  -18.8443   17.8392 C   0  0  0  0  0  0  0  0  0  0  0  0
   11.0505  -19.0590   16.8041 O   0  0  0  0  0  0  0  0  0  0  0  0
   11.5324  -17.5706   18.5722 C   0  0  0  0  0  0  0  0  0  0  0  0
   10.6518  -17.9083   19.7770 C   0  0  2  0  0  0  0  0  0  0  0  0
    9.3409  -18.3303   19.3528 N   0  0  0  0  0  0  0  0  0  0  0  0
   10.6057  -16.7307   20.6764 C   0  0  0  0  0  0  0  0  0  0  0  0
   11.6563  -16.2178   21.0733 O   0  0  0  0  0  0  0  0  0  0  0  0
    7.0547  -13.1785   19.4915 C   0  0  0  0  0  0  0  0  0  0  0  0
    8.1619  -13.9245   20.1295 C   0  0  0  0  0  0  0  0  0  0  0  0
    7.8743  -14.4036   21.5318 C   0  0  2  0  0  0  0  0  0  0  0  0
    7.5519  -13.3176   22.4793 C   0  0  0  0  0  0  0  0  0  0  0  0
    9.1837  -15.0793   21.9772 C   0  0  2  0  0  0  0  0  0  0  0  0
    9.3511  -16.2250   21.0562 N   0  0  0  0  0  0  0  0  0  0  0  0
    9.0922  -15.6661   23.3318 C   0  0  0  0  0  0  0  0  0  0  0  0
    8.2896  -16.6536   23.5256 O   0  0  0  0  0  0  0  0  0  0  0  0
    6.3445  -10.4057   26.7263 O   0  0  0  0  0  0  0  0  0  0  0  0
    6.7578  -11.7219   26.5546 C   0  0  0  0  0  0  0  0  0  0  0  0
    8.0657  -12.1125   26.7971 C   0  0  0  0  0  0  0  0  0  0  0  0
    8.4842  -13.4097   26.6316 C   0  0  0  0  0  0  0  0  0  0  0  0
    7.5970  -14.3745   26.2122 C   0  0  0  0  0  0  0  0  0  0  0  0
    8.0321  -15.7607   26.0072 C   0  0  0  0  0  0  0  0  0  0  0  0
    9.5214  -15.7900   25.7591 C   0  0  2  0  0  0  0  0  0  0  0  0
    9.8312  -15.2238   24.4508 N   0  0  0  0  0  0  0  0  0  0  0  0
   10.0755  -17.1370   25.8059 C   0  0  0  0  0  0  0  0  0  0  0  0
   10.7813  -17.6937   24.7708 O   0  0  0  0  0  0  0  0  0  0  0  0
    6.2972  -14.0182   25.9641 C   0  0  0  0  0  0  0  0  0  0  0  0
    5.8766  -12.6957   26.1345 C   0  0  0  0  0  0  0  0  0  0  0  0
    9.9172  -17.8634   26.8359 O   0  0  0  0  0  0  0  0  0  0  0  0
  2  1  1  0
  2  3  2  0
  4  5  1  0
  4  2  1  0
  5  6  1  6
  7  5  1  0
  8  7  2  0
 10  9  1  0
 11 10  1  0
 11 13  1  0
 11 12  1  1
 13 14  1  6
 14  7  1  0
 15 24  1  0
 15 13  1  0
 16 15  2  0
 17 18  1  0
 18 28  2  0
 19 18  1  0
 19 20  2  0
 20 21  1  0
 21 27  2  0
 21 22  1  0
 23 22  1  6
 23 24  1  0
 23 25  1  0
 25 26  1  0
 28 27  1  0
 29 25  2  0
M  END
$$$$
