NIY.pdb
     RDKit          3D

 29 29  0  0  1  0  0  0  0  0999 V2000
   10.5193  -18.8497   14.4792 N   0  0  0  0  0  0  0  0  0  0  0  0
    9.7288  -17.8302   15.0427 C   0  0  0  0  0  0  0  0  0  0  0  0
    8.5879  -17.6031   14.5892 O   0  0  0  0  0  0  0  0  0  0  0  0
   10.2391  -17.0208   16.1730 C   0  0  0  0  0  0  0  0  0  0  0  0
    9.5987  -17.6138   17.4297 C   0  0  2  0  0  0  0  0  0  0  0  0
    8.1695  -17.7174   17.2777 N   0  0  0  0  0  0  0  0  0  0  0  0
    9.9869  -16.7855   18.5964 C   0  0  0  0  0  0  0  0  0  0  0  0
   11.1758  -16.6902   18.9153 O   0  0  0  0  0  0  0  0  0  0  0  0
    6.8903  -12.5977   19.2346 C   0  0  0  0  0  0  0  0  0  0  0  0
    8.0509  -13.5015   19.3951 C   0  0  0  0  0  0  0  0  0  0  0  0
    8.0056  -14.3739   20.6263 C   0  0  2  0  0  0  0  0  0  0  0  0
    8.0926  -13.6218   21.8943 C   0  0  0  0  0  0  0  0  0  0  0  0
    9.2465  -15.2755   20.4972 C   0  0  2  0  0  0  0  0  0  0  0  0
    8.9773  -16.1235   19.3151 N   0  0  0  0  0  0  0  0  0  0  0  0
    9.3945  -16.2105   21.6337 C   0  0  0  0  0  0  0  0  0  0  0  0
    8.5288  -17.1524   21.7772 O   0  0  0  0  0  0  0  0  0  0  0  0
   12.3130  -23.0095   25.6630 O   0  0  0  0  0  0  0  0  0  0  0  0
   11.9787  -21.9132   24.8763 C   0  0  0  0  0  0  0  0  0  0  0  0
   12.9417  -21.1827   24.1975 C   0  0  0  0  0  0  0  0  0  0  0  0
   12.6224  -20.0990   23.4173 C   0  0  0  0  0  0  0  0  0  0  0  0
   11.3110  -19.7029   23.2868 C   0  0  0  0  0  0  0  0  0  0  0  0
   10.9538  -18.5332   22.4764 C   0  0  0  0  0  0  0  0  0  0  0  0
   10.7169  -17.3470   23.3805 C   0  0  2  0  0  0  0  0  0  0  0  0
   10.4309  -16.1539   22.5911 N   0  0  0  0  0  0  0  0  0  0  0  0
   11.8584  -17.0531   24.2375 C   0  0  0  0  0  0  0  0  0  0  0  0
   12.0099  -17.5839   25.4924 O   0  0  0  0  0  0  0  0  0  0  0  0
   10.3367  -20.4056   23.9465 C   0  0  0  0  0  0  0  0  0  0  0  0
   10.6676  -21.5084   24.7396 C   0  0  0  0  0  0  0  0  0  0  0  0
   12.7773  -16.2710   23.8408 O   0  0  0  0  0  0  0  0  0  0  0  0
  2  1  1  0
  2  3  2  0
  4  5  1  0
  4  2  1  0
  5  6  1  6
  7  5  1  0
  8  7  2  0
 10  9  1  0
 11 10  1  0
 11 13  1  0
 11 12  1  1
 13 14  1  6
 14  7  1  0
 15 24  1  0
 15 13  1  0
 16 15  2  0
 17 18  1  0
 18 28  2  0
 19 18  1  0
 19 20  2  0
 20 21  1  0
 21 27  2  0
 21 22  1  0
 23 22  1  6
 23 24  1  0
 23 25  1  0
 25 26  1  0
 28 27  1  0
 29 25  2  0
M  END
$$$$
