ITS.pdb
     RDKit          3D

 22 21  0  0  1  0  0  0  0  0999 V2000
   11.3381  -11.8936  -10.5152 C   0  0  0  0  0  0  0  0  0  0  0  0
   12.5898  -12.3554  -11.2832 C   0  0  0  0  0  0  0  0  0  0  0  0
   13.5053  -11.1723  -11.3202 C   0  0  2  0  0  0  0  0  0  0  0  0
   12.7520   -9.9036  -11.6718 C   0  0  0  0  0  0  0  0  0  0  0  0
   14.7548  -11.3360  -12.1192 C   0  0  2  0  0  0  0  0  0  0  0  0
   15.4858  -12.4437  -11.4424 N   0  0  0  0  0  0  0  0  0  0  0  0
   15.6380  -10.1477  -12.1564 C   0  0  0  0  0  0  0  0  0  0  0  0
   16.1286   -9.6514  -11.0814 O   0  0  0  0  0  0  0  0  0  0  0  0
   18.9364   -9.6360  -13.5760 C   0  0  0  0  0  0  0  0  0  0  0  0
   18.0507   -8.6047  -14.2143 C   0  0  1  0  0  0  0  0  0  0  0  0
   17.5678   -9.0935  -15.4061 O   0  0  0  0  0  0  0  0  0  0  0  0
   16.8434   -8.2696  -13.3099 C   0  0  2  0  0  0  0  0  0  0  0  0
   16.0264   -9.4580  -13.3385 N   0  0  0  0  0  0  0  0  0  0  0  0
   16.2218   -7.0480  -13.7951 C   0  0  0  0  0  0  0  0  0  0  0  0
   15.2934   -7.2107  -14.6620 O   0  0  0  0  0  0  0  0  0  0  0  0
   14.1808   -4.1548  -12.2492 O   0  0  0  0  0  0  0  0  0  0  0  0
   15.2630   -3.6508  -12.9383 C   0  0  0  0  0  0  0  0  0  0  0  0
   15.8063   -4.5765  -13.9743 C   0  0  2  0  0  0  0  0  0  0  0  0
   16.5117   -5.7213  -13.4321 N   0  0  0  0  0  0  0  0  0  0  0  0
   16.8043   -3.7985  -14.7932 C   0  0  0  0  0  0  0  0  0  0  0  0
   16.4869   -2.7857  -15.4503 O   0  0  0  0  0  0  0  0  0  0  0  0
   18.1408   -4.1918  -14.8450 O   0  0  0  0  0  0  0  0  0  0  0  0
  2  1  1  0
  3  5  1  0
  3  2  1  0
  3  4  1  6
  5  7  1  0
  5  6  1  1
  7  8  2  0
 10  9  1  1
 10 12  1  0
 11 10  1  0
 12 13  1  6
 13  7  1  0
 14 12  1  0
 14 15  2  0
 16 17  1  0
 18 17  1  1
 18 19  1  0
 18 20  1  0
 19 14  1  0
 20 21  2  0
 20 22  1  0
M  END
$$$$
