ITS.pdb
     RDKit          3D

 22 21  0  0  1  0  0  0  0  0999 V2000
   17.4045  -13.8430  -14.9484 C   0  0  0  0  0  0  0  0  0  0  0  0
   18.1381  -13.7068  -16.2948 C   0  0  0  0  0  0  0  0  0  0  0  0
   18.9696  -12.4677  -16.1828 C   0  0  2  0  0  0  0  0  0  0  0  0
   18.1342  -11.2820  -15.7390 C   0  0  0  0  0  0  0  0  0  0  0  0
   19.8343  -12.1511  -17.3569 C   0  0  2  0  0  0  0  0  0  0  0  0
   20.7299  -13.3343  -17.4882 N   0  0  0  0  0  0  0  0  0  0  0  0
   20.6767  -10.9418  -17.2100 C   0  0  0  0  0  0  0  0  0  0  0  0
   21.7872  -10.9800  -16.5713 O   0  0  0  0  0  0  0  0  0  0  0  0
   21.9591   -6.5023  -18.8822 C   0  0  0  0  0  0  0  0  0  0  0  0
   21.0631   -7.7076  -18.8770 C   0  0  1  0  0  0  0  0  0  0  0  0
   21.3965   -8.5276  -19.9301 O   0  0  0  0  0  0  0  0  0  0  0  0
   21.2243   -8.5167  -17.5705 C   0  0  2  0  0  0  0  0  0  0  0  0
   20.3623   -9.6604  -17.7420 N   0  0  0  0  0  0  0  0  0  0  0  0
   20.9259   -7.6476  -16.4436 C   0  0  0  0  0  0  0  0  0  0  0  0
   19.7518   -7.7738  -15.9483 O   0  0  0  0  0  0  0  0  0  0  0  0
   21.3829   -6.5000  -12.1655 O   0  0  0  0  0  0  0  0  0  0  0  0
   21.5655   -7.0743  -13.4052 C   0  0  0  0  0  0  0  0  0  0  0  0
   21.4855   -6.1078  -14.5387 C   0  0  2  0  0  0  0  0  0  0  0  0
   21.7611   -6.6942  -15.8357 N   0  0  0  0  0  0  0  0  0  0  0  0
   22.5373   -5.0536  -14.3055 C   0  0  0  0  0  0  0  0  0  0  0  0
   23.5771   -4.9819  -14.9925 O   0  0  0  0  0  0  0  0  0  0  0  0
   22.3808   -4.1057  -13.2955 O   0  0  0  0  0  0  0  0  0  0  0  0
  2  1  1  0
  3  5  1  0
  3  2  1  0
  3  4  1  6
  5  7  1  0
  5  6  1  1
  7  8  2  0
 10  9  1  1
 10 12  1  0
 11 10  1  0
 12 13  1  6
 13  7  1  0
 14 12  1  0
 14 15  2  0
 16 17  1  0
 18 17  1  1
 18 19  1  0
 18 20  1  0
 19 14  1  0
 20 21  2  0
 20 22  1  0
M  END
$$$$
