ITS.pdb
     RDKit          3D

 22 21  0  0  1  0  0  0  0  0999 V2000
   22.5878  -12.3102  -13.9036 C   0  0  0  0  0  0  0  0  0  0  0  0
   23.2067  -13.1031  -15.0689 C   0  0  0  0  0  0  0  0  0  0  0  0
   22.1950  -13.0653  -16.1708 C   0  0  2  0  0  0  0  0  0  0  0  0
   21.5333  -14.4173  -16.3578 C   0  0  0  0  0  0  0  0  0  0  0  0
   22.6528  -12.4690  -17.4597 C   0  0  2  0  0  0  0  0  0  0  0  0
   23.8123  -13.3110  -17.8673 N   0  0  0  0  0  0  0  0  0  0  0  0
   23.1045  -11.0609  -17.3763 C   0  0  0  0  0  0  0  0  0  0  0  0
   24.3508  -10.7652  -17.3329 O   0  0  0  0  0  0  0  0  0  0  0  0
   23.0447   -8.5431  -19.7591 C   0  0  0  0  0  0  0  0  0  0  0  0
   22.3133   -7.9289  -18.6001 C   0  0  1  0  0  0  0  0  0  0  0  0
   20.9612   -8.1277  -18.7575 O   0  0  0  0  0  0  0  0  0  0  0  0
   22.7403   -8.5779  -17.2642 C   0  0  2  0  0  0  0  0  0  0  0  0
   22.2428   -9.9296  -17.3409 N   0  0  0  0  0  0  0  0  0  0  0  0
   22.2353   -7.7661  -16.1687 C   0  0  0  0  0  0  0  0  0  0  0  0
   21.1462   -8.1783  -15.6361 O   0  0  0  0  0  0  0  0  0  0  0  0
   22.4845   -4.0628  -12.9519 O   0  0  0  0  0  0  0  0  0  0  0  0
   23.0402   -4.7425  -14.0146 C   0  0  0  0  0  0  0  0  0  0  0  0
   22.2270   -5.9012  -14.4849 C   0  0  2  0  0  0  0  0  0  0  0  0
   22.7914   -6.5946  -15.6264 N   0  0  0  0  0  0  0  0  0  0  0  0
   20.8883   -5.3631  -14.9213 C   0  0  0  0  0  0  0  0  0  0  0  0
   20.6936   -4.8981  -16.0632 O   0  0  0  0  0  0  0  0  0  0  0  0
   19.8024   -5.3671  -14.0471 O   0  0  0  0  0  0  0  0  0  0  0  0
  2  1  1  0
  3  5  1  0
  3  2  1  0
  3  4  1  6
  5  7  1  0
  5  6  1  1
  7  8  2  0
 10  9  1  6
 10 12  1  0
 11 10  1  0
 12 13  1  1
 13  7  1  0
 14 12  1  0
 14 15  2  0
 16 17  1  0
 18 17  1  6
 18 19  1  0
 18 20  1  0
 19 14  1  0
 20 21  2  0
 20 22  1  0
M  END
$$$$
