ITS.pdb
     RDKit          3D

 22 21  0  0  1  0  0  0  0  0999 V2000
   23.1428  -12.2861  -14.9874 C   0  0  0  0  0  0  0  0  0  0  0  0
   22.6154  -11.1234  -14.1274 C   0  0  0  0  0  0  0  0  0  0  0  0
   22.5525   -9.9380  -15.0384 C   0  0  2  0  0  0  0  0  0  0  0  0
   23.8574   -9.7499  -15.7886 C   0  0  0  0  0  0  0  0  0  0  0  0
   22.0546   -8.6700  -14.4296 C   0  0  2  0  0  0  0  0  0  0  0  0
   20.7239   -9.0275  -13.8633 N   0  0  0  0  0  0  0  0  0  0  0  0
   21.8723   -7.5462  -15.3771 C   0  0  0  0  0  0  0  0  0  0  0  0
   22.8740   -6.8744  -15.8105 O   0  0  0  0  0  0  0  0  0  0  0  0
   20.9136   -7.4016  -18.8708 C   0  0  0  0  0  0  0  0  0  0  0  0
   19.8856   -6.6347  -18.0894 C   0  0  1  0  0  0  0  0  0  0  0  0
   18.8797   -7.4881  -17.6994 O   0  0  0  0  0  0  0  0  0  0  0  0
   20.5033   -6.0100  -16.8181 C   0  0  2  0  0  0  0  0  0  0  0  0
   20.6201   -7.1098  -15.8922 N   0  0  0  0  0  0  0  0  0  0  0  0
   19.6709   -4.8958  -16.3941 C   0  0  0  0  0  0  0  0  0  0  0  0
   18.7362   -5.1907  -15.5700 O   0  0  0  0  0  0  0  0  0  0  0  0
   18.5299   -0.1389  -16.0497 O   0  0  0  0  0  0  0  0  0  0  0  0
   19.3537   -1.1225  -16.5536 C   0  0  0  0  0  0  0  0  0  0  0  0
   18.8965   -2.5098  -16.2509 C   0  0  2  0  0  0  0  0  0  0  0  0
   19.7659   -3.5457  -16.7738 N   0  0  0  0  0  0  0  0  0  0  0  0
   17.5540   -2.6946  -16.9107 C   0  0  0  0  0  0  0  0  0  0  0  0
   17.4322   -3.1651  -18.0605 O   0  0  0  0  0  0  0  0  0  0  0  0
   16.3812   -2.3394  -16.2460 O   0  0  0  0  0  0  0  0  0  0  0  0
  2  1  1  0
  3  5  1  0
  3  2  1  0
  3  4  1  1
  5  7  1  0
  5  6  1  6
  7  8  2  0
 10  9  1  1
 10 12  1  0
 11 10  1  0
 12 13  1  1
 13  7  1  0
 14 12  1  0
 14 15  2  0
 16 17  1  0
 18 17  1  6
 18 19  1  0
 18 20  1  0
 19 14  1  0
 20 21  2  0
 20 22  1  0
M  END
$$$$
