ITS.pdb
     RDKit          3D

 22 21  0  0  1  0  0  0  0  0999 V2000
   18.4683  -15.4029  -19.9014 C   0  0  0  0  0  0  0  0  0  0  0  0
   19.9215  -15.0882  -19.5028 C   0  0  0  0  0  0  0  0  0  0  0  0
   19.8363  -14.0118  -18.4667 C   0  0  2  0  0  0  0  0  0  0  0  0
   18.9459  -12.8734  -18.9270 C   0  0  0  0  0  0  0  0  0  0  0  0
   21.1359  -13.5333  -17.9114 C   0  0  2  0  0  0  0  0  0  0  0  0
   21.7684  -14.7554  -17.3406 N   0  0  0  0  0  0  0  0  0  0  0  0
   21.0260  -12.5193  -16.8374 C   0  0  0  0  0  0  0  0  0  0  0  0
   20.2961  -12.7236  -15.8039 O   0  0  0  0  0  0  0  0  0  0  0  0
   23.3336  -11.0844  -14.4856 C   0  0  0  0  0  0  0  0  0  0  0  0
   22.7775   -9.9038  -15.2289 C   0  0  1  0  0  0  0  0  0  0  0  0
   23.6396   -9.5566  -16.2431 O   0  0  0  0  0  0  0  0  0  0  0  0
   21.4064  -10.2370  -15.8590 C   0  0  2  0  0  0  0  0  0  0  0  0
   21.6927  -11.2627  -16.8320 N   0  0  0  0  0  0  0  0  0  0  0  0
   20.8172   -9.0099  -16.3701 C   0  0  0  0  0  0  0  0  0  0  0  0
   20.7996   -8.8986  -17.6457 O   0  0  0  0  0  0  0  0  0  0  0  0
   17.5814   -6.9737  -15.1364 O   0  0  0  0  0  0  0  0  0  0  0  0
   18.2069   -6.7828  -16.3498 C   0  0  0  0  0  0  0  0  0  0  0  0
   19.6962   -6.7636  -16.2675 C   0  0  2  0  0  0  0  0  0  0  0  0
   20.2686   -7.9399  -15.6422 N   0  0  0  0  0  0  0  0  0  0  0  0
   20.0840   -5.5842  -15.4127 C   0  0  0  0  0  0  0  0  0  0  0  0
   20.6925   -5.7131  -14.3304 O   0  0  0  0  0  0  0  0  0  0  0  0
   19.7697   -4.2855  -15.8101 O   0  0  0  0  0  0  0  0  0  0  0  0
  2  1  1  0
  3  5  1  0
  3  2  1  0
  3  4  1  6
  5  7  1  0
  5  6  1  1
  7  8  2  0
 10  9  1  6
 10 12  1  0
 11 10  1  0
 12 13  1  6
 13  7  1  0
 14 12  1  0
 14 15  2  0
 16 17  1  0
 18 17  1  1
 18 19  1  0
 18 20  1  0
 19 14  1  0
 20 21  2  0
 20 22  1  0
M  END
$$$$
