ITS.pdb
     RDKit          3D

 22 21  0  0  1  0  0  0  0  0999 V2000
   25.6307  -15.5150  -15.3014 C   0  0  0  0  0  0  0  0  0  0  0  0
   24.1820  -15.2027  -15.7180 C   0  0  0  0  0  0  0  0  0  0  0  0
   24.1532  -13.7391  -16.0282 C   0  0  2  0  0  0  0  0  0  0  0  0
   24.7692  -12.9259  -14.9058 C   0  0  0  0  0  0  0  0  0  0  0  0
   22.8404  -13.1909  -16.4782 C   0  0  2  0  0  0  0  0  0  0  0  0
   22.4723  -14.0274  -17.6547 N   0  0  0  0  0  0  0  0  0  0  0  0
   22.8633  -11.7721  -16.9027 C   0  0  0  0  0  0  0  0  0  0  0  0
   23.7798  -11.3266  -17.6799 O   0  0  0  0  0  0  0  0  0  0  0  0
   20.6706  -10.0313  -19.0361 C   0  0  0  0  0  0  0  0  0  0  0  0
   20.6659   -9.2199  -17.7724 C   0  0  1  0  0  0  0  0  0  0  0  0
   19.6149   -9.6181  -16.9791 O   0  0  0  0  0  0  0  0  0  0  0  0
   21.9728   -9.4242  -16.9737 C   0  0  2  0  0  0  0  0  0  0  0  0
   21.9094  -10.7904  -16.5153 N   0  0  0  0  0  0  0  0  0  0  0  0
   22.0547   -8.4015  -15.9433 C   0  0  0  0  0  0  0  0  0  0  0  0
   21.8107   -8.8015  -14.7516 O   0  0  0  0  0  0  0  0  0  0  0  0
   23.0831   -3.8944  -14.2890 O   0  0  0  0  0  0  0  0  0  0  0  0
   22.9736   -4.7648  -15.3522 C   0  0  0  0  0  0  0  0  0  0  0  0
   22.4847   -6.1230  -14.9757 C   0  0  2  0  0  0  0  0  0  0  0  0
   22.3668   -7.0391  -16.0933 N   0  0  0  0  0  0  0  0  0  0  0  0
   21.1015   -5.9590  -14.3997 C   0  0  0  0  0  0  0  0  0  0  0  0
   20.8999   -5.7921  -13.1792 O   0  0  0  0  0  0  0  0  0  0  0  0
   19.9798   -5.9889  -15.2270 O   0  0  0  0  0  0  0  0  0  0  0  0
  2  1  1  0
  3  5  1  0
  3  2  1  0
  3  4  1  1
  5  7  1  0
  5  6  1  6
  7  8  2  0
 10  9  1  6
 10 12  1  0
 11 10  1  0
 12 13  1  1
 13  7  1  0
 14 12  1  0
 14 15  2  0
 16 17  1  0
 18 17  1  6
 18 19  1  0
 18 20  1  0
 19 14  1  0
 20 21  2  0
 20 22  1  0
M  END
$$$$
