ITS.pdb
     RDKit          3D

 22 21  0  0  1  0  0  0  0  0999 V2000
   21.8089  -14.2553  -19.2418 C   0  0  0  0  0  0  0  0  0  0  0  0
   22.6361  -13.4234  -18.2451 C   0  0  0  0  0  0  0  0  0  0  0  0
   21.9081  -12.1247  -18.0948 C   0  0  2  0  0  0  0  0  0  0  0  0
   21.5655  -11.5257  -19.4455 C   0  0  0  0  0  0  0  0  0  0  0  0
   22.5256  -11.1314  -17.1683 C   0  0  2  0  0  0  0  0  0  0  0  0
   22.5922  -11.8371  -15.8580 N   0  0  0  0  0  0  0  0  0  0  0  0
   21.7568   -9.8787  -16.9856 C   0  0  0  0  0  0  0  0  0  0  0  0
   21.7829   -8.9493  -17.8677 O   0  0  0  0  0  0  0  0  0  0  0  0
   18.1800   -9.4272  -16.7715 C   0  0  0  0  0  0  0  0  0  0  0  0
   18.7349   -8.7838  -15.5330 C   0  0  1  0  0  0  0  0  0  0  0  0
   18.7021   -9.6875  -14.4963 O   0  0  0  0  0  0  0  0  0  0  0  0
   20.2024   -8.3470  -15.7412 C   0  0  2  0  0  0  0  0  0  0  0  0
   20.9364   -9.5829  -15.8617 N   0  0  0  0  0  0  0  0  0  0  0  0
   20.5886   -7.4720  -14.6460 C   0  0  0  0  0  0  0  0  0  0  0  0
   21.2842   -8.0221  -13.7223 O   0  0  0  0  0  0  0  0  0  0  0  0
   23.3876   -4.0941  -14.5143 O   0  0  0  0  0  0  0  0  0  0  0  0
   22.5412   -5.1408  -14.8113 C   0  0  0  0  0  0  0  0  0  0  0  0
   21.2712   -5.1340  -14.0289 C   0  0  2  0  0  0  0  0  0  0  0  0
   20.2952   -6.1075  -14.4784 N   0  0  0  0  0  0  0  0  0  0  0  0
   20.6426   -3.7752  -14.2040 C   0  0  0  0  0  0  0  0  0  0  0  0
   19.9416   -3.4845  -15.1951 O   0  0  0  0  0  0  0  0  0  0  0  0
   20.8270   -2.7789  -13.2465 O   0  0  0  0  0  0  0  0  0  0  0  0
  2  1  1  0
  3  5  1  0
  3  2  1  0
  3  4  1  6
  5  7  1  0
  5  6  1  1
  7  8  2  0
 10  9  1  6
 10 12  1  0
 11 10  1  0
 12 13  1  1
 13  7  1  0
 14 12  1  0
 14 15  2  0
 16 17  1  0
 18 17  1  6
 18 19  1  0
 18 20  1  0
 19 14  1  0
 20 21  2  0
 20 22  1  0
M  END
$$$$
