ITS.pdb
     RDKit          3D

 22 21  0  0  1  0  0  0  0  0999 V2000
   26.9627  -18.6844   -7.7085 C   0  0  0  0  0  0  0  0  0  0  0  0
   26.9031  -19.5093   -9.0069 C   0  0  0  0  0  0  0  0  0  0  0  0
   25.6446  -20.3143   -8.9214 C   0  0  2  0  0  0  0  0  0  0  0  0
   25.6405  -21.2011   -7.6908 C   0  0  0  0  0  0  0  0  0  0  0  0
   25.2531  -21.0506  -10.1587 C   0  0  2  0  0  0  0  0  0  0  0  0
   26.4008  -21.9616  -10.4276 N   0  0  0  0  0  0  0  0  0  0  0  0
   25.0397  -20.2028  -11.3543 C   0  0  0  0  0  0  0  0  0  0  0  0
   24.2246  -19.2141  -11.3300 O   0  0  0  0  0  0  0  0  0  0  0  0
   27.7103  -18.8044  -13.7801 C   0  0  0  0  0  0  0  0  0  0  0  0
   26.6502  -19.5038  -14.5818 C   0  0  1  0  0  0  0  0  0  0  0  0
   27.0776  -20.7739  -14.8926 O   0  0  0  0  0  0  0  0  0  0  0  0
   25.3340  -19.6240  -13.7811 C   0  0  2  0  0  0  0  0  0  0  0  0
   25.6905  -20.3817  -12.6066 N   0  0  0  0  0  0  0  0  0  0  0  0
   24.3167  -20.2075  -14.6406 C   0  0  0  0  0  0  0  0  0  0  0  0
   23.9413  -21.3899  -14.3230 O   0  0  0  0  0  0  0  0  0  0  0  0
   20.0374  -19.4335  -15.3118 O   0  0  0  0  0  0  0  0  0  0  0  0
   21.3753  -19.2743  -15.0208 C   0  0  0  0  0  0  0  0  0  0  0  0
   22.2914  -19.8044  -16.0719 C   0  0  2  0  0  0  0  0  0  0  0  0
   23.6992  -19.6377  -15.7675 N   0  0  0  0  0  0  0  0  0  0  0  0
   22.0244  -19.0262  -17.3349 C   0  0  0  0  0  0  0  0  0  0  0  0
   22.3649  -17.8329  -17.4707 O   0  0  0  0  0  0  0  0  0  0  0  0
   21.3758  -19.6248  -18.4140 O   0  0  0  0  0  0  0  0  0  0  0  0
  2  1  1  0
  3  5  1  0
  3  2  1  0
  3  4  1  1
  5  7  1  0
  5  6  1  6
  7  8  2  0
 10  9  1  1
 10 12  1  0
 11 10  1  0
 12 13  1  1
 13  7  1  0
 14 12  1  0
 14 15  2  0
 16 17  1  0
 18 17  1  1
 18 19  1  0
 18 20  1  0
 19 14  1  0
 20 21  2  0
 20 22  1  0
M  END
$$$$
