ITS.pdb
     RDKit          3D

 22 21  0  0  1  0  0  0  0  0999 V2000
   17.4642  -14.5547  -16.4171 C   0  0  0  0  0  0  0  0  0  0  0  0
   17.0523  -13.0778  -16.5549 C   0  0  0  0  0  0  0  0  0  0  0  0
   18.0910  -12.2940  -15.8161 C   0  0  2  0  0  0  0  0  0  0  0  0
   18.3193  -12.8555  -14.4257 C   0  0  0  0  0  0  0  0  0  0  0  0
   17.9140  -10.8124  -15.8130 C   0  0  2  0  0  0  0  0  0  0  0  0
   17.8832  -10.4390  -17.2548 N   0  0  0  0  0  0  0  0  0  0  0  0
   19.0010  -10.0503  -15.1563 C   0  0  0  0  0  0  0  0  0  0  0  0
   19.1609  -10.0838  -13.8851 O   0  0  0  0  0  0  0  0  0  0  0  0
   22.7260  -10.1483  -15.6438 C   0  0  0  0  0  0  0  0  0  0  0  0
   22.2616   -8.7405  -15.8844 C   0  0  1  0  0  0  0  0  0  0  0  0
   22.0380   -8.5581  -17.2295 O   0  0  0  0  0  0  0  0  0  0  0  0
   20.9404   -8.4536  -15.1362 C   0  0  2  0  0  0  0  0  0  0  0  0
   19.9495   -9.2354  -15.8346 N   0  0  0  0  0  0  0  0  0  0  0  0
   20.7237   -7.0161  -15.1064 C   0  0  0  0  0  0  0  0  0  0  0  0
   19.7633   -6.5899  -15.8383 O   0  0  0  0  0  0  0  0  0  0  0  0
   19.6431   -2.8782  -13.7345 O   0  0  0  0  0  0  0  0  0  0  0  0
   19.8677   -4.2379  -13.7654 C   0  0  0  0  0  0  0  0  0  0  0  0
   21.1365   -4.6272  -14.4464 C   0  0  2  0  0  0  0  0  0  0  0  0
   21.4326   -6.0449  -14.3783 N   0  0  0  0  0  0  0  0  0  0  0  0
   22.2619   -3.9134  -13.7422 C   0  0  0  0  0  0  0  0  0  0  0  0
   22.4118   -2.6756  -13.8032 O   0  0  0  0  0  0  0  0  0  0  0  0
   23.1906   -4.6257  -12.9848 O   0  0  0  0  0  0  0  0  0  0  0  0
  2  1  1  0
  3  5  1  0
  3  2  1  0
  3  4  1  1
  5  7  1  0
  5  6  1  6
  7  8  2  0
 10  9  1  6
 10 12  1  0
 11 10  1  0
 12 13  1  6
 13  7  1  0
 14 12  1  0
 14 15  2  0
 16 17  1  0
 18 17  1  1
 18 19  1  0
 18 20  1  0
 19 14  1  0
 20 21  2  0
 20 22  1  0
M  END
$$$$
