ITS.pdb
     RDKit          3D

 22 21  0  0  1  0  0  0  0  0999 V2000
   23.7081  -15.3411  -17.4390 C   0  0  0  0  0  0  0  0  0  0  0  0
   24.5503  -14.1870  -16.8658 C   0  0  0  0  0  0  0  0  0  0  0  0
   23.7884  -12.9356  -17.1701 C   0  0  2  0  0  0  0  0  0  0  0  0
   23.3796  -12.8808  -18.6298 C   0  0  0  0  0  0  0  0  0  0  0  0
   24.4074  -11.6617  -16.7010 C   0  0  2  0  0  0  0  0  0  0  0  0
   24.7015  -11.9002  -15.2601 N   0  0  0  0  0  0  0  0  0  0  0  0
   23.5421  -10.4645  -16.8090 C   0  0  0  0  0  0  0  0  0  0  0  0
   23.3263   -9.9015  -17.9400 O   0  0  0  0  0  0  0  0  0  0  0  0
   20.0399  -10.0580  -16.5053 C   0  0  0  0  0  0  0  0  0  0  0  0
   20.6318   -9.1459  -15.4693 C   0  0  1  0  0  0  0  0  0  0  0  0
   20.7417   -9.8221  -14.2763 O   0  0  0  0  0  0  0  0  0  0  0  0
   22.0435   -8.6733  -15.8835 C   0  0  2  0  0  0  0  0  0  0  0  0
   22.8800   -9.8366  -15.7176 N   0  0  0  0  0  0  0  0  0  0  0  0
   22.3965   -7.5069  -15.0903 C   0  0  0  0  0  0  0  0  0  0  0  0
   23.0844   -7.7464  -14.0372 O   0  0  0  0  0  0  0  0  0  0  0  0
   22.4944   -3.5386  -16.3744 O   0  0  0  0  0  0  0  0  0  0  0  0
   23.2209   -3.9729  -15.2864 C   0  0  0  0  0  0  0  0  0  0  0  0
   22.5620   -5.0666  -14.5152 C   0  0  2  0  0  0  0  0  0  0  0  0
   22.0786   -6.1598  -15.3359 N   0  0  0  0  0  0  0  0  0  0  0  0
   21.3584   -4.4716  -13.8302 C   0  0  0  0  0  0  0  0  0  0  0  0
   20.1920   -4.8271  -14.0978 O   0  0  0  0  0  0  0  0  0  0  0  0
   21.5108   -3.4857  -12.8566 O   0  0  0  0  0  0  0  0  0  0  0  0
  2  1  1  0
  3  5  1  0
  3  2  1  0
  3  4  1  6
  5  7  1  0
  5  6  1  1
  7  8  2  0
 10  9  1  6
 10 12  1  0
 11 10  1  0
 12 13  1  1
 13  7  1  0
 14 12  1  0
 14 15  2  0
 16 17  1  0
 18 17  1  6
 18 19  1  0
 18 20  1  0
 19 14  1  0
 20 21  2  0
 20 22  1  0
M  END
$$$$
