ITS.pdb
     RDKit          3D

 22 21  0  0  1  0  0  0  0  0999 V2000
   21.2250  -12.3946  -15.4874 C   0  0  0  0  0  0  0  0  0  0  0  0
   21.0088  -10.9140  -15.1257 C   0  0  0  0  0  0  0  0  0  0  0  0
   22.3725  -10.2988  -15.0924 C   0  0  2  0  0  0  0  0  0  0  0  0
   23.2850  -11.0339  -14.1293 C   0  0  0  0  0  0  0  0  0  0  0  0
   22.4188   -8.8188  -14.9082 C   0  0  2  0  0  0  0  0  0  0  0  0
   21.7819   -8.5897  -13.5811 N   0  0  0  0  0  0  0  0  0  0  0  0
   21.6781   -8.0349  -15.9233 C   0  0  0  0  0  0  0  0  0  0  0  0
   22.0828   -7.9711  -17.1377 O   0  0  0  0  0  0  0  0  0  0  0  0
   18.3286   -8.5513  -17.3283 C   0  0  0  0  0  0  0  0  0  0  0  0
   18.3543   -7.1896  -16.6952 C   0  0  1  0  0  0  0  0  0  0  0  0
   17.9515   -7.2893  -15.3837 O   0  0  0  0  0  0  0  0  0  0  0  0
   19.7794   -6.5926  -16.7143 C   0  0  2  0  0  0  0  0  0  0  0  0
   20.4848   -7.3013  -15.6747 N   0  0  0  0  0  0  0  0  0  0  0  0
   19.6831   -5.1500  -16.5601 C   0  0  0  0  0  0  0  0  0  0  0  0
   19.8314   -4.7141  -15.3653 O   0  0  0  0  0  0  0  0  0  0  0  0
   19.8665   -0.5610  -18.1533 O   0  0  0  0  0  0  0  0  0  0  0  0
   19.9647   -1.9166  -18.3828 C   0  0  0  0  0  0  0  0  0  0  0  0
   19.4114   -2.7591  -17.2831 C   0  0  2  0  0  0  0  0  0  0  0  0
   19.4497   -4.1831  -17.5534 N   0  0  0  0  0  0  0  0  0  0  0  0
   17.9602   -2.3865  -17.1181 C   0  0  0  0  0  0  0  0  0  0  0  0
   17.0475   -2.9503  -17.7564 O   0  0  0  0  0  0  0  0  0  0  0  0
   17.5819   -1.3807  -16.2301 O   0  0  0  0  0  0  0  0  0  0  0  0
  2  1  1  0
  3  5  1  0
  3  2  1  0
  3  4  1  1
  5  7  1  0
  5  6  1  1
  7  8  2  0
 10  9  1  1
 10 12  1  0
 11 10  1  0
 12 13  1  1
 13  7  1  0
 14 12  1  0
 14 15  2  0
 16 17  1  0
 18 17  1  6
 18 19  1  0
 18 20  1  0
 19 14  1  0
 20 21  2  0
 20 22  1  0
M  END
$$$$
