ITS.pdb
     RDKit          3D

 22 21  0  0  1  0  0  0  0  0999 V2000
   12.4805  -12.3152  -10.5482 C   0  0  0  0  0  0  0  0  0  0  0  0
   12.9363  -11.3822   -9.4118 C   0  0  0  0  0  0  0  0  0  0  0  0
   13.6159  -10.2281  -10.0792 C   0  0  2  0  0  0  0  0  0  0  0  0
   14.6383  -10.7029  -11.0941 C   0  0  0  0  0  0  0  0  0  0  0  0
   14.1565   -9.1733   -9.1728 C   0  0  2  0  0  0  0  0  0  0  0  0
   12.9538   -8.6150   -8.4939 N   0  0  0  0  0  0  0  0  0  0  0  0
   14.8669   -8.0647   -9.8510 C   0  0  0  0  0  0  0  0  0  0  0  0
   14.3145   -7.4052  -10.8010 O   0  0  0  0  0  0  0  0  0  0  0  0
   15.8033   -4.8520   -8.8030 C   0  0  0  0  0  0  0  0  0  0  0  0
   17.0990   -5.4632   -9.2538 C   0  0  1  0  0  0  0  0  0  0  0  0
   17.7479   -6.0068   -8.1694 O   0  0  0  0  0  0  0  0  0  0  0  0
   16.8557   -6.5914  -10.2812 C   0  0  2  0  0  0  0  0  0  0  0  0
   16.1823   -7.6252   -9.5339 N   0  0  0  0  0  0  0  0  0  0  0  0
   18.1278   -6.9561  -10.8838 C   0  0  0  0  0  0  0  0  0  0  0  0
   18.7003   -7.9841  -10.3788 O   0  0  0  0  0  0  0  0  0  0  0  0
   21.1572   -7.8159  -14.3641 O   0  0  0  0  0  0  0  0  0  0  0  0
   19.9459   -7.4972  -13.7887 C   0  0  0  0  0  0  0  0  0  0  0  0
   20.0636   -6.7958  -12.4775 C   0  0  2  0  0  0  0  0  0  0  0  0
   18.8005   -6.3244  -11.9442 N   0  0  0  0  0  0  0  0  0  0  0  0
   20.9255   -5.5784  -12.6947 C   0  0  0  0  0  0  0  0  0  0  0  0
   20.4451   -4.4361  -12.8448 O   0  0  0  0  0  0  0  0  0  0  0  0
   22.3145   -5.6901  -12.7360 O   0  0  0  0  0  0  0  0  0  0  0  0
  2  1  1  0
  3  5  1  0
  3  2  1  0
  3  4  1  1
  5  7  1  0
  5  6  1  6
  7  8  2  0
 10  9  1  1
 10 12  1  0
 11 10  1  0
 12 13  1  1
 13  7  1  0
 14 12  1  0
 14 15  2  0
 16 17  1  0
 18 17  1  6
 18 19  1  0
 18 20  1  0
 19 14  1  0
 20 21  2  0
 20 22  1  0
M  END
$$$$
