ITS.pdb
     RDKit          3D

 22 21  0  0  1  0  0  0  0  0999 V2000
   19.0509  -14.1686  -20.0165 C   0  0  0  0  0  0  0  0  0  0  0  0
   20.2124  -13.7248  -19.1089 C   0  0  0  0  0  0  0  0  0  0  0  0
   19.9563  -12.2846  -18.7934 C   0  0  2  0  0  0  0  0  0  0  0  0
   19.6807  -11.4854  -20.0528 C   0  0  0  0  0  0  0  0  0  0  0  0
   20.9529  -11.6224  -17.9020 C   0  0  2  0  0  0  0  0  0  0  0  0
   20.9334  -12.4359  -16.6542 N   0  0  0  0  0  0  0  0  0  0  0  0
   20.6449  -10.2174  -17.5484 C   0  0  0  0  0  0  0  0  0  0  0  0
   20.5960   -9.3028  -18.4449 O   0  0  0  0  0  0  0  0  0  0  0  0
   17.6323   -9.0670  -15.5308 C   0  0  0  0  0  0  0  0  0  0  0  0
   18.8725   -8.4829  -14.9176 C   0  0  1  0  0  0  0  0  0  0  0  0
   19.3004   -9.2951  -13.8931 O   0  0  0  0  0  0  0  0  0  0  0  0
   20.0127   -8.3806  -15.9556 C   0  0  2  0  0  0  0  0  0  0  0  0
   20.3767   -9.7486  -16.2323 N   0  0  0  0  0  0  0  0  0  0  0  0
   21.0615   -7.5312  -15.4145 C   0  0  0  0  0  0  0  0  0  0  0  0
   22.0316   -8.1479  -14.8504 O   0  0  0  0  0  0  0  0  0  0  0  0
   22.5371   -3.8980  -16.7556 O   0  0  0  0  0  0  0  0  0  0  0  0
   22.3694   -3.9880  -15.3904 C   0  0  0  0  0  0  0  0  0  0  0  0
   22.2591   -5.3869  -14.8843 C   0  0  2  0  0  0  0  0  0  0  0  0
   21.1410   -6.1279  -15.4349 N   0  0  0  0  0  0  0  0  0  0  0  0
   22.0388   -5.3100  -13.3951 C   0  0  0  0  0  0  0  0  0  0  0  0
   20.9802   -5.6910  -12.8544 O   0  0  0  0  0  0  0  0  0  0  0  0
   23.0291   -4.8010  -12.5563 O   0  0  0  0  0  0  0  0  0  0  0  0
  2  1  1  0
  3  5  1  0
  3  2  1  0
  3  4  1  6
  5  7  1  0
  5  6  1  1
  7  8  2  0
 10  9  1  6
 10 12  1  0
 11 10  1  0
 12 13  1  1
 13  7  1  0
 14 12  1  0
 14 15  2  0
 16 17  1  0
 18 17  1  6
 18 19  1  0
 18 20  1  0
 19 14  1  0
 20 21  2  0
 20 22  1  0
M  END
$$$$
