ITS.pdb
     RDKit          3D

 22 21  0  0  1  0  0  0  0  0999 V2000
   23.6519  -15.8827  -18.5419 C   0  0  0  0  0  0  0  0  0  0  0  0
   22.8288  -15.2069  -17.4304 C   0  0  0  0  0  0  0  0  0  0  0  0
   23.4919  -13.8901  -17.1749 C   0  0  2  0  0  0  0  0  0  0  0  0
   24.9531  -14.0708  -16.8100 C   0  0  0  0  0  0  0  0  0  0  0  0
   22.7792  -12.9679  -16.2431 C   0  0  2  0  0  0  0  0  0  0  0  0
   21.3814  -12.9285  -16.7567 N   0  0  0  0  0  0  0  0  0  0  0  0
   23.3025  -11.5828  -16.2062 C   0  0  0  0  0  0  0  0  0  0  0  0
   24.3921  -11.3011  -15.5931 O   0  0  0  0  0  0  0  0  0  0  0  0
   24.5242   -9.5656  -18.8821 C   0  0  0  0  0  0  0  0  0  0  0  0
   23.4541   -8.7306  -18.2393 C   0  0  1  0  0  0  0  0  0  0  0  0
   22.2660   -8.9205  -18.9061 O   0  0  0  0  0  0  0  0  0  0  0  0
   23.2440   -9.1337  -16.7624 C   0  0  2  0  0  0  0  0  0  0  0  0
   22.6828  -10.4611  -16.8239 N   0  0  0  0  0  0  0  0  0  0  0  0
   22.4300   -8.1190  -16.1130 C   0  0  0  0  0  0  0  0  0  0  0  0
   21.2034   -8.4355  -15.9257 O   0  0  0  0  0  0  0  0  0  0  0  0
   20.7899   -5.2454  -13.0271 O   0  0  0  0  0  0  0  0  0  0  0  0
   21.6548   -6.1478  -13.6081 C   0  0  0  0  0  0  0  0  0  0  0  0
   21.9056   -5.9000  -15.0576 C   0  0  2  0  0  0  0  0  0  0  0  0
   22.8209   -6.8440  -15.6686 N   0  0  0  0  0  0  0  0  0  0  0  0
   22.5409   -4.5383  -15.1773 C   0  0  0  0  0  0  0  0  0  0  0  0
   21.9367   -3.4887  -14.8749 O   0  0  0  0  0  0  0  0  0  0  0  0
   23.8495   -4.4036  -15.6386 O   0  0  0  0  0  0  0  0  0  0  0  0
  2  1  1  0
  3  5  1  0
  3  2  1  0
  3  4  1  1
  5  7  1  0
  5  6  1  6
  7  8  2  0
 10  9  1  6
 10 12  1  0
 11 10  1  0
 12 13  1  6
 13  7  1  0
 14 12  1  0
 14 15  2  0
 16 17  1  0
 18 17  1  1
 18 19  1  0
 18 20  1  0
 19 14  1  0
 20 21  2  0
 20 22  1  0
M  END
$$$$
