ITS.pdb
     RDKit          3D

 22 21  0  0  1  0  0  0  0  0999 V2000
   26.2400  -20.9206   -8.1366 C   0  0  0  0  0  0  0  0  0  0  0  0
   25.3198  -21.4956   -9.2285 C   0  0  0  0  0  0  0  0  0  0  0  0
   25.8648  -20.9923  -10.5280 C   0  0  2  0  0  0  0  0  0  0  0  0
   26.1016  -19.4948  -10.4830 C   0  0  0  0  0  0  0  0  0  0  0  0
   25.1307  -21.4190  -11.7550 C   0  0  2  0  0  0  0  0  0  0  0  0
   25.3045  -22.8980  -11.7963 N   0  0  0  0  0  0  0  0  0  0  0  0
   25.6437  -20.8528  -13.0239 C   0  0  0  0  0  0  0  0  0  0  0  0
   26.6465  -21.3760  -13.6266 O   0  0  0  0  0  0  0  0  0  0  0  0
   26.0635  -21.6574  -15.4836 C   0  0  0  0  0  0  0  0  0  0  0  0
   25.3585  -20.4102  -15.9342 C   0  0  1  0  0  0  0  0  0  0  0  0
   24.0039  -20.6448  -15.9828 O   0  0  0  0  0  0  0  0  0  0  0  0
   25.6075  -19.2433  -14.9523 C   0  0  2  0  0  0  0  0  0  0  0  0
   25.1012  -19.7175  -13.6876 N   0  0  0  0  0  0  0  0  0  0  0  0
   24.9848  -18.0429  -15.4868 C   0  0  0  0  0  0  0  0  0  0  0  0
   23.7963  -17.8089  -15.0715 O   0  0  0  0  0  0  0  0  0  0  0  0
   26.7575  -15.2734  -18.1052 O   0  0  0  0  0  0  0  0  0  0  0  0
   25.7753  -14.8151  -17.2536 C   0  0  0  0  0  0  0  0  0  0  0  0
   24.8555  -15.8807  -16.7600 C   0  0  2  0  0  0  0  0  0  0  0  0
   25.5231  -17.1150  -16.3953 N   0  0  0  0  0  0  0  0  0  0  0  0
   23.9092  -16.2140  -17.8850 C   0  0  0  0  0  0  0  0  0  0  0  0
   23.8848  -17.3374  -18.4287 O   0  0  0  0  0  0  0  0  0  0  0  0
   23.0126  -15.2604  -18.3646 O   0  0  0  0  0  0  0  0  0  0  0  0
  2  1  1  0
  3  5  1  0
  3  2  1  0
  3  4  1  1
  5  7  1  0
  5  6  1  6
  7  8  2  0
 10  9  1  1
 10 12  1  0
 11 10  1  0
 12 13  1  1
 13  7  1  0
 14 12  1  0
 14 15  2  0
 16 17  1  0
 18 17  1  6
 18 19  1  0
 18 20  1  0
 19 14  1  0
 20 21  2  0
 20 22  1  0
M  END
$$$$
