YPQ.pdb
     RDKit          3D

 29 30  0  0  1  0  0  0  0  0999 V2000
   29.1501  -19.5058   -3.4132 O   0  0  0  0  0  0  0  0  0  0  0  0
   28.6037  -19.8556   -4.6514 C   0  0  0  0  0  0  0  0  0  0  0  0
   27.3181  -20.3560   -4.7336 C   0  0  0  0  0  0  0  0  0  0  0  0
   26.7543  -20.7085   -5.9369 C   0  0  0  0  0  0  0  0  0  0  0  0
   27.4554  -20.5752   -7.1165 C   0  0  0  0  0  0  0  0  0  0  0  0
   26.8380  -20.9583   -8.4225 C   0  0  0  0  0  0  0  0  0  0  0  0
   26.2691  -19.7460   -9.1270 C   0  0  2  0  0  0  0  0  0  0  0  0
   25.2490  -19.0942   -8.3670 N   0  0  0  0  0  0  0  0  0  0  0  0
   25.8642  -20.0737  -10.5171 C   0  0  0  0  0  0  0  0  0  0  0  0
   24.6183  -20.1467  -10.7990 O   0  0  0  0  0  0  0  0  0  0  0  0
   28.7384  -20.0770   -7.0452 C   0  0  0  0  0  0  0  0  0  0  0  0
   29.2860  -19.7296   -5.8312 C   0  0  0  0  0  0  0  0  0  0  0  0
   26.7738  -20.3179  -11.5827 N   0  0  0  0  0  0  0  0  0  0  0  0
   28.1665  -20.7092  -11.4328 C   0  0  0  0  0  0  0  0  0  0  0  0
   28.5691  -21.0807  -12.8314 C   0  0  0  0  0  0  0  0  0  0  0  0
   27.7800  -20.1371  -13.6849 C   0  0  0  0  0  0  0  0  0  0  0  0
   26.4174  -20.2060  -12.9821 C   0  0  1  0  0  0  0  0  0  0  0  0
   25.7601  -21.4543  -13.4734 C   0  0  0  0  0  0  0  0  0  0  0  0
   26.1778  -22.6052  -13.1764 O   0  0  0  0  0  0  0  0  0  0  0  0
   20.6505  -22.3136  -11.7364 N   0  0  0  0  0  0  0  0  0  0  0  0
   20.8315  -21.1751  -12.5549 C   0  0  0  0  0  0  0  0  0  0  0  0
   20.0897  -20.1643  -12.3443 O   0  0  0  0  0  0  0  0  0  0  0  0
   21.8649  -21.1574  -13.6378 C   0  0  0  0  0  0  0  0  0  0  0  0
   22.6157  -22.4434  -13.5732 C   0  0  0  0  0  0  0  0  0  0  0  0
   23.7510  -22.5101  -14.5798 C   0  0  2  0  0  0  0  0  0  0  0  0
   24.6158  -21.3533  -14.3108 N   0  0  0  0  0  0  0  0  0  0  0  0
   23.1303  -22.4082  -15.9202 C   0  0  0  0  0  0  0  0  0  0  0  0
   23.2344  -21.3213  -16.5317 O   0  0  0  0  0  0  0  0  0  0  0  0
   22.4658  -23.4546  -16.4803 O   0  0  0  0  0  0  0  0  0  0  0  0
  2  1  1  0
  3  2  2  0
  4  3  1  0
  5 11  1  0
  5  4  2  0
  6  5  1  0
  7  6  1  0
  7  8  1  1
  9  7  1  0
 10  9  2  0
 11 12  2  0
 12  2  1  0
 13  9  1  0
 13 17  1  0
 14 15  1  0
 14 13  1  0
 15 16  1  0
 16 17  1  0
 18 26  1  0
 17 18  1  6
 19 18  2  0
 20 21  1  0
 21 22  2  0
 23 24  1  0
 23 21  1  0
 25 24  1  1
 25 27  1  0
 25 26  1  0
 27 29  1  0
 28 27  2  0
M  END
$$$$
