YPQ.pdb
     RDKit          3D

 29 30  0  0  1  0  0  0  0  0999 V2000
   14.8964  -10.7505  -20.3327 O   0  0  0  0  0  0  0  0  0  0  0  0
   16.1540  -11.2290  -19.9537 C   0  0  0  0  0  0  0  0  0  0  0  0
   16.2958  -12.5122  -19.4604 C   0  0  0  0  0  0  0  0  0  0  0  0
   17.5195  -13.0101  -19.0798 C   0  0  0  0  0  0  0  0  0  0  0  0
   18.6605  -12.2422  -19.1764 C   0  0  0  0  0  0  0  0  0  0  0  0
   19.9888  -12.7881  -18.7629 C   0  0  0  0  0  0  0  0  0  0  0  0
   19.9464  -13.2880  -17.3354 C   0  0  2  0  0  0  0  0  0  0  0  0
   18.7127  -13.9339  -17.0132 N   0  0  0  0  0  0  0  0  0  0  0  0
   20.3306  -12.2185  -16.3802 C   0  0  0  0  0  0  0  0  0  0  0  0
   19.4231  -11.6751  -15.6604 O   0  0  0  0  0  0  0  0  0  0  0  0
   18.5296  -10.9610  -19.6672 C   0  0  0  0  0  0  0  0  0  0  0  0
   17.2961  -10.4801  -20.0433 C   0  0  0  0  0  0  0  0  0  0  0  0
   21.6580  -11.7411  -16.1996 N   0  0  0  0  0  0  0  0  0  0  0  0
   22.8355  -12.2320  -16.8979 C   0  0  0  0  0  0  0  0  0  0  0  0
   23.8919  -11.2287  -16.5326 C   0  0  0  0  0  0  0  0  0  0  0  0
   23.5303  -10.8332  -15.1346 C   0  0  0  0  0  0  0  0  0  0  0  0
   22.0099  -10.6812  -15.2774 C   0  0  1  0  0  0  0  0  0  0  0  0
   21.7830   -9.3368  -15.8880 C   0  0  0  0  0  0  0  0  0  0  0  0
   21.5390   -9.1788  -17.1139 O   0  0  0  0  0  0  0  0  0  0  0  0
   17.9478   -7.6446  -17.1995 N   0  0  0  0  0  0  0  0  0  0  0  0
   17.8305   -6.4198  -16.5030 C   0  0  0  0  0  0  0  0  0  0  0  0
   16.9179   -5.6121  -16.8649 O   0  0  0  0  0  0  0  0  0  0  0  0
   18.7520   -6.0815  -15.3727 C   0  0  0  0  0  0  0  0  0  0  0  0
   19.6331   -7.2597  -15.1340 C   0  0  0  0  0  0  0  0  0  0  0  0
   21.0987   -6.9572  -15.3935 C   0  0  2  0  0  0  0  0  0  0  0  0
   21.8423   -8.1804  -15.0633 N   0  0  0  0  0  0  0  0  0  0  0  0
   21.4668   -5.8501  -14.4819 C   0  0  0  0  0  0  0  0  0  0  0  0
   21.8128   -6.1435  -13.3156 O   0  0  0  0  0  0  0  0  0  0  0  0
   21.4342   -4.5518  -14.8863 O   0  0  0  0  0  0  0  0  0  0  0  0
  2  1  1  0
  3  2  2  0
  4  3  1  0
  5 11  1  0
  5  4  2  0
  6  5  1  0
  7  6  1  0
  7  8  1  1
  9  7  1  0
 10  9  2  0
 11 12  2  0
 12  2  1  0
 13  9  1  0
 13 17  1  0
 14 15  1  0
 14 13  1  0
 15 16  1  0
 16 17  1  0
 18 26  1  0
 17 18  1  6
 19 18  2  0
 20 21  1  0
 21 22  2  0
 23 24  1  0
 23 21  1  0
 25 24  1  1
 25 27  1  0
 25 26  1  0
 27 29  1  0
 28 27  2  0
M  END
$$$$
