YPQ.pdb
     RDKit          3D

 29 30  0  0  1  0  0  0  0  0999 V2000
   31.4845  -16.4042  -18.5407 O   0  0  0  0  0  0  0  0  0  0  0  0
   30.4454  -17.0760  -17.8903 C   0  0  0  0  0  0  0  0  0  0  0  0
   29.2308  -17.2662  -18.5216 C   0  0  0  0  0  0  0  0  0  0  0  0
   28.1909  -17.9229  -17.9072 C   0  0  0  0  0  0  0  0  0  0  0  0
   28.3212  -18.4205  -16.6280 C   0  0  0  0  0  0  0  0  0  0  0  0
   27.1886  -19.1350  -15.9646 C   0  0  0  0  0  0  0  0  0  0  0  0
   27.5658  -20.5649  -15.6444 C   0  0  2  0  0  0  0  0  0  0  0  0
   27.9817  -21.2978  -16.7989 N   0  0  0  0  0  0  0  0  0  0  0  0
   26.5012  -21.2378  -14.8584 C   0  0  0  0  0  0  0  0  0  0  0  0
   25.7057  -22.0432  -15.4546 O   0  0  0  0  0  0  0  0  0  0  0  0
   29.5287  -18.2359  -15.9898 C   0  0  0  0  0  0  0  0  0  0  0  0
   30.5583  -17.5759  -16.6212 C   0  0  0  0  0  0  0  0  0  0  0  0
   26.2931  -21.0526  -13.4638 N   0  0  0  0  0  0  0  0  0  0  0  0
   27.0589  -20.1628  -12.6053 C   0  0  0  0  0  0  0  0  0  0  0  0
   26.2695  -20.1583  -11.3275 C   0  0  0  0  0  0  0  0  0  0  0  0
   25.7161  -21.5475  -11.2533 C   0  0  0  0  0  0  0  0  0  0  0  0
   25.2677  -21.7420  -12.7080 C   0  0  1  0  0  0  0  0  0  0  0  0
   23.9492  -21.0506  -12.8315 C   0  0  0  0  0  0  0  0  0  0  0  0
   23.8445  -19.7998  -12.9398 O   0  0  0  0  0  0  0  0  0  0  0  0
   18.7117  -24.3776  -13.5453 N   0  0  0  0  0  0  0  0  0  0  0  0
   18.1594  -23.0811  -13.4302 C   0  0  0  0  0  0  0  0  0  0  0  0
   16.8935  -22.9669  -13.4557 O   0  0  0  0  0  0  0  0  0  0  0  0
   19.0366  -21.8771  -13.2825 C   0  0  0  0  0  0  0  0  0  0  0  0
   20.4454  -22.3501  -13.1672 C   0  0  0  0  0  0  0  0  0  0  0  0
   21.4362  -21.2087  -13.0194 C   0  0  2  0  0  0  0  0  0  0  0  0
   22.7564  -21.8240  -12.8279 N   0  0  0  0  0  0  0  0  0  0  0  0
   21.0255  -20.4490  -11.8167 C   0  0  0  0  0  0  0  0  0  0  0  0
   21.4640  -20.8281  -10.7076 O   0  0  0  0  0  0  0  0  0  0  0  0
   20.1987  -19.3721  -11.9006 O   0  0  0  0  0  0  0  0  0  0  0  0
  2  1  1  0
  3  2  2  0
  4  3  1  0
  5 11  1  0
  5  4  2  0
  6  5  1  0
  7  6  1  0
  7  8  1  6
  9  7  1  0
 10  9  2  0
 11 12  2  0
 12  2  1  0
 13  9  1  0
 13 17  1  0
 14 15  1  0
 14 13  1  0
 15 16  1  0
 16 17  1  0
 18 26  1  0
 17 18  1  1
 19 18  2  0
 20 21  1  0
 21 22  2  0
 23 24  1  0
 23 21  1  0
 25 24  1  1
 25 27  1  0
 25 26  1  0
 27 29  1  0
 28 27  2  0
M  END
$$$$
