YPQ.pdb
     RDKit          3D

 29 30  0  0  1  0  0  0  0  0999 V2000
   29.1083  -20.1829   -6.2092 O   0  0  0  0  0  0  0  0  0  0  0  0
   28.2162  -20.4272   -7.2573 C   0  0  0  0  0  0  0  0  0  0  0  0
   26.9793  -19.8112   -7.2823 C   0  0  0  0  0  0  0  0  0  0  0  0
   26.0814  -20.0320   -8.2998 C   0  0  0  0  0  0  0  0  0  0  0  0
   26.3831  -20.8829   -9.3419 C   0  0  0  0  0  0  0  0  0  0  0  0
   25.4046  -21.1188  -10.4465 C   0  0  0  0  0  0  0  0  0  0  0  0
   25.9545  -20.6296  -11.7686 C   0  0  2  0  0  0  0  0  0  0  0  0
   26.5498  -19.3336  -11.6732 N   0  0  0  0  0  0  0  0  0  0  0  0
   24.9416  -20.7462  -12.8476 C   0  0  0  0  0  0  0  0  0  0  0  0
   24.2004  -19.7378  -13.1136 O   0  0  0  0  0  0  0  0  0  0  0  0
   27.6143  -21.5020   -9.3261 C   0  0  0  0  0  0  0  0  0  0  0  0
   28.5001  -21.2685   -8.2989 C   0  0  0  0  0  0  0  0  0  0  0  0
   24.7270  -21.9174  -13.6252 N   0  0  0  0  0  0  0  0  0  0  0  0
   25.4629  -23.1650  -13.4958 C   0  0  0  0  0  0  0  0  0  0  0  0
   24.6734  -24.1171  -14.3479 C   0  0  0  0  0  0  0  0  0  0  0  0
   24.1657  -23.2527  -15.4599 C   0  0  0  0  0  0  0  0  0  0  0  0
   23.7244  -22.0158  -14.6660 C   0  0  1  0  0  0  0  0  0  0  0  0
   22.3840  -22.3460  -14.0949 C   0  0  0  0  0  0  0  0  0  0  0  0
   22.2369  -23.1008  -13.0970 O   0  0  0  0  0  0  0  0  0  0  0  0
   19.6747  -17.3233  -12.2069 N   0  0  0  0  0  0  0  0  0  0  0  0
   19.3234  -18.3435  -13.1206 C   0  0  0  0  0  0  0  0  0  0  0  0
   18.4177  -18.0925  -13.9766 O   0  0  0  0  0  0  0  0  0  0  0  0
   19.9963  -19.6803  -13.0834 C   0  0  0  0  0  0  0  0  0  0  0  0
   19.2653  -20.5852  -14.0153 C   0  0  0  0  0  0  0  0  0  0  0  0
   19.8875  -21.9682  -14.0972 C   0  0  2  0  0  0  0  0  0  0  0  0
   21.2190  -21.7924  -14.6926 N   0  0  0  0  0  0  0  0  0  0  0  0
   19.0125  -22.7707  -14.9819 C   0  0  0  0  0  0  0  0  0  0  0  0
   19.3914  -22.9656  -16.1585 O   0  0  0  0  0  0  0  0  0  0  0  0
   17.8325  -23.2853  -14.5425 O   0  0  0  0  0  0  0  0  0  0  0  0
  2  1  1  0
  3  2  2  0
  4  3  1  0
  5 11  1  0
  5  4  2  0
  6  5  1  0
  7  6  1  0
  7  8  1  1
  9  7  1  0
 10  9  2  0
 11 12  2  0
 12  2  1  0
 13  9  1  0
 13 17  1  0
 14 15  1  0
 14 13  1  0
 15 16  1  0
 16 17  1  0
 18 26  1  0
 17 18  1  1
 19 18  2  0
 20 21  1  0
 21 22  2  0
 23 24  1  0
 23 21  1  0
 25 24  1  6
 25 27  1  0
 25 26  1  0
 27 29  1  0
 28 27  2  0
M  END
$$$$
