YPQ.pdb
     RDKit          3D

 29 30  0  0  1  0  0  0  0  0999 V2000
   28.1869  -13.9897  -18.9226 O   0  0  0  0  0  0  0  0  0  0  0  0
   27.6119  -15.0498  -18.2157 C   0  0  0  0  0  0  0  0  0  0  0  0
   27.9129  -15.2470  -16.8814 C   0  0  0  0  0  0  0  0  0  0  0  0
   27.3631  -16.2806  -16.1605 C   0  0  0  0  0  0  0  0  0  0  0  0
   26.4836  -17.1664  -16.7460 C   0  0  0  0  0  0  0  0  0  0  0  0
   25.8872  -18.2876  -15.9581 C   0  0  0  0  0  0  0  0  0  0  0  0
   26.7752  -19.5119  -16.0040 C   0  0  2  0  0  0  0  0  0  0  0  0
   26.8420  -20.0969  -17.3065 N   0  0  0  0  0  0  0  0  0  0  0  0
   26.4180  -20.4747  -14.9319 C   0  0  0  0  0  0  0  0  0  0  0  0
   25.5222  -21.3579  -15.1653 O   0  0  0  0  0  0  0  0  0  0  0  0
   26.1770  -16.9783  -18.0763 C   0  0  0  0  0  0  0  0  0  0  0  0
   26.7375  -15.9377  -18.7816 C   0  0  0  0  0  0  0  0  0  0  0  0
   27.0074  -20.4916  -13.6378 N   0  0  0  0  0  0  0  0  0  0  0  0
   28.2710  -19.8690  -13.2759 C   0  0  0  0  0  0  0  0  0  0  0  0
   28.2805  -19.9623  -11.7768 C   0  0  0  0  0  0  0  0  0  0  0  0
   27.5750  -21.2540  -11.5022 C   0  0  0  0  0  0  0  0  0  0  0  0
   26.4077  -21.1447  -12.4925 C   0  0  1  0  0  0  0  0  0  0  0  0
   25.3914  -20.2653  -11.8402 C   0  0  0  0  0  0  0  0  0  0  0  0
   25.3986  -19.0113  -11.9618 O   0  0  0  0  0  0  0  0  0  0  0  0
   22.0461  -19.2808  -14.5670 N   0  0  0  0  0  0  0  0  0  0  0  0
   20.9219  -19.7019  -13.8200 C   0  0  0  0  0  0  0  0  0  0  0  0
   19.8024  -19.1514  -14.0643 O   0  0  0  0  0  0  0  0  0  0  0  0
   21.0434  -20.7641  -12.7722 C   0  0  0  0  0  0  0  0  0  0  0  0
   22.4947  -21.0021  -12.5296 C   0  0  0  0  0  0  0  0  0  0  0  0
   22.9603  -20.4635  -11.1881 C   0  0  2  0  0  0  0  0  0  0  0  0
   24.3693  -20.8547  -11.0474 N   0  0  0  0  0  0  0  0  0  0  0  0
   22.1222  -21.1191  -10.1585 C   0  0  0  0  0  0  0  0  0  0  0  0
   21.1861  -20.4567   -9.6576 O   0  0  0  0  0  0  0  0  0  0  0  0
   22.3516  -22.3996   -9.7609 O   0  0  0  0  0  0  0  0  0  0  0  0
  2  1  1  0
  3  2  2  0
  4  3  1  0
  5 11  1  0
  5  4  2  0
  6  5  1  0
  7  6  1  0
  7  8  1  6
  9  7  1  0
 10  9  2  0
 11 12  2  0
 12  2  1  0
 13  9  1  0
 13 17  1  0
 14 15  1  0
 14 13  1  0
 15 16  1  0
 16 17  1  0
 18 26  1  0
 17 18  1  1
 19 18  2  0
 20 21  1  0
 21 22  2  0
 23 24  1  0
 23 21  1  0
 25 24  1  6
 25 27  1  0
 25 26  1  0
 27 29  1  0
 28 27  2  0
M  END
$$$$
