YPQ.pdb
     RDKit          3D

 29 30  0  0  1  0  0  0  0  0999 V2000
   20.2315  -14.0805  -18.9128 O   0  0  0  0  0  0  0  0  0  0  0  0
   20.9344  -15.0015  -18.1307 C   0  0  0  0  0  0  0  0  0  0  0  0
   20.2654  -16.0149  -17.4709 C   0  0  0  0  0  0  0  0  0  0  0  0
   20.9297  -16.9350  -16.6947 C   0  0  0  0  0  0  0  0  0  0  0  0
   22.2991  -16.8811  -16.5439 C   0  0  0  0  0  0  0  0  0  0  0  0
   23.0172  -17.8843  -15.7004 C   0  0  0  0  0  0  0  0  0  0  0  0
   23.8846  -18.7845  -16.5529 C   0  0  2  0  0  0  0  0  0  0  0  0
   23.1326  -19.5221  -17.5190 N   0  0  0  0  0  0  0  0  0  0  0  0
   24.7719  -19.6275  -15.7128 C   0  0  0  0  0  0  0  0  0  0  0  0
   24.3289  -20.7426  -15.2686 O   0  0  0  0  0  0  0  0  0  0  0  0
   22.9755  -15.8741  -17.1980 C   0  0  0  0  0  0  0  0  0  0  0  0
   22.2931  -14.9622  -17.9706 C   0  0  0  0  0  0  0  0  0  0  0  0
   26.1050  -19.2841  -15.3560 N   0  0  0  0  0  0  0  0  0  0  0  0
   26.8872  -18.2080  -15.9436 C   0  0  0  0  0  0  0  0  0  0  0  0
   28.0844  -18.1236  -15.0404 C   0  0  0  0  0  0  0  0  0  0  0  0
   28.3101  -19.5442  -14.6251 C   0  0  0  0  0  0  0  0  0  0  0  0
   26.8665  -19.9786  -14.3382 C   0  0  1  0  0  0  0  0  0  0  0  0
   26.5413  -19.4627  -12.9745 C   0  0  0  0  0  0  0  0  0  0  0  0
   26.2705  -18.2526  -12.7517 O   0  0  0  0  0  0  0  0  0  0  0  0
   21.7974  -21.3177  -12.0621 N   0  0  0  0  0  0  0  0  0  0  0  0
   21.8788  -20.7745  -10.7593 C   0  0  0  0  0  0  0  0  0  0  0  0
   20.8001  -20.6393  -10.1002 O   0  0  0  0  0  0  0  0  0  0  0  0
   23.1945  -20.3698  -10.1709 C   0  0  0  0  0  0  0  0  0  0  0  0
   24.2368  -20.5414  -11.2225 C   0  0  0  0  0  0  0  0  0  0  0  0
   25.6282  -20.1803  -10.7325 C   0  0  2  0  0  0  0  0  0  0  0  0
   26.5337  -20.3635  -11.8747 N   0  0  0  0  0  0  0  0  0  0  0  0
   25.9495  -21.1301   -9.6431 C   0  0  0  0  0  0  0  0  0  0  0  0
   26.4768  -22.2213   -9.9553 O   0  0  0  0  0  0  0  0  0  0  0  0
   25.6854  -20.8386   -8.3410 O   0  0  0  0  0  0  0  0  0  0  0  0
  2  1  1  0
  3  2  2  0
  4  3  1  0
  5 11  1  0
  5  4  2  0
  6  5  1  0
  7  6  1  0
  7  8  1  1
  9  7  1  0
 10  9  2  0
 11 12  2  0
 12  2  1  0
 13  9  1  0
 13 17  1  0
 14 15  1  0
 14 13  1  0
 15 16  1  0
 16 17  1  0
 18 26  1  0
 17 18  1  1
 19 18  2  0
 20 21  1  0
 21 22  2  0
 23 24  1  0
 23 21  1  0
 25 24  1  6
 25 27  1  0
 25 26  1  0
 27 29  1  0
 28 27  2  0
M  END
$$$$
