YPQ.pdb
     RDKit          3D

 29 30  0  0  1  0  0  0  0  0999 V2000
   27.6340  -12.6062  -18.7765 O   0  0  0  0  0  0  0  0  0  0  0  0
   27.1909  -13.7199  -18.0572 C   0  0  0  0  0  0  0  0  0  0  0  0
   27.8714  -14.1425  -16.9310 C   0  0  0  0  0  0  0  0  0  0  0  0
   27.4595  -15.2340  -16.2037 C   0  0  0  0  0  0  0  0  0  0  0  0
   26.3432  -15.9541  -16.5730 C   0  0  0  0  0  0  0  0  0  0  0  0
   25.8982  -17.1390  -15.7785 C   0  0  0  0  0  0  0  0  0  0  0  0
   26.5982  -18.3964  -16.2461 C   0  0  2  0  0  0  0  0  0  0  0  0
   26.2527  -18.7547  -17.5859 N   0  0  0  0  0  0  0  0  0  0  0  0
   26.4296  -19.5002  -15.2677 C   0  0  0  0  0  0  0  0  0  0  0  0
   25.3656  -20.2093  -15.3105 O   0  0  0  0  0  0  0  0  0  0  0  0
   25.6575  -15.5405  -17.6947 C   0  0  0  0  0  0  0  0  0  0  0  0
   26.0853  -14.4453  -18.4101 C   0  0  0  0  0  0  0  0  0  0  0  0
   27.3801  -19.8376  -14.2652 N   0  0  0  0  0  0  0  0  0  0  0  0
   28.6927  -19.2317  -14.1062 C   0  0  0  0  0  0  0  0  0  0  0  0
   29.1517  -19.7559  -12.7755 C   0  0  0  0  0  0  0  0  0  0  0  0
   28.5639  -21.1318  -12.7199 C   0  0  0  0  0  0  0  0  0  0  0  0
   27.1531  -20.8489  -13.2535 C   0  0  1  0  0  0  0  0  0  0  0  0
   26.3774  -20.2966  -12.1024 C   0  0  0  0  0  0  0  0  0  0  0  0
   26.5208  -19.1149  -11.6900 O   0  0  0  0  0  0  0  0  0  0  0  0
   20.6887  -21.8619  -11.9744 N   0  0  0  0  0  0  0  0  0  0  0  0
   20.6769  -21.1057  -10.7798 C   0  0  0  0  0  0  0  0  0  0  0  0
   19.5568  -20.8991  -10.2150 O   0  0  0  0  0  0  0  0  0  0  0  0
   21.9438  -20.5634  -10.1952 C   0  0  0  0  0  0  0  0  0  0  0  0
   23.0764  -21.0400  -11.0388 C   0  0  0  0  0  0  0  0  0  0  0  0
   24.4270  -20.5748  -10.5232 C   0  0  2  0  0  0  0  0  0  0  0  0
   25.4358  -21.1280  -11.4367 N   0  0  0  0  0  0  0  0  0  0  0  0
   24.5752  -21.1413   -9.1633 C   0  0  0  0  0  0  0  0  0  0  0  0
   23.9612  -20.5825   -8.2269 O   0  0  0  0  0  0  0  0  0  0  0  0
   25.3506  -22.2334   -8.9257 O   0  0  0  0  0  0  0  0  0  0  0  0
  2  1  1  0
  3  2  2  0
  4  3  1  0
  5 11  1  0
  5  4  2  0
  6  5  1  0
  7  6  1  0
  7  8  1  6
  9  7  1  0
 10  9  2  0
 11 12  2  0
 12  2  1  0
 13  9  1  0
 13 17  1  0
 14 15  1  0
 14 13  1  0
 15 16  1  0
 16 17  1  0
 18 26  1  0
 17 18  1  1
 19 18  2  0
 20 21  1  0
 21 22  2  0
 23 24  1  0
 23 21  1  0
 25 24  1  6
 25 27  1  0
 25 26  1  0
 27 29  1  0
 28 27  2  0
M  END
$$$$
