YPQ.pdb
     RDKit          3D

 29 30  0  0  1  0  0  0  0  0999 V2000
   28.4490  -13.4555  -17.1005 O   0  0  0  0  0  0  0  0  0  0  0  0
   27.6854  -14.5658  -16.7289 C   0  0  0  0  0  0  0  0  0  0  0  0
   27.5622  -14.9176  -15.3981 C   0  0  0  0  0  0  0  0  0  0  0  0
   26.8181  -16.0040  -15.0026 C   0  0  0  0  0  0  0  0  0  0  0  0
   26.1615  -16.7898  -15.9258 C   0  0  0  0  0  0  0  0  0  0  0  0
   25.3525  -17.9689  -15.4913 C   0  0  0  0  0  0  0  0  0  0  0  0
   26.2037  -19.2189  -15.4416 C   0  0  2  0  0  0  0  0  0  0  0  0
   26.7873  -19.5399  -16.7062 N   0  0  0  0  0  0  0  0  0  0  0  0
   25.4661  -20.3463  -14.8181 C   0  0  0  0  0  0  0  0  0  0  0  0
   24.8432  -21.1717  -15.5715 O   0  0  0  0  0  0  0  0  0  0  0  0
   26.2781  -16.4472  -17.2556 C   0  0  0  0  0  0  0  0  0  0  0  0
   27.0275  -15.3560  -17.6323 C   0  0  0  0  0  0  0  0  0  0  0  0
   25.3971  -20.5850  -13.4178 N   0  0  0  0  0  0  0  0  0  0  0  0
   26.1046  -19.8304  -12.3955 C   0  0  0  0  0  0  0  0  0  0  0  0
   25.4817  -20.3182  -11.1187 C   0  0  0  0  0  0  0  0  0  0  0  0
   25.1735  -21.7548  -11.4064 C   0  0  0  0  0  0  0  0  0  0  0  0
   24.5937  -21.6326  -12.8220 C   0  0  1  0  0  0  0  0  0  0  0  0
   23.1753  -21.1951  -12.6529 C   0  0  0  0  0  0  0  0  0  0  0  0
   22.8618  -20.0803  -12.1570 O   0  0  0  0  0  0  0  0  0  0  0  0
   17.9192  -24.1371  -14.7985 N   0  0  0  0  0  0  0  0  0  0  0  0
   18.8897  -24.7757  -13.9927 C   0  0  0  0  0  0  0  0  0  0  0  0
   18.7439  -26.0155  -13.7519 O   0  0  0  0  0  0  0  0  0  0  0  0
   20.0552  -24.0173  -13.4383 C   0  0  0  0  0  0  0  0  0  0  0  0
   19.9687  -22.6165  -13.9405 C   0  0  0  0  0  0  0  0  0  0  0  0
   20.7226  -21.6323  -13.0633 C   0  0  2  0  0  0  0  0  0  0  0  0
   22.1272  -22.0629  -13.0643 N   0  0  0  0  0  0  0  0  0  0  0  0
   20.1351  -21.7416  -11.7086 C   0  0  0  0  0  0  0  0  0  0  0  0
   19.0922  -21.0927  -11.4694 O   0  0  0  0  0  0  0  0  0  0  0  0
   20.7007  -22.5187  -10.7460 O   0  0  0  0  0  0  0  0  0  0  0  0
  2  1  1  0
  3  2  2  0
  4  3  1  0
  5 11  1  0
  5  4  2  0
  6  5  1  0
  7  6  1  0
  7  8  1  6
  9  7  1  0
 10  9  2  0
 11 12  2  0
 12  2  1  0
 13  9  1  0
 13 17  1  0
 14 15  1  0
 14 13  1  0
 15 16  1  0
 16 17  1  0
 18 26  1  0
 17 18  1  1
 19 18  2  0
 20 21  1  0
 21 22  2  0
 23 24  1  0
 23 21  1  0
 25 24  1  6
 25 27  1  0
 25 26  1  0
 27 29  1  0
 28 27  2  0
M  END
$$$$
