YPQ.pdb
     RDKit          3D

 29 30  0  0  1  0  0  0  0  0999 V2000
   28.2886  -19.2453   -5.4419 O   0  0  0  0  0  0  0  0  0  0  0  0
   27.8402  -19.7494   -6.6662 C   0  0  0  0  0  0  0  0  0  0  0  0
   28.7418  -20.0809   -7.6598 C   0  0  0  0  0  0  0  0  0  0  0  0
   28.3304  -20.5786   -8.8736 C   0  0  0  0  0  0  0  0  0  0  0  0
   26.9925  -20.7673   -9.1478 C   0  0  0  0  0  0  0  0  0  0  0  0
   26.5500  -21.3100  -10.4681 C   0  0  0  0  0  0  0  0  0  0  0  0
   25.5482  -20.3847  -11.1238 C   0  0  2  0  0  0  0  0  0  0  0  0
   24.2174  -20.5804  -10.6405 N   0  0  0  0  0  0  0  0  0  0  0  0
   25.6619  -20.4321  -12.6033 C   0  0  0  0  0  0  0  0  0  0  0  0
   24.6853  -20.8991  -13.2853 O   0  0  0  0  0  0  0  0  0  0  0  0
   26.0854  -20.4397   -8.1634 C   0  0  0  0  0  0  0  0  0  0  0  0
   26.5162  -19.9427   -6.9544 C   0  0  0  0  0  0  0  0  0  0  0  0
   26.7967  -19.9887  -13.3367 N   0  0  0  0  0  0  0  0  0  0  0  0
   28.0655  -19.5716  -12.7611 C   0  0  0  0  0  0  0  0  0  0  0  0
   28.9650  -19.4643  -13.9592 C   0  0  0  0  0  0  0  0  0  0  0  0
   28.0465  -18.9977  -15.0456 C   0  0  0  0  0  0  0  0  0  0  0  0
   26.8311  -19.8968  -14.7818 C   0  0  1  0  0  0  0  0  0  0  0  0
   27.1514  -21.2188  -15.3994 C   0  0  0  0  0  0  0  0  0  0  0  0
   28.1711  -21.8879  -15.0838 O   0  0  0  0  0  0  0  0  0  0  0  0
   23.9235  -25.5184  -14.4839 N   0  0  0  0  0  0  0  0  0  0  0  0
   24.4945  -26.1420  -15.6171 C   0  0  0  0  0  0  0  0  0  0  0  0
   24.2133  -27.3631  -15.8318 O   0  0  0  0  0  0  0  0  0  0  0  0
   25.4034  -25.3894  -16.5382 C   0  0  0  0  0  0  0  0  0  0  0  0
   25.5407  -24.0020  -16.0109 C   0  0  0  0  0  0  0  0  0  0  0  0
   26.4262  -23.1290  -16.8829 C   0  0  2  0  0  0  0  0  0  0  0  0
   26.2780  -21.7549  -16.3847 N   0  0  0  0  0  0  0  0  0  0  0  0
   25.9071  -23.2515  -18.2641 C   0  0  0  0  0  0  0  0  0  0  0  0
   26.2208  -24.2710  -18.9184 O   0  0  0  0  0  0  0  0  0  0  0  0
   25.1140  -22.2940  -18.8160 O   0  0  0  0  0  0  0  0  0  0  0  0
  2  1  1  0
  3  2  2  0
  4  3  1  0
  5 11  1  0
  5  4  2  0
  6  5  1  0
  7  6  1  0
  7  8  1  6
  9  7  1  0
 10  9  2  0
 11 12  2  0
 12  2  1  0
 13  9  1  0
 13 17  1  0
 14 15  1  0
 14 13  1  0
 15 16  1  0
 16 17  1  0
 18 26  1  0
 17 18  1  6
 19 18  2  0
 20 21  1  0
 21 22  2  0
 23 24  1  0
 23 21  1  0
 25 24  1  1
 25 27  1  0
 25 26  1  0
 27 29  1  0
 28 27  2  0
M  END
$$$$
