YPQ.pdb
     RDKit          3D

 29 30  0  0  1  0  0  0  0  0999 V2000
   20.6455  -16.3660  -17.4355 O   0  0  0  0  0  0  0  0  0  0  0  0
   20.5158  -17.2318  -16.3458 C   0  0  0  0  0  0  0  0  0  0  0  0
   19.5985  -18.2650  -16.3773 C   0  0  0  0  0  0  0  0  0  0  0  0
   19.4486  -19.1322  -15.3210 C   0  0  0  0  0  0  0  0  0  0  0  0
   20.2136  -19.0029  -14.1812 C   0  0  0  0  0  0  0  0  0  0  0  0
   20.0483  -19.9487  -13.0360 C   0  0  0  0  0  0  0  0  0  0  0  0
   21.2748  -20.8198  -12.8737 C   0  0  2  0  0  0  0  0  0  0  0  0
   21.6070  -21.5332  -14.0669 N   0  0  0  0  0  0  0  0  0  0  0  0
   21.1656  -21.6821  -11.6703 C   0  0  0  0  0  0  0  0  0  0  0  0
   20.6110  -22.8300  -11.7785 O   0  0  0  0  0  0  0  0  0  0  0  0
   21.1314  -17.9756  -14.1400 C   0  0  0  0  0  0  0  0  0  0  0  0
   21.2671  -17.1175  -15.2074 C   0  0  0  0  0  0  0  0  0  0  0  0
   21.6401  -21.3231  -10.3786 N   0  0  0  0  0  0  0  0  0  0  0  0
   22.3228  -20.0836  -10.0428 C   0  0  0  0  0  0  0  0  0  0  0  0
   22.3596  -20.1101   -8.5415 C   0  0  0  0  0  0  0  0  0  0  0  0
   22.5057  -21.5652   -8.2207 C   0  0  0  0  0  0  0  0  0  0  0  0
   21.4978  -22.1664   -9.2096 C   0  0  1  0  0  0  0  0  0  0  0  0
   20.1519  -21.9986   -8.5834 C   0  0  0  0  0  0  0  0  0  0  0  0
   19.3232  -21.1335   -8.9735 O   0  0  0  0  0  0  0  0  0  0  0  0
   18.1554  -26.1638  -10.6061 N   0  0  0  0  0  0  0  0  0  0  0  0
   17.3435  -25.0092  -10.6888 C   0  0  0  0  0  0  0  0  0  0  0  0
   16.5942  -24.8780  -11.7074 O   0  0  0  0  0  0  0  0  0  0  0  0
   17.3634  -23.9708   -9.6108 C   0  0  0  0  0  0  0  0  0  0  0  0
   18.3217  -24.4206   -8.5615 C   0  0  0  0  0  0  0  0  0  0  0  0
   18.4370  -23.4346   -7.4121 C   0  0  2  0  0  0  0  0  0  0  0  0
   19.7787  -22.8430   -7.5025 N   0  0  0  0  0  0  0  0  0  0  0  0
   18.2869  -24.2216   -6.1670 C   0  0  0  0  0  0  0  0  0  0  0  0
   19.2846  -24.8512   -5.7494 O   0  0  0  0  0  0  0  0  0  0  0  0
   17.1085  -24.2673   -5.4891 O   0  0  0  0  0  0  0  0  0  0  0  0
  2  1  1  0
  3  2  2  0
  4  3  1  0
  5 11  1  0
  5  4  2  0
  6  5  1  0
  7  6  1  0
  7  8  1  6
  9  7  1  0
 10  9  2  0
 11 12  2  0
 12  2  1  0
 13  9  1  0
 13 17  1  0
 14 15  1  0
 14 13  1  0
 15 16  1  0
 16 17  1  0
 18 26  1  0
 17 18  1  1
 19 18  2  0
 20 21  1  0
 21 22  2  0
 23 24  1  0
 23 21  1  0
 25 24  1  6
 25 27  1  0
 25 26  1  0
 27 29  1  0
 28 27  2  0
M  END
$$$$
