YPQ.pdb
     RDKit          3D

 29 30  0  0  1  0  0  0  0  0999 V2000
   22.2391  -21.4661   -7.2696 O   0  0  0  0  0  0  0  0  0  0  0  0
   22.8405  -21.4225   -8.5307 C   0  0  0  0  0  0  0  0  0  0  0  0
   22.0966  -21.6630   -9.6703 C   0  0  0  0  0  0  0  0  0  0  0  0
   22.6605  -21.6270  -10.9237 C   0  0  0  0  0  0  0  0  0  0  0  0
   23.9999  -21.3475  -11.0926 C   0  0  0  0  0  0  0  0  0  0  0  0
   24.6084  -21.3079  -12.4570 C   0  0  0  0  0  0  0  0  0  0  0  0
   24.5853  -19.9028  -13.0180 C   0  0  2  0  0  0  0  0  0  0  0  0
   23.2592  -19.4229  -13.2504 N   0  0  0  0  0  0  0  0  0  0  0  0
   25.4824  -19.7796  -14.1944 C   0  0  0  0  0  0  0  0  0  0  0  0
   24.9652  -19.6738  -15.3599 O   0  0  0  0  0  0  0  0  0  0  0  0
   24.7505  -21.1061   -9.9622 C   0  0  0  0  0  0  0  0  0  0  0  0
   24.1683  -21.1466   -8.7158 C   0  0  0  0  0  0  0  0  0  0  0  0
   26.9028  -19.7696  -14.1245 N   0  0  0  0  0  0  0  0  0  0  0  0
   27.6908  -19.9207  -12.9115 C   0  0  0  0  0  0  0  0  0  0  0  0
   29.0886  -20.0970  -13.4322 C   0  0  0  0  0  0  0  0  0  0  0  0
   29.1157  -19.2390  -14.6588 C   0  0  0  0  0  0  0  0  0  0  0  0
   27.7609  -19.6054  -15.2797 C   0  0  1  0  0  0  0  0  0  0  0  0
   27.9671  -20.9044  -15.9881 C   0  0  0  0  0  0  0  0  0  0  0  0
   28.0068  -22.0096  -15.3845 O   0  0  0  0  0  0  0  0  0  0  0  0
   24.0426  -23.4068  -17.9311 N   0  0  0  0  0  0  0  0  0  0  0  0
   24.2713  -22.1421  -18.5204 C   0  0  0  0  0  0  0  0  0  0  0  0
   23.2627  -21.4753  -18.9133 O   0  0  0  0  0  0  0  0  0  0  0  0
   25.6584  -21.6018  -18.6784 C   0  0  0  0  0  0  0  0  0  0  0  0
   26.6066  -22.6101  -18.1252 C   0  0  0  0  0  0  0  0  0  0  0  0
   28.0523  -22.1484  -18.1836 C   0  0  2  0  0  0  0  0  0  0  0  0
   28.1263  -20.9075  -17.4007 N   0  0  0  0  0  0  0  0  0  0  0  0
   28.3546  -21.8942  -19.6106 C   0  0  0  0  0  0  0  0  0  0  0  0
   28.5561  -20.7107  -19.9638 O   0  0  0  0  0  0  0  0  0  0  0  0
   28.4144  -22.9052  -20.5186 O   0  0  0  0  0  0  0  0  0  0  0  0
  2  1  1  0
  3  2  2  0
  4  3  1  0
  5 11  1  0
  5  4  2  0
  6  5  1  0
  7  6  1  0
  7  8  1  6
  9  7  1  0
 10  9  2  0
 11 12  2  0
 12  2  1  0
 13  9  1  0
 13 17  1  0
 14 15  1  0
 14 13  1  0
 15 16  1  0
 16 17  1  0
 18 26  1  0
 17 18  1  1
 19 18  2  0
 20 21  1  0
 21 22  2  0
 23 24  1  0
 23 21  1  0
 25 24  1  6
 25 27  1  0
 25 26  1  0
 27 29  1  0
 28 27  2  0
M  END
$$$$
