YPQ.pdb
     RDKit          3D

 29 30  0  0  1  0  0  0  0  0999 V2000
   27.6505  -14.3022  -20.5640 O   0  0  0  0  0  0  0  0  0  0  0  0
   27.2549  -15.2060  -19.5737 C   0  0  0  0  0  0  0  0  0  0  0  0
   26.0989  -15.9483  -19.7242 C   0  0  0  0  0  0  0  0  0  0  0  0
   25.6847  -16.8445  -18.7674 C   0  0  0  0  0  0  0  0  0  0  0  0
   26.4124  -17.0383  -17.6125 C   0  0  0  0  0  0  0  0  0  0  0  0
   25.9592  -18.0147  -16.5758 C   0  0  0  0  0  0  0  0  0  0  0  0
   26.6412  -19.3528  -16.7596 C   0  0  2  0  0  0  0  0  0  0  0  0
   26.2930  -19.9851  -17.9933 N   0  0  0  0  0  0  0  0  0  0  0  0
   26.4544  -20.2188  -15.5683 C   0  0  0  0  0  0  0  0  0  0  0  0
   25.4337  -20.9884  -15.5155 O   0  0  0  0  0  0  0  0  0  0  0  0
   27.5669  -16.3027  -17.4530 C   0  0  0  0  0  0  0  0  0  0  0  0
   27.9655  -15.4102  -18.4219 C   0  0  0  0  0  0  0  0  0  0  0  0
   27.3415  -20.2598  -14.4576 N   0  0  0  0  0  0  0  0  0  0  0  0
   28.5997  -19.5380  -14.3530 C   0  0  0  0  0  0  0  0  0  0  0  0
   28.9829  -19.7266  -12.9130 C   0  0  0  0  0  0  0  0  0  0  0  0
   28.4743  -21.0978  -12.5924 C   0  0  0  0  0  0  0  0  0  0  0  0
   27.0956  -21.0428  -13.2641 C   0  0  1  0  0  0  0  0  0  0  0  0
   26.2008  -20.3141  -12.3152 C   0  0  0  0  0  0  0  0  0  0  0  0
   26.2569  -19.0665  -12.1494 O   0  0  0  0  0  0  0  0  0  0  0  0
   20.4070  -18.7393  -10.1060 N   0  0  0  0  0  0  0  0  0  0  0  0
   21.0366  -19.9233  -10.5540 C   0  0  0  0  0  0  0  0  0  0  0  0
   20.7436  -20.3533  -11.7139 O   0  0  0  0  0  0  0  0  0  0  0  0
   22.0193  -20.6510   -9.6904 C   0  0  0  0  0  0  0  0  0  0  0  0
   23.0675  -21.2287  -10.5788 C   0  0  0  0  0  0  0  0  0  0  0  0
   24.3291  -20.3843  -10.6220 C   0  0  2  0  0  0  0  0  0  0  0  0
   25.2428  -21.0467  -11.5626 N   0  0  0  0  0  0  0  0  0  0  0  0
   24.8851  -20.3894   -9.2497 C   0  0  0  0  0  0  0  0  0  0  0  0
   25.8101  -21.1933   -8.9966 O   0  0  0  0  0  0  0  0  0  0  0  0
   24.4147  -19.5526   -8.2860 O   0  0  0  0  0  0  0  0  0  0  0  0
  2  1  1  0
  3  2  2  0
  4  3  1  0
  5 11  1  0
  5  4  2  0
  6  5  1  0
  7  6  1  0
  7  8  1  6
  9  7  1  0
 10  9  2  0
 11 12  2  0
 12  2  1  0
 13  9  1  0
 13 17  1  0
 14 15  1  0
 14 13  1  0
 15 16  1  0
 16 17  1  0
 18 26  1  0
 17 18  1  1
 19 18  2  0
 20 21  1  0
 21 22  2  0
 23 24  1  0
 23 21  1  0
 25 24  1  1
 25 27  1  0
 25 26  1  0
 27 29  1  0
 28 27  2  0
M  END
$$$$
