YPQ.pdb
     RDKit          3D

 29 30  0  0  1  0  0  0  0  0999 V2000
   19.2421  -31.4507  -17.7776 O   0  0  0  0  0  0  0  0  0  0  0  0
   20.5021  -30.8456  -17.7955 C   0  0  0  0  0  0  0  0  0  0  0  0
   20.9156  -30.1211  -18.8973 C   0  0  0  0  0  0  0  0  0  0  0  0
   22.1488  -29.5150  -18.9437 C   0  0  0  0  0  0  0  0  0  0  0  0
   23.0265  -29.6077  -17.8845 C   0  0  0  0  0  0  0  0  0  0  0  0
   24.3654  -28.9460  -17.9386 C   0  0  0  0  0  0  0  0  0  0  0  0
   25.3131  -29.7171  -18.8313 C   0  0  2  0  0  0  0  0  0  0  0  0
   24.7140  -30.1016  -20.0708 N   0  0  0  0  0  0  0  0  0  0  0  0
   25.9469  -30.8412  -18.0975 C   0  0  0  0  0  0  0  0  0  0  0  0
   25.5055  -32.0281  -18.2803 O   0  0  0  0  0  0  0  0  0  0  0  0
   22.6234  -30.3280  -16.7809 C   0  0  0  0  0  0  0  0  0  0  0  0
   21.3850  -30.9278  -16.7529 C   0  0  0  0  0  0  0  0  0  0  0  0
   27.0303  -30.6976  -17.1874 N   0  0  0  0  0  0  0  0  0  0  0  0
   27.6386  -29.4381  -16.7888 C   0  0  0  0  0  0  0  0  0  0  0  0
   28.5288  -29.8355  -15.6461 C   0  0  0  0  0  0  0  0  0  0  0  0
   28.9935  -31.2073  -16.0254 C   0  0  0  0  0  0  0  0  0  0  0  0
   27.6764  -31.8137  -16.5281 C   0  0  1  0  0  0  0  0  0  0  0  0
   26.9205  -32.2318  -15.3092 C   0  0  0  0  0  0  0  0  0  0  0  0
   26.2762  -31.4177  -14.5957 O   0  0  0  0  0  0  0  0  0  0  0  0
   27.1236  -38.1536  -13.3190 N   0  0  0  0  0  0  0  0  0  0  0  0
   26.1698  -37.6281  -12.4172 C   0  0  0  0  0  0  0  0  0  0  0  0
   25.6883  -38.4077  -11.5360 O   0  0  0  0  0  0  0  0  0  0  0  0
   25.7381  -36.1968  -12.4952 C   0  0  0  0  0  0  0  0  0  0  0  0
   26.4766  -35.5581  -13.6214 C   0  0  0  0  0  0  0  0  0  0  0  0
   26.1645  -34.0784  -13.7620 C   0  0  2  0  0  0  0  0  0  0  0  0
   26.9204  -33.6013  -14.9279 N   0  0  0  0  0  0  0  0  0  0  0  0
   26.6401  -33.4289  -12.5194 C   0  0  0  0  0  0  0  0  0  0  0  0
   27.8334  -33.0547  -12.4750 O   0  0  0  0  0  0  0  0  0  0  0  0
   25.8170  -33.2391  -11.4532 O   0  0  0  0  0  0  0  0  0  0  0  0
  2  1  1  0
  3  2  2  0
  4  3  1  0
  5 11  1  0
  5  4  2  0
  6  5  1  0
  7  6  1  0
  7  8  1  6
  9  7  1  0
 10  9  2  0
 11 12  2  0
 12  2  1  0
 13  9  1  0
 13 17  1  0
 14 15  1  0
 14 13  1  0
 15 16  1  0
 16 17  1  0
 18 26  1  0
 17 18  1  1
 19 18  2  0
 20 21  1  0
 21 22  2  0
 23 24  1  0
 23 21  1  0
 25 24  1  1
 25 27  1  0
 25 26  1  0
 27 29  1  0
 28 27  2  0
M  END
$$$$
