YPQ.pdb
     RDKit          3D

 29 30  0  0  1  0  0  0  0  0999 V2000
   27.7321  -20.0691   -5.1372 O   0  0  0  0  0  0  0  0  0  0  0  0
   27.3515  -20.3746   -6.4471 C   0  0  0  0  0  0  0  0  0  0  0  0
   28.3011  -20.4832   -7.4453 C   0  0  0  0  0  0  0  0  0  0  0  0
   27.9567  -20.7823   -8.7423 C   0  0  0  0  0  0  0  0  0  0  0  0
   26.6408  -20.9870   -9.0991 C   0  0  0  0  0  0  0  0  0  0  0  0
   26.2712  -21.3134  -10.5099 C   0  0  0  0  0  0  0  0  0  0  0  0
   25.4635  -20.1939  -11.1293 C   0  0  2  0  0  0  0  0  0  0  0  0
   24.1070  -20.1775  -10.6792 N   0  0  0  0  0  0  0  0  0  0  0  0
   25.6050  -20.1837  -12.6071 C   0  0  0  0  0  0  0  0  0  0  0  0
   24.5910  -20.4795  -13.3289 O   0  0  0  0  0  0  0  0  0  0  0  0
   25.6862  -20.8809   -8.1108 C   0  0  0  0  0  0  0  0  0  0  0  0
   26.0502  -20.5806   -6.8179 C   0  0  0  0  0  0  0  0  0  0  0  0
   26.8066  -19.8635  -13.2971 N   0  0  0  0  0  0  0  0  0  0  0  0
   28.0847  -19.5593  -12.6733 C   0  0  0  0  0  0  0  0  0  0  0  0
   29.0391  -19.5591  -13.8331 C   0  0  0  0  0  0  0  0  0  0  0  0
   28.2154  -19.0261  -14.9639 C   0  0  0  0  0  0  0  0  0  0  0  0
   26.9094  -19.8004  -14.7405 C   0  0  1  0  0  0  0  0  0  0  0  0
   27.1265  -21.1575  -15.3261 C   0  0  0  0  0  0  0  0  0  0  0  0
   28.0658  -21.9136  -14.9611 O   0  0  0  0  0  0  0  0  0  0  0  0
   23.6995  -24.7272  -13.6364 N   0  0  0  0  0  0  0  0  0  0  0  0
   24.1081  -25.5957  -14.6747 C   0  0  0  0  0  0  0  0  0  0  0  0
   23.7695  -26.8186  -14.5982 O   0  0  0  0  0  0  0  0  0  0  0  0
   24.9155  -25.0929  -15.8307 C   0  0  0  0  0  0  0  0  0  0  0  0
   25.2444  -23.6627  -15.5699 C   0  0  0  0  0  0  0  0  0  0  0  0
   26.1210  -23.0565  -16.6519 C   0  0  2  0  0  0  0  0  0  0  0  0
   26.2443  -21.6269  -16.3372 N   0  0  0  0  0  0  0  0  0  0  0  0
   25.4066  -23.2581  -17.9330 C   0  0  0  0  0  0  0  0  0  0  0  0
   24.6432  -22.3477  -18.3264 O   0  0  0  0  0  0  0  0  0  0  0  0
   25.5658  -24.3912  -18.6685 O   0  0  0  0  0  0  0  0  0  0  0  0
  2  1  1  0
  3  2  2  0
  4  3  1  0
  5 11  1  0
  5  4  2  0
  6  5  1  0
  7  6  1  0
  7  8  1  6
  9  7  1  0
 10  9  2  0
 11 12  2  0
 12  2  1  0
 13  9  1  0
 13 17  1  0
 14 15  1  0
 14 13  1  0
 15 16  1  0
 16 17  1  0
 18 26  1  0
 17 18  1  6
 19 18  2  0
 20 21  1  0
 21 22  2  0
 23 24  1  0
 23 21  1  0
 25 24  1  1
 25 27  1  0
 25 26  1  0
 27 29  1  0
 28 27  2  0
M  END
$$$$
