MIT.pdb
     RDKit          3D

 24 23  0  0  1  0  0  0  0  0999 V2000
    5.4927  -19.5766   21.4311 C   0  0  0  0  0  0  0  0  0  0  0  0
    4.1690  -18.4545   20.9949 S   0  0  0  0  0  0  0  0  0  0  0  0
    4.7834  -16.8044   20.6200 C   0  0  0  0  0  0  0  0  0  0  0  0
    5.9156  -16.4637   21.5794 C   0  0  0  0  0  0  0  0  0  0  0  0
    6.3097  -15.0123   21.4467 C   0  0  2  0  0  0  0  0  0  0  0  0
    6.8214  -14.6617   20.1645 N   0  0  0  0  0  0  0  0  0  0  0  0
    7.3620  -14.7133   22.4906 C   0  0  0  0  0  0  0  0  0  0  0  0
    8.5522  -14.7528   22.0993 O   0  0  0  0  0  0  0  0  0  0  0  0
    6.0302  -11.2937   26.4513 C   0  0  0  0  0  0  0  0  0  0  0  0
    6.8448  -12.1238   25.4961 C   0  0  0  0  0  0  0  0  0  0  0  0
    7.1389  -13.5017   26.0206 C   0  0  2  0  0  0  0  0  0  0  0  0
    7.9675  -13.2694   27.2939 C   0  0  0  0  0  0  0  0  0  0  0  0
    7.8359  -14.3292   24.9863 C   0  0  2  0  0  0  0  0  0  0  0  0
    7.0000  -14.4132   23.8081 N   0  0  0  0  0  0  0  0  0  0  0  0
    8.2541  -15.6732   25.4191 C   0  0  0  0  0  0  0  0  0  0  0  0
    7.3820  -16.4676   25.9393 O   0  0  0  0  0  0  0  0  0  0  0  0
   10.2198  -18.2652   23.3084 C   0  0  0  0  0  0  0  0  0  0  0  0
   10.9256  -18.0780   24.6342 C   0  0  1  0  0  0  0  0  0  0  0  0
   12.1336  -17.4414   24.4315 O   0  0  0  0  0  0  0  0  0  0  0  0
   10.0578  -17.4092   25.6436 C   0  0  2  0  0  0  0  0  0  0  0  0
    9.5900  -16.0951   25.2662 N   0  0  0  0  0  0  0  0  0  0  0  0
   10.6274  -17.4539   27.0364 C   0  0  0  0  0  0  0  0  0  0  0  0
   10.9659  -18.6054   27.7050 O   0  0  0  0  0  0  0  0  0  0  0  0
   10.7834  -16.3081   27.5730 O   0  0  0  0  0  0  0  0  0  0  0  0
  1  2  1  0
  2  3  1  0
  4  3  1  0
  5  4  1  0
  5  6  1  6
  7 14  1  0
  7  5  1  0
  8  7  2  0
 10  9  1  0
 10 11  1  0
 11 12  1  1
 11 13  1  0
 13 14  1  6
 15 13  1  0
 15 21  1  0
 16 15  2  0
 18 17  1  6
 18 20  1  0
 19 18  1  0
 20 21  1  6
 20 22  1  0
 22 23  1  0
 24 22  2  0
M  END
$$$$
