MIT.pdb
     RDKit          3D

 24 23  0  0  1  0  0  0  0  0999 V2000
    7.1583  -11.0343   26.2330 C   0  0  0  0  0  0  0  0  0  0  0  0
    6.9176  -12.1642   27.5995 S   0  0  0  0  0  0  0  0  0  0  0  0
    6.1705  -13.7130   27.0667 C   0  0  0  0  0  0  0  0  0  0  0  0
    7.0628  -14.3625   26.0178 C   0  0  0  0  0  0  0  0  0  0  0  0
    6.3608  -15.5311   25.3689 C   0  0  2  0  0  0  0  0  0  0  0  0
    6.0349  -16.5876   26.2670 N   0  0  0  0  0  0  0  0  0  0  0  0
    7.2596  -16.0749   24.2813 C   0  0  0  0  0  0  0  0  0  0  0  0
    7.6877  -17.2405   24.4527 O   0  0  0  0  0  0  0  0  0  0  0  0
    8.3991  -12.2643   20.2383 C   0  0  0  0  0  0  0  0  0  0  0  0
    8.6681  -13.3226   21.2739 C   0  0  0  0  0  0  0  0  0  0  0  0
    8.0902  -14.6613   20.9080 C   0  0  2  0  0  0  0  0  0  0  0  0
    6.6001  -14.3891   20.6486 C   0  0  0  0  0  0  0  0  0  0  0  0
    8.3439  -15.6658   21.9884 C   0  0  2  0  0  0  0  0  0  0  0  0
    7.5783  -15.3005   23.1607 N   0  0  0  0  0  0  0  0  0  0  0  0
    9.7573  -15.8806   22.3416 C   0  0  0  0  0  0  0  0  0  0  0  0
   10.2871  -15.1729   23.2800 O   0  0  0  0  0  0  0  0  0  0  0  0
   13.4799  -19.0926   22.5246 C   0  0  0  0  0  0  0  0  0  0  0  0
   12.0823  -18.7306   22.0698 C   0  0  1  0  0  0  0  0  0  0  0  0
   11.1564  -19.4582   22.7901 O   0  0  0  0  0  0  0  0  0  0  0  0
   11.8443  -17.2604   22.1003 C   0  0  2  0  0  0  0  0  0  0  0  0
   10.5278  -16.8499   21.6686 N   0  0  0  0  0  0  0  0  0  0  0  0
   12.9495  -16.4684   21.4541 C   0  0  0  0  0  0  0  0  0  0  0  0
   14.1128  -16.0951   22.0822 O   0  0  0  0  0  0  0  0  0  0  0  0
   12.7264  -16.1582   20.2378 O   0  0  0  0  0  0  0  0  0  0  0  0
  1  2  1  0
  2  3  1  0
  4  3  1  0
  5  4  1  0
  5  6  1  1
  7 14  1  0
  7  5  1  0
  8  7  2  0
 10  9  1  0
 10 11  1  0
 11 12  1  1
 11 13  1  0
 13 14  1  1
 15 13  1  0
 15 21  1  0
 16 15  2  0
 18 17  1  1
 18 20  1  0
 19 18  1  0
 20 21  1  6
 20 22  1  0
 22 23  1  0
 24 22  2  0
M  END
$$$$
