MIT.pdb
     RDKit          3D

 24 23  0  0  1  0  0  0  0  0999 V2000
    5.6787  -13.5074   19.6491 C   0  0  0  0  0  0  0  0  0  0  0  0
    7.1402  -12.6535   19.0690 S   0  0  0  0  0  0  0  0  0  0  0  0
    8.6488  -13.3765   19.7341 C   0  0  0  0  0  0  0  0  0  0  0  0
    8.3695  -13.9180   21.1295 C   0  0  0  0  0  0  0  0  0  0  0  0
    9.6437  -14.3996   21.7806 C   0  0  2  0  0  0  0  0  0  0  0  0
   10.3283  -15.4098   21.0460 N   0  0  0  0  0  0  0  0  0  0  0  0
    9.2971  -14.9414   23.1490 C   0  0  0  0  0  0  0  0  0  0  0  0
   10.0200  -15.8745   23.5708 O   0  0  0  0  0  0  0  0  0  0  0  0
    6.3895  -11.1327   25.8334 C   0  0  0  0  0  0  0  0  0  0  0  0
    7.4020  -12.1944   25.4979 C   0  0  0  0  0  0  0  0  0  0  0  0
    6.8695  -13.5892   25.6745 C   0  0  2  0  0  0  0  0  0  0  0  0
    6.4584  -13.6691   27.1532 C   0  0  0  0  0  0  0  0  0  0  0  0
    7.8923  -14.6059   25.2738 C   0  0  2  0  0  0  0  0  0  0  0  0
    8.2270  -14.4134   23.8792 N   0  0  0  0  0  0  0  0  0  0  0  0
    7.5304  -16.0105   25.5284 C   0  0  0  0  0  0  0  0  0  0  0  0
    6.2915  -16.3626   25.4709 O   0  0  0  0  0  0  0  0  0  0  0  0
    7.6525  -19.0947   23.8943 C   0  0  0  0  0  0  0  0  0  0  0  0
    8.4907  -19.3381   25.1309 C   0  0  1  0  0  0  0  0  0  0  0  0
    9.8216  -19.4363   24.7780 O   0  0  0  0  0  0  0  0  0  0  0  0
    8.2259  -18.3315   26.1966 C   0  0  2  0  0  0  0  0  0  0  0  0
    8.5219  -16.9659   25.8284 N   0  0  0  0  0  0  0  0  0  0  0  0
    8.8012  -18.7190   27.5327 C   0  0  0  0  0  0  0  0  0  0  0  0
    9.6868  -17.9546   28.2529 O   0  0  0  0  0  0  0  0  0  0  0  0
    8.3936  -19.8454   27.9691 O   0  0  0  0  0  0  0  0  0  0  0  0
  1  2  1  0
  2  3  1  0
  4  3  1  0
  5  4  1  0
  5  6  1  6
  7 14  1  0
  7  5  1  0
  8  7  2  0
 10  9  1  0
 10 11  1  0
 11 12  1  1
 11 13  1  0
 13 14  1  6
 15 13  1  0
 15 21  1  0
 16 15  2  0
 18 17  1  6
 18 20  1  0
 19 18  1  0
 20 21  1  6
 20 22  1  0
 22 23  1  0
 24 22  2  0
M  END
$$$$
