MIT.pdb
     RDKit          3D

 24 23  0  0  1  0  0  0  0  0999 V2000
    4.5982  -19.0899   22.6036 C   0  0  0  0  0  0  0  0  0  0  0  0
    4.6316  -18.6651   20.8658 S   0  0  0  0  0  0  0  0  0  0  0  0
    5.2008  -16.9784   20.5975 C   0  0  0  0  0  0  0  0  0  0  0  0
    6.2353  -16.6264   21.6579 C   0  0  0  0  0  0  0  0  0  0  0  0
    6.6562  -15.1817   21.5347 C   0  0  2  0  0  0  0  0  0  0  0  0
    7.2601  -14.8545   20.2869 N   0  0  0  0  0  0  0  0  0  0  0  0
    7.6372  -14.8812   22.6454 C   0  0  0  0  0  0  0  0  0  0  0  0
    8.8497  -15.0283   22.3635 O   0  0  0  0  0  0  0  0  0  0  0  0
    6.1587  -11.1569   26.1847 C   0  0  0  0  0  0  0  0  0  0  0  0
    7.0026  -12.1040   25.3748 C   0  0  0  0  0  0  0  0  0  0  0  0
    7.2282  -13.4221   26.0617 C   0  0  2  0  0  0  0  0  0  0  0  0
    8.0301  -13.0749   27.3259 C   0  0  0  0  0  0  0  0  0  0  0  0
    7.9203  -14.3873   25.1508 C   0  0  2  0  0  0  0  0  0  0  0  0
    7.1899  -14.4653   23.9040 N   0  0  0  0  0  0  0  0  0  0  0  0
    8.1471  -15.7343   25.7009 C   0  0  0  0  0  0  0  0  0  0  0  0
    7.1376  -16.4320   26.0962 O   0  0  0  0  0  0  0  0  0  0  0  0
    9.7699  -18.5226   23.8657 C   0  0  0  0  0  0  0  0  0  0  0  0
   10.4940  -18.4224   25.1910 C   0  0  1  0  0  0  0  0  0  0  0  0
   11.7808  -17.9674   24.9841 O   0  0  0  0  0  0  0  0  0  0  0  0
    9.7297  -17.6246   26.1903 C   0  0  2  0  0  0  0  0  0  0  0  0
    9.4499  -16.2634   25.7941 N   0  0  0  0  0  0  0  0  0  0  0  0
   10.2894  -17.7290   27.5839 C   0  0  0  0  0  0  0  0  0  0  0  0
   10.7531  -16.6663   28.3208 O   0  0  0  0  0  0  0  0  0  0  0  0
   10.3018  -18.9142   28.0535 O   0  0  0  0  0  0  0  0  0  0  0  0
  1  2  1  0
  2  3  1  0
  4  3  1  0
  5  4  1  0
  5  6  1  6
  7 14  1  0
  7  5  1  0
  8  7  2  0
 10  9  1  0
 10 11  1  0
 11 12  1  1
 11 13  1  0
 13 14  1  6
 15 13  1  0
 15 21  1  0
 16 15  2  0
 18 17  1  6
 18 20  1  0
 19 18  1  0
 20 21  1  6
 20 22  1  0
 22 23  1  0
 24 22  2  0
M  END
$$$$
