MIT.pdb
     RDKit          3D

 24 23  0  0  1  0  0  0  0  0999 V2000
   10.4236  -14.0335   30.0958 C   0  0  0  0  0  0  0  0  0  0  0  0
   11.2167  -15.6252   29.8971 S   0  0  0  0  0  0  0  0  0  0  0  0
   10.0529  -16.8947   29.3731 C   0  0  0  0  0  0  0  0  0  0  0  0
    9.2990  -16.4040   28.1446 C   0  0  0  0  0  0  0  0  0  0  0  0
    8.2538  -17.4086   27.7226 C   0  0  2  0  0  0  0  0  0  0  0  0
    8.7599  -18.7233   27.5125 N   0  0  0  0  0  0  0  0  0  0  0  0
    7.6212  -16.9183   26.4398 C   0  0  0  0  0  0  0  0  0  0  0  0
    7.1031  -17.7967   25.7109 O   0  0  0  0  0  0  0  0  0  0  0  0
    6.6328  -11.5796   26.7864 C   0  0  0  0  0  0  0  0  0  0  0  0
    6.2657  -12.9482   26.2794 C   0  0  0  0  0  0  0  0  0  0  0  0
    7.1487  -13.4134   25.1551 C   0  0  2  0  0  0  0  0  0  0  0  0
    6.6951  -12.5966   23.9349 C   0  0  0  0  0  0  0  0  0  0  0  0
    7.0394  -14.8944   24.9680 C   0  0  2  0  0  0  0  0  0  0  0  0
    7.6281  -15.5587   26.1109 N   0  0  0  0  0  0  0  0  0  0  0  0
    7.6054  -15.4235   23.7157 C   0  0  0  0  0  0  0  0  0  0  0  0
    6.9257  -15.3229   22.6248 O   0  0  0  0  0  0  0  0  0  0  0  0
   10.1322  -14.1157   21.8755 C   0  0  0  0  0  0  0  0  0  0  0  0
    9.5732  -15.4404   21.4028 C   0  0  1  0  0  0  0  0  0  0  0  0
   10.2521  -15.8551   20.2746 O   0  0  0  0  0  0  0  0  0  0  0  0
    9.5413  -16.4576   22.4907 C   0  0  2  0  0  0  0  0  0  0  0  0
    8.8770  -16.0308   23.7009 N   0  0  0  0  0  0  0  0  0  0  0  0
   10.8822  -17.0919   22.7473 C   0  0  0  0  0  0  0  0  0  0  0  0
   11.4262  -17.2912   23.9929 O   0  0  0  0  0  0  0  0  0  0  0  0
   11.5012  -17.4482   21.6913 O   0  0  0  0  0  0  0  0  0  0  0  0
  1  2  1  0
  2  3  1  0
  4  3  1  0
  5  4  1  0
  5  6  1  6
  7 14  1  0
  7  5  1  0
  8  7  2  0
 10  9  1  0
 10 11  1  0
 11 12  1  6
 11 13  1  0
 13 14  1  1
 15 13  1  0
 15 21  1  0
 16 15  2  0
 18 17  1  1
 18 20  1  0
 19 18  1  0
 20 21  1  1
 20 22  1  0
 22 23  1  0
 24 22  2  0
M  END
$$$$
