MIT.pdb
     RDKit          3D

 24 23  0  0  1  0  0  0  0  0999 V2000
    2.4196  -18.1731   20.1116 C   0  0  0  0  0  0  0  0  0  0  0  0
    3.6943  -17.4613   21.1461 S   0  0  0  0  0  0  0  0  0  0  0  0
    5.2774  -18.2900   20.9274 C   0  0  0  0  0  0  0  0  0  0  0  0
    6.2870  -17.7030   21.9044 C   0  0  0  0  0  0  0  0  0  0  0  0
    6.5862  -16.2631   21.5626 C   0  0  2  0  0  0  0  0  0  0  0  0
    7.0687  -16.0665   20.2370 N   0  0  0  0  0  0  0  0  0  0  0  0
    7.6215  -15.7532   22.5395 C   0  0  0  0  0  0  0  0  0  0  0  0
    8.8188  -15.8948   22.1965 O   0  0  0  0  0  0  0  0  0  0  0  0
    7.6494  -11.9332   27.4165 C   0  0  0  0  0  0  0  0  0  0  0  0
    8.2569  -13.1068   26.6964 C   0  0  0  0  0  0  0  0  0  0  0  0
    7.4153  -13.5897   25.5481 C   0  0  2  0  0  0  0  0  0  0  0  0
    6.0481  -13.9129   26.1710 C   0  0  0  0  0  0  0  0  0  0  0  0
    8.0612  -14.7548   24.8656 C   0  0  2  0  0  0  0  0  0  0  0  0
    7.2373  -15.1623   23.7480 N   0  0  0  0  0  0  0  0  0  0  0  0
    8.3698  -15.9087   25.7269 C   0  0  0  0  0  0  0  0  0  0  0  0
    7.4058  -16.5363   26.3092 O   0  0  0  0  0  0  0  0  0  0  0  0
   10.2998  -18.9204   24.5719 C   0  0  0  0  0  0  0  0  0  0  0  0
   10.9341  -18.4740   25.8717 C   0  0  1  0  0  0  0  0  0  0  0  0
   12.1998  -17.9810   25.6258 O   0  0  0  0  0  0  0  0  0  0  0  0
   10.0614  -17.5340   26.6293 C   0  0  2  0  0  0  0  0  0  0  0  0
    9.7011  -16.3309   25.9145 N   0  0  0  0  0  0  0  0  0  0  0  0
   10.5546  -17.2638   28.0258 C   0  0  0  0  0  0  0  0  0  0  0  0
   10.7565  -18.2284   28.9829 O   0  0  0  0  0  0  0  0  0  0  0  0
   10.7841  -16.0336   28.2689 O   0  0  0  0  0  0  0  0  0  0  0  0
  1  2  1  0
  2  3  1  0
  4  3  1  0
  5  4  1  0
  5  6  1  6
  7 14  1  0
  7  5  1  0
  8  7  2  0
 10  9  1  0
 10 11  1  0
 11 12  1  1
 11 13  1  0
 13 14  1  6
 15 13  1  0
 15 21  1  0
 16 15  2  0
 18 17  1  6
 18 20  1  0
 19 18  1  0
 20 21  1  6
 20 22  1  0
 22 23  1  0
 24 22  2  0
M  END
$$$$
