MIT.pdb
     RDKit          3D

 24 23  0  0  1  0  0  0  0  0999 V2000
    6.8159  -11.3625   26.8051 C   0  0  0  0  0  0  0  0  0  0  0  0
    5.5190  -12.5630   26.5247 S   0  0  0  0  0  0  0  0  0  0  0  0
    6.0159  -14.2185   27.0279 C   0  0  0  0  0  0  0  0  0  0  0  0
    6.9606  -14.7953   25.9824 C   0  0  0  0  0  0  0  0  0  0  0  0
    6.2289  -15.7503   25.0702 C   0  0  2  0  0  0  0  0  0  0  0  0
    5.7777  -16.9394   25.7117 N   0  0  0  0  0  0  0  0  0  0  0  0
    7.1602  -16.1285   23.9406 C   0  0  0  0  0  0  0  0  0  0  0  0
    7.4229  -17.3490   23.8290 O   0  0  0  0  0  0  0  0  0  0  0  0
    7.1304  -12.3223   20.0823 C   0  0  0  0  0  0  0  0  0  0  0  0
    7.2133  -13.6971   20.6889 C   0  0  0  0  0  0  0  0  0  0  0  0
    8.5959  -14.0453   21.1655 C   0  0  2  0  0  0  0  0  0  0  0  0
    9.4447  -14.1238   19.8867 C   0  0  0  0  0  0  0  0  0  0  0  0
    8.5826  -15.3118   21.9631 C   0  0  2  0  0  0  0  0  0  0  0  0
    7.6831  -15.1527   23.0854 N   0  0  0  0  0  0  0  0  0  0  0  0
    9.8974  -15.7928   22.4198 C   0  0  0  0  0  0  0  0  0  0  0  0
   10.8368  -15.9755   21.5558 O   0  0  0  0  0  0  0  0  0  0  0  0
   11.5886  -14.4696   25.8901 C   0  0  0  0  0  0  0  0  0  0  0  0
   11.6674  -15.9721   25.7245 C   0  0  1  0  0  0  0  0  0  0  0  0
   10.8289  -16.5843   26.6342 O   0  0  0  0  0  0  0  0  0  0  0  0
   11.4341  -16.3953   24.3153 C   0  0  2  0  0  0  0  0  0  0  0  0
   10.1353  -16.0491   23.7850 N   0  0  0  0  0  0  0  0  0  0  0  0
   11.8120  -17.8296   24.0580 C   0  0  0  0  0  0  0  0  0  0  0  0
   10.9442  -18.7984   23.6154 O   0  0  0  0  0  0  0  0  0  0  0  0
   13.0384  -18.0944   24.2838 O   0  0  0  0  0  0  0  0  0  0  0  0
  1  2  1  0
  2  3  1  0
  4  3  1  0
  5  4  1  0
  5  6  1  1
  7 14  1  0
  7  5  1  0
  8  7  2  0
 10  9  1  0
 10 11  1  0
 11 12  1  6
 11 13  1  0
 13 14  1  1
 15 13  1  0
 15 21  1  0
 16 15  2  0
 18 17  1  6
 18 20  1  0
 19 18  1  0
 20 21  1  1
 20 22  1  0
 22 23  1  0
 24 22  2  0
M  END
$$$$
