MIT.pdb
     RDKit          3D

 24 23  0  0  1  0  0  0  0  0999 V2000
    7.9601  -11.2870   19.6736 C   0  0  0  0  0  0  0  0  0  0  0  0
    7.3908  -12.6012   18.6010 S   0  0  0  0  0  0  0  0  0  0  0  0
    7.4752  -14.2092   19.4059 C   0  0  0  0  0  0  0  0  0  0  0  0
    8.0567  -14.0381   20.8027 C   0  0  0  0  0  0  0  0  0  0  0  0
    8.1531  -15.3695   21.5081 C   0  0  2  0  0  0  0  0  0  0  0  0
    6.9040  -16.0340   21.6728 N   0  0  0  0  0  0  0  0  0  0  0  0
    8.7654  -15.1366   22.8708 C   0  0  0  0  0  0  0  0  0  0  0  0
   10.0086  -14.9785   22.8959 O   0  0  0  0  0  0  0  0  0  0  0  0
    6.1846  -11.8822   25.8629 C   0  0  0  0  0  0  0  0  0  0  0  0
    7.3159  -12.7422   25.3675 C   0  0  0  0  0  0  0  0  0  0  0  0
    7.4237  -14.0495   26.1020 C   0  0  2  0  0  0  0  0  0  0  0  0
    7.8639  -13.6669   27.5238 C   0  0  0  0  0  0  0  0  0  0  0  0
    8.3680  -14.9778   25.4041 C   0  0  2  0  0  0  0  0  0  0  0  0
    7.9674  -15.1042   24.0194 N   0  0  0  0  0  0  0  0  0  0  0  0
    8.5280  -16.3066   26.0183 C   0  0  0  0  0  0  0  0  0  0  0  0
    7.4808  -16.9553   26.3990 O   0  0  0  0  0  0  0  0  0  0  0  0
   10.2400  -19.2640   24.4545 C   0  0  0  0  0  0  0  0  0  0  0  0
   10.8548  -19.0821   25.8256 C   0  0  1  0  0  0  0  0  0  0  0  0
   12.1636  -18.6626   25.6959 O   0  0  0  0  0  0  0  0  0  0  0  0
   10.0281  -18.2045   26.7005 C   0  0  2  0  0  0  0  0  0  0  0  0
    9.8079  -16.8714   26.1881 N   0  0  0  0  0  0  0  0  0  0  0  0
   10.4712  -18.2167   28.1391 C   0  0  0  0  0  0  0  0  0  0  0  0
   10.5243  -19.3385   28.9304 O   0  0  0  0  0  0  0  0  0  0  0  0
   10.8097  -17.0733   28.5902 O   0  0  0  0  0  0  0  0  0  0  0  0
  1  2  1  0
  2  3  1  0
  4  3  1  0
  5  4  1  0
  5  6  1  1
  7 14  1  0
  7  5  1  0
  8  7  2  0
 10  9  1  0
 10 11  1  0
 11 12  1  1
 11 13  1  0
 13 14  1  6
 15 13  1  0
 15 21  1  0
 16 15  2  0
 18 17  1  6
 18 20  1  0
 19 18  1  0
 20 21  1  6
 20 22  1  0
 22 23  1  0
 24 22  2  0
M  END
$$$$
