MIT.pdb
     RDKit          3D

 24 23  0  0  1  0  0  0  0  0999 V2000
   10.4990  -14.2344   29.7684 C   0  0  0  0  0  0  0  0  0  0  0  0
   11.2687  -15.8496   29.7869 S   0  0  0  0  0  0  0  0  0  0  0  0
   10.1538  -17.1317   29.1920 C   0  0  0  0  0  0  0  0  0  0  0  0
    9.3183  -16.5746   28.0474 C   0  0  0  0  0  0  0  0  0  0  0  0
    8.1645  -17.4955   27.7308 C   0  0  2  0  0  0  0  0  0  0  0  0
    8.5306  -18.8660   27.6017 N   0  0  0  0  0  0  0  0  0  0  0  0
    7.5363  -17.0341   26.4351 C   0  0  0  0  0  0  0  0  0  0  0  0
    7.0179  -17.9281   25.7258 O   0  0  0  0  0  0  0  0  0  0  0  0
    7.8371  -11.3998   25.6948 C   0  0  0  0  0  0  0  0  0  0  0  0
    8.0074  -12.8512   25.3351 C   0  0  0  0  0  0  0  0  0  0  0  0
    6.7022  -13.5932   25.2585 C   0  0  2  0  0  0  0  0  0  0  0  0
    6.0339  -13.3558   26.6219 C   0  0  0  0  0  0  0  0  0  0  0  0
    6.9273  -15.0377   24.9370 C   0  0  2  0  0  0  0  0  0  0  0  0
    7.5476  -15.6825   26.0743 N   0  0  0  0  0  0  0  0  0  0  0  0
    7.6949  -15.3067   23.7094 C   0  0  0  0  0  0  0  0  0  0  0  0
    7.2532  -14.8671   22.5807 O   0  0  0  0  0  0  0  0  0  0  0  0
   10.7924  -14.3713   21.9744 C   0  0  0  0  0  0  0  0  0  0  0  0
   10.9324  -15.8273   22.3638 C   0  0  1  0  0  0  0  0  0  0  0  0
   11.7930  -15.9404   23.4371 O   0  0  0  0  0  0  0  0  0  0  0  0
    9.6114  -16.4800   22.5834 C   0  0  2  0  0  0  0  0  0  0  0  0
    8.9018  -16.0325   23.7600 N   0  0  0  0  0  0  0  0  0  0  0  0
    9.6649  -17.9796   22.4629 C   0  0  0  0  0  0  0  0  0  0  0  0
   10.2499  -18.6589   21.4219 O   0  0  0  0  0  0  0  0  0  0  0  0
    9.1128  -18.6006   23.4297 O   0  0  0  0  0  0  0  0  0  0  0  0
  1  2  1  0
  2  3  1  0
  4  3  1  0
  5  4  1  0
  5  6  1  6
  7 14  1  0
  7  5  1  0
  8  7  2  0
 10  9  1  0
 10 11  1  0
 11 12  1  1
 11 13  1  0
 13 14  1  1
 15 13  1  0
 15 21  1  0
 16 15  2  0
 18 17  1  1
 18 20  1  0
 19 18  1  0
 20 21  1  1
 20 22  1  0
 22 23  1  0
 24 22  2  0
M  END
$$$$
