MIT.pdb
     RDKit          3D

 24 23  0  0  1  0  0  0  0  0999 V2000
    5.8478  -19.6224   21.3894 C   0  0  0  0  0  0  0  0  0  0  0  0
    6.5642  -19.1959   19.8061 S   0  0  0  0  0  0  0  0  0  0  0  0
    6.9356  -17.4384   19.6885 C   0  0  0  0  0  0  0  0  0  0  0  0
    7.6965  -17.0048   20.9340 C   0  0  0  0  0  0  0  0  0  0  0  0
    7.9319  -15.5135   20.9241 C   0  0  2  0  0  0  0  0  0  0  0  0
    8.7342  -15.0569   19.8392 N   0  0  0  0  0  0  0  0  0  0  0  0
    8.6069  -15.1352   22.2232 C   0  0  0  0  0  0  0  0  0  0  0  0
    9.8574  -15.2191   22.2385 O   0  0  0  0  0  0  0  0  0  0  0  0
    7.0652  -11.7595   27.1546 C   0  0  0  0  0  0  0  0  0  0  0  0
    7.8991  -12.8678   26.5706 C   0  0  0  0  0  0  0  0  0  0  0  0
    7.4123  -13.3196   25.2219 C   0  0  2  0  0  0  0  0  0  0  0  0
    5.9661  -13.7817   25.4601 C   0  0  0  0  0  0  0  0  0  0  0  0
    8.3040  -14.3830   24.6611 C   0  0  2  0  0  0  0  0  0  0  0  0
    7.8550  -14.7194   23.3272 N   0  0  0  0  0  0  0  0  0  0  0  0
    8.4420  -15.5985   25.4808 C   0  0  0  0  0  0  0  0  0  0  0  0
    7.3981  -16.3131   25.7294 O   0  0  0  0  0  0  0  0  0  0  0  0
   10.3707  -18.4861   24.5296 C   0  0  0  0  0  0  0  0  0  0  0  0
   10.8587  -18.1681   25.9266 C   0  0  1  0  0  0  0  0  0  0  0  0
   12.1621  -17.7165   25.8718 O   0  0  0  0  0  0  0  0  0  0  0  0
    9.9358  -17.2484   26.6488 C   0  0  2  0  0  0  0  0  0  0  0  0
    9.6986  -15.9852   25.9884 N   0  0  0  0  0  0  0  0  0  0  0  0
   10.2742  -17.0957   28.1077 C   0  0  0  0  0  0  0  0  0  0  0  0
   10.4028  -18.1385   28.9928 O   0  0  0  0  0  0  0  0  0  0  0  0
   10.4430  -15.8883   28.4803 O   0  0  0  0  0  0  0  0  0  0  0  0
  1  2  1  0
  2  3  1  0
  4  3  1  0
  5  4  1  0
  5  6  1  6
  7 14  1  0
  7  5  1  0
  8  7  2  0
 10  9  1  0
 10 11  1  0
 11 12  1  1
 11 13  1  0
 13 14  1  6
 15 13  1  0
 15 21  1  0
 16 15  2  0
 18 17  1  6
 18 20  1  0
 19 18  1  0
 20 21  1  6
 20 22  1  0
 22 23  1  0
 24 22  2  0
M  END
$$$$
