MIT.pdb
     RDKit          3D

 24 23  0  0  1  0  0  0  0  0999 V2000
    4.8253  -18.8810   22.3002 C   0  0  0  0  0  0  0  0  0  0  0  0
    4.8115  -18.4372   20.5668 S   0  0  0  0  0  0  0  0  0  0  0  0
    5.3896  -16.7533   20.3001 C   0  0  0  0  0  0  0  0  0  0  0  0
    6.2540  -16.3298   21.4799 C   0  0  0  0  0  0  0  0  0  0  0  0
    6.6678  -14.8838   21.3471 C   0  0  2  0  0  0  0  0  0  0  0  0
    7.2778  -14.5640   20.1003 N   0  0  0  0  0  0  0  0  0  0  0  0
    7.6402  -14.5687   22.4613 C   0  0  0  0  0  0  0  0  0  0  0  0
    8.8564  -14.6667   22.1744 O   0  0  0  0  0  0  0  0  0  0  0  0
    6.0651  -11.0118   26.1200 C   0  0  0  0  0  0  0  0  0  0  0  0
    6.9284  -11.9143   25.2802 C   0  0  0  0  0  0  0  0  0  0  0  0
    7.1920  -13.2442   25.9296 C   0  0  2  0  0  0  0  0  0  0  0  0
    7.9999  -12.9115   27.1939 C   0  0  0  0  0  0  0  0  0  0  0  0
    7.8960  -14.1689   24.9862 C   0  0  2  0  0  0  0  0  0  0  0  0
    7.1814  -14.1923   23.7281 N   0  0  0  0  0  0  0  0  0  0  0  0
    8.1163  -15.5386   25.4799 C   0  0  0  0  0  0  0  0  0  0  0  0
    7.1006  -16.2600   25.8122 O   0  0  0  0  0  0  0  0  0  0  0  0
    9.7842  -18.3979   23.7399 C   0  0  0  0  0  0  0  0  0  0  0  0
   10.4926  -18.2301   25.0669 C   0  0  1  0  0  0  0  0  0  0  0  0
   11.7712  -17.7550   24.8541 O   0  0  0  0  0  0  0  0  0  0  0  0
    9.7011  -17.4112   26.0272 C   0  0  2  0  0  0  0  0  0  0  0  0
    9.4196  -16.0638   25.5873 N   0  0  0  0  0  0  0  0  0  0  0  0
   10.2316  -17.4724   27.4347 C   0  0  0  0  0  0  0  0  0  0  0  0
   10.4283  -18.6315   28.1453 O   0  0  0  0  0  0  0  0  0  0  0  0
   10.4991  -16.3334   27.9411 O   0  0  0  0  0  0  0  0  0  0  0  0
  1  2  1  0
  2  3  1  0
  4  3  1  0
  5  4  1  0
  5  6  1  6
  7 14  1  0
  7  5  1  0
  8  7  2  0
 10  9  1  0
 10 11  1  0
 11 12  1  1
 11 13  1  0
 13 14  1  6
 15 13  1  0
 15 21  1  0
 16 15  2  0
 18 17  1  6
 18 20  1  0
 19 18  1  0
 20 21  1  6
 20 22  1  0
 22 23  1  0
 24 22  2  0
M  END
$$$$
