MIT.pdb
     RDKit          3D

 24 23  0  0  1  0  0  0  0  0999 V2000
    6.7308  -10.8395   26.6532 C   0  0  0  0  0  0  0  0  0  0  0  0
    6.4498  -12.2512   27.7162 S   0  0  0  0  0  0  0  0  0  0  0  0
    5.7137  -13.6294   26.8219 C   0  0  0  0  0  0  0  0  0  0  0  0
    6.7773  -14.2839   25.9508 C   0  0  0  0  0  0  0  0  0  0  0  0
    6.1798  -15.3967   25.1236 C   0  0  2  0  0  0  0  0  0  0  0  0
    5.7442  -16.5195   25.8843 N   0  0  0  0  0  0  0  0  0  0  0  0
    7.2224  -15.8556   24.1293 C   0  0  0  0  0  0  0  0  0  0  0  0
    7.6245  -17.0358   24.2588 O   0  0  0  0  0  0  0  0  0  0  0  0
    7.1723  -12.3174   20.1412 C   0  0  0  0  0  0  0  0  0  0  0  0
    7.2391  -13.6805   20.7755 C   0  0  0  0  0  0  0  0  0  0  0  0
    8.6411  -14.0976   21.1227 C   0  0  2  0  0  0  0  0  0  0  0  0
    9.3080  -14.3991   19.7713 C   0  0  0  0  0  0  0  0  0  0  0  0
    8.6344  -15.2583   22.0677 C   0  0  2  0  0  0  0  0  0  0  0  0
    7.6926  -14.9926   23.1338 N   0  0  0  0  0  0  0  0  0  0  0  0
    9.9450  -15.6396   22.6203 C   0  0  0  0  0  0  0  0  0  0  0  0
   10.5172  -14.8651   23.4776 O   0  0  0  0  0  0  0  0  0  0  0  0
   11.1672  -18.6337   24.6923 C   0  0  0  0  0  0  0  0  0  0  0  0
   11.8655  -18.6200   23.3494 C   0  0  1  0  0  0  0  0  0  0  0  0
   11.3383  -19.6075   22.5416 O   0  0  0  0  0  0  0  0  0  0  0  0
   11.8573  -17.2674   22.7253 C   0  0  2  0  0  0  0  0  0  0  0  0
   10.5717  -16.8382   22.2243 N   0  0  0  0  0  0  0  0  0  0  0  0
   12.9726  -17.0662   21.7343 C   0  0  0  0  0  0  0  0  0  0  0  0
   12.7926  -16.8474   20.3900 O   0  0  0  0  0  0  0  0  0  0  0  0
   14.1393  -17.1110   22.2460 O   0  0  0  0  0  0  0  0  0  0  0  0
  1  2  1  0
  2  3  1  0
  4  3  1  0
  5  4  1  0
  5  6  1  1
  7 14  1  0
  7  5  1  0
  8  7  2  0
 10  9  1  0
 10 11  1  0
 11 12  1  6
 11 13  1  0
 13 14  1  1
 15 13  1  0
 15 21  1  0
 16 15  2  0
 18 17  1  1
 18 20  1  0
 19 18  1  0
 20 21  1  6
 20 22  1  0
 22 23  1  0
 24 22  2  0
M  END
$$$$
