MIT.pdb
     RDKit          3D

 24 23  0  0  1  0  0  0  0  0999 V2000
    6.2662  -12.2698   26.6788 C   0  0  0  0  0  0  0  0  0  0  0  0
    7.9404  -12.7630   27.0733 S   0  0  0  0  0  0  0  0  0  0  0  0
    8.0068  -14.4268   27.7577 C   0  0  0  0  0  0  0  0  0  0  0  0
    8.3415  -15.4109   26.6451 C   0  0  0  0  0  0  0  0  0  0  0  0
    7.0911  -15.8340   25.9122 C   0  0  2  0  0  0  0  0  0  0  0  0
    6.3750  -16.8914   26.5429 N   0  0  0  0  0  0  0  0  0  0  0  0
    7.4877  -16.2748   24.5212 C   0  0  0  0  0  0  0  0  0  0  0  0
    7.4179  -17.5054   24.2930 O   0  0  0  0  0  0  0  0  0  0  0  0
    7.0483  -12.2997   21.0626 C   0  0  0  0  0  0  0  0  0  0  0  0
    7.0926  -13.7391   21.4998 C   0  0  0  0  0  0  0  0  0  0  0  0
    8.4805  -14.3163   21.4769 C   0  0  2  0  0  0  0  0  0  0  0  0
    8.7964  -14.5225   19.9871 C   0  0  0  0  0  0  0  0  0  0  0  0
    8.5506  -15.5707   22.2907 C   0  0  2  0  0  0  0  0  0  0  0  0
    7.9041  -15.3424   23.5651 N   0  0  0  0  0  0  0  0  0  0  0  0
    9.8988  -16.1289   22.4888 C   0  0  0  0  0  0  0  0  0  0  0  0
   10.7058  -15.5509   23.3115 O   0  0  0  0  0  0  0  0  0  0  0  0
   10.9738  -19.9059   23.3023 C   0  0  0  0  0  0  0  0  0  0  0  0
   11.5886  -19.3877   22.0199 C   0  0  1  0  0  0  0  0  0  0  0  0
   10.9681  -19.9762   20.9363 O   0  0  0  0  0  0  0  0  0  0  0  0
   11.6048  -17.8991   21.9656 C   0  0  2  0  0  0  0  0  0  0  0  0
   10.3085  -17.2842   21.7934 N   0  0  0  0  0  0  0  0  0  0  0  0
   12.6455  -17.3525   21.0252 C   0  0  0  0  0  0  0  0  0  0  0  0
   13.9968  -17.3488   21.2727 O   0  0  0  0  0  0  0  0  0  0  0  0
   12.1710  -16.8780   19.9412 O   0  0  0  0  0  0  0  0  0  0  0  0
  1  2  1  0
  2  3  1  0
  4  3  1  0
  5  4  1  0
  5  6  1  1
  7 14  1  0
  7  5  1  0
  8  7  2  0
 10  9  1  0
 10 11  1  0
 11 12  1  6
 11 13  1  0
 13 14  1  1
 15 13  1  0
 15 21  1  0
 16 15  2  0
 18 17  1  1
 18 20  1  0
 19 18  1  0
 20 21  1  6
 20 22  1  0
 22 23  1  0
 24 22  2  0
M  END
$$$$
