MIT.pdb
     RDKit          3D

 24 23  0  0  1  0  0  0  0  0999 V2000
    5.9481  -11.7409   26.5896 C   0  0  0  0  0  0  0  0  0  0  0  0
    7.5371  -12.3971   27.0859 S   0  0  0  0  0  0  0  0  0  0  0  0
    7.4443  -14.1495   27.4874 C   0  0  0  0  0  0  0  0  0  0  0  0
    7.9424  -14.9607   26.2990 C   0  0  0  0  0  0  0  0  0  0  0  0
    6.7873  -15.4080   25.4357 C   0  0  2  0  0  0  0  0  0  0  0  0
    5.9486  -16.3853   26.0443 N   0  0  0  0  0  0  0  0  0  0  0  0
    7.3513  -15.9788   24.1542 C   0  0  0  0  0  0  0  0  0  0  0  0
    7.3020  -17.2260   24.0386 O   0  0  0  0  0  0  0  0  0  0  0  0
    7.0365  -12.5416   20.0469 C   0  0  0  0  0  0  0  0  0  0  0  0
    7.1109  -13.8262   20.8274 C   0  0  0  0  0  0  0  0  0  0  0  0
    8.5187  -14.3212   21.0092 C   0  0  2  0  0  0  0  0  0  0  0  0
    9.0118  -14.6354   19.5879 C   0  0  0  0  0  0  0  0  0  0  0  0
    8.5564  -15.4949   21.9373 C   0  0  2  0  0  0  0  0  0  0  0  0
    7.8904  -15.1408   23.1722 N   0  0  0  0  0  0  0  0  0  0  0  0
    9.8928  -16.0489   22.2124 C   0  0  0  0  0  0  0  0  0  0  0  0
   10.7154  -15.3772   22.9433 O   0  0  0  0  0  0  0  0  0  0  0  0
   10.9865  -19.7654   23.4250 C   0  0  0  0  0  0  0  0  0  0  0  0
   11.5772  -19.3637   22.0906 C   0  0  1  0  0  0  0  0  0  0  0  0
   10.9461  -20.0552   21.0762 O   0  0  0  0  0  0  0  0  0  0  0  0
   11.5787  -17.8865   21.8982 C   0  0  2  0  0  0  0  0  0  0  0  0
   10.2744  -17.3006   21.6893 N   0  0  0  0  0  0  0  0  0  0  0  0
   12.6007  -17.4213   20.8956 C   0  0  0  0  0  0  0  0  0  0  0  0
   13.9541  -17.3716   21.1258 O   0  0  0  0  0  0  0  0  0  0  0  0
   12.1076  -17.0658   19.7749 O   0  0  0  0  0  0  0  0  0  0  0  0
  1  2  1  0
  2  3  1  0
  4  3  1  0
  5  4  1  0
  5  6  1  1
  7 14  1  0
  7  5  1  0
  8  7  2  0
 10  9  1  0
 10 11  1  0
 11 12  1  6
 11 13  1  0
 13 14  1  1
 15 13  1  0
 15 21  1  0
 16 15  2  0
 18 17  1  1
 18 20  1  0
 19 18  1  0
 20 21  1  6
 20 22  1  0
 22 23  1  0
 24 22  2  0
M  END
$$$$
