NDE.pdb
     RDKit          3D

 26 25  0  0  1  0  0  0  0  0999 V2000
    6.0859  -15.1820   13.8715 N   0  0  0  0  0  0  0  0  0  0  0  0
    7.2877  -15.9387   13.8128 C   0  0  0  0  0  0  0  0  0  0  0  0
    7.9366  -16.0082   12.7454 O   0  0  0  0  0  0  0  0  0  0  0  0
    7.7694  -16.6501   15.0342 C   0  0  0  0  0  0  0  0  0  0  0  0
    8.5956  -15.6321   15.8025 C   0  0  2  0  0  0  0  0  0  0  0  0
    9.7022  -15.2295   15.0017 N   0  0  0  0  0  0  0  0  0  0  0  0
    9.0382  -16.2692   17.0982 C   0  0  0  0  0  0  0  0  0  0  0  0
    8.1856  -16.7066   17.8986 O   0  0  0  0  0  0  0  0  0  0  0  0
   10.3999  -16.3835   17.4285 N   0  0  0  0  0  0  0  0  0  0  0  0
   11.1162  -17.2955   18.2216 C   0  0  1  0  0  0  0  0  0  0  0  0
   12.0137  -18.3036   17.5385 C   0  0  0  0  0  0  0  0  0  0  0  0
   12.6420  -19.2566   18.4810 C   0  0  0  0  0  0  0  0  0  0  0  0
   11.8975  -20.1457   19.0216 O   0  0  0  0  0  0  0  0  0  0  0  0
   11.6503  -16.8016   19.5026 C   0  0  0  0  0  0  0  0  0  0  0  0
   12.5264  -15.8628   19.4531 O   0  0  0  0  0  0  0  0  0  0  0  0
   13.9771  -19.2389   18.8055 O   0  0  0  0  0  0  0  0  0  0  0  0
   11.2833  -17.2680   20.7674 N   0  0  0  0  0  0  0  0  0  0  0  0
   11.8985  -16.6761   21.9568 C   0  0  1  0  0  0  0  0  0  0  0  0
   11.0834  -17.0417   23.1802 C   0  0  0  0  0  0  0  0  0  0  0  0
   11.5775  -16.4357   24.4380 C   0  0  0  0  0  0  0  0  0  0  0  0
   10.8616  -16.8682   25.6525 C   0  0  0  0  0  0  0  0  0  0  0  0
    9.6037  -16.6851   25.6775 O   0  0  0  0  0  0  0  0  0  0  0  0
   13.2946  -17.1441   22.0151 C   0  0  0  0  0  0  0  0  0  0  0  0
   13.5888  -18.2803   21.5951 O   0  0  0  0  0  0  0  0  0  0  0  0
   11.4394  -17.4541   26.7622 O   0  0  0  0  0  0  0  0  0  0  0  0
   14.2770  -16.3352   22.5298 O   0  0  0  0  0  0  0  0  0  0  0  0
  2  1  1  0
  2  3  2  0
  4  2  1  0
  5  4  1  0
  5  7  1  0
  5  6  1  6
  7  8  2  0
  9 10  1  0
  9  7  1  0
 10 11  1  6
 11 12  1  0
 12 16  1  0
 13 12  2  0
 14 10  1  0
 14 17  1  0
 15 14  2  0
 18 17  1  0
 18 19  1  1
 20 19  1  0
 20 21  1  0
 21 25  1  0
 21 22  2  0
 23 18  1  0
 24 23  2  0
 26 23  1  0
M  END
$$$$
