NDE.pdb
     RDKit          3D

 26 25  0  0  1  0  0  0  0  0999 V2000
    9.5748  -13.2243   18.7487 N   0  0  0  0  0  0  0  0  0  0  0  0
    8.1939  -13.0483   19.0361 C   0  0  0  0  0  0  0  0  0  0  0  0
    7.4942  -12.2924   18.3259 O   0  0  0  0  0  0  0  0  0  0  0  0
    7.5850  -13.7718   20.1918 C   0  0  0  0  0  0  0  0  0  0  0  0
    8.7349  -14.4912   20.8770 C   0  0  2  0  0  0  0  0  0  0  0  0
    9.3077  -15.4262   19.9684 N   0  0  0  0  0  0  0  0  0  0  0  0
    8.1945  -15.1655   22.1157 C   0  0  0  0  0  0  0  0  0  0  0  0
    7.5748  -14.4956   22.9677 O   0  0  0  0  0  0  0  0  0  0  0  0
    8.3737  -16.5425   22.3350 N   0  0  0  0  0  0  0  0  0  0  0  0
    8.0894  -17.3799   23.4267 C   0  0  1  0  0  0  0  0  0  0  0  0
    7.4289  -18.7155   23.1651 C   0  0  0  0  0  0  0  0  0  0  0  0
    6.9815  -19.3958   24.4014 C   0  0  0  0  0  0  0  0  0  0  0  0
    7.7777  -20.2361   24.9462 O   0  0  0  0  0  0  0  0  0  0  0  0
    9.0688  -17.4106   24.5267 C   0  0  0  0  0  0  0  0  0  0  0  0
   10.3009  -17.5983   24.2136 O   0  0  0  0  0  0  0  0  0  0  0  0
    5.7618  -19.1741   24.9942 O   0  0  0  0  0  0  0  0  0  0  0  0
    8.7702  -17.2517   25.8822 N   0  0  0  0  0  0  0  0  0  0  0  0
    9.8614  -17.2144   26.8577 C   0  0  1  0  0  0  0  0  0  0  0  0
    9.5041  -16.2580   27.9767 C   0  0  0  0  0  0  0  0  0  0  0  0
   10.4953  -15.1777   28.1871 C   0  0  0  0  0  0  0  0  0  0  0  0
    9.9135  -13.8658   28.5259 C   0  0  0  0  0  0  0  0  0  0  0  0
    9.7239  -13.0529   27.5667 O   0  0  0  0  0  0  0  0  0  0  0  0
   10.0977  -18.5957   27.3136 C   0  0  0  0  0  0  0  0  0  0  0  0
   10.9620  -18.8259   28.1817 O   0  0  0  0  0  0  0  0  0  0  0  0
    9.5573  -13.4458   29.7928 O   0  0  0  0  0  0  0  0  0  0  0  0
    9.3703  -19.6342   26.7877 O   0  0  0  0  0  0  0  0  0  0  0  0
  2  1  1  0
  2  3  2  0
  4  2  1  0
  5  4  1  0
  5  7  1  0
  5  6  1  6
  7  8  2  0
  9 10  1  0
  9  7  1  0
 10 11  1  6
 11 12  1  0
 12 16  1  0
 13 12  2  0
 14 10  1  0
 14 17  1  0
 15 14  2  0
 18 17  1  0
 18 19  1  1
 20 19  1  0
 20 21  1  0
 21 25  1  0
 21 22  2  0
 23 18  1  0
 24 23  2  0
 26 23  1  0
M  END
$$$$
