NDE.pdb
     RDKit          3D

 26 25  0  0  1  0  0  0  0  0999 V2000
    6.7290  -12.6489   16.4245 N   0  0  0  0  0  0  0  0  0  0  0  0
    7.1635  -14.0017   16.3897 C   0  0  0  0  0  0  0  0  0  0  0  0
    7.0722  -14.6655   15.3330 O   0  0  0  0  0  0  0  0  0  0  0  0
    7.7291  -14.6248   17.6233 C   0  0  0  0  0  0  0  0  0  0  0  0
    9.1761  -14.1651   17.6882 C   0  0  2  0  0  0  0  0  0  0  0  0
    9.7725  -14.3192   16.4043 N   0  0  0  0  0  0  0  0  0  0  0  0
    9.8820  -14.9860   18.7411 C   0  0  0  0  0  0  0  0  0  0  0  0
    9.4707  -14.9711   19.9199 O   0  0  0  0  0  0  0  0  0  0  0  0
   11.0017  -15.7746   18.4236 N   0  0  0  0  0  0  0  0  0  0  0  0
   11.8138  -16.6301   19.1868 C   0  0  1  0  0  0  0  0  0  0  0  0
   12.5392  -17.7584   18.4875 C   0  0  0  0  0  0  0  0  0  0  0  0
   13.1583  -18.7222   19.4251 C   0  0  0  0  0  0  0  0  0  0  0  0
   12.4622  -19.1228   20.4211 O   0  0  0  0  0  0  0  0  0  0  0  0
   12.5839  -16.0254   20.2875 C   0  0  0  0  0  0  0  0  0  0  0  0
   13.3507  -15.0362   19.9963 O   0  0  0  0  0  0  0  0  0  0  0  0
   14.4354  -19.2091   19.2841 O   0  0  0  0  0  0  0  0  0  0  0  0
   12.5495  -16.4368   21.6222 N   0  0  0  0  0  0  0  0  0  0  0  0
   13.1970  -15.6123   22.6442 C   0  0  1  0  0  0  0  0  0  0  0  0
   12.4312  -15.7300   23.9458 C   0  0  0  0  0  0  0  0  0  0  0  0
   12.3638  -17.1082   24.4840 C   0  0  0  0  0  0  0  0  0  0  0  0
   11.7708  -17.2152   25.8299 C   0  0  0  0  0  0  0  0  0  0  0  0
   11.8823  -18.3343   26.4229 O   0  0  0  0  0  0  0  0  0  0  0  0
   14.6014  -16.0478   22.7430 C   0  0  0  0  0  0  0  0  0  0  0  0
   15.4222  -15.3633   23.3843 O   0  0  0  0  0  0  0  0  0  0  0  0
   11.1068  -16.2059   26.4999 O   0  0  0  0  0  0  0  0  0  0  0  0
   15.0135  -17.2060   22.1322 O   0  0  0  0  0  0  0  0  0  0  0  0
  2  1  1  0
  2  3  2  0
  4  2  1  0
  5  4  1  0
  5  7  1  0
  5  6  1  6
  7  8  2  0
  9 10  1  0
  9  7  1  0
 10 11  1  6
 11 12  1  0
 12 16  1  0
 13 12  2  0
 14 10  1  0
 14 17  1  0
 15 14  2  0
 18 17  1  0
 18 19  1  1
 20 19  1  0
 20 21  1  0
 21 25  1  0
 21 22  2  0
 23 18  1  0
 24 23  2  0
 26 23  1  0
M  END
$$$$
