NDE.pdb
     RDKit          3D

 26 25  0  0  1  0  0  0  0  0999 V2000
    7.9756  -12.0888   18.7393 N   0  0  0  0  0  0  0  0  0  0  0  0
    7.9302  -13.3834   18.1544 C   0  0  0  0  0  0  0  0  0  0  0  0
    8.0193  -13.5174   16.9136 O   0  0  0  0  0  0  0  0  0  0  0  0
    7.7750  -14.5819   19.0316 C   0  0  0  0  0  0  0  0  0  0  0  0
    9.1020  -14.7340   19.7565 C   0  0  2  0  0  0  0  0  0  0  0  0
   10.1330  -14.9576   18.8000 N   0  0  0  0  0  0  0  0  0  0  0  0
    8.9757  -15.8818   20.7298 C   0  0  0  0  0  0  0  0  0  0  0  0
    8.0083  -16.6663   20.6433 O   0  0  0  0  0  0  0  0  0  0  0  0
    9.9301  -16.0909   21.7406 N   0  0  0  0  0  0  0  0  0  0  0  0
   10.2560  -17.2072   22.5291 C   0  0  1  0  0  0  0  0  0  0  0  0
   10.6848  -18.4835   21.8394 C   0  0  0  0  0  0  0  0  0  0  0  0
   10.9783  -19.5851   22.7836 C   0  0  0  0  0  0  0  0  0  0  0  0
   10.0083  -20.0662   23.4653 O   0  0  0  0  0  0  0  0  0  0  0  0
   10.9624  -16.9548   23.7969 C   0  0  0  0  0  0  0  0  0  0  0  0
   12.1878  -16.5746   23.7231 O   0  0  0  0  0  0  0  0  0  0  0  0
   12.2315  -20.1181   22.9666 O   0  0  0  0  0  0  0  0  0  0  0  0
   10.4113  -17.0932   25.0732 N   0  0  0  0  0  0  0  0  0  0  0  0
   11.1736  -16.6377   26.2372 C   0  0  1  0  0  0  0  0  0  0  0  0
   10.3381  -15.6571   27.0340 C   0  0  0  0  0  0  0  0  0  0  0  0
   10.9982  -15.1613   28.2637 C   0  0  0  0  0  0  0  0  0  0  0  0
   10.1613  -14.2803   29.0992 C   0  0  0  0  0  0  0  0  0  0  0  0
    8.9525  -14.1204   28.7392 O   0  0  0  0  0  0  0  0  0  0  0  0
   11.5733  -17.8321   27.0023 C   0  0  0  0  0  0  0  0  0  0  0  0
   10.9649  -18.9079   26.8404 O   0  0  0  0  0  0  0  0  0  0  0  0
   10.5774  -13.6160   30.2368 O   0  0  0  0  0  0  0  0  0  0  0  0
   12.6145  -17.7685   27.8945 O   0  0  0  0  0  0  0  0  0  0  0  0
  2  1  1  0
  2  3  2  0
  4  2  1  0
  5  4  1  0
  5  7  1  0
  5  6  1  6
  7  8  2  0
  9 10  1  0
  9  7  1  0
 10 11  1  6
 11 12  1  0
 12 16  1  0
 13 12  2  0
 14 10  1  0
 14 17  1  0
 15 14  2  0
 18 17  1  0
 18 19  1  1
 20 19  1  0
 20 21  1  0
 21 25  1  0
 21 22  2  0
 23 18  1  0
 24 23  2  0
 26 23  1  0
M  END
$$$$
