NDE.pdb
     RDKit          3D

 26 25  0  0  1  0  0  0  0  0999 V2000
    7.4885  -12.1698   17.9127 N   0  0  0  0  0  0  0  0  0  0  0  0
    7.4955  -13.5710   17.6743 C   0  0  0  0  0  0  0  0  0  0  0  0
    7.6086  -14.0109   16.5084 O   0  0  0  0  0  0  0  0  0  0  0  0
    7.3668  -14.5138   18.8251 C   0  0  0  0  0  0  0  0  0  0  0  0
    8.5711  -14.2450   19.7120 C   0  0  2  0  0  0  0  0  0  0  0  0
    9.7372  -14.1531   18.8998 N   0  0  0  0  0  0  0  0  0  0  0  0
    8.6711  -15.3658   20.7193 C   0  0  0  0  0  0  0  0  0  0  0  0
    7.7099  -15.6062   21.4789 O   0  0  0  0  0  0  0  0  0  0  0  0
    9.8311  -16.1531   20.8234 N   0  0  0  0  0  0  0  0  0  0  0  0
   10.2132  -17.1774   21.7059 C   0  0  1  0  0  0  0  0  0  0  0  0
   10.7917  -18.4521   21.1324 C   0  0  0  0  0  0  0  0  0  0  0  0
   10.9395  -19.5284   22.1378 C   0  0  0  0  0  0  0  0  0  0  0  0
   12.1006  -19.7296   22.6359 O   0  0  0  0  0  0  0  0  0  0  0  0
   10.8247  -16.7740   22.9840 C   0  0  0  0  0  0  0  0  0  0  0  0
   12.0700  -16.4574   22.9674 O   0  0  0  0  0  0  0  0  0  0  0  0
    9.9006  -20.3202   22.5645 O   0  0  0  0  0  0  0  0  0  0  0  0
   10.1636  -16.7057   24.2128 N   0  0  0  0  0  0  0  0  0  0  0  0
   10.8936  -16.2464   25.3959 C   0  0  1  0  0  0  0  0  0  0  0  0
    9.9518  -15.4828   26.3039 C   0  0  0  0  0  0  0  0  0  0  0  0
   10.5892  -14.9640   27.5360 C   0  0  0  0  0  0  0  0  0  0  0  0
    9.6785  -14.2409   28.4427 C   0  0  0  0  0  0  0  0  0  0  0  0
    8.4430  -14.2425   28.1425 O   0  0  0  0  0  0  0  0  0  0  0  0
   11.4987  -17.4298   26.0324 C   0  0  0  0  0  0  0  0  0  0  0  0
   10.8887  -18.5168   26.0334 O   0  0  0  0  0  0  0  0  0  0  0  0
   10.0519  -13.5641   29.5876 O   0  0  0  0  0  0  0  0  0  0  0  0
   12.7335  -17.3437   26.6257 O   0  0  0  0  0  0  0  0  0  0  0  0
  2  1  1  0
  2  3  2  0
  4  2  1  0
  5  4  1  0
  5  7  1  0
  5  6  1  6
  7  8  2  0
  9 10  1  0
  9  7  1  0
 10 11  1  6
 11 12  1  0
 12 16  1  0
 13 12  2  0
 14 10  1  0
 14 17  1  0
 15 14  2  0
 18 17  1  0
 18 19  1  1
 20 19  1  0
 20 21  1  0
 21 25  1  0
 21 22  2  0
 23 18  1  0
 24 23  2  0
 26 23  1  0
M  END
$$$$
