NDE.pdb
     RDKit          3D

 26 25  0  0  1  0  0  0  0  0999 V2000
   14.0332  -19.0173   15.6454 N   0  0  0  0  0  0  0  0  0  0  0  0
   14.7739  -17.9851   16.2828 C   0  0  0  0  0  0  0  0  0  0  0  0
   15.8709  -17.6131   15.8098 O   0  0  0  0  0  0  0  0  0  0  0  0
   14.2335  -17.3486   17.5207 C   0  0  0  0  0  0  0  0  0  0  0  0
   14.8948  -18.0773   18.6787 C   0  0  2  0  0  0  0  0  0  0  0  0
   14.4268  -19.4218   18.7119 N   0  0  0  0  0  0  0  0  0  0  0  0
   14.5652  -17.3328   19.9507 C   0  0  0  0  0  0  0  0  0  0  0  0
   14.9123  -16.1406   20.0807 O   0  0  0  0  0  0  0  0  0  0  0  0
   13.8701  -17.9552   21.0022 N   0  0  0  0  0  0  0  0  0  0  0  0
   13.5743  -17.5586   22.3172 C   0  0  1  0  0  0  0  0  0  0  0  0
   12.1488  -17.6788   22.8089 C   0  0  0  0  0  0  0  0  0  0  0  0
   11.9572  -17.1436   24.1757 C   0  0  0  0  0  0  0  0  0  0  0  0
   11.6824  -15.9003   24.3007 O   0  0  0  0  0  0  0  0  0  0  0  0
   14.5823  -17.8470   23.3520 C   0  0  0  0  0  0  0  0  0  0  0  0
   14.7684  -19.0791   23.6663 O   0  0  0  0  0  0  0  0  0  0  0  0
   12.0575  -17.9070   25.3138 O   0  0  0  0  0  0  0  0  0  0  0  0
   15.3540  -16.8929   24.0199 N   0  0  0  0  0  0  0  0  0  0  0  0
   16.3210  -17.3303   25.0285 C   0  0  1  0  0  0  0  0  0  0  0  0
   17.5253  -16.4119   25.0031 C   0  0  0  0  0  0  0  0  0  0  0  0
   18.1196  -16.2327   23.6583 C   0  0  0  0  0  0  0  0  0  0  0  0
   19.3176  -15.3734   23.6242 C   0  0  0  0  0  0  0  0  0  0  0  0
   19.4214  -14.5658   22.6477 O   0  0  0  0  0  0  0  0  0  0  0  0
   15.6264  -17.3587   26.3278 C   0  0  0  0  0  0  0  0  0  0  0  0
   16.2156  -17.7855   27.3400 O   0  0  0  0  0  0  0  0  0  0  0  0
   20.3335  -15.3707   24.5602 O   0  0  0  0  0  0  0  0  0  0  0  0
   14.3310  -16.9166   26.4322 O   0  0  0  0  0  0  0  0  0  0  0  0
  2  1  1  0
  2  3  2  0
  4  2  1  0
  5  4  1  0
  5  7  1  0
  5  6  1  1
  7  8  2  0
  9 10  1  0
  9  7  1  0
 10 11  1  1
 11 12  1  0
 12 16  1  0
 13 12  2  0
 14 10  1  0
 14 17  1  0
 15 14  2  0
 18 17  1  0
 18 19  1  1
 20 19  1  0
 20 21  1  0
 21 25  1  0
 21 22  2  0
 23 18  1  0
 24 23  2  0
 26 23  1  0
M  END
$$$$
