NDE.pdb
     RDKit          3D

 26 25  0  0  1  0  0  0  0  0999 V2000
    7.1477  -12.4924   18.3217 N   0  0  0  0  0  0  0  0  0  0  0  0
    6.9922  -13.8599   18.6766 C   0  0  0  0  0  0  0  0  0  0  0  0
    5.8492  -14.3603   18.7695 O   0  0  0  0  0  0  0  0  0  0  0  0
    8.2026  -14.6944   18.9379 C   0  0  0  0  0  0  0  0  0  0  0  0
    9.3837  -13.7422   18.8508 C   0  0  2  0  0  0  0  0  0  0  0  0
    9.5203  -13.2901   17.5073 N   0  0  0  0  0  0  0  0  0  0  0  0
   10.6142  -14.4766   19.3276 C   0  0  0  0  0  0  0  0  0  0  0  0
   10.5919  -15.0837   20.4183 O   0  0  0  0  0  0  0  0  0  0  0  0
   11.7957  -14.4938   18.5659 N   0  0  0  0  0  0  0  0  0  0  0  0
   13.0632  -15.0595   18.7836 C   0  0  1  0  0  0  0  0  0  0  0  0
   14.0859  -15.0002   17.6705 C   0  0  0  0  0  0  0  0  0  0  0  0
   13.6086  -15.6084   16.4082 C   0  0  0  0  0  0  0  0  0  0  0  0
   13.4449  -14.8423   15.3966 O   0  0  0  0  0  0  0  0  0  0  0  0
   13.6453  -14.9138   20.1289 C   0  0  0  0  0  0  0  0  0  0  0  0
   14.2467  -13.8097   20.3944 O   0  0  0  0  0  0  0  0  0  0  0  0
   13.3332  -16.9469   16.2639 O   0  0  0  0  0  0  0  0  0  0  0  0
   13.5973  -15.8756   21.1412 N   0  0  0  0  0  0  0  0  0  0  0  0
   14.1758  -15.5686   22.4507 C   0  0  1  0  0  0  0  0  0  0  0  0
   13.4392  -16.3465   23.5215 C   0  0  0  0  0  0  0  0  0  0  0  0
   12.0006  -16.0109   23.6297 C   0  0  0  0  0  0  0  0  0  0  0  0
   11.2715  -16.7555   24.6730 C   0  0  0  0  0  0  0  0  0  0  0  0
   11.4051  -16.3515   25.8711 O   0  0  0  0  0  0  0  0  0  0  0  0
   15.6159  -15.8738   22.3833 C   0  0  0  0  0  0  0  0  0  0  0  0
   16.3718  -15.5191   23.3087 O   0  0  0  0  0  0  0  0  0  0  0  0
   10.4576  -17.8512   24.4603 O   0  0  0  0  0  0  0  0  0  0  0  0
   16.1327  -16.5486   21.3054 O   0  0  0  0  0  0  0  0  0  0  0  0
  2  1  1  0
  2  3  2  0
  4  2  1  0
  5  4  1  0
  5  7  1  0
  5  6  1  6
  7  8  2  0
  9 10  1  0
  9  7  1  0
 10 11  1  6
 11 12  1  0
 12 16  1  0
 13 12  2  0
 14 10  1  0
 14 17  1  0
 15 14  2  0
 18 17  1  0
 18 19  1  1
 20 19  1  0
 20 21  1  0
 21 25  1  0
 21 22  2  0
 23 18  1  0
 24 23  2  0
 26 23  1  0
M  END
$$$$
