NDE.pdb
     RDKit          3D

 26 25  0  0  1  0  0  0  0  0999 V2000
   15.4176  -14.4368   14.7392 N   0  0  0  0  0  0  0  0  0  0  0  0
   15.9304  -13.3191   15.4520 C   0  0  0  0  0  0  0  0  0  0  0  0
   16.5088  -12.3935   14.8404 O   0  0  0  0  0  0  0  0  0  0  0  0
   15.7740  -13.2581   16.9358 C   0  0  0  0  0  0  0  0  0  0  0  0
   15.0732  -14.5484   17.3276 C   0  0  2  0  0  0  0  0  0  0  0  0
   13.7679  -14.5615   16.7586 N   0  0  0  0  0  0  0  0  0  0  0  0
   15.0328  -14.6208   18.8355 C   0  0  0  0  0  0  0  0  0  0  0  0
   16.0487  -14.3270   19.4992 O   0  0  0  0  0  0  0  0  0  0  0  0
   13.8680  -15.0144   19.5171 N   0  0  0  0  0  0  0  0  0  0  0  0
   13.5734  -15.1921   20.8794 C   0  0  1  0  0  0  0  0  0  0  0  0
   12.1422  -15.4703   21.2827 C   0  0  0  0  0  0  0  0  0  0  0  0
   11.9553  -15.5483   22.7491 C   0  0  0  0  0  0  0  0  0  0  0  0
   10.9706  -16.2338   23.1934 O   0  0  0  0  0  0  0  0  0  0  0  0
   14.5675  -15.9087   21.6969 C   0  0  0  0  0  0  0  0  0  0  0  0
   14.6117  -17.1880   21.5837 O   0  0  0  0  0  0  0  0  0  0  0  0
   12.7794  -14.9271   23.6563 O   0  0  0  0  0  0  0  0  0  0  0  0
   15.4671  -15.3136   22.5848 N   0  0  0  0  0  0  0  0  0  0  0  0
   16.6614  -16.0524   22.9989 C   0  0  1  0  0  0  0  0  0  0  0  0
   17.8925  -15.2127   22.7272 C   0  0  0  0  0  0  0  0  0  0  0  0
   19.1574  -15.8278   23.1914 C   0  0  0  0  0  0  0  0  0  0  0  0
   20.3450  -14.9627   23.0660 C   0  0  0  0  0  0  0  0  0  0  0  0
   20.1684  -13.8087   22.5623 O   0  0  0  0  0  0  0  0  0  0  0  0
   16.4923  -16.4117   24.4181 C   0  0  0  0  0  0  0  0  0  0  0  0
   15.5985  -15.8682   25.0960 O   0  0  0  0  0  0  0  0  0  0  0  0
   21.6294  -15.2979   23.4484 O   0  0  0  0  0  0  0  0  0  0  0  0
   17.3142  -17.3440   25.0008 O   0  0  0  0  0  0  0  0  0  0  0  0
  2  1  1  0
  2  3  2  0
  4  2  1  0
  5  4  1  0
  5  7  1  0
  5  6  1  6
  7  8  2  0
  9 10  1  0
  9  7  1  0
 10 11  1  6
 11 12  1  0
 12 16  1  0
 13 12  2  0
 14 10  1  0
 14 17  1  0
 15 14  2  0
 18 17  1  0
 18 19  1  1
 20 19  1  0
 20 21  1  0
 21 25  1  0
 21 22  2  0
 23 18  1  0
 24 23  2  0
 26 23  1  0
M  END
$$$$
