NDE.pdb
     RDKit          3D

 26 25  0  0  1  0  0  0  0  0999 V2000
    8.8991  -14.5504   16.9278 N   0  0  0  0  0  0  0  0  0  0  0  0
    7.7065  -14.7597   17.6723 C   0  0  0  0  0  0  0  0  0  0  0  0
    6.8391  -15.5615   17.2597 O   0  0  0  0  0  0  0  0  0  0  0  0
    7.4966  -14.0155   18.9498 C   0  0  0  0  0  0  0  0  0  0  0  0
    8.7684  -13.2137   19.1710 C   0  0  2  0  0  0  0  0  0  0  0  0
    9.0325  -12.4291   18.0123 N   0  0  0  0  0  0  0  0  0  0  0  0
    9.8887  -14.1829   19.4643 C   0  0  0  0  0  0  0  0  0  0  0  0
    9.7492  -15.0414   20.3600 O   0  0  0  0  0  0  0  0  0  0  0  0
   11.0967  -14.1422   18.7464 N   0  0  0  0  0  0  0  0  0  0  0  0
   12.3202  -14.8161   18.8981 C   0  0  1  0  0  0  0  0  0  0  0  0
   13.2203  -14.9679   17.6918 C   0  0  0  0  0  0  0  0  0  0  0  0
   12.5824  -15.7061   16.5785 C   0  0  0  0  0  0  0  0  0  0  0  0
   12.3686  -16.9581   16.7327 O   0  0  0  0  0  0  0  0  0  0  0  0
   13.0527  -14.6095   20.1594 C   0  0  0  0  0  0  0  0  0  0  0  0
   13.5447  -13.4413   20.3706 O   0  0  0  0  0  0  0  0  0  0  0  0
   12.2078  -15.1217   15.3926 O   0  0  0  0  0  0  0  0  0  0  0  0
   13.2565  -15.5774   21.1460 N   0  0  0  0  0  0  0  0  0  0  0  0
   13.9751  -15.2150   22.3691 C   0  0  1  0  0  0  0  0  0  0  0  0
   13.1507  -15.6157   23.5750 C   0  0  0  0  0  0  0  0  0  0  0  0
   12.6909  -17.0235   23.5512 C   0  0  0  0  0  0  0  0  0  0  0  0
   11.9514  -17.4501   24.7536 C   0  0  0  0  0  0  0  0  0  0  0  0
   12.5791  -17.4192   25.8589 O   0  0  0  0  0  0  0  0  0  0  0  0
   15.2980  -15.8619   22.3159 C   0  0  0  0  0  0  0  0  0  0  0  0
   15.5479  -16.6967   21.4246 O   0  0  0  0  0  0  0  0  0  0  0  0
   10.6385  -17.8786   24.7817 O   0  0  0  0  0  0  0  0  0  0  0  0
   16.2607  -15.5506   23.2436 O   0  0  0  0  0  0  0  0  0  0  0  0
  2  1  1  0
  2  3  2  0
  4  2  1  0
  5  4  1  0
  5  7  1  0
  5  6  1  6
  7  8  2  0
  9 10  1  0
  9  7  1  0
 10 11  1  6
 11 12  1  0
 12 16  1  0
 13 12  2  0
 14 10  1  0
 14 17  1  0
 15 14  2  0
 18 17  1  0
 18 19  1  1
 20 19  1  0
 20 21  1  0
 21 25  1  0
 21 22  2  0
 23 18  1  0
 24 23  2  0
 26 23  1  0
M  END
$$$$
