NDE.pdb
     RDKit          3D

 26 25  0  0  1  0  0  0  0  0999 V2000
    9.1489  -14.6903   14.7529 N   0  0  0  0  0  0  0  0  0  0  0  0
    8.1657  -14.4188   15.7428 C   0  0  0  0  0  0  0  0  0  0  0  0
    7.2517  -13.5956   15.5135 O   0  0  0  0  0  0  0  0  0  0  0  0
    8.2318  -15.1229   17.0579 C   0  0  0  0  0  0  0  0  0  0  0  0
    8.9366  -14.1630   18.0019 C   0  0  2  0  0  0  0  0  0  0  0  0
    9.3086  -12.9912   17.2833 N   0  0  0  0  0  0  0  0  0  0  0  0
   10.1356  -14.8733   18.5838 C   0  0  0  0  0  0  0  0  0  0  0  0
    9.9811  -15.9424   19.2100 O   0  0  0  0  0  0  0  0  0  0  0  0
   11.4342  -14.3556   18.4361 N   0  0  0  0  0  0  0  0  0  0  0  0
   12.6818  -14.7471   18.9501 C   0  0  1  0  0  0  0  0  0  0  0  0
   13.9309  -14.3926   18.1738 C   0  0  0  0  0  0  0  0  0  0  0  0
   13.9319  -14.9312   16.7949 C   0  0  0  0  0  0  0  0  0  0  0  0
   13.7268  -16.1845   16.6396 O   0  0  0  0  0  0  0  0  0  0  0  0
   12.8581  -14.6886   20.4114 C   0  0  0  0  0  0  0  0  0  0  0  0
   12.1874  -13.7983   21.0508 O   0  0  0  0  0  0  0  0  0  0  0  0
   14.1396  -14.1608   15.6763 O   0  0  0  0  0  0  0  0  0  0  0  0
   13.6931  -15.5211   21.1609 N   0  0  0  0  0  0  0  0  0  0  0  0
   13.7607  -15.3498   22.6134 C   0  0  1  0  0  0  0  0  0  0  0  0
   12.3830  -15.5534   23.2091 C   0  0  0  0  0  0  0  0  0  0  0  0
   11.9514  -16.9693   23.2621 C   0  0  0  0  0  0  0  0  0  0  0  0
   11.2708  -17.3591   24.5108 C   0  0  0  0  0  0  0  0  0  0  0  0
   11.8893  -18.1611   25.2796 O   0  0  0  0  0  0  0  0  0  0  0  0
   14.7715  -16.2919   23.1257 C   0  0  0  0  0  0  0  0  0  0  0  0
   15.1968  -16.1760   24.2917 O   0  0  0  0  0  0  0  0  0  0  0  0
   10.0224  -16.9283   24.9160 O   0  0  0  0  0  0  0  0  0  0  0  0
   15.2494  -17.2999   22.3258 O   0  0  0  0  0  0  0  0  0  0  0  0
  2  1  1  0
  2  3  2  0
  4  2  1  0
  5  4  1  0
  5  7  1  0
  5  6  1  6
  7  8  2  0
  9 10  1  0
  9  7  1  0
 10 11  1  6
 11 12  1  0
 12 16  1  0
 13 12  2  0
 14 10  1  0
 14 17  1  0
 15 14  2  0
 18 17  1  0
 18 19  1  1
 20 19  1  0
 20 21  1  0
 21 25  1  0
 21 22  2  0
 23 18  1  0
 24 23  2  0
 26 23  1  0
M  END
$$$$
