NDE.pdb
     RDKit          3D

 26 25  0  0  1  0  0  0  0  0999 V2000
    7.3255  -12.7406   16.6763 N   0  0  0  0  0  0  0  0  0  0  0  0
    7.6792  -13.9733   16.0634 C   0  0  0  0  0  0  0  0  0  0  0  0
    6.8271  -14.6224   15.4168 O   0  0  0  0  0  0  0  0  0  0  0  0
    9.0746  -14.4877   16.1971 C   0  0  0  0  0  0  0  0  0  0  0  0
    9.4298  -14.3325   17.6665 C   0  0  2  0  0  0  0  0  0  0  0  0
    9.4870  -12.9465   17.9886 N   0  0  0  0  0  0  0  0  0  0  0  0
   10.7517  -15.0228   17.9048 C   0  0  0  0  0  0  0  0  0  0  0  0
   10.8514  -16.2540   17.7234 O   0  0  0  0  0  0  0  0  0  0  0  0
   11.8840  -14.3061   18.3297 N   0  0  0  0  0  0  0  0  0  0  0  0
   13.1692  -14.7045   18.7343 C   0  0  1  0  0  0  0  0  0  0  0  0
   14.3594  -14.2606   17.9128 C   0  0  0  0  0  0  0  0  0  0  0  0
   14.7827  -15.2651   16.9113 C   0  0  0  0  0  0  0  0  0  0  0  0
   15.4891  -16.2532   17.3132 O   0  0  0  0  0  0  0  0  0  0  0  0
   13.4360  -14.7536   20.1822 C   0  0  0  0  0  0  0  0  0  0  0  0
   13.7995  -13.6605   20.7518 O   0  0  0  0  0  0  0  0  0  0  0  0
   14.4588  -15.1947   15.5778 O   0  0  0  0  0  0  0  0  0  0  0  0
   13.3259  -15.8892   20.9884 N   0  0  0  0  0  0  0  0  0  0  0  0
   13.4926  -15.7595   22.4373 C   0  0  1  0  0  0  0  0  0  0  0  0
   12.4712  -16.6286   23.1414 C   0  0  0  0  0  0  0  0  0  0  0  0
   12.6325  -16.6782   24.6129 C   0  0  0  0  0  0  0  0  0  0  0  0
   11.7114  -17.6004   25.3025 C   0  0  0  0  0  0  0  0  0  0  0  0
   11.2660  -17.2322   26.4351 O   0  0  0  0  0  0  0  0  0  0  0  0
   14.8878  -16.1093   22.7575 C   0  0  0  0  0  0  0  0  0  0  0  0
   15.5309  -16.8620   22.0001 O   0  0  0  0  0  0  0  0  0  0  0  0
   11.2918  -18.8266   24.8242 O   0  0  0  0  0  0  0  0  0  0  0  0
   15.4867  -15.6102   23.8874 O   0  0  0  0  0  0  0  0  0  0  0  0
  2  1  1  0
  2  3  2  0
  4  2  1  0
  5  4  1  0
  5  7  1  0
  5  6  1  6
  7  8  2  0
  9 10  1  0
  9  7  1  0
 10 11  1  6
 11 12  1  0
 12 16  1  0
 13 12  2  0
 14 10  1  0
 14 17  1  0
 15 14  2  0
 18 17  1  0
 18 19  1  1
 20 19  1  0
 20 21  1  0
 21 25  1  0
 21 22  2  0
 23 18  1  0
 24 23  2  0
 26 23  1  0
M  END
$$$$
