HSD.pdb
     RDKit          3D

 25 25  0  0  1  0  0  0  0  0999 V2000
   13.1520  -13.7740   18.4867 N   0  0  0  0  0  0  0  0  0  0  0  0
   12.1426  -14.7250   18.9132 C   0  0  1  0  0  0  0  0  0  0  0  0
   12.5583  -16.0818   18.3313 C   0  0  0  0  0  0  0  0  0  0  0  0
   12.3039  -16.1086   16.8679 C   0  0  0  0  0  0  0  0  0  0  0  0
   11.0889  -16.0296   16.2113 C   0  0  0  0  0  0  0  0  0  0  0  0
   11.2659  -16.0877   14.8793 N   0  0  0  0  0  0  0  0  0  0  0  0
   12.6015  -16.2041   14.6939 C   0  0  0  0  0  0  0  0  0  0  0  0
   13.2302  -16.2173   15.8809 N   0  0  0  0  0  0  0  0  0  0  0  0
   12.1468  -14.7724   20.3963 C   0  0  0  0  0  0  0  0  0  0  0  0
   13.2251  -14.7899   21.0403 O   0  0  0  0  0  0  0  0  0  0  0  0
    8.6028  -15.5521   22.5865 O   0  0  0  0  0  0  0  0  0  0  0  0
    9.5172  -14.6634   23.0990 C   0  0  0  0  0  0  0  0  0  0  0  0
   10.9399  -14.9418   22.5983 C   0  0  2  0  0  0  0  0  0  0  0  0
   10.9439  -14.8002   21.1584 N   0  0  0  0  0  0  0  0  0  0  0  0
   11.3828  -16.2922   23.0201 C   0  0  0  0  0  0  0  0  0  0  0  0
   11.1714  -17.3002   22.2931 O   0  0  0  0  0  0  0  0  0  0  0  0
   12.0498  -16.4619   24.2483 N   0  0  0  0  0  0  0  0  0  0  0  0
   12.4291  -17.7619   24.7953 C   0  0  1  0  0  0  0  0  0  0  0  0
   13.8663  -17.7290   25.2507 C   0  0  0  0  0  0  0  0  0  0  0  0
   14.7595  -17.4611   24.0972 C   0  0  0  0  0  0  0  0  0  0  0  0
   14.5695  -17.8202   22.9285 O   0  0  0  0  0  0  0  0  0  0  0  0
   11.5792  -18.0998   25.9765 C   0  0  0  0  0  0  0  0  0  0  0  0
   10.6179  -17.2762   26.4977 O   0  0  0  0  0  0  0  0  0  0  0  0
   15.9317  -16.7312   24.3546 O   0  0  0  0  0  0  0  0  0  0  0  0
   11.7757  -19.2197   26.5131 O   0  0  0  0  0  0  0  0  0  0  0  0
  2  1  1  1
  3  2  1  0
  4  3  1  0
  5  4  2  0
  6  7  1  0
  6  5  1  0
  7  8  2  0
  8  4  1  0
  9 10  2  0
  9  2  1  0
 11 12  1  0
 13 12  1  6
 13 14  1  0
 14  9  1  0
 15 13  1  0
 15 17  1  0
 16 15  2  0
 18 17  1  0
 18 22  1  0
 18 19  1  1
 19 20  1  0
 20 21  2  0
 22 25  2  0
 22 23  1  0
 24 20  1  0
M  END
$$$$
