HSD.pdb
     RDKit          3D

 25 25  0  0  1  0  0  0  0  0999 V2000
    6.2352  -14.6092   20.0071 N   0  0  0  0  0  0  0  0  0  0  0  0
    7.6853  -14.6465   19.9764 C   0  0  1  0  0  0  0  0  0  0  0  0
    8.1235  -13.5222   19.0297 C   0  0  0  0  0  0  0  0  0  0  0  0
    7.9116  -13.9329   17.6178 C   0  0  0  0  0  0  0  0  0  0  0  0
    7.4412  -15.1439   17.1428 C   0  0  0  0  0  0  0  0  0  0  0  0
    7.3876  -15.1368   15.7989 N   0  0  0  0  0  0  0  0  0  0  0  0
    7.8270  -13.9131   15.4232 C   0  0  0  0  0  0  0  0  0  0  0  0
    8.1429  -13.1859   16.5077 N   0  0  0  0  0  0  0  0  0  0  0  0
    8.1853  -14.3932   21.3503 C   0  0  0  0  0  0  0  0  0  0  0  0
    7.9170  -13.3225   21.9497 O   0  0  0  0  0  0  0  0  0  0  0  0
    7.4155  -15.9363   24.4650 O   0  0  0  0  0  0  0  0  0  0  0  0
    8.1979  -14.8226   24.2745 C   0  0  0  0  0  0  0  0  0  0  0  0
    9.4311  -15.1208   23.4126 C   0  0  2  0  0  0  0  0  0  0  0  0
    8.9856  -15.3386   22.0533 N   0  0  0  0  0  0  0  0  0  0  0  0
   10.1652  -16.2929   23.9461 C   0  0  0  0  0  0  0  0  0  0  0  0
    9.8147  -17.4671   23.6496 O   0  0  0  0  0  0  0  0  0  0  0  0
   11.2708  -16.1029   24.7968 N   0  0  0  0  0  0  0  0  0  0  0  0
   12.0814  -17.1929   25.3333 C   0  0  1  0  0  0  0  0  0  0  0  0
   13.4747  -16.6991   25.6317 C   0  0  0  0  0  0  0  0  0  0  0  0
   14.2257  -16.5008   24.3681 C   0  0  0  0  0  0  0  0  0  0  0  0
   13.7981  -16.7056   23.2253 O   0  0  0  0  0  0  0  0  0  0  0  0
   11.4915  -17.7048   26.6067 C   0  0  0  0  0  0  0  0  0  0  0  0
   11.7830  -18.9232   27.1584 O   0  0  0  0  0  0  0  0  0  0  0  0
   15.5471  -16.0368   24.4779 O   0  0  0  0  0  0  0  0  0  0  0  0
   10.6751  -16.9511   27.1952 O   0  0  0  0  0  0  0  0  0  0  0  0
  2  1  1  1
  3  2  1  0
  4  3  1  0
  5  4  2  0
  6  7  1  0
  6  5  1  0
  7  8  2  0
  8  4  1  0
  9 10  2  0
  9  2  1  0
 11 12  1  0
 13 12  1  1
 13 14  1  0
 14  9  1  0
 15 13  1  0
 15 17  1  0
 16 15  2  0
 18 17  1  0
 18 22  1  0
 18 19  1  1
 19 20  1  0
 20 21  2  0
 22 25  2  0
 22 23  1  0
 24 20  1  0
M  END
$$$$
