HSD.pdb
     RDKit          3D

 25 25  0  0  1  0  0  0  0  0999 V2000
    8.3489  -20.6722   18.8938 N   0  0  0  0  0  0  0  0  0  0  0  0
    8.9025  -21.4691   19.9724 C   0  0  1  0  0  0  0  0  0  0  0  0
    9.8459  -22.4843   19.3153 C   0  0  0  0  0  0  0  0  0  0  0  0
   10.8599  -21.7784   18.4904 C   0  0  0  0  0  0  0  0  0  0  0  0
   12.0133  -21.1435   18.9147 C   0  0  0  0  0  0  0  0  0  0  0  0
   12.6771  -20.6190   17.8691 N   0  0  0  0  0  0  0  0  0  0  0  0
   11.9377  -20.9249   16.7776 C   0  0  0  0  0  0  0  0  0  0  0  0
   10.8472  -21.6196   17.1419 N   0  0  0  0  0  0  0  0  0  0  0  0
    9.6582  -20.5665   20.8757 C   0  0  0  0  0  0  0  0  0  0  0  0
    9.9092  -19.3811   20.5446 O   0  0  0  0  0  0  0  0  0  0  0  0
    8.8955  -19.2877   24.3324 O   0  0  0  0  0  0  0  0  0  0  0  0
    9.8282  -18.9408   23.3846 C   0  0  0  0  0  0  0  0  0  0  0  0
   10.7926  -20.0917   23.0716 C   0  0  2  0  0  0  0  0  0  0  0  0
   10.1329  -20.9908   22.1497 N   0  0  0  0  0  0  0  0  0  0  0  0
   11.1979  -20.7820   24.3192 C   0  0  0  0  0  0  0  0  0  0  0  0
   10.5441  -21.7671   24.7567 O   0  0  0  0  0  0  0  0  0  0  0  0
   12.3276  -20.3389   25.0331 N   0  0  0  0  0  0  0  0  0  0  0  0
   12.9060  -21.0551   26.1670 C   0  0  1  0  0  0  0  0  0  0  0  0
   14.4106  -20.9674   26.1175 C   0  0  0  0  0  0  0  0  0  0  0  0
   15.0026  -21.7477   27.2315 C   0  0  0  0  0  0  0  0  0  0  0  0
   14.6444  -22.8710   27.6066 O   0  0  0  0  0  0  0  0  0  0  0  0
   12.4513  -20.4491   27.4545 C   0  0  0  0  0  0  0  0  0  0  0  0
   12.5206  -21.0749   28.6700 O   0  0  0  0  0  0  0  0  0  0  0  0
   16.0704  -21.1566   27.9270 O   0  0  0  0  0  0  0  0  0  0  0  0
   11.9766  -19.2863   27.3960 O   0  0  0  0  0  0  0  0  0  0  0  0
  2  1  1  6
  3  2  1  0
  4  3  1  0
  5  4  2  0
  6  7  1  0
  6  5  1  0
  7  8  2  0
  8  4  1  0
  9 10  2  0
  9  2  1  0
 11 12  1  0
 13 12  1  1
 13 14  1  0
 14  9  1  0
 15 13  1  0
 15 17  1  0
 16 15  2  0
 18 17  1  0
 18 22  1  0
 18 19  1  6
 19 20  1  0
 20 21  2  0
 22 25  2  0
 22 23  1  0
 24 20  1  0
M  END
$$$$
