HSD.pdb
     RDKit          3D

 25 25  0  0  1  0  0  0  0  0999 V2000
   11.6804  -13.5356   19.1056 N   0  0  0  0  0  0  0  0  0  0  0  0
   10.3043  -13.8630   19.4282 C   0  0  1  0  0  0  0  0  0  0  0  0
    9.9355  -15.0714   18.5587 C   0  0  0  0  0  0  0  0  0  0  0  0
    9.3997  -14.6140   17.2508 C   0  0  0  0  0  0  0  0  0  0  0  0
    9.3292  -13.3217   16.7624 C   0  0  0  0  0  0  0  0  0  0  0  0
    8.7784  -13.3087   15.5354 N   0  0  0  0  0  0  0  0  0  0  0  0
    8.4995  -14.6013   15.2475 C   0  0  0  0  0  0  0  0  0  0  0  0
    8.8689  -15.3895   16.2706 N   0  0  0  0  0  0  0  0  0  0  0  0
   10.2369  -14.2184   20.8673 C   0  0  0  0  0  0  0  0  0  0  0  0
   11.2237  -14.7265   21.4555 O   0  0  0  0  0  0  0  0  0  0  0  0
    7.3156  -14.6139   24.7845 O   0  0  0  0  0  0  0  0  0  0  0  0
    7.5054  -14.2543   23.4718 C   0  0  0  0  0  0  0  0  0  0  0  0
    8.9632  -14.4286   23.0278 C   0  0  2  0  0  0  0  0  0  0  0  0
    9.0649  -14.0051   21.6480 N   0  0  0  0  0  0  0  0  0  0  0  0
    9.3943  -15.8357   23.2053 C   0  0  0  0  0  0  0  0  0  0  0  0
    9.0395  -16.7300   22.3906 O   0  0  0  0  0  0  0  0  0  0  0  0
   10.2117  -16.1887   24.2959 N   0  0  0  0  0  0  0  0  0  0  0  0
   10.6273  -17.5572   24.5918 C   0  0  1  0  0  0  0  0  0  0  0  0
   12.0870  -17.7351   24.2578 C   0  0  0  0  0  0  0  0  0  0  0  0
   12.5307  -19.1013   24.6279 C   0  0  0  0  0  0  0  0  0  0  0  0
   11.8661  -20.1390   24.5182 O   0  0  0  0  0  0  0  0  0  0  0  0
   10.4475  -17.8552   26.0446 C   0  0  0  0  0  0  0  0  0  0  0  0
    9.9497  -16.9671   26.9598 O   0  0  0  0  0  0  0  0  0  0  0  0
   13.8275  -19.2302   25.1524 O   0  0  0  0  0  0  0  0  0  0  0  0
   10.7816  -19.0037   26.4321 O   0  0  0  0  0  0  0  0  0  0  0  0
  2  1  1  6
  3  2  1  0
  4  3  1  0
  5  4  2  0
  6  7  1  0
  6  5  1  0
  7  8  2  0
  8  4  1  0
  9 10  2  0
  9  2  1  0
 11 12  1  0
 13 12  1  6
 13 14  1  0
 14  9  1  0
 15 13  1  0
 15 17  1  0
 16 15  2  0
 18 17  1  0
 18 22  1  0
 18 19  1  1
 19 20  1  0
 20 21  2  0
 22 25  2  0
 22 23  1  0
 24 20  1  0
M  END
$$$$
