HSD.pdb
     RDKit          3D

 25 25  0  0  1  0  0  0  0  0999 V2000
   10.6032  -17.4012   16.6348 N   0  0  0  0  0  0  0  0  0  0  0  0
    9.6706  -17.7520   17.6895 C   0  0  1  0  0  0  0  0  0  0  0  0
    9.4333  -19.2624   17.5674 C   0  0  0  0  0  0  0  0  0  0  0  0
    8.5852  -19.5512   16.3824 C   0  0  0  0  0  0  0  0  0  0  0  0
    8.9521  -20.1699   15.2008 C   0  0  0  0  0  0  0  0  0  0  0  0
    7.9028  -20.2513   14.3633 N   0  0  0  0  0  0  0  0  0  0  0  0
    6.8668  -19.6801   15.0207 C   0  0  0  0  0  0  0  0  0  0  0  0
    7.2680  -19.2582   16.2313 N   0  0  0  0  0  0  0  0  0  0  0  0
   10.3013  -17.4288   18.9931 C   0  0  0  0  0  0  0  0  0  0  0  0
   11.5113  -17.6877   19.2087 O   0  0  0  0  0  0  0  0  0  0  0  0
    9.6717  -15.3430   23.3857 O   0  0  0  0  0  0  0  0  0  0  0  0
    9.1688  -15.7101   22.1605 C   0  0  0  0  0  0  0  0  0  0  0  0
   10.1841  -16.5075   21.3323 C   0  0  2  0  0  0  0  0  0  0  0  0
    9.5773  -16.8157   20.0555 N   0  0  0  0  0  0  0  0  0  0  0  0
   10.5953  -17.7335   22.0570 C   0  0  0  0  0  0  0  0  0  0  0  0
    9.8827  -18.7731   22.0285 O   0  0  0  0  0  0  0  0  0  0  0  0
   11.7970  -17.7474   22.7904 N   0  0  0  0  0  0  0  0  0  0  0  0
   12.2884  -18.9101   23.5251 C   0  0  1  0  0  0  0  0  0  0  0  0
   13.6923  -19.2410   23.0851 C   0  0  0  0  0  0  0  0  0  0  0  0
   14.1296  -20.5191   23.6978 C   0  0  0  0  0  0  0  0  0  0  0  0
   13.3915  -21.3880   24.1785 O   0  0  0  0  0  0  0  0  0  0  0  0
   12.3200  -18.6265   24.9915 C   0  0  0  0  0  0  0  0  0  0  0  0
   12.4368  -19.5852   25.9616 O   0  0  0  0  0  0  0  0  0  0  0  0
   15.5117  -20.7676   23.7365 O   0  0  0  0  0  0  0  0  0  0  0  0
   12.2323  -17.4206   25.3364 O   0  0  0  0  0  0  0  0  0  0  0  0
  2  1  1  6
  3  2  1  0
  4  3  1  0
  5  4  2  0
  6  7  1  0
  6  5  1  0
  7  8  2  0
  8  4  1  0
  9 10  2  0
  9  2  1  0
 11 12  1  0
 13 12  1  1
 13 14  1  0
 14  9  1  0
 15 13  1  0
 15 17  1  0
 16 15  2  0
 18 17  1  0
 18 22  1  0
 18 19  1  6
 19 20  1  0
 20 21  2  0
 22 25  2  0
 22 23  1  0
 24 20  1  0
M  END
$$$$
