HSD.pdb
     RDKit          3D

 25 25  0  0  1  0  0  0  0  0999 V2000
   14.2385  -13.7426   17.4956 N   0  0  0  0  0  0  0  0  0  0  0  0
   13.0302  -14.5440   17.5501 C   0  0  1  0  0  0  0  0  0  0  0  0
   13.4782  -16.0051   17.4194 C   0  0  0  0  0  0  0  0  0  0  0  0
   13.8861  -16.2901   16.0196 C   0  0  0  0  0  0  0  0  0  0  0  0
   13.0780  -16.4141   14.9038 C   0  0  0  0  0  0  0  0  0  0  0  0
   13.8170  -16.6749   13.8107 N   0  0  0  0  0  0  0  0  0  0  0  0
   15.1000  -16.7158   14.2395 C   0  0  0  0  0  0  0  0  0  0  0  0
   15.1495  -16.4861   15.5621 N   0  0  0  0  0  0  0  0  0  0  0  0
   12.3806  -14.3154   18.8644 C   0  0  0  0  0  0  0  0  0  0  0  0
   13.0605  -14.2365   19.9176 O   0  0  0  0  0  0  0  0  0  0  0  0
    8.1807  -14.6946   19.4044 O   0  0  0  0  0  0  0  0  0  0  0  0
    8.8500  -13.6748   20.0375 C   0  0  0  0  0  0  0  0  0  0  0  0
   10.3249  -14.0150   20.2851 C   0  0  2  0  0  0  0  0  0  0  0  0
   10.9697  -14.1750   18.9998 N   0  0  0  0  0  0  0  0  0  0  0  0
   10.4425  -15.2369   21.1162 C   0  0  0  0  0  0  0  0  0  0  0  0
   10.7316  -16.3487   20.5968 O   0  0  0  0  0  0  0  0  0  0  0  0
   10.2303  -15.1653   22.5061 N   0  0  0  0  0  0  0  0  0  0  0  0
   10.3659  -16.3048   23.4096 C   0  0  1  0  0  0  0  0  0  0  0  0
   10.4434  -15.8234   24.8367 C   0  0  0  0  0  0  0  0  0  0  0  0
   10.6517  -16.9730   25.7507 C   0  0  0  0  0  0  0  0  0  0  0  0
    9.8256  -17.4272   26.5519 O   0  0  0  0  0  0  0  0  0  0  0  0
    9.1822  -17.2086   23.2920 C   0  0  0  0  0  0  0  0  0  0  0  0
    9.1941  -18.5417   23.6026 O   0  0  0  0  0  0  0  0  0  0  0  0
   11.9047  -17.6064   25.7030 O   0  0  0  0  0  0  0  0  0  0  0  0
    8.1139  -16.6906   22.8782 O   0  0  0  0  0  0  0  0  0  0  0  0
  2  1  1  1
  3  2  1  0
  4  3  1  0
  5  4  2  0
  6  7  1  0
  6  5  1  0
  7  8  2  0
  8  4  1  0
  9 10  2  0
  9  2  1  0
 11 12  1  0
 13 12  1  6
 13 14  1  0
 14  9  1  0
 15 13  1  0
 15 17  1  0
 16 15  2  0
 18 17  1  0
 18 22  1  0
 18 19  1  1
 19 20  1  0
 20 21  2  0
 22 25  2  0
 22 23  1  0
 24 20  1  0
M  END
$$$$
