HSD.pdb
     RDKit          3D

 25 25  0  0  1  0  0  0  0  0999 V2000
    7.8720  -18.8188   19.7734 N   0  0  0  0  0  0  0  0  0  0  0  0
    7.4710  -19.5072   20.9861 C   0  0  1  0  0  0  0  0  0  0  0  0
    7.8372  -20.9827   20.7830 C   0  0  0  0  0  0  0  0  0  0  0  0
    6.9138  -21.6067   19.8006 C   0  0  0  0  0  0  0  0  0  0  0  0
    7.2309  -22.4293   18.7347 C   0  0  0  0  0  0  0  0  0  0  0  0
    6.1190  -22.7960   18.0726 N   0  0  0  0  0  0  0  0  0  0  0  0
    5.0935  -22.2007   18.7250 C   0  0  0  0  0  0  0  0  0  0  0  0
    5.5619  -21.4863   19.7617 N   0  0  0  0  0  0  0  0  0  0  0  0
    8.2364  -18.9332   22.1203 C   0  0  0  0  0  0  0  0  0  0  0  0
    9.4754  -18.7446   22.0356 O   0  0  0  0  0  0  0  0  0  0  0  0
    6.2754  -17.7553   25.6555 O   0  0  0  0  0  0  0  0  0  0  0  0
    7.4280  -17.1165   25.2655 C   0  0  0  0  0  0  0  0  0  0  0  0
    8.3605  -18.0378   24.4691 C   0  0  2  0  0  0  0  0  0  0  0  0
    7.6149  -18.5704   23.3493 N   0  0  0  0  0  0  0  0  0  0  0  0
    8.8922  -19.1142   25.3387 C   0  0  0  0  0  0  0  0  0  0  0  0
    8.2926  -20.2183   25.4435 O   0  0  0  0  0  0  0  0  0  0  0  0
   10.0828  -18.9105   26.0619 N   0  0  0  0  0  0  0  0  0  0  0  0
   10.6384  -19.8787   27.0037 C   0  0  1  0  0  0  0  0  0  0  0  0
   12.1448  -19.8121   26.9813 C   0  0  0  0  0  0  0  0  0  0  0  0
   12.6546  -20.2665   25.6645 C   0  0  0  0  0  0  0  0  0  0  0  0
   12.2096  -21.2069   24.9948 O   0  0  0  0  0  0  0  0  0  0  0  0
   10.1845  -19.5747   28.3941 C   0  0  0  0  0  0  0  0  0  0  0  0
   10.3760  -20.4021   29.4677 O   0  0  0  0  0  0  0  0  0  0  0  0
   13.7453  -19.5637   25.1262 O   0  0  0  0  0  0  0  0  0  0  0  0
    9.5891  -18.4811   28.5685 O   0  0  0  0  0  0  0  0  0  0  0  0
  2  1  1  6
  3  2  1  0
  4  3  1  0
  5  4  2  0
  6  7  1  0
  6  5  1  0
  7  8  2  0
  8  4  1  0
  9 10  2  0
  9  2  1  0
 11 12  1  0
 13 12  1  1
 13 14  1  0
 14  9  1  0
 15 13  1  0
 15 17  1  0
 16 15  2  0
 18 17  1  0
 18 22  1  0
 18 19  1  1
 19 20  1  0
 20 21  2  0
 22 25  2  0
 22 23  1  0
 24 20  1  0
M  END
$$$$
