HSD.pdb
     RDKit          3D

 25 25  0  0  1  0  0  0  0  0999 V2000
   76.0145   -2.7931   65.6487 N   0  0  0  0  0  0  0  0  0  0  0  0
   77.2031   -2.0938   66.0994 C   0  0  1  0  0  0  0  0  0  0  0  0
   78.1243   -3.1600   66.7054 C   0  0  0  0  0  0  0  0  0  0  0  0
   77.3230   -4.3212   67.1710 C   0  0  0  0  0  0  0  0  0  0  0  0
   76.7041   -4.4946   68.3959 C   0  0  0  0  0  0  0  0  0  0  0  0
   76.0711   -5.6804   68.4427 N   0  0  0  0  0  0  0  0  0  0  0  0
   76.2920   -6.2592   67.2395 C   0  0  0  0  0  0  0  0  0  0  0  0
   77.0415   -5.4507   66.4719 N   0  0  0  0  0  0  0  0  0  0  0  0
   77.8450   -1.4620   64.9202 C   0  0  0  0  0  0  0  0  0  0  0  0
   77.8286   -2.0226   63.7963 O   0  0  0  0  0  0  0  0  0  0  0  0
   79.4267    1.6401   66.4677 O   0  0  0  0  0  0  0  0  0  0  0  0
   80.4455    0.9137   65.8994 C   0  0  0  0  0  0  0  0  0  0  0  0
   79.9359   -0.0637   64.8329 C   0  0  2  0  0  0  0  0  0  0  0  0
   78.5053   -0.2024   64.9992 N   0  0  0  0  0  0  0  0  0  0  0  0
   80.6328   -1.3670   64.9488 C   0  0  0  0  0  0  0  0  0  0  0  0
   80.8066   -1.9112   66.0727 O   0  0  0  0  0  0  0  0  0  0  0  0
   81.1110   -2.0141   63.7936 N   0  0  0  0  0  0  0  0  0  0  0  0
   82.2700   -2.9029   63.7798 C   0  0  1  0  0  0  0  0  0  0  0  0
   83.3198   -2.3942   64.7354 C   0  0  0  0  0  0  0  0  0  0  0  0
   83.3335   -0.9109   64.7335 C   0  0  0  0  0  0  0  0  0  0  0  0
   84.1670   -0.1882   65.2937 O   0  0  0  0  0  0  0  0  0  0  0  0
   81.8791   -4.2778   64.2142 C   0  0  0  0  0  0  0  0  0  0  0  0
   80.8714   -4.5512   65.0994 O   0  0  0  0  0  0  0  0  0  0  0  0
   82.3036   -0.2648   64.0299 O   0  0  0  0  0  0  0  0  0  0  0  0
   82.5317   -5.2333   63.7223 O   0  0  0  0  0  0  0  0  0  0  0  0
  2  1  1  6
  3  2  1  0
  4  3  1  0
  5  4  2  0
  6  7  1  0
  6  5  1  0
  7  8  2  0
  8  4  1  0
  9 10  2  0
  9  2  1  0
 11 12  1  0
 13 12  1  1
 13 14  1  0
 14  9  1  0
 15 13  1  0
 15 17  1  0
 16 15  2  0
 18 17  1  0
 18 22  1  0
 18 19  1  1
 19 20  1  0
 20 21  2  0
 22 25  2  0
 22 23  1  0
 24 20  1  0
M  END
$$$$
