HSD.pdb
     RDKit          3D

 25 25  0  0  1  0  0  0  0  0999 V2000
   13.2031  -15.3958   13.8349 N   0  0  0  0  0  0  0  0  0  0  0  0
   12.5491  -15.9578   15.0017 C   0  0  1  0  0  0  0  0  0  0  0  0
   13.2157  -17.3158   15.2548 C   0  0  0  0  0  0  0  0  0  0  0  0
   12.7298  -18.3142   14.2679 C   0  0  0  0  0  0  0  0  0  0  0  0
   11.6320  -18.2226   13.4313 C   0  0  0  0  0  0  0  0  0  0  0  0
   11.5162  -19.3316   12.6791 N   0  0  0  0  0  0  0  0  0  0  0  0
   12.5477  -20.1284   13.0435 C   0  0  0  0  0  0  0  0  0  0  0  0
   13.2794  -19.5255   13.9951 N   0  0  0  0  0  0  0  0  0  0  0  0
   12.7795  -15.0442   16.1480 C   0  0  0  0  0  0  0  0  0  0  0  0
   13.8526  -14.4006   16.2573 O   0  0  0  0  0  0  0  0  0  0  0  0
   10.1999  -14.9938   19.5438 O   0  0  0  0  0  0  0  0  0  0  0  0
   10.7313  -13.8191   19.0680 C   0  0  0  0  0  0  0  0  0  0  0  0
   12.0641  -14.0380   18.3412 C   0  0  2  0  0  0  0  0  0  0  0  0
   11.8085  -14.8511   17.1720 N   0  0  0  0  0  0  0  0  0  0  0  0
   13.0509  -14.6718   19.2479 C   0  0  0  0  0  0  0  0  0  0  0  0
   13.3286  -15.8975   19.1484 O   0  0  0  0  0  0  0  0  0  0  0  0
   13.6924  -13.9027   20.2373 N   0  0  0  0  0  0  0  0  0  0  0  0
   14.6627  -14.4430   21.1859 C   0  0  1  0  0  0  0  0  0  0  0  0
   14.0545  -15.5968   21.9428 C   0  0  0  0  0  0  0  0  0  0  0  0
   14.8572  -15.8893   23.1554 C   0  0  0  0  0  0  0  0  0  0  0  0
   15.9002  -15.3173   23.4955 O   0  0  0  0  0  0  0  0  0  0  0  0
   15.8702  -14.9493   20.4667 C   0  0  0  0  0  0  0  0  0  0  0  0
   17.1545  -14.5707   20.7514 O   0  0  0  0  0  0  0  0  0  0  0  0
   14.3901  -16.9119   23.9978 O   0  0  0  0  0  0  0  0  0  0  0  0
   15.6719  -15.7775   19.5417 O   0  0  0  0  0  0  0  0  0  0  0  0
  2  1  1  6
  3  2  1  0
  4  3  1  0
  5  4  2  0
  6  7  1  0
  6  5  1  0
  7  8  2  0
  8  4  1  0
  9 10  2  0
  9  2  1  0
 11 12  1  0
 13 12  1  1
 13 14  1  0
 14  9  1  0
 15 13  1  0
 15 17  1  0
 16 15  2  0
 18 17  1  0
 18 22  1  0
 18 19  1  6
 19 20  1  0
 20 21  2  0
 22 25  2  0
 22 23  1  0
 24 20  1  0
M  END
$$$$
