HSD.pdb
     RDKit          3D

 25 25  0  0  1  0  0  0  0  0999 V2000
    8.4709  -15.6442   18.5147 N   0  0  0  0  0  0  0  0  0  0  0  0
    9.5909  -14.7372   18.3470 C   0  0  1  0  0  0  0  0  0  0  0  0
    9.0080  -13.4356   17.7827 C   0  0  0  0  0  0  0  0  0  0  0  0
    8.4296  -13.6776   16.4359 C   0  0  0  0  0  0  0  0  0  0  0  0
    7.1062  -13.5798   16.0455 C   0  0  0  0  0  0  0  0  0  0  0  0
    6.9744  -13.8767   14.7403 N   0  0  0  0  0  0  0  0  0  0  0  0
    8.2230  -14.1638   14.3041 C   0  0  0  0  0  0  0  0  0  0  0  0
    9.1005  -14.0466   15.3145 N   0  0  0  0  0  0  0  0  0  0  0  0
   10.1991  -14.4995   19.6794 C   0  0  0  0  0  0  0  0  0  0  0  0
   11.1526  -13.6942   19.8214 O   0  0  0  0  0  0  0  0  0  0  0  0
    9.1209  -16.8028   23.1729 O   0  0  0  0  0  0  0  0  0  0  0  0
    9.4521  -15.4702   23.2285 C   0  0  0  0  0  0  0  0  0  0  0  0
   10.4331  -15.0699   22.1195 C   0  0  2  0  0  0  0  0  0  0  0  0
    9.7400  -15.1633   20.8529 N   0  0  0  0  0  0  0  0  0  0  0  0
   11.6360  -15.9356   22.1543 C   0  0  0  0  0  0  0  0  0  0  0  0
   11.8712  -16.7558   21.2262 O   0  0  0  0  0  0  0  0  0  0  0  0
   12.5346  -15.8482   23.2345 N   0  0  0  0  0  0  0  0  0  0  0  0
   13.7248  -16.6833   23.3724 C   0  0  1  0  0  0  0  0  0  0  0  0
   14.9172  -15.9829   22.7709 C   0  0  0  0  0  0  0  0  0  0  0  0
   16.1104  -16.8615   22.8379 C   0  0  0  0  0  0  0  0  0  0  0  0
   16.1748  -18.0353   22.4523 O   0  0  0  0  0  0  0  0  0  0  0  0
   14.0197  -16.9387   24.8144 C   0  0  0  0  0  0  0  0  0  0  0  0
   14.7411  -18.0055   25.2784 O   0  0  0  0  0  0  0  0  0  0  0  0
   17.2779  -16.3099   23.3910 O   0  0  0  0  0  0  0  0  0  0  0  0
   13.5660  -16.1066   25.6406 O   0  0  0  0  0  0  0  0  0  0  0  0
  2  1  1  1
  3  2  1  0
  4  3  1  0
  5  4  2  0
  6  7  1  0
  6  5  1  0
  7  8  2  0
  8  4  1  0
  9 10  2  0
  9  2  1  0
 11 12  1  0
 13 12  1  1
 13 14  1  0
 14  9  1  0
 15 13  1  0
 15 17  1  0
 16 15  2  0
 18 17  1  0
 18 22  1  0
 18 19  1  1
 19 20  1  0
 20 21  2  0
 22 25  2  0
 22 23  1  0
 24 20  1  0
M  END
$$$$
