HSD.pdb
     RDKit          3D

 25 25  0  0  1  0  0  0  0  0999 V2000
    8.1860  -12.6613   18.3051 N   0  0  0  0  0  0  0  0  0  0  0  0
    8.4796  -13.9997   18.7820 C   0  0  1  0  0  0  0  0  0  0  0  0
    9.5611  -14.5599   17.8498 C   0  0  0  0  0  0  0  0  0  0  0  0
    8.9546  -14.9820   16.5610 C   0  0  0  0  0  0  0  0  0  0  0  0
    7.6627  -14.7683   16.1153 C   0  0  0  0  0  0  0  0  0  0  0  0
    7.4891  -15.3022   14.8930 N   0  0  0  0  0  0  0  0  0  0  0  0
    8.6794  -15.8565   14.5652 C   0  0  0  0  0  0  0  0  0  0  0  0
    9.5627  -15.6688   15.5597 N   0  0  0  0  0  0  0  0  0  0  0  0
    8.9933  -13.8954   20.1702 C   0  0  0  0  0  0  0  0  0  0  0  0
    9.8926  -13.0704   20.4674 O   0  0  0  0  0  0  0  0  0  0  0  0
    6.9524  -15.4510   23.4649 O   0  0  0  0  0  0  0  0  0  0  0  0
    7.9014  -14.4605   23.5489 C   0  0  0  0  0  0  0  0  0  0  0  0
    9.0549  -14.6775   22.5616 C   0  0  2  0  0  0  0  0  0  0  0  0
    8.5004  -14.7148   21.2257 N   0  0  0  0  0  0  0  0  0  0  0  0
    9.7891  -15.9233   22.8881 C   0  0  0  0  0  0  0  0  0  0  0  0
    9.4858  -17.0171   22.3395 O   0  0  0  0  0  0  0  0  0  0  0  0
   10.8416  -15.8950   23.8228 N   0  0  0  0  0  0  0  0  0  0  0  0
   11.5550  -17.0842   24.2809 C   0  0  1  0  0  0  0  0  0  0  0  0
   13.0277  -16.7847   24.4053 C   0  0  0  0  0  0  0  0  0  0  0  0
   13.5574  -16.2905   23.1109 C   0  0  0  0  0  0  0  0  0  0  0  0
   13.3790  -16.8113   22.0029 O   0  0  0  0  0  0  0  0  0  0  0  0
   11.0561  -17.5077   25.6239 C   0  0  0  0  0  0  0  0  0  0  0  0
   11.4444  -18.6521   26.2668 O   0  0  0  0  0  0  0  0  0  0  0  0
   14.3349  -15.1210   23.1450 O   0  0  0  0  0  0  0  0  0  0  0  0
   10.2248  -16.7485   26.1838 O   0  0  0  0  0  0  0  0  0  0  0  0
  2  1  1  6
  3  2  1  0
  4  3  1  0
  5  4  2  0
  6  7  1  0
  6  5  1  0
  7  8  2  0
  8  4  1  0
  9 10  2  0
  9  2  1  0
 11 12  1  0
 13 12  1  1
 13 14  1  0
 14  9  1  0
 15 13  1  0
 15 17  1  0
 16 15  2  0
 18 17  1  0
 18 22  1  0
 18 19  1  1
 19 20  1  0
 20 21  2  0
 22 25  2  0
 22 23  1  0
 24 20  1  0
M  END
$$$$
