HSD.pdb
     RDKit          3D

 25 25  0  0  1  0  0  0  0  0999 V2000
    6.6790  -13.8108   20.6620 N   0  0  0  0  0  0  0  0  0  0  0  0
    7.9166  -14.5587   20.5426 C   0  0  1  0  0  0  0  0  0  0  0  0
    8.8243  -13.7411   19.6153 C   0  0  0  0  0  0  0  0  0  0  0  0
    8.3704  -13.8775   18.2073 C   0  0  0  0  0  0  0  0  0  0  0  0
    7.5417  -13.0319   17.4921 C   0  0  0  0  0  0  0  0  0  0  0  0
    7.3606  -13.4926   16.2415 N   0  0  0  0  0  0  0  0  0  0  0  0
    8.0798  -14.6366   16.1669 C   0  0  0  0  0  0  0  0  0  0  0  0
    8.6878  -14.8739   17.3411 N   0  0  0  0  0  0  0  0  0  0  0  0
    8.5214  -14.6738   21.8926 C   0  0  0  0  0  0  0  0  0  0  0  0
    8.2731  -13.8280   22.7874 O   0  0  0  0  0  0  0  0  0  0  0  0
    8.0754  -17.1879   24.3222 O   0  0  0  0  0  0  0  0  0  0  0  0
    8.7982  -16.0427   24.5560 C   0  0  0  0  0  0  0  0  0  0  0  0
    9.9607  -15.8791   23.5689 C   0  0  2  0  0  0  0  0  0  0  0  0
    9.4042  -15.7358   22.2411 N   0  0  0  0  0  0  0  0  0  0  0  0
   10.8828  -17.0363   23.6577 C   0  0  0  0  0  0  0  0  0  0  0  0
   10.4817  -18.1536   24.0823 O   0  0  0  0  0  0  0  0  0  0  0  0
   12.2275  -16.8961   23.2648 N   0  0  0  0  0  0  0  0  0  0  0  0
   13.3578  -17.4083   24.0350 C   0  0  1  0  0  0  0  0  0  0  0  0
   14.3846  -16.3207   24.2268 C   0  0  0  0  0  0  0  0  0  0  0  0
   14.8936  -15.8637   22.9107 C   0  0  0  0  0  0  0  0  0  0  0  0
   14.5627  -16.3102   21.8053 O   0  0  0  0  0  0  0  0  0  0  0  0
   12.9076  -17.8603   25.3858 C   0  0  0  0  0  0  0  0  0  0  0  0
   13.4740  -18.8929   26.0836 O   0  0  0  0  0  0  0  0  0  0  0  0
   15.8406  -14.8262   22.9187 O   0  0  0  0  0  0  0  0  0  0  0  0
   11.9430  -17.2376   25.8983 O   0  0  0  0  0  0  0  0  0  0  0  0
  2  1  1  1
  3  2  1  0
  4  3  1  0
  5  4  2  0
  6  7  1  0
  6  5  1  0
  7  8  2  0
  8  4  1  0
  9 10  2  0
  9  2  1  0
 11 12  1  0
 13 12  1  1
 13 14  1  0
 14  9  1  0
 15 13  1  0
 15 17  1  0
 16 15  2  0
 18 17  1  0
 18 22  1  0
 18 19  1  1
 19 20  1  0
 20 21  2  0
 22 25  2  0
 22 23  1  0
 24 20  1  0
M  END
$$$$
