HSD.pdb
     RDKit          3D

 25 25  0  0  1  0  0  0  0  0999 V2000
   10.8493  -15.6762   19.1995 N   0  0  0  0  0  0  0  0  0  0  0  0
   10.7528  -15.2343   20.5780 C   0  0  1  0  0  0  0  0  0  0  0  0
    9.2608  -15.0097   20.8531 C   0  0  0  0  0  0  0  0  0  0  0  0
    8.7079  -14.0219   19.8910 C   0  0  0  0  0  0  0  0  0  0  0  0
    9.0849  -12.7033   19.7105 C   0  0  0  0  0  0  0  0  0  0  0  0
    8.3497  -12.1291   18.7416 N   0  0  0  0  0  0  0  0  0  0  0  0
    7.5032  -13.0917   18.3076 C   0  0  0  0  0  0  0  0  0  0  0  0
    7.7118  -14.2289   18.9917 N   0  0  0  0  0  0  0  0  0  0  0  0
   11.2854  -16.3111   21.4490 C   0  0  0  0  0  0  0  0  0  0  0  0
   10.5228  -17.1726   21.9530 O   0  0  0  0  0  0  0  0  0  0  0  0
   13.2723  -18.9349   20.4495 O   0  0  0  0  0  0  0  0  0  0  0  0
   12.7478  -18.8346   21.7158 C   0  0  0  0  0  0  0  0  0  0  0  0
   13.2246  -17.5708   22.4425 C   0  0  2  0  0  0  0  0  0  0  0  0
   12.6717  -16.4236   21.7558 N   0  0  0  0  0  0  0  0  0  0  0  0
   14.7056  -17.5256   22.4860 C   0  0  0  0  0  0  0  0  0  0  0  0
   15.3802  -17.3579   21.4342 O   0  0  0  0  0  0  0  0  0  0  0  0
   15.3780  -17.6711   23.7144 N   0  0  0  0  0  0  0  0  0  0  0  0
   16.8189  -17.8774   23.8337 C   0  0  1  0  0  0  0  0  0  0  0  0
   17.4774  -16.6222   24.3485 C   0  0  0  0  0  0  0  0  0  0  0  0
   17.9256  -15.7802   23.2125 C   0  0  0  0  0  0  0  0  0  0  0  0
   17.8209  -16.0592   22.0117 O   0  0  0  0  0  0  0  0  0  0  0  0
   17.1107  -18.9797   24.7989 C   0  0  0  0  0  0  0  0  0  0  0  0
   16.1697  -19.5862   25.5866 O   0  0  0  0  0  0  0  0  0  0  0  0
   18.5256  -14.5500   23.5286 O   0  0  0  0  0  0  0  0  0  0  0  0
   18.3062  -19.3610   24.8776 O   0  0  0  0  0  0  0  0  0  0  0  0
  2  1  1  6
  3  2  1  0
  4  3  1  0
  5  4  2  0
  6  7  1  0
  6  5  1  0
  7  8  2  0
  8  4  1  0
  9 10  2  0
  9  2  1  0
 11 12  1  0
 13 12  1  6
 13 14  1  0
 14  9  1  0
 15 13  1  0
 15 17  1  0
 16 15  2  0
 18 17  1  0
 18 22  1  0
 18 19  1  1
 19 20  1  0
 20 21  2  0
 22 25  2  0
 22 23  1  0
 24 20  1  0
M  END
$$$$
