MRA.pdb
     RDKit          3D

 25 24  0  0  1  0  0  0  0  0999 V2000
    8.7086  -11.8010   20.4320 C   0  0  0  0  0  0  0  0  0  0  0  0
    8.0578  -12.7170   19.0006 S   0  0  0  0  0  0  0  0  0  0  0  0
    7.8792  -14.4542   19.3903 C   0  0  0  0  0  0  0  0  0  0  0  0
    7.4927  -14.6545   20.8157 C   0  0  0  0  0  0  0  0  0  0  0  0
    7.3443  -16.0934   21.2370 C   0  0  2  0  0  0  0  0  0  0  0  0
    6.3875  -16.8192   20.4696 N   0  0  0  0  0  0  0  0  0  0  0  0
    7.0585  -16.1210   22.6973 C   0  0  0  0  0  0  0  0  0  0  0  0
    5.9094  -15.8010   23.0788 O   0  0  0  0  0  0  0  0  0  0  0  0
    8.3857  -21.2923   27.2076 N   0  0  0  0  0  0  0  0  0  0  0  0
    8.5413  -21.5130   25.8095 C   0  0  0  0  0  0  0  0  0  0  0  0
    9.5848  -22.1504   25.3677 N   0  0  0  0  0  0  0  0  0  0  0  0
    7.5548  -21.0343   24.9275 N   0  0  0  0  0  0  0  0  0  0  0  0
    6.4396  -20.2376   25.5579 C   0  0  0  0  0  0  0  0  0  0  0  0
    6.6223  -18.8587   25.0590 C   0  0  0  0  0  0  0  0  0  0  0  0
    7.6659  -17.9562   25.5372 C   0  0  0  0  0  0  0  0  0  0  0  0
    7.6482  -16.5445   25.1347 C   0  0  2  0  0  0  0  0  0  0  0  0
    8.0101  -16.4869   23.6691 N   0  0  0  0  0  0  0  0  0  0  0  0
    8.7528  -15.7820   25.7675 C   0  0  0  0  0  0  0  0  0  0  0  0
    9.9638  -15.8560   25.5287 O   0  0  0  0  0  0  0  0  0  0  0  0
    9.6964  -22.3001   24.3468 C   0  0  0  0  0  0  0  0  0  0  0  0
    8.8165  -12.9901   28.3054 C   0  0  1  0  0  0  0  0  0  0  0  0
    9.4802  -14.1224   27.5285 N   0  0  0  0  0  0  0  0  0  0  0  0
    8.4263  -14.8202   26.7970 C   0  0  0  0  0  0  0  0  0  0  0  0
   10.0582  -15.0546   28.5056 O   0  0  0  0  0  0  0  0  0  0  0  0
   11.2044  -14.6910   29.2152 O   0  0  0  0  0  0  0  0  0  0  0  0
  1  2  1  0
  2  3  1  0
  4  3  1  0
  5  4  1  0
  5  6  1  6
  7 17  1  0
  7  5  1  0
  8  7  2  0
  9 10  1  0
 10 12  1  0
 10 11  2  0
 12 13  1  0
 14 15  1  0
 14 13  1  0
 16 15  1  1
 16 17  1  0
 18 22  1  0
 18 16  1  0
 19 18  2  0
 21 20  1  6
 21 23  1  0
 21 22  1  0
 23 24  1  0
 25 23  2  0
M  END
$$$$
