MRA.pdb
     RDKit          3D

 25 24  0  0  1  0  0  0  0  0999 V2000
    8.9457  -12.0595   20.1261 C   0  0  0  0  0  0  0  0  0  0  0  0
    8.8152  -12.9359   18.5367 S   0  0  0  0  0  0  0  0  0  0  0  0
    8.2551  -14.6170   18.7863 C   0  0  0  0  0  0  0  0  0  0  0  0
    7.7982  -14.8350   20.1880 C   0  0  0  0  0  0  0  0  0  0  0  0
    7.4376  -16.2587   20.5240 C   0  0  2  0  0  0  0  0  0  0  0  0
    6.4855  -16.8340   19.6330 N   0  0  0  0  0  0  0  0  0  0  0  0
    7.0018  -16.3026   21.9463 C   0  0  0  0  0  0  0  0  0  0  0  0
    5.7735  -16.2621   22.1876 O   0  0  0  0  0  0  0  0  0  0  0  0
   10.7618  -19.0300   29.3257 N   0  0  0  0  0  0  0  0  0  0  0  0
    9.4814  -19.6460   29.2312 C   0  0  0  0  0  0  0  0  0  0  0  0
    9.1998  -20.6702   29.9808 N   0  0  0  0  0  0  0  0  0  0  0  0
    8.5393  -19.1294   28.3226 N   0  0  0  0  0  0  0  0  0  0  0  0
    8.9723  -17.9089   27.5488 C   0  0  0  0  0  0  0  0  0  0  0  0
    7.8707  -17.6440   26.6001 C   0  0  0  0  0  0  0  0  0  0  0  0
    8.0622  -17.4831   25.1614 C   0  0  0  0  0  0  0  0  0  0  0  0
    7.3974  -16.3797   24.4573 C   0  0  2  0  0  0  0  0  0  0  0  0
    7.8959  -16.3867   23.0313 N   0  0  0  0  0  0  0  0  0  0  0  0
    7.8595  -15.0590   24.9517 C   0  0  0  0  0  0  0  0  0  0  0  0
    9.0049  -14.5940   24.9248 O   0  0  0  0  0  0  0  0  0  0  0  0
    8.2716  -21.1261   29.8934 C   0  0  0  0  0  0  0  0  0  0  0  0
    6.0418  -12.1372   26.5158 C   0  0  1  0  0  0  0  0  0  0  0  0
    7.3081  -12.9077   26.1567 N   0  0  0  0  0  0  0  0  0  0  0  0
    6.8894  -14.1671   25.5474 C   0  0  0  0  0  0  0  0  0  0  0  0
    8.0141  -13.2131   27.4081 O   0  0  0  0  0  0  0  0  0  0  0  0
    8.7159  -12.2045   28.0710 O   0  0  0  0  0  0  0  0  0  0  0  0
  1  2  1  0
  2  3  1  0
  4  3  1  0
  5  4  1  0
  5  6  1  6
  7 17  1  0
  7  5  1  0
  8  7  2  0
  9 10  1  0
 10 12  1  0
 10 11  2  0
 12 13  1  0
 14 15  1  0
 14 13  1  0
 16 15  1  1
 16 17  1  0
 18 22  1  0
 18 16  1  0
 19 18  2  0
 21 20  1  6
 21 23  1  0
 21 22  1  0
 23 24  1  0
 25 23  2  0
M  END
$$$$
