MRA.pdb
     RDKit          3D

 25 24  0  0  1  0  0  0  0  0999 V2000
    6.1618  -10.4594   27.5791 C   0  0  0  0  0  0  0  0  0  0  0  0
    6.6603  -11.7396   26.3859 S   0  0  0  0  0  0  0  0  0  0  0  0
    5.6218  -13.1883   26.5428 C   0  0  0  0  0  0  0  0  0  0  0  0
    6.0500  -14.2677   25.6085 C   0  0  0  0  0  0  0  0  0  0  0  0
    7.3676  -14.9149   25.9474 C   0  0  2  0  0  0  0  0  0  0  0  0
    8.4151  -13.9827   26.2021 N   0  0  0  0  0  0  0  0  0  0  0  0
    7.7008  -15.8809   24.8654 C   0  0  0  0  0  0  0  0  0  0  0  0
    6.9251  -16.8461   24.6781 O   0  0  0  0  0  0  0  0  0  0  0  0
    8.8080  -11.9903   18.2915 N   0  0  0  0  0  0  0  0  0  0  0  0
    8.3142  -13.3032   18.5364 C   0  0  0  0  0  0  0  0  0  0  0  0
    8.5029  -14.2400   17.6548 N   0  0  0  0  0  0  0  0  0  0  0  0
    7.6277  -13.5628   19.7371 N   0  0  0  0  0  0  0  0  0  0  0  0
    7.2187  -14.9971   19.9639 C   0  0  0  0  0  0  0  0  0  0  0  0
    7.6615  -15.3106   21.3384 C   0  0  0  0  0  0  0  0  0  0  0  0
    8.9337  -15.9552   21.6520 C   0  0  0  0  0  0  0  0  0  0  0  0
    9.0748  -16.7205   22.8969 C   0  0  2  0  0  0  0  0  0  0  0  0
    8.8393  -15.7664   24.0442 N   0  0  0  0  0  0  0  0  0  0  0  0
   10.4781  -17.1485   23.1191 C   0  0  0  0  0  0  0  0  0  0  0  0
   11.4442  -16.4504   23.4481 O   0  0  0  0  0  0  0  0  0  0  0  0
    8.1240  -15.1899   17.8311 C   0  0  0  0  0  0  0  0  0  0  0  0
   12.1708  -20.5261   22.9352 C   0  0  1  0  0  0  0  0  0  0  0  0
   12.1890  -19.0074   23.0737 N   0  0  0  0  0  0  0  0  0  0  0  0
   10.8100  -18.5450   22.9423 C   0  0  0  0  0  0  0  0  0  0  0  0
   12.9658  -18.4665   21.9504 O   0  0  0  0  0  0  0  0  0  0  0  0
   14.3536  -18.3578   22.0571 O   0  0  0  0  0  0  0  0  0  0  0  0
  1  2  1  0
  2  3  1  0
  4  3  1  0
  5  4  1  0
  5  6  1  6
  7 17  1  0
  7  5  1  0
  8  7  2  0
  9 10  1  0
 10 12  1  0
 10 11  2  0
 12 13  1  0
 14 15  1  0
 14 13  1  0
 16 15  1  6
 16 17  1  0
 18 22  1  0
 18 16  1  0
 19 18  2  0
 21 20  1  1
 21 23  1  0
 21 22  1  0
 23 24  1  0
 25 23  2  0
M  END
$$$$
