MRA.pdb
     RDKit          3D

 25 24  0  0  1  0  0  0  0  0999 V2000
    6.8352  -10.9749   26.4543 C   0  0  0  0  0  0  0  0  0  0  0  0
    6.7292  -12.2740   27.7242 S   0  0  0  0  0  0  0  0  0  0  0  0
    6.0692  -13.7849   27.0288 C   0  0  0  0  0  0  0  0  0  0  0  0
    6.9953  -14.3670   26.0165 C   0  0  0  0  0  0  0  0  0  0  0  0
    6.5020  -15.6280   25.3558 C   0  0  2  0  0  0  0  0  0  0  0  0
    6.2300  -16.6858   26.2714 N   0  0  0  0  0  0  0  0  0  0  0  0
    7.4794  -16.0106   24.3008 C   0  0  0  0  0  0  0  0  0  0  0  0
    7.9521  -17.1701   24.3282 O   0  0  0  0  0  0  0  0  0  0  0  0
    9.2785  -14.0012   16.4411 N   0  0  0  0  0  0  0  0  0  0  0  0
    8.2537  -14.0878   17.4259 C   0  0  0  0  0  0  0  0  0  0  0  0
    7.2926  -14.9519   17.2846 N   0  0  0  0  0  0  0  0  0  0  0  0
    8.3025  -13.2310   18.5411 N   0  0  0  0  0  0  0  0  0  0  0  0
    7.1256  -13.3081   19.4818 C   0  0  0  0  0  0  0  0  0  0  0  0
    7.4142  -14.4568   20.3656 C   0  0  0  0  0  0  0  0  0  0  0  0
    8.6840  -14.6438   21.0619 C   0  0  0  0  0  0  0  0  0  0  0  0
    8.7803  -15.6249   22.1498 C   0  0  2  0  0  0  0  0  0  0  0  0
    7.8992  -15.1395   23.2767 N   0  0  0  0  0  0  0  0  0  0  0  0
   10.1275  -15.6205   22.7719 C   0  0  0  0  0  0  0  0  0  0  0  0
   10.6384  -14.7416   23.4758 O   0  0  0  0  0  0  0  0  0  0  0  0
    6.6416  -15.1241   18.0743 C   0  0  0  0  0  0  0  0  0  0  0  0
   12.7727  -18.2641   23.1434 C   0  0  1  0  0  0  0  0  0  0  0  0
   12.3289  -16.8049   23.1401 N   0  0  0  0  0  0  0  0  0  0  0  0
   10.9895  -16.7621   22.5594 C   0  0  0  0  0  0  0  0  0  0  0  0
   13.2386  -16.0641   22.2563 O   0  0  0  0  0  0  0  0  0  0  0  0
   14.5414  -15.7898   22.6767 O   0  0  0  0  0  0  0  0  0  0  0  0
  1  2  1  0
  2  3  1  0
  4  3  1  0
  5  4  1  0
  5  6  1  1
  7 17  1  0
  7  5  1  0
  8  7  2  0
  9 10  1  0
 10 12  1  0
 10 11  2  0
 12 13  1  0
 14 15  1  0
 14 13  1  0
 16 15  1  6
 16 17  1  0
 18 22  1  0
 18 16  1  0
 19 18  2  0
 21 20  1  1
 21 23  1  0
 21 22  1  0
 23 24  1  0
 25 23  2  0
M  END
$$$$
