MRA.pdb
     RDKit          3D

 25 24  0  0  1  0  0  0  0  0999 V2000
    5.2193  -11.7650   26.6460 C   0  0  0  0  0  0  0  0  0  0  0  0
    6.7954  -12.2435   27.4196 S   0  0  0  0  0  0  0  0  0  0  0  0
    7.1028  -13.9922   27.1979 C   0  0  0  0  0  0  0  0  0  0  0  0
    6.1160  -14.6032   26.2630 C   0  0  0  0  0  0  0  0  0  0  0  0
    6.2480  -16.0935   26.0856 C   0  0  2  0  0  0  0  0  0  0  0  0
    6.4903  -16.7960   27.3017 N   0  0  0  0  0  0  0  0  0  0  0  0
    7.2887  -16.3463   25.0522 C   0  0  0  0  0  0  0  0  0  0  0  0
    8.1574  -17.2161   25.2915 O   0  0  0  0  0  0  0  0  0  0  0  0
    7.6948  -12.2646   18.6127 N   0  0  0  0  0  0  0  0  0  0  0  0
    7.7440  -13.3656   17.7112 C   0  0  0  0  0  0  0  0  0  0  0  0
    7.3007  -13.2273   16.4968 N   0  0  0  0  0  0  0  0  0  0  0  0
    8.2765  -14.5901   18.1554 N   0  0  0  0  0  0  0  0  0  0  0  0
    9.1460  -14.5213   19.3863 C   0  0  0  0  0  0  0  0  0  0  0  0
    8.6494  -15.5978   20.2686 C   0  0  0  0  0  0  0  0  0  0  0  0
    7.9233  -15.3552   21.5121 C   0  0  0  0  0  0  0  0  0  0  0  0
    8.2767  -16.1101   22.7207 C   0  0  2  0  0  0  0  0  0  0  0  0
    7.3474  -15.6603   23.8234 N   0  0  0  0  0  0  0  0  0  0  0  0
    9.6082  -15.7141   23.2424 C   0  0  0  0  0  0  0  0  0  0  0  0
    9.9692  -14.6011   23.6422 O   0  0  0  0  0  0  0  0  0  0  0  0
    7.3973  -14.0133   15.8261 C   0  0  0  0  0  0  0  0  0  0  0  0
   12.2728  -17.1587   25.0281 C   0  0  1  0  0  0  0  0  0  0  0  0
   11.9950  -16.3661   23.7550 N   0  0  0  0  0  0  0  0  0  0  0  0
   10.6479  -16.7168   23.3131 C   0  0  0  0  0  0  0  0  0  0  0  0
   12.9479  -16.8170   22.7321 O   0  0  0  0  0  0  0  0  0  0  0  0
   12.4792  -17.4587   21.5842 O   0  0  0  0  0  0  0  0  0  0  0  0
  1  2  1  0
  2  3  1  0
  4  3  1  0
  5  4  1  0
  5  6  1  1
  7 17  1  0
  7  5  1  0
  8  7  2  0
  9 10  1  0
 10 12  1  0
 10 11  2  0
 12 13  1  0
 14 15  1  0
 14 13  1  0
 16 15  1  6
 16 17  1  0
 18 22  1  0
 18 16  1  0
 19 18  2  0
 21 20  1  1
 21 23  1  0
 21 22  1  0
 23 24  1  0
 25 23  2  0
M  END
$$$$
