MRA.pdb
     RDKit          3D

 25 24  0  0  1  0  0  0  0  0999 V2000
   11.3293  -13.5397   30.3810 C   0  0  0  0  0  0  0  0  0  0  0  0
   11.6189  -14.2621   28.7361 S   0  0  0  0  0  0  0  0  0  0  0  0
   10.3353  -15.4404   28.3286 C   0  0  0  0  0  0  0  0  0  0  0  0
   10.5472  -16.0285   26.9757 C   0  0  0  0  0  0  0  0  0  0  0  0
    9.4921  -17.0109   26.5382 C   0  0  2  0  0  0  0  0  0  0  0  0
    9.3732  -18.1434   27.3952 N   0  0  0  0  0  0  0  0  0  0  0  0
    9.7623  -17.3806   25.1222 C   0  0  0  0  0  0  0  0  0  0  0  0
   10.3519  -18.4625   24.8980 O   0  0  0  0  0  0  0  0  0  0  0  0
    8.1221  -13.7142   17.4186 N   0  0  0  0  0  0  0  0  0  0  0  0
    7.9946  -13.3466   18.7884 C   0  0  0  0  0  0  0  0  0  0  0  0
    7.9009  -12.0917   19.1151 N   0  0  0  0  0  0  0  0  0  0  0  0
    7.9712  -14.3564   19.7682 N   0  0  0  0  0  0  0  0  0  0  0  0
    8.1597  -15.7659   19.2647 C   0  0  0  0  0  0  0  0  0  0  0  0
    9.0377  -16.4157   20.2599 C   0  0  0  0  0  0  0  0  0  0  0  0
    8.9352  -16.1913   21.6992 C   0  0  0  0  0  0  0  0  0  0  0  0
    9.7987  -16.9445   22.6169 C   0  0  2  0  0  0  0  0  0  0  0  0
    9.3908  -16.5795   24.0249 N   0  0  0  0  0  0  0  0  0  0  0  0
   11.2038  -16.4711   22.5575 C   0  0  0  0  0  0  0  0  0  0  0  0
   11.6761  -15.4276   23.0234 O   0  0  0  0  0  0  0  0  0  0  0  0
    7.9013  -11.8245   20.1179 C   0  0  0  0  0  0  0  0  0  0  0  0
   14.3587  -18.0902   21.2454 C   0  0  1  0  0  0  0  0  0  0  0  0
   13.6001  -16.9483   21.9138 N   0  0  0  0  0  0  0  0  0  0  0  0
   12.1819  -17.2952   21.8825 C   0  0  0  0  0  0  0  0  0  0  0  0
   13.7982  -15.7433   21.0975 O   0  0  0  0  0  0  0  0  0  0  0  0
   14.6971  -14.7617   21.5190 O   0  0  0  0  0  0  0  0  0  0  0  0
  1  2  1  0
  2  3  1  0
  4  3  1  0
  5  4  1  0
  5  6  1  1
  7 17  1  0
  7  5  1  0
  8  7  2  0
  9 10  1  0
 10 12  1  0
 10 11  2  0
 12 13  1  0
 14 15  1  0
 14 13  1  0
 16 15  1  6
 16 17  1  0
 18 22  1  0
 18 16  1  0
 19 18  2  0
 21 20  1  1
 21 23  1  0
 21 22  1  0
 23 24  1  0
 25 23  2  0
M  END
$$$$
