MRA.pdb
     RDKit          3D

 25 24  0  0  1  0  0  0  0  0999 V2000
    5.7468  -12.1500   27.1279 C   0  0  0  0  0  0  0  0  0  0  0  0
    7.2357  -12.8940   27.8632 S   0  0  0  0  0  0  0  0  0  0  0  0
    7.4788  -14.5578   27.2511 C   0  0  0  0  0  0  0  0  0  0  0  0
    6.3703  -14.9706   26.3445 C   0  0  0  0  0  0  0  0  0  0  0  0
    6.4318  -16.4016   25.8773 C   0  0  2  0  0  0  0  0  0  0  0  0
    6.7554  -17.3283   26.9106 N   0  0  0  0  0  0  0  0  0  0  0  0
    7.3669  -16.4714   24.7216 C   0  0  0  0  0  0  0  0  0  0  0  0
    8.1387  -17.4549   24.6469 O   0  0  0  0  0  0  0  0  0  0  0  0
    6.6381  -12.6469   17.4418 N   0  0  0  0  0  0  0  0  0  0  0  0
    7.5075  -13.7151   17.0804 C   0  0  0  0  0  0  0  0  0  0  0  0
    7.3774  -14.2909   15.9221 N   0  0  0  0  0  0  0  0  0  0  0  0
    8.4981  -14.1285   17.9904 N   0  0  0  0  0  0  0  0  0  0  0  0
    8.5179  -13.4056   19.3143 C   0  0  0  0  0  0  0  0  0  0  0  0
    8.7643  -14.4570   20.3231 C   0  0  0  0  0  0  0  0  0  0  0  0
    8.0280  -14.5619   21.5797 C   0  0  0  0  0  0  0  0  0  0  0  0
    8.2911  -15.6865   22.4860 C   0  0  2  0  0  0  0  0  0  0  0  0
    7.4289  -15.4922   23.7111 N   0  0  0  0  0  0  0  0  0  0  0  0
    9.6634  -15.6264   23.0473 C   0  0  0  0  0  0  0  0  0  0  0  0
   10.1634  -14.7344   23.7424 O   0  0  0  0  0  0  0  0  0  0  0  0
    8.0250  -15.0578   15.6583 C   0  0  0  0  0  0  0  0  0  0  0  0
   12.4088  -18.1627   23.3367 C   0  0  1  0  0  0  0  0  0  0  0  0
   11.9284  -16.7155   23.3087 N   0  0  0  0  0  0  0  0  0  0  0  0
   10.5680  -16.7220   22.7774 C   0  0  0  0  0  0  0  0  0  0  0  0
   12.7862  -15.9789   22.3710 O   0  0  0  0  0  0  0  0  0  0  0  0
   14.0570  -15.5647   22.7744 O   0  0  0  0  0  0  0  0  0  0  0  0
  1  2  1  0
  2  3  1  0
  4  3  1  0
  5  4  1  0
  5  6  1  1
  7 17  1  0
  7  5  1  0
  8  7  2  0
  9 10  1  0
 10 12  1  0
 10 11  2  0
 12 13  1  0
 14 15  1  0
 14 13  1  0
 16 15  1  6
 16 17  1  0
 18 22  1  0
 18 16  1  0
 19 18  2  0
 21 20  1  1
 21 23  1  0
 21 22  1  0
 23 24  1  0
 25 23  2  0
M  END
$$$$
