MRA.pdb
     RDKit          3D

 25 24  0  0  1  0  0  0  0  0999 V2000
   10.2796  -16.4484   28.6597 C   0  0  0  0  0  0  0  0  0  0  0  0
    8.9178  -17.3897   29.4155 S   0  0  0  0  0  0  0  0  0  0  0  0
    7.7542  -17.9294   28.1678 C   0  0  0  0  0  0  0  0  0  0  0  0
    8.3131  -17.7648   26.7960 C   0  0  0  0  0  0  0  0  0  0  0  0
    7.3875  -18.1745   25.6801 C   0  0  2  0  0  0  0  0  0  0  0  0
    6.9257  -19.5188   25.7832 N   0  0  0  0  0  0  0  0  0  0  0  0
    8.0681  -17.8923   24.3870 C   0  0  0  0  0  0  0  0  0  0  0  0
    8.5461  -18.8586   23.7497 O   0  0  0  0  0  0  0  0  0  0  0  0
    8.2460  -14.0730   16.8357 N   0  0  0  0  0  0  0  0  0  0  0  0
    7.9724  -13.4544   18.0888 C   0  0  0  0  0  0  0  0  0  0  0  0
    8.6569  -12.4129   18.4588 N   0  0  0  0  0  0  0  0  0  0  0  0
    6.9585  -13.9860   18.9071 N   0  0  0  0  0  0  0  0  0  0  0  0
    7.1599  -13.8233   20.3933 C   0  0  0  0  0  0  0  0  0  0  0  0
    8.1566  -14.8504   20.7612 C   0  0  0  0  0  0  0  0  0  0  0  0
    8.6921  -15.0126   22.1100 C   0  0  0  0  0  0  0  0  0  0  0  0
    9.0277  -16.3539   22.6037 C   0  0  2  0  0  0  0  0  0  0  0  0
    8.2022  -16.5993   23.8448 N   0  0  0  0  0  0  0  0  0  0  0  0
   10.4157  -16.4127   23.1253 C   0  0  0  0  0  0  0  0  0  0  0  0
   10.8806  -15.8420   24.1188 O   0  0  0  0  0  0  0  0  0  0  0  0
    8.4366  -11.9527   19.3625 C   0  0  0  0  0  0  0  0  0  0  0  0
   13.3759  -18.5557   22.2342 C   0  0  1  0  0  0  0  0  0  0  0  0
   12.7592  -17.3302   22.9005 N   0  0  0  0  0  0  0  0  0  0  0  0
   11.3838  -17.2240   22.4210 C   0  0  0  0  0  0  0  0  0  0  0  0
   13.5014  -16.1501   22.4375 O   0  0  0  0  0  0  0  0  0  0  0  0
   14.7645  -15.8757   22.9653 O   0  0  0  0  0  0  0  0  0  0  0  0
  1  2  1  0
  2  3  1  0
  4  3  1  0
  5  4  1  0
  5  6  1  1
  7 17  1  0
  7  5  1  0
  8  7  2  0
  9 10  1  0
 10 12  1  0
 10 11  2  0
 12 13  1  0
 14 15  1  0
 14 13  1  0
 16 15  1  1
 16 17  1  0
 18 22  1  0
 18 16  1  0
 19 18  2  0
 21 20  1  1
 21 23  1  0
 21 22  1  0
 23 24  1  0
 25 23  2  0
M  END
$$$$
