MRA.pdb
     RDKit          3D

 25 24  0  0  1  0  0  0  0  0999 V2000
    6.8109  -11.9153   28.9776 C   0  0  0  0  0  0  0  0  0  0  0  0
    6.7308  -11.8063   27.1629 S   0  0  0  0  0  0  0  0  0  0  0  0
    5.4739  -12.9050   26.5189 C   0  0  0  0  0  0  0  0  0  0  0  0
    6.0723  -14.1601   25.9824 C   0  0  0  0  0  0  0  0  0  0  0  0
    7.2837  -13.9629   25.1086 C   0  0  2  0  0  0  0  0  0  0  0  0
    7.0533  -13.1031   23.9956 N   0  0  0  0  0  0  0  0  0  0  0  0
    7.7907  -15.3043   24.7106 C   0  0  0  0  0  0  0  0  0  0  0  0
    7.9198  -16.1738   25.6027 O   0  0  0  0  0  0  0  0  0  0  0  0
    7.3592  -13.5242   19.5589 N   0  0  0  0  0  0  0  0  0  0  0  0
    8.5992  -13.7239   18.8880 C   0  0  0  0  0  0  0  0  0  0  0  0
    9.2818  -12.6986   18.4721 N   0  0  0  0  0  0  0  0  0  0  0  0
    9.0651  -15.0366   18.6881 N   0  0  0  0  0  0  0  0  0  0  0  0
    8.2132  -16.1337   19.2769 C   0  0  0  0  0  0  0  0  0  0  0  0
    8.4093  -16.0307   20.7380 C   0  0  0  0  0  0  0  0  0  0  0  0
    8.6246  -17.1826   21.6092 C   0  0  0  0  0  0  0  0  0  0  0  0
    8.7453  -16.9864   23.0591 C   0  0  2  0  0  0  0  0  0  0  0  0
    8.1318  -15.6455   23.3873 N   0  0  0  0  0  0  0  0  0  0  0  0
   10.1592  -16.8007   23.4696 C   0  0  0  0  0  0  0  0  0  0  0  0
   10.8329  -15.7645   23.4333 O   0  0  0  0  0  0  0  0  0  0  0  0
   10.1824  -12.8514   17.9796 C   0  0  0  0  0  0  0  0  0  0  0  0
   12.5606  -18.9305   25.3933 C   0  0  1  0  0  0  0  0  0  0  0  0
   12.2820  -17.8180   24.3879 N   0  0  0  0  0  0  0  0  0  0  0  0
   10.8844  -17.9419   23.9827 C   0  0  0  0  0  0  0  0  0  0  0  0
   13.1267  -18.0592   23.2105 O   0  0  0  0  0  0  0  0  0  0  0  0
   14.5055  -17.8565   23.2945 O   0  0  0  0  0  0  0  0  0  0  0  0
  1  2  1  0
  2  3  1  0
  4  3  1  0
  5  4  1  0
  5  6  1  6
  7 17  1  0
  7  5  1  0
  8  7  2  0
  9 10  1  0
 10 12  1  0
 10 11  2  0
 12 13  1  0
 14 15  1  0
 14 13  1  0
 16 15  1  6
 16 17  1  0
 18 22  1  0
 18 16  1  0
 19 18  2  0
 21 20  1  1
 21 23  1  0
 21 22  1  0
 23 24  1  0
 25 23  2  0
M  END
$$$$
