MRA.pdb
     RDKit          3D

 25 24  0  0  1  0  0  0  0  0999 V2000
    7.1864  -10.9204   26.1112 C   0  0  0  0  0  0  0  0  0  0  0  0
    7.0004  -11.9877   27.5733 S   0  0  0  0  0  0  0  0  0  0  0  0
    6.3067  -13.5721   27.1149 C   0  0  0  0  0  0  0  0  0  0  0  0
    7.1630  -14.2716   26.1156 C   0  0  0  0  0  0  0  0  0  0  0  0
    6.5750  -15.5391   25.5521 C   0  0  2  0  0  0  0  0  0  0  0  0
    6.3002  -16.5309   26.5381 N   0  0  0  0  0  0  0  0  0  0  0  0
    7.4759  -16.0276   24.4730 C   0  0  0  0  0  0  0  0  0  0  0  0
    7.9241  -17.1937   24.5626 O   0  0  0  0  0  0  0  0  0  0  0  0
    8.9143  -14.7419   16.1684 N   0  0  0  0  0  0  0  0  0  0  0  0
    8.4493  -13.9429   17.2514 C   0  0  0  0  0  0  0  0  0  0  0  0
    8.8923  -12.7291   17.3961 N   0  0  0  0  0  0  0  0  0  0  0  0
    7.5119  -14.4863   18.1492 N   0  0  0  0  0  0  0  0  0  0  0  0
    7.2430  -13.6734   19.3913 C   0  0  0  0  0  0  0  0  0  0  0  0
    7.4210  -14.6169   20.5146 C   0  0  0  0  0  0  0  0  0  0  0  0
    8.7088  -14.8897   21.1467 C   0  0  0  0  0  0  0  0  0  0  0  0
    8.7764  -15.7957   22.2998 C   0  0  2  0  0  0  0  0  0  0  0  0
    7.8496  -15.2493   23.3601 N   0  0  0  0  0  0  0  0  0  0  0  0
   10.1000  -15.7321   22.9677 C   0  0  0  0  0  0  0  0  0  0  0  0
   10.5753  -14.8018   23.6292 O   0  0  0  0  0  0  0  0  0  0  0  0
    8.5272  -12.1420   18.1700 C   0  0  0  0  0  0  0  0  0  0  0  0
   12.8635  -18.2669   23.4051 C   0  0  1  0  0  0  0  0  0  0  0  0
   12.3152  -16.8447   23.4574 N   0  0  0  0  0  0  0  0  0  0  0  0
   10.9817  -16.8737   22.8626 C   0  0  0  0  0  0  0  0  0  0  0  0
   13.1770  -16.0034   22.6164 O   0  0  0  0  0  0  0  0  0  0  0  0
   12.7022  -15.5340   21.3902 O   0  0  0  0  0  0  0  0  0  0  0  0
  1  2  1  0
  2  3  1  0
  4  3  1  0
  5  4  1  0
  5  6  1  1
  7 17  1  0
  7  5  1  0
  8  7  2  0
  9 10  1  0
 10 12  1  0
 10 11  2  0
 12 13  1  0
 14 15  1  0
 14 13  1  0
 16 15  1  6
 16 17  1  0
 18 22  1  0
 18 16  1  0
 19 18  2  0
 21 20  1  1
 21 23  1  0
 21 22  1  0
 23 24  1  0
 25 23  2  0
M  END
$$$$
