MRA.pdb
     RDKit          3D

 25 24  0  0  1  0  0  0  0  0999 V2000
    5.9751  -11.4876   27.8171 C   0  0  0  0  0  0  0  0  0  0  0  0
    6.6452  -12.8789   26.8545 S   0  0  0  0  0  0  0  0  0  0  0  0
    7.6831  -13.9148   27.8799 C   0  0  0  0  0  0  0  0  0  0  0  0
    8.2387  -15.0617   27.1072 C   0  0  0  0  0  0  0  0  0  0  0  0
    7.2095  -15.9300   26.4315 C   0  0  2  0  0  0  0  0  0  0  0  0
    6.8633  -17.0940   27.1774 N   0  0  0  0  0  0  0  0  0  0  0  0
    7.6959  -16.2428   25.0602 C   0  0  0  0  0  0  0  0  0  0  0  0
    8.2728  -17.3390   24.8756 O   0  0  0  0  0  0  0  0  0  0  0  0
    9.0706  -12.5124   17.8276 N   0  0  0  0  0  0  0  0  0  0  0  0
    8.6963  -13.7541   17.2396 C   0  0  0  0  0  0  0  0  0  0  0  0
    9.2578  -14.1405   16.1325 N   0  0  0  0  0  0  0  0  0  0  0  0
    7.7200  -14.5445   17.8738 N   0  0  0  0  0  0  0  0  0  0  0  0
    7.1896  -14.0112   19.1815 C   0  0  0  0  0  0  0  0  0  0  0  0
    7.7727  -14.8871   20.2190 C   0  0  0  0  0  0  0  0  0  0  0  0
    7.3816  -14.8478   21.6253 C   0  0  0  0  0  0  0  0  0  0  0  0
    8.0117  -15.7657   22.5822 C   0  0  2  0  0  0  0  0  0  0  0  0
    7.5419  -15.3730   23.9632 N   0  0  0  0  0  0  0  0  0  0  0  0
    9.4766  -15.5451   22.6675 C   0  0  0  0  0  0  0  0  0  0  0  0
   10.0733  -14.5504   23.0960 O   0  0  0  0  0  0  0  0  0  0  0  0
    9.0525  -15.0872   15.7601 C   0  0  0  0  0  0  0  0  0  0  0  0
   12.4454  -17.7868   22.2584 C   0  0  1  0  0  0  0  0  0  0  0  0
   11.8083  -16.4021   22.2057 N   0  0  0  0  0  0  0  0  0  0  0  0
   10.3604  -16.5925   22.2054 C   0  0  0  0  0  0  0  0  0  0  0  0
   12.1923  -15.7828   20.9302 O   0  0  0  0  0  0  0  0  0  0  0  0
   13.5083  -15.3597   20.7346 O   0  0  0  0  0  0  0  0  0  0  0  0
  1  2  1  0
  2  3  1  0
  4  3  1  0
  5  4  1  0
  5  6  1  1
  7 17  1  0
  7  5  1  0
  8  7  2  0
  9 10  1  0
 10 12  1  0
 10 11  2  0
 12 13  1  0
 14 15  1  0
 14 13  1  0
 16 15  1  6
 16 17  1  0
 18 22  1  0
 18 16  1  0
 19 18  2  0
 21 20  1  1
 21 23  1  0
 21 22  1  0
 23 24  1  0
 25 23  2  0
M  END
$$$$
