MRA.pdb
     RDKit          3D

 25 24  0  0  1  0  0  0  0  0999 V2000
    7.8515  -12.7704   21.6370 C   0  0  0  0  0  0  0  0  0  0  0  0
    7.3066  -12.9722   19.9125 S   0  0  0  0  0  0  0  0  0  0  0  0
    6.4795  -14.5434   19.6910 C   0  0  0  0  0  0  0  0  0  0  0  0
    7.4589  -15.6541   19.5228 C   0  0  0  0  0  0  0  0  0  0  0  0
    8.5525  -15.6984   20.5580 C   0  0  2  0  0  0  0  0  0  0  0  0
    9.3864  -14.5426   20.5603 N   0  0  0  0  0  0  0  0  0  0  0  0
    9.3145  -16.9633   20.3727 C   0  0  0  0  0  0  0  0  0  0  0  0
    8.6793  -18.0424   20.3959 O   0  0  0  0  0  0  0  0  0  0  0  0
   12.1697  -21.1415   14.5568 N   0  0  0  0  0  0  0  0  0  0  0  0
   11.6985  -19.7985   14.6029 C   0  0  0  0  0  0  0  0  0  0  0  0
   10.8939  -19.3636   13.6790 N   0  0  0  0  0  0  0  0  0  0  0  0
   12.1153  -18.9632   15.6558 N   0  0  0  0  0  0  0  0  0  0  0  0
   13.0198  -19.5997   16.6818 C   0  0  0  0  0  0  0  0  0  0  0  0
   12.2741  -19.5189   17.9550 C   0  0  0  0  0  0  0  0  0  0  0  0
   12.1442  -18.2951   18.7410 C   0  0  0  0  0  0  0  0  0  0  0  0
   11.4331  -18.3265   20.0250 C   0  0  2  0  0  0  0  0  0  0  0  0
   10.7080  -17.0096   20.1734 N   0  0  0  0  0  0  0  0  0  0  0  0
   12.3746  -18.3049   21.1718 C   0  0  0  0  0  0  0  0  0  0  0  0
   13.0367  -17.3504   21.5955 O   0  0  0  0  0  0  0  0  0  0  0  0
   10.5533  -18.3841   13.7192 C   0  0  0  0  0  0  0  0  0  0  0  0
   13.1434  -20.7560   23.9060 C   0  0  1  0  0  0  0  0  0  0  0  0
   13.5322  -19.5729   23.0256 N   0  0  0  0  0  0  0  0  0  0  0  0
   12.5789  -19.5254   21.9202 C   0  0  0  0  0  0  0  0  0  0  0  0
   14.8654  -19.8471   22.4734 O   0  0  0  0  0  0  0  0  0  0  0  0
   15.9945  -19.6883   23.2791 O   0  0  0  0  0  0  0  0  0  0  0  0
  1  2  1  0
  2  3  1  0
  4  3  1  0
  5  4  1  0
  5  6  1  6
  7 17  1  0
  7  5  1  0
  8  7  2  0
  9 10  1  0
 10 12  1  0
 10 11  2  0
 12 13  1  0
 14 15  1  0
 14 13  1  0
 16 15  1  6
 16 17  1  0
 18 22  1  0
 18 16  1  0
 19 18  2  0
 21 20  1  1
 21 23  1  0
 21 22  1  0
 23 24  1  0
 25 23  2  0
M  END
$$$$
