HTP.pdb
     RDKit          3D

 25 26  0  0  1  0  0  0  0  0999 V2000
   28.6932  -24.3913  -17.7425 N   0  0  0  0  0  0  0  0  0  0  0  0
   27.5752  -24.2974  -16.8264 C   0  0  1  0  0  0  0  0  0  0  0  0
   27.5372  -25.5467  -15.9732 C   0  0  0  0  0  0  0  0  0  0  0  0
   26.9983  -26.6738  -16.7450 C   0  0  0  0  0  0  0  0  0  0  0  0
   27.5462  -27.9048  -17.0409 C   0  0  0  0  0  0  0  0  0  0  0  0
   26.6719  -28.5942  -17.7751 N   0  0  0  0  0  0  0  0  0  0  0  0
   25.5878  -27.8334  -17.9510 C   0  0  0  0  0  0  0  0  0  0  0  0
   25.7758  -26.6637  -17.3288 N   0  0  0  0  0  0  0  0  0  0  0  0
   27.7086  -23.0898  -15.9445 C   0  0  0  0  0  0  0  0  0  0  0  0
   28.8336  -22.8207  -15.4949 O   0  0  0  0  0  0  0  0  0  0  0  0
   27.8137  -19.9376  -16.2519 C   0  0  0  0  0  0  0  0  0  0  0  0
   26.5323  -19.9221  -15.3590 C   0  0  1  0  0  0  0  0  0  0  0  0
   25.4850  -19.8220  -16.2626 O   0  0  0  0  0  0  0  0  0  0  0  0
   26.5467  -21.2337  -14.6588 C   0  0  2  0  0  0  0  0  0  0  0  0
   26.5668  -22.3022  -15.6535 N   0  0  0  0  0  0  0  0  0  0  0  0
   25.4929  -21.4757  -13.6687 C   0  0  0  0  0  0  0  0  0  0  0  0
   24.5068  -22.2072  -14.0922 O   0  0  0  0  0  0  0  0  0  0  0  0
   25.4590  -21.0032  -12.3461 N   0  0  0  0  0  0  0  0  0  0  0  0
   26.6170  -20.3908  -11.7209 C   0  0  0  0  0  0  0  0  0  0  0  0
   26.4680  -20.8324  -10.2843 C   0  0  0  0  0  0  0  0  0  0  0  0
   24.9929  -20.4336  -10.0874 C   0  0  0  0  0  0  0  0  0  0  0  0
   24.3930  -21.0051  -11.3991 C   0  0  1  0  0  0  0  0  0  0  0  0
   23.2670  -20.1113  -11.7119 C   0  0  0  0  0  0  0  0  0  0  0  0
   22.0271  -20.1744  -11.1104 O   0  0  0  0  0  0  0  0  0  0  0  0
   23.4525  -19.2302  -12.5908 O   0  0  0  0  0  0  0  0  0  0  0  0
  2  1  1  6
  3  4  1  0
  3  2  1  0
  4  8  1  0
  5  6  1  0
  5  4  2  0
  6  7  1  0
  7  8  2  0
  9 10  2  0
  9  2  1  0
 12 11  1  6
 12 14  1  0
 13 12  1  0
 14 15  1  6
 15  9  1  0
 16 17  2  0
 16 14  1  0
 18 19  1  0
 18 16  1  0
 19 20  1  0
 20 21  1  0
 22 18  1  0
 22 21  1  0
 22 23  1  6
 24 23  1  0
 25 23  2  0
M  END
$$$$
