HTP.pdb
     RDKit          3D

 25 26  0  0  1  0  0  0  0  0999 V2000
   42.2059   -9.0540   -6.0887 N   0  0  0  0  0  0  0  0  0  0  0  0
   41.7126   -8.2735   -7.2047 C   0  0  1  0  0  0  0  0  0  0  0  0
   42.8645   -7.4955   -7.8030 C   0  0  0  0  0  0  0  0  0  0  0  0
   43.2888   -6.4293   -6.8868 C   0  0  0  0  0  0  0  0  0  0  0  0
   44.5147   -6.1771   -6.3067 C   0  0  0  0  0  0  0  0  0  0  0  0
   44.4088   -5.0876   -5.5447 N   0  0  0  0  0  0  0  0  0  0  0  0
   43.1510   -4.6450   -5.6275 C   0  0  0  0  0  0  0  0  0  0  0  0
   42.4615   -5.4534   -6.4409 N   0  0  0  0  0  0  0  0  0  0  0  0
   41.1087   -9.1635   -8.2521 C   0  0  0  0  0  0  0  0  0  0  0  0
   41.6583  -10.2537   -8.4747 O   0  0  0  0  0  0  0  0  0  0  0  0
   38.7429  -11.1100   -8.1365 C   0  0  0  0  0  0  0  0  0  0  0  0
   38.0924  -10.2328   -9.2531 C   0  0  1  0  0  0  0  0  0  0  0  0
   37.2949   -9.3327   -8.5623 O   0  0  0  0  0  0  0  0  0  0  0  0
   39.2402   -9.5668   -9.9237 C   0  0  2  0  0  0  0  0  0  0  0  0
   39.9472   -8.7433   -8.9472 N   0  0  0  0  0  0  0  0  0  0  0  0
   38.9505   -8.7911  -11.1335 C   0  0  0  0  0  0  0  0  0  0  0  0
   38.8624   -7.5085  -10.9487 O   0  0  0  0  0  0  0  0  0  0  0  0
   38.7683   -9.2967  -12.4315 N   0  0  0  0  0  0  0  0  0  0  0  0
   38.9186  -10.7087  -12.7322 C   0  0  0  0  0  0  0  0  0  0  0  0
   39.4833  -10.6727  -14.1325 C   0  0  0  0  0  0  0  0  0  0  0  0
   38.4623   -9.6996  -14.7525 C   0  0  0  0  0  0  0  0  0  0  0  0
   38.4238   -8.6204  -13.6387 C   0  0  1  0  0  0  0  0  0  0  0  0
   37.0565   -8.0800  -13.6933 C   0  0  0  0  0  0  0  0  0  0  0  0
   36.5972   -7.2089  -14.6594 O   0  0  0  0  0  0  0  0  0  0  0  0
   36.2541   -8.4395  -12.7932 O   0  0  0  0  0  0  0  0  0  0  0  0
  2  1  1  1
  3  4  1  0
  3  2  1  0
  4  8  1  0
  5  6  1  0
  5  4  2  0
  6  7  1  0
  7  8  2  0
  9 10  2  0
  9  2  1  0
 12 11  1  1
 12 14  1  0
 13 12  1  0
 14 15  1  1
 15  9  1  0
 16 17  2  0
 16 14  1  0
 18 19  1  0
 18 16  1  0
 19 20  1  0
 20 21  1  0
 22 18  1  0
 22 21  1  0
 22 23  1  1
 24 23  1  0
 25 23  2  0
M  END
$$$$
