HTP.pdb
     RDKit          3D

 25 26  0  0  1  0  0  0  0  0999 V2000
   18.6573  -12.4271  -16.7969 N   0  0  0  0  0  0  0  0  0  0  0  0
   19.3440  -11.2850  -17.3644 C   0  0  1  0  0  0  0  0  0  0  0  0
   18.3272  -10.3901  -18.0391 C   0  0  0  0  0  0  0  0  0  0  0  0
   17.7111  -11.0864  -19.1756 C   0  0  0  0  0  0  0  0  0  0  0  0
   16.4654  -11.6643  -19.3083 C   0  0  0  0  0  0  0  0  0  0  0  0
   16.3631  -12.1778  -20.5349 N   0  0  0  0  0  0  0  0  0  0  0  0
   17.5086  -11.9405  -21.1802 C   0  0  0  0  0  0  0  0  0  0  0  0
   18.3351  -11.2776  -20.3629 N   0  0  0  0  0  0  0  0  0  0  0  0
   20.0651  -10.5126  -16.2980 C   0  0  0  0  0  0  0  0  0  0  0  0
   19.5266  -10.4199  -15.1837 O   0  0  0  0  0  0  0  0  0  0  0  0
   23.2587  -11.1939  -15.0375 C   0  0  0  0  0  0  0  0  0  0  0  0
   23.4711   -9.7313  -15.5426 C   0  0  1  0  0  0  0  0  0  0  0  0
   24.0457   -9.8806  -16.7960 O   0  0  0  0  0  0  0  0  0  0  0  0
   22.1016   -9.1572  -15.6171 C   0  0  2  0  0  0  0  0  0  0  0  0
   21.3198   -9.9196  -16.5861 N   0  0  0  0  0  0  0  0  0  0  0  0
   21.9918   -7.7204  -15.8876 C   0  0  0  0  0  0  0  0  0  0  0  0
   21.7284   -7.4186  -17.1231 O   0  0  0  0  0  0  0  0  0  0  0  0
   22.1393   -6.6774  -14.9582 N   0  0  0  0  0  0  0  0  0  0  0  0
   22.2281   -6.9289  -13.5314 C   0  0  0  0  0  0  0  0  0  0  0  0
   21.5341   -5.7173  -12.9556 C   0  0  0  0  0  0  0  0  0  0  0  0
   22.2899   -4.6364  -13.7519 C   0  0  0  0  0  0  0  0  0  0  0  0
   22.2327   -5.2699  -15.1670 C   0  0  1  0  0  0  0  0  0  0  0  0
   23.4627   -4.8087  -15.8296 C   0  0  0  0  0  0  0  0  0  0  0  0
   23.5719   -3.6366  -16.5490 O   0  0  0  0  0  0  0  0  0  0  0  0
   24.4833   -5.5381  -15.7312 O   0  0  0  0  0  0  0  0  0  0  0  0
  2  1  1  1
  3  4  1  0
  3  2  1  0
  4  8  1  0
  5  6  1  0
  5  4  2  0
  6  7  1  0
  7  8  2  0
  9 10  2  0
  9  2  1  0
 12 11  1  6
 12 14  1  0
 13 12  1  0
 14 15  1  6
 15  9  1  0
 16 17  2  0
 16 14  1  0
 18 19  1  0
 18 16  1  0
 19 20  1  0
 20 21  1  0
 22 18  1  0
 22 21  1  0
 22 23  1  6
 24 23  1  0
 25 23  2  0
M  END
$$$$
