HTP.pdb
     RDKit          3D

 25 26  0  0  1  0  0  0  0  0999 V2000
   14.5638  -11.0461  -12.3891 N   0  0  0  0  0  0  0  0  0  0  0  0
   15.9675  -10.7897  -12.6381 C   0  0  1  0  0  0  0  0  0  0  0  0
   16.3306  -11.3430  -13.9991 C   0  0  0  0  0  0  0  0  0  0  0  0
   16.3218  -12.8111  -13.9705 C   0  0  0  0  0  0  0  0  0  0  0  0
   17.3252  -13.7108  -13.6759 C   0  0  0  0  0  0  0  0  0  0  0  0
   16.8344  -14.9461  -13.7846 N   0  0  0  0  0  0  0  0  0  0  0  0
   15.5498  -14.8517  -14.1394 C   0  0  0  0  0  0  0  0  0  0  0  0
   15.2280  -13.5580  -14.2552 N   0  0  0  0  0  0  0  0  0  0  0  0
   16.2551   -9.3168  -12.6006 C   0  0  0  0  0  0  0  0  0  0  0  0
   15.4702   -8.5568  -13.1892 O   0  0  0  0  0  0  0  0  0  0  0  0
   16.2629   -7.2766   -9.9522 C   0  0  0  0  0  0  0  0  0  0  0  0
   17.7310   -6.9988  -10.4071 C   0  0  1  0  0  0  0  0  0  0  0  0
   18.5035   -7.8100   -9.5894 O   0  0  0  0  0  0  0  0  0  0  0  0
   17.7719   -7.4322  -11.8288 C   0  0  2  0  0  0  0  0  0  0  0  0
   17.3953   -8.8406  -11.9063 N   0  0  0  0  0  0  0  0  0  0  0  0
   19.0167   -7.1938  -12.5658 C   0  0  0  0  0  0  0  0  0  0  0  0
   19.8678   -8.1742  -12.5266 O   0  0  0  0  0  0  0  0  0  0  0  0
   19.3567   -6.0377  -13.2879 N   0  0  0  0  0  0  0  0  0  0  0  0
   18.4018   -4.9690  -13.5176 C   0  0  0  0  0  0  0  0  0  0  0  0
   18.8067   -4.4755  -14.8864 C   0  0  0  0  0  0  0  0  0  0  0  0
   20.3173   -4.3242  -14.6236 C   0  0  0  0  0  0  0  0  0  0  0  0
   20.5903   -5.6694  -13.9008 C   0  0  1  0  0  0  0  0  0  0  0  0
   21.6944   -5.3748  -12.9740 C   0  0  0  0  0  0  0  0  0  0  0  0
   21.5598   -5.2677  -11.6051 O   0  0  0  0  0  0  0  0  0  0  0  0
   22.8391   -5.2088  -13.4692 O   0  0  0  0  0  0  0  0  0  0  0  0
  2  1  1  6
  3  4  1  0
  3  2  1  0
  4  8  1  0
  5  6  1  0
  5  4  2  0
  6  7  1  0
  7  8  2  0
  9 10  2  0
  9  2  1  0
 12 11  1  1
 12 14  1  0
 13 12  1  0
 14 15  1  1
 15  9  1  0
 16 17  2  0
 16 14  1  0
 18 19  1  0
 18 16  1  0
 19 20  1  0
 20 21  1  0
 22 18  1  0
 22 21  1  0
 22 23  1  1
 24 23  1  0
 25 23  2  0
M  END
$$$$
