HTP.pdb
     RDKit          3D

 25 26  0  0  1  0  0  0  0  0999 V2000
   23.7321  -18.2440  -18.0468 N   0  0  0  0  0  0  0  0  0  0  0  0
   23.2879  -19.3956  -17.2888 C   0  0  1  0  0  0  0  0  0  0  0  0
   24.4023  -20.4191  -17.2584 C   0  0  0  0  0  0  0  0  0  0  0  0
   24.6139  -20.9810  -18.5984 C   0  0  0  0  0  0  0  0  0  0  0  0
   23.9239  -21.9605  -19.2822 C   0  0  0  0  0  0  0  0  0  0  0  0
   24.4948  -22.1288  -20.4756 N   0  0  0  0  0  0  0  0  0  0  0  0
   25.5256  -21.2835  -20.5646 C   0  0  0  0  0  0  0  0  0  0  0  0
   25.6069  -20.5809  -19.4287 N   0  0  0  0  0  0  0  0  0  0  0  0
   22.9268  -19.0032  -15.8855 C   0  0  0  0  0  0  0  0  0  0  0  0
   23.6579  -18.1855  -15.3049 O   0  0  0  0  0  0  0  0  0  0  0  0
   19.4140  -18.1375  -12.7751 C   0  0  0  0  0  0  0  0  0  0  0  0
   19.9967  -18.3682  -14.2057 C   0  0  1  0  0  0  0  0  0  0  0  0
   20.2399  -17.0908  -14.6879 O   0  0  0  0  0  0  0  0  0  0  0  0
   21.2522  -19.1324  -13.9809 C   0  0  2  0  0  0  0  0  0  0  0  0
   21.7806  -19.5665  -15.2708 N   0  0  0  0  0  0  0  0  0  0  0  0
   21.1911  -20.2606  -13.0468 C   0  0  0  0  0  0  0  0  0  0  0  0
   20.6247  -21.3289  -13.5210 O   0  0  0  0  0  0  0  0  0  0  0  0
   21.6773  -20.2869  -11.7290 N   0  0  0  0  0  0  0  0  0  0  0  0
   22.4235  -19.1770  -11.1650 C   0  0  0  0  0  0  0  0  0  0  0  0
   23.3945  -19.8846  -10.2500 C   0  0  0  0  0  0  0  0  0  0  0  0
   22.3828  -20.7855   -9.5161 C   0  0  0  0  0  0  0  0  0  0  0  0
   21.5646  -21.2984  -10.7303 C   0  0  1  0  0  0  0  0  0  0  0  0
   20.2097  -21.5153  -10.1993 C   0  0  0  0  0  0  0  0  0  0  0  0
   19.1388  -20.6740  -10.4195 O   0  0  0  0  0  0  0  0  0  0  0  0
   20.0198  -22.5406   -9.4951 O   0  0  0  0  0  0  0  0  0  0  0  0
  2  1  1  6
  3  4  1  0
  3  2  1  0
  4  8  1  0
  5  6  1  0
  5  4  2  0
  6  7  1  0
  7  8  2  0
  9 10  2  0
  9  2  1  0
 12 11  1  1
 12 14  1  0
 13 12  1  0
 14 15  1  6
 15  9  1  0
 16 17  2  0
 16 14  1  0
 18 19  1  0
 18 16  1  0
 19 20  1  0
 20 21  1  0
 22 18  1  0
 22 21  1  0
 22 23  1  1
 24 23  1  0
 25 23  2  0
M  END
$$$$
