HTP.pdb
     RDKit          3D

 25 26  0  0  1  0  0  0  0  0999 V2000
   14.0921  -22.9928    0.1029 N   0  0  0  0  0  0  0  0  0  0  0  0
   14.4612  -22.5395    1.4282 C   0  0  1  0  0  0  0  0  0  0  0  0
   15.7126  -23.2709    1.8631 C   0  0  0  0  0  0  0  0  0  0  0  0
   15.4414  -24.7077    1.9982 C   0  0  0  0  0  0  0  0  0  0  0  0
   14.6175  -25.3893    2.8698 C   0  0  0  0  0  0  0  0  0  0  0  0
   14.7045  -26.6936    2.6054 N   0  0  0  0  0  0  0  0  0  0  0  0
   15.5598  -26.8547    1.5918 C   0  0  0  0  0  0  0  0  0  0  0  0
   16.0136  -25.6536    1.2150 N   0  0  0  0  0  0  0  0  0  0  0  0
   14.7153  -21.0600    1.4339 C   0  0  0  0  0  0  0  0  0  0  0  0
   15.2090  -20.5518    0.4151 O   0  0  0  0  0  0  0  0  0  0  0  0
   12.1324  -18.7181    2.1529 C   0  0  0  0  0  0  0  0  0  0  0  0
   13.2203  -18.2917    3.1894 C   0  0  1  0  0  0  0  0  0  0  0  0
   12.8387  -18.9192    4.3659 O   0  0  0  0  0  0  0  0  0  0  0  0
   14.4913  -18.8403    2.6468 C   0  0  2  0  0  0  0  0  0  0  0  0
   14.3907  -20.2953    2.5823 N   0  0  0  0  0  0  0  0  0  0  0  0
   15.7327  -18.4422    3.3175 C   0  0  0  0  0  0  0  0  0  0  0  0
   16.2712  -19.3647    4.0564 O   0  0  0  0  0  0  0  0  0  0  0  0
   16.3699  -17.1931    3.2319 N   0  0  0  0  0  0  0  0  0  0  0  0
   15.9026  -16.1542    2.3326 C   0  0  0  0  0  0  0  0  0  0  0  0
   17.1943  -15.4825    1.9310 C   0  0  0  0  0  0  0  0  0  0  0  0
   17.7840  -15.2874    3.3410 C   0  0  0  0  0  0  0  0  0  0  0  0
   17.5053  -16.6933    3.9349 C   0  0  1  0  0  0  0  0  0  0  0  0
   17.3049  -16.4551    5.3729 C   0  0  0  0  0  0  0  0  0  0  0  0
   18.3237  -16.2924    6.2888 O   0  0  0  0  0  0  0  0  0  0  0  0
   16.1199  -16.3975    5.7919 O   0  0  0  0  0  0  0  0  0  0  0  0
  2  1  1  6
  3  4  1  0
  3  2  1  0
  4  8  1  0
  5  6  1  0
  5  4  2  0
  6  7  1  0
  7  8  2  0
  9 10  2  0
  9  2  1  0
 12 11  1  6
 12 14  1  0
 13 12  1  0
 14 15  1  1
 15  9  1  0
 16 17  2  0
 16 14  1  0
 18 19  1  0
 18 16  1  0
 19 20  1  0
 20 21  1  0
 22 18  1  0
 22 21  1  0
 22 23  1  1
 24 23  1  0
 25 23  2  0
M  END
$$$$
