HTP.pdb
     RDKit          3D

 25 26  0  0  1  0  0  0  0  0999 V2000
   25.5685  -10.9859  -18.5518 N   0  0  0  0  0  0  0  0  0  0  0  0
   25.3032   -9.7219  -17.8960 C   0  0  1  0  0  0  0  0  0  0  0  0
   26.0177   -8.6215  -18.6502 C   0  0  0  0  0  0  0  0  0  0  0  0
   27.4719   -8.8041  -18.5601 C   0  0  0  0  0  0  0  0  0  0  0  0
   28.4118   -9.0361  -19.5429 C   0  0  0  0  0  0  0  0  0  0  0  0
   29.6121   -9.1321  -18.9695 N   0  0  0  0  0  0  0  0  0  0  0  0
   29.4566   -8.9673  -17.6529 C   0  0  0  0  0  0  0  0  0  0  0  0
   28.1593   -8.7672  -17.3932 N   0  0  0  0  0  0  0  0  0  0  0  0
   23.8297   -9.4362  -17.8655 C   0  0  0  0  0  0  0  0  0  0  0  0
   23.1676   -9.6917  -18.8835 O   0  0  0  0  0  0  0  0  0  0  0  0
   21.6389  -10.8294  -15.5499 C   0  0  0  0  0  0  0  0  0  0  0  0
   21.3300   -9.3168  -15.3131 C   0  0  1  0  0  0  0  0  0  0  0  0
   22.0850   -8.9820  -14.1990 O   0  0  0  0  0  0  0  0  0  0  0  0
   21.8136   -8.6376  -16.5442 C   0  0  2  0  0  0  0  0  0  0  0  0
   23.2433   -8.8917  -16.6957 N   0  0  0  0  0  0  0  0  0  0  0  0
   21.5319   -7.2046  -16.6730 C   0  0  0  0  0  0  0  0  0  0  0  0
   22.4811   -6.4242  -16.2525 O   0  0  0  0  0  0  0  0  0  0  0  0
   20.3653   -6.6219  -17.1957 N   0  0  0  0  0  0  0  0  0  0  0  0
   19.2873   -7.4242  -17.7443 C   0  0  0  0  0  0  0  0  0  0  0  0
   18.7725   -6.5401  -18.8553 C   0  0  0  0  0  0  0  0  0  0  0  0
   18.6343   -5.2356  -18.0472 C   0  0  0  0  0  0  0  0  0  0  0  0
   19.9935   -5.2492  -17.2993 C   0  0  1  0  0  0  0  0  0  0  0  0
   19.7214   -4.5692  -16.0234 C   0  0  0  0  0  0  0  0  0  0  0  0
   19.6898   -5.1948  -14.7942 O   0  0  0  0  0  0  0  0  0  0  0  0
   19.5018   -3.3308  -16.0612 O   0  0  0  0  0  0  0  0  0  0  0  0
  2  1  1  6
  3  4  1  0
  3  2  1  0
  4  8  1  0
  5  6  1  0
  5  4  2  0
  6  7  1  0
  7  8  2  0
  9 10  2  0
  9  2  1  0
 12 11  1  6
 12 14  1  0
 13 12  1  0
 14 15  1  1
 15  9  1  0
 16 17  2  0
 16 14  1  0
 18 19  1  0
 18 16  1  0
 19 20  1  0
 20 21  1  0
 22 18  1  0
 22 21  1  0
 22 23  1  1
 24 23  1  0
 25 23  2  0
M  END
$$$$
