HTP.pdb
     RDKit          3D

 25 26  0  0  1  0  0  0  0  0999 V2000
   19.7573  -15.4352  -19.8852 N   0  0  0  0  0  0  0  0  0  0  0  0
   19.4317  -14.6822  -18.6915 C   0  0  1  0  0  0  0  0  0  0  0  0
   19.1774  -15.6515  -17.5574 C   0  0  0  0  0  0  0  0  0  0  0  0
   17.9167  -16.3718  -17.7766 C   0  0  0  0  0  0  0  0  0  0  0  0
   17.6759  -17.6222  -18.3072 C   0  0  0  0  0  0  0  0  0  0  0  0
   16.3602  -17.8405  -18.3016 N   0  0  0  0  0  0  0  0  0  0  0  0
   15.7638  -16.7636  -17.7826 C   0  0  0  0  0  0  0  0  0  0  0  0
   16.7010  -15.8646  -17.4600 N   0  0  0  0  0  0  0  0  0  0  0  0
   20.5553  -13.7581  -18.3212 C   0  0  0  0  0  0  0  0  0  0  0  0
   21.7172  -14.1639  -18.4802 O   0  0  0  0  0  0  0  0  0  0  0  0
   22.1633  -11.6384  -19.7306 C   0  0  0  0  0  0  0  0  0  0  0  0
   21.5431  -10.6443  -18.6980 C   0  0  1  0  0  0  0  0  0  0  0  0
   20.3708  -10.2112  -19.2991 O   0  0  0  0  0  0  0  0  0  0  0  0
   21.2828  -11.4715  -17.4902 C   0  0  2  0  0  0  0  0  0  0  0  0
   20.2653  -12.4688  -17.8086 N   0  0  0  0  0  0  0  0  0  0  0  0
   20.9355  -10.7622  -16.2550 C   0  0  0  0  0  0  0  0  0  0  0  0
   19.6618  -10.5936  -16.0648 O   0  0  0  0  0  0  0  0  0  0  0  0
   21.8298  -10.2677  -15.2909 N   0  0  0  0  0  0  0  0  0  0  0  0
   23.2632  -10.4671  -15.4013 C   0  0  0  0  0  0  0  0  0  0  0  0
   23.6737  -10.6003  -13.9540 C   0  0  0  0  0  0  0  0  0  0  0  0
   22.9539   -9.3518  -13.4093 C   0  0  0  0  0  0  0  0  0  0  0  0
   21.5758   -9.5254  -14.1003 C   0  0  1  0  0  0  0  0  0  0  0  0
   21.0869   -8.1526  -14.3025 C   0  0  0  0  0  0  0  0  0  0  0  0
   20.4846   -7.3846  -13.3275 O   0  0  0  0  0  0  0  0  0  0  0  0
   21.2295   -7.6485  -15.4465 O   0  0  0  0  0  0  0  0  0  0  0  0
  2  1  1  6
  3  4  1  0
  3  2  1  0
  4  8  1  0
  5  6  1  0
  5  4  2  0
  6  7  1  0
  7  8  2  0
  9 10  2  0
  9  2  1  0
 12 11  1  6
 12 14  1  0
 13 12  1  0
 14 15  1  6
 15  9  1  0
 16 17  2  0
 16 14  1  0
 18 19  1  0
 18 16  1  0
 19 20  1  0
 20 21  1  0
 22 18  1  0
 22 21  1  0
 22 23  1  6
 24 23  1  0
 25 23  2  0
M  END
$$$$
