HTP.pdb
     RDKit          3D

 25 26  0  0  1  0  0  0  0  0999 V2000
   24.8298  -20.7851  -14.3475 N   0  0  0  0  0  0  0  0  0  0  0  0
   25.6462  -21.4312  -13.3404 C   0  0  1  0  0  0  0  0  0  0  0  0
   26.9879  -21.7777  -13.9486 C   0  0  0  0  0  0  0  0  0  0  0  0
   26.8276  -22.8099  -14.9805 C   0  0  0  0  0  0  0  0  0  0  0  0
   26.5544  -24.1576  -14.8698 C   0  0  0  0  0  0  0  0  0  0  0  0
   26.5034  -24.6834  -16.0943 N   0  0  0  0  0  0  0  0  0  0  0  0
   26.7366  -23.7061  -16.9748 C   0  0  0  0  0  0  0  0  0  0  0  0
   26.9351  -22.5629  -16.3083 N   0  0  0  0  0  0  0  0  0  0  0  0
   25.8477  -20.5286  -12.1579 C   0  0  0  0  0  0  0  0  0  0  0  0
   26.3569  -19.4147  -12.3580 O   0  0  0  0  0  0  0  0  0  0  0  0
   23.5260  -19.0882  -10.8043 C   0  0  0  0  0  0  0  0  0  0  0  0
   24.0081  -19.6876   -9.4450 C   0  0  1  0  0  0  0  0  0  0  0  0
   23.1755  -20.7767   -9.2350 O   0  0  0  0  0  0  0  0  0  0  0  0
   25.4160  -20.0964   -9.6932 C   0  0  2  0  0  0  0  0  0  0  0  0
   25.4581  -20.9640  -10.8666 N   0  0  0  0  0  0  0  0  0  0  0  0
   26.1417  -20.7097   -8.5767 C   0  0  0  0  0  0  0  0  0  0  0  0
   26.1428  -22.0085   -8.5771 O   0  0  0  0  0  0  0  0  0  0  0  0
   26.8151  -20.0379   -7.5429 N   0  0  0  0  0  0  0  0  0  0  0  0
   26.9969  -18.5979   -7.5554 C   0  0  0  0  0  0  0  0  0  0  0  0
   28.3446  -18.4461   -6.8908 C   0  0  0  0  0  0  0  0  0  0  0  0
   28.0796  -19.3332   -5.6593 C   0  0  0  0  0  0  0  0  0  0  0  0
   27.4151  -20.5502   -6.3551 C   0  0  1  0  0  0  0  0  0  0  0  0
   26.4795  -21.0847   -5.3533 C   0  0  0  0  0  0  0  0  0  0  0  0
   26.8562  -21.7815   -4.2238 O   0  0  0  0  0  0  0  0  0  0  0  0
   25.2511  -20.8909   -5.5450 O   0  0  0  0  0  0  0  0  0  0  0  0
  2  1  1  6
  3  4  1  0
  3  2  1  0
  4  8  1  0
  5  6  1  0
  5  4  2  0
  6  7  1  0
  7  8  2  0
  9 10  2  0
  9  2  1  0
 12 11  1  6
 12 14  1  0
 13 12  1  0
 14 15  1  6
 15  9  1  0
 16 17  2  0
 16 14  1  0
 18 19  1  0
 18 16  1  0
 19 20  1  0
 20 21  1  0
 22 18  1  0
 22 21  1  0
 22 23  1  1
 24 23  1  0
 25 23  2  0
M  END
$$$$
