HTP.pdb
     RDKit          3D

 25 26  0  0  1  0  0  0  0  0999 V2000
   19.8230  -12.9998  -18.3749 N   0  0  0  0  0  0  0  0  0  0  0  0
   19.5437  -12.0463  -17.3210 C   0  0  1  0  0  0  0  0  0  0  0  0
   19.8862  -12.6773  -15.9888 C   0  0  0  0  0  0  0  0  0  0  0  0
   18.9612  -13.7791  -15.6947 C   0  0  0  0  0  0  0  0  0  0  0  0
   17.6018  -13.7737  -15.4600 C   0  0  0  0  0  0  0  0  0  0  0  0
   17.2033  -15.0271  -15.2387 N   0  0  0  0  0  0  0  0  0  0  0  0
   18.2724  -15.8234  -15.3271 C   0  0  0  0  0  0  0  0  0  0  0  0
   19.3464  -15.0748  -15.6040 N   0  0  0  0  0  0  0  0  0  0  0  0
   20.3509  -10.7943  -17.5072 C   0  0  0  0  0  0  0  0  0  0  0  0
   21.5753  -10.9121  -17.6720 O   0  0  0  0  0  0  0  0  0  0  0  0
   19.8527   -8.5054  -20.0926 C   0  0  0  0  0  0  0  0  0  0  0  0
   19.6859   -7.5628  -18.8585 C   0  0  1  0  0  0  0  0  0  0  0  0
   18.3152   -7.4997  -18.6569 O   0  0  0  0  0  0  0  0  0  0  0  0
   20.3848   -8.2670  -17.7510 C   0  0  2  0  0  0  0  0  0  0  0  0
   19.7054   -9.5326  -17.4903 N   0  0  0  0  0  0  0  0  0  0  0  0
   20.5795   -7.5237  -16.5024 C   0  0  0  0  0  0  0  0  0  0  0  0
   19.6875   -7.7553  -15.5873 O   0  0  0  0  0  0  0  0  0  0  0  0
   21.6129   -6.6154  -16.2184 N   0  0  0  0  0  0  0  0  0  0  0  0
   22.7324   -6.4210  -17.1216 C   0  0  0  0  0  0  0  0  0  0  0  0
   23.8647   -6.1416  -16.1620 C   0  0  0  0  0  0  0  0  0  0  0  0
   23.1661   -5.0636  -15.3113 C   0  0  0  0  0  0  0  0  0  0  0  0
   21.7925   -5.7525  -15.0975 C   0  0  1  0  0  0  0  0  0  0  0  0
   20.8331   -4.6419  -14.9936 C   0  0  0  0  0  0  0  0  0  0  0  0
   20.5844   -3.9278  -13.8397 O   0  0  0  0  0  0  0  0  0  0  0  0
   20.1966   -4.3259  -16.0320 O   0  0  0  0  0  0  0  0  0  0  0  0
  2  1  1  6
  3  4  1  0
  3  2  1  0
  4  8  1  0
  5  6  1  0
  5  4  2  0
  6  7  1  0
  7  8  2  0
  9 10  2  0
  9  2  1  0
 12 11  1  6
 12 14  1  0
 13 12  1  0
 14 15  1  1
 15  9  1  0
 16 17  2  0
 16 14  1  0
 18 19  1  0
 18 16  1  0
 19 20  1  0
 20 21  1  0
 22 18  1  0
 22 21  1  0
 22 23  1  6
 24 23  1  0
 25 23  2  0
M  END
$$$$
