HTP.pdb
     RDKit          3D

 25 26  0  0  1  0  0  0  0  0999 V2000
   17.6347  -13.0430  -16.5699 N   0  0  0  0  0  0  0  0  0  0  0  0
   17.4389  -11.6734  -16.1411 C   0  0  1  0  0  0  0  0  0  0  0  0
   16.7241  -11.6772  -14.8073 C   0  0  0  0  0  0  0  0  0  0  0  0
   15.2927  -11.9437  -14.9977 C   0  0  0  0  0  0  0  0  0  0  0  0
   14.2085  -11.0909  -14.9767 C   0  0  0  0  0  0  0  0  0  0  0  0
   13.1033  -11.8021  -15.2030 N   0  0  0  0  0  0  0  0  0  0  0  0
   13.4589  -13.0795  -15.3663 C   0  0  0  0  0  0  0  0  0  0  0  0
   14.7878  -13.1767  -15.2435 N   0  0  0  0  0  0  0  0  0  0  0  0
   18.7550  -10.9643  -16.0047 C   0  0  0  0  0  0  0  0  0  0  0  0
   19.6553  -11.5293  -15.3641 O   0  0  0  0  0  0  0  0  0  0  0  0
   21.2031  -10.2446  -18.1608 C   0  0  0  0  0  0  0  0  0  0  0  0
   20.8018   -8.7800  -17.7958 C   0  0  1  0  0  0  0  0  0  0  0  0
   19.9092   -8.4100  -18.7907 O   0  0  0  0  0  0  0  0  0  0  0  0
   20.1463   -8.8907  -16.4658 C   0  0  2  0  0  0  0  0  0  0  0  0
   18.9324   -9.6905  -16.6004 N   0  0  0  0  0  0  0  0  0  0  0  0
   19.8598   -7.6411  -15.7545 C   0  0  0  0  0  0  0  0  0  0  0  0
   18.6511   -7.1921  -15.9099 O   0  0  0  0  0  0  0  0  0  0  0  0
   20.7479   -6.9130  -14.9453 N   0  0  0  0  0  0  0  0  0  0  0  0
   22.0382   -7.4473  -14.5499 C   0  0  0  0  0  0  0  0  0  0  0  0
   22.2098   -6.8622  -13.1682 C   0  0  0  0  0  0  0  0  0  0  0  0
   21.8829   -5.3964  -13.5119 C   0  0  0  0  0  0  0  0  0  0  0  0
   20.6153   -5.6106  -14.3802 C   0  0  1  0  0  0  0  0  0  0  0  0
   20.6330   -4.4982  -15.3429 C   0  0  0  0  0  0  0  0  0  0  0  0
   20.1544   -3.2306  -15.0831 O   0  0  0  0  0  0  0  0  0  0  0  0
   21.1186   -4.7239  -16.4815 O   0  0  0  0  0  0  0  0  0  0  0  0
  2  1  1  1
  3  4  1  0
  3  2  1  0
  4  8  1  0
  5  6  1  0
  5  4  2  0
  6  7  1  0
  7  8  2  0
  9 10  2  0
  9  2  1  0
 12 11  1  6
 12 14  1  0
 13 12  1  0
 14 15  1  6
 15  9  1  0
 16 17  2  0
 16 14  1  0
 18 19  1  0
 18 16  1  0
 19 20  1  0
 20 21  1  0
 22 18  1  0
 22 21  1  0
 22 23  1  6
 24 23  1  0
 25 23  2  0
M  END
$$$$
