HTP.pdb
     RDKit          3D

 25 26  0  0  1  0  0  0  0  0999 V2000
   25.6039  -18.5705  -18.1202 N   0  0  0  0  0  0  0  0  0  0  0  0
   25.1298  -19.8888  -17.7525 C   0  0  1  0  0  0  0  0  0  0  0  0
   23.6603  -19.9931  -18.0990 C   0  0  0  0  0  0  0  0  0  0  0  0
   22.8732  -19.0830  -17.2573 C   0  0  0  0  0  0  0  0  0  0  0  0
   22.3412  -19.2581  -15.9965 C   0  0  0  0  0  0  0  0  0  0  0  0
   21.7027  -18.1411  -15.6453 N   0  0  0  0  0  0  0  0  0  0  0  0
   21.8166  -17.2660  -16.6483 C   0  0  0  0  0  0  0  0  0  0  0  0
   22.5263  -17.8285  -17.6334 N   0  0  0  0  0  0  0  0  0  0  0  0
   25.8957  -20.9537  -18.4827 C   0  0  0  0  0  0  0  0  0  0  0  0
   26.1352  -20.7739  -19.6871 O   0  0  0  0  0  0  0  0  0  0  0  0
   27.8557  -21.3047  -19.8025 C   0  0  0  0  0  0  0  0  0  0  0  0
   28.4136  -22.4558  -18.9062 C   0  0  1  0  0  0  0  0  0  0  0  0
   29.1403  -21.8033  -17.9216 O   0  0  0  0  0  0  0  0  0  0  0  0
   27.2041  -23.1265  -18.3604 C   0  0  2  0  0  0  0  0  0  0  0  0
   26.3180  -22.1160  -17.7902 N   0  0  0  0  0  0  0  0  0  0  0  0
   27.4174  -24.2180  -17.4051 C   0  0  0  0  0  0  0  0  0  0  0  0
   27.6510  -23.8355  -16.1861 O   0  0  0  0  0  0  0  0  0  0  0  0
   27.3900  -25.5947  -17.6835 N   0  0  0  0  0  0  0  0  0  0  0  0
   27.0318  -26.1048  -18.9943 C   0  0  0  0  0  0  0  0  0  0  0  0
   26.3244  -27.3932  -18.6470 C   0  0  0  0  0  0  0  0  0  0  0  0
   27.3842  -27.9703  -17.6890 C   0  0  0  0  0  0  0  0  0  0  0  0
   27.6806  -26.7066  -16.8393 C   0  0  1  0  0  0  0  0  0  0  0  0
   29.0902  -26.8488  -16.4427 C   0  0  0  0  0  0  0  0  0  0  0  0
   29.5410  -27.6823  -15.4401 O   0  0  0  0  0  0  0  0  0  0  0  0
   29.9400  -26.1592  -17.0637 O   0  0  0  0  0  0  0  0  0  0  0  0
  2  1  1  6
  3  4  1  0
  3  2  1  0
  4  8  1  0
  5  6  1  0
  5  4  2  0
  6  7  1  0
  7  8  2  0
  9 10  2  0
  9  2  1  0
 12 11  1  6
 12 14  1  0
 13 12  1  0
 14 15  1  1
 15  9  1  0
 16 17  2  0
 16 14  1  0
 18 19  1  0
 18 16  1  0
 19 20  1  0
 20 21  1  0
 22 18  1  0
 22 21  1  0
 22 23  1  6
 24 23  1  0
 25 23  2  0
M  END
$$$$
