QSK.pdb
     RDKit          3D

 25 24  0  0  1  0  0  0  0  0999 V2000
    9.4969  -12.3500   18.1952 N   0  0  0  0  0  0  0  0  0  0  0  0
    8.4828  -13.1765   17.6827 C   0  0  0  0  0  0  0  0  0  0  0  0
    8.6343  -13.8248   16.6487 O   0  0  0  0  0  0  0  0  0  0  0  0
    7.1836  -13.2605   18.4293 C   0  0  0  0  0  0  0  0  0  0  0  0
    7.3776  -14.0560   19.6875 C   0  0  0  0  0  0  0  0  0  0  0  0
    7.6911  -15.5105   19.3929 C   0  0  2  0  0  0  0  0  0  0  0  0
    6.4072  -16.1429   18.9932 N   0  0  0  0  0  0  0  0  0  0  0  0
    8.2011  -16.1860   20.6022 C   0  0  0  0  0  0  0  0  0  0  0  0
    7.4587  -16.1978   21.6329 O   0  0  0  0  0  0  0  0  0  0  0  0
   11.8699  -18.3586   20.8822 O   0  0  0  0  0  0  0  0  0  0  0  0
   10.7268  -18.7446   21.5377 C   0  0  0  0  0  0  0  0  0  0  0  0
    9.8643  -17.5223   21.8943 C   0  0  2  0  0  0  0  0  0  0  0  0
    9.4692  -16.8277   20.6869 N   0  0  0  0  0  0  0  0  0  0  0  0
   10.5528  -16.6592   22.8658 C   0  0  0  0  0  0  0  0  0  0  0  0
   11.4096  -15.8427   22.4579 O   0  0  0  0  0  0  0  0  0  0  0  0
   10.2728  -16.7260   24.2550 N   0  0  0  0  0  0  0  0  0  0  0  0
   10.9797  -15.8839   25.2249 C   0  0  1  0  0  0  0  0  0  0  0  0
   10.1284  -15.9395   26.5126 C   0  0  0  0  0  0  0  0  0  0  0  0
   10.7440  -15.1253   27.5896 C   0  0  0  0  0  0  0  0  0  0  0  0
    9.9368  -15.1535   28.8473 C   0  0  0  0  0  0  0  0  0  0  0  0
   10.3845  -14.2753   29.9514 C   0  0  0  0  0  0  0  0  0  0  0  0
    9.5570  -14.2529   31.1275 N   0  0  0  0  0  0  0  0  0  0  0  0
   12.2821  -16.4918   25.5573 C   0  0  0  0  0  0  0  0  0  0  0  0
   12.4333  -17.8604   25.5410 O   0  0  0  0  0  0  0  0  0  0  0  0
   13.2458  -15.7577   25.8533 O   0  0  0  0  0  0  0  0  0  0  0  0
  1  2  1  0
  2  4  1  0
  2  3  2  0
  4  5  1  0
  6  5  1  0
  6  8  1  0
  6  7  1  1
  8  9  2  0
 11 10  1  0
 12 11  1  6
 13  8  1  0
 13 12  1  0
 14 15  2  0
 14 12  1  0
 16 14  1  0
 17 16  1  0
 17 18  1  1
 19 18  1  0
 20 19  1  0
 21 22  1  0
 21 20  1  0
 23 17  1  0
 23 24  1  0
 25 23  2  0
M  END
$$$$
