QSK.pdb
     RDKit          3D

 25 24  0  0  1  0  0  0  0  0999 V2000
   14.6622  -30.0732   38.1677 N   0  0  0  0  0  0  0  0  0  0  0  0
   15.2446  -28.7948   38.1426 C   0  0  0  0  0  0  0  0  0  0  0  0
   16.4595  -28.6368   38.0370 O   0  0  0  0  0  0  0  0  0  0  0  0
   14.3455  -27.5977   38.2484 C   0  0  0  0  0  0  0  0  0  0  0  0
   12.9122  -28.0437   38.2421 C   0  0  0  0  0  0  0  0  0  0  0  0
   12.0198  -27.0647   37.5031 C   0  0  2  0  0  0  0  0  0  0  0  0
   12.3710  -27.1822   36.0640 N   0  0  0  0  0  0  0  0  0  0  0  0
   12.2854  -25.6829   37.9492 C   0  0  0  0  0  0  0  0  0  0  0  0
   13.4031  -25.1642   37.6402 O   0  0  0  0  0  0  0  0  0  0  0  0
    9.3408  -23.0304   38.7448 O   0  0  0  0  0  0  0  0  0  0  0  0
   10.5994  -22.5893   38.4182 C   0  0  0  0  0  0  0  0  0  0  0  0
   11.6729  -23.5136   39.0169 C   0  0  2  0  0  0  0  0  0  0  0  0
   11.3690  -24.8933   38.7000 N   0  0  0  0  0  0  0  0  0  0  0  0
   11.8336  -23.2672   40.4579 C   0  0  0  0  0  0  0  0  0  0  0  0
   11.7828  -24.2334   41.2522 O   0  0  0  0  0  0  0  0  0  0  0  0
   12.0449  -21.9628   40.9741 N   0  0  0  0  0  0  0  0  0  0  0  0
   11.9351  -21.6741   42.4074 C   0  0  1  0  0  0  0  0  0  0  0  0
   13.1871  -22.3105   43.0503 C   0  0  0  0  0  0  0  0  0  0  0  0
   13.2569  -21.9947   44.4986 C   0  0  0  0  0  0  0  0  0  0  0  0
   14.4572  -22.6026   45.1497 C   0  0  0  0  0  0  0  0  0  0  0  0
   14.5701  -22.4558   46.6181 C   0  0  0  0  0  0  0  0  0  0  0  0
   15.7252  -23.0513   47.2343 N   0  0  0  0  0  0  0  0  0  0  0  0
   12.0417  -20.2202   42.6328 C   0  0  0  0  0  0  0  0  0  0  0  0
   12.3418  -19.3760   41.5871 O   0  0  0  0  0  0  0  0  0  0  0  0
   11.8581  -19.7602   43.7774 O   0  0  0  0  0  0  0  0  0  0  0  0
  1  2  1  0
  2  4  1  0
  2  3  2  0
  4  5  1  0
  6  5  1  0
  6  8  1  0
  6  7  1  6
  8  9  2  0
 11 10  1  0
 12 11  1  1
 13  8  1  0
 13 12  1  0
 14 15  2  0
 14 12  1  0
 16 14  1  0
 17 16  1  0
 17 18  1  1
 19 18  1  0
 20 19  1  0
 21 22  1  0
 21 20  1  0
 23 17  1  0
 23 24  1  0
 25 23  2  0
M  END
$$$$
