QSK.pdb
     RDKit          3D

 25 24  0  0  1  0  0  0  0  0999 V2000
    9.3408  -17.2867   13.0202 N   0  0  0  0  0  0  0  0  0  0  0  0
    8.5307  -16.4975   13.8539 C   0  0  0  0  0  0  0  0  0  0  0  0
    8.2255  -15.3434   13.5588 O   0  0  0  0  0  0  0  0  0  0  0  0
    8.0312  -17.0937   15.1374 C   0  0  0  0  0  0  0  0  0  0  0  0
    9.1543  -17.1598   16.1313 C   0  0  0  0  0  0  0  0  0  0  0  0
    8.7303  -17.8429   17.4175 C   0  0  2  0  0  0  0  0  0  0  0  0
    7.2608  -18.0418   17.3211 N   0  0  0  0  0  0  0  0  0  0  0  0
    9.0214  -16.9830   18.5814 C   0  0  0  0  0  0  0  0  0  0  0  0
   10.2294  -16.8899   18.9630 O   0  0  0  0  0  0  0  0  0  0  0  0
    6.1156  -15.4977   21.3103 O   0  0  0  0  0  0  0  0  0  0  0  0
    7.1937  -14.7058   21.0008 C   0  0  0  0  0  0  0  0  0  0  0  0
    8.3807  -15.5620   20.5286 C   0  0  2  0  0  0  0  0  0  0  0  0
    8.0366  -16.2489   19.3014 N   0  0  0  0  0  0  0  0  0  0  0  0
    8.8337  -16.4660   21.5965 C   0  0  0  0  0  0  0  0  0  0  0  0
    8.4914  -17.6697   21.5640 O   0  0  0  0  0  0  0  0  0  0  0  0
    9.6494  -16.0115   22.6646 N   0  0  0  0  0  0  0  0  0  0  0  0
   10.0525  -16.9005   23.7586 C   0  0  1  0  0  0  0  0  0  0  0  0
   11.5634  -17.1456   23.5515 C   0  0  0  0  0  0  0  0  0  0  0  0
   12.0879  -18.0996   24.5597 C   0  0  0  0  0  0  0  0  0  0  0  0
   13.5591  -18.3201   24.4137 C   0  0  0  0  0  0  0  0  0  0  0  0
   14.1919  -19.2689   25.3571 C   0  0  0  0  0  0  0  0  0  0  0  0
   15.5614  -19.6186   25.0913 N   0  0  0  0  0  0  0  0  0  0  0  0
    9.9152  -16.1978   25.0484 C   0  0  0  0  0  0  0  0  0  0  0  0
    9.8835  -16.9099   26.2266 O   0  0  0  0  0  0  0  0  0  0  0  0
    9.8279  -14.9538   25.0648 O   0  0  0  0  0  0  0  0  0  0  0  0
  1  2  1  0
  2  4  1  0
  2  3  2  0
  4  5  1  0
  6  5  1  0
  6  8  1  0
  6  7  1  6
  8  9  2  0
 11 10  1  0
 12 11  1  1
 13  8  1  0
 13 12  1  0
 14 15  2  0
 14 12  1  0
 16 14  1  0
 17 16  1  0
 17 18  1  6
 19 18  1  0
 20 19  1  0
 21 22  1  0
 21 20  1  0
 23 17  1  0
 23 24  1  0
 25 23  2  0
M  END
$$$$
