QSK.pdb
     RDKit          3D

 25 24  0  0  1  0  0  0  0  0999 V2000
   12.9748  -15.4677   16.4512 N   0  0  0  0  0  0  0  0  0  0  0  0
   13.1610  -14.4914   17.4443 C   0  0  0  0  0  0  0  0  0  0  0  0
   14.2789  -14.1973   17.8641 O   0  0  0  0  0  0  0  0  0  0  0  0
   11.9520  -13.7963   17.9989 C   0  0  0  0  0  0  0  0  0  0  0  0
   11.1865  -14.7432   18.8769 C   0  0  0  0  0  0  0  0  0  0  0  0
    9.6980  -14.4524   18.8577 C   0  0  2  0  0  0  0  0  0  0  0  0
    9.5414  -13.1113   18.2371 N   0  0  0  0  0  0  0  0  0  0  0  0
    9.1606  -14.4094   20.2319 C   0  0  0  0  0  0  0  0  0  0  0  0
    9.6473  -13.5518   21.0327 O   0  0  0  0  0  0  0  0  0  0  0  0
    6.4177  -17.1898   21.9083 O   0  0  0  0  0  0  0  0  0  0  0  0
    6.2959  -15.8582   22.2204 C   0  0  0  0  0  0  0  0  0  0  0  0
    7.6477  -15.1392   22.0757 C   0  0  2  0  0  0  0  0  0  0  0  0
    8.1304  -15.2643   20.7164 N   0  0  0  0  0  0  0  0  0  0  0  0
    8.6072  -15.6174   23.0824 C   0  0  0  0  0  0  0  0  0  0  0  0
    9.5146  -16.4068   22.7351 O   0  0  0  0  0  0  0  0  0  0  0  0
    8.5334  -15.2085   24.4389 N   0  0  0  0  0  0  0  0  0  0  0  0
    9.3788  -15.8128   25.4731 C   0  0  1  0  0  0  0  0  0  0  0  0
    9.2685  -14.8723   26.6934 C   0  0  0  0  0  0  0  0  0  0  0  0
   10.1290  -15.3455   27.8058 C   0  0  0  0  0  0  0  0  0  0  0  0
   10.0433  -14.4532   29.0020 C   0  0  0  0  0  0  0  0  0  0  0  0
   10.8457  -14.8381   30.1846 C   0  0  0  0  0  0  0  0  0  0  0  0
   10.7921  -13.9472   31.3123 N   0  0  0  0  0  0  0  0  0  0  0  0
    8.8083  -17.1079   25.8896 C   0  0  0  0  0  0  0  0  0  0  0  0
    9.6246  -18.0957   26.3937 O   0  0  0  0  0  0  0  0  0  0  0  0
    7.5812  -17.3024   25.7822 O   0  0  0  0  0  0  0  0  0  0  0  0
  1  2  1  0
  2  4  1  0
  2  3  2  0
  4  5  1  0
  6  5  1  0
  6  8  1  0
  6  7  1  1
  8  9  2  0
 11 10  1  0
 12 11  1  6
 13  8  1  0
 13 12  1  0
 14 15  2  0
 14 12  1  0
 16 14  1  0
 17 16  1  0
 17 18  1  1
 19 18  1  0
 20 19  1  0
 21 22  1  0
 21 20  1  0
 23 17  1  0
 23 24  1  0
 25 23  2  0
M  END
$$$$
