QSK.pdb
     RDKit          3D

 25 24  0  0  1  0  0  0  0  0999 V2000
   12.6026  -20.4618   18.6260 N   0  0  0  0  0  0  0  0  0  0  0  0
   13.1931  -19.8432   17.5113 C   0  0  0  0  0  0  0  0  0  0  0  0
   13.6413  -20.4942   16.5692 O   0  0  0  0  0  0  0  0  0  0  0  0
   13.2718  -18.3447   17.4837 C   0  0  0  0  0  0  0  0  0  0  0  0
   12.6268  -17.7849   18.7183 C   0  0  0  0  0  0  0  0  0  0  0  0
   11.1655  -17.4493   18.4888 C   0  0  2  0  0  0  0  0  0  0  0  0
   11.1410  -16.3388   17.5017 N   0  0  0  0  0  0  0  0  0  0  0  0
   10.5364  -16.9890   19.7423 C   0  0  0  0  0  0  0  0  0  0  0  0
   10.7519  -15.7923   20.1098 O   0  0  0  0  0  0  0  0  0  0  0  0
    7.8767  -19.2964   22.1226 O   0  0  0  0  0  0  0  0  0  0  0  0
    7.6758  -17.9525   21.9251 C   0  0  0  0  0  0  0  0  0  0  0  0
    9.0145  -17.2285   21.7039 C   0  0  2  0  0  0  0  0  0  0  0  0
    9.7016  -17.7984   20.5639 N   0  0  0  0  0  0  0  0  0  0  0  0
    9.8219  -17.2305   22.9332 C   0  0  0  0  0  0  0  0  0  0  0  0
   10.7915  -18.0168   23.0259 O   0  0  0  0  0  0  0  0  0  0  0  0
    9.5323  -16.3646   24.0190 N   0  0  0  0  0  0  0  0  0  0  0  0
   10.2924  -16.4185   25.2715 C   0  0  1  0  0  0  0  0  0  0  0  0
    9.7243  -15.2780   26.1447 C   0  0  0  0  0  0  0  0  0  0  0  0
   10.4174  -15.2193   27.4554 C   0  0  0  0  0  0  0  0  0  0  0  0
    9.8591  -14.1513   28.3397 C   0  0  0  0  0  0  0  0  0  0  0  0
   10.4239  -14.0469   29.7038 C   0  0  0  0  0  0  0  0  0  0  0  0
    9.9930  -12.9230   30.4909 N   0  0  0  0  0  0  0  0  0  0  0  0
    9.9954  -17.6771   25.9814 C   0  0  0  0  0  0  0  0  0  0  0  0
   10.9569  -18.2756   26.7646 O   0  0  0  0  0  0  0  0  0  0  0  0
    8.8670  -18.1959   25.8674 O   0  0  0  0  0  0  0  0  0  0  0  0
  1  2  1  0
  2  4  1  0
  2  3  2  0
  4  5  1  0
  6  5  1  0
  6  8  1  0
  6  7  1  6
  8  9  2  0
 11 10  1  0
 12 11  1  1
 13  8  1  0
 13 12  1  0
 14 15  2  0
 14 12  1  0
 16 14  1  0
 17 16  1  0
 17 18  1  1
 19 18  1  0
 20 19  1  0
 21 22  1  0
 21 20  1  0
 23 17  1  0
 23 24  1  0
 25 23  2  0
M  END
$$$$
