QSK.pdb
     RDKit          3D

 25 24  0  0  1  0  0  0  0  0999 V2000
   11.2913  -20.0847   15.7616 N   0  0  0  0  0  0  0  0  0  0  0  0
    9.9628  -20.4681   15.5122 C   0  0  0  0  0  0  0  0  0  0  0  0
    9.6801  -21.3220   14.6735 O   0  0  0  0  0  0  0  0  0  0  0  0
    8.8687  -19.8081   16.2994 C   0  0  0  0  0  0  0  0  0  0  0  0
    9.4699  -18.8865   17.3204 C   0  0  0  0  0  0  0  0  0  0  0  0
    8.5328  -17.7474   17.6738 C   0  0  2  0  0  0  0  0  0  0  0  0
    8.4265  -16.9001   16.4577 N   0  0  0  0  0  0  0  0  0  0  0  0
    9.0929  -16.9376   18.7735 C   0  0  0  0  0  0  0  0  0  0  0  0
   10.3474  -16.7383   18.7842 O   0  0  0  0  0  0  0  0  0  0  0  0
    6.9746  -15.6992   22.2346 O   0  0  0  0  0  0  0  0  0  0  0  0
    7.8997  -14.8431   21.6900 C   0  0  0  0  0  0  0  0  0  0  0  0
    8.9560  -15.6214   20.8879 C   0  0  2  0  0  0  0  0  0  0  0  0
    8.3179  -16.3631   19.8206 N   0  0  0  0  0  0  0  0  0  0  0  0
    9.7747  -16.4618   21.7746 C   0  0  0  0  0  0  0  0  0  0  0  0
    9.5530  -17.6929   21.8257 O   0  0  0  0  0  0  0  0  0  0  0  0
   10.8106  -15.9158   22.5754 N   0  0  0  0  0  0  0  0  0  0  0  0
   11.5688  -16.7399   23.5218 C   0  0  1  0  0  0  0  0  0  0  0  0
   13.0364  -16.2787   23.3819 C   0  0  0  0  0  0  0  0  0  0  0  0
   13.9282  -17.0785   24.2576 C   0  0  0  0  0  0  0  0  0  0  0  0
   15.3550  -16.6451   24.1536 C   0  0  0  0  0  0  0  0  0  0  0  0
   16.3383  -17.3686   24.9903 C   0  0  0  0  0  0  0  0  0  0  0  0
   17.7238  -17.0545   24.7663 N   0  0  0  0  0  0  0  0  0  0  0  0
   11.1588  -16.4191   24.9021 C   0  0  0  0  0  0  0  0  0  0  0  0
   11.4461  -17.2881   25.9309 O   0  0  0  0  0  0  0  0  0  0  0  0
   10.5499  -15.3552   25.1313 O   0  0  0  0  0  0  0  0  0  0  0  0
  1  2  1  0
  2  4  1  0
  2  3  2  0
  4  5  1  0
  6  5  1  0
  6  8  1  0
  6  7  1  6
  8  9  2  0
 11 10  1  0
 12 11  1  1
 13  8  1  0
 13 12  1  0
 14 15  2  0
 14 12  1  0
 16 14  1  0
 17 16  1  0
 17 18  1  1
 19 18  1  0
 20 19  1  0
 21 22  1  0
 21 20  1  0
 23 17  1  0
 23 24  1  0
 25 23  2  0
M  END
$$$$
