QSK.pdb
     RDKit          3D

 25 24  0  0  1  0  0  0  0  0999 V2000
   14.9305  -13.4509   19.2926 N   0  0  0  0  0  0  0  0  0  0  0  0
   15.0612  -14.6577   18.5849 C   0  0  0  0  0  0  0  0  0  0  0  0
   16.1604  -15.1076   18.2662 O   0  0  0  0  0  0  0  0  0  0  0  0
   13.8150  -15.4075   18.2145 C   0  0  0  0  0  0  0  0  0  0  0  0
   12.6190  -14.7153   18.8007 C   0  0  0  0  0  0  0  0  0  0  0  0
   11.3376  -15.4835   18.5389 C   0  0  2  0  0  0  0  0  0  0  0  0
   10.4784  -14.5956   17.7134 N   0  0  0  0  0  0  0  0  0  0  0  0
   10.6419  -15.7786   19.8068 C   0  0  0  0  0  0  0  0  0  0  0  0
   10.1380  -14.8044   20.4478 O   0  0  0  0  0  0  0  0  0  0  0  0
   10.4276  -19.5916   21.7940 O   0  0  0  0  0  0  0  0  0  0  0  0
    9.3505  -18.7417   21.7414 C   0  0  0  0  0  0  0  0  0  0  0  0
    9.8151  -17.2808   21.6182 C   0  0  2  0  0  0  0  0  0  0  0  0
   10.4963  -17.0841   20.3558 N   0  0  0  0  0  0  0  0  0  0  0  0
   10.6200  -16.8857   22.7839 C   0  0  0  0  0  0  0  0  0  0  0  0
   11.8687  -16.8948   22.6955 O   0  0  0  0  0  0  0  0  0  0  0  0
   10.0201  -16.4938   24.0083 N   0  0  0  0  0  0  0  0  0  0  0  0
   10.8124  -16.2952   25.2258 C   0  0  1  0  0  0  0  0  0  0  0  0
    9.8719  -15.5686   26.2124 C   0  0  0  0  0  0  0  0  0  0  0  0
   10.5196  -15.4038   27.5372 C   0  0  0  0  0  0  0  0  0  0  0  0
    9.6592  -14.6423   28.4933 C   0  0  0  0  0  0  0  0  0  0  0  0
   10.1665  -14.4875   29.8751 C   0  0  0  0  0  0  0  0  0  0  0  0
    9.3513  -13.7153   30.7737 N   0  0  0  0  0  0  0  0  0  0  0  0
   11.1284  -17.6016   25.8337 C   0  0  0  0  0  0  0  0  0  0  0  0
   12.3014  -17.7757   26.5337 O   0  0  0  0  0  0  0  0  0  0  0  0
   10.3258  -18.5480   25.7095 O   0  0  0  0  0  0  0  0  0  0  0  0
  1  2  1  0
  2  4  1  0
  2  3  2  0
  4  5  1  0
  6  5  1  0
  6  8  1  0
  6  7  1  6
  8  9  2  0
 11 10  1  0
 12 11  1  1
 13  8  1  0
 13 12  1  0
 14 15  2  0
 14 12  1  0
 16 14  1  0
 17 16  1  0
 17 18  1  1
 19 18  1  0
 20 19  1  0
 21 22  1  0
 21 20  1  0
 23 17  1  0
 23 24  1  0
 25 23  2  0
M  END
$$$$
