QSK.pdb
     RDKit          3D

 25 24  0  0  1  0  0  0  0  0999 V2000
   11.0591  -21.3661   18.8287 N   0  0  0  0  0  0  0  0  0  0  0  0
   10.8528  -20.9220   17.5118 C   0  0  0  0  0  0  0  0  0  0  0  0
   11.1700  -21.6046   16.5393 O   0  0  0  0  0  0  0  0  0  0  0  0
   10.2266  -19.5743   17.3018 C   0  0  0  0  0  0  0  0  0  0  0  0
    9.9165  -18.9516   18.6320 C   0  0  0  0  0  0  0  0  0  0  0  0
    9.1641  -17.6432   18.4810 C   0  0  2  0  0  0  0  0  0  0  0  0
    9.6457  -17.0268   17.2176 N   0  0  0  0  0  0  0  0  0  0  0  0
    9.4719  -16.7358   19.6038 C   0  0  0  0  0  0  0  0  0  0  0  0
   10.6934  -16.4869   19.8479 O   0  0  0  0  0  0  0  0  0  0  0  0
    6.6105  -15.4756   22.4029 O   0  0  0  0  0  0  0  0  0  0  0  0
    7.6681  -14.6278   22.1841 C   0  0  0  0  0  0  0  0  0  0  0  0
    8.8754  -15.3970   21.6221 C   0  0  2  0  0  0  0  0  0  0  0  0
    8.4885  -16.1192   20.4283 N   0  0  0  0  0  0  0  0  0  0  0  0
    9.4782  -16.2545   22.6537 C   0  0  0  0  0  0  0  0  0  0  0  0
    9.1650  -17.4657   22.7007 O   0  0  0  0  0  0  0  0  0  0  0  0
   10.4064  -15.7469   23.5988 N   0  0  0  0  0  0  0  0  0  0  0  0
   10.9886  -16.5982   24.6409 C   0  0  1  0  0  0  0  0  0  0  0  0
   12.4844  -16.2166   24.6930 C   0  0  0  0  0  0  0  0  0  0  0  0
   13.2698  -17.0200   23.7237 C   0  0  0  0  0  0  0  0  0  0  0  0
   14.7167  -16.6449   23.7240 C   0  0  0  0  0  0  0  0  0  0  0  0
   15.5971  -17.3678   22.7790 C   0  0  0  0  0  0  0  0  0  0  0  0
   16.9701  -16.9426   22.7299 N   0  0  0  0  0  0  0  0  0  0  0  0
   10.4190  -16.2398   25.9536 C   0  0  0  0  0  0  0  0  0  0  0  0
    9.5168  -15.2048   26.0593 O   0  0  0  0  0  0  0  0  0  0  0  0
   10.7601  -16.8806   26.9677 O   0  0  0  0  0  0  0  0  0  0  0  0
  1  2  1  0
  2  4  1  0
  2  3  2  0
  4  5  1  0
  6  5  1  0
  6  8  1  0
  6  7  1  6
  8  9  2  0
 11 10  1  0
 12 11  1  1
 13  8  1  0
 13 12  1  0
 14 15  2  0
 14 12  1  0
 16 14  1  0
 17 16  1  0
 17 18  1  1
 19 18  1  0
 20 19  1  0
 21 22  1  0
 21 20  1  0
 23 17  1  0
 23 24  1  0
 25 23  2  0
M  END
$$$$
