QSK.pdb
     RDKit          3D

 25 24  0  0  1  0  0  0  0  0999 V2000
    9.1093  -13.6320   22.2149 N   0  0  0  0  0  0  0  0  0  0  0  0
    8.1516  -13.8983   21.2218 C   0  0  0  0  0  0  0  0  0  0  0  0
    7.7508  -13.0241   20.4555 O   0  0  0  0  0  0  0  0  0  0  0  0
    7.6121  -15.2939   21.1052 C   0  0  0  0  0  0  0  0  0  0  0  0
    8.2400  -16.1648   22.1544 C   0  0  0  0  0  0  0  0  0  0  0  0
    9.6683  -16.5332   21.8012 C   0  0  2  0  0  0  0  0  0  0  0  0
    9.6141  -17.1899   20.4692 N   0  0  0  0  0  0  0  0  0  0  0  0
   10.2151  -17.4892   22.7840 C   0  0  0  0  0  0  0  0  0  0  0  0
    9.3919  -18.1436   23.4966 O   0  0  0  0  0  0  0  0  0  0  0  0
   14.2621  -17.8845   23.9844 O   0  0  0  0  0  0  0  0  0  0  0  0
   13.5639  -19.0226   23.6639 C   0  0  0  0  0  0  0  0  0  0  0  0
   12.0524  -18.8026   23.8428 C   0  0  2  0  0  0  0  0  0  0  0  0
   11.6047  -17.7276   22.9823 N   0  0  0  0  0  0  0  0  0  0  0  0
   11.7160  -18.5953   25.2593 C   0  0  0  0  0  0  0  0  0  0  0  0
   10.7733  -17.8273   25.5573 O   0  0  0  0  0  0  0  0  0  0  0  0
   12.4310  -19.2424   26.2998 N   0  0  0  0  0  0  0  0  0  0  0  0
   12.0182  -19.1329   27.7024 C   0  0  1  0  0  0  0  0  0  0  0  0
   10.9290  -20.2113   27.8940 C   0  0  0  0  0  0  0  0  0  0  0  0
   10.9324  -20.7254   29.2860 C   0  0  0  0  0  0  0  0  0  0  0  0
    9.9293  -21.8155   29.4855 C   0  0  0  0  0  0  0  0  0  0  0  0
    9.7958  -22.3617   30.8546 C   0  0  0  0  0  0  0  0  0  0  0  0
    8.8282  -23.4105   31.0341 N   0  0  0  0  0  0  0  0  0  0  0  0
   13.1400  -19.5095   28.5832 C   0  0  0  0  0  0  0  0  0  0  0  0
   13.1128  -19.1811   29.9203 O   0  0  0  0  0  0  0  0  0  0  0  0
   14.1137  -20.1276   28.1088 O   0  0  0  0  0  0  0  0  0  0  0  0
  1  2  1  0
  2  4  1  0
  2  3  2  0
  4  5  1  0
  6  5  1  0
  6  8  1  0
  6  7  1  6
  8  9  2  0
 11 10  1  0
 12 11  1  1
 13  8  1  0
 13 12  1  0
 14 15  2  0
 14 12  1  0
 16 14  1  0
 17 16  1  0
 17 18  1  6
 19 18  1  0
 20 19  1  0
 21 22  1  0
 21 20  1  0
 23 17  1  0
 23 24  1  0
 25 23  2  0
M  END
$$$$
