QSK.pdb
     RDKit          3D

 25 24  0  0  1  0  0  0  0  0999 V2000
   16.4819  -17.7343   19.8066 N   0  0  0  0  0  0  0  0  0  0  0  0
   16.4029  -18.3679   18.5549 C   0  0  0  0  0  0  0  0  0  0  0  0
   17.3782  -18.9121   18.0402 O   0  0  0  0  0  0  0  0  0  0  0  0
   15.0844  -18.3724   17.8380 C   0  0  0  0  0  0  0  0  0  0  0  0
   14.0567  -17.6638   18.6718 C   0  0  0  0  0  0  0  0  0  0  0  0
   12.6648  -18.2234   18.4477 C   0  0  2  0  0  0  0  0  0  0  0  0
   12.1813  -17.6432   17.1680 N   0  0  0  0  0  0  0  0  0  0  0  0
   11.7575  -17.8068   19.5349 C   0  0  0  0  0  0  0  0  0  0  0  0
   11.9242  -16.6519   20.0370 O   0  0  0  0  0  0  0  0  0  0  0  0
    7.7350  -18.5139   22.1754 O   0  0  0  0  0  0  0  0  0  0  0  0
    8.5851  -18.9951   21.2106 C   0  0  0  0  0  0  0  0  0  0  0  0
    9.8387  -18.1112   21.0992 C   0  0  2  0  0  0  0  0  0  0  0  0
   10.7061  -18.6140   20.0547 N   0  0  0  0  0  0  0  0  0  0  0  0
   10.5079  -17.9824   22.4024 C   0  0  0  0  0  0  0  0  0  0  0  0
   11.4068  -18.7974   22.7107 O   0  0  0  0  0  0  0  0  0  0  0  0
   10.1628  -16.9587   23.3220 N   0  0  0  0  0  0  0  0  0  0  0  0
   10.6713  -16.9546   24.6971 C   0  0  1  0  0  0  0  0  0  0  0  0
    9.9957  -15.7449   25.3799 C   0  0  0  0  0  0  0  0  0  0  0  0
   10.4316  -15.6231   26.7930 C   0  0  0  0  0  0  0  0  0  0  0  0
    9.7503  -14.4939   27.4966 C   0  0  0  0  0  0  0  0  0  0  0  0
   10.0874  -14.2919   28.9235 C   0  0  0  0  0  0  0  0  0  0  0  0
    9.4201  -13.2072   29.5918 N   0  0  0  0  0  0  0  0  0  0  0  0
   10.1956  -18.1564   25.4083 C   0  0  0  0  0  0  0  0  0  0  0  0
   11.0120  -18.7948   26.3149 O   0  0  0  0  0  0  0  0  0  0  0  0
    9.0484  -18.5905   25.1829 O   0  0  0  0  0  0  0  0  0  0  0  0
  1  2  1  0
  2  4  1  0
  2  3  2  0
  4  5  1  0
  6  5  1  0
  6  8  1  0
  6  7  1  6
  8  9  2  0
 11 10  1  0
 12 11  1  1
 13  8  1  0
 13 12  1  0
 14 15  2  0
 14 12  1  0
 16 14  1  0
 17 16  1  0
 17 18  1  1
 19 18  1  0
 20 19  1  0
 21 22  1  0
 21 20  1  0
 23 17  1  0
 23 24  1  0
 25 23  2  0
M  END
$$$$
