QSK.pdb
     RDKit          3D

 25 24  0  0  1  0  0  0  0  0999 V2000
    1.4215  -20.2887   21.3178 N   0  0  0  0  0  0  0  0  0  0  0  0
    2.8198  -20.2115   21.2028 C   0  0  0  0  0  0  0  0  0  0  0  0
    3.3809  -19.2077   20.7672 O   0  0  0  0  0  0  0  0  0  0  0  0
    3.6383  -21.3956   21.6276 C   0  0  0  0  0  0  0  0  0  0  0  0
    4.7894  -20.9334   22.4731 C   0  0  0  0  0  0  0  0  0  0  0  0
    5.9593  -20.4676   21.6275 C   0  0  2  0  0  0  0  0  0  0  0  0
    6.1857  -21.5243   20.6076 N   0  0  0  0  0  0  0  0  0  0  0  0
    7.1748  -20.3323   22.4541 C   0  0  0  0  0  0  0  0  0  0  0  0
    7.7594  -21.3963   22.8281 O   0  0  0  0  0  0  0  0  0  0  0  0
    8.6515  -16.6864   23.8988 O   0  0  0  0  0  0  0  0  0  0  0  0
    9.5791  -17.6340   23.5422 C   0  0  0  0  0  0  0  0  0  0  0  0
    8.9705  -19.0447   23.6111 C   0  0  2  0  0  0  0  0  0  0  0  0
    7.7357  -19.0871   22.8562 N   0  0  0  0  0  0  0  0  0  0  0  0
    8.8172  -19.4829   25.0065 C   0  0  0  0  0  0  0  0  0  0  0  0
    7.7876  -19.1569   25.6396 O   0  0  0  0  0  0  0  0  0  0  0  0
    9.8053  -20.2661   25.6569 N   0  0  0  0  0  0  0  0  0  0  0  0
    9.6799  -20.6499   27.0663 C   0  0  1  0  0  0  0  0  0  0  0  0
   10.3262  -22.0491   27.1687 C   0  0  0  0  0  0  0  0  0  0  0  0
    9.6331  -23.0183   26.2843 C   0  0  0  0  0  0  0  0  0  0  0  0
   10.2457  -24.3801   26.3528 C   0  0  0  0  0  0  0  0  0  0  0  0
    9.6642  -25.4218   25.4769 C   0  0  0  0  0  0  0  0  0  0  0  0
   10.3254  -26.6990   25.4749 N   0  0  0  0  0  0  0  0  0  0  0  0
   10.4958  -19.7495   27.9028 C   0  0  0  0  0  0  0  0  0  0  0  0
   10.4575  -19.8531   29.2754 O   0  0  0  0  0  0  0  0  0  0  0  0
   11.2209  -18.8933   27.3584 O   0  0  0  0  0  0  0  0  0  0  0  0
  1  2  1  0
  2  4  1  0
  2  3  2  0
  4  5  1  0
  6  5  1  0
  6  8  1  0
  6  7  1  6
  8  9  2  0
 11 10  1  0
 12 11  1  1
 13  8  1  0
 13 12  1  0
 14 15  2  0
 14 12  1  0
 16 14  1  0
 17 16  1  0
 17 18  1  6
 19 18  1  0
 20 19  1  0
 21 22  1  0
 21 20  1  0
 23 17  1  0
 23 24  1  0
 25 23  2  0
M  END
$$$$
