QSK.pdb
     RDKit          3D

 25 24  0  0  1  0  0  0  0  0999 V2000
   10.0857  -22.5562   18.8299 N   0  0  0  0  0  0  0  0  0  0  0  0
   11.1112  -21.9861   18.0568 C   0  0  0  0  0  0  0  0  0  0  0  0
   12.2974  -22.2291   18.2712 O   0  0  0  0  0  0  0  0  0  0  0  0
   10.7324  -21.0563   16.9413 C   0  0  0  0  0  0  0  0  0  0  0  0
    9.2376  -20.9384   16.8710 C   0  0  0  0  0  0  0  0  0  0  0  0
    8.7975  -19.5216   16.5550 C   0  0  2  0  0  0  0  0  0  0  0  0
    9.6176  -19.0766   15.3986 N   0  0  0  0  0  0  0  0  0  0  0  0
    9.0617  -18.6291   17.7007 C   0  0  0  0  0  0  0  0  0  0  0  0
   10.2426  -18.1840   17.8460 O   0  0  0  0  0  0  0  0  0  0  0  0
    6.3650  -17.8408   20.8450 O   0  0  0  0  0  0  0  0  0  0  0  0
    7.1288  -16.7958   20.3869 C   0  0  0  0  0  0  0  0  0  0  0  0
    8.4133  -17.3126   19.7175 C   0  0  2  0  0  0  0  0  0  0  0  0
    8.0784  -18.2325   18.6508 N   0  0  0  0  0  0  0  0  0  0  0  0
    9.3317  -17.8836   20.7142 C   0  0  0  0  0  0  0  0  0  0  0  0
    9.3370  -19.1213   20.9016 O   0  0  0  0  0  0  0  0  0  0  0  0
   10.2137  -17.0696   21.4707 N   0  0  0  0  0  0  0  0  0  0  0  0
   11.0828  -17.6328   22.5085 C   0  0  1  0  0  0  0  0  0  0  0  0
   12.4772  -17.0201   22.2516 C   0  0  0  0  0  0  0  0  0  0  0  0
   13.5112  -18.0799   22.1539 C   0  0  0  0  0  0  0  0  0  0  0  0
   14.8750  -17.5153   21.9184 C   0  0  0  0  0  0  0  0  0  0  0  0
   15.9767  -18.4836   21.7202 C   0  0  0  0  0  0  0  0  0  0  0  0
   17.2739  -17.9292   21.4402 N   0  0  0  0  0  0  0  0  0  0  0  0
   10.6519  -17.1517   23.8348 C   0  0  0  0  0  0  0  0  0  0  0  0
   11.1920  -17.6950   24.9791 O   0  0  0  0  0  0  0  0  0  0  0  0
    9.7948  -16.2492   23.9131 O   0  0  0  0  0  0  0  0  0  0  0  0
  1  2  1  0
  2  4  1  0
  2  3  2  0
  4  5  1  0
  6  5  1  0
  6  8  1  0
  6  7  1  6
  8  9  2  0
 11 10  1  0
 12 11  1  1
 13  8  1  0
 13 12  1  0
 14 15  2  0
 14 12  1  0
 16 14  1  0
 17 16  1  0
 17 18  1  6
 19 18  1  0
 20 19  1  0
 21 22  1  0
 21 20  1  0
 23 17  1  0
 23 24  1  0
 25 23  2  0
M  END
$$$$
