QSK.pdb
     RDKit          3D

 25 24  0  0  1  0  0  0  0  0999 V2000
   13.0936  -14.6756   19.3258 N   0  0  0  0  0  0  0  0  0  0  0  0
   12.6924  -14.7273   17.9802 C   0  0  0  0  0  0  0  0  0  0  0  0
   13.4376  -15.1463   17.0962 O   0  0  0  0  0  0  0  0  0  0  0  0
   11.3126  -14.2542   17.6272 C   0  0  0  0  0  0  0  0  0  0  0  0
   10.5735  -13.8814   18.8794 C   0  0  0  0  0  0  0  0  0  0  0  0
    9.0890  -14.1716   18.7661 C   0  0  2  0  0  0  0  0  0  0  0  0
    8.4792  -12.9851   18.1115 N   0  0  0  0  0  0  0  0  0  0  0  0
    8.4902  -14.3399   20.1048 C   0  0  0  0  0  0  0  0  0  0  0  0
    8.4640  -13.3297   20.8744 O   0  0  0  0  0  0  0  0  0  0  0  0
    7.1688  -18.0493   21.8924 O   0  0  0  0  0  0  0  0  0  0  0  0
    6.5197  -16.8572   22.0998 C   0  0  0  0  0  0  0  0  0  0  0  0
    7.4939  -15.6754   21.9610 C   0  0  2  0  0  0  0  0  0  0  0  0
    7.9375  -15.5600   20.5876 N   0  0  0  0  0  0  0  0  0  0  0  0
    8.5994  -15.7902   22.9240 C   0  0  0  0  0  0  0  0  0  0  0  0
    9.7300  -16.1414   22.5172 O   0  0  0  0  0  0  0  0  0  0  0  0
    8.4203  -15.5136   24.3039 N   0  0  0  0  0  0  0  0  0  0  0  0
    9.4871  -15.7489   25.2818 C   0  0  1  0  0  0  0  0  0  0  0  0
    9.0994  -14.9112   26.5202 C   0  0  0  0  0  0  0  0  0  0  0  0
   10.0553  -15.1371   27.6325 C   0  0  0  0  0  0  0  0  0  0  0  0
    9.6628  -14.3973   28.8706 C   0  0  0  0  0  0  0  0  0  0  0  0
   10.5697  -14.5095   30.0348 C   0  0  0  0  0  0  0  0  0  0  0  0
   10.1853  -13.7878   31.2179 N   0  0  0  0  0  0  0  0  0  0  0  0
    9.4693  -17.1608   25.7090 C   0  0  0  0  0  0  0  0  0  0  0  0
   10.6244  -17.7669   26.1501 O   0  0  0  0  0  0  0  0  0  0  0  0
    8.4006  -17.8023   25.6679 O   0  0  0  0  0  0  0  0  0  0  0  0
  1  2  1  0
  2  4  1  0
  2  3  2  0
  4  5  1  0
  6  5  1  0
  6  8  1  0
  6  7  1  1
  8  9  2  0
 11 10  1  0
 12 11  1  6
 13  8  1  0
 13 12  1  0
 14 15  2  0
 14 12  1  0
 16 14  1  0
 17 16  1  0
 17 18  1  1
 19 18  1  0
 20 19  1  0
 21 22  1  0
 21 20  1  0
 23 17  1  0
 23 24  1  0
 25 23  2  0
M  END
$$$$
