HKY.pdb
     RDKit          3D

 32 33  0  0  1  0  0  0  0  0999 V2000
   18.5984  -12.7536  -16.2607 N   0  0  0  0  0  0  0  0  0  0  0  0
   19.2823  -11.7933  -17.0983 C   0  0  1  0  0  0  0  0  0  0  0  0
   18.2724  -10.8643  -17.7340 C   0  0  0  0  0  0  0  0  0  0  0  0
   17.4471  -11.6216  -18.7053 C   0  0  0  0  0  0  0  0  0  0  0  0
   17.7677  -12.0099  -20.0038 C   0  0  0  0  0  0  0  0  0  0  0  0
   16.7065  -12.6748  -20.4935 N   0  0  0  0  0  0  0  0  0  0  0  0
   15.7667  -12.6954  -19.5322 C   0  0  0  0  0  0  0  0  0  0  0  0
   16.2107  -12.0555  -18.4394 N   0  0  0  0  0  0  0  0  0  0  0  0
   20.2186  -11.0222  -16.2416 C   0  0  0  0  0  0  0  0  0  0  0  0
   19.8546  -10.7003  -15.0917 O   0  0  0  0  0  0  0  0  0  0  0  0
   21.4922  -10.6499  -16.6899 N   0  0  0  0  0  0  0  0  0  0  0  0
   22.4707   -9.9109  -15.9030 C   0  0  1  0  0  0  0  0  0  0  0  0
   23.8101  -10.4438  -16.2165 C   0  0  0  0  0  0  0  0  0  0  0  0
   24.1210  -11.7968  -15.6516 C   0  0  0  0  0  0  0  0  0  0  0  0
   25.5558  -12.1464  -15.9495 C   0  0  0  0  0  0  0  0  0  0  0  0
   25.9272  -13.5050  -15.3789 C   0  0  0  0  0  0  0  0  0  0  0  0
   27.3058  -13.7731  -15.7438 N   0  0  0  0  0  0  0  0  0  0  0  0
   22.3348   -8.4539  -16.1547 C   0  0  0  0  0  0  0  0  0  0  0  0
   22.3599   -8.0642  -17.3481 O   0  0  0  0  0  0  0  0  0  0  0  0
   19.2066   -0.3409  -16.4158 O   0  0  0  0  0  0  0  0  0  0  0  0
   19.5523   -1.6925  -16.2408 C   0  0  0  0  0  0  0  0  0  0  0  0
   19.2940   -2.3002  -15.0321 C   0  0  0  0  0  0  0  0  0  0  0  0
   19.6296   -3.6301  -14.8477 C   0  0  0  0  0  0  0  0  0  0  0  0
   20.2210   -4.3854  -15.8370 C   0  0  0  0  0  0  0  0  0  0  0  0
   20.5709   -5.7907  -15.6238 C   0  0  0  0  0  0  0  0  0  0  0  0
   22.0450   -6.0523  -15.4330 C   0  0  2  0  0  0  0  0  0  0  0  0
   22.1810   -7.4904  -15.1512 N   0  0  0  0  0  0  0  0  0  0  0  0
   22.6102   -5.3426  -14.2584 C   0  0  0  0  0  0  0  0  0  0  0  0
   23.1643   -4.0899  -14.3336 O   0  0  0  0  0  0  0  0  0  0  0  0
   20.4730   -3.7615  -17.0418 C   0  0  0  0  0  0  0  0  0  0  0  0
   20.1447   -2.4248  -17.2521 C   0  0  0  0  0  0  0  0  0  0  0  0
   22.5828   -5.9204  -13.1185 O   0  0  0  0  0  0  0  0  0  0  0  0
  2  1  1  1
  2  9  1  0
  2  3  1  0
  4  3  1  0
  4  5  2  0
  6  5  1  0
  7  6  1  0
  8  7  2  0
  8  4  1  0
  9 10  2  0
 11 12  1  0
 11  9  1  0
 12 13  1  6
 13 14  1  0
 15 16  1  0
 15 14  1  0
 16 17  1  0
 18 19  2  0
 18 12  1  0
 20 21  1  0
 21 31  2  0
 21 22  1  0
 22 23  2  0
 23 24  1  0
 24 25  1  0
 26 25  1  1
 26 28  1  0
 26 27  1  0
 27 18  1  0
 28 29  1  0
 30 24  2  0
 31 30  1  0
 32 28  2  0
M  END
$$$$
