HKY.pdb
     RDKit          3D

 32 33  0  0  1  0  0  0  0  0999 V2000
   24.6330  -18.9953  -16.4491 N   0  0  0  0  0  0  0  0  0  0  0  0
   25.6439  -19.5945  -15.6061 C   0  0  1  0  0  0  0  0  0  0  0  0
   26.9601  -18.8763  -15.8032 C   0  0  0  0  0  0  0  0  0  0  0  0
   27.4929  -19.1824  -17.1525 C   0  0  0  0  0  0  0  0  0  0  0  0
   28.1904  -20.3103  -17.5777 C   0  0  0  0  0  0  0  0  0  0  0  0
   28.4655  -20.1392  -18.8828 N   0  0  0  0  0  0  0  0  0  0  0  0
   27.9563  -18.9497  -19.2481 C   0  0  0  0  0  0  0  0  0  0  0  0
   27.3620  -18.3606  -18.1990 N   0  0  0  0  0  0  0  0  0  0  0  0
   25.1983  -19.4681  -14.1952 C   0  0  0  0  0  0  0  0  0  0  0  0
   25.0276  -18.3269  -13.7187 O   0  0  0  0  0  0  0  0  0  0  0  0
   24.9665  -20.5913  -13.3913 N   0  0  0  0  0  0  0  0  0  0  0  0
   24.3929  -20.5552  -12.0525 C   0  0  1  0  0  0  0  0  0  0  0  0
   23.2133  -21.4409  -12.0335 C   0  0  0  0  0  0  0  0  0  0  0  0
   21.9115  -20.7995  -12.4077 C   0  0  0  0  0  0  0  0  0  0  0  0
   21.1292  -21.7334  -13.2938 C   0  0  0  0  0  0  0  0  0  0  0  0
   19.7892  -21.1345  -13.6876 C   0  0  0  0  0  0  0  0  0  0  0  0
   19.1534  -20.6463  -12.4780 N   0  0  0  0  0  0  0  0  0  0  0  0
   25.4230  -20.9124  -11.0445 C   0  0  0  0  0  0  0  0  0  0  0  0
   25.9199  -22.0642  -11.1026 O   0  0  0  0  0  0  0  0  0  0  0  0
   29.9345  -20.1852   -3.3331 O   0  0  0  0  0  0  0  0  0  0  0  0
   29.2790  -19.9594   -4.5563 C   0  0  0  0  0  0  0  0  0  0  0  0
   29.8142  -20.4847   -5.7116 C   0  0  0  0  0  0  0  0  0  0  0  0
   29.1783  -20.2693   -6.9216 C   0  0  0  0  0  0  0  0  0  0  0  0
   28.0134  -19.5400   -7.0229 C   0  0  0  0  0  0  0  0  0  0  0  0
   27.3550  -19.3207   -8.3118 C   0  0  0  0  0  0  0  0  0  0  0  0
   26.6131  -20.5182   -8.8534 C   0  0  2  0  0  0  0  0  0  0  0  0
   25.8743  -20.0514  -10.0376 N   0  0  0  0  0  0  0  0  0  0  0  0
   25.5960  -21.0434   -7.9086 C   0  0  0  0  0  0  0  0  0  0  0  0
   25.8647  -22.0196   -6.9830 O   0  0  0  0  0  0  0  0  0  0  0  0
   27.4904  -19.0207   -5.8563 C   0  0  0  0  0  0  0  0  0  0  0  0
   28.1114  -19.2235   -4.6266 C   0  0  0  0  0  0  0  0  0  0  0  0
   24.4103  -20.5678   -7.9539 O   0  0  0  0  0  0  0  0  0  0  0  0
  2  1  1  6
  2  9  1  0
  2  3  1  0
  4  3  1  0
  4  5  2  0
  6  5  1  0
  7  6  1  0
  8  7  2  0
  8  4  1  0
  9 10  2  0
 11 12  1  0
 11  9  1  0
 12 13  1  6
 13 14  1  0
 15 16  1  0
 15 14  1  0
 16 17  1  0
 18 19  2  0
 18 12  1  0
 20 21  1  0
 21 31  2  0
 21 22  1  0
 22 23  2  0
 23 24  1  0
 24 25  1  0
 26 25  1  1
 26 28  1  0
 26 27  1  0
 27 18  1  0
 28 29  1  0
 30 24  2  0
 31 30  1  0
 32 28  2  0
M  END
$$$$
