HKY.pdb
     RDKit          3D

 32 33  0  0  1  0  0  0  0  0999 V2000
   21.6221  -16.4555  -18.7271 N   0  0  0  0  0  0  0  0  0  0  0  0
   21.8321  -16.5457  -17.2991 C   0  0  1  0  0  0  0  0  0  0  0  0
   20.5957  -16.0649  -16.5730 C   0  0  0  0  0  0  0  0  0  0  0  0
   20.4487  -14.6019  -16.7625 C   0  0  0  0  0  0  0  0  0  0  0  0
   19.7031  -13.9187  -17.7201 C   0  0  0  0  0  0  0  0  0  0  0  0
   19.8774  -12.6043  -17.4964 N   0  0  0  0  0  0  0  0  0  0  0  0
   20.7002  -12.4822  -16.4401 C   0  0  0  0  0  0  0  0  0  0  0  0
   21.0526  -13.6953  -15.9874 N   0  0  0  0  0  0  0  0  0  0  0  0
   22.1020  -17.9670  -16.9641 C   0  0  0  0  0  0  0  0  0  0  0  0
   21.2729  -18.8339  -17.3098 O   0  0  0  0  0  0  0  0  0  0  0  0
   23.2571  -18.3558  -16.2740 N   0  0  0  0  0  0  0  0  0  0  0  0
   23.5330  -19.7068  -15.8035 C   0  0  1  0  0  0  0  0  0  0  0  0
   24.9647  -19.7898  -15.4575 C   0  0  0  0  0  0  0  0  0  0  0  0
   25.4279  -21.1078  -14.9146 C   0  0  0  0  0  0  0  0  0  0  0  0
   25.7446  -22.0368  -16.0574 C   0  0  0  0  0  0  0  0  0  0  0  0
   26.3036  -23.3596  -15.5602 C   0  0  0  0  0  0  0  0  0  0  0  0
   26.4036  -24.2511  -16.7008 N   0  0  0  0  0  0  0  0  0  0  0  0
   22.6268  -20.0522  -14.6791 C   0  0  0  0  0  0  0  0  0  0  0  0
   22.6394  -19.3046  -13.6703 O   0  0  0  0  0  0  0  0  0  0  0  0
   15.4808  -21.6165  -10.0283 O   0  0  0  0  0  0  0  0  0  0  0  0
   16.5718  -21.3146  -10.8622 C   0  0  0  0  0  0  0  0  0  0  0  0
   16.4448  -21.4876  -12.2227 C   0  0  0  0  0  0  0  0  0  0  0  0
   17.5115  -21.1938  -13.0539 C   0  0  0  0  0  0  0  0  0  0  0  0
   18.7155  -20.7281  -12.5717 C   0  0  0  0  0  0  0  0  0  0  0  0
   19.8342  -20.4240  -13.4656 C   0  0  0  0  0  0  0  0  0  0  0  0
   20.9013  -21.4896  -13.5264 C   0  0  2  0  0  0  0  0  0  0  0  0
   21.7627  -21.1532  -14.6713 N   0  0  0  0  0  0  0  0  0  0  0  0
   20.3529  -22.8412  -13.8009 C   0  0  0  0  0  0  0  0  0  0  0  0
   20.0152  -23.7293  -12.8115 O   0  0  0  0  0  0  0  0  0  0  0  0
   18.8264  -20.5603  -11.2065 C   0  0  0  0  0  0  0  0  0  0  0  0
   17.7676  -20.8488  -10.3493 C   0  0  0  0  0  0  0  0  0  0  0  0
   20.1845  -23.2019  -15.0157 O   0  0  0  0  0  0  0  0  0  0  0  0
  2  1  1  6
  2  9  1  0
  2  3  1  0
  4  3  1  0
  4  5  2  0
  6  5  1  0
  7  6  1  0
  8  7  2  0
  8  4  1  0
  9 10  2  0
 11 12  1  0
 11  9  1  0
 12 13  1  1
 13 14  1  0
 15 16  1  0
 15 14  1  0
 16 17  1  0
 18 19  2  0
 18 12  1  0
 20 21  1  0
 21 31  2  0
 21 22  1  0
 22 23  2  0
 23 24  1  0
 24 25  1  0
 26 25  1  6
 26 28  1  0
 26 27  1  0
 27 18  1  0
 28 29  1  0
 30 24  2  0
 31 30  1  0
 32 28  2  0
M  END
$$$$
