HKY.pdb
     RDKit          3D

 32 33  0  0  1  0  0  0  0  0999 V2000
   16.4750  -13.9986  -17.1084 N   0  0  0  0  0  0  0  0  0  0  0  0
   17.0665  -13.3088  -15.9833 C   0  0  1  0  0  0  0  0  0  0  0  0
   18.5641  -13.5184  -15.9899 C   0  0  0  0  0  0  0  0  0  0  0  0
   18.8638  -14.9504  -15.7497 C   0  0  0  0  0  0  0  0  0  0  0  0
   19.2765  -15.9183  -16.6620 C   0  0  0  0  0  0  0  0  0  0  0  0
   19.4226  -17.0692  -15.9820 N   0  0  0  0  0  0  0  0  0  0  0  0
   19.1114  -16.8194  -14.6981 C   0  0  0  0  0  0  0  0  0  0  0  0
   18.7699  -15.5303  -14.5487 N   0  0  0  0  0  0  0  0  0  0  0  0
   16.7515  -11.8635  -16.1145 C   0  0  0  0  0  0  0  0  0  0  0  0
   16.8688  -11.3218  -17.2331 O   0  0  0  0  0  0  0  0  0  0  0  0
   16.3287  -11.0984  -15.0202 N   0  0  0  0  0  0  0  0  0  0  0  0
   15.8728   -9.7165  -15.0946 C   0  0  1  0  0  0  0  0  0  0  0  0
   14.5624   -9.6278  -14.4228 C   0  0  0  0  0  0  0  0  0  0  0  0
   13.4003  -10.1876  -15.1859 C   0  0  0  0  0  0  0  0  0  0  0  0
   12.1554  -10.0940  -14.3426 C   0  0  0  0  0  0  0  0  0  0  0  0
   10.9499  -10.6729  -15.0644 C   0  0  0  0  0  0  0  0  0  0  0  0
    9.7798  -10.4084  -14.2480 N   0  0  0  0  0  0  0  0  0  0  0  0
   16.8986   -8.8077  -14.5233 C   0  0  0  0  0  0  0  0  0  0  0  0
   17.4285   -9.1390  -13.4342 O   0  0  0  0  0  0  0  0  0  0  0  0
   22.8713   -2.1897  -14.1205 O   0  0  0  0  0  0  0  0  0  0  0  0
   21.9956   -3.2370  -14.4570 C   0  0  0  0  0  0  0  0  0  0  0  0
   22.2349   -4.4984  -13.9584 C   0  0  0  0  0  0  0  0  0  0  0  0
   21.3801   -5.5374  -14.2824 C   0  0  0  0  0  0  0  0  0  0  0  0
   20.2816   -5.3621  -15.0958 C   0  0  0  0  0  0  0  0  0  0  0  0
   19.3888   -6.4732  -15.4295 C   0  0  0  0  0  0  0  0  0  0  0  0
   18.2404   -6.6701  -14.4703 C   0  0  2  0  0  0  0  0  0  0  0  0
   17.3115   -7.6100  -15.1182 N   0  0  0  0  0  0  0  0  0  0  0  0
   17.4705   -5.4247  -14.2275 C   0  0  0  0  0  0  0  0  0  0  0  0
   17.7891   -4.5256  -13.2415 O   0  0  0  0  0  0  0  0  0  0  0  0
   20.0560   -4.0924  -15.5870 C   0  0  0  0  0  0  0  0  0  0  0  0
   20.9013   -3.0306  -15.2755 C   0  0  0  0  0  0  0  0  0  0  0  0
   16.4606   -5.1711  -14.9689 O   0  0  0  0  0  0  0  0  0  0  0  0
  2  1  1  6
  2  9  1  0
  2  3  1  0
  4  3  1  0
  4  5  2  0
  6  5  1  0
  7  6  1  0
  8  7  2  0
  8  4  1  0
  9 10  2  0
 11 12  1  0
 11  9  1  0
 12 13  1  1
 13 14  1  0
 15 16  1  0
 15 14  1  0
 16 17  1  0
 18 19  2  0
 18 12  1  0
 20 21  1  0
 21 31  2  0
 21 22  1  0
 22 23  2  0
 23 24  1  0
 24 25  1  0
 26 25  1  6
 26 28  1  0
 26 27  1  0
 27 18  1  0
 28 29  1  0
 30 24  2  0
 31 30  1  0
 32 28  2  0
M  END
$$$$
