HKY.pdb
     RDKit          3D

 32 33  0  0  1  0  0  0  0  0999 V2000
   17.6103  -13.9209  -14.5233 N   0  0  0  0  0  0  0  0  0  0  0  0
   16.5115  -12.9982  -14.7043 C   0  0  1  0  0  0  0  0  0  0  0  0
   15.2529  -13.5842  -14.1047 C   0  0  0  0  0  0  0  0  0  0  0  0
   14.7577  -14.6815  -14.9700 C   0  0  0  0  0  0  0  0  0  0  0  0
   15.4907  -15.6386  -15.6673 C   0  0  0  0  0  0  0  0  0  0  0  0
   14.6089  -16.4233  -16.3115 N   0  0  0  0  0  0  0  0  0  0  0  0
   13.3781  -15.9664  -16.0218 C   0  0  0  0  0  0  0  0  0  0  0  0
   13.4606  -14.9050  -15.2047 N   0  0  0  0  0  0  0  0  0  0  0  0
   16.8615  -11.7282  -14.0190 C   0  0  0  0  0  0  0  0  0  0  0  0
   17.2829  -11.7751  -12.8448 O   0  0  0  0  0  0  0  0  0  0  0  0
   16.7311  -10.4868  -14.6543 N   0  0  0  0  0  0  0  0  0  0  0  0
   17.0654   -9.2025  -14.0530 C   0  0  1  0  0  0  0  0  0  0  0  0
   17.3226   -8.2388  -15.1399 C   0  0  0  0  0  0  0  0  0  0  0  0
   17.6073   -6.8320  -14.7088 C   0  0  0  0  0  0  0  0  0  0  0  0
   17.8136   -5.9673  -15.9251 C   0  0  0  0  0  0  0  0  0  0  0  0
   18.1313   -4.5321  -15.5398 C   0  0  0  0  0  0  0  0  0  0  0  0
   18.1687   -3.7473  -16.7598 N   0  0  0  0  0  0  0  0  0  0  0  0
   15.9896   -8.7779  -13.1218 C   0  0  0  0  0  0  0  0  0  0  0  0
   14.8017   -8.8970  -13.5111 O   0  0  0  0  0  0  0  0  0  0  0  0
   11.7780   -6.4351   -5.6316 O   0  0  0  0  0  0  0  0  0  0  0  0
   12.6665   -6.8993   -6.6175 C   0  0  0  0  0  0  0  0  0  0  0  0
   13.8569   -6.2351   -6.8146 C   0  0  0  0  0  0  0  0  0  0  0  0
   14.7397   -6.6823   -7.7819 C   0  0  0  0  0  0  0  0  0  0  0  0
   14.4752   -7.7815   -8.5699 C   0  0  0  0  0  0  0  0  0  0  0  0
   15.4200   -8.2396   -9.5899 C   0  0  0  0  0  0  0  0  0  0  0  0
   15.1333   -7.7412  -10.9853 C   0  0  2  0  0  0  0  0  0  0  0  0
   16.2133   -8.2555  -11.8427 N   0  0  0  0  0  0  0  0  0  0  0  0
   15.1855   -6.2617  -11.0924 C   0  0  0  0  0  0  0  0  0  0  0  0
   16.3527   -5.5627  -11.2680 O   0  0  0  0  0  0  0  0  0  0  0  0
   13.2784   -8.4356   -8.3598 C   0  0  0  0  0  0  0  0  0  0  0  0
   12.3737   -8.0052   -7.3928 C   0  0  0  0  0  0  0  0  0  0  0  0
   14.0940   -5.6005  -11.0182 O   0  0  0  0  0  0  0  0  0  0  0  0
  2  1  1  1
  2  9  1  0
  2  3  1  0
  4  3  1  0
  4  5  2  0
  6  5  1  0
  7  6  1  0
  8  7  2  0
  8  4  1  0
  9 10  2  0
 11 12  1  0
 11  9  1  0
 12 13  1  6
 13 14  1  0
 15 16  1  0
 15 14  1  0
 16 17  1  0
 18 19  2  0
 18 12  1  0
 20 21  1  0
 21 31  2  0
 21 22  1  0
 22 23  2  0
 23 24  1  0
 24 25  1  0
 26 25  1  1
 26 28  1  0
 26 27  1  0
 27 18  1  0
 28 29  1  0
 30 24  2  0
 31 30  1  0
 32 28  2  0
M  END
$$$$
