HKY.pdb
     RDKit          3D

 32 33  0  0  1  0  0  0  0  0999 V2000
   27.8394  -15.4600  -19.1183 N   0  0  0  0  0  0  0  0  0  0  0  0
   27.1388  -14.3549  -19.7343 C   0  0  1  0  0  0  0  0  0  0  0  0
   25.6570  -14.6541  -19.7771 C   0  0  0  0  0  0  0  0  0  0  0  0
   25.4092  -15.7942  -20.6918 C   0  0  0  0  0  0  0  0  0  0  0  0
   25.2796  -15.7856  -22.0784 C   0  0  0  0  0  0  0  0  0  0  0  0
   25.0636  -17.0550  -22.4655 N   0  0  0  0  0  0  0  0  0  0  0  0
   25.0602  -17.8176  -21.3582 C   0  0  0  0  0  0  0  0  0  0  0  0
   25.2702  -17.0564  -20.2733 N   0  0  0  0  0  0  0  0  0  0  0  0
   27.3922  -13.1398  -18.9190 C   0  0  0  0  0  0  0  0  0  0  0  0
   27.2804  -13.2146  -17.6779 O   0  0  0  0  0  0  0  0  0  0  0  0
   27.7512  -11.9197  -19.5055 N   0  0  0  0  0  0  0  0  0  0  0  0
   28.1193  -10.7168  -18.7702 C   0  0  1  0  0  0  0  0  0  0  0  0
   29.3463  -10.1652  -19.3757 C   0  0  0  0  0  0  0  0  0  0  0  0
   30.5978  -10.9575  -19.1474 C   0  0  0  0  0  0  0  0  0  0  0  0
   31.7974  -10.0711  -19.3592 C   0  0  0  0  0  0  0  0  0  0  0  0
   33.0958  -10.8379  -19.1700 C   0  0  0  0  0  0  0  0  0  0  0  0
   34.1899   -9.9074  -19.3763 N   0  0  0  0  0  0  0  0  0  0  0  0
   26.9828   -9.7615  -18.7501 C   0  0  0  0  0  0  0  0  0  0  0  0
   26.2606   -9.6938  -19.7751 O   0  0  0  0  0  0  0  0  0  0  0  0
   20.4454   -4.5864  -15.6740 O   0  0  0  0  0  0  0  0  0  0  0  0
   21.5411   -5.4524  -15.8364 C   0  0  0  0  0  0  0  0  0  0  0  0
   21.4157   -6.5453  -16.6651 C   0  0  0  0  0  0  0  0  0  0  0  0
   22.4871   -7.4050  -16.8331 C   0  0  0  0  0  0  0  0  0  0  0  0
   23.6940   -7.2121  -16.1968 C   0  0  0  0  0  0  0  0  0  0  0  0
   24.8164   -8.1329  -16.3848 C   0  0  0  0  0  0  0  0  0  0  0  0
   25.5550   -7.9693  -17.6908 C   0  0  2  0  0  0  0  0  0  0  0  0
   26.6657   -8.9346  -17.6662 N   0  0  0  0  0  0  0  0  0  0  0  0
   26.1724   -6.6280  -17.8412 C   0  0  0  0  0  0  0  0  0  0  0  0
   27.4598   -6.3474  -17.4595 O   0  0  0  0  0  0  0  0  0  0  0  0
   23.8032   -6.1126  -15.3701 C   0  0  0  0  0  0  0  0  0  0  0  0
   22.7398   -5.2329  -15.1846 C   0  0  0  0  0  0  0  0  0  0  0  0
   25.4769   -5.6840  -18.3501 O   0  0  0  0  0  0  0  0  0  0  0  0
  2  1  1  1
  2  9  1  0
  2  3  1  0
  4  3  1  0
  4  5  2  0
  6  5  1  0
  7  6  1  0
  8  7  2  0
  8  4  1  0
  9 10  2  0
 11 12  1  0
 11  9  1  0
 12 13  1  6
 13 14  1  0
 15 16  1  0
 15 14  1  0
 16 17  1  0
 18 19  2  0
 18 12  1  0
 20 21  1  0
 21 31  2  0
 21 22  1  0
 22 23  2  0
 23 24  1  0
 24 25  1  0
 26 25  1  1
 26 28  1  0
 26 27  1  0
 27 18  1  0
 28 29  1  0
 30 24  2  0
 31 30  1  0
 32 28  2  0
M  END
$$$$
