HKY.pdb
     RDKit          3D

 32 33  0  0  1  0  0  0  0  0999 V2000
   28.5585  -21.3438  -16.8711 N   0  0  0  0  0  0  0  0  0  0  0  0
   27.2779  -22.0159  -16.8726 C   0  0  1  0  0  0  0  0  0  0  0  0
   27.3728  -23.2904  -16.0641 C   0  0  0  0  0  0  0  0  0  0  0  0
   28.3049  -24.2307  -16.7312 C   0  0  0  0  0  0  0  0  0  0  0  0
   29.0128  -24.0594  -17.9182 C   0  0  0  0  0  0  0  0  0  0  0  0
   29.7271  -25.1805  -18.1207 N   0  0  0  0  0  0  0  0  0  0  0  0
   29.4687  -26.0119  -17.0961 C   0  0  0  0  0  0  0  0  0  0  0  0
   28.6029  -25.4401  -16.2452 N   0  0  0  0  0  0  0  0  0  0  0  0
   26.2782  -21.0995  -16.2678 C   0  0  0  0  0  0  0  0  0  0  0  0
   26.5321  -20.5782  -15.1622 O   0  0  0  0  0  0  0  0  0  0  0  0
   25.0650  -20.8077  -16.9038 N   0  0  0  0  0  0  0  0  0  0  0  0
   24.0133  -19.9658  -16.3490 C   0  0  1  0  0  0  0  0  0  0  0  0
   23.0249  -19.7039  -17.4123 C   0  0  0  0  0  0  0  0  0  0  0  0
   21.8402  -18.8782  -17.0110 C   0  0  0  0  0  0  0  0  0  0  0  0
   22.2475  -17.4310  -16.9150 C   0  0  0  0  0  0  0  0  0  0  0  0
   21.0698  -16.5452  -16.5438 C   0  0  0  0  0  0  0  0  0  0  0  0
   21.5277  -15.1687  -16.5762 N   0  0  0  0  0  0  0  0  0  0  0  0
   23.4332  -20.6019  -15.1392 C   0  0  0  0  0  0  0  0  0  0  0  0
   23.1275  -21.8177  -15.2103 O   0  0  0  0  0  0  0  0  0  0  0  0
   20.7345  -21.4504   -6.6391 O   0  0  0  0  0  0  0  0  0  0  0  0
   21.2794  -21.0106   -7.8583 C   0  0  0  0  0  0  0  0  0  0  0  0
   20.4546  -20.4120   -8.7849 C   0  0  0  0  0  0  0  0  0  0  0  0
   20.9791  -19.9748   -9.9886 C   0  0  0  0  0  0  0  0  0  0  0  0
   22.3128  -20.1146  -10.3060 C   0  0  0  0  0  0  0  0  0  0  0  0
   22.8503  -19.6477  -11.5850 C   0  0  0  0  0  0  0  0  0  0  0  0
   22.6542  -20.6016  -12.7380 C   0  0  2  0  0  0  0  0  0  0  0  0
   23.2061  -19.9362  -13.9291 N   0  0  0  0  0  0  0  0  0  0  0  0
   21.2236  -20.8645  -13.0334 C   0  0  0  0  0  0  0  0  0  0  0  0
   20.5552  -21.9733  -12.5800 O   0  0  0  0  0  0  0  0  0  0  0  0
   23.1255  -20.7162   -9.3668 C   0  0  0  0  0  0  0  0  0  0  0  0
   22.6217  -21.1644   -8.1485 C   0  0  0  0  0  0  0  0  0  0  0  0
   20.5769  -20.0213  -13.7438 O   0  0  0  0  0  0  0  0  0  0  0  0
  2  1  1  1
  2  9  1  0
  2  3  1  0
  4  3  1  0
  4  5  2  0
  6  5  1  0
  7  6  1  0
  8  7  2  0
  8  4  1  0
  9 10  2  0
 11 12  1  0
 11  9  1  0
 12 13  1  6
 13 14  1  0
 15 16  1  0
 15 14  1  0
 16 17  1  0
 18 19  2  0
 18 12  1  0
 20 21  1  0
 21 31  2  0
 21 22  1  0
 22 23  2  0
 23 24  1  0
 24 25  1  0
 26 25  1  1
 26 28  1  0
 26 27  1  0
 27 18  1  0
 28 29  1  0
 30 24  2  0
 31 30  1  0
 32 28  2  0
M  END
$$$$
