HKY.pdb
     RDKit          3D

 32 33  0  0  1  0  0  0  0  0999 V2000
   29.5692  -23.5421  -17.1786 N   0  0  0  0  0  0  0  0  0  0  0  0
   28.4939  -22.9317  -17.9289 C   0  0  1  0  0  0  0  0  0  0  0  0
   27.6728  -24.0067  -18.6049 C   0  0  0  0  0  0  0  0  0  0  0  0
   28.1179  -24.1578  -20.0110 C   0  0  0  0  0  0  0  0  0  0  0  0
   27.3792  -24.5659  -21.1188 C   0  0  0  0  0  0  0  0  0  0  0  0
   28.2078  -24.5484  -22.1777 N   0  0  0  0  0  0  0  0  0  0  0  0
   29.4126  -24.1445  -21.7383 C   0  0  0  0  0  0  0  0  0  0  0  0
   29.3656  -23.9045  -20.4189 N   0  0  0  0  0  0  0  0  0  0  0  0
   27.6495  -22.1645  -16.9784 C   0  0  0  0  0  0  0  0  0  0  0  0
   27.5144  -22.5928  -15.8136 O   0  0  0  0  0  0  0  0  0  0  0  0
   27.0049  -20.9794  -17.3550 N   0  0  0  0  0  0  0  0  0  0  0  0
   26.2765  -20.1014  -16.4487 C   0  0  1  0  0  0  0  0  0  0  0  0
   26.1094  -18.7936  -17.1106 C   0  0  0  0  0  0  0  0  0  0  0  0
   27.3603  -17.9862  -17.2821 C   0  0  0  0  0  0  0  0  0  0  0  0
   27.0659  -16.7819  -18.1380 C   0  0  0  0  0  0  0  0  0  0  0  0
   28.2954  -15.9047  -18.3055 C   0  0  0  0  0  0  0  0  0  0  0  0
   27.9050  -14.7449  -19.0853 N   0  0  0  0  0  0  0  0  0  0  0  0
   24.9951  -20.7330  -16.0440 C   0  0  0  0  0  0  0  0  0  0  0  0
   24.3148  -21.2946  -16.9376 O   0  0  0  0  0  0  0  0  0  0  0  0
   26.0207  -20.1037   -8.6681 O   0  0  0  0  0  0  0  0  0  0  0  0
   25.4605  -20.6873   -9.8181 C   0  0  0  0  0  0  0  0  0  0  0  0
   24.0900  -20.7574   -9.9355 C   0  0  0  0  0  0  0  0  0  0  0  0
   23.5267  -21.3295  -11.0627 C   0  0  0  0  0  0  0  0  0  0  0  0
   24.2899  -21.8408  -12.0898 C   0  0  0  0  0  0  0  0  0  0  0  0
   23.6769  -22.4442  -13.2744 C   0  0  0  0  0  0  0  0  0  0  0  0
   23.2743  -21.4614  -14.3467 C   0  0  2  0  0  0  0  0  0  0  0  0
   24.4984  -20.7427  -14.7355 N   0  0  0  0  0  0  0  0  0  0  0  0
   22.3239  -20.4311  -13.8586 C   0  0  0  0  0  0  0  0  0  0  0  0
   22.6826  -19.1267  -13.6315 O   0  0  0  0  0  0  0  0  0  0  0  0
   25.6612  -21.7628  -11.9566 C   0  0  0  0  0  0  0  0  0  0  0  0
   26.2520  -21.1919  -10.8324 C   0  0  0  0  0  0  0  0  0  0  0  0
   21.1110  -20.7685  -13.6372 O   0  0  0  0  0  0  0  0  0  0  0  0
  2  1  1  1
  2  9  1  0
  2  3  1  0
  4  3  1  0
  4  5  2  0
  6  5  1  0
  7  6  1  0
  8  7  2  0
  8  4  1  0
  9 10  2  0
 11 12  1  0
 11  9  1  0
 12 13  1  6
 13 14  1  0
 15 16  1  0
 15 14  1  0
 16 17  1  0
 18 19  2  0
 18 12  1  0
 20 21  1  0
 21 31  2  0
 21 22  1  0
 22 23  2  0
 23 24  1  0
 24 25  1  0
 26 25  1  1
 26 28  1  0
 26 27  1  0
 27 18  1  0
 28 29  1  0
 30 24  2  0
 31 30  1  0
 32 28  2  0
M  END
$$$$
