HKY.pdb
     RDKit          3D

 32 33  0  0  1  0  0  0  0  0999 V2000
   29.4349  -39.1316   -9.8006 N   0  0  0  0  0  0  0  0  0  0  0  0
   29.5863  -37.7381   -9.4446 C   0  0  1  0  0  0  0  0  0  0  0  0
   28.2440  -37.0458   -9.5223 C   0  0  0  0  0  0  0  0  0  0  0  0
   27.8876  -36.8167  -10.9431 C   0  0  0  0  0  0  0  0  0  0  0  0
   28.6381  -37.0904  -12.0839 C   0  0  0  0  0  0  0  0  0  0  0  0
   27.9023  -36.7124  -13.1440 N   0  0  0  0  0  0  0  0  0  0  0  0
   26.7414  -36.2238  -12.6737 C   0  0  0  0  0  0  0  0  0  0  0  0
   26.7250  -36.2840  -11.3332 N   0  0  0  0  0  0  0  0  0  0  0  0
   30.1157  -37.6738   -8.0587 C   0  0  0  0  0  0  0  0  0  0  0  0
   29.8386  -38.5974   -7.2659 O   0  0  0  0  0  0  0  0  0  0  0  0
   30.9134  -36.6084   -7.6224 N   0  0  0  0  0  0  0  0  0  0  0  0
   31.3947  -36.4302   -6.2588 C   0  0  1  0  0  0  0  0  0  0  0  0
   32.8572  -36.2436   -6.3080 C   0  0  0  0  0  0  0  0  0  0  0  0
   33.6503  -37.4322   -6.7602 C   0  0  0  0  0  0  0  0  0  0  0  0
   35.1015  -37.0479   -6.8855 C   0  0  0  0  0  0  0  0  0  0  0  0
   35.9676  -38.2493   -7.2263 C   0  0  0  0  0  0  0  0  0  0  0  0
   37.2780  -37.7535   -7.6038 N   0  0  0  0  0  0  0  0  0  0  0  0
   30.6724  -35.3106   -5.6034 C   0  0  0  0  0  0  0  0  0  0  0  0
   30.5008  -34.2595   -6.2686 O   0  0  0  0  0  0  0  0  0  0  0  0
   22.9358  -32.4315   -3.4745 O   0  0  0  0  0  0  0  0  0  0  0  0
   24.1495  -33.0738   -3.7763 C   0  0  0  0  0  0  0  0  0  0  0  0
   25.0933  -32.4072   -4.5260 C   0  0  0  0  0  0  0  0  0  0  0  0
   26.2919  -33.0288   -4.8296 C   0  0  0  0  0  0  0  0  0  0  0  0
   26.5872  -34.3070   -4.4076 C   0  0  0  0  0  0  0  0  0  0  0  0
   27.8598  -34.9498   -4.7396 C   0  0  0  0  0  0  0  0  0  0  0  0
   29.0165  -34.5545   -3.8544 C   0  0  2  0  0  0  0  0  0  0  0  0
   30.1723  -35.3511   -4.2967 N   0  0  0  0  0  0  0  0  0  0  0  0
   28.7957  -34.8981   -2.4275 C   0  0  0  0  0  0  0  0  0  0  0  0
   28.9659  -36.1633   -1.9252 O   0  0  0  0  0  0  0  0  0  0  0  0
   25.6311  -34.9609   -3.6575 C   0  0  0  0  0  0  0  0  0  0  0  0
   24.4176  -34.3570   -3.3388 C   0  0  0  0  0  0  0  0  0  0  0  0
   28.4292  -33.9757   -1.6220 O   0  0  0  0  0  0  0  0  0  0  0  0
  2  1  1  1
  2  9  1  0
  2  3  1  0
  4  3  1  0
  4  5  2  0
  6  5  1  0
  7  6  1  0
  8  7  2  0
  8  4  1  0
  9 10  2  0
 11 12  1  0
 11  9  1  0
 12 13  1  6
 13 14  1  0
 15 16  1  0
 15 14  1  0
 16 17  1  0
 18 19  2  0
 18 12  1  0
 20 21  1  0
 21 31  2  0
 21 22  1  0
 22 23  2  0
 23 24  1  0
 24 25  1  0
 26 25  1  6
 26 28  1  0
 26 27  1  0
 27 18  1  0
 28 29  1  0
 30 24  2  0
 31 30  1  0
 32 28  2  0
M  END
$$$$
