HKY.pdb
     RDKit          3D

 32 33  0  0  1  0  0  0  0  0999 V2000
   17.8127  -32.6721   -8.5767 N   0  0  0  0  0  0  0  0  0  0  0  0
   18.5802  -31.8610   -7.6577 C   0  0  1  0  0  0  0  0  0  0  0  0
   17.6621  -31.2783   -6.6066 C   0  0  0  0  0  0  0  0  0  0  0  0
   16.8771  -30.1678   -7.1969 C   0  0  0  0  0  0  0  0  0  0  0  0
   15.8692  -30.2279   -8.1561 C   0  0  0  0  0  0  0  0  0  0  0  0
   15.4541  -28.9680   -8.3764 N   0  0  0  0  0  0  0  0  0  0  0  0
   16.1796  -28.1614   -7.5821 C   0  0  0  0  0  0  0  0  0  0  0  0
   17.0489  -28.8853   -6.8603 N   0  0  0  0  0  0  0  0  0  0  0  0
   19.6006  -32.7313   -7.0201 C   0  0  0  0  0  0  0  0  0  0  0  0
   19.2616  -33.8667   -6.6273 O   0  0  0  0  0  0  0  0  0  0  0  0
   20.9259  -32.3114   -6.8500 N   0  0  0  0  0  0  0  0  0  0  0  0
   21.9939  -33.1272   -6.2870 C   0  0  1  0  0  0  0  0  0  0  0  0
   23.0196  -33.3246   -7.3287 C   0  0  0  0  0  0  0  0  0  0  0  0
   24.0847  -34.3302   -7.0113 C   0  0  0  0  0  0  0  0  0  0  0  0
   25.4365  -33.7439   -7.3248 C   0  0  0  0  0  0  0  0  0  0  0  0
   26.5433  -34.7692   -7.1422 C   0  0  0  0  0  0  0  0  0  0  0  0
   27.7639  -34.1993   -7.6816 N   0  0  0  0  0  0  0  0  0  0  0  0
   22.5167  -32.5006   -5.0465 C   0  0  0  0  0  0  0  0  0  0  0  0
   22.9608  -31.3289   -5.1283 O   0  0  0  0  0  0  0  0  0  0  0  0
   19.1602  -27.3242   -2.8824 O   0  0  0  0  0  0  0  0  0  0  0  0
   19.8062  -28.5423   -2.6070 C   0  0  0  0  0  0  0  0  0  0  0  0
   20.9052  -28.5465   -1.7768 C   0  0  0  0  0  0  0  0  0  0  0  0
   21.5496  -29.7390   -1.4981 C   0  0  0  0  0  0  0  0  0  0  0  0
   21.1327  -30.9428   -2.0237 C   0  0  0  0  0  0  0  0  0  0  0  0
   21.8275  -32.1948   -1.7194 C   0  0  0  0  0  0  0  0  0  0  0  0
   23.0388  -32.4690   -2.5769 C   0  0  2  0  0  0  0  0  0  0  0  0
   22.5464  -33.1295   -3.7965 N   0  0  0  0  0  0  0  0  0  0  0  0
   23.9909  -33.4167   -1.9457 C   0  0  0  0  0  0  0  0  0  0  0  0
   24.8323  -33.0643   -0.9212 O   0  0  0  0  0  0  0  0  0  0  0  0
   20.0302  -30.9213   -2.8534 C   0  0  0  0  0  0  0  0  0  0  0  0
   19.3647  -29.7344   -3.1490 C   0  0  0  0  0  0  0  0  0  0  0  0
   24.0342  -34.6210   -2.3722 O   0  0  0  0  0  0  0  0  0  0  0  0
  2  1  1  6
  2  9  1  0
  2  3  1  0
  4  3  1  0
  4  5  2  0
  6  5  1  0
  7  6  1  0
  8  7  2  0
  8  4  1  0
  9 10  2  0
 11 12  1  0
 11  9  1  0
 12 13  1  6
 13 14  1  0
 15 16  1  0
 15 14  1  0
 16 17  1  0
 18 19  2  0
 18 12  1  0
 20 21  1  0
 21 31  2  0
 21 22  1  0
 22 23  2  0
 23 24  1  0
 24 25  1  0
 26 25  1  1
 26 28  1  0
 26 27  1  0
 27 18  1  0
 28 29  1  0
 30 24  2  0
 31 30  1  0
 32 28  2  0
M  END
$$$$
