DCE.pdb
     RDKit          3D

 24 23  0  0  1  0  0  0  0  0999 V2000
   10.2639  -17.9499   17.2750 N   0  0  0  0  0  0  0  0  0  0  0  0
   10.2669  -18.6906   18.5401 C   0  0  1  0  0  0  0  0  0  0  0  0
   11.4072  -19.6787   18.4640 C   0  0  0  0  0  0  0  0  0  0  0  0
   11.1419  -20.7199   17.4731 C   0  0  0  0  0  0  0  0  0  0  0  0
   11.9058  -21.0632   16.5299 O   0  0  0  0  0  0  0  0  0  0  0  0
   10.5881  -17.7098   19.6061 C   0  0  0  0  0  0  0  0  0  0  0  0
   11.7042  -17.1905   19.6169 O   0  0  0  0  0  0  0  0  0  0  0  0
    9.9299  -21.4316   17.5418 O   0  0  0  0  0  0  0  0  0  0  0  0
    9.6627  -17.3429   20.6165 N   0  0  0  0  0  0  0  0  0  0  0  0
    9.8791  -16.4278   21.6651 C   0  0  1  0  0  0  0  0  0  0  0  0
    8.6791  -15.9598   22.4019 C   0  0  0  0  0  0  0  0  0  0  0  0
    9.2205  -14.7834   23.6749 S   0  0  0  0  0  0  0  0  0  0  0  0
   10.8522  -16.9794   22.6345 C   0  0  0  0  0  0  0  0  0  0  0  0
   10.6617  -18.1475   23.0683 O   0  0  0  0  0  0  0  0  0  0  0  0
   11.9741  -16.2964   23.1074 N   0  0  0  0  0  0  0  0  0  0  0  0
   12.9985  -16.9739   23.9385 C   0  0  1  0  0  0  0  0  0  0  0  0
   14.3386  -16.3624   23.6392 C   0  0  0  0  0  0  0  0  0  0  0  0
   15.4807  -16.9255   24.3900 C   0  0  0  0  0  0  0  0  0  0  0  0
   16.7556  -16.2801   24.0703 C   0  0  0  0  0  0  0  0  0  0  0  0
   16.7714  -15.3287   23.2384 O   0  0  0  0  0  0  0  0  0  0  0  0
   12.6746  -16.7841   25.3670 C   0  0  0  0  0  0  0  0  0  0  0  0
   11.8545  -15.8767   25.6887 O   0  0  0  0  0  0  0  0  0  0  0  0
   17.9864  -16.6211   24.6061 O   0  0  0  0  0  0  0  0  0  0  0  0
   13.2316  -17.5587   26.3471 O   0  0  0  0  0  0  0  0  0  0  0  0
  2  1  1  6
  2  3  1  0
  3  4  1  0
  4  8  1  0
  5  4  2  0
  6  2  1  0
  7  6  2  0
  9  6  1  0
 10 13  1  0
 10  9  1  0
 10 11  1  1
 12 11  1  0
 13 15  1  0
 14 13  2  0
 15 16  1  0
 16 17  1  1
 16 21  1  0
 17 18  1  0
 19 18  1  0
 20 19  2  0
 21 22  2  0
 21 24  1  0
 23 19  1  0
M  END
$$$$
