DCE.pdb
     RDKit          3D

 24 23  0  0  1  0  0  0  0  0999 V2000
    9.4112  -16.3593   17.4047 N   0  0  0  0  0  0  0  0  0  0  0  0
    9.6079  -17.3462   18.4707 C   0  0  1  0  0  0  0  0  0  0  0  0
   10.6348  -18.3332   17.9669 C   0  0  0  0  0  0  0  0  0  0  0  0
   10.1250  -19.0946   16.8281 C   0  0  0  0  0  0  0  0  0  0  0  0
    9.0719  -19.7887   16.8069 O   0  0  0  0  0  0  0  0  0  0  0  0
   10.2039  -16.6191   19.6185 C   0  0  0  0  0  0  0  0  0  0  0  0
   11.3729  -16.2415   19.5383 O   0  0  0  0  0  0  0  0  0  0  0  0
   10.8476  -19.0789   15.6207 O   0  0  0  0  0  0  0  0  0  0  0  0
    9.4837  -16.3387   20.8078 N   0  0  0  0  0  0  0  0  0  0  0  0
    9.9593  -15.6437   21.9368 C   0  0  1  0  0  0  0  0  0  0  0  0
    9.0029  -14.7318   22.6120 C   0  0  0  0  0  0  0  0  0  0  0  0
    7.4984  -15.6738   22.9951 S   0  0  0  0  0  0  0  0  0  0  0  0
   10.5009  -16.5943   22.9337 C   0  0  0  0  0  0  0  0  0  0  0  0
    9.9338  -17.7133   23.0570 O   0  0  0  0  0  0  0  0  0  0  0  0
   11.6020  -16.3414   23.7537 N   0  0  0  0  0  0  0  0  0  0  0  0
   12.1815  -17.3979   24.6181 C   0  0  1  0  0  0  0  0  0  0  0  0
   13.6797  -17.3296   24.5183 C   0  0  0  0  0  0  0  0  0  0  0  0
   14.2698  -15.9824   24.6670 C   0  0  0  0  0  0  0  0  0  0  0  0
   15.4726  -15.7868   23.8551 C   0  0  0  0  0  0  0  0  0  0  0  0
   16.5244  -16.4217   24.1517 O   0  0  0  0  0  0  0  0  0  0  0  0
   11.7665  -17.1689   26.0170 C   0  0  0  0  0  0  0  0  0  0  0  0
   11.0784  -16.1426   26.2864 O   0  0  0  0  0  0  0  0  0  0  0  0
   15.5752  -14.9466   22.7588 O   0  0  0  0  0  0  0  0  0  0  0  0
   12.1014  -18.0315   27.0243 O   0  0  0  0  0  0  0  0  0  0  0  0
  2  1  1  6
  2  3  1  0
  3  4  1  0
  4  8  1  0
  5  4  2  0
  6  2  1  0
  7  6  2  0
  9  6  1  0
 10 13  1  0
 10  9  1  0
 10 11  1  1
 12 11  1  0
 13 15  1  0
 14 13  2  0
 15 16  1  0
 16 17  1  1
 16 21  1  0
 17 18  1  0
 19 18  1  0
 20 19  2  0
 21 22  2  0
 21 24  1  0
 23 19  1  0
M  END
$$$$
