DCE.pdb
     RDKit          3D

 24 23  0  0  1  0  0  0  0  0999 V2000
    7.3014  -14.5383   18.1603 N   0  0  0  0  0  0  0  0  0  0  0  0
    7.5020  -15.7476   18.9642 C   0  0  1  0  0  0  0  0  0  0  0  0
    8.4278  -16.6456   18.1774 C   0  0  0  0  0  0  0  0  0  0  0  0
    7.7853  -17.1324   16.9582 C   0  0  0  0  0  0  0  0  0  0  0  0
    6.6714  -17.7200   16.8863 O   0  0  0  0  0  0  0  0  0  0  0  0
    8.2171  -15.3266   20.1943 C   0  0  0  0  0  0  0  0  0  0  0  0
    9.4089  -15.0291   20.1144 O   0  0  0  0  0  0  0  0  0  0  0  0
    8.4377  -16.9483   15.7250 O   0  0  0  0  0  0  0  0  0  0  0  0
    7.5856  -15.2515   21.4622 N   0  0  0  0  0  0  0  0  0  0  0  0
    8.1532  -14.7726   22.6590 C   0  0  1  0  0  0  0  0  0  0  0  0
    7.2099  -14.3363   23.7182 C   0  0  0  0  0  0  0  0  0  0  0  0
    8.1829  -13.7566   25.1377 S   0  0  0  0  0  0  0  0  0  0  0  0
    9.0789  -15.7788   23.2261 C   0  0  0  0  0  0  0  0  0  0  0  0
    8.5992  -16.8817   23.6033 O   0  0  0  0  0  0  0  0  0  0  0  0
   10.4548  -15.5952   23.3749 N   0  0  0  0  0  0  0  0  0  0  0  0
   11.3232  -16.6657   23.9217 C   0  0  1  0  0  0  0  0  0  0  0  0
   12.7582  -16.2536   23.7475 C   0  0  0  0  0  0  0  0  0  0  0  0
   13.7602  -17.1507   24.3611 C   0  0  0  0  0  0  0  0  0  0  0  0
   15.1388  -16.7023   24.1547 C   0  0  0  0  0  0  0  0  0  0  0  0
   15.3539  -15.6907   23.4282 O   0  0  0  0  0  0  0  0  0  0  0  0
   11.0305  -16.8486   25.3578 C   0  0  0  0  0  0  0  0  0  0  0  0
   11.1025  -18.0117   25.8493 O   0  0  0  0  0  0  0  0  0  0  0  0
   16.2674  -17.2972   24.6937 O   0  0  0  0  0  0  0  0  0  0  0  0
   10.6877  -15.8015   26.1682 O   0  0  0  0  0  0  0  0  0  0  0  0
  2  1  1  6
  2  3  1  0
  3  4  1  0
  4  8  1  0
  5  4  2  0
  6  2  1  0
  7  6  2  0
  9  6  1  0
 10 13  1  0
 10  9  1  0
 10 11  1  1
 12 11  1  0
 13 15  1  0
 14 13  2  0
 15 16  1  0
 16 17  1  1
 16 21  1  0
 17 18  1  0
 19 18  1  0
 20 19  2  0
 21 22  2  0
 21 24  1  0
 23 19  1  0
M  END
$$$$
