DCE.pdb
     RDKit          3D

 24 23  0  0  1  0  0  0  0  0999 V2000
    8.0698  -16.3533   17.7474 N   0  0  0  0  0  0  0  0  0  0  0  0
    7.9167  -16.9974   19.0552 C   0  0  1  0  0  0  0  0  0  0  0  0
    8.4162  -18.4152   18.9041 C   0  0  0  0  0  0  0  0  0  0  0  0
    7.7028  -19.1185   17.8398 C   0  0  0  0  0  0  0  0  0  0  0  0
    6.4629  -19.3468   17.7981 O   0  0  0  0  0  0  0  0  0  0  0  0
    8.8316  -16.2920   19.9863 C   0  0  0  0  0  0  0  0  0  0  0  0
    9.9931  -16.0869   19.6339 O   0  0  0  0  0  0  0  0  0  0  0  0
    8.4310  -19.6037   16.7378 O   0  0  0  0  0  0  0  0  0  0  0  0
    8.4254  -15.8419   21.2686 N   0  0  0  0  0  0  0  0  0  0  0  0
    9.2130  -15.1449   22.2054 C   0  0  1  0  0  0  0  0  0  0  0  0
    8.4883  -14.3885   23.2565 C   0  0  0  0  0  0  0  0  0  0  0  0
    7.0851  -15.3977   23.8133 S   0  0  0  0  0  0  0  0  0  0  0  0
   10.1740  -16.0654   22.8534 C   0  0  0  0  0  0  0  0  0  0  0  0
    9.8109  -17.2548   23.0596 O   0  0  0  0  0  0  0  0  0  0  0  0
   11.4630  -15.7112   23.2558 N   0  0  0  0  0  0  0  0  0  0  0  0
   12.4116  -16.7193   23.7878 C   0  0  1  0  0  0  0  0  0  0  0  0
   13.8128  -16.2275   23.5552 C   0  0  0  0  0  0  0  0  0  0  0  0
   14.8876  -17.0620   24.1329 C   0  0  0  0  0  0  0  0  0  0  0  0
   16.2264  -16.6627   23.6944 C   0  0  0  0  0  0  0  0  0  0  0  0
   16.5092  -15.4328   23.6250 O   0  0  0  0  0  0  0  0  0  0  0  0
   12.1809  -16.8929   25.2363 C   0  0  0  0  0  0  0  0  0  0  0  0
   11.5311  -16.0043   25.8589 O   0  0  0  0  0  0  0  0  0  0  0  0
   17.2467  -17.5278   23.3355 O   0  0  0  0  0  0  0  0  0  0  0  0
   12.6455  -17.9825   25.9202 O   0  0  0  0  0  0  0  0  0  0  0  0
  2  1  1  6
  2  3  1  0
  3  4  1  0
  4  8  1  0
  5  4  2  0
  6  2  1  0
  7  6  2  0
  9  6  1  0
 10 13  1  0
 10  9  1  0
 10 11  1  1
 12 11  1  0
 13 15  1  0
 14 13  2  0
 15 16  1  0
 16 17  1  1
 16 21  1  0
 17 18  1  0
 19 18  1  0
 20 19  2  0
 21 22  2  0
 21 24  1  0
 23 19  1  0
M  END
$$$$
