DCE.pdb
     RDKit          3D

 24 23  0  0  1  0  0  0  0  0999 V2000
    8.2764  -14.8074   20.3711 N   0  0  0  0  0  0  0  0  0  0  0  0
    7.5104  -15.4434   21.4470 C   0  0  1  0  0  0  0  0  0  0  0  0
    7.8709  -16.9104   21.4305 C   0  0  0  0  0  0  0  0  0  0  0  0
    7.5601  -17.5187   20.1383 C   0  0  0  0  0  0  0  0  0  0  0  0
    6.5218  -17.3183   19.4506 O   0  0  0  0  0  0  0  0  0  0  0  0
    8.0091  -14.8690   22.7209 C   0  0  0  0  0  0  0  0  0  0  0  0
    9.1847  -15.0554   23.0349 O   0  0  0  0  0  0  0  0  0  0  0  0
    8.4804  -18.4198   19.5714 O   0  0  0  0  0  0  0  0  0  0  0  0
    7.1883  -14.1118   23.5955 N   0  0  0  0  0  0  0  0  0  0  0  0
    7.5674  -13.5475   24.8290 C   0  0  1  0  0  0  0  0  0  0  0  0
    6.5484  -12.7274   25.5300 C   0  0  0  0  0  0  0  0  0  0  0  0
    7.2852  -12.1040   27.0682 S   0  0  0  0  0  0  0  0  0  0  0  0
    8.0498  -14.6020   25.7488 C   0  0  0  0  0  0  0  0  0  0  0  0
    7.2784  -15.5655   26.0050 O   0  0  0  0  0  0  0  0  0  0  0  0
    9.3058  -14.6087   26.3581 N   0  0  0  0  0  0  0  0  0  0  0  0
    9.6910  -15.6654   27.3246 C   0  0  1  0  0  0  0  0  0  0  0  0
   10.9057  -16.3766   26.7973 C   0  0  0  0  0  0  0  0  0  0  0  0
   11.5168  -17.3633   27.7128 C   0  0  0  0  0  0  0  0  0  0  0  0
   12.6720  -18.0506   27.1321 C   0  0  0  0  0  0  0  0  0  0  0  0
   13.0819  -17.7045   25.9878 O   0  0  0  0  0  0  0  0  0  0  0  0
   10.0055  -15.0463   28.6282 C   0  0  0  0  0  0  0  0  0  0  0  0
   10.2726  -15.7983   29.6093 O   0  0  0  0  0  0  0  0  0  0  0  0
   13.3825  -19.0770   27.7321 O   0  0  0  0  0  0  0  0  0  0  0  0
   10.0183  -13.6899   28.8037 O   0  0  0  0  0  0  0  0  0  0  0  0
  2  1  1  6
  2  3  1  0
  3  4  1  0
  4  8  1  0
  5  4  2  0
  6  2  1  0
  7  6  2  0
  9  6  1  0
 10 13  1  0
 10  9  1  0
 10 11  1  1
 12 11  1  0
 13 15  1  0
 14 13  2  0
 15 16  1  0
 16 17  1  6
 16 21  1  0
 17 18  1  0
 19 18  1  0
 20 19  2  0
 21 22  2  0
 21 24  1  0
 23 19  1  0
M  END
$$$$
