DCE.pdb
     RDKit          3D

 24 23  0  0  1  0  0  0  0  0999 V2000
    7.3966  -13.4793   16.8995 N   0  0  0  0  0  0  0  0  0  0  0  0
    7.9055  -14.6853   17.5594 C   0  0  1  0  0  0  0  0  0  0  0  0
    8.9008  -15.3135   16.6122 C   0  0  0  0  0  0  0  0  0  0  0  0
    8.3106  -16.4414   15.8939 C   0  0  0  0  0  0  0  0  0  0  0  0
    8.9195  -17.4711   15.4937 O   0  0  0  0  0  0  0  0  0  0  0  0
    8.6486  -14.2311   18.7608 C   0  0  0  0  0  0  0  0  0  0  0  0
    9.5582  -13.4135   18.6210 O   0  0  0  0  0  0  0  0  0  0  0  0
    6.9346  -16.4163   15.6004 O   0  0  0  0  0  0  0  0  0  0  0  0
    8.3557  -14.6989   20.0674 N   0  0  0  0  0  0  0  0  0  0  0  0
    8.9690  -14.2874   21.2668 C   0  0  1  0  0  0  0  0  0  0  0  0
    8.0837  -13.6993   22.3024 C   0  0  0  0  0  0  0  0  0  0  0  0
    6.6805  -14.8247   22.5517 S   0  0  0  0  0  0  0  0  0  0  0  0
    9.7285  -15.4081   21.8652 C   0  0  0  0  0  0  0  0  0  0  0  0
    9.2421  -16.5679   21.7803 O   0  0  0  0  0  0  0  0  0  0  0  0
   10.9534  -15.2745   22.5215 N   0  0  0  0  0  0  0  0  0  0  0  0
   11.6887  -16.4557   23.0345 C   0  0  1  0  0  0  0  0  0  0  0  0
   13.1567  -16.1334   23.0558 C   0  0  0  0  0  0  0  0  0  0  0  0
   14.0275  -17.1577   23.6704 C   0  0  0  0  0  0  0  0  0  0  0  0
   15.4441  -16.7868   23.6684 C   0  0  0  0  0  0  0  0  0  0  0  0
   15.7866  -15.6703   23.1852 O   0  0  0  0  0  0  0  0  0  0  0  0
   11.2284  -16.7628   24.4040 C   0  0  0  0  0  0  0  0  0  0  0  0
   10.6046  -15.8719   25.0494 O   0  0  0  0  0  0  0  0  0  0  0  0
   16.4799  -17.5647   24.1587 O   0  0  0  0  0  0  0  0  0  0  0  0
   11.4541  -17.9776   24.9907 O   0  0  0  0  0  0  0  0  0  0  0  0
  2  1  1  6
  2  3  1  0
  3  4  1  0
  4  8  1  0
  5  4  2  0
  6  2  1  0
  7  6  2  0
  9  6  1  0
 10 13  1  0
 10  9  1  0
 10 11  1  1
 12 11  1  0
 13 15  1  0
 14 13  2  0
 15 16  1  0
 16 17  1  1
 16 21  1  0
 17 18  1  0
 19 18  1  0
 20 19  2  0
 21 22  2  0
 21 24  1  0
 23 19  1  0
M  END
$$$$
