DCE.pdb
     RDKit          3D

 24 23  0  0  1  0  0  0  0  0999 V2000
    8.0359  -13.2787   19.6157 N   0  0  0  0  0  0  0  0  0  0  0  0
    7.7047  -14.5356   20.2935 C   0  0  1  0  0  0  0  0  0  0  0  0
    8.4208  -15.6359   19.5458 C   0  0  0  0  0  0  0  0  0  0  0  0
    7.8439  -15.8376   18.2180 C   0  0  0  0  0  0  0  0  0  0  0  0
    8.4408  -15.6934   17.1162 O   0  0  0  0  0  0  0  0  0  0  0  0
    8.2945  -14.4540   21.6526 C   0  0  0  0  0  0  0  0  0  0  0  0
    9.4910  -14.1872   21.7643 O   0  0  0  0  0  0  0  0  0  0  0  0
    6.4967  -16.2306   18.1140 O   0  0  0  0  0  0  0  0  0  0  0  0
    7.5376  -14.6702   22.8326 N   0  0  0  0  0  0  0  0  0  0  0  0
    8.0072  -14.6033   24.1588 C   0  0  1  0  0  0  0  0  0  0  0  0
    7.1689  -13.8545   25.1275 C   0  0  0  0  0  0  0  0  0  0  0  0
    5.5518  -14.6745   25.2278 S   0  0  0  0  0  0  0  0  0  0  0  0
    8.2494  -15.9649   24.6863 C   0  0  0  0  0  0  0  0  0  0  0  0
    7.5536  -16.9116   24.2296 O   0  0  0  0  0  0  0  0  0  0  0  0
    9.1990  -16.2807   25.6596 N   0  0  0  0  0  0  0  0  0  0  0  0
    9.2835  -17.6404   26.2453 C   0  0  1  0  0  0  0  0  0  0  0  0
   10.3352  -17.6344   27.3192 C   0  0  0  0  0  0  0  0  0  0  0  0
   10.5784  -18.9324   27.9834 C   0  0  0  0  0  0  0  0  0  0  0  0
   11.6779  -18.8888   28.9496 C   0  0  0  0  0  0  0  0  0  0  0  0
   12.2684  -17.7913   29.1597 O   0  0  0  0  0  0  0  0  0  0  0  0
    7.9776  -18.0033   26.8321 C   0  0  0  0  0  0  0  0  0  0  0  0
    7.1764  -17.0781   27.1507 O   0  0  0  0  0  0  0  0  0  0  0  0
   12.1509  -19.9669   29.6791 O   0  0  0  0  0  0  0  0  0  0  0  0
    7.6104  -19.3047   27.0380 O   0  0  0  0  0  0  0  0  0  0  0  0
  2  1  1  6
  2  3  1  0
  3  4  1  0
  4  8  1  0
  5  4  2  0
  6  2  1  0
  7  6  2  0
  9  6  1  0
 10 13  1  0
 10  9  1  0
 10 11  1  1
 12 11  1  0
 13 15  1  0
 14 13  2  0
 15 16  1  0
 16 17  1  1
 16 21  1  0
 17 18  1  0
 19 18  1  0
 20 19  2  0
 21 22  2  0
 21 24  1  0
 23 19  1  0
M  END
$$$$
