DCE.pdb
     RDKit          3D

 24 23  0  0  1  0  0  0  0  0999 V2000
    8.0498  -14.2423   20.0202 N   0  0  0  0  0  0  0  0  0  0  0  0
    7.3341  -14.8618   21.1396 C   0  0  1  0  0  0  0  0  0  0  0  0
    7.3317  -16.3509   20.8849 C   0  0  0  0  0  0  0  0  0  0  0  0
    6.5805  -16.6811   19.6753 C   0  0  0  0  0  0  0  0  0  0  0  0
    6.3724  -15.9153   18.6948 O   0  0  0  0  0  0  0  0  0  0  0  0
    8.1478  -14.6118   22.3550 C   0  0  0  0  0  0  0  0  0  0  0  0
    9.3733  -14.5637   22.2481 O   0  0  0  0  0  0  0  0  0  0  0  0
    6.0190  -17.9655   19.5524 O   0  0  0  0  0  0  0  0  0  0  0  0
    7.5739  -14.4248   23.6385 N   0  0  0  0  0  0  0  0  0  0  0  0
    8.2645  -14.2061   24.8465 C   0  0  1  0  0  0  0  0  0  0  0  0
    7.6019  -13.3324   25.8463 C   0  0  0  0  0  0  0  0  0  0  0  0
    5.8624  -13.8378   25.9738 S   0  0  0  0  0  0  0  0  0  0  0  0
    8.6007  -15.4978   25.4862 C   0  0  0  0  0  0  0  0  0  0  0  0
    7.7085  -16.3869   25.5345 O   0  0  0  0  0  0  0  0  0  0  0  0
    9.8425  -15.8067   26.0441 N   0  0  0  0  0  0  0  0  0  0  0  0
   10.1129  -17.1370   26.6409 C   0  0  1  0  0  0  0  0  0  0  0  0
   11.4248  -17.6424   26.1091 C   0  0  0  0  0  0  0  0  0  0  0  0
   11.4313  -18.0255   24.6814 C   0  0  0  0  0  0  0  0  0  0  0  0
   12.7787  -18.2260   24.1443 C   0  0  0  0  0  0  0  0  0  0  0  0
   13.5389  -17.2264   24.0021 O   0  0  0  0  0  0  0  0  0  0  0  0
   10.1897  -17.0086   28.1103 C   0  0  0  0  0  0  0  0  0  0  0  0
   10.1337  -15.8539   28.6231 O   0  0  0  0  0  0  0  0  0  0  0  0
   13.3198  -19.4427   23.7631 O   0  0  0  0  0  0  0  0  0  0  0  0
   10.3166  -18.0971   28.9288 O   0  0  0  0  0  0  0  0  0  0  0  0
  2  1  1  6
  2  3  1  0
  3  4  1  0
  4  8  1  0
  5  4  2  0
  6  2  1  0
  7  6  2  0
  9  6  1  0
 10 13  1  0
 10  9  1  0
 10 11  1  1
 12 11  1  0
 13 15  1  0
 14 13  2  0
 15 16  1  0
 16 17  1  6
 16 21  1  0
 17 18  1  0
 19 18  1  0
 20 19  2  0
 21 22  2  0
 21 24  1  0
 23 19  1  0
M  END
$$$$
