DCE.pdb
     RDKit          3D

 24 23  0  0  1  0  0  0  0  0999 V2000
    7.8118  -17.7205   18.1022 N   0  0  0  0  0  0  0  0  0  0  0  0
    9.2760  -17.6678   18.1508 C   0  0  1  0  0  0  0  0  0  0  0  0
    9.7396  -17.1767   16.7993 C   0  0  0  0  0  0  0  0  0  0  0  0
    9.5710  -18.2053   15.7746 C   0  0  0  0  0  0  0  0  0  0  0  0
    8.4747  -18.6691   15.3573 O   0  0  0  0  0  0  0  0  0  0  0  0
    9.6311  -16.6341   19.1542 C   0  0  0  0  0  0  0  0  0  0  0  0
   10.6723  -15.9948   19.0034 O   0  0  0  0  0  0  0  0  0  0  0  0
   10.7154  -18.7577   15.1701 O   0  0  0  0  0  0  0  0  0  0  0  0
    8.8210  -16.3489   20.2830 N   0  0  0  0  0  0  0  0  0  0  0  0
    9.1349  -15.4823   21.3480 C   0  0  1  0  0  0  0  0  0  0  0  0
    8.0166  -14.6891   21.9159 C   0  0  0  0  0  0  0  0  0  0  0  0
    6.7156  -15.8419   22.4412 S   0  0  0  0  0  0  0  0  0  0  0  0
    9.7951  -16.2309   22.4409 C   0  0  0  0  0  0  0  0  0  0  0  0
    9.4538  -17.4293   22.6310 O   0  0  0  0  0  0  0  0  0  0  0  0
   10.7759  -15.7039   23.2830 N   0  0  0  0  0  0  0  0  0  0  0  0
   11.4614  -16.5454   24.2935 C   0  0  1  0  0  0  0  0  0  0  0  0
   12.9272  -16.2131   24.2782 C   0  0  0  0  0  0  0  0  0  0  0  0
   13.7632  -17.0487   23.3905 C   0  0  0  0  0  0  0  0  0  0  0  0
   15.1480  -16.5822   23.2952 C   0  0  0  0  0  0  0  0  0  0  0  0
   16.0179  -17.3403   22.7795 O   0  0  0  0  0  0  0  0  0  0  0  0
   10.9019  -16.2598   25.6302 C   0  0  0  0  0  0  0  0  0  0  0  0
   10.1188  -15.2757   25.7636 O   0  0  0  0  0  0  0  0  0  0  0  0
   15.6142  -15.3525   23.7296 O   0  0  0  0  0  0  0  0  0  0  0  0
   11.2029  -17.0263   26.7224 O   0  0  0  0  0  0  0  0  0  0  0  0
  2  1  1  6
  2  3  1  0
  3  4  1  0
  4  8  1  0
  5  4  2  0
  6  2  1  0
  7  6  2  0
  9  6  1  0
 10 13  1  0
 10  9  1  0
 10 11  1  1
 12 11  1  0
 13 15  1  0
 14 13  2  0
 15 16  1  0
 16 17  1  1
 16 21  1  0
 17 18  1  0
 19 18  1  0
 20 19  2  0
 21 22  2  0
 21 24  1  0
 23 19  1  0
M  END
$$$$
