DCE.pdb
     RDKit          3D

 24 23  0  0  1  0  0  0  0  0999 V2000
   11.3117  -15.5897   18.5138 N   0  0  0  0  0  0  0  0  0  0  0  0
   10.2617  -16.3945   19.1451 C   0  0  1  0  0  0  0  0  0  0  0  0
   10.6410  -17.8427   18.9420 C   0  0  0  0  0  0  0  0  0  0  0  0
   10.5031  -18.2359   17.5410 C   0  0  0  0  0  0  0  0  0  0  0  0
    9.6502  -17.7941   16.7234 O   0  0  0  0  0  0  0  0  0  0  0  0
   10.3246  -16.1099   20.6000 C   0  0  0  0  0  0  0  0  0  0  0  0
   11.4072  -16.2112   21.1773 O   0  0  0  0  0  0  0  0  0  0  0  0
   11.3861  -19.1964   17.0137 O   0  0  0  0  0  0  0  0  0  0  0  0
    9.1888  -15.7246   21.3572 N   0  0  0  0  0  0  0  0  0  0  0  0
    9.1610  -15.3958   22.7265 C   0  0  1  0  0  0  0  0  0  0  0  0
    7.9357  -14.7258   23.2281 C   0  0  0  0  0  0  0  0  0  0  0  0
    8.1509  -14.4094   25.0032 S   0  0  0  0  0  0  0  0  0  0  0  0
    9.4201  -16.5993   23.5482 C   0  0  0  0  0  0  0  0  0  0  0  0
    8.7003  -17.6162   23.3561 O   0  0  0  0  0  0  0  0  0  0  0  0
   10.4105  -16.6924   24.5277 N   0  0  0  0  0  0  0  0  0  0  0  0
   10.5927  -17.9271   25.3284 C   0  0  1  0  0  0  0  0  0  0  0  0
   12.0221  -18.3741   25.2002 C   0  0  0  0  0  0  0  0  0  0  0  0
   12.4128  -19.5191   26.0496 C   0  0  0  0  0  0  0  0  0  0  0  0
   13.8275  -19.8752   25.9225 C   0  0  0  0  0  0  0  0  0  0  0  0
   14.7013  -18.9676   26.0228 O   0  0  0  0  0  0  0  0  0  0  0  0
   10.2874  -17.6421   26.7451 C   0  0  0  0  0  0  0  0  0  0  0  0
   10.2586  -18.6039   27.5659 O   0  0  0  0  0  0  0  0  0  0  0  0
   14.3187  -21.1500   25.6947 O   0  0  0  0  0  0  0  0  0  0  0  0
   10.0382  -16.3742   27.1935 O   0  0  0  0  0  0  0  0  0  0  0  0
  2  1  1  6
  2  3  1  0
  3  4  1  0
  4  8  1  0
  5  4  2  0
  6  2  1  0
  7  6  2  0
  9  6  1  0
 10 13  1  0
 10  9  1  0
 10 11  1  1
 12 11  1  0
 13 15  1  0
 14 13  2  0
 15 16  1  0
 16 17  1  1
 16 21  1  0
 17 18  1  0
 19 18  1  0
 20 19  2  0
 21 22  2  0
 21 24  1  0
 23 19  1  0
M  END
$$$$
