DCE.pdb
     RDKit          3D

 24 23  0  0  1  0  0  0  0  0999 V2000
    8.0820  -18.0921   18.8261 N   0  0  0  0  0  0  0  0  0  0  0  0
    9.3530  -17.3946   18.6093 C   0  0  1  0  0  0  0  0  0  0  0  0
    9.1832  -16.5559   17.3642 C   0  0  0  0  0  0  0  0  0  0  0  0
    9.1168  -17.3913   16.1667 C   0  0  0  0  0  0  0  0  0  0  0  0
    8.1218  -18.0640   15.7814 O   0  0  0  0  0  0  0  0  0  0  0  0
    9.5320  -16.4708   19.7565 C   0  0  0  0  0  0  0  0  0  0  0  0
   10.6077  -15.8858   19.8840 O   0  0  0  0  0  0  0  0  0  0  0  0
   10.2494  -17.4817   15.3365 O   0  0  0  0  0  0  0  0  0  0  0  0
    8.5149  -16.2309   20.7156 N   0  0  0  0  0  0  0  0  0  0  0  0
    8.6467  -15.5178   21.9230 C   0  0  1  0  0  0  0  0  0  0  0  0
    7.3923  -15.0504   22.5634 C   0  0  0  0  0  0  0  0  0  0  0  0
    7.8307  -14.1742   24.0923 S   0  0  0  0  0  0  0  0  0  0  0  0
    9.4200  -16.3104   22.9050 C   0  0  0  0  0  0  0  0  0  0  0  0
    8.9707  -17.4382   23.2441 O   0  0  0  0  0  0  0  0  0  0  0  0
   10.6198  -15.8983   23.4878 N   0  0  0  0  0  0  0  0  0  0  0  0
   11.3519  -16.7628   24.4447 C   0  0  1  0  0  0  0  0  0  0  0  0
   12.8155  -16.4291   24.3681 C   0  0  0  0  0  0  0  0  0  0  0  0
   13.4241  -16.5261   23.0245 C   0  0  0  0  0  0  0  0  0  0  0  0
   14.8583  -16.2307   23.0183 C   0  0  0  0  0  0  0  0  0  0  0  0
   15.4057  -15.8190   24.0805 O   0  0  0  0  0  0  0  0  0  0  0  0
   10.8562  -16.5089   25.8128 C   0  0  0  0  0  0  0  0  0  0  0  0
   10.0424  -15.5586   25.9976 O   0  0  0  0  0  0  0  0  0  0  0  0
   15.7017  -16.3612   21.9275 O   0  0  0  0  0  0  0  0  0  0  0  0
   11.2481  -17.2694   26.8799 O   0  0  0  0  0  0  0  0  0  0  0  0
  2  1  1  1
  2  3  1  0
  3  4  1  0
  4  8  1  0
  5  4  2  0
  6  2  1  0
  7  6  2  0
  9  6  1  0
 10 13  1  0
 10  9  1  0
 10 11  1  1
 12 11  1  0
 13 15  1  0
 14 13  2  0
 15 16  1  0
 16 17  1  1
 16 21  1  0
 17 18  1  0
 19 18  1  0
 20 19  2  0
 21 22  2  0
 21 24  1  0
 23 19  1  0
M  END
$$$$
