DCE.pdb
     RDKit          3D

 24 23  0  0  1  0  0  0  0  0999 V2000
    8.4410  -16.2055   21.5041 N   0  0  0  0  0  0  0  0  0  0  0  0
    9.8023  -16.4742   21.9770 C   0  0  1  0  0  0  0  0  0  0  0  0
   10.7415  -15.7768   21.0210 C   0  0  0  0  0  0  0  0  0  0  0  0
   10.8009  -16.4698   19.7354 C   0  0  0  0  0  0  0  0  0  0  0  0
   10.2224  -17.5524   19.4448 O   0  0  0  0  0  0  0  0  0  0  0  0
    9.9309  -15.8144   23.2998 C   0  0  0  0  0  0  0  0  0  0  0  0
   11.0568  -15.5685   23.7324 O   0  0  0  0  0  0  0  0  0  0  0  0
   11.5655  -15.9098   18.6952 O   0  0  0  0  0  0  0  0  0  0  0  0
    8.8099  -15.4532   24.0902 N   0  0  0  0  0  0  0  0  0  0  0  0
    8.8329  -14.9579   25.4085 C   0  0  1  0  0  0  0  0  0  0  0  0
    7.5820  -14.3380   25.9114 C   0  0  0  0  0  0  0  0  0  0  0  0
    7.1783  -12.9294   24.8388 S   0  0  0  0  0  0  0  0  0  0  0  0
    9.2528  -16.0213   26.3486 C   0  0  0  0  0  0  0  0  0  0  0  0
    8.5381  -17.0562   26.4327 O   0  0  0  0  0  0  0  0  0  0  0  0
   10.3908  -15.9625   27.1550 N   0  0  0  0  0  0  0  0  0  0  0  0
   10.6803  -17.0120   28.1619 C   0  0  1  0  0  0  0  0  0  0  0  0
   11.8861  -17.7880   27.7112 C   0  0  0  0  0  0  0  0  0  0  0  0
   11.7599  -18.4625   26.4019 C   0  0  0  0  0  0  0  0  0  0  0  0
   12.9830  -19.1535   25.9888 C   0  0  0  0  0  0  0  0  0  0  0  0
   13.0129  -19.7317   24.8654 O   0  0  0  0  0  0  0  0  0  0  0  0
   10.9583  -16.3767   29.4660 C   0  0  0  0  0  0  0  0  0  0  0  0
   11.1122  -17.1152   30.4811 O   0  0  0  0  0  0  0  0  0  0  0  0
   14.1483  -19.2397   26.7324 O   0  0  0  0  0  0  0  0  0  0  0  0
   11.0557  -15.0197   29.6067 O   0  0  0  0  0  0  0  0  0  0  0  0
  2  1  1  6
  2  3  1  0
  3  4  1  0
  4  8  1  0
  5  4  2  0
  6  2  1  0
  7  6  2  0
  9  6  1  0
 10 13  1  0
 10  9  1  0
 10 11  1  1
 12 11  1  0
 13 15  1  0
 14 13  2  0
 15 16  1  0
 16 17  1  6
 16 21  1  0
 17 18  1  0
 19 18  1  0
 20 19  2  0
 21 22  2  0
 21 24  1  0
 23 19  1  0
M  END
$$$$
