DCE.pdb
     RDKit          3D

 24 23  0  0  1  0  0  0  0  0999 V2000
   10.0346  -16.7869   18.7730 N   0  0  0  0  0  0  0  0  0  0  0  0
    9.5299  -17.2716   20.0611 C   0  0  1  0  0  0  0  0  0  0  0  0
    9.6761  -18.7753   20.0487 C   0  0  0  0  0  0  0  0  0  0  0  0
    8.6746  -19.3986   19.1855 C   0  0  0  0  0  0  0  0  0  0  0  0
    7.8414  -18.7961   18.4549 O   0  0  0  0  0  0  0  0  0  0  0  0
   10.4408  -16.7369   21.1031 C   0  0  0  0  0  0  0  0  0  0  0  0
   11.6387  -16.6253   20.8424 O   0  0  0  0  0  0  0  0  0  0  0  0
    8.5988  -20.8029   19.1354 O   0  0  0  0  0  0  0  0  0  0  0  0
    9.9905  -16.3470   22.3904 N   0  0  0  0  0  0  0  0  0  0  0  0
   10.7832  -15.8638   23.4497 C   0  0  1  0  0  0  0  0  0  0  0  0
   10.0679  -15.2240   24.5815 C   0  0  0  0  0  0  0  0  0  0  0  0
    8.7740  -16.3645   25.1495 S   0  0  0  0  0  0  0  0  0  0  0  0
   11.6474  -16.9434   23.9773 C   0  0  0  0  0  0  0  0  0  0  0  0
   11.1884  -18.1172   23.9944 O   0  0  0  0  0  0  0  0  0  0  0  0
   12.9436  -16.7563   24.4609 N   0  0  0  0  0  0  0  0  0  0  0  0
   13.7910  -17.9037   24.8662 C   0  0  1  0  0  0  0  0  0  0  0  0
   15.1581  -17.7239   24.2680 C   0  0  0  0  0  0  0  0  0  0  0  0
   15.9196  -16.5533   24.7530 C   0  0  0  0  0  0  0  0  0  0  0  0
   16.9606  -16.1159   23.8207 C   0  0  0  0  0  0  0  0  0  0  0  0
   18.1694  -16.1530   24.1876 O   0  0  0  0  0  0  0  0  0  0  0  0
   13.8950  -17.9401   26.3391 C   0  0  0  0  0  0  0  0  0  0  0  0
   13.3874  -16.9942   27.0077 O   0  0  0  0  0  0  0  0  0  0  0  0
   16.7442  -15.6493   22.5347 O   0  0  0  0  0  0  0  0  0  0  0  0
   14.5194  -18.9632   26.9980 O   0  0  0  0  0  0  0  0  0  0  0  0
  2  1  1  6
  2  3  1  0
  3  4  1  0
  4  8  1  0
  5  4  2  0
  6  2  1  0
  7  6  2  0
  9  6  1  0
 10 13  1  0
 10  9  1  0
 10 11  1  1
 12 11  1  0
 13 15  1  0
 14 13  2  0
 15 16  1  0
 16 17  1  6
 16 21  1  0
 17 18  1  0
 19 18  1  0
 20 19  2  0
 21 22  2  0
 21 24  1  0
 23 19  1  0
M  END
$$$$
