IVH.pdb
     RDKit          3D

 26 26  0  0  1  0  0  0  0  0999 V2000
    6.5179  -18.9629   20.9293 C   0  0  0  0  0  0  0  0  0  0  0  0
    6.4487  -17.4619   20.8421 C   0  0  0  0  0  0  0  0  0  0  0  0
    7.1899  -16.8205   21.9525 C   0  0  2  0  0  0  0  0  0  0  0  0
    6.7625  -17.4416   23.2645 C   0  0  0  0  0  0  0  0  0  0  0  0
    7.1335  -15.3307   22.0354 C   0  0  2  0  0  0  0  0  0  0  0  0
    7.7175  -14.8622   20.7526 N   0  0  0  0  0  0  0  0  0  0  0  0
    7.9771  -14.7587   23.1346 C   0  0  0  0  0  0  0  0  0  0  0  0
    9.2321  -14.7679   23.0406 O   0  0  0  0  0  0  0  0  0  0  0  0
    8.0657  -11.9491   27.1969 C   0  0  0  0  0  0  0  0  0  0  0  0
    7.3973  -12.6104   26.0480 C   0  0  2  0  0  0  0  0  0  0  0  0
    6.0977  -13.2229   26.5366 C   0  0  0  0  0  0  0  0  0  0  0  0
    8.2706  -13.6329   25.3638 C   0  0  2  0  0  0  0  0  0  0  0  0
    7.4148  -14.1933   24.3014 N   0  0  0  0  0  0  0  0  0  0  0  0
    8.7068  -14.7341   26.2566 C   0  0  0  0  0  0  0  0  0  0  0  0
    7.8310  -15.5247   26.7412 O   0  0  0  0  0  0  0  0  0  0  0  0
   10.0324  -15.0116   26.6397 N   0  0  0  0  0  0  0  0  0  0  0  0
   10.3797  -16.1557   27.4629 C   0  0  1  0  0  0  0  0  0  0  0  0
   11.7545  -16.6886   27.1308 C   0  0  0  0  0  0  0  0  0  0  0  0
   11.8361  -17.2645   25.7873 C   0  0  0  0  0  0  0  0  0  0  0  0
   10.8123  -17.3883   24.8734 C   0  0  0  0  0  0  0  0  0  0  0  0
   11.2757  -17.9702   23.7448 N   0  0  0  0  0  0  0  0  0  0  0  0
   12.5775  -18.2008   23.9689 C   0  0  0  0  0  0  0  0  0  0  0  0
   12.9186  -17.7758   25.2012 N   0  0  0  0  0  0  0  0  0  0  0  0
   10.2523  -15.7729   28.8839 C   0  0  0  0  0  0  0  0  0  0  0  0
   10.1278  -16.7624   29.8478 O   0  0  0  0  0  0  0  0  0  0  0  0
   10.2506  -14.5784   29.2737 O   0  0  0  0  0  0  0  0  0  0  0  0
  2  1  1  0
  3  5  1  0
  3  2  1  0
  3  4  1  1
  5  6  1  6
  7  5  1  0
  7  8  2  0
 10  9  1  1
 10 12  1  0
 11 10  1  0
 12 13  1  6
 13  7  1  0
 14 12  1  0
 15 14  2  0
 16 14  1  0
 17 16  1  0
 17 24  1  0
 17 18  1  1
 19 18  1  0
 20 19  2  0
 21 22  1  0
 21 20  1  0
 22 23  2  0
 23 19  1  0
 24 25  1  0
 26 24  2  0
M  END
$$$$
