IVH.pdb
     RDKit          3D

 26 26  0  0  1  0  0  0  0  0999 V2000
    2.9812  -18.2571   20.5288 C   0  0  0  0  0  0  0  0  0  0  0  0
    3.9650  -17.9831   21.6344 C   0  0  0  0  0  0  0  0  0  0  0  0
    4.8397  -19.1523   21.8826 C   0  0  2  0  0  0  0  0  0  0  0  0
    3.9872  -20.3448   22.2578 C   0  0  0  0  0  0  0  0  0  0  0  0
    5.9505  -18.9731   22.8643 C   0  0  2  0  0  0  0  0  0  0  0  0
    5.2787  -18.5302   24.1128 N   0  0  0  0  0  0  0  0  0  0  0  0
    6.9197  -17.8949   22.4832 C   0  0  0  0  0  0  0  0  0  0  0  0
    7.7854  -18.1059   21.5943 O   0  0  0  0  0  0  0  0  0  0  0  0
    6.3828  -14.4278   21.2013 C   0  0  0  0  0  0  0  0  0  0  0  0
    7.1448  -14.3559   22.4735 C   0  0  2  0  0  0  0  0  0  0  0  0
    8.0410  -13.1321   22.4275 C   0  0  0  0  0  0  0  0  0  0  0  0
    7.9315  -15.6101   22.7638 C   0  0  2  0  0  0  0  0  0  0  0  0
    6.9060  -16.6185   23.0899 N   0  0  0  0  0  0  0  0  0  0  0  0
    8.8555  -15.4780   23.9166 C   0  0  0  0  0  0  0  0  0  0  0  0
    9.4017  -14.3490   24.1486 O   0  0  0  0  0  0  0  0  0  0  0  0
    9.2061  -16.5020   24.8163 N   0  0  0  0  0  0  0  0  0  0  0  0
    9.0584  -16.3579   26.2531 C   0  0  1  0  0  0  0  0  0  0  0  0
    7.6191  -16.1188   26.6476 C   0  0  0  0  0  0  0  0  0  0  0  0
    7.2573  -14.7003   26.6610 C   0  0  0  0  0  0  0  0  0  0  0  0
    8.1165  -13.6247   26.7239 C   0  0  0  0  0  0  0  0  0  0  0  0
    7.4083  -12.4735   26.7156 N   0  0  0  0  0  0  0  0  0  0  0  0
    6.1216  -12.8448   26.6479 C   0  0  0  0  0  0  0  0  0  0  0  0
    6.0274  -14.1885   26.6148 N   0  0  0  0  0  0  0  0  0  0  0  0
    9.6316  -17.5503   26.9101 C   0  0  0  0  0  0  0  0  0  0  0  0
   10.0760  -18.6094   26.1326 O   0  0  0  0  0  0  0  0  0  0  0  0
    9.7404  -17.6592   28.1572 O   0  0  0  0  0  0  0  0  0  0  0  0
  2  1  1  0
  3  5  1  0
  3  2  1  0
  3  4  1  1
  5  6  1  1
  7  5  1  0
  7  8  2  0
 10  9  1  6
 10 12  1  0
 11 10  1  0
 12 13  1  1
 13  7  1  0
 14 12  1  0
 15 14  2  0
 16 14  1  0
 17 16  1  0
 17 24  1  0
 17 18  1  6
 19 18  1  0
 20 19  2  0
 21 22  1  0
 21 20  1  0
 22 23  2  0
 23 19  1  0
 24 25  1  0
 26 24  2  0
M  END
$$$$
