IVH.pdb
     RDKit          3D

 26 26  0  0  1  0  0  0  0  0999 V2000
    6.7129  -11.1023   27.4928 C   0  0  0  0  0  0  0  0  0  0  0  0
    5.9082  -11.9948   26.5865 C   0  0  0  0  0  0  0  0  0  0  0  0
    6.7724  -12.9660   25.8768 C   0  0  2  0  0  0  0  0  0  0  0  0
    7.8968  -12.2250   25.1868 C   0  0  0  0  0  0  0  0  0  0  0  0
    6.1025  -13.9034   24.9269 C   0  0  2  0  0  0  0  0  0  0  0  0
    5.1788  -14.6990   25.7753 N   0  0  0  0  0  0  0  0  0  0  0  0
    7.0434  -14.8726   24.2769 C   0  0  0  0  0  0  0  0  0  0  0  0
    7.3405  -15.9512   24.8534 O   0  0  0  0  0  0  0  0  0  0  0  0
    7.1920  -15.0664   20.3338 C   0  0  0  0  0  0  0  0  0  0  0  0
    8.5455  -15.2184   20.9248 C   0  0  2  0  0  0  0  0  0  0  0  0
    9.3255  -16.2149   20.0873 C   0  0  0  0  0  0  0  0  0  0  0  0
    8.5146  -15.6187   22.3791 C   0  0  2  0  0  0  0  0  0  0  0  0
    7.6266  -14.6266   23.0133 N   0  0  0  0  0  0  0  0  0  0  0  0
    9.8420  -15.5626   23.0387 C   0  0  0  0  0  0  0  0  0  0  0  0
   10.2767  -14.4419   23.4654 O   0  0  0  0  0  0  0  0  0  0  0  0
   10.7048  -16.6536   23.2538 N   0  0  0  0  0  0  0  0  0  0  0  0
   11.2313  -16.9804   24.5665 C   0  0  1  0  0  0  0  0  0  0  0  0
   10.1314  -17.1141   25.5944 C   0  0  0  0  0  0  0  0  0  0  0  0
   10.6285  -17.4906   26.9190 C   0  0  0  0  0  0  0  0  0  0  0  0
   11.9444  -17.6316   27.3029 C   0  0  0  0  0  0  0  0  0  0  0  0
   12.0042  -17.9900   28.6048 N   0  0  0  0  0  0  0  0  0  0  0  0
   10.7297  -18.0675   29.0142 C   0  0  0  0  0  0  0  0  0  0  0  0
    9.8969  -17.7665   27.9985 N   0  0  0  0  0  0  0  0  0  0  0  0
   12.0510  -18.2044   24.4566 C   0  0  0  0  0  0  0  0  0  0  0  0
   11.5833  -19.2728   23.7060 O   0  0  0  0  0  0  0  0  0  0  0  0
   13.1688  -18.3324   25.0160 O   0  0  0  0  0  0  0  0  0  0  0  0
  2  1  1  0
  3  5  1  0
  3  2  1  0
  3  4  1  6
  5  6  1  1
  7  5  1  0
  7  8  2  0
 10  9  1  6
 10 12  1  0
 11 10  1  0
 12 13  1  1
 13  7  1  0
 14 12  1  0
 15 14  2  0
 16 14  1  0
 17 16  1  0
 17 24  1  0
 17 18  1  1
 19 18  1  0
 20 19  2  0
 21 22  1  0
 21 20  1  0
 22 23  2  0
 23 19  1  0
 24 25  1  0
 26 24  2  0
M  END
$$$$
