IVH.pdb
     RDKit          3D

 26 26  0  0  1  0  0  0  0  0999 V2000
    6.1094  -21.2014   19.6076 C   0  0  0  0  0  0  0  0  0  0  0  0
    6.2813  -19.8079   19.0655 C   0  0  0  0  0  0  0  0  0  0  0  0
    6.9961  -18.9374   20.0272 C   0  0  2  0  0  0  0  0  0  0  0  0
    6.3201  -19.0228   21.3783 C   0  0  0  0  0  0  0  0  0  0  0  0
    7.1986  -17.5117   19.6321 C   0  0  2  0  0  0  0  0  0  0  0  0
    7.9733  -17.5805   18.3667 N   0  0  0  0  0  0  0  0  0  0  0  0
    8.0247  -16.7301   20.6086 C   0  0  0  0  0  0  0  0  0  0  0  0
    9.2496  -16.9835   20.7482 O   0  0  0  0  0  0  0  0  0  0  0  0
    7.7096  -12.8815   21.0604 C   0  0  0  0  0  0  0  0  0  0  0  0
    7.6967  -13.5613   22.3802 C   0  0  2  0  0  0  0  0  0  0  0  0
    8.3850  -12.6616   23.3901 C   0  0  0  0  0  0  0  0  0  0  0  0
    8.3195  -14.9349   22.3445 C   0  0  2  0  0  0  0  0  0  0  0  0
    7.4791  -15.6937   21.3996 N   0  0  0  0  0  0  0  0  0  0  0  0
    8.3074  -15.6267   23.6566 C   0  0  0  0  0  0  0  0  0  0  0  0
    7.2197  -16.1442   24.0759 O   0  0  0  0  0  0  0  0  0  0  0  0
    9.4083  -15.7806   24.5199 N   0  0  0  0  0  0  0  0  0  0  0  0
    9.5881  -16.9601   25.3467 C   0  0  1  0  0  0  0  0  0  0  0  0
    9.4608  -18.2333   24.5423 C   0  0  0  0  0  0  0  0  0  0  0  0
    9.7988  -19.4324   25.3112 C   0  0  0  0  0  0  0  0  0  0  0  0
   10.1692  -19.4916   26.6372 C   0  0  0  0  0  0  0  0  0  0  0  0
   10.4018  -20.7757   26.9893 N   0  0  0  0  0  0  0  0  0  0  0  0
   10.1744  -21.4977   25.8825 C   0  0  0  0  0  0  0  0  0  0  0  0
    9.8101  -20.6895   24.8678 N   0  0  0  0  0  0  0  0  0  0  0  0
   10.8891  -16.8593   26.0391 C   0  0  0  0  0  0  0  0  0  0  0  0
   11.0075  -17.3284   27.3389 O   0  0  0  0  0  0  0  0  0  0  0  0
   11.9123  -16.3628   25.5050 O   0  0  0  0  0  0  0  0  0  0  0  0
  2  1  1  0
  3  5  1  0
  3  2  1  0
  3  4  1  1
  5  6  1  6
  7  5  1  0
  7  8  2  0
 10  9  1  6
 10 12  1  0
 11 10  1  0
 12 13  1  6
 13  7  1  0
 14 12  1  0
 15 14  2  0
 16 14  1  0
 17 16  1  0
 17 24  1  0
 17 18  1  6
 19 18  1  0
 20 19  2  0
 21 22  1  0
 21 20  1  0
 22 23  2  0
 23 19  1  0
 24 25  1  0
 26 24  2  0
M  END
$$$$
