IVH.pdb
     RDKit          3D

 26 26  0  0  1  0  0  0  0  0999 V2000
    8.0033  -11.8062   18.4647 C   0  0  0  0  0  0  0  0  0  0  0  0
    8.5976  -13.1269   18.0552 C   0  0  0  0  0  0  0  0  0  0  0  0
    8.5352  -14.1137   19.1579 C   0  0  2  0  0  0  0  0  0  0  0  0
    9.1576  -13.5157   20.4008 C   0  0  0  0  0  0  0  0  0  0  0  0
    9.1011  -15.4691   18.8891 C   0  0  2  0  0  0  0  0  0  0  0  0
    8.2318  -16.0332   17.8250 N   0  0  0  0  0  0  0  0  0  0  0  0
    9.0154  -16.3984   20.0621 C   0  0  0  0  0  0  0  0  0  0  0  0
    7.9135  -16.9162   20.3814 O   0  0  0  0  0  0  0  0  0  0  0  0
   11.3175  -19.3648   21.0488 C   0  0  0  0  0  0  0  0  0  0  0  0
   11.2498  -18.3607   22.1404 C   0  0  2  0  0  0  0  0  0  0  0  0
   11.3780  -19.0854   23.4675 C   0  0  0  0  0  0  0  0  0  0  0  0
   10.0028  -17.5131   22.0883 C   0  0  2  0  0  0  0  0  0  0  0  0
   10.1434  -16.7306   20.8461 N   0  0  0  0  0  0  0  0  0  0  0  0
    9.8733  -16.5764   23.2311 C   0  0  0  0  0  0  0  0  0  0  0  0
   10.7475  -15.6607   23.3857 O   0  0  0  0  0  0  0  0  0  0  0  0
    8.8508  -16.5888   24.1982 N   0  0  0  0  0  0  0  0  0  0  0  0
    8.6778  -15.5151   25.1596 C   0  0  1  0  0  0  0  0  0  0  0  0
    7.2511  -15.0172   25.1933 C   0  0  0  0  0  0  0  0  0  0  0  0
    7.0470  -13.9295   26.1517 C   0  0  0  0  0  0  0  0  0  0  0  0
    8.0031  -13.3272   26.9402 C   0  0  0  0  0  0  0  0  0  0  0  0
    7.4310  -12.3632   27.6954 N   0  0  0  0  0  0  0  0  0  0  0  0
    6.1305  -12.3768   27.3692 C   0  0  0  0  0  0  0  0  0  0  0  0
    5.8957  -13.3215   26.4374 N   0  0  0  0  0  0  0  0  0  0  0  0
    9.1421  -15.9835   26.4813 C   0  0  0  0  0  0  0  0  0  0  0  0
    9.8598  -15.1210   27.2966 O   0  0  0  0  0  0  0  0  0  0  0  0
    8.9182  -17.1414   26.9149 O   0  0  0  0  0  0  0  0  0  0  0  0
  2  1  1  0
  3  5  1  0
  3  2  1  0
  3  4  1  1
  5  6  1  6
  7  5  1  0
  7  8  2  0
 10  9  1  6
 10 12  1  0
 11 10  1  0
 12 13  1  6
 13  7  1  0
 14 12  1  0
 15 14  2  0
 16 14  1  0
 17 16  1  0
 17 24  1  0
 17 18  1  1
 19 18  1  0
 20 19  2  0
 21 22  1  0
 21 20  1  0
 22 23  2  0
 23 19  1  0
 24 25  1  0
 26 24  2  0
M  END
$$$$
