IVH.pdb
     RDKit          3D

 26 26  0  0  1  0  0  0  0  0999 V2000
    7.0032  -11.0954   26.6880 C   0  0  0  0  0  0  0  0  0  0  0  0
    6.4368  -12.4696   26.9250 C   0  0  0  0  0  0  0  0  0  0  0  0
    7.0769  -13.4774   26.0485 C   0  0  2  0  0  0  0  0  0  0  0  0
    6.9822  -13.0215   24.6088 C   0  0  0  0  0  0  0  0  0  0  0  0
    6.6092  -14.8891   26.1827 C   0  0  2  0  0  0  0  0  0  0  0  0
    6.7948  -15.2097   27.6210 N   0  0  0  0  0  0  0  0  0  0  0  0
    7.4340  -15.8707   25.4060 C   0  0  0  0  0  0  0  0  0  0  0  0
    8.5834  -16.1902   25.8069 O   0  0  0  0  0  0  0  0  0  0  0  0
    6.0167  -19.1959   23.9574 C   0  0  0  0  0  0  0  0  0  0  0  0
    6.7601  -18.4327   22.9235 C   0  0  2  0  0  0  0  0  0  0  0  0
    7.4027  -19.4205   21.9673 C   0  0  0  0  0  0  0  0  0  0  0  0
    7.7765  -17.4821   23.5062 C   0  0  2  0  0  0  0  0  0  0  0  0
    6.9689  -16.4713   24.2141 N   0  0  0  0  0  0  0  0  0  0  0  0
    8.6064  -16.8000   22.4834 C   0  0  0  0  0  0  0  0  0  0  0  0
    8.0452  -16.0097   21.6544 O   0  0  0  0  0  0  0  0  0  0  0  0
    9.9984  -16.9347   22.3244 N   0  0  0  0  0  0  0  0  0  0  0  0
   10.7410  -16.1931   21.3216 C   0  0  1  0  0  0  0  0  0  0  0  0
   10.5937  -14.7001   21.5051 C   0  0  0  0  0  0  0  0  0  0  0  0
    9.5058  -14.1301   20.7085 C   0  0  0  0  0  0  0  0  0  0  0  0
    8.7028  -14.7921   19.8052 C   0  0  0  0  0  0  0  0  0  0  0  0
    7.8119  -13.9292   19.2681 N   0  0  0  0  0  0  0  0  0  0  0  0
    8.0699  -12.7447   19.8413 C   0  0  0  0  0  0  0  0  0  0  0  0
    9.0920  -12.8630   20.7113 N   0  0  0  0  0  0  0  0  0  0  0  0
   12.1521  -16.6285   21.3591 C   0  0  0  0  0  0  0  0  0  0  0  0
   13.0432  -16.1340   20.4182 O   0  0  0  0  0  0  0  0  0  0  0  0
   12.5969  -17.4368   22.2121 O   0  0  0  0  0  0  0  0  0  0  0  0
  2  1  1  0
  3  5  1  0
  3  2  1  0
  3  4  1  6
  5  6  1  1
  7  5  1  0
  7  8  2  0
 10  9  1  1
 10 12  1  0
 11 10  1  0
 12 13  1  6
 13  7  1  0
 14 12  1  0
 15 14  2  0
 16 14  1  0
 17 16  1  0
 17 24  1  0
 17 18  1  1
 19 18  1  0
 20 19  2  0
 21 22  1  0
 21 20  1  0
 22 23  2  0
 23 19  1  0
 24 25  1  0
 26 24  2  0
M  END
$$$$
