IVH.pdb
     RDKit          3D

 26 26  0  0  1  0  0  0  0  0999 V2000
    6.7328  -11.0928   26.6723 C   0  0  0  0  0  0  0  0  0  0  0  0
    6.0543  -12.1782   25.8804 C   0  0  0  0  0  0  0  0  0  0  0  0
    6.9012  -13.3896   25.7864 C   0  0  2  0  0  0  0  0  0  0  0  0
    8.2846  -12.9981   25.3148 C   0  0  0  0  0  0  0  0  0  0  0  0
    6.3731  -14.5260   24.9744 C   0  0  2  0  0  0  0  0  0  0  0  0
    5.0664  -14.8564   25.5984 N   0  0  0  0  0  0  0  0  0  0  0  0
    7.2187  -15.7614   25.0503 C   0  0  0  0  0  0  0  0  0  0  0  0
    7.0761  -16.5696   26.0046 O   0  0  0  0  0  0  0  0  0  0  0  0
   10.3408  -16.4516   22.2501 C   0  0  0  0  0  0  0  0  0  0  0  0
    9.4474  -17.5390   22.7230 C   0  0  2  0  0  0  0  0  0  0  0  0
    8.2947  -17.6723   21.7450 C   0  0  0  0  0  0  0  0  0  0  0  0
    8.9572  -17.3305   24.1345 C   0  0  2  0  0  0  0  0  0  0  0  0
    8.1932  -16.0704   24.0744 N   0  0  0  0  0  0  0  0  0  0  0  0
   10.0497  -17.1801   25.1264 C   0  0  0  0  0  0  0  0  0  0  0  0
   10.2725  -16.0321   25.6357 O   0  0  0  0  0  0  0  0  0  0  0  0
   10.8974  -18.2061   25.5843 N   0  0  0  0  0  0  0  0  0  0  0  0
   11.6618  -18.0918   26.8130 C   0  0  1  0  0  0  0  0  0  0  0  0
   10.7689  -17.8521   28.0086 C   0  0  0  0  0  0  0  0  0  0  0  0
   10.5591  -16.4309   28.2906 C   0  0  0  0  0  0  0  0  0  0  0  0
   10.9061  -15.3652   27.4888 C   0  0  0  0  0  0  0  0  0  0  0  0
   10.5509  -14.2075   28.0892 N   0  0  0  0  0  0  0  0  0  0  0  0
    9.9892  -14.5650   29.2532 C   0  0  0  0  0  0  0  0  0  0  0  0
    9.9928  -15.9067   29.3774 N   0  0  0  0  0  0  0  0  0  0  0  0
   12.4954  -19.3016   26.9664 C   0  0  0  0  0  0  0  0  0  0  0  0
   13.4361  -19.3566   27.9841 O   0  0  0  0  0  0  0  0  0  0  0  0
   12.3968  -20.3013   26.2116 O   0  0  0  0  0  0  0  0  0  0  0  0
  2  1  1  0
  3  5  1  0
  3  2  1  0
  3  4  1  6
  5  6  1  1
  7  5  1  0
  7  8  2  0
 10  9  1  6
 10 12  1  0
 11 10  1  0
 12 13  1  6
 13  7  1  0
 14 12  1  0
 15 14  2  0
 16 14  1  0
 17 16  1  0
 17 24  1  0
 17 18  1  1
 19 18  1  0
 20 19  2  0
 21 22  1  0
 21 20  1  0
 22 23  2  0
 23 19  1  0
 24 25  1  0
 26 24  2  0
M  END
$$$$
