IVH.pdb
     RDKit          3D

 26 26  0  0  1  0  0  0  0  0999 V2000
    7.1697  -18.4406   21.3206 C   0  0  0  0  0  0  0  0  0  0  0  0
    7.7016  -17.0379   21.4421 C   0  0  0  0  0  0  0  0  0  0  0  0
    6.6047  -16.0429   21.4623 C   0  0  2  0  0  0  0  0  0  0  0  0
    5.7175  -16.2511   20.2543 C   0  0  0  0  0  0  0  0  0  0  0  0
    6.9931  -14.6064   21.5855 C   0  0  2  0  0  0  0  0  0  0  0  0
    7.8747  -14.3556   20.4167 N   0  0  0  0  0  0  0  0  0  0  0  0
    7.7987  -14.3060   22.8133 C   0  0  0  0  0  0  0  0  0  0  0  0
    9.0563  -14.3114   22.7633 O   0  0  0  0  0  0  0  0  0  0  0  0
    6.6029  -11.7028   25.5082 C   0  0  0  0  0  0  0  0  0  0  0  0
    7.1156  -12.9368   26.1551 C   0  0  2  0  0  0  0  0  0  0  0  0
    7.8170  -12.5473   27.4432 C   0  0  0  0  0  0  0  0  0  0  0  0
    8.0160  -13.7464   25.2552 C   0  0  2  0  0  0  0  0  0  0  0  0
    7.1970  -14.0077   24.0568 N   0  0  0  0  0  0  0  0  0  0  0  0
    8.4312  -15.0437   25.8422 C   0  0  0  0  0  0  0  0  0  0  0  0
    7.5358  -15.8789   26.1992 O   0  0  0  0  0  0  0  0  0  0  0  0
    9.7562  -15.4687   26.0542 N   0  0  0  0  0  0  0  0  0  0  0  0
   10.0741  -16.7597   26.6369 C   0  0  1  0  0  0  0  0  0  0  0  0
   11.4163  -17.2715   26.1672 C   0  0  0  0  0  0  0  0  0  0  0  0
   11.5008  -17.4047   24.7118 C   0  0  0  0  0  0  0  0  0  0  0  0
   10.4716  -17.6976   23.8436 C   0  0  0  0  0  0  0  0  0  0  0  0
   10.9401  -17.7356   22.5763 N   0  0  0  0  0  0  0  0  0  0  0  0
   12.2504  -17.4668   22.6704 C   0  0  0  0  0  0  0  0  0  0  0  0
   12.5917  -17.2666   23.9584 N   0  0  0  0  0  0  0  0  0  0  0  0
    9.9977  -16.6471   28.1078 C   0  0  0  0  0  0  0  0  0  0  0  0
   10.0202  -17.7980   28.8816 O   0  0  0  0  0  0  0  0  0  0  0  0
    9.9120  -15.5458   28.7067 O   0  0  0  0  0  0  0  0  0  0  0  0
  2  1  1  0
  3  5  1  0
  3  2  1  0
  3  4  1  6
  5  6  1  6
  7  5  1  0
  7  8  2  0
 10  9  1  6
 10 12  1  0
 11 10  1  0
 12 13  1  6
 13  7  1  0
 14 12  1  0
 15 14  2  0
 16 14  1  0
 17 16  1  0
 17 24  1  0
 17 18  1  1
 19 18  1  0
 20 19  2  0
 21 22  1  0
 21 20  1  0
 22 23  2  0
 23 19  1  0
 24 25  1  0
 26 24  2  0
M  END
$$$$
