IVH.pdb
     RDKit          3D

 26 26  0  0  1  0  0  0  0  0999 V2000
    7.7998  -20.8985   20.0824 C   0  0  0  0  0  0  0  0  0  0  0  0
    8.3978  -19.6487   19.4945 C   0  0  0  0  0  0  0  0  0  0  0  0
    7.3724  -18.8290   18.8087 C   0  0  2  0  0  0  0  0  0  0  0  0
    6.6646  -19.6757   17.7734 C   0  0  0  0  0  0  0  0  0  0  0  0
    7.8244  -17.5381   18.2093 C   0  0  2  0  0  0  0  0  0  0  0  0
    8.8580  -17.9282   17.2165 N   0  0  0  0  0  0  0  0  0  0  0  0
    8.4865  -16.6198   19.1918 C   0  0  0  0  0  0  0  0  0  0  0  0
    9.7281  -16.6881   19.3860 O   0  0  0  0  0  0  0  0  0  0  0  0
    7.4067  -12.7518   19.9102 C   0  0  0  0  0  0  0  0  0  0  0  0
    7.4924  -13.6297   21.1044 C   0  0  2  0  0  0  0  0  0  0  0  0
    7.8833  -12.7786   22.2985 C   0  0  0  0  0  0  0  0  0  0  0  0
    8.4360  -14.7920   20.9180 C   0  0  2  0  0  0  0  0  0  0  0  0
    7.7634  -15.6547   19.9287 N   0  0  0  0  0  0  0  0  0  0  0  0
    8.6659  -15.5749   22.1567 C   0  0  0  0  0  0  0  0  0  0  0  0
    7.7449  -16.3474   22.5831 O   0  0  0  0  0  0  0  0  0  0  0  0
    9.8348  -15.5575   22.9404 N   0  0  0  0  0  0  0  0  0  0  0  0
   10.0052  -16.4136   24.1002 C   0  0  1  0  0  0  0  0  0  0  0  0
    9.8065  -17.8716   23.7549 C   0  0  0  0  0  0  0  0  0  0  0  0
   10.7226  -18.3435   22.7150 C   0  0  0  0  0  0  0  0  0  0  0  0
   11.7879  -17.6577   22.1732 C   0  0  0  0  0  0  0  0  0  0  0  0
   12.3957  -18.4225   21.2390 N   0  0  0  0  0  0  0  0  0  0  0  0
   11.7040  -19.5709   21.2107 C   0  0  0  0  0  0  0  0  0  0  0  0
   10.6934  -19.5261   22.1007 N   0  0  0  0  0  0  0  0  0  0  0  0
   11.3331  -16.1510   24.6917 C   0  0  0  0  0  0  0  0  0  0  0  0
   11.7051  -16.8127   25.8524 O   0  0  0  0  0  0  0  0  0  0  0  0
   12.1585  -15.3464   24.1914 O   0  0  0  0  0  0  0  0  0  0  0  0
  2  1  1  0
  3  5  1  0
  3  2  1  0
  3  4  1  6
  5  6  1  6
  7  5  1  0
  7  8  2  0
 10  9  1  6
 10 12  1  0
 11 10  1  0
 12 13  1  6
 13  7  1  0
 14 12  1  0
 15 14  2  0
 16 14  1  0
 17 16  1  0
 17 24  1  0
 17 18  1  6
 19 18  1  0
 20 19  2  0
 21 22  1  0
 21 20  1  0
 22 23  2  0
 23 19  1  0
 24 25  1  0
 26 24  2  0
M  END
$$$$
