IVH.pdb
     RDKit          3D

 26 26  0  0  1  0  0  0  0  0999 V2000
    8.2724  -11.5546   19.2119 C   0  0  0  0  0  0  0  0  0  0  0  0
    7.5586  -12.8785   19.1557 C   0  0  0  0  0  0  0  0  0  0  0  0
    8.0022  -13.7791   20.2447 C   0  0  2  0  0  0  0  0  0  0  0  0
    9.5100  -13.9022   20.2099 C   0  0  0  0  0  0  0  0  0  0  0  0
    7.3680  -15.1294   20.3100 C   0  0  2  0  0  0  0  0  0  0  0  0
    5.9157  -14.8540   20.4557 N   0  0  0  0  0  0  0  0  0  0  0  0
    7.7834  -15.9300   21.5072 C   0  0  0  0  0  0  0  0  0  0  0  0
    7.3824  -15.6074   22.6558 O   0  0  0  0  0  0  0  0  0  0  0  0
    7.3178  -19.3853   22.5584 C   0  0  0  0  0  0  0  0  0  0  0  0
    8.7823  -19.1632   22.4582 C   0  0  2  0  0  0  0  0  0  0  0  0
    9.4717  -20.0370   23.4898 C   0  0  0  0  0  0  0  0  0  0  0  0
    9.1727  -17.7136   22.6079 C   0  0  2  0  0  0  0  0  0  0  0  0
    8.6251  -17.0607   21.4042 N   0  0  0  0  0  0  0  0  0  0  0  0
   10.6392  -17.4944   22.6451 C   0  0  0  0  0  0  0  0  0  0  0  0
   11.2886  -17.4497   21.5482 O   0  0  0  0  0  0  0  0  0  0  0  0
   11.4201  -17.3224   23.8034 N   0  0  0  0  0  0  0  0  0  0  0  0
   12.8348  -17.0020   23.7460 C   0  0  1  0  0  0  0  0  0  0  0  0
   13.0711  -15.5944   23.2490 C   0  0  0  0  0  0  0  0  0  0  0  0
   13.2377  -15.5205   21.7964 C   0  0  0  0  0  0  0  0  0  0  0  0
   13.2880  -16.5758   20.9117 C   0  0  0  0  0  0  0  0  0  0  0  0
   13.4511  -16.1094   19.6536 N   0  0  0  0  0  0  0  0  0  0  0  0
   13.5001  -14.7744   19.7698 C   0  0  0  0  0  0  0  0  0  0  0  0
   13.3715  -14.4160   21.0623 N   0  0  0  0  0  0  0  0  0  0  0  0
   13.4277  -17.2356   25.0786 C   0  0  0  0  0  0  0  0  0  0  0  0
   14.8061  -17.1963   25.2277 O   0  0  0  0  0  0  0  0  0  0  0  0
   12.7389  -17.4722   26.1026 O   0  0  0  0  0  0  0  0  0  0  0  0
  2  1  1  0
  3  5  1  0
  3  2  1  0
  3  4  1  6
  5  6  1  1
  7  5  1  0
  7  8  2  0
 10  9  1  1
 10 12  1  0
 11 10  1  0
 12 13  1  6
 13  7  1  0
 14 12  1  0
 15 14  2  0
 16 14  1  0
 17 16  1  0
 17 24  1  0
 17 18  1  1
 19 18  1  0
 20 19  2  0
 21 22  1  0
 21 20  1  0
 22 23  2  0
 23 19  1  0
 24 25  1  0
 26 24  2  0
M  END
$$$$
