TYE.pdb
     RDKit          3D

 29 29  0  0  1  0  0  0  0  0999 V2000
    6.9833  -16.1648   20.0692 C   0  0  0  0  0  0  0  0  0  0  0  0
    7.6935  -15.0551   19.3718 C   0  0  1  0  0  0  0  0  0  0  0  0
    7.2197  -14.9172   18.0848 O   0  0  0  0  0  0  0  0  0  0  0  0
    7.6521  -13.7381   20.1386 C   0  0  2  0  0  0  0  0  0  0  0  0
    8.0827  -12.6672   19.2937 N   0  0  0  0  0  0  0  0  0  0  0  0
    8.3969  -13.8280   21.4205 C   0  0  0  0  0  0  0  0  0  0  0  0
    9.6340  -13.7790   21.3843 O   0  0  0  0  0  0  0  0  0  0  0  0
   10.3215  -14.9844   30.0119 O   0  0  0  0  0  0  0  0  0  0  0  0
    9.6340  -14.7484   28.8101 C   0  0  0  0  0  0  0  0  0  0  0  0
    9.6731  -13.4995   28.2329 C   0  0  0  0  0  0  0  0  0  0  0  0
    8.9959  -13.2672   27.0494 C   0  0  0  0  0  0  0  0  0  0  0  0
    8.2673  -14.2362   26.3990 C   0  0  0  0  0  0  0  0  0  0  0  0
    7.5510  -13.9606   25.1323 C   0  0  0  0  0  0  0  0  0  0  0  0
    8.4024  -14.1754   23.9230 C   0  0  2  0  0  0  0  0  0  0  0  0
    7.7629  -13.9662   22.6722 N   0  0  0  0  0  0  0  0  0  0  0  0
    9.0091  -15.5283   23.9554 C   0  0  0  0  0  0  0  0  0  0  0  0
    8.2680  -16.5500   23.7536 O   0  0  0  0  0  0  0  0  0  0  0  0
    8.2441  -15.4858   27.0017 C   0  0  0  0  0  0  0  0  0  0  0  0
    8.9138  -15.7323   28.1808 C   0  0  0  0  0  0  0  0  0  0  0  0
   10.3719  -15.7673   24.1974 N   0  0  0  0  0  0  0  0  0  0  0  0
   10.9591  -17.1257   24.0976 C   0  0  1  0  0  0  0  0  0  0  0  0
   12.1536  -17.0226   23.1989 C   0  0  0  0  0  0  0  0  0  0  0  0
   12.8657  -18.3325   23.1067 C   0  0  0  0  0  0  0  0  0  0  0  0
   14.0459  -18.2493   22.1874 C   0  0  0  0  0  0  0  0  0  0  0  0
   15.1543  -17.8522   22.6059 O   0  0  0  0  0  0  0  0  0  0  0  0
   11.2310  -17.6642   25.4306 C   0  0  0  0  0  0  0  0  0  0  0  0
   11.8679  -16.8081   26.3514 O   0  0  0  0  0  0  0  0  0  0  0  0
   13.9025  -18.6162   20.8641 O   0  0  0  0  0  0  0  0  0  0  0  0
   10.9240  -18.8316   25.7711 O   0  0  0  0  0  0  0  0  0  0  0  0
  2  1  1  1
  2  4  1  0
  3  2  1  0
  4  5  1  6
  6  4  1  0
  6  7  2  0
  9  8  1  0
 10  9  2  0
 11 10  1  0
 12 11  2  0
 12 18  1  0
 14 13  1  1
 13 12  1  0
 14 15  1  0
 15  6  1  0
 16 14  1  0
 17 16  2  0
 18 19  2  0
 19  9  1  0
 20 16  1  0
 21 22  1  6
 21 20  1  0
 22 23  1  0
 23 24  1  0
 24 28  1  0
 25 24  2  0
 26 27  1  0
 26 21  1  0
 29 26  2  0
M  END
$$$$
