TYE.pdb
     RDKit          3D

 29 29  0  0  1  0  0  0  0  0999 V2000
    8.4992  -18.9517   18.2291 C   0  0  0  0  0  0  0  0  0  0  0  0
    8.7022  -18.2522   19.5298 C   0  0  1  0  0  0  0  0  0  0  0  0
    9.5444  -18.9828   20.3402 O   0  0  0  0  0  0  0  0  0  0  0  0
    9.1724  -16.8108   19.3711 C   0  0  2  0  0  0  0  0  0  0  0  0
   10.3688  -16.7706   18.5880 N   0  0  0  0  0  0  0  0  0  0  0  0
    9.2913  -16.1268   20.6842 C   0  0  0  0  0  0  0  0  0  0  0  0
   10.3881  -16.1485   21.2593 O   0  0  0  0  0  0  0  0  0  0  0  0
    7.3245  -11.7742   28.1647 O   0  0  0  0  0  0  0  0  0  0  0  0
    7.2286  -12.3695   26.8962 C   0  0  0  0  0  0  0  0  0  0  0  0
    7.9090  -11.8246   25.8310 C   0  0  0  0  0  0  0  0  0  0  0  0
    7.8143  -12.4109   24.5818 C   0  0  0  0  0  0  0  0  0  0  0  0
    7.0609  -13.5356   24.3357 C   0  0  0  0  0  0  0  0  0  0  0  0
    6.9767  -14.1434   22.9878 C   0  0  0  0  0  0  0  0  0  0  0  0
    8.2198  -14.8773   22.6009 C   0  0  2  0  0  0  0  0  0  0  0  0
    8.2170  -15.4562   21.3040 N   0  0  0  0  0  0  0  0  0  0  0  0
    8.5399  -15.9142   23.6118 C   0  0  0  0  0  0  0  0  0  0  0  0
    7.8116  -16.9622   23.6835 O   0  0  0  0  0  0  0  0  0  0  0  0
    6.3853  -14.0647   25.4261 C   0  0  0  0  0  0  0  0  0  0  0  0
    6.4699  -13.4916   26.6766 C   0  0  0  0  0  0  0  0  0  0  0  0
    9.6123  -15.8204   24.5139 N   0  0  0  0  0  0  0  0  0  0  0  0
    9.8990  -16.8867   25.5043 C   0  0  1  0  0  0  0  0  0  0  0  0
   11.2865  -17.3805   25.2285 C   0  0  0  0  0  0  0  0  0  0  0  0
   11.3694  -18.0093   23.8761 C   0  0  0  0  0  0  0  0  0  0  0  0
   12.7757  -18.4040   23.5424 C   0  0  0  0  0  0  0  0  0  0  0  0
   13.0869  -18.7344   22.3782 O   0  0  0  0  0  0  0  0  0  0  0  0
    9.6748  -16.3951   26.8640 C   0  0  0  0  0  0  0  0  0  0  0  0
    9.7497  -17.3385   27.9084 O   0  0  0  0  0  0  0  0  0  0  0  0
   13.7351  -18.4013   24.5355 O   0  0  0  0  0  0  0  0  0  0  0  0
    9.4248  -15.1937   27.1232 O   0  0  0  0  0  0  0  0  0  0  0  0
  2  1  1  6
  2  4  1  0
  3  2  1  0
  4  5  1  1
  6  4  1  0
  6  7  2  0
  9  8  1  0
 10  9  2  0
 11 10  1  0
 12 11  2  0
 12 18  1  0
 14 13  1  1
 13 12  1  0
 14 15  1  0
 15  6  1  0
 16 14  1  0
 17 16  2  0
 18 19  2  0
 19  9  1  0
 20 16  1  0
 21 22  1  1
 21 20  1  0
 22 23  1  0
 23 24  1  0
 24 28  1  0
 25 24  2  0
 26 27  1  0
 26 21  1  0
 29 26  2  0
M  END
$$$$
