TYE.pdb
     RDKit          3D

 29 29  0  0  1  0  0  0  0  0999 V2000
    9.7601  -19.7713   19.6435 C   0  0  0  0  0  0  0  0  0  0  0  0
    9.7124  -18.6270   20.5977 C   0  0  1  0  0  0  0  0  0  0  0  0
   10.9366  -18.4619   21.2092 O   0  0  0  0  0  0  0  0  0  0  0  0
    9.2135  -17.3341   19.9627 C   0  0  2  0  0  0  0  0  0  0  0  0
    9.9557  -17.0566   18.7717 N   0  0  0  0  0  0  0  0  0  0  0  0
    9.2034  -16.2141   20.9383 C   0  0  0  0  0  0  0  0  0  0  0  0
   10.1307  -15.3940   20.8989 O   0  0  0  0  0  0  0  0  0  0  0  0
    6.9064  -10.9779   27.7430 O   0  0  0  0  0  0  0  0  0  0  0  0
    6.8786  -11.9331   26.7137 C   0  0  0  0  0  0  0  0  0  0  0  0
    6.7626  -11.5254   25.4042 C   0  0  0  0  0  0  0  0  0  0  0  0
    6.7351  -12.4662   24.3906 C   0  0  0  0  0  0  0  0  0  0  0  0
    6.8192  -13.8201   24.6209 C   0  0  0  0  0  0  0  0  0  0  0  0
    6.7872  -14.8066   23.5167 C   0  0  0  0  0  0  0  0  0  0  0  0
    8.1246  -15.0159   22.8835 C   0  0  2  0  0  0  0  0  0  0  0  0
    8.1904  -16.0421   21.9038 N   0  0  0  0  0  0  0  0  0  0  0  0
    9.1549  -15.2501   23.9243 C   0  0  0  0  0  0  0  0  0  0  0  0
    9.3353  -14.3700   24.8335 O   0  0  0  0  0  0  0  0  0  0  0  0
    6.9354  -14.2043   25.9491 C   0  0  0  0  0  0  0  0  0  0  0  0
    6.9640  -13.2785   26.9697 C   0  0  0  0  0  0  0  0  0  0  0  0
    9.9621  -16.3981   23.9795 N   0  0  0  0  0  0  0  0  0  0  0  0
   11.0984  -16.5125   24.9259 C   0  0  1  0  0  0  0  0  0  0  0  0
   10.6002  -17.2663   26.1211 C   0  0  0  0  0  0  0  0  0  0  0  0
   10.5710  -18.7351   25.8507 C   0  0  0  0  0  0  0  0  0  0  0  0
   10.7967  -19.5258   27.1032 C   0  0  0  0  0  0  0  0  0  0  0  0
    9.9013  -20.2681   27.5597 O   0  0  0  0  0  0  0  0  0  0  0  0
   12.2602  -17.1031   24.2607 C   0  0  0  0  0  0  0  0  0  0  0  0
   13.5110  -16.9425   24.8902 O   0  0  0  0  0  0  0  0  0  0  0  0
   12.0092  -19.4298   27.7570 O   0  0  0  0  0  0  0  0  0  0  0  0
   12.1810  -17.7306   23.1777 O   0  0  0  0  0  0  0  0  0  0  0  0
  2  1  1  6
  2  4  1  0
  3  2  1  0
  4  5  1  6
  6  4  1  0
  6  7  2  0
  9  8  1  0
 10  9  2  0
 11 10  1  0
 12 11  2  0
 12 18  1  0
 14 13  1  1
 13 12  1  0
 14 15  1  0
 15  6  1  0
 16 14  1  0
 17 16  2  0
 18 19  2  0
 19  9  1  0
 20 16  1  0
 21 22  1  1
 21 20  1  0
 22 23  1  0
 23 24  1  0
 24 28  1  0
 25 24  2  0
 26 27  1  0
 26 21  1  0
 29 26  2  0
M  END
$$$$
