TYE.pdb
     RDKit          3D

 29 29  0  0  1  0  0  0  0  0999 V2000
   14.2625  -16.9178   16.7132 C   0  0  0  0  0  0  0  0  0  0  0  0
   13.6444  -16.5602   18.0217 C   0  0  1  0  0  0  0  0  0  0  0  0
   14.5275  -16.8050   19.0514 O   0  0  0  0  0  0  0  0  0  0  0  0
   13.1024  -15.1359   18.0622 C   0  0  2  0  0  0  0  0  0  0  0  0
   14.1000  -14.2203   17.6008 N   0  0  0  0  0  0  0  0  0  0  0  0
   12.5506  -14.7986   19.3993 C   0  0  0  0  0  0  0  0  0  0  0  0
   13.0934  -13.8924   20.0459 O   0  0  0  0  0  0  0  0  0  0  0  0
    7.0579  -12.4125   16.7356 O   0  0  0  0  0  0  0  0  0  0  0  0
    7.6144  -13.1073   17.8220 C   0  0  0  0  0  0  0  0  0  0  0  0
    7.8089  -12.4603   19.0212 C   0  0  0  0  0  0  0  0  0  0  0  0
    8.3572  -13.1446   20.0910 C   0  0  0  0  0  0  0  0  0  0  0  0
    8.7286  -14.4677   20.0246 C   0  0  0  0  0  0  0  0  0  0  0  0
    9.3139  -15.1768   21.1856 C   0  0  0  0  0  0  0  0  0  0  0  0
   10.8080  -15.1439   21.1958 C   0  0  2  0  0  0  0  0  0  0  0  0
   11.4412  -15.4603   19.9645 N   0  0  0  0  0  0  0  0  0  0  0  0
   11.3340  -16.0213   22.2697 C   0  0  0  0  0  0  0  0  0  0  0  0
   10.8660  -15.9081   23.4537 O   0  0  0  0  0  0  0  0  0  0  0  0
    8.5221  -15.0962   18.8049 C   0  0  0  0  0  0  0  0  0  0  0  0
    7.9770  -14.4275   17.7302 C   0  0  0  0  0  0  0  0  0  0  0  0
   12.3321  -16.9888   22.0686 N   0  0  0  0  0  0  0  0  0  0  0  0
   12.8315  -17.8413   23.1749 C   0  0  1  0  0  0  0  0  0  0  0  0
   12.8840  -19.2463   22.6571 C   0  0  0  0  0  0  0  0  0  0  0  0
   11.6314  -19.5895   21.9191 C   0  0  0  0  0  0  0  0  0  0  0  0
   11.6932  -20.9753   21.3528 C   0  0  0  0  0  0  0  0  0  0  0  0
   12.7924  -21.5143   21.1027 O   0  0  0  0  0  0  0  0  0  0  0  0
   14.0995  -17.3220   23.6880 C   0  0  0  0  0  0  0  0  0  0  0  0
   14.6437  -16.1972   23.0360 O   0  0  0  0  0  0  0  0  0  0  0  0
   10.5201  -21.6604   21.1061 O   0  0  0  0  0  0  0  0  0  0  0  0
   14.7016  -17.8318   24.6630 O   0  0  0  0  0  0  0  0  0  0  0  0
  2  1  1  6
  2  4  1  0
  3  2  1  0
  4  5  1  1
  6  4  1  0
  6  7  2  0
  9  8  1  0
 10  9  2  0
 11 10  1  0
 12 11  2  0
 12 18  1  0
 14 13  1  6
 13 12  1  0
 14 15  1  0
 15  6  1  0
 16 14  1  0
 17 16  2  0
 18 19  2  0
 19  9  1  0
 20 16  1  0
 21 22  1  6
 21 20  1  0
 22 23  1  0
 23 24  1  0
 24 28  1  0
 25 24  2  0
 26 27  1  0
 26 21  1  0
 29 26  2  0
M  END
$$$$
