TYE.pdb
     RDKit          3D

 29 29  0  0  1  0  0  0  0  0999 V2000
    7.7142  -16.5435   19.6136 C   0  0  0  0  0  0  0  0  0  0  0  0
    8.1738  -15.2053   19.1442 C   0  0  1  0  0  0  0  0  0  0  0  0
    7.7942  -15.0007   17.8350 O   0  0  0  0  0  0  0  0  0  0  0  0
    7.7293  -14.0638   20.0515 C   0  0  2  0  0  0  0  0  0  0  0  0
    7.8857  -12.8130   19.3753 N   0  0  0  0  0  0  0  0  0  0  0  0
    8.4054  -14.1205   21.3728 C   0  0  0  0  0  0  0  0  0  0  0  0
    9.5251  -13.6022   21.4811 O   0  0  0  0  0  0  0  0  0  0  0  0
    5.9121  -10.1518   27.2579 O   0  0  0  0  0  0  0  0  0  0  0  0
    6.2940  -11.3742   26.6813 C   0  0  0  0  0  0  0  0  0  0  0  0
    7.6258  -11.7163   26.6211 C   0  0  0  0  0  0  0  0  0  0  0  0
    8.0018  -12.9202   26.0531 C   0  0  0  0  0  0  0  0  0  0  0  0
    7.0993  -13.8182   25.5316 C   0  0  0  0  0  0  0  0  0  0  0  0
    7.5291  -15.1009   24.9285 C   0  0  0  0  0  0  0  0  0  0  0  0
    8.4548  -14.9185   23.7695 C   0  0  2  0  0  0  0  0  0  0  0  0
    7.8334  -14.7350   22.5056 N   0  0  0  0  0  0  0  0  0  0  0  0
    9.4152  -16.0464   23.6966 C   0  0  0  0  0  0  0  0  0  0  0  0
    8.9880  -17.2114   23.3901 O   0  0  0  0  0  0  0  0  0  0  0  0
    5.7638  -13.4492   25.6047 C   0  0  0  0  0  0  0  0  0  0  0  0
    5.3739  -12.2532   26.1676 C   0  0  0  0  0  0  0  0  0  0  0  0
   10.7913  -15.9174   23.9463 N   0  0  0  0  0  0  0  0  0  0  0  0
   11.7142  -17.0758   23.8670 C   0  0  1  0  0  0  0  0  0  0  0  0
   13.0511  -16.5443   23.4484 C   0  0  0  0  0  0  0  0  0  0  0  0
   14.0823  -17.6250   23.4620 C   0  0  0  0  0  0  0  0  0  0  0  0
   15.4425  -17.0862   23.1391 C   0  0  0  0  0  0  0  0  0  0  0  0
   16.3454  -17.0726   24.0029 O   0  0  0  0  0  0  0  0  0  0  0  0
   11.7098  -17.8200   25.1268 C   0  0  0  0  0  0  0  0  0  0  0  0
   11.2719  -17.1330   26.2769 O   0  0  0  0  0  0  0  0  0  0  0  0
   15.6967  -16.6003   21.8718 O   0  0  0  0  0  0  0  0  0  0  0  0
   12.0735  -19.0172   25.2139 O   0  0  0  0  0  0  0  0  0  0  0  0
  2  1  1  1
  2  4  1  0
  3  2  1  0
  4  5  1  6
  6  4  1  0
  6  7  2  0
  9  8  1  0
 10  9  2  0
 11 10  1  0
 12 11  2  0
 12 18  1  0
 14 13  1  1
 13 12  1  0
 14 15  1  0
 15  6  1  0
 16 14  1  0
 17 16  2  0
 18 19  2  0
 19  9  1  0
 20 16  1  0
 21 22  1  1
 21 20  1  0
 22 23  1  0
 23 24  1  0
 24 28  1  0
 25 24  2  0
 26 27  1  0
 26 21  1  0
 29 26  2  0
M  END
$$$$
