TYE.pdb
     RDKit          3D

 29 29  0  0  1  0  0  0  0  0999 V2000
    8.1794  -18.8150   18.0181 C   0  0  0  0  0  0  0  0  0  0  0  0
    8.3798  -18.1603   19.3423 C   0  0  1  0  0  0  0  0  0  0  0  0
    9.1420  -18.9635   20.1632 O   0  0  0  0  0  0  0  0  0  0  0  0
    8.9491  -16.7501   19.2366 C   0  0  2  0  0  0  0  0  0  0  0  0
   10.1529  -16.7657   18.4640 N   0  0  0  0  0  0  0  0  0  0  0  0
    9.1019  -16.1205   20.5732 C   0  0  0  0  0  0  0  0  0  0  0  0
   10.2298  -16.0964   21.0843 O   0  0  0  0  0  0  0  0  0  0  0  0
    7.3354  -11.9217   28.1974 O   0  0  0  0  0  0  0  0  0  0  0  0
    7.2130  -12.4895   26.9186 C   0  0  0  0  0  0  0  0  0  0  0  0
    7.7332  -11.8339   25.8258 C   0  0  0  0  0  0  0  0  0  0  0  0
    7.6124  -12.3931   24.5664 C   0  0  0  0  0  0  0  0  0  0  0  0
    6.9870  -13.5968   24.3366 C   0  0  0  0  0  0  0  0  0  0  0  0
    6.8713  -14.1732   22.9773 C   0  0  0  0  0  0  0  0  0  0  0  0
    8.0943  -14.9216   22.5558 C   0  0  2  0  0  0  0  0  0  0  0  0
    8.0259  -15.5510   21.2844 N   0  0  0  0  0  0  0  0  0  0  0  0
    8.4683  -15.9181   23.5886 C   0  0  0  0  0  0  0  0  0  0  0  0
    8.0306  -17.1149   23.4891 O   0  0  0  0  0  0  0  0  0  0  0  0
    6.4715  -14.2368   25.4547 C   0  0  0  0  0  0  0  0  0  0  0  0
    6.5840  -13.6920   26.7156 C   0  0  0  0  0  0  0  0  0  0  0  0
    9.2887  -15.6292   24.6914 N   0  0  0  0  0  0  0  0  0  0  0  0
   10.0345  -16.6893   25.4125 C   0  0  1  0  0  0  0  0  0  0  0  0
   11.3911  -16.7778   24.7825 C   0  0  0  0  0  0  0  0  0  0  0  0
   11.5941  -18.1108   24.1396 C   0  0  0  0  0  0  0  0  0  0  0  0
   12.9783  -18.2430   23.5814 C   0  0  0  0  0  0  0  0  0  0  0  0
   13.8035  -17.3115   23.6936 O   0  0  0  0  0  0  0  0  0  0  0  0
   10.0355  -16.4249   26.8516 C   0  0  0  0  0  0  0  0  0  0  0  0
   10.3896  -15.1250   27.2654 O   0  0  0  0  0  0  0  0  0  0  0  0
   13.3415  -19.4087   22.9367 O   0  0  0  0  0  0  0  0  0  0  0  0
    9.7395  -17.2943   27.7058 O   0  0  0  0  0  0  0  0  0  0  0  0
  2  1  1  6
  2  4  1  0
  3  2  1  0
  4  5  1  1
  6  4  1  0
  6  7  2  0
  9  8  1  0
 10  9  2  0
 11 10  1  0
 12 11  2  0
 12 18  1  0
 14 13  1  1
 13 12  1  0
 14 15  1  0
 15  6  1  0
 16 14  1  0
 17 16  2  0
 18 19  2  0
 19  9  1  0
 20 16  1  0
 21 22  1  6
 21 20  1  0
 22 23  1  0
 23 24  1  0
 24 28  1  0
 25 24  2  0
 26 27  1  0
 26 21  1  0
 29 26  2  0
M  END
$$$$
