TYE.pdb
     RDKit          3D

 29 29  0  0  1  0  0  0  0  0999 V2000
    7.1717  -16.2638   20.1017 C   0  0  0  0  0  0  0  0  0  0  0  0
    7.8039  -15.1036   19.4115 C   0  0  1  0  0  0  0  0  0  0  0  0
    7.3264  -14.9945   18.1230 O   0  0  0  0  0  0  0  0  0  0  0  0
    7.6660  -13.7960   20.1830 C   0  0  2  0  0  0  0  0  0  0  0  0
    8.0611  -12.6972   19.3567 N   0  0  0  0  0  0  0  0  0  0  0  0
    8.3760  -13.8526   21.4864 C   0  0  0  0  0  0  0  0  0  0  0  0
    9.6120  -13.7723   21.4846 O   0  0  0  0  0  0  0  0  0  0  0  0
   10.1025  -15.0754   30.1082 O   0  0  0  0  0  0  0  0  0  0  0  0
    9.4455  -14.8192   28.8936 C   0  0  0  0  0  0  0  0  0  0  0  0
    9.5206  -13.5678   28.3253 C   0  0  0  0  0  0  0  0  0  0  0  0
    8.8735  -13.3156   27.1291 C   0  0  0  0  0  0  0  0  0  0  0  0
    8.1406  -14.2667   26.4573 C   0  0  0  0  0  0  0  0  0  0  0  0
    7.4570  -13.9699   25.1774 C   0  0  0  0  0  0  0  0  0  0  0  0
    8.3159  -14.2341   23.9832 C   0  0  2  0  0  0  0  0  0  0  0  0
    7.7103  -13.9932   22.7213 N   0  0  0  0  0  0  0  0  0  0  0  0
    8.8466  -15.6183   24.0281 C   0  0  0  0  0  0  0  0  0  0  0  0
    8.0419  -16.6006   23.8820 O   0  0  0  0  0  0  0  0  0  0  0  0
    8.0808  -15.5192   27.0514 C   0  0  0  0  0  0  0  0  0  0  0  0
    8.7203  -15.7854   28.2429 C   0  0  0  0  0  0  0  0  0  0  0  0
   10.2024  -15.9287   24.2238 N   0  0  0  0  0  0  0  0  0  0  0  0
   10.6856  -17.3299   24.2786 C   0  0  1  0  0  0  0  0  0  0  0  0
   11.8421  -17.4328   23.3315 C   0  0  0  0  0  0  0  0  0  0  0  0
   11.3700  -17.4563   21.9145 C   0  0  0  0  0  0  0  0  0  0  0  0
   12.5206  -17.4430   20.9550 C   0  0  0  0  0  0  0  0  0  0  0  0
   12.3992  -16.9358   19.8195 O   0  0  0  0  0  0  0  0  0  0  0  0
   10.9788  -17.7159   25.6592 C   0  0  0  0  0  0  0  0  0  0  0  0
   11.4787  -16.7129   26.5140 O   0  0  0  0  0  0  0  0  0  0  0  0
   13.7266  -17.9986   21.3339 O   0  0  0  0  0  0  0  0  0  0  0  0
   10.8045  -18.8790   26.0946 O   0  0  0  0  0  0  0  0  0  0  0  0
  2  1  1  1
  2  4  1  0
  3  2  1  0
  4  5  1  6
  6  4  1  0
  6  7  2  0
  9  8  1  0
 10  9  2  0
 11 10  1  0
 12 11  2  0
 12 18  1  0
 14 13  1  1
 13 12  1  0
 14 15  1  0
 15  6  1  0
 16 14  1  0
 17 16  2  0
 18 19  2  0
 19  9  1  0
 20 16  1  0
 21 22  1  6
 21 20  1  0
 22 23  1  0
 23 24  1  0
 24 28  1  0
 25 24  2  0
 26 27  1  0
 26 21  1  0
 29 26  2  0
M  END
$$$$
