TYE.pdb
     RDKit          3D

 29 29  0  0  1  0  0  0  0  0999 V2000
    7.8090  -18.7501   18.1903 C   0  0  0  0  0  0  0  0  0  0  0  0
    8.1604  -18.0470   19.4569 C   0  0  1  0  0  0  0  0  0  0  0  0
    9.0827  -18.7806   20.1719 O   0  0  0  0  0  0  0  0  0  0  0  0
    8.6199  -16.6097   19.2402 C   0  0  2  0  0  0  0  0  0  0  0  0
    9.7388  -16.5836   18.3493 N   0  0  0  0  0  0  0  0  0  0  0  0
    8.8626  -15.9129   20.5292 C   0  0  0  0  0  0  0  0  0  0  0  0
   10.0125  -15.9152   20.9894 O   0  0  0  0  0  0  0  0  0  0  0  0
    7.2279  -12.4352   28.5342 O   0  0  0  0  0  0  0  0  0  0  0  0
    7.1046  -12.8217   27.1896 C   0  0  0  0  0  0  0  0  0  0  0  0
    7.8118  -12.1518   26.2171 C   0  0  0  0  0  0  0  0  0  0  0  0
    7.6903  -12.5324   24.8929 C   0  0  0  0  0  0  0  0  0  0  0  0
    6.8834  -13.5678   24.4806 C   0  0  0  0  0  0  0  0  0  0  0  0
    6.7713  -13.9548   23.0555 C   0  0  0  0  0  0  0  0  0  0  0  0
    7.9525  -14.7295   22.5675 C   0  0  2  0  0  0  0  0  0  0  0  0
    7.8478  -15.2512   21.2506 N   0  0  0  0  0  0  0  0  0  0  0  0
    8.2770  -15.8230   23.5153 C   0  0  0  0  0  0  0  0  0  0  0  0
    7.4957  -16.8314   23.5965 O   0  0  0  0  0  0  0  0  0  0  0  0
    6.1817  -14.2262   25.4803 C   0  0  0  0  0  0  0  0  0  0  0  0
    6.2925  -13.8583   26.8039 C   0  0  0  0  0  0  0  0  0  0  0  0
    9.4090  -15.8254   24.3467 N   0  0  0  0  0  0  0  0  0  0  0  0
    9.7088  -16.9554   25.2595 C   0  0  1  0  0  0  0  0  0  0  0  0
   10.7427  -17.8035   24.5835 C   0  0  0  0  0  0  0  0  0  0  0  0
   12.0323  -17.0625   24.4451 C   0  0  0  0  0  0  0  0  0  0  0  0
   13.0519  -17.8738   23.7054 C   0  0  0  0  0  0  0  0  0  0  0  0
   13.4368  -18.9757   24.1514 O   0  0  0  0  0  0  0  0  0  0  0  0
   10.0843  -16.4576   26.5831 C   0  0  0  0  0  0  0  0  0  0  0  0
   10.2310  -15.0632   26.7269 O   0  0  0  0  0  0  0  0  0  0  0  0
   13.5691  -17.3945   22.5183 O   0  0  0  0  0  0  0  0  0  0  0  0
   10.2747  -17.2113   27.5673 O   0  0  0  0  0  0  0  0  0  0  0  0
  2  1  1  6
  2  4  1  0
  3  2  1  0
  4  5  1  6
  6  4  1  0
  6  7  2  0
  9  8  1  0
 10  9  2  0
 11 10  1  0
 12 11  2  0
 12 18  1  0
 14 13  1  1
 13 12  1  0
 14 15  1  0
 15  6  1  0
 16 14  1  0
 17 16  2  0
 18 19  2  0
 19  9  1  0
 20 16  1  0
 21 22  1  6
 21 20  1  0
 22 23  1  0
 23 24  1  0
 24 28  1  0
 25 24  2  0
 26 27  1  0
 26 21  1  0
 29 26  2  0
M  END
$$$$
