TYE.pdb
     RDKit          3D

 29 29  0  0  1  0  0  0  0  0999 V2000
    5.4682  -20.8434   20.3012 C   0  0  0  0  0  0  0  0  0  0  0  0
    6.4748  -20.0028   21.0099 C   0  0  1  0  0  0  0  0  0  0  0  0
    7.5880  -20.7521   21.3249 O   0  0  0  0  0  0  0  0  0  0  0  0
    6.8392  -18.7319   20.2510 C   0  0  2  0  0  0  0  0  0  0  0  0
    7.2897  -19.0615   18.9339 N   0  0  0  0  0  0  0  0  0  0  0  0
    7.7930  -17.8910   21.0187 C   0  0  0  0  0  0  0  0  0  0  0  0
    8.9921  -17.9357   20.7120 O   0  0  0  0  0  0  0  0  0  0  0  0
    7.8273  -11.7492   18.3509 O   0  0  0  0  0  0  0  0  0  0  0  0
    7.8131  -12.5186   19.5258 C   0  0  0  0  0  0  0  0  0  0  0  0
    8.9538  -12.6241   20.2889 C   0  0  0  0  0  0  0  0  0  0  0  0
    8.9397  -13.3821   21.4459 C   0  0  0  0  0  0  0  0  0  0  0  0
    7.8238  -14.0535   21.8897 C   0  0  0  0  0  0  0  0  0  0  0  0
    7.8361  -14.8587   23.1327 C   0  0  0  0  0  0  0  0  0  0  0  0
    8.2548  -16.2752   22.9052 C   0  0  2  0  0  0  0  0  0  0  0  0
    7.3975  -17.0473   22.0769 N   0  0  0  0  0  0  0  0  0  0  0  0
    8.4545  -16.9665   24.2021 C   0  0  0  0  0  0  0  0  0  0  0  0
    7.4433  -17.1960   24.9495 O   0  0  0  0  0  0  0  0  0  0  0  0
    6.6879  -13.9308   21.1024 C   0  0  0  0  0  0  0  0  0  0  0  0
    6.6867  -13.1793   19.9471 C   0  0  0  0  0  0  0  0  0  0  0  0
    9.7060  -17.3955   24.6736 N   0  0  0  0  0  0  0  0  0  0  0  0
    9.8600  -18.0707   25.9852 C   0  0  1  0  0  0  0  0  0  0  0  0
   10.7218  -19.2756   25.7603 C   0  0  0  0  0  0  0  0  0  0  0  0
   10.1282  -20.1689   24.7206 C   0  0  0  0  0  0  0  0  0  0  0  0
   10.9968  -21.3627   24.4655 C   0  0  0  0  0  0  0  0  0  0  0  0
   10.6923  -22.1977   23.5871 O   0  0  0  0  0  0  0  0  0  0  0  0
   10.3590  -17.1303   26.9888 C   0  0  0  0  0  0  0  0  0  0  0  0
   10.2548  -17.5177   28.3399 O   0  0  0  0  0  0  0  0  0  0  0  0
   12.1452  -21.5383   25.2117 O   0  0  0  0  0  0  0  0  0  0  0  0
   10.8629  -16.0203   26.6936 O   0  0  0  0  0  0  0  0  0  0  0  0
  2  1  1  6
  2  4  1  0
  3  2  1  0
  4  5  1  6
  6  4  1  0
  6  7  2  0
  9  8  1  0
 10  9  2  0
 11 10  1  0
 12 11  2  0
 12 18  1  0
 14 13  1  1
 13 12  1  0
 14 15  1  0
 15  6  1  0
 16 14  1  0
 17 16  2  0
 18 19  2  0
 19  9  1  0
 20 16  1  0
 21 22  1  6
 21 20  1  0
 22 23  1  0
 23 24  1  0
 24 28  1  0
 25 24  2  0
 26 27  1  0
 26 21  1  0
 29 26  2  0
M  END
$$$$
