TYE.pdb
     RDKit          3D

 29 29  0  0  1  0  0  0  0  0999 V2000
    6.3796  -17.0618   19.1559 C   0  0  0  0  0  0  0  0  0  0  0  0
    7.2577  -16.8418   20.3403 C   0  0  1  0  0  0  0  0  0  0  0  0
    8.3050  -17.7379   20.3331 O   0  0  0  0  0  0  0  0  0  0  0  0
    7.7406  -15.4019   20.4725 C   0  0  2  0  0  0  0  0  0  0  0  0
    8.4255  -15.0049   19.2810 N   0  0  0  0  0  0  0  0  0  0  0  0
    8.5310  -15.2019   21.7141 C   0  0  0  0  0  0  0  0  0  0  0  0
    9.7666  -15.2209   21.6318 O   0  0  0  0  0  0  0  0  0  0  0  0
   10.6777  -14.7098   30.3176 O   0  0  0  0  0  0  0  0  0  0  0  0
    9.9570  -14.7082   29.1121 C   0  0  0  0  0  0  0  0  0  0  0  0
    9.8388  -13.5445   28.3866 C   0  0  0  0  0  0  0  0  0  0  0  0
    9.1288  -13.5432   27.1995 C   0  0  0  0  0  0  0  0  0  0  0  0
    8.5187  -14.6655   26.6886 C   0  0  0  0  0  0  0  0  0  0  0  0
    7.7640  -14.6364   25.4146 C   0  0  0  0  0  0  0  0  0  0  0  0
    8.6190  -14.9288   24.2242 C   0  0  2  0  0  0  0  0  0  0  0  0
    7.9414  -14.9923   22.9776 N   0  0  0  0  0  0  0  0  0  0  0  0
    9.3901  -16.1772   24.4396 C   0  0  0  0  0  0  0  0  0  0  0  0
    8.7870  -17.3024   24.3766 O   0  0  0  0  0  0  0  0  0  0  0  0
    8.6530  -15.8248   27.4391 C   0  0  0  0  0  0  0  0  0  0  0  0
    9.3571  -15.8416   28.6238 C   0  0  0  0  0  0  0  0  0  0  0  0
   10.7675  -16.2069   24.7131 N   0  0  0  0  0  0  0  0  0  0  0  0
   11.5175  -17.4818   24.8226 C   0  0  1  0  0  0  0  0  0  0  0  0
   12.8033  -17.3004   24.0750 C   0  0  0  0  0  0  0  0  0  0  0  0
   12.7548  -17.9970   22.7545 C   0  0  0  0  0  0  0  0  0  0  0  0
   14.0308  -17.8110   21.9916 C   0  0  0  0  0  0  0  0  0  0  0  0
   14.9868  -17.1797   22.4905 O   0  0  0  0  0  0  0  0  0  0  0  0
   11.6657  -17.8688   26.2259 C   0  0  0  0  0  0  0  0  0  0  0  0
   11.1788  -16.9687   27.1951 O   0  0  0  0  0  0  0  0  0  0  0  0
   14.1471  -18.3447   20.7234 O   0  0  0  0  0  0  0  0  0  0  0  0
   12.1978  -18.9464   26.5844 O   0  0  0  0  0  0  0  0  0  0  0  0
  2  1  1  6
  2  4  1  0
  3  2  1  0
  4  5  1  6
  6  4  1  0
  6  7  2  0
  9  8  1  0
 10  9  2  0
 11 10  1  0
 12 11  2  0
 12 18  1  0
 14 13  1  1
 13 12  1  0
 14 15  1  0
 15  6  1  0
 16 14  1  0
 17 16  2  0
 18 19  2  0
 19  9  1  0
 20 16  1  0
 21 22  1  1
 21 20  1  0
 22 23  1  0
 23 24  1  0
 24 28  1  0
 25 24  2  0
 26 27  1  0
 26 21  1  0
 29 26  2  0
M  END
$$$$
