KFH.pdb
     RDKit          3D

 31 32  0  0  1  0  0  0  0  0999 V2000
    9.0682  -16.7872   19.0488 N   0  0  0  0  0  0  0  0  0  0  0  0
    8.4816  -17.3053   20.2355 C   0  0  1  0  0  0  0  0  0  0  0  0
    8.9100  -18.7253   20.5818 C   0  0  0  0  0  0  0  0  0  0  0  0
    8.5539  -19.7540   19.5673 C   0  0  0  0  0  0  0  0  0  0  0  0
    8.8533  -21.1676   19.9211 C   0  0  0  0  0  0  0  0  0  0  0  0
    8.4941  -22.1362   18.8051 C   0  0  0  0  0  0  0  0  0  0  0  0
    8.8369  -23.4834   19.2142 N   0  0  0  0  0  0  0  0  0  0  0  0
    8.6431  -16.3928   21.3619 C   0  0  0  0  0  0  0  0  0  0  0  0
    9.8494  -15.9795   21.5717 O   0  0  0  0  0  0  0  0  0  0  0  0
    7.7069  -15.8859   22.2619 N   0  0  0  0  0  0  0  0  0  0  0  0
    8.0597  -15.0676   23.4206 C   0  0  1  0  0  0  0  0  0  0  0  0
    6.7882  -14.4041   23.9005 C   0  0  0  0  0  0  0  0  0  0  0  0
    7.0381  -13.4719   25.0296 C   0  0  0  0  0  0  0  0  0  0  0  0
    6.4703  -13.6854   26.2669 C   0  0  0  0  0  0  0  0  0  0  0  0
    6.7091  -12.8165   27.3089 C   0  0  0  0  0  0  0  0  0  0  0  0
    7.5295  -11.7378   27.0652 C   0  0  0  0  0  0  0  0  0  0  0  0
    8.1064  -11.5165   25.8161 C   0  0  0  0  0  0  0  0  0  0  0  0
    7.8649  -12.3887   24.7758 C   0  0  0  0  0  0  0  0  0  0  0  0
    8.5853  -15.8804   24.5321 C   0  0  0  0  0  0  0  0  0  0  0  0
    7.8588  -16.8146   24.9554 O   0  0  0  0  0  0  0  0  0  0  0  0
    9.8493  -15.6740   25.1476 N   0  0  0  0  0  0  0  0  0  0  0  0
   10.3911  -16.5931   26.1349 C   0  0  1  0  0  0  0  0  0  0  0  0
   11.8932  -16.5504   26.0059 C   0  0  0  0  0  0  0  0  0  0  0  0
   12.4061  -17.0908   24.7409 C   0  0  0  0  0  0  0  0  0  0  0  0
   11.6712  -17.8399   23.8379 C   0  0  0  0  0  0  0  0  0  0  0  0
   12.5140  -18.1297   22.8283 N   0  0  0  0  0  0  0  0  0  0  0  0
   13.7070  -17.5830   23.1028 C   0  0  0  0  0  0  0  0  0  0  0  0
   13.6710  -16.9380   24.2724 N   0  0  0  0  0  0  0  0  0  0  0  0
    9.9053  -16.2752   27.4969 C   0  0  0  0  0  0  0  0  0  0  0  0
    8.9577  -16.8843   28.0574 O   0  0  0  0  0  0  0  0  0  0  0  0
   10.5024  -15.2584   28.2244 O   0  0  0  0  0  0  0  0  0  0  0  0
  2  1  1  6
  3  2  1  0
  3  4  1  0
  5  4  1  0
  6  5  1  0
  7  6  1  0
  8  9  2  0
  8  2  1  0
 10  8  1  0
 11 10  1  0
 11 12  1  1
 12 13  1  0
 13 18  1  0
 13 14  2  0
 14 15  1  0
 15 16  2  0
 17 16  1  0
 18 17  2  0
 19 11  1  0
 20 19  2  0
 21 19  1  0
 22 29  1  0
 22 21  1  0
 22 23  1  1
 23 24  1  0
 24 28  1  0
 24 25  2  0
 25 26  1  0
 27 26  1  0
 28 27  2  0
 29 31  1  0
 30 29  2  0
M  END
$$$$
