KFH.pdb
     RDKit          3D

 31 32  0  0  1  0  0  0  0  0999 V2000
    9.2545  -16.3925   18.7972 N   0  0  0  0  0  0  0  0  0  0  0  0
    8.9123  -17.0532   20.0084 C   0  0  1  0  0  0  0  0  0  0  0  0
    9.6878  -18.3386   20.2656 C   0  0  0  0  0  0  0  0  0  0  0  0
    9.7465  -19.2782   19.1133 C   0  0  0  0  0  0  0  0  0  0  0  0
    9.1323  -20.6178   19.3162 C   0  0  0  0  0  0  0  0  0  0  0  0
    9.2441  -21.5028   18.0846 C   0  0  0  0  0  0  0  0  0  0  0  0
    8.6245  -22.7835   18.3598 N   0  0  0  0  0  0  0  0  0  0  0  0
    8.9570  -16.1470   21.1506 C   0  0  0  0  0  0  0  0  0  0  0  0
   10.1158  -15.6359   21.4074 O   0  0  0  0  0  0  0  0  0  0  0  0
    7.9509  -15.7347   22.0230 N   0  0  0  0  0  0  0  0  0  0  0  0
    8.2010  -14.9619   23.2383 C   0  0  1  0  0  0  0  0  0  0  0  0
    6.8650  -14.4373   23.7148 C   0  0  0  0  0  0  0  0  0  0  0  0
    6.9953  -13.6194   24.9479 C   0  0  0  0  0  0  0  0  0  0  0  0
    7.6001  -12.3815   24.9194 C   0  0  0  0  0  0  0  0  0  0  0  0
    7.7148  -11.6290   26.0677 C   0  0  0  0  0  0  0  0  0  0  0  0
    7.2057  -12.1595   27.2319 C   0  0  0  0  0  0  0  0  0  0  0  0
    6.5931  -13.4108   27.2670 C   0  0  0  0  0  0  0  0  0  0  0  0
    6.4803  -14.1607   26.1154 C   0  0  0  0  0  0  0  0  0  0  0  0
    8.7635  -15.7942   24.3169 C   0  0  0  0  0  0  0  0  0  0  0  0
    8.1652  -16.8657   24.5883 O   0  0  0  0  0  0  0  0  0  0  0  0
    9.9280  -15.4623   25.0604 N   0  0  0  0  0  0  0  0  0  0  0  0
   10.4427  -16.3158   26.1185 C   0  0  1  0  0  0  0  0  0  0  0  0
   11.9439  -16.3462   25.9754 C   0  0  0  0  0  0  0  0  0  0  0  0
   12.4239  -17.0913   24.8051 C   0  0  0  0  0  0  0  0  0  0  0  0
   11.6180  -17.7684   23.9058 C   0  0  0  0  0  0  0  0  0  0  0  0
   12.4529  -18.3074   22.9970 N   0  0  0  0  0  0  0  0  0  0  0  0
   13.7091  -17.9747   23.3266 C   0  0  0  0  0  0  0  0  0  0  0  0
   13.7227  -17.2273   24.4341 N   0  0  0  0  0  0  0  0  0  0  0  0
    9.9849  -15.8639   27.4519 C   0  0  0  0  0  0  0  0  0  0  0  0
    9.3045  -14.8219   27.6377 O   0  0  0  0  0  0  0  0  0  0  0  0
   10.3033  -16.6031   28.5797 O   0  0  0  0  0  0  0  0  0  0  0  0
  2  1  1  6
  3  2  1  0
  3  4  1  0
  5  4  1  0
  6  5  1  0
  7  6  1  0
  8  9  2  0
  8  2  1  0
 10  8  1  0
 11 10  1  0
 11 12  1  1
 12 13  1  0
 13 18  1  0
 13 14  2  0
 14 15  1  0
 15 16  2  0
 17 16  1  0
 18 17  2  0
 19 11  1  0
 20 19  2  0
 21 19  1  0
 22 29  1  0
 22 21  1  0
 22 23  1  1
 23 24  1  0
 24 28  1  0
 24 25  2  0
 25 26  1  0
 27 26  1  0
 28 27  2  0
 29 31  1  0
 30 29  2  0
M  END
$$$$
