KFH.pdb
     RDKit          3D

 31 32  0  0  1  0  0  0  0  0999 V2000
    9.2679  -16.7014   19.0670 N   0  0  0  0  0  0  0  0  0  0  0  0
    8.5803  -17.1958   20.2087 C   0  0  1  0  0  0  0  0  0  0  0  0
    8.8948  -18.6453   20.5547 C   0  0  0  0  0  0  0  0  0  0  0  0
    9.2845  -19.4969   19.3984 C   0  0  0  0  0  0  0  0  0  0  0  0
    9.6127  -20.9163   19.6993 C   0  0  0  0  0  0  0  0  0  0  0  0
    9.8996  -21.7267   18.4449 C   0  0  0  0  0  0  0  0  0  0  0  0
   10.2913  -23.0694   18.8237 N   0  0  0  0  0  0  0  0  0  0  0  0
    8.7339  -16.3110   21.3581 C   0  0  0  0  0  0  0  0  0  0  0  0
    9.9351  -15.8858   21.5734 O   0  0  0  0  0  0  0  0  0  0  0  0
    7.7948  -15.8417   22.2753 N   0  0  0  0  0  0  0  0  0  0  0  0
    8.1305  -14.9797   23.4071 C   0  0  1  0  0  0  0  0  0  0  0  0
    6.8542  -14.2910   23.8357 C   0  0  0  0  0  0  0  0  0  0  0  0
    7.0589  -13.4312   25.0296 C   0  0  0  0  0  0  0  0  0  0  0  0
    6.7746  -13.8939   26.2961 C   0  0  0  0  0  0  0  0  0  0  0  0
    6.9693  -13.0901   27.3979 C   0  0  0  0  0  0  0  0  0  0  0  0
    7.4543  -11.8194   27.1832 C   0  0  0  0  0  0  0  0  0  0  0  0
    7.7435  -11.3458   25.9047 C   0  0  0  0  0  0  0  0  0  0  0  0
    7.5472  -12.1536   24.8047 C   0  0  0  0  0  0  0  0  0  0  0  0
    8.6301  -15.7503   24.5599 C   0  0  0  0  0  0  0  0  0  0  0  0
    7.9768  -16.7698   24.8971 O   0  0  0  0  0  0  0  0  0  0  0  0
    9.7922  -15.4142   25.3052 N   0  0  0  0  0  0  0  0  0  0  0  0
   10.5615  -16.4091   26.0342 C   0  0  1  0  0  0  0  0  0  0  0  0
   11.9930  -16.2896   25.5747 C   0  0  0  0  0  0  0  0  0  0  0  0
   12.9167  -17.2258   26.2271 C   0  0  0  0  0  0  0  0  0  0  0  0
   12.5620  -18.4519   26.7634 C   0  0  0  0  0  0  0  0  0  0  0  0
   13.6980  -18.9798   27.2577 N   0  0  0  0  0  0  0  0  0  0  0  0
   14.6986  -18.1161   27.0335 C   0  0  0  0  0  0  0  0  0  0  0  0
   14.2484  -17.0284   26.4015 N   0  0  0  0  0  0  0  0  0  0  0  0
   10.3957  -16.2584   27.4976 C   0  0  0  0  0  0  0  0  0  0  0  0
    9.8569  -15.2576   28.0375 O   0  0  0  0  0  0  0  0  0  0  0  0
   10.8456  -17.2531   28.3508 O   0  0  0  0  0  0  0  0  0  0  0  0
  2  1  1  6
  3  2  1  0
  3  4  1  0
  5  4  1  0
  6  5  1  0
  7  6  1  0
  8  9  2  0
  8  2  1  0
 10  8  1  0
 11 10  1  0
 11 12  1  1
 12 13  1  0
 13 18  1  0
 13 14  2  0
 14 15  1  0
 15 16  2  0
 17 16  1  0
 18 17  2  0
 19 11  1  0
 20 19  2  0
 21 19  1  0
 22 29  1  0
 22 21  1  0
 22 23  1  1
 23 24  1  0
 24 28  1  0
 24 25  2  0
 25 26  1  0
 27 26  1  0
 28 27  2  0
 29 31  1  0
 30 29  2  0
M  END
$$$$
