KFH.pdb
     RDKit          3D

 31 32  0  0  1  0  0  0  0  0999 V2000
    7.9407  -17.8269   20.1094 N   0  0  0  0  0  0  0  0  0  0  0  0
    9.0251  -16.9083   20.1422 C   0  0  1  0  0  0  0  0  0  0  0  0
    9.1557  -16.0433   18.8954 C   0  0  0  0  0  0  0  0  0  0  0  0
    8.6640  -16.6726   17.6398 C   0  0  0  0  0  0  0  0  0  0  0  0
    8.7383  -15.8428   16.4074 C   0  0  0  0  0  0  0  0  0  0  0  0
    8.0233  -16.4847   15.2287 C   0  0  0  0  0  0  0  0  0  0  0  0
    8.8910  -17.4777   14.6278 N   0  0  0  0  0  0  0  0  0  0  0  0
    9.0236  -16.1127   21.3648 C   0  0  0  0  0  0  0  0  0  0  0  0
   10.1089  -15.4503   21.5961 O   0  0  0  0  0  0  0  0  0  0  0  0
    8.0398  -15.9444   22.3380 N   0  0  0  0  0  0  0  0  0  0  0  0
    8.2277  -15.1464   23.5482 C   0  0  1  0  0  0  0  0  0  0  0  0
    6.8567  -14.6992   24.0036 C   0  0  0  0  0  0  0  0  0  0  0  0
    6.9283  -13.7853   25.1723 C   0  0  0  0  0  0  0  0  0  0  0  0
    7.3469  -12.4801   25.0297 C   0  0  0  0  0  0  0  0  0  0  0  0
    7.4084  -11.6390   26.1190 C   0  0  0  0  0  0  0  0  0  0  0  0
    7.0386  -12.1511   27.3425 C   0  0  0  0  0  0  0  0  0  0  0  0
    6.6146  -13.4702   27.4931 C   0  0  0  0  0  0  0  0  0  0  0  0
    6.5544  -14.3087   26.4001 C   0  0  0  0  0  0  0  0  0  0  0  0
    8.8260  -15.9329   24.6418 C   0  0  0  0  0  0  0  0  0  0  0  0
    8.2685  -17.0189   24.9412 O   0  0  0  0  0  0  0  0  0  0  0  0
    9.9818  -15.5422   25.3701 N   0  0  0  0  0  0  0  0  0  0  0  0
   10.5920  -16.3974   26.3748 C   0  0  1  0  0  0  0  0  0  0  0  0
   12.0828  -16.3547   26.1502 C   0  0  0  0  0  0  0  0  0  0  0  0
   12.5070  -16.8192   24.8237 C   0  0  0  0  0  0  0  0  0  0  0  0
   12.3009  -18.0929   24.3216 C   0  0  0  0  0  0  0  0  0  0  0  0
   12.8409  -18.0939   23.0880 N   0  0  0  0  0  0  0  0  0  0  0  0
   13.3524  -16.8780   22.8489 C   0  0  0  0  0  0  0  0  0  0  0  0
   13.1623  -16.0729   23.8982 N   0  0  0  0  0  0  0  0  0  0  0  0
   10.1886  -16.0009   27.7430 C   0  0  0  0  0  0  0  0  0  0  0  0
    9.4501  -15.0131   27.9919 O   0  0  0  0  0  0  0  0  0  0  0  0
   10.6284  -16.7338   28.8335 O   0  0  0  0  0  0  0  0  0  0  0  0
  2  1  1  6
  3  2  1  0
  3  4  1  0
  5  4  1  0
  6  5  1  0
  7  6  1  0
  8  9  2  0
  8  2  1  0
 10  8  1  0
 11 10  1  0
 11 12  1  1
 12 13  1  0
 13 18  1  0
 13 14  2  0
 14 15  1  0
 15 16  2  0
 17 16  1  0
 18 17  2  0
 19 11  1  0
 20 19  2  0
 21 19  1  0
 22 29  1  0
 22 21  1  0
 22 23  1  1
 23 24  1  0
 24 28  1  0
 24 25  2  0
 25 26  1  0
 27 26  1  0
 28 27  2  0
 29 31  1  0
 30 29  2  0
M  END
$$$$
