KFH.pdb
     RDKit          3D

 31 32  0  0  1  0  0  0  0  0999 V2000
    7.6766  -17.2066   19.5926 N   0  0  0  0  0  0  0  0  0  0  0  0
    8.9809  -17.0842   20.1445 C   0  0  1  0  0  0  0  0  0  0  0  0
   10.0615  -16.7241   19.1332 C   0  0  0  0  0  0  0  0  0  0  0  0
    9.9354  -17.3977   17.8124 C   0  0  0  0  0  0  0  0  0  0  0  0
   11.0349  -17.1619   16.8386 C   0  0  0  0  0  0  0  0  0  0  0  0
   10.8307  -17.9174   15.5347 C   0  0  0  0  0  0  0  0  0  0  0  0
   11.9378  -17.6371   14.6426 N   0  0  0  0  0  0  0  0  0  0  0  0
    8.9971  -16.1993   21.3039 C   0  0  0  0  0  0  0  0  0  0  0  0
   10.1636  -15.7691   21.6564 O   0  0  0  0  0  0  0  0  0  0  0  0
    7.9564  -15.7343   22.1065 N   0  0  0  0  0  0  0  0  0  0  0  0
    8.1617  -14.9515   23.3238 C   0  0  1  0  0  0  0  0  0  0  0  0
    6.8769  -14.2002   23.5916 C   0  0  0  0  0  0  0  0  0  0  0  0
    6.9185  -13.4679   24.8833 C   0  0  0  0  0  0  0  0  0  0  0  0
    6.2125  -13.9170   25.9783 C   0  0  0  0  0  0  0  0  0  0  0  0
    6.2585  -13.2324   27.1729 C   0  0  0  0  0  0  0  0  0  0  0  0
    7.0306  -12.0935   27.2265 C   0  0  0  0  0  0  0  0  0  0  0  0
    7.7466  -11.6343   26.1225 C   0  0  0  0  0  0  0  0  0  0  0  0
    7.6978  -12.3226   24.9287 C   0  0  0  0  0  0  0  0  0  0  0  0
    8.4296  -15.8078   24.4932 C   0  0  0  0  0  0  0  0  0  0  0  0
    7.5902  -16.7066   24.7523 O   0  0  0  0  0  0  0  0  0  0  0  0
    9.5663  -15.6800   25.3361 N   0  0  0  0  0  0  0  0  0  0  0  0
   10.2717  -16.8342   25.8682 C   0  0  1  0  0  0  0  0  0  0  0  0
   11.6156  -16.8884   25.1857 C   0  0  0  0  0  0  0  0  0  0  0  0
   12.4919  -17.9655   25.6625 C   0  0  0  0  0  0  0  0  0  0  0  0
   12.3512  -18.6332   26.8671 C   0  0  0  0  0  0  0  0  0  0  0  0
   13.3529  -19.5322   26.9087 N   0  0  0  0  0  0  0  0  0  0  0  0
   14.0710  -19.4180   25.7823 C   0  0  0  0  0  0  0  0  0  0  0  0
   13.5655  -18.4626   24.9968 N   0  0  0  0  0  0  0  0  0  0  0  0
   10.3602  -16.7831   27.3452 C   0  0  0  0  0  0  0  0  0  0  0  0
   10.5866  -17.7908   28.0640 O   0  0  0  0  0  0  0  0  0  0  0  0
   10.1904  -15.5777   28.0070 O   0  0  0  0  0  0  0  0  0  0  0  0
  2  1  1  6
  3  2  1  0
  3  4  1  0
  5  4  1  0
  6  5  1  0
  7  6  1  0
  8  9  2  0
  8  2  1  0
 10  8  1  0
 11 10  1  0
 11 12  1  1
 12 13  1  0
 13 18  1  0
 13 14  2  0
 14 15  1  0
 15 16  2  0
 17 16  1  0
 18 17  2  0
 19 11  1  0
 20 19  2  0
 21 19  1  0
 22 29  1  0
 22 21  1  0
 22 23  1  6
 23 24  1  0
 24 28  1  0
 24 25  2  0
 25 26  1  0
 27 26  1  0
 28 27  2  0
 29 31  1  0
 30 29  2  0
M  END
$$$$
