KFH.pdb
     RDKit          3D

 31 32  0  0  1  0  0  0  0  0999 V2000
   10.1757  -15.9204   19.1098 N   0  0  0  0  0  0  0  0  0  0  0  0
    9.1071  -16.4156   19.9058 C   0  0  1  0  0  0  0  0  0  0  0  0
    9.0355  -17.9348   19.9894 C   0  0  0  0  0  0  0  0  0  0  0  0
    9.4342  -18.6518   18.7480 C   0  0  0  0  0  0  0  0  0  0  0  0
   10.5817  -19.5916   18.8629 C   0  0  0  0  0  0  0  0  0  0  0  0
   10.8474  -20.3477   17.5704 C   0  0  0  0  0  0  0  0  0  0  0  0
   12.0438  -21.1505   17.7250 N   0  0  0  0  0  0  0  0  0  0  0  0
    9.0796  -15.7913   21.2237 C   0  0  0  0  0  0  0  0  0  0  0  0
   10.2178  -15.7322   21.8329 O   0  0  0  0  0  0  0  0  0  0  0  0
    8.0218  -15.2421   21.9469 N   0  0  0  0  0  0  0  0  0  0  0  0
    8.1620  -14.6942   23.2948 C   0  0  1  0  0  0  0  0  0  0  0  0
    6.8931  -13.9296   23.5986 C   0  0  0  0  0  0  0  0  0  0  0  0
    6.8859  -13.3890   24.9821 C   0  0  0  0  0  0  0  0  0  0  0  0
    6.1776  -14.0135   25.9857 C   0  0  0  0  0  0  0  0  0  0  0  0
    6.1781  -13.5060   27.2665 C   0  0  0  0  0  0  0  0  0  0  0  0
    6.9078  -12.3617   27.4993 C   0  0  0  0  0  0  0  0  0  0  0  0
    7.6260  -11.7256   26.4884 C   0  0  0  0  0  0  0  0  0  0  0  0
    7.6228  -12.2369   25.2078 C   0  0  0  0  0  0  0  0  0  0  0  0
    8.2983  -15.7533   24.3108 C   0  0  0  0  0  0  0  0  0  0  0  0
    7.7358  -16.8523   24.0751 O   0  0  0  0  0  0  0  0  0  0  0  0
    9.0188  -15.6089   25.5269 N   0  0  0  0  0  0  0  0  0  0  0  0
    9.9337  -16.6286   26.0128 C   0  0  1  0  0  0  0  0  0  0  0  0
   11.1402  -16.6122   25.1078 C   0  0  0  0  0  0  0  0  0  0  0  0
   11.1876  -17.7192   24.1447 C   0  0  0  0  0  0  0  0  0  0  0  0
   10.2320  -18.7141   24.0262 C   0  0  0  0  0  0  0  0  0  0  0  0
   10.6594  -19.5184   23.0344 N   0  0  0  0  0  0  0  0  0  0  0  0
   11.8211  -19.0368   22.5698 C   0  0  0  0  0  0  0  0  0  0  0  0
   12.1711  -17.9312   23.2334 N   0  0  0  0  0  0  0  0  0  0  0  0
   10.2637  -16.4257   27.4417 C   0  0  0  0  0  0  0  0  0  0  0  0
   10.2856  -15.2970   27.9974 O   0  0  0  0  0  0  0  0  0  0  0  0
   10.5700  -17.5144   28.2422 O   0  0  0  0  0  0  0  0  0  0  0  0
  2  1  1  1
  3  2  1  0
  3  4  1  0
  5  4  1  0
  6  5  1  0
  7  6  1  0
  8  9  2  0
  8  2  1  0
 10  8  1  0
 11 10  1  0
 11 12  1  1
 12 13  1  0
 13 18  1  0
 13 14  2  0
 14 15  1  0
 15 16  2  0
 17 16  1  0
 18 17  2  0
 19 11  1  0
 20 19  2  0
 21 19  1  0
 22 29  1  0
 22 21  1  0
 22 23  1  6
 23 24  1  0
 24 28  1  0
 24 25  2  0
 25 26  1  0
 27 26  1  0
 28 27  2  0
 29 31  1  0
 30 29  2  0
M  END
$$$$
