KFH.pdb
     RDKit          3D

 31 32  0  0  1  0  0  0  0  0999 V2000
    9.9076  -16.5933   19.3933 N   0  0  0  0  0  0  0  0  0  0  0  0
    9.0682  -17.0419   20.4492 C   0  0  1  0  0  0  0  0  0  0  0  0
    9.2757  -18.4985   20.8432 C   0  0  0  0  0  0  0  0  0  0  0  0
    9.0877  -19.4804   19.7411 C   0  0  0  0  0  0  0  0  0  0  0  0
    9.2646  -20.9151   20.0921 C   0  0  0  0  0  0  0  0  0  0  0  0
    9.1576  -21.8288   18.8812 C   0  0  0  0  0  0  0  0  0  0  0  0
    9.3427  -23.2028   19.3027 N   0  0  0  0  0  0  0  0  0  0  0  0
    9.1227  -16.1483   21.6007 C   0  0  0  0  0  0  0  0  0  0  0  0
   10.2998  -15.7137   21.9097 O   0  0  0  0  0  0  0  0  0  0  0  0
    8.1094  -15.6790   22.4352 N   0  0  0  0  0  0  0  0  0  0  0  0
    8.3483  -14.8176   23.5918 C   0  0  1  0  0  0  0  0  0  0  0  0
    7.0138  -14.2289   23.9913 C   0  0  0  0  0  0  0  0  0  0  0  0
    7.1443  -13.2616   25.1110 C   0  0  0  0  0  0  0  0  0  0  0  0
    6.5628  -13.5089   26.3356 C   0  0  0  0  0  0  0  0  0  0  0  0
    6.6907  -12.6069   27.3690 C   0  0  0  0  0  0  0  0  0  0  0  0
    7.4155  -11.4609   27.1299 C   0  0  0  0  0  0  0  0  0  0  0  0
    8.0058  -11.2051   25.8936 C   0  0  0  0  0  0  0  0  0  0  0  0
    7.8754  -12.1106   24.8619 C   0  0  0  0  0  0  0  0  0  0  0  0
    8.8658  -15.5734   24.7465 C   0  0  0  0  0  0  0  0  0  0  0  0
    8.1652  -16.5268   25.1708 O   0  0  0  0  0  0  0  0  0  0  0  0
   10.0947  -15.2926   25.4021 N   0  0  0  0  0  0  0  0  0  0  0  0
   10.6658  -16.1860   26.3965 C   0  0  1  0  0  0  0  0  0  0  0  0
   12.1613  -15.9940   26.3610 C   0  0  0  0  0  0  0  0  0  0  0  0
   12.8042  -16.4854   25.1360 C   0  0  0  0  0  0  0  0  0  0  0  0
   12.1501  -17.1108   24.0883 C   0  0  0  0  0  0  0  0  0  0  0  0
   13.1012  -17.3964   23.1787 N   0  0  0  0  0  0  0  0  0  0  0  0
   14.2801  -16.9654   23.6497 C   0  0  0  0  0  0  0  0  0  0  0  0
   14.1289  -16.4010   24.8513 N   0  0  0  0  0  0  0  0  0  0  0  0
   10.0723  -15.9604   27.7339 C   0  0  0  0  0  0  0  0  0  0  0  0
    9.6749  -14.8371   28.1384 O   0  0  0  0  0  0  0  0  0  0  0  0
    9.9301  -17.0200   28.6152 O   0  0  0  0  0  0  0  0  0  0  0  0
  2  1  1  6
  3  2  1  0
  3  4  1  0
  5  4  1  0
  6  5  1  0
  7  6  1  0
  8  9  2  0
  8  2  1  0
 10  8  1  0
 11 10  1  0
 11 12  1  1
 12 13  1  0
 13 18  1  0
 13 14  2  0
 14 15  1  0
 15 16  2  0
 17 16  1  0
 18 17  2  0
 19 11  1  0
 20 19  2  0
 21 19  1  0
 22 29  1  0
 22 21  1  0
 22 23  1  1
 23 24  1  0
 24 28  1  0
 24 25  2  0
 25 26  1  0
 27 26  1  0
 28 27  2  0
 29 31  1  0
 30 29  2  0
M  END
$$$$
