KFH.pdb
     RDKit          3D

 31 32  0  0  1  0  0  0  0  0999 V2000
    9.3205  -15.9170   18.7451 N   0  0  0  0  0  0  0  0  0  0  0  0
    8.2190  -16.1472   19.6137 C   0  0  1  0  0  0  0  0  0  0  0  0
    7.7430  -17.5933   19.6576 C   0  0  0  0  0  0  0  0  0  0  0  0
    7.0625  -18.0685   18.4226 C   0  0  0  0  0  0  0  0  0  0  0  0
    6.4607  -19.4279   18.4767 C   0  0  0  0  0  0  0  0  0  0  0  0
    5.8744  -19.8592   17.1414 C   0  0  0  0  0  0  0  0  0  0  0  0
    5.3457  -21.2028   17.2645 N   0  0  0  0  0  0  0  0  0  0  0  0
    8.4594  -15.6075   20.9473 C   0  0  0  0  0  0  0  0  0  0  0  0
    9.6027  -15.9085   21.4692 O   0  0  0  0  0  0  0  0  0  0  0  0
    7.6559  -14.8139   21.7647 N   0  0  0  0  0  0  0  0  0  0  0  0
    8.0322  -14.4046   23.1165 C   0  0  1  0  0  0  0  0  0  0  0  0
    6.8440  -13.6810   23.7093 C   0  0  0  0  0  0  0  0  0  0  0  0
    7.1515  -13.1044   25.0433 C   0  0  0  0  0  0  0  0  0  0  0  0
    8.4043  -13.2344   25.6024 C   0  0  0  0  0  0  0  0  0  0  0  0
    8.6810  -12.6948   26.8394 C   0  0  0  0  0  0  0  0  0  0  0  0
    7.6650  -12.0277   27.4865 C   0  0  0  0  0  0  0  0  0  0  0  0
    6.3960  -11.8930   26.9262 C   0  0  0  0  0  0  0  0  0  0  0  0
    6.1233  -12.4346   25.6879 C   0  0  0  0  0  0  0  0  0  0  0  0
    8.3275  -15.5605   23.9821 C   0  0  0  0  0  0  0  0  0  0  0  0
    7.3908  -16.3694   24.2011 O   0  0  0  0  0  0  0  0  0  0  0  0
    9.5926  -15.8128   24.5778 N   0  0  0  0  0  0  0  0  0  0  0  0
    9.8957  -17.0621   25.2564 C   0  0  1  0  0  0  0  0  0  0  0  0
   11.1007  -17.6589   24.5735 C   0  0  0  0  0  0  0  0  0  0  0  0
   11.5965  -18.8937   25.1939 C   0  0  0  0  0  0  0  0  0  0  0  0
   12.7329  -18.9907   25.9789 C   0  0  0  0  0  0  0  0  0  0  0  0
   12.8219  -20.2852   26.3389 N   0  0  0  0  0  0  0  0  0  0  0  0
   11.7885  -20.9467   25.7988 C   0  0  0  0  0  0  0  0  0  0  0  0
   11.0180  -20.1172   25.0892 N   0  0  0  0  0  0  0  0  0  0  0  0
   10.0808  -16.8587   26.7111 C   0  0  0  0  0  0  0  0  0  0  0  0
    9.8886  -17.7584   27.5696 O   0  0  0  0  0  0  0  0  0  0  0  0
   10.4875  -15.6241   27.1907 O   0  0  0  0  0  0  0  0  0  0  0  0
  2  1  1  6
  3  2  1  0
  3  4  1  0
  5  4  1  0
  6  5  1  0
  7  6  1  0
  8  9  2  0
  8  2  1  0
 10  8  1  0
 11 10  1  0
 11 12  1  1
 12 13  1  0
 13 18  1  0
 13 14  2  0
 14 15  1  0
 15 16  2  0
 17 16  1  0
 18 17  2  0
 19 11  1  0
 20 19  2  0
 21 19  1  0
 22 29  1  0
 22 21  1  0
 22 23  1  6
 23 24  1  0
 24 28  1  0
 24 25  2  0
 25 26  1  0
 27 26  1  0
 28 27  2  0
 29 31  1  0
 30 29  2  0
M  END
$$$$
