KFH.pdb
     RDKit          3D

 31 32  0  0  1  0  0  0  0  0999 V2000
   10.4312  -16.7233   19.9158 N   0  0  0  0  0  0  0  0  0  0  0  0
    9.0876  -16.6162   20.3677 C   0  0  1  0  0  0  0  0  0  0  0  0
    8.2943  -17.9145   20.2982 C   0  0  0  0  0  0  0  0  0  0  0  0
    8.9455  -19.0842   20.9476 C   0  0  0  0  0  0  0  0  0  0  0  0
    8.2709  -20.3992   20.7781 C   0  0  0  0  0  0  0  0  0  0  0  0
    8.9797  -21.5184   21.5248 C   0  0  0  0  0  0  0  0  0  0  0  0
    8.2410  -22.7524   21.3475 N   0  0  0  0  0  0  0  0  0  0  0  0
    9.0074  -15.9933   21.6842 C   0  0  0  0  0  0  0  0  0  0  0  0
   10.0554  -16.1321   22.4276 O   0  0  0  0  0  0  0  0  0  0  0  0
    7.9803  -15.2665   22.2843 N   0  0  0  0  0  0  0  0  0  0  0  0
    8.0801  -14.6753   23.6175 C   0  0  1  0  0  0  0  0  0  0  0  0
    6.9822  -13.6412   23.7289 C   0  0  0  0  0  0  0  0  0  0  0  0
    6.9542  -13.0005   25.0687 C   0  0  0  0  0  0  0  0  0  0  0  0
    5.9524  -13.2839   25.9715 C   0  0  0  0  0  0  0  0  0  0  0  0
    5.9355  -12.6863   27.2127 C   0  0  0  0  0  0  0  0  0  0  0  0
    6.9497  -11.8038   27.5100 C   0  0  0  0  0  0  0  0  0  0  0  0
    7.9654  -11.5130   26.6011 C   0  0  0  0  0  0  0  0  0  0  0  0
    7.9787  -12.1134   25.3599 C   0  0  0  0  0  0  0  0  0  0  0  0
    7.8638  -15.6717   24.6818 C   0  0  0  0  0  0  0  0  0  0  0  0
    6.9016  -16.4674   24.5379 O   0  0  0  0  0  0  0  0  0  0  0  0
    8.6677  -15.7857   25.8478 N   0  0  0  0  0  0  0  0  0  0  0  0
    9.1390  -17.0685   26.3432 C   0  0  1  0  0  0  0  0  0  0  0  0
    9.8606  -17.7472   25.2059 C   0  0  0  0  0  0  0  0  0  0  0  0
   10.3596  -19.0909   25.5236 C   0  0  0  0  0  0  0  0  0  0  0  0
   10.1559  -19.7542   26.7216 C   0  0  0  0  0  0  0  0  0  0  0  0
   10.7754  -20.9430   26.5940 N   0  0  0  0  0  0  0  0  0  0  0  0
   11.3311  -21.0019   25.3753 C   0  0  0  0  0  0  0  0  0  0  0  0
   11.0922  -19.8774   24.6944 N   0  0  0  0  0  0  0  0  0  0  0  0
    9.9689  -16.9095   27.5589 C   0  0  0  0  0  0  0  0  0  0  0  0
    9.8580  -17.6399   28.5775 O   0  0  0  0  0  0  0  0  0  0  0  0
   10.9304  -15.9135   27.6146 O   0  0  0  0  0  0  0  0  0  0  0  0
  2  1  1  1
  3  2  1  0
  3  4  1  0
  5  4  1  0
  6  5  1  0
  7  6  1  0
  8  9  2  0
  8  2  1  0
 10  8  1  0
 11 10  1  0
 11 12  1  6
 12 13  1  0
 13 18  1  0
 13 14  2  0
 14 15  1  0
 15 16  2  0
 17 16  1  0
 18 17  2  0
 19 11  1  0
 20 19  2  0
 21 19  1  0
 22 29  1  0
 22 21  1  0
 22 23  1  6
 23 24  1  0
 24 28  1  0
 24 25  2  0
 25 26  1  0
 27 26  1  0
 28 27  2  0
 29 31  1  0
 30 29  2  0
M  END
$$$$
