KFH.pdb
     RDKit          3D

 31 32  0  0  1  0  0  0  0  0999 V2000
    9.6478  -16.7866   19.4010 N   0  0  0  0  0  0  0  0  0  0  0  0
    8.8581  -17.2280   20.4975 C   0  0  1  0  0  0  0  0  0  0  0  0
    9.0898  -18.6795   20.8967 C   0  0  0  0  0  0  0  0  0  0  0  0
    9.0602  -19.6529   19.7716 C   0  0  0  0  0  0  0  0  0  0  0  0
   10.3589  -19.9361   19.1037 C   0  0  0  0  0  0  0  0  0  0  0  0
   10.2386  -20.9983   18.0221 C   0  0  0  0  0  0  0  0  0  0  0  0
   11.5415  -21.2258   17.4300 N   0  0  0  0  0  0  0  0  0  0  0  0
    8.9593  -16.3224   21.6364 C   0  0  0  0  0  0  0  0  0  0  0  0
   10.1584  -15.9535   21.9463 O   0  0  0  0  0  0  0  0  0  0  0  0
    7.9711  -15.7817   22.4578 N   0  0  0  0  0  0  0  0  0  0  0  0
    8.2560  -14.9506   23.6260 C   0  0  1  0  0  0  0  0  0  0  0  0
    6.9599  -14.2787   24.0208 C   0  0  0  0  0  0  0  0  0  0  0  0
    7.1327  -13.3778   25.1891 C   0  0  0  0  0  0  0  0  0  0  0  0
    7.9671  -12.2830   25.1254 C   0  0  0  0  0  0  0  0  0  0  0  0
    8.1198  -11.4517   26.2133 C   0  0  0  0  0  0  0  0  0  0  0  0
    7.4119  -11.7570   27.3542 C   0  0  0  0  0  0  0  0  0  0  0  0
    6.5666  -12.8629   27.4247 C   0  0  0  0  0  0  0  0  0  0  0  0
    6.4166  -13.6923   26.3335 C   0  0  0  0  0  0  0  0  0  0  0  0
    8.7116  -15.7513   24.7765 C   0  0  0  0  0  0  0  0  0  0  0  0
    7.9261  -16.6302   25.2128 O   0  0  0  0  0  0  0  0  0  0  0  0
    9.9707  -15.5916   25.4154 N   0  0  0  0  0  0  0  0  0  0  0  0
   10.4121  -16.4652   26.4901 C   0  0  1  0  0  0  0  0  0  0  0  0
   11.8642  -16.7845   26.2364 C   0  0  0  0  0  0  0  0  0  0  0  0
   12.0974  -17.6551   25.0776 C   0  0  0  0  0  0  0  0  0  0  0  0
   11.1140  -18.3405   24.3847 C   0  0  0  0  0  0  0  0  0  0  0  0
   11.7524  -19.0116   23.4073 N   0  0  0  0  0  0  0  0  0  0  0  0
   13.0637  -18.7481   23.4997 C   0  0  0  0  0  0  0  0  0  0  0  0
   13.3060  -17.9170   24.5175 N   0  0  0  0  0  0  0  0  0  0  0  0
   10.1629  -15.8608   27.8184 C   0  0  0  0  0  0  0  0  0  0  0  0
   10.4387  -16.4314   28.9054 O   0  0  0  0  0  0  0  0  0  0  0  0
    9.5969  -14.5993   27.9091 O   0  0  0  0  0  0  0  0  0  0  0  0
  2  1  1  6
  3  2  1  0
  3  4  1  0
  5  4  1  0
  6  5  1  0
  7  6  1  0
  8  9  2  0
  8  2  1  0
 10  8  1  0
 11 10  1  0
 11 12  1  1
 12 13  1  0
 13 18  1  0
 13 14  2  0
 14 15  1  0
 15 16  2  0
 17 16  1  0
 18 17  2  0
 19 11  1  0
 20 19  2  0
 21 19  1  0
 22 29  1  0
 22 21  1  0
 22 23  1  6
 23 24  1  0
 24 28  1  0
 24 25  2  0
 25 26  1  0
 27 26  1  0
 28 27  2  0
 29 31  1  0
 30 29  2  0
M  END
$$$$
