KFH.pdb
     RDKit          3D

 31 32  0  0  1  0  0  0  0  0999 V2000
    9.8975  -16.2501   19.0373 N   0  0  0  0  0  0  0  0  0  0  0  0
    9.0596  -16.7926   20.0493 C   0  0  1  0  0  0  0  0  0  0  0  0
    9.2938  -18.2701   20.3359 C   0  0  0  0  0  0  0  0  0  0  0  0
    9.0095  -19.1839   19.1965 C   0  0  0  0  0  0  0  0  0  0  0  0
    8.7443  -20.6076   19.5367 C   0  0  0  0  0  0  0  0  0  0  0  0
    8.3706  -21.4380   18.3188 C   0  0  0  0  0  0  0  0  0  0  0  0
    8.1039  -22.8004   18.7340 N   0  0  0  0  0  0  0  0  0  0  0  0
    9.0872  -15.9864   21.2645 C   0  0  0  0  0  0  0  0  0  0  0  0
   10.2648  -15.6781   21.6984 O   0  0  0  0  0  0  0  0  0  0  0  0
    8.0473  -15.4871   22.0473 N   0  0  0  0  0  0  0  0  0  0  0  0
    8.2524  -14.7938   23.3178 C   0  0  1  0  0  0  0  0  0  0  0  0
    6.9198  -14.2055   23.7238 C   0  0  0  0  0  0  0  0  0  0  0  0
    6.9965  -13.4999   25.0287 C   0  0  0  0  0  0  0  0  0  0  0  0
    6.3676  -14.0027   26.1470 C   0  0  0  0  0  0  0  0  0  0  0  0
    6.4457  -13.3425   27.3536 C   0  0  0  0  0  0  0  0  0  0  0  0
    7.1703  -12.1724   27.3951 C   0  0  0  0  0  0  0  0  0  0  0  0
    7.8084  -11.6588   26.2675 C   0  0  0  0  0  0  0  0  0  0  0  0
    7.7277  -12.3228   25.0618 C   0  0  0  0  0  0  0  0  0  0  0  0
    8.6779  -15.7142   24.3875 C   0  0  0  0  0  0  0  0  0  0  0  0
    7.9583  -16.7228   24.5986 O   0  0  0  0  0  0  0  0  0  0  0  0
    9.8392  -15.5323   25.1859 N   0  0  0  0  0  0  0  0  0  0  0  0
   10.2241  -16.4760   26.2224 C   0  0  1  0  0  0  0  0  0  0  0  0
   11.6783  -16.8101   26.0027 C   0  0  0  0  0  0  0  0  0  0  0  0
   11.9415  -17.5910   24.7877 C   0  0  0  0  0  0  0  0  0  0  0  0
   11.0212  -18.4029   24.1470 C   0  0  0  0  0  0  0  0  0  0  0  0
   11.6673  -18.9275   23.0884 N   0  0  0  0  0  0  0  0  0  0  0  0
   12.9230  -18.4577   23.0837 C   0  0  0  0  0  0  0  0  0  0  0  0
   13.1209  -17.6337   24.1167 N   0  0  0  0  0  0  0  0  0  0  0  0
    9.9371  -15.9447   27.5742 C   0  0  0  0  0  0  0  0  0  0  0  0
    9.4852  -14.7897   27.7864 O   0  0  0  0  0  0  0  0  0  0  0  0
   10.1657  -16.7334   28.6902 O   0  0  0  0  0  0  0  0  0  0  0  0
  2  1  1  6
  3  2  1  0
  3  4  1  0
  5  4  1  0
  6  5  1  0
  7  6  1  0
  8  9  2  0
  8  2  1  0
 10  8  1  0
 11 10  1  0
 11 12  1  1
 12 13  1  0
 13 18  1  0
 13 14  2  0
 14 15  1  0
 15 16  2  0
 17 16  1  0
 18 17  2  0
 19 11  1  0
 20 19  2  0
 21 19  1  0
 22 29  1  0
 22 21  1  0
 22 23  1  1
 23 24  1  0
 24 28  1  0
 24 25  2  0
 25 26  1  0
 27 26  1  0
 28 27  2  0
 29 31  1  0
 30 29  2  0
M  END
$$$$
