KFH.pdb
     RDKit          3D

 31 32  0  0  1  0  0  0  0  0999 V2000
    8.3772  -18.1679   20.6538 N   0  0  0  0  0  0  0  0  0  0  0  0
    9.6403  -17.7734   21.1730 C   0  0  1  0  0  0  0  0  0  0  0  0
   10.6864  -17.4567   20.1122 C   0  0  0  0  0  0  0  0  0  0  0  0
   10.2701  -17.7460   18.7132 C   0  0  0  0  0  0  0  0  0  0  0  0
   11.2533  -17.4182   17.6461 C   0  0  0  0  0  0  0  0  0  0  0  0
   10.7355  -17.7491   16.2550 C   0  0  0  0  0  0  0  0  0  0  0  0
   11.7847  -17.5060   15.2854 N   0  0  0  0  0  0  0  0  0  0  0  0
    9.5114  -16.7019   22.1543 C   0  0  0  0  0  0  0  0  0  0  0  0
   10.6097  -16.0914   22.4557 O   0  0  0  0  0  0  0  0  0  0  0  0
    8.3920  -16.2196   22.8309 N   0  0  0  0  0  0  0  0  0  0  0  0
    8.4615  -15.2400   23.9137 C   0  0  1  0  0  0  0  0  0  0  0  0
    7.0611  -14.7096   24.1244 C   0  0  0  0  0  0  0  0  0  0  0  0
    7.0052  -13.7011   25.2136 C   0  0  0  0  0  0  0  0  0  0  0  0
    6.3796  -13.9799   26.4093 C   0  0  0  0  0  0  0  0  0  0  0  0
    6.3343  -13.0391   27.4147 C   0  0  0  0  0  0  0  0  0  0  0  0
    6.9334  -11.8222   27.1774 C   0  0  0  0  0  0  0  0  0  0  0  0
    7.5674  -11.5343   25.9701 C   0  0  0  0  0  0  0  0  0  0  0  0
    7.6106  -12.4788   24.9666 C   0  0  0  0  0  0  0  0  0  0  0  0
    8.9035  -15.8478   25.1817 C   0  0  0  0  0  0  0  0  0  0  0  0
    8.2300  -16.8131   25.6225 O   0  0  0  0  0  0  0  0  0  0  0  0
   10.0321  -15.4134   25.9278 N   0  0  0  0  0  0  0  0  0  0  0  0
   10.5358  -16.1520   27.0740 C   0  0  1  0  0  0  0  0  0  0  0  0
   11.9399  -16.5896   26.7396 C   0  0  0  0  0  0  0  0  0  0  0  0
   12.0141  -17.7971   25.9078 C   0  0  0  0  0  0  0  0  0  0  0  0
   10.9262  -18.5422   25.4855 C   0  0  0  0  0  0  0  0  0  0  0  0
   11.4339  -19.5531   24.7549 N   0  0  0  0  0  0  0  0  0  0  0  0
   12.7688  -19.4304   24.7327 C   0  0  0  0  0  0  0  0  0  0  0  0
   13.1546  -18.3599   25.4331 N   0  0  0  0  0  0  0  0  0  0  0  0
   10.4458  -15.3531   28.3171 C   0  0  0  0  0  0  0  0  0  0  0  0
   10.7917  -15.7837   29.4476 O   0  0  0  0  0  0  0  0  0  0  0  0
    9.9594  -14.0565   28.2722 O   0  0  0  0  0  0  0  0  0  0  0  0
  2  1  1  6
  3  2  1  0
  3  4  1  0
  5  4  1  0
  6  5  1  0
  7  6  1  0
  8  9  2  0
  8  2  1  0
 10  8  1  0
 11 10  1  0
 11 12  1  1
 12 13  1  0
 13 18  1  0
 13 14  2  0
 14 15  1  0
 15 16  2  0
 17 16  1  0
 18 17  2  0
 19 11  1  0
 20 19  2  0
 21 19  1  0
 22 29  1  0
 22 21  1  0
 22 23  1  6
 23 24  1  0
 24 28  1  0
 24 25  2  0
 25 26  1  0
 27 26  1  0
 28 27  2  0
 29 31  1  0
 30 29  2  0
M  END
$$$$
