KFH.pdb
     RDKit          3D

 31 32  0  0  1  0  0  0  0  0999 V2000
    9.2723  -16.2159   18.7314 N   0  0  0  0  0  0  0  0  0  0  0  0
    8.6634  -16.8338   19.8576 C   0  0  1  0  0  0  0  0  0  0  0  0
    9.0551  -18.2910   20.0649 C   0  0  0  0  0  0  0  0  0  0  0  0
    8.6555  -19.2115   18.9661 C   0  0  0  0  0  0  0  0  0  0  0  0
    8.9907  -20.6493   19.1489 C   0  0  0  0  0  0  0  0  0  0  0  0
    8.5589  -21.5031   17.9668 C   0  0  0  0  0  0  0  0  0  0  0  0
    8.9132  -22.8849   18.2220 N   0  0  0  0  0  0  0  0  0  0  0  0
    8.8367  -16.0408   21.0695 C   0  0  0  0  0  0  0  0  0  0  0  0
   10.0612  -15.7887   21.3964 O   0  0  0  0  0  0  0  0  0  0  0  0
    7.8951  -15.5035   21.9459 N   0  0  0  0  0  0  0  0  0  0  0  0
    8.2466  -14.7875   23.1708 C   0  0  1  0  0  0  0  0  0  0  0  0
    6.9952  -14.0876   23.6518 C   0  0  0  0  0  0  0  0  0  0  0  0
    7.2268  -13.3353   24.9115 C   0  0  0  0  0  0  0  0  0  0  0  0
    8.1764  -12.3390   24.9803 C   0  0  0  0  0  0  0  0  0  0  0  0
    8.3830  -11.6452   26.1524 C   0  0  0  0  0  0  0  0  0  0  0  0
    7.6098  -11.9849   27.2400 C   0  0  0  0  0  0  0  0  0  0  0  0
    6.6481  -12.9916   27.1765 C   0  0  0  0  0  0  0  0  0  0  0  0
    6.4444  -13.6835   26.0014 C   0  0  0  0  0  0  0  0  0  0  0  0
    8.6844  -15.7027   24.2400 C   0  0  0  0  0  0  0  0  0  0  0  0
    7.9192  -16.6568   24.5297 O   0  0  0  0  0  0  0  0  0  0  0  0
    9.9053  -15.5731   24.9553 N   0  0  0  0  0  0  0  0  0  0  0  0
   10.2930  -16.5025   26.0037 C   0  0  1  0  0  0  0  0  0  0  0  0
   11.7669  -16.7743   25.8350 C   0  0  0  0  0  0  0  0  0  0  0  0
   12.0877  -17.7148   24.7543 C   0  0  0  0  0  0  0  0  0  0  0  0
   11.1589  -18.3399   23.9398 C   0  0  0  0  0  0  0  0  0  0  0  0
   11.8700  -19.1101   23.0945 N   0  0  0  0  0  0  0  0  0  0  0  0
   13.1715  -18.9618   23.3802 C   0  0  0  0  0  0  0  0  0  0  0  0
   13.3361  -18.1100   24.3964 N   0  0  0  0  0  0  0  0  0  0  0  0
    9.9364  -15.9875   27.3451 C   0  0  0  0  0  0  0  0  0  0  0  0
   10.1568  -14.8062   27.7182 O   0  0  0  0  0  0  0  0  0  0  0  0
    9.3250  -16.8225   28.2665 O   0  0  0  0  0  0  0  0  0  0  0  0
  2  1  1  6
  3  2  1  0
  3  4  1  0
  5  4  1  0
  6  5  1  0
  7  6  1  0
  8  9  2  0
  8  2  1  0
 10  8  1  0
 11 10  1  0
 11 12  1  1
 12 13  1  0
 13 18  1  0
 13 14  2  0
 14 15  1  0
 15 16  2  0
 17 16  1  0
 18 17  2  0
 19 11  1  0
 20 19  2  0
 21 19  1  0
 22 29  1  0
 22 21  1  0
 22 23  1  1
 23 24  1  0
 24 28  1  0
 24 25  2  0
 25 26  1  0
 27 26  1  0
 28 27  2  0
 29 31  1  0
 30 29  2  0
M  END
$$$$
