KFH.pdb
     RDKit          3D

 31 32  0  0  1  0  0  0  0  0999 V2000
    6.6627  -18.4141   20.6105 N   0  0  0  0  0  0  0  0  0  0  0  0
    6.6878  -18.6450   22.0129 C   0  0  1  0  0  0  0  0  0  0  0  0
    7.3939  -19.9293   22.4274 C   0  0  0  0  0  0  0  0  0  0  0  0
    8.8629  -19.9431   22.1907 C   0  0  0  0  0  0  0  0  0  0  0  0
    9.5498  -21.2526   22.3526 C   0  0  0  0  0  0  0  0  0  0  0  0
   11.0225  -21.1884   21.9792 C   0  0  0  0  0  0  0  0  0  0  0  0
   11.6255  -22.4889   22.1914 N   0  0  0  0  0  0  0  0  0  0  0  0
    7.1849  -17.4846   22.7437 C   0  0  0  0  0  0  0  0  0  0  0  0
    8.0821  -16.7858   22.1298 O   0  0  0  0  0  0  0  0  0  0  0  0
    6.8540  -16.9962   24.0067 N   0  0  0  0  0  0  0  0  0  0  0  0
    7.3825  -15.7486   24.5553 C   0  0  1  0  0  0  0  0  0  0  0  0
    6.5197  -15.3839   25.7426 C   0  0  0  0  0  0  0  0  0  0  0  0
    6.8990  -14.0709   26.3246 C   0  0  0  0  0  0  0  0  0  0  0  0
    7.8699  -13.9785   27.2981 C   0  0  0  0  0  0  0  0  0  0  0  0
    8.2165  -12.7562   27.8309 C   0  0  0  0  0  0  0  0  0  0  0  0
    7.5597  -11.6433   27.3555 C   0  0  0  0  0  0  0  0  0  0  0  0
    6.5768  -11.7305   26.3712 C   0  0  0  0  0  0  0  0  0  0  0  0
    6.2329  -12.9558   25.8406 C   0  0  0  0  0  0  0  0  0  0  0  0
    8.7663  -15.8999   25.0396 C   0  0  0  0  0  0  0  0  0  0  0  0
    9.3345  -14.8724   25.4881 O   0  0  0  0  0  0  0  0  0  0  0  0
    9.4891  -17.1232   25.0301 N   0  0  0  0  0  0  0  0  0  0  0  0
   10.8772  -17.2079   25.4533 C   0  0  1  0  0  0  0  0  0  0  0  0
   11.6094  -16.0558   24.8119 C   0  0  0  0  0  0  0  0  0  0  0  0
   11.6709  -16.1202   23.3465 C   0  0  0  0  0  0  0  0  0  0  0  0
   11.0119  -17.0507   22.5612 C   0  0  0  0  0  0  0  0  0  0  0  0
   11.3383  -16.7553   21.2885 N   0  0  0  0  0  0  0  0  0  0  0  0
   12.1580  -15.6944   21.2973 C   0  0  0  0  0  0  0  0  0  0  0  0
   12.3806  -15.2821   22.5485 N   0  0  0  0  0  0  0  0  0  0  0  0
   10.9944  -17.2350   26.9288 C   0  0  0  0  0  0  0  0  0  0  0  0
   10.0078  -17.1639   27.7066 O   0  0  0  0  0  0  0  0  0  0  0  0
   12.2419  -17.3440   27.5218 O   0  0  0  0  0  0  0  0  0  0  0  0
  2  1  1  6
  3  2  1  0
  3  4  1  0
  5  4  1  0
  6  5  1  0
  7  6  1  0
  8  9  2  0
  8  2  1  0
 10  8  1  0
 11 10  1  0
 11 12  1  1
 12 13  1  0
 13 18  1  0
 13 14  2  0
 14 15  1  0
 15 16  2  0
 17 16  1  0
 18 17  2  0
 19 11  1  0
 20 19  2  0
 21 19  1  0
 22 29  1  0
 22 21  1  0
 22 23  1  1
 23 24  1  0
 24 28  1  0
 24 25  2  0
 25 26  1  0
 27 26  1  0
 28 27  2  0
 29 31  1  0
 30 29  2  0
M  END
$$$$
