KFH.pdb
     RDKit          3D

 31 32  0  0  1  0  0  0  0  0999 V2000
    9.6565  -16.2248   19.0173 N   0  0  0  0  0  0  0  0  0  0  0  0
    9.3000  -16.9814   20.1667 C   0  0  1  0  0  0  0  0  0  0  0  0
   10.0955  -18.2679   20.3456 C   0  0  0  0  0  0  0  0  0  0  0  0
   10.0497  -19.2011   19.1874 C   0  0  0  0  0  0  0  0  0  0  0  0
   10.7331  -20.5109   19.3620 C   0  0  0  0  0  0  0  0  0  0  0  0
   10.5803  -21.4143   18.1483 C   0  0  0  0  0  0  0  0  0  0  0  0
   11.1983  -22.6952   18.4264 N   0  0  0  0  0  0  0  0  0  0  0  0
    9.2998  -16.1635   21.3744 C   0  0  0  0  0  0  0  0  0  0  0  0
   10.4671  -15.8413   21.8256 O   0  0  0  0  0  0  0  0  0  0  0  0
    8.2424  -15.6654   22.1341 N   0  0  0  0  0  0  0  0  0  0  0  0
    8.4212  -14.9300   23.3847 C   0  0  1  0  0  0  0  0  0  0  0  0
    7.0928  -14.2886   23.7176 C   0  0  0  0  0  0  0  0  0  0  0  0
    7.1540  -13.5007   24.9753 C   0  0  0  0  0  0  0  0  0  0  0  0
    8.0513  -12.4653   25.1228 C   0  0  0  0  0  0  0  0  0  0  0  0
    8.0998  -11.7388   26.2923 C   0  0  0  0  0  0  0  0  0  0  0  0
    7.2241  -12.0865   27.2964 C   0  0  0  0  0  0  0  0  0  0  0  0
    6.3145  -13.1327   27.1533 C   0  0  0  0  0  0  0  0  0  0  0  0
    6.2693  -13.8573   25.9810 C   0  0  0  0  0  0  0  0  0  0  0  0
    8.7791  -15.8204   24.5035 C   0  0  0  0  0  0  0  0  0  0  0  0
    7.9679  -16.7361   24.7921 O   0  0  0  0  0  0  0  0  0  0  0  0
    9.9720  -15.7076   25.2671 N   0  0  0  0  0  0  0  0  0  0  0  0
   10.2422  -16.5578   26.4149 C   0  0  1  0  0  0  0  0  0  0  0  0
   11.6641  -17.0435   26.2844 C   0  0  0  0  0  0  0  0  0  0  0  0
   11.8757  -18.0067   25.1969 C   0  0  0  0  0  0  0  0  0  0  0  0
   10.8734  -18.6992   24.5392 C   0  0  0  0  0  0  0  0  0  0  0  0
   11.4958  -19.4675   23.6249 N   0  0  0  0  0  0  0  0  0  0  0  0
   12.8158  -19.2537   23.7206 C   0  0  0  0  0  0  0  0  0  0  0  0
   13.0796  -18.3605   24.6787 N   0  0  0  0  0  0  0  0  0  0  0  0
    9.9728  -15.8526   27.6884 C   0  0  0  0  0  0  0  0  0  0  0  0
   10.1414  -16.3733   28.8214 O   0  0  0  0  0  0  0  0  0  0  0  0
    9.5091  -14.5470   27.6714 O   0  0  0  0  0  0  0  0  0  0  0  0
  2  1  1  6
  3  2  1  0
  3  4  1  0
  5  4  1  0
  6  5  1  0
  7  6  1  0
  8  9  2  0
  8  2  1  0
 10  8  1  0
 11 10  1  0
 11 12  1  1
 12 13  1  0
 13 18  1  0
 13 14  2  0
 14 15  1  0
 15 16  2  0
 17 16  1  0
 18 17  2  0
 19 11  1  0
 20 19  2  0
 21 19  1  0
 22 29  1  0
 22 21  1  0
 22 23  1  1
 23 24  1  0
 24 28  1  0
 24 25  2  0
 25 26  1  0
 27 26  1  0
 28 27  2  0
 29 31  1  0
 30 29  2  0
M  END
$$$$
