KFH.pdb
     RDKit          3D

 31 32  0  0  1  0  0  0  0  0999 V2000
   10.3850  -16.7266   19.5851 N   0  0  0  0  0  0  0  0  0  0  0  0
    9.1307  -16.7946   20.2505 C   0  0  1  0  0  0  0  0  0  0  0  0
    8.5413  -18.1961   20.3418 C   0  0  0  0  0  0  0  0  0  0  0  0
    8.5947  -18.9835   19.0803 C   0  0  0  0  0  0  0  0  0  0  0  0
    8.0648  -20.3722   19.1410 C   0  0  0  0  0  0  0  0  0  0  0  0
    8.0708  -21.0580   17.7837 C   0  0  0  0  0  0  0  0  0  0  0  0
    7.6484  -22.4350   17.9432 N   0  0  0  0  0  0  0  0  0  0  0  0
    9.1696  -16.1297   21.5482 C   0  0  0  0  0  0  0  0  0  0  0  0
   10.3147  -16.1497   22.1469 O   0  0  0  0  0  0  0  0  0  0  0  0
    8.1699  -15.4696   22.2611 N   0  0  0  0  0  0  0  0  0  0  0  0
    8.3728  -14.8849   23.5854 C   0  0  1  0  0  0  0  0  0  0  0  0
    7.1512  -14.0487   23.8945 C   0  0  0  0  0  0  0  0  0  0  0  0
    7.2743  -13.3418   25.1951 C   0  0  0  0  0  0  0  0  0  0  0  0
    6.2558  -13.3771   26.1227 C   0  0  0  0  0  0  0  0  0  0  0  0
    6.3795  -12.7200   27.3272 C   0  0  0  0  0  0  0  0  0  0  0  0
    7.5500  -12.0342   27.5628 C   0  0  0  0  0  0  0  0  0  0  0  0
    8.5834  -11.9947   26.6286 C   0  0  0  0  0  0  0  0  0  0  0  0
    8.4556  -12.6538   25.4242 C   0  0  0  0  0  0  0  0  0  0  0  0
    8.4846  -15.9152   24.6335 C   0  0  0  0  0  0  0  0  0  0  0  0
    7.4288  -16.5054   24.9750 O   0  0  0  0  0  0  0  0  0  0  0  0
    9.6999  -16.2773   25.2744 N   0  0  0  0  0  0  0  0  0  0  0  0
    9.7589  -17.3010   26.3049 C   0  0  1  0  0  0  0  0  0  0  0  0
   10.8638  -18.2540   25.9230 C   0  0  0  0  0  0  0  0  0  0  0  0
   10.5494  -19.1142   24.7755 C   0  0  0  0  0  0  0  0  0  0  0  0
    9.3347  -19.1454   24.1119 C   0  0  0  0  0  0  0  0  0  0  0  0
    9.4725  -20.0622   23.1352 N   0  0  0  0  0  0  0  0  0  0  0  0
   10.7130  -20.5666   23.2003 C   0  0  0  0  0  0  0  0  0  0  0  0
   11.3984  -20.0029   24.1991 N   0  0  0  0  0  0  0  0  0  0  0  0
    9.9287  -16.7076   27.6506 C   0  0  0  0  0  0  0  0  0  0  0  0
    9.9656  -17.3852   28.7102 O   0  0  0  0  0  0  0  0  0  0  0  0
   10.0576  -15.3351   27.7901 O   0  0  0  0  0  0  0  0  0  0  0  0
  2  1  1  1
  3  2  1  0
  3  4  1  0
  5  4  1  0
  6  5  1  0
  7  6  1  0
  8  9  2  0
  8  2  1  0
 10  8  1  0
 11 10  1  0
 11 12  1  1
 12 13  1  0
 13 18  1  0
 13 14  2  0
 14 15  1  0
 15 16  2  0
 17 16  1  0
 18 17  2  0
 19 11  1  0
 20 19  2  0
 21 19  1  0
 22 29  1  0
 22 21  1  0
 22 23  1  6
 23 24  1  0
 24 28  1  0
 24 25  2  0
 25 26  1  0
 27 26  1  0
 28 27  2  0
 29 31  1  0
 30 29  2  0
M  END
$$$$
