RFD.pdb
     RDKit          3D

 31 31  0  0  1  0  0  0  0  0999 V2000
   26.4025  -24.8881  -15.7515 N   0  0  0  0  0  0  0  0  0  0  0  0
   27.0751  -24.6888  -16.9868 C   0  0  0  0  0  0  0  0  0  0  0  0
   27.1783  -25.6485  -17.8218 N   0  0  0  0  0  0  0  0  0  0  0  0
   27.6592  -23.3978  -17.3317 N   0  0  0  0  0  0  0  0  0  0  0  0
   27.4713  -22.2788  -16.4694 C   0  0  0  0  0  0  0  0  0  0  0  0
   28.4562  -22.1010  -15.3971 C   0  0  0  0  0  0  0  0  0  0  0  0
   28.0732  -22.2369  -13.9877 C   0  0  0  0  0  0  0  0  0  0  0  0
   27.3493  -21.1666  -13.2858 C   0  0  2  0  0  0  0  0  0  0  0  0
   28.1550  -19.9314  -13.3814 N   0  0  0  0  0  0  0  0  0  0  0  0
   27.1584  -21.4699  -11.8210 C   0  0  0  0  0  0  0  0  0  0  0  0
   26.4985  -22.4364  -11.3939 O   0  0  0  0  0  0  0  0  0  0  0  0
   27.6961  -25.5398  -18.7173 N   0  0  0  0  0  0  0  0  0  0  0  0
   27.7466  -20.6330  -10.8271 C   0  0  1  0  0  0  0  0  0  0  0  0
   27.4875  -20.7729   -9.3966 C   0  0  0  0  0  0  0  0  0  0  0  0
   28.5892  -20.1078   -8.6137 C   0  0  0  0  0  0  0  0  0  0  0  0
   28.4154  -20.0361   -7.1746 C   0  0  0  0  0  0  0  0  0  0  0  0
   27.6375  -19.0171   -6.6530 C   0  0  0  0  0  0  0  0  0  0  0  0
   27.4199  -18.9017   -5.2871 C   0  0  0  0  0  0  0  0  0  0  0  0
   27.9749  -19.8006   -4.4227 C   0  0  0  0  0  0  0  0  0  0  0  0
   28.7450  -20.8133   -4.9110 C   0  0  0  0  0  0  0  0  0  0  0  0
   28.9557  -20.9208   -6.2666 C   0  0  0  0  0  0  0  0  0  0  0  0
   26.2082  -20.1262   -9.0231 O   0  0  0  0  0  0  0  0  0  0  0  0
   26.0423  -18.9268   -9.3506 N   0  0  0  0  0  0  0  0  0  0  0  0
   25.1727  -20.7847   -8.3229 C   0  0  1  0  0  0  0  0  0  0  0  0
   23.8093  -20.3659   -8.5653 C   0  0  0  0  0  0  0  0  0  0  0  0
   23.3583  -20.5425   -9.9845 C   0  0  0  0  0  0  0  0  0  0  0  0
   21.9659  -20.1173  -10.1831 O   0  0  0  0  0  0  0  0  0  0  0  0
   21.3389  -19.5850   -9.2457 C   0  0  0  0  0  0  0  0  0  0  0  0
   22.8511  -21.1506   -7.7223 O   0  0  0  0  0  0  0  0  0  0  0  0
   21.4974  -20.9142   -7.6958 O   0  0  0  0  0  0  0  0  0  0  0  0
   21.3326  -20.2963  -11.3957 O   0  0  0  0  0  0  0  0  0  0  0  0
  2  3  2  0
  2  1  1  0
  4  2  1  0
  5  4  1  0
  6  5  1  0
  7  6  1  0
  8  9  1  1
  8 10  1  0
  8  7  1  0
 10 11  2  0
 12 13  1  0
 12 10  1  0
 13 21  1  0
 13 14  1  1
 15 14  1  0
 16 15  2  0
 17 16  1  0
 18 17  2  0
 18 19  1  0
 19 20  2  0
 20 15  1  0
 21 23  1  0
 21 22  2  0
 23 24  1  0
 24 28  1  0
 24 25  1  1
 26 25  1  0
 26 27  2  0
 28 31  2  0
 28 29  1  0
 30 26  1  0
M  END
$$$$
