RFD.pdb
     RDKit          3D

 31 31  0  0  1  0  0  0  0  0999 V2000
   16.2579  -26.2226   -8.9527 N   0  0  0  0  0  0  0  0  0  0  0  0
   16.0355  -24.8884   -9.3871 C   0  0  0  0  0  0  0  0  0  0  0  0
   14.8791  -24.3614   -9.2703 N   0  0  0  0  0  0  0  0  0  0  0  0
   17.1093  -24.0930   -9.9712 N   0  0  0  0  0  0  0  0  0  0  0  0
   18.4263  -24.6305  -10.0585 C   0  0  0  0  0  0  0  0  0  0  0  0
   19.4205  -24.0925   -9.1238 C   0  0  0  0  0  0  0  0  0  0  0  0
   20.2303  -22.9202   -9.4725 C   0  0  0  0  0  0  0  0  0  0  0  0
   21.4347  -22.5679   -8.7061 C   0  0  2  0  0  0  0  0  0  0  0  0
   21.0084  -22.1332   -7.3596 N   0  0  0  0  0  0  0  0  0  0  0  0
   22.1967  -21.4259   -9.3301 C   0  0  0  0  0  0  0  0  0  0  0  0
   21.9333  -20.2251   -9.1284 O   0  0  0  0  0  0  0  0  0  0  0  0
   14.6889  -23.3875   -9.5820 N   0  0  0  0  0  0  0  0  0  0  0  0
   23.2905  -21.6817  -10.2089 C   0  0  1  0  0  0  0  0  0  0  0  0
   24.0485  -20.6307  -10.8826 C   0  0  0  0  0  0  0  0  0  0  0  0
   25.5186  -20.9556  -10.8361 C   0  0  0  0  0  0  0  0  0  0  0  0
   26.2462  -20.5198   -9.6584 C   0  0  0  0  0  0  0  0  0  0  0  0
   27.1995  -21.3664   -9.1200 C   0  0  0  0  0  0  0  0  0  0  0  0
   27.9401  -21.0030   -8.0038 C   0  0  0  0  0  0  0  0  0  0  0  0
   27.7402  -19.7906   -7.4093 C   0  0  0  0  0  0  0  0  0  0  0  0
   26.8075  -18.9386   -7.9202 C   0  0  0  0  0  0  0  0  0  0  0  0
   26.0775  -19.3064   -9.0273 C   0  0  0  0  0  0  0  0  0  0  0  0
   23.6510  -20.5183  -12.3052 O   0  0  0  0  0  0  0  0  0  0  0  0
   23.4263  -21.5797  -12.9346 N   0  0  0  0  0  0  0  0  0  0  0  0
   23.5125  -19.2876  -12.9850 C   0  0  1  0  0  0  0  0  0  0  0  0
   22.9753  -19.3048  -14.3281 C   0  0  0  0  0  0  0  0  0  0  0  0
   22.1617  -18.0944  -14.6770 C   0  0  0  0  0  0  0  0  0  0  0  0
   21.0016  -18.4262  -15.5155 O   0  0  0  0  0  0  0  0  0  0  0  0
   20.2579  -17.5174  -15.9353 C   0  0  0  0  0  0  0  0  0  0  0  0
   24.0750  -19.3749  -15.3431 O   0  0  0  0  0  0  0  0  0  0  0  0
   23.8896  -19.8183  -16.6307 O   0  0  0  0  0  0  0  0  0  0  0  0
   20.7158  -19.7336  -15.8509 O   0  0  0  0  0  0  0  0  0  0  0  0
  2  3  2  0
  2  1  1  0
  4  2  1  0
  5  4  1  0
  6  5  1  0
  7  6  1  0
  8  9  1  1
  8 10  1  0
  8  7  1  0
 10 11  2  0
 12 13  1  0
 12 10  1  0
 13 21  1  0
 13 14  1  6
 15 14  1  0
 16 15  2  0
 17 16  1  0
 18 17  2  0
 18 19  1  0
 19 20  2  0
 20 15  1  0
 21 23  1  0
 21 22  2  0
 23 24  1  0
 24 28  1  0
 24 25  1  6
 26 25  1  0
 26 27  2  0
 28 31  2  0
 28 29  1  0
 30 26  1  0
M  END
$$$$
