RFD.pdb
     RDKit          3D

 31 31  0  0  1  0  0  0  0  0999 V2000
   30.5019  -24.7871  -19.2201 N   0  0  0  0  0  0  0  0  0  0  0  0
   30.0413  -25.8485  -18.3958 C   0  0  0  0  0  0  0  0  0  0  0  0
   30.5957  -26.9962  -18.4605 N   0  0  0  0  0  0  0  0  0  0  0  0
   28.9359  -25.6589  -17.4637 N   0  0  0  0  0  0  0  0  0  0  0  0
   27.6765  -25.1910  -17.9393 C   0  0  0  0  0  0  0  0  0  0  0  0
   27.5193  -23.7382  -18.0670 C   0  0  0  0  0  0  0  0  0  0  0  0
   26.8221  -22.9592  -17.0381 C   0  0  0  0  0  0  0  0  0  0  0  0
   27.5098  -22.5209  -15.8144 C   0  0  2  0  0  0  0  0  0  0  0  0
   28.5092  -23.5497  -15.4587 N   0  0  0  0  0  0  0  0  0  0  0  0
   26.5666  -22.3832  -14.6458 C   0  0  0  0  0  0  0  0  0  0  0  0
   26.0654  -23.3509  -14.0423 O   0  0  0  0  0  0  0  0  0  0  0  0
   30.2867  -27.7866  -17.8590 N   0  0  0  0  0  0  0  0  0  0  0  0
   26.1957  -21.0928  -14.1649 C   0  0  1  0  0  0  0  0  0  0  0  0
   25.3949  -20.8782  -12.9624 C   0  0  0  0  0  0  0  0  0  0  0  0
   26.0522  -19.8379  -12.0937 C   0  0  0  0  0  0  0  0  0  0  0  0
   26.7280  -20.3158  -10.9015 C   0  0  0  0  0  0  0  0  0  0  0  0
   26.0738  -20.2152   -9.6861 C   0  0  0  0  0  0  0  0  0  0  0  0
   26.6590  -20.6672   -8.5115 C   0  0  0  0  0  0  0  0  0  0  0  0
   27.9044  -21.2256   -8.5328 C   0  0  0  0  0  0  0  0  0  0  0  0
   28.5697  -21.3363   -9.7169 C   0  0  0  0  0  0  0  0  0  0  0  0
   27.9825  -20.8859  -10.8770 C   0  0  0  0  0  0  0  0  0  0  0  0
   24.0385  -20.3931  -13.3077 O   0  0  0  0  0  0  0  0  0  0  0  0
   23.9015  -19.7539  -14.3781 N   0  0  0  0  0  0  0  0  0  0  0  0
   22.8996  -20.6114  -12.5007 C   0  0  1  0  0  0  0  0  0  0  0  0
   21.6014  -20.6256  -13.1391 C   0  0  0  0  0  0  0  0  0  0  0  0
   21.4526  -21.6761  -14.1989 C   0  0  0  0  0  0  0  0  0  0  0  0
   20.1366  -21.6266  -14.8508 O   0  0  0  0  0  0  0  0  0  0  0  0
   19.4438  -20.5925  -14.7746 C   0  0  0  0  0  0  0  0  0  0  0  0
   20.5165  -20.8852  -12.1391 O   0  0  0  0  0  0  0  0  0  0  0  0
   19.2190  -20.4625  -12.3030 O   0  0  0  0  0  0  0  0  0  0  0  0
   19.6477  -22.7098  -15.5515 O   0  0  0  0  0  0  0  0  0  0  0  0
  2  3  2  0
  2  1  1  0
  4  2  1  0
  5  4  1  0
  6  5  1  0
  7  6  1  0
  8  9  1  1
  8 10  1  0
  8  7  1  0
 10 11  2  0
 12 13  1  0
 12 10  1  0
 13 21  1  0
 13 14  1  1
 15 14  1  0
 16 15  2  0
 17 16  1  0
 18 17  2  0
 18 19  1  0
 19 20  2  0
 20 15  1  0
 21 23  1  0
 21 22  2  0
 23 24  1  0
 24 28  1  0
 24 25  1  1
 26 25  1  0
 26 27  2  0
 28 31  2  0
 28 29  1  0
 30 26  1  0
M  END
$$$$
