RFD.pdb
     RDKit          3D

 31 31  0  0  1  0  0  0  0  0999 V2000
   30.2849  -15.5764  -18.5784 N   0  0  0  0  0  0  0  0  0  0  0  0
   29.3219  -16.1285  -19.4649 C   0  0  0  0  0  0  0  0  0  0  0  0
   29.4325  -15.9481  -20.7234 N   0  0  0  0  0  0  0  0  0  0  0  0
   28.1939  -16.9079  -18.9680 N   0  0  0  0  0  0  0  0  0  0  0  0
   28.0519  -17.1421  -17.5694 C   0  0  0  0  0  0  0  0  0  0  0  0
   28.8637  -18.2213  -16.9967 C   0  0  0  0  0  0  0  0  0  0  0  0
   28.2960  -19.1599  -16.0227 C   0  0  0  0  0  0  0  0  0  0  0  0
   27.3661  -20.2211  -16.4363 C   0  0  2  0  0  0  0  0  0  0  0  0
   26.1348  -19.5783  -16.9410 N   0  0  0  0  0  0  0  0  0  0  0  0
   26.9714  -21.1159  -15.2884 C   0  0  0  0  0  0  0  0  0  0  0  0
   27.7807  -21.7999  -14.6333 O   0  0  0  0  0  0  0  0  0  0  0  0
   28.7477  -16.3505  -21.3950 N   0  0  0  0  0  0  0  0  0  0  0  0
   25.6060  -21.2201  -14.8898 C   0  0  1  0  0  0  0  0  0  0  0  0
   25.1824  -21.4603  -13.5128 C   0  0  0  0  0  0  0  0  0  0  0  0
   25.7046  -20.3633  -12.6224 C   0  0  0  0  0  0  0  0  0  0  0  0
   25.3684  -20.4511  -11.2133 C   0  0  0  0  0  0  0  0  0  0  0  0
   26.3738  -20.7540  -10.3118 C   0  0  0  0  0  0  0  0  0  0  0  0
   26.1210  -20.8381   -8.9496 C   0  0  0  0  0  0  0  0  0  0  0  0
   24.8623  -20.6214   -8.4678 C   0  0  0  0  0  0  0  0  0  0  0  0
   23.8547  -20.3215   -9.3348 C   0  0  0  0  0  0  0  0  0  0  0  0
   24.1136  -20.2398  -10.6838 C   0  0  0  0  0  0  0  0  0  0  0  0
   23.7049  -21.4698  -13.4061 O   0  0  0  0  0  0  0  0  0  0  0  0
   23.2016  -21.7362  -12.2885 N   0  0  0  0  0  0  0  0  0  0  0  0
   22.8396  -21.1964  -14.4888 C   0  0  1  0  0  0  0  0  0  0  0  0
   21.4129  -21.2637  -14.2581 C   0  0  0  0  0  0  0  0  0  0  0  0
   20.6231  -20.2309  -15.0051 C   0  0  0  0  0  0  0  0  0  0  0  0
   20.7878  -18.8858  -14.4371 O   0  0  0  0  0  0  0  0  0  0  0  0
   21.3313  -18.7437  -13.3237 C   0  0  0  0  0  0  0  0  0  0  0  0
   20.8653  -22.5930  -14.6794 O   0  0  0  0  0  0  0  0  0  0  0  0
   21.5917  -23.5214  -15.3862 O   0  0  0  0  0  0  0  0  0  0  0  0
   20.3499  -17.7674  -15.1160 O   0  0  0  0  0  0  0  0  0  0  0  0
  2  3  2  0
  2  1  1  0
  4  2  1  0
  5  4  1  0
  6  5  1  0
  7  6  1  0
  8  9  1  1
  8 10  1  0
  8  7  1  0
 10 11  2  0
 12 13  1  0
 12 10  1  0
 13 21  1  0
 13 14  1  1
 15 14  1  0
 16 15  2  0
 17 16  1  0
 18 17  2  0
 18 19  1  0
 19 20  2  0
 20 15  1  0
 21 23  1  0
 21 22  2  0
 23 24  1  0
 24 28  1  0
 24 25  1  1
 26 25  1  0
 26 27  2  0
 28 31  2  0
 28 29  1  0
 30 26  1  0
M  END
$$$$
