RFD.pdb
     RDKit          3D

 31 31  0  0  1  0  0  0  0  0999 V2000
   17.8403  -16.0057  -20.7452 N   0  0  0  0  0  0  0  0  0  0  0  0
   16.8165  -15.2554  -21.3831 C   0  0  0  0  0  0  0  0  0  0  0  0
   16.4547  -15.5474  -22.5716 N   0  0  0  0  0  0  0  0  0  0  0  0
   16.1580  -14.1441  -20.7062 N   0  0  0  0  0  0  0  0  0  0  0  0
   16.7957  -13.5038  -19.6041 C   0  0  0  0  0  0  0  0  0  0  0  0
   16.0339  -12.4515  -18.9230 C   0  0  0  0  0  0  0  0  0  0  0  0
   16.5804  -11.7601  -17.7505 C   0  0  0  0  0  0  0  0  0  0  0  0
   17.9707  -11.9685  -17.3194 C   0  0  2  0  0  0  0  0  0  0  0  0
   18.0528  -13.2913  -16.6657 N   0  0  0  0  0  0  0  0  0  0  0  0
   18.4188  -10.9382  -16.3136 C   0  0  0  0  0  0  0  0  0  0  0  0
   17.7839  -10.6580  -15.2790 O   0  0  0  0  0  0  0  0  0  0  0  0
   15.7337  -14.9917  -23.0750 N   0  0  0  0  0  0  0  0  0  0  0  0
   19.6323  -10.2153  -16.5113 C   0  0  2  0  0  0  0  0  0  0  0  0
   20.1354   -9.2105  -15.5783 C   0  0  0  0  0  0  0  0  0  0  0  0
   21.6312   -9.3366  -15.4544 C   0  0  0  0  0  0  0  0  0  0  0  0
   22.3127   -8.3023  -14.6980 C   0  0  0  0  0  0  0  0  0  0  0  0
   22.4818   -8.4824  -13.3363 C   0  0  0  0  0  0  0  0  0  0  0  0
   23.1378   -7.5381  -12.5590 C   0  0  0  0  0  0  0  0  0  0  0  0
   23.6342   -6.4013  -13.1288 C   0  0  0  0  0  0  0  0  0  0  0  0
   23.4810   -6.2002  -14.4678 C   0  0  0  0  0  0  0  0  0  0  0  0
   22.8294   -7.1414  -15.2315 C   0  0  0  0  0  0  0  0  0  0  0  0
   19.8311   -7.8421  -16.0572 O   0  0  0  0  0  0  0  0  0  0  0  0
   20.0203   -7.5926  -17.2718 N   0  0  0  0  0  0  0  0  0  0  0  0
   19.3425   -6.8112  -15.2239 C   0  0  1  0  0  0  0  0  0  0  0  0
   19.1141   -5.5084  -15.8101 C   0  0  0  0  0  0  0  0  0  0  0  0
   17.8737   -4.8249  -15.3171 C   0  0  0  0  0  0  0  0  0  0  0  0
   16.6526   -5.4027  -15.8951 O   0  0  0  0  0  0  0  0  0  0  0  0
   16.6940   -5.9514  -17.0142 C   0  0  0  0  0  0  0  0  0  0  0  0
   20.2502   -4.5796  -15.5083 O   0  0  0  0  0  0  0  0  0  0  0  0
   20.3768   -3.3312  -16.0690 O   0  0  0  0  0  0  0  0  0  0  0  0
   15.4509   -5.3504  -15.2193 O   0  0  0  0  0  0  0  0  0  0  0  0
  2  3  2  0
  2  1  1  0
  4  2  1  0
  5  4  1  0
  6  5  1  0
  7  6  1  0
  8  9  1  1
  8 10  1  0
  8  7  1  0
 10 11  2  0
 12 13  1  0
 12 10  1  0
 13 21  1  0
 13 14  1  1
 15 14  1  0
 16 15  2  0
 17 16  1  0
 18 17  2  0
 18 19  1  0
 19 20  2  0
 20 15  1  0
 21 23  1  0
 21 22  2  0
 23 24  1  0
 24 28  1  0
 24 25  1  6
 26 25  1  0
 26 27  2  0
 28 31  2  0
 28 29  1  0
 30 26  1  0
M  END
$$$$
