RFD.pdb
     RDKit          3D

 31 31  0  0  1  0  0  0  0  0999 V2000
   20.9594  -29.5717  -17.5173 N   0  0  0  0  0  0  0  0  0  0  0  0
   21.5677  -30.1998  -16.3977 C   0  0  0  0  0  0  0  0  0  0  0  0
   21.5001  -31.4667  -16.2593 N   0  0  0  0  0  0  0  0  0  0  0  0
   22.2781  -29.4242  -15.3874 N   0  0  0  0  0  0  0  0  0  0  0  0
   22.3206  -28.0028  -15.4815 C   0  0  0  0  0  0  0  0  0  0  0  0
   23.2455  -27.4355  -16.4685 C   0  0  0  0  0  0  0  0  0  0  0  0
   23.3725  -25.9842  -16.6399 C   0  0  0  0  0  0  0  0  0  0  0  0
   22.2029  -25.0981  -16.5450 C   0  0  2  0  0  0  0  0  0  0  0  0
   21.4387  -25.2139  -17.8045 N   0  0  0  0  0  0  0  0  0  0  0  0
   22.5930  -23.6504  -16.3840 C   0  0  0  0  0  0  0  0  0  0  0  0
   23.3401  -23.2306  -15.4798 O   0  0  0  0  0  0  0  0  0  0  0  0
   21.9498  -31.9531  -15.4573 N   0  0  0  0  0  0  0  0  0  0  0  0
   22.1057  -22.6653  -17.2930 C   0  0  1  0  0  0  0  0  0  0  0  0
   22.3449  -21.2330  -17.1368 C   0  0  0  0  0  0  0  0  0  0  0  0
   22.0646  -20.5267  -18.4373 C   0  0  0  0  0  0  0  0  0  0  0  0
   22.2924  -19.0936  -18.4638 C   0  0  0  0  0  0  0  0  0  0  0  0
   21.2651  -18.2539  -18.0701 C   0  0  0  0  0  0  0  0  0  0  0  0
   21.4239  -16.8751  -18.0584 C   0  0  0  0  0  0  0  0  0  0  0  0
   22.6091  -16.3148  -18.4390 C   0  0  0  0  0  0  0  0  0  0  0  0
   23.6364  -17.1198  -18.8308 C   0  0  0  0  0  0  0  0  0  0  0  0
   23.4709  -18.4859  -18.8395 C   0  0  0  0  0  0  0  0  0  0  0  0
   21.4545  -20.6559  -16.1031 O   0  0  0  0  0  0  0  0  0  0  0  0
   21.6270  -19.4541  -15.7882 N   0  0  0  0  0  0  0  0  0  0  0  0
   20.4287  -21.3826  -15.4584 C   0  0  1  0  0  0  0  0  0  0  0  0
   19.6956  -20.7329  -14.3938 C   0  0  0  0  0  0  0  0  0  0  0  0
   20.5601  -19.9825  -13.4252 C   0  0  0  0  0  0  0  0  0  0  0  0
   19.7837  -19.0612  -12.5841 O   0  0  0  0  0  0  0  0  0  0  0  0
   18.5414  -19.0238  -12.6861 C   0  0  0  0  0  0  0  0  0  0  0  0
   18.7238  -19.7349  -14.9454 O   0  0  0  0  0  0  0  0  0  0  0  0
   19.0813  -18.7285  -15.8104 O   0  0  0  0  0  0  0  0  0  0  0  0
   20.4062  -18.2298  -11.6760 O   0  0  0  0  0  0  0  0  0  0  0  0
  2  3  2  0
  2  1  1  0
  4  2  1  0
  5  4  1  0
  6  5  1  0
  7  6  1  0
  8  9  1  6
  8 10  1  0
  8  7  1  0
 10 11  2  0
 12 13  1  0
 12 10  1  0
 13 21  1  0
 13 14  1  1
 15 14  1  0
 16 15  2  0
 17 16  1  0
 18 17  2  0
 18 19  1  0
 19 20  2  0
 20 15  1  0
 21 23  1  0
 21 22  2  0
 23 24  1  0
 24 28  1  0
 24 25  1  1
 26 25  1  0
 26 27  2  0
 28 31  2  0
 28 29  1  0
 30 26  1  0
M  END
$$$$
