RFD.pdb
     RDKit          3D

 31 31  0  0  1  0  0  0  0  0999 V2000
   30.8375  -21.5828  -20.6233 N   0  0  0  0  0  0  0  0  0  0  0  0
   29.5835  -21.8349  -21.2414 C   0  0  0  0  0  0  0  0  0  0  0  0
   29.5330  -22.4425  -22.3626 N   0  0  0  0  0  0  0  0  0  0  0  0
   28.3339  -21.4120  -20.6198 N   0  0  0  0  0  0  0  0  0  0  0  0
   28.3542  -20.7643  -19.3505 C   0  0  0  0  0  0  0  0  0  0  0  0
   28.8820  -21.5405  -18.2234 C   0  0  0  0  0  0  0  0  0  0  0  0
   28.0017  -22.0033  -17.1451 C   0  0  0  0  0  0  0  0  0  0  0  0
   27.1456  -21.0666  -16.4022 C   0  0  2  0  0  0  0  0  0  0  0  0
   27.7870  -19.7357  -16.4371 N   0  0  0  0  0  0  0  0  0  0  0  0
   26.9922  -21.4570  -14.9537 C   0  0  0  0  0  0  0  0  0  0  0  0
   26.5257  -22.5486  -14.5761 O   0  0  0  0  0  0  0  0  0  0  0  0
   28.6275  -22.6535  -22.8290 N   0  0  0  0  0  0  0  0  0  0  0  0
   27.3893  -20.5606  -13.9178 C   0  0  1  0  0  0  0  0  0  0  0  0
   27.1754  -20.8224  -12.4970 C   0  0  0  0  0  0  0  0  0  0  0  0
   28.1280  -19.9909  -11.6785 C   0  0  0  0  0  0  0  0  0  0  0  0
   27.9933  -20.0746  -10.2359 C   0  0  0  0  0  0  0  0  0  0  0  0
   27.2115  -19.1330   -9.5896 C   0  0  0  0  0  0  0  0  0  0  0  0
   27.0302  -19.1665   -8.2139 C   0  0  0  0  0  0  0  0  0  0  0  0
   27.6259  -20.1392   -7.4640 C   0  0  0  0  0  0  0  0  0  0  0  0
   28.4005  -21.0783   -8.0764 C   0  0  0  0  0  0  0  0  0  0  0  0
   28.5752  -21.0382   -9.4407 C   0  0  0  0  0  0  0  0  0  0  0  0
   25.7955  -20.4651  -12.0933 O   0  0  0  0  0  0  0  0  0  0  0  0
   25.2348  -19.5219  -12.7009 N   0  0  0  0  0  0  0  0  0  0  0  0
   25.0834  -21.1263  -11.0678 C   0  0  1  0  0  0  0  0  0  0  0  0
   23.7051  -20.7502  -10.8403 C   0  0  0  0  0  0  0  0  0  0  0  0
   22.7752  -21.1320  -11.9531 C   0  0  0  0  0  0  0  0  0  0  0  0
   21.3837  -20.7547  -11.6700 O   0  0  0  0  0  0  0  0  0  0  0  0
   21.1231  -19.6088  -11.2523 C   0  0  0  0  0  0  0  0  0  0  0  0
   23.1687  -21.4064   -9.6049 O   0  0  0  0  0  0  0  0  0  0  0  0
   21.9255  -21.1378   -9.0840 O   0  0  0  0  0  0  0  0  0  0  0  0
   20.3506  -21.6495  -11.8585 O   0  0  0  0  0  0  0  0  0  0  0  0
  2  3  2  0
  2  1  1  0
  4  2  1  0
  5  4  1  0
  6  5  1  0
  7  6  1  0
  8  9  1  1
  8 10  1  0
  8  7  1  0
 10 11  2  0
 12 13  1  0
 12 10  1  0
 13 21  1  0
 13 14  1  1
 15 14  1  0
 16 15  2  0
 17 16  1  0
 18 17  2  0
 18 19  1  0
 19 20  2  0
 20 15  1  0
 21 23  1  0
 21 22  2  0
 23 24  1  0
 24 28  1  0
 24 25  1  1
 26 25  1  0
 26 27  2  0
 28 31  2  0
 28 29  1  0
 30 26  1  0
M  END
$$$$
