RFD.pdb
     RDKit          3D

 31 31  0  0  1  0  0  0  0  0999 V2000
   28.8665  -17.3593  -18.3558 N   0  0  0  0  0  0  0  0  0  0  0  0
   28.4639  -18.5782  -17.7474 C   0  0  0  0  0  0  0  0  0  0  0  0
   28.8465  -19.6940  -18.2347 N   0  0  0  0  0  0  0  0  0  0  0  0
   27.6128  -18.5889  -16.5632 N   0  0  0  0  0  0  0  0  0  0  0  0
   28.0603  -19.2294  -15.3712 C   0  0  0  0  0  0  0  0  0  0  0  0
   28.4404  -18.3550  -14.2566 C   0  0  0  0  0  0  0  0  0  0  0  0
   27.6851  -18.3601  -12.9992 C   0  0  0  0  0  0  0  0  0  0  0  0
   26.6050  -19.3290  -12.7603 C   0  0  2  0  0  0  0  0  0  0  0  0
   25.3251  -18.5906  -12.7411 N   0  0  0  0  0  0  0  0  0  0  0  0
   26.7452  -20.0262  -11.4306 C   0  0  0  0  0  0  0  0  0  0  0  0
   27.6407  -20.8530  -11.1728 O   0  0  0  0  0  0  0  0  0  0  0  0
   29.4314  -19.7429  -19.0934 N   0  0  0  0  0  0  0  0  0  0  0  0
   25.8255  -19.7585  -10.3739 C   0  0  1  0  0  0  0  0  0  0  0  0
   25.8724  -20.4232   -9.0742 C   0  0  0  0  0  0  0  0  0  0  0  0
   25.9750  -19.3926   -7.9804 C   0  0  0  0  0  0  0  0  0  0  0  0
   27.0370  -19.5763   -7.0084 C   0  0  0  0  0  0  0  0  0  0  0  0
   27.8963  -18.5200   -6.7611 C   0  0  0  0  0  0  0  0  0  0  0  0
   28.9227  -18.6262   -5.8328 C   0  0  0  0  0  0  0  0  0  0  0  0
   29.1063  -19.7871   -5.1386 C   0  0  0  0  0  0  0  0  0  0  0  0
   28.2737  -20.8421   -5.3636 C   0  0  0  0  0  0  0  0  0  0  0  0
   27.2583  -20.7286   -6.2856 C   0  0  0  0  0  0  0  0  0  0  0  0
   24.6439  -21.2168   -8.8392 O   0  0  0  0  0  0  0  0  0  0  0  0
   24.6971  -22.1383   -7.9900 N   0  0  0  0  0  0  0  0  0  0  0  0
   23.4245  -20.9917   -9.5163 C   0  0  2  0  0  0  0  0  0  0  0  0
   22.2917  -21.8269   -9.1811 C   0  0  0  0  0  0  0  0  0  0  0  0
   22.0192  -21.9263   -7.7098 C   0  0  0  0  0  0  0  0  0  0  0  0
   20.9911  -22.9296   -7.4007 O   0  0  0  0  0  0  0  0  0  0  0  0
   20.7625  -23.8538   -8.2061 C   0  0  0  0  0  0  0  0  0  0  0  0
   21.0354  -21.2990   -9.8034 O   0  0  0  0  0  0  0  0  0  0  0  0
   19.8219  -21.9388   -9.7186 O   0  0  0  0  0  0  0  0  0  0  0  0
   20.2674  -22.8696   -6.2276 O   0  0  0  0  0  0  0  0  0  0  0  0
  2  3  2  0
  2  1  1  0
  4  2  1  0
  5  4  1  0
  6  5  1  0
  7  6  1  0
  8  9  1  1
  8 10  1  0
  8  7  1  0
 10 11  2  0
 12 13  1  0
 12 10  1  0
 13 21  1  0
 13 14  1  6
 15 14  1  0
 16 15  2  0
 17 16  1  0
 18 17  2  0
 18 19  1  0
 19 20  2  0
 20 15  1  0
 21 23  1  0
 21 22  2  0
 23 24  1  0
 24 28  1  0
 24 25  1  6
 26 25  1  0
 26 27  2  0
 28 31  2  0
 28 29  1  0
 30 26  1  0
M  END
$$$$
