RFD.pdb
     RDKit          3D

 31 31  0  0  1  0  0  0  0  0999 V2000
   31.1068  -23.7486  -16.1676 N   0  0  0  0  0  0  0  0  0  0  0  0
   30.0617  -23.9886  -17.0994 C   0  0  0  0  0  0  0  0  0  0  0  0
   29.8840  -25.1597  -17.5745 N   0  0  0  0  0  0  0  0  0  0  0  0
   29.1730  -22.9170  -17.5337 N   0  0  0  0  0  0  0  0  0  0  0  0
   29.1114  -21.7002  -16.7942 C   0  0  0  0  0  0  0  0  0  0  0  0
   29.3548  -21.7937  -15.3508 C   0  0  0  0  0  0  0  0  0  0  0  0
   28.2424  -21.9108  -14.4019 C   0  0  0  0  0  0  0  0  0  0  0  0
   27.0231  -21.1023  -14.5500 C   0  0  2  0  0  0  0  0  0  0  0  0
   27.3714  -19.6944  -14.2669 N   0  0  0  0  0  0  0  0  0  0  0  0
   25.9461  -21.5068  -13.5751 C   0  0  0  0  0  0  0  0  0  0  0  0
   25.5403  -22.6765  -13.4370 O   0  0  0  0  0  0  0  0  0  0  0  0
   29.1269  -25.3625  -18.2583 N   0  0  0  0  0  0  0  0  0  0  0  0
   25.3245  -20.5321  -12.7397 C   0  0  1  0  0  0  0  0  0  0  0  0
   24.2758  -20.8471  -11.7732 C   0  0  0  0  0  0  0  0  0  0  0  0
   24.3553  -19.8941  -10.6094 C   0  0  0  0  0  0  0  0  0  0  0  0
   25.3646  -20.1738   -9.6048 C   0  0  0  0  0  0  0  0  0  0  0  0
   26.0572  -19.1115   -9.0504 C   0  0  0  0  0  0  0  0  0  0  0  0
   27.0241  -19.3104   -8.0746 C   0  0  0  0  0  0  0  0  0  0  0  0
   27.3135  -20.5710   -7.6384 C   0  0  0  0  0  0  0  0  0  0  0  0
   26.6456  -21.6341   -8.1682 C   0  0  0  0  0  0  0  0  0  0  0  0
   25.6883  -21.4284   -9.1352 C   0  0  0  0  0  0  0  0  0  0  0  0
   22.9330  -20.7105  -12.3836 O   0  0  0  0  0  0  0  0  0  0  0  0
   22.7678  -19.8047  -13.2353 N   0  0  0  0  0  0  0  0  0  0  0  0
   21.8370  -21.5410  -12.0593 C   0  0  2  0  0  0  0  0  0  0  0  0
   20.5812  -21.3131  -12.7405 C   0  0  0  0  0  0  0  0  0  0  0  0
   19.6863  -22.5153  -12.7917 C   0  0  0  0  0  0  0  0  0  0  0  0
   18.3798  -22.2116  -13.3917 O   0  0  0  0  0  0  0  0  0  0  0  0
   18.1510  -21.0696  -13.8375 C   0  0  0  0  0  0  0  0  0  0  0  0
   19.7929  -20.2348  -12.0621 O   0  0  0  0  0  0  0  0  0  0  0  0
   18.9109  -19.4128  -12.7219 O   0  0  0  0  0  0  0  0  0  0  0  0
   17.3927  -23.1720  -13.4726 O   0  0  0  0  0  0  0  0  0  0  0  0
  2  3  2  0
  2  1  1  0
  4  2  1  0
  5  4  1  0
  6  5  1  0
  7  6  1  0
  8  9  1  1
  8 10  1  0
  8  7  1  0
 10 11  2  0
 12 13  1  0
 12 10  1  0
 13 21  1  0
 13 14  1  6
 15 14  1  0
 16 15  2  0
 17 16  1  0
 18 17  2  0
 18 19  1  0
 19 20  2  0
 20 15  1  0
 21 23  1  0
 21 22  2  0
 23 24  1  0
 24 28  1  0
 24 25  1  1
 26 25  1  0
 26 27  2  0
 28 31  2  0
 28 29  1  0
 30 26  1  0
M  END
$$$$
