RFD.pdb
     RDKit          3D

 31 31  0  0  1  0  0  0  0  0999 V2000
   26.5481  -18.2211  -17.5668 N   0  0  0  0  0  0  0  0  0  0  0  0
   26.9078  -16.9310  -17.0933 C   0  0  0  0  0  0  0  0  0  0  0  0
   26.4408  -15.8875  -17.6607 N   0  0  0  0  0  0  0  0  0  0  0  0
   27.8095  -16.7645  -15.9593 N   0  0  0  0  0  0  0  0  0  0  0  0
   28.1309  -17.8823  -15.1357 C   0  0  0  0  0  0  0  0  0  0  0  0
   27.0772  -18.8849  -14.9458 C   0  0  0  0  0  0  0  0  0  0  0  0
   26.8439  -19.4982  -13.6339 C   0  0  0  0  0  0  0  0  0  0  0  0
   27.7555  -20.5178  -13.0939 C   0  0  2  0  0  0  0  0  0  0  0  0
   27.7719  -21.6590  -14.0326 N   0  0  0  0  0  0  0  0  0  0  0  0
   27.3009  -21.0404  -11.7543 C   0  0  0  0  0  0  0  0  0  0  0  0
   26.3626  -21.8467  -11.6073 O   0  0  0  0  0  0  0  0  0  0  0  0
   26.6780  -14.9316  -17.3262 N   0  0  0  0  0  0  0  0  0  0  0  0
   27.9496  -20.6187  -10.5562 C   0  0  2  0  0  0  0  0  0  0  0  0
   27.4192  -20.8701   -9.2188 C   0  0  0  0  0  0  0  0  0  0  0  0
   28.3505  -20.2910   -8.1862 C   0  0  0  0  0  0  0  0  0  0  0  0
   27.9305  -20.3893   -6.8005 C   0  0  0  0  0  0  0  0  0  0  0  0
   27.4255  -19.2592   -6.1814 C   0  0  0  0  0  0  0  0  0  0  0  0
   26.9928  -19.2906   -4.8630 C   0  0  0  0  0  0  0  0  0  0  0  0
   27.0579  -20.4490   -4.1439 C   0  0  0  0  0  0  0  0  0  0  0  0
   27.5511  -21.5758   -4.7305 C   0  0  0  0  0  0  0  0  0  0  0  0
   27.9779  -21.5364   -6.0381 C   0  0  0  0  0  0  0  0  0  0  0  0
   26.0931  -20.2330   -9.0454 O   0  0  0  0  0  0  0  0  0  0  0  0
   26.0414  -18.9798   -9.0540 N   0  0  0  0  0  0  0  0  0  0  0  0
   24.8927  -20.9575   -8.8723 C   0  0  1  0  0  0  0  0  0  0  0  0
   23.6498  -20.2190   -8.8183 C   0  0  0  0  0  0  0  0  0  0  0  0
   23.1607  -19.7463  -10.1547 C   0  0  0  0  0  0  0  0  0  0  0  0
   22.4604  -20.8035  -10.8970 O   0  0  0  0  0  0  0  0  0  0  0  0
   22.3439  -21.9405  -10.3980 C   0  0  0  0  0  0  0  0  0  0  0  0
   22.5513  -21.0619   -8.2463 O   0  0  0  0  0  0  0  0  0  0  0  0
   21.2548  -20.6261   -8.1114 O   0  0  0  0  0  0  0  0  0  0  0  0
   21.9244  -20.5620  -12.1451 O   0  0  0  0  0  0  0  0  0  0  0  0
  2  3  2  0
  2  1  1  0
  4  2  1  0
  5  4  1  0
  6  5  1  0
  7  6  1  0
  8  9  1  6
  8 10  1  0
  8  7  1  0
 10 11  2  0
 12 13  1  0
 12 10  1  0
 13 21  1  0
 13 14  1  1
 15 14  1  0
 16 15  2  0
 17 16  1  0
 18 17  2  0
 18 19  1  0
 19 20  2  0
 20 15  1  0
 21 23  1  0
 21 22  2  0
 23 24  1  0
 24 28  1  0
 24 25  1  1
 26 25  1  0
 26 27  2  0
 28 31  2  0
 28 29  1  0
 30 26  1  0
M  END
$$$$
