RFD.pdb
     RDKit          3D

 31 31  0  0  1  0  0  0  0  0999 V2000
   27.5456  -19.7561  -17.1551 N   0  0  0  0  0  0  0  0  0  0  0  0
   28.1096  -18.5487  -16.6630 C   0  0  0  0  0  0  0  0  0  0  0  0
   28.2656  -17.5505  -17.4427 N   0  0  0  0  0  0  0  0  0  0  0  0
   28.5210  -18.4173  -15.2701 N   0  0  0  0  0  0  0  0  0  0  0  0
   28.1542  -19.4167  -14.3226 C   0  0  0  0  0  0  0  0  0  0  0  0
   29.1946  -20.3788  -13.9440 C   0  0  0  0  0  0  0  0  0  0  0  0
   28.9088  -21.4746  -13.0116 C   0  0  0  0  0  0  0  0  0  0  0  0
   29.2017  -21.3524  -11.5758 C   0  0  2  0  0  0  0  0  0  0  0  0
   30.2759  -22.3120  -11.2455 N   0  0  0  0  0  0  0  0  0  0  0  0
   28.0100  -21.6942  -10.7173 C   0  0  0  0  0  0  0  0  0  0  0  0
   27.6285  -22.8589  -10.4936 O   0  0  0  0  0  0  0  0  0  0  0  0
   28.6248  -16.6378  -17.0962 N   0  0  0  0  0  0  0  0  0  0  0  0
   27.2420  -20.6613  -10.1030 C   0  0  2  0  0  0  0  0  0  0  0  0
   25.8987  -20.8636   -9.5665 C   0  0  0  0  0  0  0  0  0  0  0  0
   25.8590  -20.4362   -8.1227 C   0  0  0  0  0  0  0  0  0  0  0  0
   27.1154  -20.0117   -7.5331 C   0  0  0  0  0  0  0  0  0  0  0  0
   28.2015  -20.8663   -7.6059 C   0  0  0  0  0  0  0  0  0  0  0  0
   29.4346  -20.5137   -7.0751 C   0  0  0  0  0  0  0  0  0  0  0  0
   29.6014  -19.3044   -6.4644 C   0  0  0  0  0  0  0  0  0  0  0  0
   28.5475  -18.4447   -6.3796 C   0  0  0  0  0  0  0  0  0  0  0  0
   27.3283  -18.8017   -6.9086 C   0  0  0  0  0  0  0  0  0  0  0  0
   24.9035  -20.0555  -10.3089 O   0  0  0  0  0  0  0  0  0  0  0  0
   25.3222  -19.0727  -10.9661 N   0  0  0  0  0  0  0  0  0  0  0  0
   23.5181  -20.3320  -10.3155 C   0  0  1  0  0  0  0  0  0  0  0  0
   22.8123  -20.2602  -11.5764 C   0  0  0  0  0  0  0  0  0  0  0  0
   23.3394  -21.1923  -12.6262 C   0  0  0  0  0  0  0  0  0  0  0  0
   22.5580  -21.1300  -13.8690 O   0  0  0  0  0  0  0  0  0  0  0  0
   22.3422  -20.0287  -14.4129 C   0  0  0  0  0  0  0  0  0  0  0  0
   21.3654  -20.6062  -11.3997 O   0  0  0  0  0  0  0  0  0  0  0  0
   20.3832  -20.2276  -12.2835 O   0  0  0  0  0  0  0  0  0  0  0  0
   22.0539  -22.2745  -14.4516 O   0  0  0  0  0  0  0  0  0  0  0  0
  2  3  2  0
  2  1  1  0
  4  2  1  0
  5  4  1  0
  6  5  1  0
  7  6  1  0
  8  9  1  1
  8 10  1  0
  8  7  1  0
 10 11  2  0
 12 13  1  0
 12 10  1  0
 13 21  1  0
 13 14  1  1
 15 14  1  0
 16 15  2  0
 17 16  1  0
 18 17  2  0
 18 19  1  0
 19 20  2  0
 20 15  1  0
 21 23  1  0
 21 22  2  0
 23 24  1  0
 24 28  1  0
 24 25  1  1
 26 25  1  0
 26 27  2  0
 28 31  2  0
 28 29  1  0
 30 26  1  0
M  END
$$$$
