RFD.pdb
     RDKit          3D

 31 31  0  0  1  0  0  0  0  0999 V2000
   25.0262  -19.1493  -19.3279 N   0  0  0  0  0  0  0  0  0  0  0  0
   25.4466  -19.7732  -20.5329 C   0  0  0  0  0  0  0  0  0  0  0  0
   26.2268  -19.1581  -21.3340 N   0  0  0  0  0  0  0  0  0  0  0  0
   25.0044  -21.1178  -20.8841 N   0  0  0  0  0  0  0  0  0  0  0  0
   24.1543  -21.8413  -19.9980 C   0  0  0  0  0  0  0  0  0  0  0  0
   24.7655  -22.9506  -19.2582 C   0  0  0  0  0  0  0  0  0  0  0  0
   24.6742  -23.0264  -17.7961 C   0  0  0  0  0  0  0  0  0  0  0  0
   25.4386  -22.1126  -16.9343 C   0  0  2  0  0  0  0  0  0  0  0  0
   26.8411  -22.5773  -16.9061 N   0  0  0  0  0  0  0  0  0  0  0  0
   24.9343  -22.1099  -15.5131 C   0  0  0  0  0  0  0  0  0  0  0  0
   24.8382  -23.1340  -14.8101 O   0  0  0  0  0  0  0  0  0  0  0  0
   26.4743  -19.5512  -22.2647 N   0  0  0  0  0  0  0  0  0  0  0  0
   24.5319  -20.8910  -14.8914 C   0  0  2  0  0  0  0  0  0  0  0  0
   24.0027  -20.8135  -13.5323 C   0  0  0  0  0  0  0  0  0  0  0  0
   24.9430  -20.0172  -12.6660 C   0  0  0  0  0  0  0  0  0  0  0  0
   26.2677  -19.7640  -13.2021 C   0  0  0  0  0  0  0  0  0  0  0  0
   26.4585  -18.6420  -13.9895 C   0  0  0  0  0  0  0  0  0  0  0  0
   27.7039  -18.3354  -14.5200 C   0  0  0  0  0  0  0  0  0  0  0  0
   28.7760  -19.1433  -14.2726 C   0  0  0  0  0  0  0  0  0  0  0  0
   28.6146  -20.2542  -13.5001 C   0  0  0  0  0  0  0  0  0  0  0  0
   27.3765  -20.5511  -12.9778 C   0  0  0  0  0  0  0  0  0  0  0  0
   22.6840  -20.1390  -13.5139 O   0  0  0  0  0  0  0  0  0  0  0  0
   22.4171  -19.3520  -14.4534 N   0  0  0  0  0  0  0  0  0  0  0  0
   21.7183  -20.3344  -12.5014 C   0  0  2  0  0  0  0  0  0  0  0  0
   20.3253  -20.3954  -12.8874 C   0  0  0  0  0  0  0  0  0  0  0  0
   20.1045  -20.7547  -14.3265 C   0  0  0  0  0  0  0  0  0  0  0  0
   18.6825  -20.7271  -14.6953 O   0  0  0  0  0  0  0  0  0  0  0  0
   18.0936  -19.6348  -14.8192 C   0  0  0  0  0  0  0  0  0  0  0  0
   19.5921  -21.4249  -12.0831 O   0  0  0  0  0  0  0  0  0  0  0  0
   20.2170  -22.3146  -11.2423 O   0  0  0  0  0  0  0  0  0  0  0  0
   17.9794  -21.8947  -14.9092 O   0  0  0  0  0  0  0  0  0  0  0  0
  2  3  2  0
  2  1  1  0
  4  2  1  0
  5  4  1  0
  6  5  1  0
  7  6  1  0
  8  9  1  1
  8 10  1  0
  8  7  1  0
 10 11  2  0
 12 13  1  0
 12 10  1  0
 13 21  1  0
 13 14  1  6
 15 14  1  0
 16 15  2  0
 17 16  1  0
 18 17  2  0
 18 19  1  0
 19 20  2  0
 20 15  1  0
 21 23  1  0
 21 22  2  0
 23 24  1  0
 24 28  1  0
 24 25  1  1
 26 25  1  0
 26 27  2  0
 28 31  2  0
 28 29  1  0
 30 26  1  0
M  END
$$$$
