YET.pdb
     RDKit          3D

 29 29  0  0  1  0  0  0  0  0999 V2000
    9.3714  -11.9151   19.7935 O   0  0  0  0  0  0  0  0  0  0  0  0
    8.4818  -12.8976   20.2304 C   0  0  0  0  0  0  0  0  0  0  0  0
    8.0702  -13.8544   19.3202 C   0  0  0  0  0  0  0  0  0  0  0  0
    7.1892  -14.8216   19.7660 C   0  0  0  0  0  0  0  0  0  0  0  0
    6.7581  -14.8037   21.0718 C   0  0  0  0  0  0  0  0  0  0  0  0
    5.8138  -15.8594   21.5073 C   0  0  0  0  0  0  0  0  0  0  0  0
    6.5648  -17.1974   21.4572 C   0  0  2  0  0  0  0  0  0  0  0  0
    5.5919  -18.2443   21.5606 N   0  0  0  0  0  0  0  0  0  0  0  0
    7.5211  -17.1773   22.5825 C   0  0  0  0  0  0  0  0  0  0  0  0
    7.0551  -17.1553   23.7483 O   0  0  0  0  0  0  0  0  0  0  0  0
    7.1838  -13.8441   21.9467 C   0  0  0  0  0  0  0  0  0  0  0  0
    8.0570  -12.8710   21.5369 C   0  0  0  0  0  0  0  0  0  0  0  0
    8.9321  -17.1811   22.4299 N   0  0  0  0  0  0  0  0  0  0  0  0
    9.8447  -17.1611   23.5549 C   0  0  1  0  0  0  0  0  0  0  0  0
   11.2433  -17.3798   22.9832 C   0  0  0  0  0  0  0  0  0  0  0  0
   12.2726  -17.4228   24.0900 C   0  0  0  0  0  0  0  0  0  0  0  0
   13.6028  -17.6321   23.4957 C   0  0  0  0  0  0  0  0  0  0  0  0
   14.4772  -16.7460   23.6088 O   0  0  0  0  0  0  0  0  0  0  0  0
    9.7985  -15.9058   24.3094 C   0  0  0  0  0  0  0  0  0  0  0  0
    9.9615  -14.8061   23.7239 O   0  0  0  0  0  0  0  0  0  0  0  0
   13.9442  -18.7824   22.8036 O   0  0  0  0  0  0  0  0  0  0  0  0
    8.2460  -12.8721   27.4191 C   0  0  0  0  0  0  0  0  0  0  0  0
    8.2481  -14.1343   26.6077 C   0  0  1  0  0  0  0  0  0  0  0  0
    7.7494  -13.8245   25.3452 O   0  0  0  0  0  0  0  0  0  0  0  0
    9.6387  -14.7417   26.5187 C   0  0  2  0  0  0  0  0  0  0  0  0
    9.5677  -15.9368   25.7111 N   0  0  0  0  0  0  0  0  0  0  0  0
   10.0295  -15.1072   27.9243 C   0  0  0  0  0  0  0  0  0  0  0  0
   10.1675  -14.2159   28.7881 O   0  0  0  0  0  0  0  0  0  0  0  0
   10.2409  -16.4318   28.2788 O   0  0  0  0  0  0  0  0  0  0  0  0
  2  1  1  0
  2  3  2  0
  4  3  1  0
  5  4  2  0
  6  5  1  0
  7  8  1  1
  7  6  1  0
  9  7  1  0
 10  9  2  0
 11 12  2  0
 11  5  1  0
 12  2  1  0
 13  9  1  0
 14 13  1  0
 15 16  1  0
 14 15  1  6
 16 17  1  0
 17 21  1  0
 17 18  2  0
 19 14  1  0
 19 26  1  0
 20 19  2  0
 23 22  1  1
 23 24  1  0
 25 23  1  0
 25 27  1  0
 25 26  1  6
 27 29  1  0
 28 27  2  0
M  END
$$$$
