YET.pdb
     RDKit          3D

 29 29  0  0  1  0  0  0  0  0999 V2000
    8.5971  -12.7696   17.4556 O   0  0  0  0  0  0  0  0  0  0  0  0
    8.1108  -13.3104   18.6467 C   0  0  0  0  0  0  0  0  0  0  0  0
    7.4945  -12.4579   19.5449 C   0  0  0  0  0  0  0  0  0  0  0  0
    7.0175  -13.0064   20.7205 C   0  0  0  0  0  0  0  0  0  0  0  0
    7.1667  -14.3530   20.9561 C   0  0  0  0  0  0  0  0  0  0  0  0
    6.6405  -14.8990   22.2294 C   0  0  0  0  0  0  0  0  0  0  0  0
    6.9227  -16.4080   22.2341 C   0  0  2  0  0  0  0  0  0  0  0  0
    5.6681  -17.0827   22.3882 N   0  0  0  0  0  0  0  0  0  0  0  0
    7.8562  -16.6506   23.3527 C   0  0  0  0  0  0  0  0  0  0  0  0
    7.3718  -16.7770   24.5043 O   0  0  0  0  0  0  0  0  0  0  0  0
    7.7807  -15.1688   20.0479 C   0  0  0  0  0  0  0  0  0  0  0  0
    8.2648  -14.6570   18.8728 C   0  0  0  0  0  0  0  0  0  0  0  0
    9.2645  -16.7498   23.2086 N   0  0  0  0  0  0  0  0  0  0  0  0
   10.1493  -17.0473   24.3166 C   0  0  1  0  0  0  0  0  0  0  0  0
   11.4768  -17.4887   23.7056 C   0  0  0  0  0  0  0  0  0  0  0  0
   12.4660  -17.8600   24.7872 C   0  0  0  0  0  0  0  0  0  0  0  0
   13.7173  -18.3084   24.1550 C   0  0  0  0  0  0  0  0  0  0  0  0
   14.1259  -19.4736   24.3499 O   0  0  0  0  0  0  0  0  0  0  0  0
   10.3593  -15.9025   25.2069 C   0  0  0  0  0  0  0  0  0  0  0  0
   10.7636  -14.8055   24.7467 O   0  0  0  0  0  0  0  0  0  0  0  0
   14.4818  -17.4911   23.3387 O   0  0  0  0  0  0  0  0  0  0  0  0
    8.4747  -13.5037   26.6222 C   0  0  0  0  0  0  0  0  0  0  0  0
    8.9674  -14.2900   27.8014 C   0  0  1  0  0  0  0  0  0  0  0  0
    7.9968  -15.2392   28.1102 O   0  0  0  0  0  0  0  0  0  0  0  0
   10.3098  -14.9444   27.5180 C   0  0  2  0  0  0  0  0  0  0  0  0
   10.1031  -16.0382   26.5979 N   0  0  0  0  0  0  0  0  0  0  0  0
   10.8031  -15.4806   28.8338 C   0  0  0  0  0  0  0  0  0  0  0  0
   10.8354  -16.7126   29.0358 O   0  0  0  0  0  0  0  0  0  0  0  0
   11.2267  -14.6191   29.8354 O   0  0  0  0  0  0  0  0  0  0  0  0
  2  1  1  0
  2  3  2  0
  4  3  1  0
  5  4  2  0
  6  5  1  0
  7  8  1  1
  7  6  1  0
  9  7  1  0
 10  9  2  0
 11 12  2  0
 11  5  1  0
 12  2  1  0
 13  9  1  0
 14 13  1  0
 15 16  1  0
 14 15  1  6
 16 17  1  0
 17 21  1  0
 17 18  2  0
 19 14  1  0
 19 26  1  0
 20 19  2  0
 23 22  1  6
 23 24  1  0
 25 23  1  0
 25 27  1  0
 25 26  1  6
 27 29  1  0
 28 27  2  0
M  END
$$$$
