YET.pdb
     RDKit          3D

 29 29  0  0  1  0  0  0  0  0999 V2000
    7.4646  -12.0301   17.3009 O   0  0  0  0  0  0  0  0  0  0  0  0
    7.6226  -12.7056   18.5118 C   0  0  0  0  0  0  0  0  0  0  0  0
    8.8444  -12.6140   19.1538 C   0  0  0  0  0  0  0  0  0  0  0  0
    8.9874  -13.2877   20.3521 C   0  0  0  0  0  0  0  0  0  0  0  0
    7.9342  -14.0124   20.8585 C   0  0  0  0  0  0  0  0  0  0  0  0
    8.1311  -14.7192   22.1461 C   0  0  0  0  0  0  0  0  0  0  0  0
    8.7319  -16.0956   21.8279 C   0  0  2  0  0  0  0  0  0  0  0  0
    7.6862  -16.9088   21.2818 N   0  0  0  0  0  0  0  0  0  0  0  0
    9.2704  -16.6161   23.1009 C   0  0  0  0  0  0  0  0  0  0  0  0
    8.4516  -16.9334   23.9984 O   0  0  0  0  0  0  0  0  0  0  0  0
    6.7391  -14.0831   20.1995 C   0  0  0  0  0  0  0  0  0  0  0  0
    6.5643  -13.4270   19.0094 C   0  0  0  0  0  0  0  0  0  0  0  0
   10.6534  -16.7801   23.3738 N   0  0  0  0  0  0  0  0  0  0  0  0
   11.1500  -17.3119   24.6266 C   0  0  1  0  0  0  0  0  0  0  0  0
   12.4625  -18.0230   24.3064 C   0  0  0  0  0  0  0  0  0  0  0  0
   13.0715  -18.6108   25.5594 C   0  0  0  0  0  0  0  0  0  0  0  0
   14.3622  -19.2298   25.2166 C   0  0  0  0  0  0  0  0  0  0  0  0
   15.4268  -18.6609   25.5416 O   0  0  0  0  0  0  0  0  0  0  0  0
   11.3705  -16.2785   25.6418 C   0  0  0  0  0  0  0  0  0  0  0  0
   12.1766  -15.3388   25.4274 O   0  0  0  0  0  0  0  0  0  0  0  0
   14.4619  -20.4338   24.5391 O   0  0  0  0  0  0  0  0  0  0  0  0
    9.6059  -13.5227   26.8501 C   0  0  0  0  0  0  0  0  0  0  0  0
    9.6727  -14.4693   28.0124 C   0  0  1  0  0  0  0  0  0  0  0  0
    8.4904  -15.2045   28.0257 O   0  0  0  0  0  0  0  0  0  0  0  0
   10.8877  -15.3787   27.9263 C   0  0  2  0  0  0  0  0  0  0  0  0
   10.6666  -16.3432   26.8744 N   0  0  0  0  0  0  0  0  0  0  0  0
   10.9770  -16.0889   29.2491 C   0  0  0  0  0  0  0  0  0  0  0  0
   10.7470  -17.3144   29.3190 O   0  0  0  0  0  0  0  0  0  0  0  0
   11.3141  -15.3965   30.4031 O   0  0  0  0  0  0  0  0  0  0  0  0
  2  1  1  0
  2  3  2  0
  4  3  1  0
  5  4  2  0
  6  5  1  0
  7  8  1  1
  7  6  1  0
  9  7  1  0
 10  9  2  0
 11 12  2  0
 11  5  1  0
 12  2  1  0
 13  9  1  0
 14 13  1  0
 15 16  1  0
 14 15  1  6
 16 17  1  0
 17 21  1  0
 17 18  2  0
 19 14  1  0
 19 26  1  0
 20 19  2  0
 23 22  1  6
 23 24  1  0
 25 23  1  0
 25 27  1  0
 25 26  1  6
 27 29  1  0
 28 27  2  0
M  END
$$$$
