YET.pdb
     RDKit          3D

 29 29  0  0  1  0  0  0  0  0999 V2000
    7.0498  -12.3918   17.3913 O   0  0  0  0  0  0  0  0  0  0  0  0
    7.3413  -12.9945   18.6158 C   0  0  0  0  0  0  0  0  0  0  0  0
    8.6631  -13.0395   19.0210 C   0  0  0  0  0  0  0  0  0  0  0  0
    8.9378  -13.6391   20.2356 C   0  0  0  0  0  0  0  0  0  0  0  0
    7.9116  -14.1613   20.9875 C   0  0  0  0  0  0  0  0  0  0  0  0
    8.2513  -14.7952   22.2833 C   0  0  0  0  0  0  0  0  0  0  0  0
    8.9157  -16.1444   21.9750 C   0  0  2  0  0  0  0  0  0  0  0  0
    7.8837  -17.0535   21.5733 N   0  0  0  0  0  0  0  0  0  0  0  0
    9.6069  -16.5574   23.2132 C   0  0  0  0  0  0  0  0  0  0  0  0
    8.9041  -16.9764   24.1656 O   0  0  0  0  0  0  0  0  0  0  0  0
    6.6155  -14.1009   20.5588 C   0  0  0  0  0  0  0  0  0  0  0  0
    6.3090  -13.5133   19.3597 C   0  0  0  0  0  0  0  0  0  0  0  0
   11.0136  -16.5108   23.3945 N   0  0  0  0  0  0  0  0  0  0  0  0
   11.6639  -16.9431   24.6149 C   0  0  1  0  0  0  0  0  0  0  0  0
   13.1066  -17.2764   24.2434 C   0  0  0  0  0  0  0  0  0  0  0  0
   13.1554  -18.4429   23.2826 C   0  0  0  0  0  0  0  0  0  0  0  0
   14.5592  -18.7139   22.9330 C   0  0  0  0  0  0  0  0  0  0  0  0
   15.1378  -19.7080   23.4226 O   0  0  0  0  0  0  0  0  0  0  0  0
   11.6363  -15.9276   25.6709 C   0  0  0  0  0  0  0  0  0  0  0  0
   12.4732  -14.9903   25.6731 O   0  0  0  0  0  0  0  0  0  0  0  0
   15.2884  -17.9095   22.0728 O   0  0  0  0  0  0  0  0  0  0  0  0
    9.3055  -13.3262   26.6491 C   0  0  0  0  0  0  0  0  0  0  0  0
    9.3409  -14.3085   27.7828 C   0  0  1  0  0  0  0  0  0  0  0  0
    8.2475  -15.1583   27.6385 O   0  0  0  0  0  0  0  0  0  0  0  0
   10.6461  -15.0873   27.8097 C   0  0  2  0  0  0  0  0  0  0  0  0
   10.6560  -16.0069   26.6964 N   0  0  0  0  0  0  0  0  0  0  0  0
   10.6490  -15.8599   29.1002 C   0  0  0  0  0  0  0  0  0  0  0  0
   10.8176  -15.2660   30.1857 O   0  0  0  0  0  0  0  0  0  0  0  0
   10.4655  -17.2351   29.1024 O   0  0  0  0  0  0  0  0  0  0  0  0
  2  1  1  0
  2  3  2  0
  4  3  1  0
  5  4  2  0
  6  5  1  0
  7  8  1  1
  7  6  1  0
  9  7  1  0
 10  9  2  0
 11 12  2  0
 11  5  1  0
 12  2  1  0
 13  9  1  0
 14 13  1  0
 15 16  1  0
 14 15  1  6
 16 17  1  0
 17 21  1  0
 17 18  2  0
 19 14  1  0
 19 26  1  0
 20 19  2  0
 23 22  1  6
 23 24  1  0
 25 23  1  0
 25 27  1  0
 25 26  1  6
 27 29  1  0
 28 27  2  0
M  END
$$$$
