YET.pdb
     RDKit          3D

 29 29  0  0  1  0  0  0  0  0999 V2000
    7.0747  -11.9158   16.8373 O   0  0  0  0  0  0  0  0  0  0  0  0
    7.4249  -12.6914   17.9434 C   0  0  0  0  0  0  0  0  0  0  0  0
    6.4594  -13.5157   18.4926 C   0  0  0  0  0  0  0  0  0  0  0  0
    6.8196  -14.2784   19.5876 C   0  0  0  0  0  0  0  0  0  0  0  0
    8.0983  -14.1964   20.0866 C   0  0  0  0  0  0  0  0  0  0  0  0
    8.4415  -15.0316   21.2618 C   0  0  0  0  0  0  0  0  0  0  0  0
    9.0061  -16.3580   20.7340 C   0  0  2  0  0  0  0  0  0  0  0  0
    7.9273  -17.0743   20.1205 N   0  0  0  0  0  0  0  0  0  0  0  0
    9.5801  -17.0569   21.9017 C   0  0  0  0  0  0  0  0  0  0  0  0
    8.7883  -17.4824   22.7785 O   0  0  0  0  0  0  0  0  0  0  0  0
    9.0296  -13.3717   19.5209 C   0  0  0  0  0  0  0  0  0  0  0  0
    8.7051  -12.6024   18.4346 C   0  0  0  0  0  0  0  0  0  0  0  0
   10.9685  -17.2777   22.0955 N   0  0  0  0  0  0  0  0  0  0  0  0
   11.5018  -17.9587   23.2578 C   0  0  1  0  0  0  0  0  0  0  0  0
   12.9950  -18.1482   23.0026 C   0  0  0  0  0  0  0  0  0  0  0  0
   13.6471  -18.8727   24.1585 C   0  0  0  0  0  0  0  0  0  0  0  0
   15.0824  -19.0302   23.8734 C   0  0  0  0  0  0  0  0  0  0  0  0
   15.8893  -18.1570   24.2597 O   0  0  0  0  0  0  0  0  0  0  0  0
   11.2929  -17.2167   24.5040 C   0  0  0  0  0  0  0  0  0  0  0  0
   11.7965  -16.0756   24.6562 O   0  0  0  0  0  0  0  0  0  0  0  0
   15.5973  -20.1167   23.1855 O   0  0  0  0  0  0  0  0  0  0  0  0
    8.5193  -15.5730   25.9257 C   0  0  0  0  0  0  0  0  0  0  0  0
    8.8272  -16.7012   26.8659 C   0  0  1  0  0  0  0  0  0  0  0  0
    7.9898  -17.7639   26.5376 O   0  0  0  0  0  0  0  0  0  0  0  0
   10.2902  -17.1079   26.7940 C   0  0  2  0  0  0  0  0  0  0  0  0
   10.5157  -17.7945   25.5437 N   0  0  0  0  0  0  0  0  0  0  0  0
   10.5200  -18.0574   27.9376 C   0  0  0  0  0  0  0  0  0  0  0  0
   10.7553  -19.2632   27.7133 O   0  0  0  0  0  0  0  0  0  0  0  0
   10.4741  -17.6095   29.2499 O   0  0  0  0  0  0  0  0  0  0  0  0
  2  1  1  0
  2  3  2  0
  4  3  1  0
  5  4  2  0
  6  5  1  0
  7  8  1  1
  7  6  1  0
  9  7  1  0
 10  9  2  0
 11 12  2  0
 11  5  1  0
 12  2  1  0
 13  9  1  0
 14 13  1  0
 15 16  1  0
 14 15  1  6
 16 17  1  0
 17 21  1  0
 17 18  2  0
 19 14  1  0
 19 26  1  0
 20 19  2  0
 23 22  1  6
 23 24  1  0
 25 23  1  0
 25 27  1  0
 25 26  1  6
 27 29  1  0
 28 27  2  0
M  END
$$$$
