YET.pdb
     RDKit          3D

 29 29  0  0  1  0  0  0  0  0999 V2000
    7.2885  -10.7616   26.8770 O   0  0  0  0  0  0  0  0  0  0  0  0
    7.1101  -12.0020   26.2628 C   0  0  0  0  0  0  0  0  0  0  0  0
    6.4705  -12.9974   26.9793 C   0  0  0  0  0  0  0  0  0  0  0  0
    6.3004  -14.2208   26.3592 C   0  0  0  0  0  0  0  0  0  0  0  0
    6.7619  -14.4072   25.0773 C   0  0  0  0  0  0  0  0  0  0  0  0
    6.5584  -15.7347   24.4507 C   0  0  0  0  0  0  0  0  0  0  0  0
    7.7221  -16.6341   24.8905 C   0  0  2  0  0  0  0  0  0  0  0  0
    7.7627  -16.6203   26.3228 N   0  0  0  0  0  0  0  0  0  0  0  0
    8.9375  -16.0720   24.2676 C   0  0  0  0  0  0  0  0  0  0  0  0
    9.1302  -14.8353   24.3682 O   0  0  0  0  0  0  0  0  0  0  0  0
    7.3901  -13.4029   24.3959 C   0  0  0  0  0  0  0  0  0  0  0  0
    7.5747  -12.1782   24.9817 C   0  0  0  0  0  0  0  0  0  0  0  0
    9.9006  -16.8402   23.5631 N   0  0  0  0  0  0  0  0  0  0  0  0
   10.8653  -16.2519   22.6562 C   0  0  1  0  0  0  0  0  0  0  0  0
   12.2381  -16.7518   23.0989 C   0  0  0  0  0  0  0  0  0  0  0  0
   12.2856  -18.2631   23.0885 C   0  0  0  0  0  0  0  0  0  0  0  0
   13.6047  -18.7017   23.5724 C   0  0  0  0  0  0  0  0  0  0  0  0
   13.6786  -19.4743   24.5524 O   0  0  0  0  0  0  0  0  0  0  0  0
   10.6266  -16.6071   21.2547 C   0  0  0  0  0  0  0  0  0  0  0  0
   11.3457  -16.1229   20.3452 O   0  0  0  0  0  0  0  0  0  0  0  0
   14.7929  -18.2955   22.9876 O   0  0  0  0  0  0  0  0  0  0  0  0
   11.6954  -17.7876   18.8544 C   0  0  0  0  0  0  0  0  0  0  0  0
   10.4907  -18.6654   19.0273 C   0  0  1  0  0  0  0  0  0  0  0  0
   10.8440  -19.7013   19.8879 O   0  0  0  0  0  0  0  0  0  0  0  0
    9.3002  -17.8854   19.5612 C   0  0  2  0  0  0  0  0  0  0  0  0
    9.5750  -17.5046   20.9268 N   0  0  0  0  0  0  0  0  0  0  0  0
    8.1294  -18.8289   19.5281 C   0  0  0  0  0  0  0  0  0  0  0  0
    7.6009  -19.2092   20.5938 O   0  0  0  0  0  0  0  0  0  0  0  0
    7.6232  -19.2870   18.3203 O   0  0  0  0  0  0  0  0  0  0  0  0
  2  1  1  0
  2  3  2  0
  4  3  1  0
  5  4  2  0
  6  5  1  0
  7  8  1  1
  7  6  1  0
  9  7  1  0
 10  9  2  0
 11 12  2  0
 11  5  1  0
 12  2  1  0
 13  9  1  0
 14 13  1  0
 15 16  1  0
 14 15  1  1
 16 17  1  0
 17 21  1  0
 17 18  2  0
 19 14  1  0
 19 26  1  0
 20 19  2  0
 23 22  1  1
 23 24  1  0
 25 23  1  0
 25 27  1  0
 25 26  1  1
 27 29  1  0
 28 27  2  0
M  END
$$$$
