YET.pdb
     RDKit          3D

 29 29  0  0  1  0  0  0  0  0999 V2000
    9.4680  -11.9697   19.5048 O   0  0  0  0  0  0  0  0  0  0  0  0
    8.5334  -12.8459   20.0582 C   0  0  0  0  0  0  0  0  0  0  0  0
    7.8990  -13.7393   19.2140 C   0  0  0  0  0  0  0  0  0  0  0  0
    6.9756  -14.6013   19.7751 C   0  0  0  0  0  0  0  0  0  0  0  0
    6.7214  -14.5458   21.1254 C   0  0  0  0  0  0  0  0  0  0  0  0
    5.7240  -15.4883   21.6849 C   0  0  0  0  0  0  0  0  0  0  0  0
    6.3696  -16.8810   21.7077 C   0  0  2  0  0  0  0  0  0  0  0  0
    5.3192  -17.8427   21.8657 N   0  0  0  0  0  0  0  0  0  0  0  0
    7.3276  -16.8744   22.8317 C   0  0  0  0  0  0  0  0  0  0  0  0
    6.8634  -16.8658   23.9984 O   0  0  0  0  0  0  0  0  0  0  0  0
    7.3655  -13.6509   21.9328 C   0  0  0  0  0  0  0  0  0  0  0  0
    8.2864  -12.7825   21.4084 C   0  0  0  0  0  0  0  0  0  0  0  0
    8.7383  -16.8772   22.6770 N   0  0  0  0  0  0  0  0  0  0  0  0
    9.6520  -16.9830   23.7964 C   0  0  1  0  0  0  0  0  0  0  0  0
   10.9789  -17.4798   23.2281 C   0  0  0  0  0  0  0  0  0  0  0  0
   12.0076  -17.6308   24.3260 C   0  0  0  0  0  0  0  0  0  0  0  0
   13.2674  -18.1112   23.7357 C   0  0  0  0  0  0  0  0  0  0  0  0
   13.7045  -19.2407   24.0454 O   0  0  0  0  0  0  0  0  0  0  0  0
    9.8481  -15.7123   24.4994 C   0  0  0  0  0  0  0  0  0  0  0  0
   10.4060  -14.7460   23.9217 O   0  0  0  0  0  0  0  0  0  0  0  0
   14.0097  -17.3630   22.8369 O   0  0  0  0  0  0  0  0  0  0  0  0
    7.9145  -12.9577   25.5236 C   0  0  0  0  0  0  0  0  0  0  0  0
    8.3485  -13.6323   26.7916 C   0  0  1  0  0  0  0  0  0  0  0  0
    7.3258  -14.4922   27.1830 O   0  0  0  0  0  0  0  0  0  0  0  0
    9.6594  -14.3800   26.6090 C   0  0  2  0  0  0  0  0  0  0  0  0
    9.4034  -15.5765   25.8421 N   0  0  0  0  0  0  0  0  0  0  0  0
   10.1250  -14.7570   27.9886 C   0  0  0  0  0  0  0  0  0  0  0  0
   10.1597  -15.9572   28.3320 O   0  0  0  0  0  0  0  0  0  0  0  0
   10.5200  -13.7824   28.8936 O   0  0  0  0  0  0  0  0  0  0  0  0
  2  1  1  0
  2  3  2  0
  4  3  1  0
  5  4  2  0
  6  5  1  0
  7  8  1  1
  7  6  1  0
  9  7  1  0
 10  9  2  0
 11 12  2  0
 11  5  1  0
 12  2  1  0
 13  9  1  0
 14 13  1  0
 15 16  1  0
 14 15  1  6
 16 17  1  0
 17 21  1  0
 17 18  2  0
 19 14  1  0
 19 26  1  0
 20 19  2  0
 23 22  1  6
 23 24  1  0
 25 23  1  0
 25 27  1  0
 25 26  1  6
 27 29  1  0
 28 27  2  0
M  END
$$$$
