YET.pdb
     RDKit          3D

 29 29  0  0  1  0  0  0  0  0999 V2000
    6.9426  -11.7219   28.0204 O   0  0  0  0  0  0  0  0  0  0  0  0
    7.0024  -12.3978   26.8009 C   0  0  0  0  0  0  0  0  0  0  0  0
    5.8171  -12.8447   26.2454 C   0  0  0  0  0  0  0  0  0  0  0  0
    5.8906  -13.5125   25.0375 C   0  0  0  0  0  0  0  0  0  0  0  0
    7.1127  -13.7081   24.4381 C   0  0  0  0  0  0  0  0  0  0  0  0
    7.1453  -14.4291   23.1438 C   0  0  0  0  0  0  0  0  0  0  0  0
    7.0487  -15.9302   23.4510 C   0  0  2  0  0  0  0  0  0  0  0  0
    5.9596  -16.1162   24.3633 N   0  0  0  0  0  0  0  0  0  0  0  0
    8.3559  -16.3215   24.0163 C   0  0  0  0  0  0  0  0  0  0  0  0
    8.3797  -16.7542   25.1948 O   0  0  0  0  0  0  0  0  0  0  0  0
    8.2662  -13.2540   25.0132 C   0  0  0  0  0  0  0  0  0  0  0  0
    8.2283  -12.5882   26.2100 C   0  0  0  0  0  0  0  0  0  0  0  0
    9.5856  -16.2397   23.3126 N   0  0  0  0  0  0  0  0  0  0  0  0
   10.7943  -16.9000   23.7620 C   0  0  1  0  0  0  0  0  0  0  0  0
   11.7944  -16.8038   22.6127 C   0  0  0  0  0  0  0  0  0  0  0  0
   13.0844  -17.5089   22.9662 C   0  0  0  0  0  0  0  0  0  0  0  0
   13.8685  -17.7123   21.7373 C   0  0  0  0  0  0  0  0  0  0  0  0
   14.7688  -18.5793   21.7142 O   0  0  0  0  0  0  0  0  0  0  0  0
   11.3591  -16.3007   24.9741 C   0  0  0  0  0  0  0  0  0  0  0  0
   12.0199  -15.2340   24.9070 O   0  0  0  0  0  0  0  0  0  0  0  0
   13.6576  -16.9790   20.5812 O   0  0  0  0  0  0  0  0  0  0  0  0
   10.1023  -14.4366   27.5132 C   0  0  0  0  0  0  0  0  0  0  0  0
   10.5441  -15.6944   28.2019 C   0  0  1  0  0  0  0  0  0  0  0  0
    9.4352  -16.5300   28.3054 O   0  0  0  0  0  0  0  0  0  0  0  0
   11.6801  -16.3738   27.4546 C   0  0  2  0  0  0  0  0  0  0  0  0
   11.1560  -16.9325   26.2304 N   0  0  0  0  0  0  0  0  0  0  0  0
   12.1665  -17.4834   28.3459 C   0  0  0  0  0  0  0  0  0  0  0  0
   12.7878  -17.2169   29.3959 O   0  0  0  0  0  0  0  0  0  0  0  0
   11.9329  -18.8106   28.0160 O   0  0  0  0  0  0  0  0  0  0  0  0
  2  1  1  0
  2  3  2  0
  4  3  1  0
  5  4  2  0
  6  5  1  0
  7  8  1  1
  7  6  1  0
  9  7  1  0
 10  9  2  0
 11 12  2  0
 11  5  1  0
 12  2  1  0
 13  9  1  0
 14 13  1  0
 15 16  1  0
 14 15  1  6
 16 17  1  0
 17 21  1  0
 17 18  2  0
 19 14  1  0
 19 26  1  0
 20 19  2  0
 23 22  1  6
 23 24  1  0
 25 23  1  0
 25 27  1  0
 25 26  1  6
 27 29  1  0
 28 27  2  0
M  END
$$$$
