YET.pdb
     RDKit          3D

 29 29  0  0  1  0  0  0  0  0999 V2000
    8.0852  -12.7540   17.7638 O   0  0  0  0  0  0  0  0  0  0  0  0
    7.8450  -13.2700   19.0380 C   0  0  0  0  0  0  0  0  0  0  0  0
    7.6449  -12.3768   20.0750 C   0  0  0  0  0  0  0  0  0  0  0  0
    7.4081  -12.9012   21.3318 C   0  0  0  0  0  0  0  0  0  0  0  0
    7.3793  -14.2646   21.5090 C   0  0  0  0  0  0  0  0  0  0  0  0
    7.1221  -14.7836   22.8731 C   0  0  0  0  0  0  0  0  0  0  0  0
    7.2323  -16.3136   22.8113 C   0  0  2  0  0  0  0  0  0  0  0  0
    5.9491  -16.8541   23.1494 N   0  0  0  0  0  0  0  0  0  0  0  0
    8.2937  -16.6906   23.7666 C   0  0  0  0  0  0  0  0  0  0  0  0
    7.9634  -16.8923   24.9611 O   0  0  0  0  0  0  0  0  0  0  0  0
    7.5810  -15.1207   20.4632 C   0  0  0  0  0  0  0  0  0  0  0  0
    7.8182  -14.6336   19.2048 C   0  0  0  0  0  0  0  0  0  0  0  0
    9.6619  -16.8394   23.4204 N   0  0  0  0  0  0  0  0  0  0  0  0
   10.6693  -17.2761   24.3656 C   0  0  1  0  0  0  0  0  0  0  0  0
   11.9195  -17.5969   23.5503 C   0  0  0  0  0  0  0  0  0  0  0  0
   13.0443  -18.0511   24.4529 C   0  0  0  0  0  0  0  0  0  0  0  0
   14.2123  -18.3911   23.6244 C   0  0  0  0  0  0  0  0  0  0  0  0
   15.2892  -18.7090   24.1739 O   0  0  0  0  0  0  0  0  0  0  0  0
   10.9758  -16.2685   25.3844 C   0  0  0  0  0  0  0  0  0  0  0  0
   11.4647  -15.1591   25.0540 O   0  0  0  0  0  0  0  0  0  0  0  0
   14.1811  -18.3773   22.2396 O   0  0  0  0  0  0  0  0  0  0  0  0
    9.4612  -13.8104   26.8410 C   0  0  0  0  0  0  0  0  0  0  0  0
    9.6911  -14.7554   27.9836 C   0  0  1  0  0  0  0  0  0  0  0  0
    8.5696  -15.5740   28.0858 O   0  0  0  0  0  0  0  0  0  0  0  0
   10.9569  -15.5743   27.7884 C   0  0  2  0  0  0  0  0  0  0  0  0
   10.7171  -16.5516   26.7526 N   0  0  0  0  0  0  0  0  0  0  0  0
   11.2095  -16.2770   29.0940 C   0  0  0  0  0  0  0  0  0  0  0  0
   11.0505  -17.5126   29.1815 O   0  0  0  0  0  0  0  0  0  0  0  0
   11.6202  -15.5665   30.2126 O   0  0  0  0  0  0  0  0  0  0  0  0
  2  1  1  0
  2  3  2  0
  4  3  1  0
  5  4  2  0
  6  5  1  0
  7  8  1  1
  7  6  1  0
  9  7  1  0
 10  9  2  0
 11 12  2  0
 11  5  1  0
 12  2  1  0
 13  9  1  0
 14 13  1  0
 15 16  1  0
 14 15  1  6
 16 17  1  0
 17 21  1  0
 17 18  2  0
 19 14  1  0
 19 26  1  0
 20 19  2  0
 23 22  1  6
 23 24  1  0
 25 23  1  0
 25 27  1  0
 25 26  1  6
 27 29  1  0
 28 27  2  0
M  END
$$$$
