YET.pdb
     RDKit          3D

 29 29  0  0  1  0  0  0  0  0999 V2000
    7.2151  -12.3089   17.4235 O   0  0  0  0  0  0  0  0  0  0  0  0
    7.5155  -12.9259   18.6386 C   0  0  0  0  0  0  0  0  0  0  0  0
    6.4672  -13.4146   19.3973 C   0  0  0  0  0  0  0  0  0  0  0  0
    6.7787  -14.0232   20.5985 C   0  0  0  0  0  0  0  0  0  0  0  0
    8.0920  -14.1223   20.9941 C   0  0  0  0  0  0  0  0  0  0  0  0
    8.3807  -14.7824   22.2891 C   0  0  0  0  0  0  0  0  0  0  0  0
    9.0516  -16.1282   21.9798 C   0  0  2  0  0  0  0  0  0  0  0  0
    8.0522  -16.9933   21.4268 N   0  0  0  0  0  0  0  0  0  0  0  0
    9.6040  -16.6185   23.2588 C   0  0  0  0  0  0  0  0  0  0  0  0
    8.7971  -17.0437   24.1218 O   0  0  0  0  0  0  0  0  0  0  0  0
    9.1053  -13.6290   20.2212 C   0  0  0  0  0  0  0  0  0  0  0  0
    8.8308  -13.0199   19.0250 C   0  0  0  0  0  0  0  0  0  0  0  0
   10.9876  -16.6396   23.5738 N   0  0  0  0  0  0  0  0  0  0  0  0
   11.5059  -17.2077   24.8017 C   0  0  1  0  0  0  0  0  0  0  0  0
   12.8683  -17.8066   24.4615 C   0  0  0  0  0  0  0  0  0  0  0  0
   12.7314  -18.8823   23.4077 C   0  0  0  0  0  0  0  0  0  0  0  0
   14.0655  -19.4259   23.1057 C   0  0  0  0  0  0  0  0  0  0  0  0
   14.8168  -18.8170   22.3136 O   0  0  0  0  0  0  0  0  0  0  0  0
   11.6421  -16.2223   25.8776 C   0  0  0  0  0  0  0  0  0  0  0  0
   12.4426  -15.2608   25.7610 O   0  0  0  0  0  0  0  0  0  0  0  0
   14.5424  -20.6005   23.6639 O   0  0  0  0  0  0  0  0  0  0  0  0
    9.8170  -13.5352   27.2075 C   0  0  0  0  0  0  0  0  0  0  0  0
    9.8262  -14.5712   28.2929 C   0  0  1  0  0  0  0  0  0  0  0  0
    8.6415  -15.2959   28.1940 O   0  0  0  0  0  0  0  0  0  0  0  0
   11.0402  -15.4803   28.1903 C   0  0  2  0  0  0  0  0  0  0  0  0
   10.8626  -16.3585   27.0577 N   0  0  0  0  0  0  0  0  0  0  0  0
   11.0670  -16.2917   29.4564 C   0  0  0  0  0  0  0  0  0  0  0  0
   10.8150  -17.5144   29.4225 O   0  0  0  0  0  0  0  0  0  0  0  0
   11.3703  -15.6967   30.6724 O   0  0  0  0  0  0  0  0  0  0  0  0
  2  1  1  0
  2  3  2  0
  4  3  1  0
  5  4  2  0
  6  5  1  0
  7  8  1  1
  7  6  1  0
  9  7  1  0
 10  9  2  0
 11 12  2  0
 11  5  1  0
 12  2  1  0
 13  9  1  0
 14 13  1  0
 15 16  1  0
 14 15  1  6
 16 17  1  0
 17 21  1  0
 17 18  2  0
 19 14  1  0
 19 26  1  0
 20 19  2  0
 23 22  1  6
 23 24  1  0
 25 23  1  0
 25 27  1  0
 25 26  1  6
 27 29  1  0
 28 27  2  0
M  END
$$$$
