YET.pdb
     RDKit          3D

 29 29  0  0  1  0  0  0  0  0999 V2000
    8.9619  -12.0147   19.4981 O   0  0  0  0  0  0  0  0  0  0  0  0
    8.2020  -13.0043   20.1232 C   0  0  0  0  0  0  0  0  0  0  0  0
    7.7814  -14.0801   19.3623 C   0  0  0  0  0  0  0  0  0  0  0  0
    7.0295  -15.0529   19.9938 C   0  0  0  0  0  0  0  0  0  0  0  0
    6.7291  -14.9245   21.3296 C   0  0  0  0  0  0  0  0  0  0  0  0
    5.9206  -15.9907   21.9665 C   0  0  0  0  0  0  0  0  0  0  0  0
    6.7300  -17.2925   21.8847 C   0  0  2  0  0  0  0  0  0  0  0  0
    5.8223  -18.3809   22.0961 N   0  0  0  0  0  0  0  0  0  0  0  0
    7.7755  -17.1955   22.9234 C   0  0  0  0  0  0  0  0  0  0  0  0
    7.4107  -17.1965   24.1250 O   0  0  0  0  0  0  0  0  0  0  0  0
    7.1600  -13.8487   22.0538 C   0  0  0  0  0  0  0  0  0  0  0  0
    7.9071  -12.8668   21.4582 C   0  0  0  0  0  0  0  0  0  0  0  0
    9.1648  -17.1012   22.6499 N   0  0  0  0  0  0  0  0  0  0  0  0
   10.1701  -17.0545   23.6922 C   0  0  1  0  0  0  0  0  0  0  0  0
   11.5234  -17.1723   22.9956 C   0  0  0  0  0  0  0  0  0  0  0  0
   12.6514  -17.0538   23.9954 C   0  0  0  0  0  0  0  0  0  0  0  0
   13.9304  -17.2632   23.2978 C   0  0  0  0  0  0  0  0  0  0  0  0
   14.3720  -18.4234   23.1505 O   0  0  0  0  0  0  0  0  0  0  0  0
   10.1167  -15.8243   24.4866 C   0  0  0  0  0  0  0  0  0  0  0  0
   10.3843  -14.7155   23.9595 O   0  0  0  0  0  0  0  0  0  0  0  0
   14.6863  -16.2218   22.7852 O   0  0  0  0  0  0  0  0  0  0  0  0
    8.6061  -12.8741   27.7643 C   0  0  0  0  0  0  0  0  0  0  0  0
    8.5311  -14.1098   26.9165 C   0  0  1  0  0  0  0  0  0  0  0  0
    7.9763  -13.7478   25.6919 O   0  0  0  0  0  0  0  0  0  0  0  0
    9.8980  -14.7501   26.7359 C   0  0  2  0  0  0  0  0  0  0  0  0
    9.7597  -15.8901   25.8603 N   0  0  0  0  0  0  0  0  0  0  0  0
   10.3296  -15.2134   28.1002 C   0  0  0  0  0  0  0  0  0  0  0  0
   10.3334  -16.4313   28.3762 O   0  0  0  0  0  0  0  0  0  0  0  0
   10.7271  -14.2994   29.0654 O   0  0  0  0  0  0  0  0  0  0  0  0
  2  1  1  0
  2  3  2  0
  4  3  1  0
  5  4  2  0
  6  5  1  0
  7  8  1  1
  7  6  1  0
  9  7  1  0
 10  9  2  0
 11 12  2  0
 11  5  1  0
 12  2  1  0
 13  9  1  0
 14 13  1  0
 15 16  1  0
 14 15  1  6
 16 17  1  0
 17 21  1  0
 17 18  2  0
 19 14  1  0
 19 26  1  0
 20 19  2  0
 23 22  1  1
 23 24  1  0
 25 23  1  0
 25 27  1  0
 25 26  1  6
 27 29  1  0
 28 27  2  0
M  END
$$$$
