YET.pdb
     RDKit          3D

 29 29  0  0  1  0  0  0  0  0999 V2000
    8.5372  -11.8483   18.6079 O   0  0  0  0  0  0  0  0  0  0  0  0
    8.0707  -12.7064   19.6047 C   0  0  0  0  0  0  0  0  0  0  0  0
    8.5062  -12.4965   20.9007 C   0  0  0  0  0  0  0  0  0  0  0  0
    8.0365  -13.3534   21.8782 C   0  0  0  0  0  0  0  0  0  0  0  0
    7.1699  -14.3662   21.5401 C   0  0  0  0  0  0  0  0  0  0  0  0
    6.6912  -15.2617   22.6196 C   0  0  0  0  0  0  0  0  0  0  0  0
    7.2720  -16.6571   22.3508 C   0  0  2  0  0  0  0  0  0  0  0  0
    6.1857  -17.5910   22.3790 N   0  0  0  0  0  0  0  0  0  0  0  0
    8.2753  -16.8980   23.4075 C   0  0  0  0  0  0  0  0  0  0  0  0
    7.8612  -17.2331   24.5445 O   0  0  0  0  0  0  0  0  0  0  0  0
    6.7583  -14.5471   20.2496 C   0  0  0  0  0  0  0  0  0  0  0  0
    7.2050  -13.7152   19.2568 C   0  0  0  0  0  0  0  0  0  0  0  0
    9.6766  -16.7748   23.2194 N   0  0  0  0  0  0  0  0  0  0  0  0
   10.6350  -16.9928   24.2838 C   0  0  1  0  0  0  0  0  0  0  0  0
   11.9683  -17.3066   23.6097 C   0  0  0  0  0  0  0  0  0  0  0  0
   11.8425  -18.5184   22.7143 C   0  0  0  0  0  0  0  0  0  0  0  0
   13.1006  -19.2807   22.7646 C   0  0  0  0  0  0  0  0  0  0  0  0
   13.5886  -19.5968   23.8713 O   0  0  0  0  0  0  0  0  0  0  0  0
   10.7785  -15.8368   25.1727 C   0  0  0  0  0  0  0  0  0  0  0  0
   11.4005  -14.8143   24.7900 O   0  0  0  0  0  0  0  0  0  0  0  0
   13.7868  -19.6745   21.6276 O   0  0  0  0  0  0  0  0  0  0  0  0
    9.1633  -13.0532   26.2185 C   0  0  0  0  0  0  0  0  0  0  0  0
    9.2268  -13.9077   27.4502 C   0  0  1  0  0  0  0  0  0  0  0  0
    8.0428  -14.6370   27.5188 O   0  0  0  0  0  0  0  0  0  0  0  0
   10.4398  -14.8238   27.4356 C   0  0  2  0  0  0  0  0  0  0  0  0
   10.2095  -15.8764   26.4741 N   0  0  0  0  0  0  0  0  0  0  0  0
   10.5376  -15.4153   28.8150 C   0  0  0  0  0  0  0  0  0  0  0  0
   10.2732  -16.6218   28.9995 O   0  0  0  0  0  0  0  0  0  0  0  0
   10.9207  -14.6334   29.8951 O   0  0  0  0  0  0  0  0  0  0  0  0
  2  1  1  0
  2  3  2  0
  4  3  1  0
  5  4  2  0
  6  5  1  0
  7  8  1  1
  7  6  1  0
  9  7  1  0
 10  9  2  0
 11 12  2  0
 11  5  1  0
 12  2  1  0
 13  9  1  0
 14 13  1  0
 15 16  1  0
 14 15  1  6
 16 17  1  0
 17 21  1  0
 17 18  2  0
 19 14  1  0
 19 26  1  0
 20 19  2  0
 23 22  1  6
 23 24  1  0
 25 23  1  0
 25 27  1  0
 25 26  1  6
 27 29  1  0
 28 27  2  0
M  END
$$$$
