YET.pdb
     RDKit          3D

 29 29  0  0  1  0  0  0  0  0999 V2000
    8.2271  -12.2195   17.2846 O   0  0  0  0  0  0  0  0  0  0  0  0
    8.0353  -12.8239   18.5278 C   0  0  0  0  0  0  0  0  0  0  0  0
    6.7452  -13.1611   18.8956 C   0  0  0  0  0  0  0  0  0  0  0  0
    6.5694  -13.7591   20.1293 C   0  0  0  0  0  0  0  0  0  0  0  0
    7.6580  -13.9954   20.9355 C   0  0  0  0  0  0  0  0  0  0  0  0
    7.4238  -14.6385   22.2500 C   0  0  0  0  0  0  0  0  0  0  0  0
    7.6998  -16.1394   22.0832 C   0  0  2  0  0  0  0  0  0  0  0  0
    6.4375  -16.7953   21.9113 N   0  0  0  0  0  0  0  0  0  0  0  0
    8.4170  -16.5659   23.3019 C   0  0  0  0  0  0  0  0  0  0  0  0
    7.7466  -16.7263   24.3514 O   0  0  0  0  0  0  0  0  0  0  0  0
    8.9205  -13.6501   20.5428 C   0  0  0  0  0  0  0  0  0  0  0  0
    9.1294  -13.0558   19.3261 C   0  0  0  0  0  0  0  0  0  0  0  0
    9.8144  -16.8057   23.3618 N   0  0  0  0  0  0  0  0  0  0  0  0
   10.4841  -17.2561   24.5650 C   0  0  1  0  0  0  0  0  0  0  0  0
   11.7525  -17.9752   24.1125 C   0  0  0  0  0  0  0  0  0  0  0  0
   12.5347  -18.4801   25.3039 C   0  0  0  0  0  0  0  0  0  0  0  0
   13.7332  -19.1860   24.8226 C   0  0  0  0  0  0  0  0  0  0  0  0
   14.0609  -20.2743   25.3430 O   0  0  0  0  0  0  0  0  0  0  0  0
   10.8232  -16.1608   25.4776 C   0  0  0  0  0  0  0  0  0  0  0  0
   11.5713  -15.2256   25.0974 O   0  0  0  0  0  0  0  0  0  0  0  0
   14.5337  -18.6986   23.8026 O   0  0  0  0  0  0  0  0  0  0  0  0
    9.5032  -13.2459   26.6800 C   0  0  0  0  0  0  0  0  0  0  0  0
    9.5643  -14.1410   27.8827 C   0  0  1  0  0  0  0  0  0  0  0  0
    8.3255  -14.7640   28.0078 O   0  0  0  0  0  0  0  0  0  0  0  0
   10.6861  -15.1603   27.7670 C   0  0  2  0  0  0  0  0  0  0  0  0
   10.3008  -16.1602   26.7990 N   0  0  0  0  0  0  0  0  0  0  0  0
   10.8177  -15.7976   29.1230 C   0  0  0  0  0  0  0  0  0  0  0  0
   10.4788  -16.9877   29.2915 O   0  0  0  0  0  0  0  0  0  0  0  0
   11.3144  -15.0764   30.1991 O   0  0  0  0  0  0  0  0  0  0  0  0
  2  1  1  0
  2  3  2  0
  4  3  1  0
  5  4  2  0
  6  5  1  0
  7  8  1  1
  7  6  1  0
  9  7  1  0
 10  9  2  0
 11 12  2  0
 11  5  1  0
 12  2  1  0
 13  9  1  0
 14 13  1  0
 15 16  1  0
 14 15  1  6
 16 17  1  0
 17 21  1  0
 17 18  2  0
 19 14  1  0
 19 26  1  0
 20 19  2  0
 23 22  1  6
 23 24  1  0
 25 23  1  0
 25 27  1  0
 25 26  1  6
 27 29  1  0
 28 27  2  0
M  END
$$$$
