ATV.pdb
     RDKit          3D

 20 19  0  0  1  0  0  0  0  0999 V2000
   22.3903  -16.7913  -16.8512 C   0  0  0  0  0  0  0  0  0  0  0  0
   23.7187  -17.1649  -17.4091 C   0  0  2  0  0  0  0  0  0  0  0  0
   23.7477  -17.2762  -18.8365 N   0  0  0  0  0  0  0  0  0  0  0  0
   24.3389  -18.3569  -16.7411 C   0  0  0  0  0  0  0  0  0  0  0  0
   23.8444  -19.4919  -16.9049 O   0  0  0  0  0  0  0  0  0  0  0  0
   27.5458  -19.6905  -17.4322 C   0  0  0  0  0  0  0  0  0  0  0  0
   27.5247  -19.6166  -15.9365 C   0  0  1  0  0  0  0  0  0  0  0  0
   28.4296  -18.6310  -15.5417 O   0  0  0  0  0  0  0  0  0  0  0  0
   26.1462  -19.3710  -15.3812 C   0  0  2  0  0  0  0  0  0  0  0  0
   25.4844  -18.2333  -15.9164 N   0  0  0  0  0  0  0  0  0  0  0  0
   26.1392  -19.3959  -13.8852 C   0  0  0  0  0  0  0  0  0  0  0  0
   26.2134  -18.3322  -13.2162 O   0  0  0  0  0  0  0  0  0  0  0  0
   25.1930  -20.1275   -9.4891 C   0  0  0  0  0  0  0  0  0  0  0  0
   24.9135  -20.0572  -10.9940 C   0  0  2  0  0  0  0  0  0  0  0  0
   23.6389  -20.8431  -11.2271 C   0  0  0  0  0  0  0  0  0  0  0  0
   26.0142  -20.6929  -11.7144 C   0  0  2  0  0  0  0  0  0  0  0  0
   26.0520  -20.5709  -13.1353 N   0  0  0  0  0  0  0  0  0  0  0  0
   26.1650  -22.1196  -11.2803 C   0  0  0  0  0  0  0  0  0  0  0  0
   26.5314  -22.3959   -9.9764 O   0  0  0  0  0  0  0  0  0  0  0  0
   25.9745  -23.0880  -12.0489 O   0  0  0  0  0  0  0  0  0  0  0  0
  2  1  1  1
  2  4  1  0
  3  2  1  0
  4 10  1  0
  4  5  2  0
  7  6  1  6
  7  8  1  0
  9  7  1  0
  9 10  1  1
 11 12  2  0
 11  9  1  0
 14 13  1  1
 14 16  1  0
 14 15  1  0
 16 17  1  6
 17 11  1  0
 18 16  1  0
 19 18  1  0
 20 18  2  0
M  END
$$$$
