ATV.pdb
     RDKit          3D

 20 19  0  0  1  0  0  0  0  0999 V2000
   16.8985  -15.9115  -17.5669 C   0  0  0  0  0  0  0  0  0  0  0  0
   17.5455  -15.1759  -16.4465 C   0  0  2  0  0  0  0  0  0  0  0  0
   16.6678  -14.8727  -15.3564 N   0  0  0  0  0  0  0  0  0  0  0  0
   18.3278  -13.9736  -16.8875 C   0  0  0  0  0  0  0  0  0  0  0  0
   19.1553  -14.0739  -17.8174 O   0  0  0  0  0  0  0  0  0  0  0  0
   17.7162  -11.2565  -18.8683 C   0  0  0  0  0  0  0  0  0  0  0  0
   18.1493  -10.6215  -17.5828 C   0  0  1  0  0  0  0  0  0  0  0  0
   17.0171  -10.0961  -16.9598 O   0  0  0  0  0  0  0  0  0  0  0  0
   18.8983  -11.5700  -16.6838 C   0  0  2  0  0  0  0  0  0  0  0  0
   18.1556  -12.7091  -16.2718 N   0  0  0  0  0  0  0  0  0  0  0  0
   19.5452  -10.8546  -15.5400 C   0  0  0  0  0  0  0  0  0  0  0  0
   19.0873  -10.9479  -14.3711 O   0  0  0  0  0  0  0  0  0  0  0  0
   23.6132   -9.5083  -15.5974 C   0  0  0  0  0  0  0  0  0  0  0  0
   22.7491   -9.7352  -14.3525 C   0  0  2  0  0  0  0  0  0  0  0  0
   22.8003  -11.2221  -14.0643 C   0  0  0  0  0  0  0  0  0  0  0  0
   21.3726   -9.3454  -14.6492 C   0  0  2  0  0  0  0  0  0  0  0  0
   20.6776  -10.0488  -15.6776 N   0  0  0  0  0  0  0  0  0  0  0  0
   21.2814   -7.8614  -14.8390 C   0  0  0  0  0  0  0  0  0  0  0  0
   21.5910   -7.0232  -13.7843 O   0  0  0  0  0  0  0  0  0  0  0  0
   20.9334   -7.3341  -15.9186 O   0  0  0  0  0  0  0  0  0  0  0  0
  2  1  1  6
  2  4  1  0
  3  2  1  0
  4 10  1  0
  4  5  2  0
  7  6  1  6
  7  8  1  0
  9  7  1  0
  9 10  1  1
 11 12  2  0
 11  9  1  0
 14 13  1  6
 14 16  1  0
 14 15  1  0
 16 17  1  6
 17 11  1  0
 18 16  1  0
 19 18  1  0
 20 18  2  0
M  END
$$$$
