ATV.pdb
     RDKit          3D

 20 19  0  0  1  0  0  0  0  0999 V2000
   19.3315  -13.3343  -16.2341 C   0  0  0  0  0  0  0  0  0  0  0  0
   18.3807  -12.2342  -15.9163 C   0  0  2  0  0  0  0  0  0  0  0  0
   17.0269  -12.4957  -16.3031 N   0  0  0  0  0  0  0  0  0  0  0  0
   18.8451  -10.8843  -16.3789 C   0  0  0  0  0  0  0  0  0  0  0  0
   19.2929  -10.7408  -17.5358 O   0  0  0  0  0  0  0  0  0  0  0  0
   16.7252   -8.1893  -17.0738 C   0  0  0  0  0  0  0  0  0  0  0  0
   17.7331   -7.6068  -16.1314 C   0  0  1  0  0  0  0  0  0  0  0  0
   17.1164   -7.4400  -14.8913 O   0  0  0  0  0  0  0  0  0  0  0  0
   18.9876   -8.4344  -16.0301 C   0  0  2  0  0  0  0  0  0  0  0  0
   18.7923   -9.7503  -15.5311 N   0  0  0  0  0  0  0  0  0  0  0  0
   20.0796   -7.7000  -15.3181 C   0  0  0  0  0  0  0  0  0  0  0  0
   20.3903   -7.9857  -14.1322 O   0  0  0  0  0  0  0  0  0  0  0  0
   23.6677   -7.0871  -16.6215 C   0  0  0  0  0  0  0  0  0  0  0  0
   23.1004   -5.7367  -16.1712 C   0  0  2  0  0  0  0  0  0  0  0  0
   24.1848   -5.0736  -15.3461 C   0  0  0  0  0  0  0  0  0  0  0  0
   21.9259   -5.9676  -15.3335 C   0  0  2  0  0  0  0  0  0  0  0  0
   20.8191   -6.6677  -15.8994 N   0  0  0  0  0  0  0  0  0  0  0  0
   21.4932   -4.6897  -14.6805 C   0  0  0  0  0  0  0  0  0  0  0  0
   22.1250   -4.2720  -13.5242 O   0  0  0  0  0  0  0  0  0  0  0  0
   20.5753   -3.9711  -15.1342 O   0  0  0  0  0  0  0  0  0  0  0  0
  2  1  1  6
  2  4  1  0
  3  2  1  0
  4 10  1  0
  4  5  2  0
  7  6  1  6
  7  8  1  0
  9  7  1  0
  9 10  1  1
 11 12  2  0
 11  9  1  0
 14 13  1  1
 14 16  1  0
 14 15  1  0
 16 17  1  6
 17 11  1  0
 18 16  1  0
 19 18  1  0
 20 18  2  0
M  END
$$$$
