ATV.pdb
     RDKit          3D

 20 19  0  0  1  0  0  0  0  0999 V2000
   15.6066  -12.7695  -15.2540 C   0  0  0  0  0  0  0  0  0  0  0  0
   15.7211  -12.3859  -16.6875 C   0  0  2  0  0  0  0  0  0  0  0  0
   15.6022  -13.4818  -17.6017 N   0  0  0  0  0  0  0  0  0  0  0  0
   16.9176  -11.5318  -16.9887 C   0  0  0  0  0  0  0  0  0  0  0  0
   17.9881  -12.0626  -17.3520 O   0  0  0  0  0  0  0  0  0  0  0  0
   18.9725   -7.1397  -17.8841 C   0  0  0  0  0  0  0  0  0  0  0  0
   17.7321   -7.9441  -17.6440 C   0  0  1  0  0  0  0  0  0  0  0  0
   17.0209   -8.0059  -18.8425 O   0  0  0  0  0  0  0  0  0  0  0  0
   18.0204   -9.3142  -17.0885 C   0  0  2  0  0  0  0  0  0  0  0  0
   16.8711  -10.1206  -16.8707 N   0  0  0  0  0  0  0  0  0  0  0  0
   18.9187   -9.2496  -15.8937 C   0  0  0  0  0  0  0  0  0  0  0  0
   18.4563   -9.0370  -14.7423 O   0  0  0  0  0  0  0  0  0  0  0  0
   22.0221  -11.6551  -15.1364 C   0  0  0  0  0  0  0  0  0  0  0  0
   22.4380  -10.1901  -14.9669 C   0  0  2  0  0  0  0  0  0  0  0  0
   23.1942  -10.1115  -13.6560 C   0  0  0  0  0  0  0  0  0  0  0  0
   21.2388   -9.3595  -14.8861 C   0  0  2  0  0  0  0  0  0  0  0  0
   20.3037   -9.4159  -15.9620 N   0  0  0  0  0  0  0  0  0  0  0  0
   21.6068   -7.9458  -14.5502 C   0  0  0  0  0  0  0  0  0  0  0  0
   21.7098   -7.5693  -13.2242 O   0  0  0  0  0  0  0  0  0  0  0  0
   21.8279   -7.0755  -15.4212 O   0  0  0  0  0  0  0  0  0  0  0  0
  2  1  1  1
  2  4  1  0
  3  2  1  0
  4 10  1  0
  4  5  2  0
  7  6  1  6
  7  8  1  0
  9  7  1  0
  9 10  1  1
 11 12  2  0
 11  9  1  0
 14 13  1  1
 14 16  1  0
 14 15  1  0
 16 17  1  6
 17 11  1  0
 18 16  1  0
 19 18  1  0
 20 18  2  0
M  END
$$$$
