ATV.pdb
     RDKit          3D

 20 19  0  0  1  0  0  0  0  0999 V2000
   18.0703  -13.2077  -17.6937 C   0  0  0  0  0  0  0  0  0  0  0  0
   19.1120  -12.5581  -16.8522 C   0  0  2  0  0  0  0  0  0  0  0  0
   19.1593  -13.0335  -15.5022 N   0  0  0  0  0  0  0  0  0  0  0  0
   19.0912  -11.0591  -16.9184 C   0  0  0  0  0  0  0  0  0  0  0  0
   19.1981  -10.4813  -18.0203 O   0  0  0  0  0  0  0  0  0  0  0  0
   16.2826   -8.8878  -16.0986 C   0  0  0  0  0  0  0  0  0  0  0  0
   17.4430   -8.3701  -15.3057 C   0  0  1  0  0  0  0  0  0  0  0  0
   17.2416   -8.7199  -13.9704 O   0  0  0  0  0  0  0  0  0  0  0  0
   18.7706   -8.8591  -15.8223 C   0  0  2  0  0  0  0  0  0  0  0  0
   18.9535  -10.2664  -15.7521 N   0  0  0  0  0  0  0  0  0  0  0  0
   19.9116   -8.0955  -15.2276 C   0  0  0  0  0  0  0  0  0  0  0  0
   20.6701   -8.6205  -14.3711 O   0  0  0  0  0  0  0  0  0  0  0  0
   22.9720   -6.9997  -16.7378 C   0  0  0  0  0  0  0  0  0  0  0  0
   22.3540   -5.7001  -16.2115 C   0  0  2  0  0  0  0  0  0  0  0  0
   23.4880   -4.9120  -15.5874 C   0  0  0  0  0  0  0  0  0  0  0  0
   21.3650   -6.0227  -15.1856 C   0  0  2  0  0  0  0  0  0  0  0  0
   20.2151   -6.7754  -15.5682 N   0  0  0  0  0  0  0  0  0  0  0  0
   20.9867   -4.7900  -14.4215 C   0  0  0  0  0  0  0  0  0  0  0  0
   19.7046   -4.2869  -14.5390 O   0  0  0  0  0  0  0  0  0  0  0  0
   21.7837   -4.1830  -13.6723 O   0  0  0  0  0  0  0  0  0  0  0  0
  2  1  1  1
  2  4  1  0
  3  2  1  0
  4 10  1  0
  4  5  2  0
  7  6  1  6
  7  8  1  0
  9  7  1  0
  9 10  1  1
 11 12  2  0
 11  9  1  0
 14 13  1  1
 14 16  1  0
 14 15  1  0
 16 17  1  6
 17 11  1  0
 18 16  1  0
 19 18  1  0
 20 18  2  0
M  END
$$$$
