ATV.pdb
     RDKit          3D

 20 19  0  0  1  0  0  0  0  0999 V2000
   16.7796  -14.7661  -14.7894 C   0  0  0  0  0  0  0  0  0  0  0  0
   17.3608  -14.8603  -16.1564 C   0  0  2  0  0  0  0  0  0  0  0  0
   17.9583  -16.1266  -16.4563 N   0  0  0  0  0  0  0  0  0  0  0  0
   18.2666  -13.7161  -16.5060 C   0  0  0  0  0  0  0  0  0  0  0  0
   19.5055  -13.8707  -16.4818 O   0  0  0  0  0  0  0  0  0  0  0  0
   18.8880   -9.2814  -18.6043 C   0  0  0  0  0  0  0  0  0  0  0  0
   17.9360  -10.3323  -18.1220 C   0  0  1  0  0  0  0  0  0  0  0  0
   17.3033  -10.8835  -19.2364 O   0  0  0  0  0  0  0  0  0  0  0  0
   18.6038  -11.3841  -17.2755 C   0  0  2  0  0  0  0  0  0  0  0  0
   17.7528  -12.4458  -16.8666 N   0  0  0  0  0  0  0  0  0  0  0  0
   19.3640  -10.7789  -16.1377 C   0  0  0  0  0  0  0  0  0  0  0  0
   18.7964  -10.5056  -15.0479 O   0  0  0  0  0  0  0  0  0  0  0  0
   22.9364  -11.9587  -14.9551 C   0  0  0  0  0  0  0  0  0  0  0  0
   22.9292  -10.4300  -15.0594 C   0  0  2  0  0  0  0  0  0  0  0  0
   23.5533   -9.9133  -13.7787 C   0  0  0  0  0  0  0  0  0  0  0  0
   21.5474   -9.9639  -15.1484 C   0  0  2  0  0  0  0  0  0  0  0  0
   20.7267  -10.4784  -16.1958 N   0  0  0  0  0  0  0  0  0  0  0  0
   21.4989   -8.4667  -15.0961 C   0  0  0  0  0  0  0  0  0  0  0  0
   21.6216   -7.8270  -13.8769 O   0  0  0  0  0  0  0  0  0  0  0  0
   21.3500   -7.7552  -16.1142 O   0  0  0  0  0  0  0  0  0  0  0  0
  2  1  1  1
  2  4  1  0
  3  2  1  0
  4 10  1  0
  4  5  2  0
  7  6  1  6
  7  8  1  0
  9  7  1  0
  9 10  1  1
 11 12  2  0
 11  9  1  0
 14 13  1  1
 14 16  1  0
 14 15  1  0
 16 17  1  6
 17 11  1  0
 18 16  1  0
 19 18  1  0
 20 18  2  0
M  END
$$$$
