ATV.pdb
     RDKit          3D

 20 19  0  0  1  0  0  0  0  0999 V2000
   22.5739  -20.5898  -11.3640 C   0  0  0  0  0  0  0  0  0  0  0  0
   23.9772  -21.0180  -11.1135 C   0  0  2  0  0  0  0  0  0  0  0  0
   24.3861  -20.9237   -9.7443 N   0  0  0  0  0  0  0  0  0  0  0  0
   24.9740  -20.3874  -12.0411 C   0  0  0  0  0  0  0  0  0  0  0  0
   25.7562  -19.5120  -11.6153 O   0  0  0  0  0  0  0  0  0  0  0  0
   27.9792  -20.5521  -15.7943 C   0  0  0  0  0  0  0  0  0  0  0  0
   26.8475  -21.1852  -15.0448 C   0  0  1  0  0  0  0  0  0  0  0  0
   27.3805  -22.1690  -14.2116 O   0  0  0  0  0  0  0  0  0  0  0  0
   26.0199  -20.1862  -14.2794 C   0  0  2  0  0  0  0  0  0  0  0  0
   25.0561  -20.7584  -13.4061 N   0  0  0  0  0  0  0  0  0  0  0  0
   25.4391  -19.1421  -15.1800 C   0  0  0  0  0  0  0  0  0  0  0  0
   24.2960  -19.2832  -15.6879 O   0  0  0  0  0  0  0  0  0  0  0  0
   27.1527  -15.2057  -15.4766 C   0  0  0  0  0  0  0  0  0  0  0  0
   25.6945  -15.5340  -15.8139 C   0  0  2  0  0  0  0  0  0  0  0  0
   24.9273  -15.4520  -14.5096 C   0  0  0  0  0  0  0  0  0  0  0  0
   25.6202  -16.8967  -16.3357 C   0  0  2  0  0  0  0  0  0  0  0  0
   26.1035  -17.9610  -15.5179 N   0  0  0  0  0  0  0  0  0  0  0  0
   26.1993  -16.9572  -17.7169 C   0  0  0  0  0  0  0  0  0  0  0  0
   25.5952  -16.2458  -18.7366 O   0  0  0  0  0  0  0  0  0  0  0  0
   27.2160  -17.6292  -17.9991 O   0  0  0  0  0  0  0  0  0  0  0  0
  2  1  1  1
  2  4  1  0
  3  2  1  0
  4 10  1  0
  4  5  2  0
  7  6  1  1
  7  8  1  0
  9  7  1  0
  9 10  1  6
 11 12  2  0
 11  9  1  0
 14 13  1  1
 14 16  1  0
 14 15  1  0
 16 17  1  1
 17 11  1  0
 18 16  1  0
 19 18  1  0
 20 18  2  0
M  END
$$$$
