ATV.pdb
     RDKit          3D

 20 19  0  0  1  0  0  0  0  0999 V2000
   25.0138  -24.1062  -19.0832 C   0  0  0  0  0  0  0  0  0  0  0  0
   24.9613  -22.6220  -19.1805 C   0  0  2  0  0  0  0  0  0  0  0  0
   25.4642  -22.0945  -20.4132 N   0  0  0  0  0  0  0  0  0  0  0  0
   25.5455  -21.9193  -17.9902 C   0  0  0  0  0  0  0  0  0  0  0  0
   26.5831  -21.2359  -18.1158 O   0  0  0  0  0  0  0  0  0  0  0  0
   25.7890  -19.3237  -17.3735 C   0  0  0  0  0  0  0  0  0  0  0  0
   25.1239  -19.6353  -16.0682 C   0  0  1  0  0  0  0  0  0  0  0  0
   23.7900  -19.2374  -16.1595 O   0  0  0  0  0  0  0  0  0  0  0  0
   25.2544  -21.0834  -15.6748 C   0  0  2  0  0  0  0  0  0  0  0  0
   24.9487  -22.0094  -16.7082 N   0  0  0  0  0  0  0  0  0  0  0  0
   24.5306  -21.3782  -14.3990 C   0  0  0  0  0  0  0  0  0  0  0  0
   23.4277  -21.9850  -14.4015 O   0  0  0  0  0  0  0  0  0  0  0  0
   25.5692  -19.6518  -10.4648 C   0  0  0  0  0  0  0  0  0  0  0  0
   25.2299  -21.1314  -10.6732 C   0  0  2  0  0  0  0  0  0  0  0  0
   26.5500  -21.8450  -10.8845 C   0  0  0  0  0  0  0  0  0  0  0  0
   24.4068  -21.2683  -11.8725 C   0  0  2  0  0  0  0  0  0  0  0  0
   25.0105  -21.0121  -13.1395 N   0  0  0  0  0  0  0  0  0  0  0  0
   23.1229  -20.5119  -11.7115 C   0  0  0  0  0  0  0  0  0  0  0  0
   22.9271  -19.3484  -12.4318 O   0  0  0  0  0  0  0  0  0  0  0  0
   22.2056  -20.8841  -10.9467 O   0  0  0  0  0  0  0  0  0  0  0  0
  2  1  1  1
  2  4  1  0
  3  2  1  0
  4 10  1  0
  4  5  2  0
  7  6  1  6
  7  8  1  0
  9  7  1  0
  9 10  1  6
 11 12  2  0
 11  9  1  0
 14 13  1  6
 14 16  1  0
 14 15  1  0
 16 17  1  6
 17 11  1  0
 18 16  1  0
 19 18  1  0
 20 18  2  0
M  END
$$$$
