ATV.pdb
     RDKit          3D

 20 19  0  0  1  0  0  0  0  0999 V2000
   14.2349  -12.0244  -18.1631 C   0  0  0  0  0  0  0  0  0  0  0  0
   15.4260  -12.5897  -17.4725 C   0  0  2  0  0  0  0  0  0  0  0  0
   15.1631  -13.7843  -16.7278 N   0  0  0  0  0  0  0  0  0  0  0  0
   16.1884  -11.5814  -16.6639 C   0  0  0  0  0  0  0  0  0  0  0  0
   15.6733  -11.0828  -15.6414 O   0  0  0  0  0  0  0  0  0  0  0  0
   20.3677   -9.4374  -15.2801 C   0  0  0  0  0  0  0  0  0  0  0  0
   19.6759  -10.4557  -16.1331 C   0  0  1  0  0  0  0  0  0  0  0  0
   19.9203  -11.7145  -15.5837 O   0  0  0  0  0  0  0  0  0  0  0  0
   18.2024  -10.1856  -16.2898 C   0  0  2  0  0  0  0  0  0  0  0  0
   17.4937  -11.1696  -17.0303 N   0  0  0  0  0  0  0  0  0  0  0  0
   17.9429   -8.7948  -16.7764 C   0  0  0  0  0  0  0  0  0  0  0  0
   18.0034   -8.5119  -18.0015 O   0  0  0  0  0  0  0  0  0  0  0  0
   15.2137   -6.6281  -17.3307 C   0  0  0  0  0  0  0  0  0  0  0  0
   16.0355   -5.8601  -16.2901 C   0  0  2  0  0  0  0  0  0  0  0  0
   16.0349   -4.4108  -16.7329 C   0  0  0  0  0  0  0  0  0  0  0  0
   17.4053   -6.3682  -16.2938 C   0  0  2  0  0  0  0  0  0  0  0  0
   17.6219   -7.7307  -15.9307 N   0  0  0  0  0  0  0  0  0  0  0  0
   18.3047   -5.4450  -15.5286 C   0  0  0  0  0  0  0  0  0  0  0  0
   19.0366   -4.4918  -16.2117 O   0  0  0  0  0  0  0  0  0  0  0  0
   18.4299   -5.4938  -14.2849 O   0  0  0  0  0  0  0  0  0  0  0  0
  2  1  1  1
  2  4  1  0
  3  2  1  0
  4 10  1  0
  4  5  2  0
  7  6  1  1
  7  8  1  0
  9  7  1  0
  9 10  1  6
 11 12  2  0
 11  9  1  0
 14 13  1  6
 14 16  1  0
 14 15  1  0
 16 17  1  1
 17 11  1  0
 18 16  1  0
 19 18  1  0
 20 18  2  0
M  END
$$$$
