ATV.pdb
     RDKit          3D

 20 19  0  0  1  0  0  0  0  0999 V2000
   18.7961   -9.6401  -19.6652 C   0  0  0  0  0  0  0  0  0  0  0  0
   19.5123  -10.5848  -18.7653 C   0  0  2  0  0  0  0  0  0  0  0  0
   18.9074  -11.8792  -18.6689 N   0  0  0  0  0  0  0  0  0  0  0  0
   19.8252  -10.0101  -17.4149 C   0  0  0  0  0  0  0  0  0  0  0  0
   18.8976   -9.6911  -16.6420 O   0  0  0  0  0  0  0  0  0  0  0  0
   22.7887   -9.5638  -13.5749 C   0  0  0  0  0  0  0  0  0  0  0  0
   22.4805  -10.1325  -14.9258 C   0  0  1  0  0  0  0  0  0  0  0  0
   22.0731  -11.4554  -14.7528 O   0  0  0  0  0  0  0  0  0  0  0  0
   21.4608   -9.3234  -15.6836 C   0  0  2  0  0  0  0  0  0  0  0  0
   21.1602   -9.8135  -16.9829 N   0  0  0  0  0  0  0  0  0  0  0  0
   21.7948   -7.8650  -15.6767 C   0  0  0  0  0  0  0  0  0  0  0  0
   22.6730   -7.3946  -16.4462 O   0  0  0  0  0  0  0  0  0  0  0  0
   20.0413   -4.6891  -16.4329 C   0  0  0  0  0  0  0  0  0  0  0  0
   20.4621   -4.5660  -14.9647 C   0  0  2  0  0  0  0  0  0  0  0  0
   21.0390   -3.1740  -14.8028 C   0  0  0  0  0  0  0  0  0  0  0  0
   21.4975   -5.5566  -14.6799 C   0  0  2  0  0  0  0  0  0  0  0  0
   21.1738   -6.9371  -14.8376 N   0  0  0  0  0  0  0  0  0  0  0  0
   22.1225   -5.2869  -13.3446 C   0  0  0  0  0  0  0  0  0  0  0  0
   23.1614   -4.3796  -13.2536 O   0  0  0  0  0  0  0  0  0  0  0  0
   21.7475   -5.8496  -12.2921 O   0  0  0  0  0  0  0  0  0  0  0  0
  2  1  1  1
  2  4  1  0
  3  2  1  0
  4 10  1  0
  4  5  2  0
  7  6  1  1
  7  8  1  0
  9  7  1  0
  9 10  1  6
 11 12  2  0
 11  9  1  0
 14 13  1  6
 14 16  1  0
 14 15  1  0
 16 17  1  1
 17 11  1  0
 18 16  1  0
 19 18  1  0
 20 18  2  0
M  END
$$$$
