ATV.pdb
     RDKit          3D

 20 19  0  0  1  0  0  0  0  0999 V2000
   15.1948  -12.8507  -14.3684 C   0  0  0  0  0  0  0  0  0  0  0  0
   15.3007  -12.4810  -15.8062 C   0  0  2  0  0  0  0  0  0  0  0  0
   14.8169  -13.4820  -16.7088 N   0  0  0  0  0  0  0  0  0  0  0  0
   16.6590  -11.9797  -16.2007 C   0  0  0  0  0  0  0  0  0  0  0  0
   17.5535  -12.7890  -16.5241 O   0  0  0  0  0  0  0  0  0  0  0  0
   17.4324   -9.8395  -19.0569 C   0  0  0  0  0  0  0  0  0  0  0  0
   18.1176   -9.1998  -17.8888 C   0  0  1  0  0  0  0  0  0  0  0  0
   17.4434   -8.0155  -17.5905 O   0  0  0  0  0  0  0  0  0  0  0  0
   18.2116  -10.1113  -16.6933 C   0  0  2  0  0  0  0  0  0  0  0  0
   16.9640  -10.5961  -16.2166 N   0  0  0  0  0  0  0  0  0  0  0  0
   19.0557   -9.5182  -15.6096 C   0  0  0  0  0  0  0  0  0  0  0  0
   18.5456   -9.1277  -14.5272 O   0  0  0  0  0  0  0  0  0  0  0  0
   23.3878   -9.8117  -15.5501 C   0  0  0  0  0  0  0  0  0  0  0  0
   22.4860   -9.5808  -14.3330 C   0  0  2  0  0  0  0  0  0  0  0  0
   22.0332  -10.9517  -13.8727 C   0  0  0  0  0  0  0  0  0  0  0  0
   21.3226   -8.7975  -14.7424 C   0  0  2  0  0  0  0  0  0  0  0  0
   20.4391   -9.3563  -15.7131 N   0  0  0  0  0  0  0  0  0  0  0  0
   21.7367   -7.4051  -15.1119 C   0  0  0  0  0  0  0  0  0  0  0  0
   22.2721   -6.5778  -14.1426 O   0  0  0  0  0  0  0  0  0  0  0  0
   21.6202   -6.9457  -16.2696 O   0  0  0  0  0  0  0  0  0  0  0  0
  2  1  1  1
  2  4  1  0
  3  2  1  0
  4 10  1  0
  4  5  2  0
  7  6  1  6
  7  8  1  0
  9  7  1  0
  9 10  1  1
 11 12  2  0
 11  9  1  0
 14 13  1  6
 14 16  1  0
 14 15  1  0
 16 17  1  6
 17 11  1  0
 18 16  1  0
 19 18  1  0
 20 18  2  0
M  END
$$$$
