ATV.pdb
     RDKit          3D

 20 19  0  0  1  0  0  0  0  0999 V2000
   15.9356   -9.4069  -16.8884 C   0  0  0  0  0  0  0  0  0  0  0  0
   16.9501   -9.5575  -17.9670 C   0  0  2  0  0  0  0  0  0  0  0  0
   17.0252  -10.8742  -18.5252 N   0  0  0  0  0  0  0  0  0  0  0  0
   18.3045   -9.0268  -17.5984 C   0  0  0  0  0  0  0  0  0  0  0  0
   19.0887   -9.7293  -16.9268 O   0  0  0  0  0  0  0  0  0  0  0  0
   21.8704   -5.6266  -18.0953 C   0  0  0  0  0  0  0  0  0  0  0  0
   20.5073   -6.1028  -18.4934 C   0  0  1  0  0  0  0  0  0  0  0  0
   20.5584   -6.4797  -19.8355 O   0  0  0  0  0  0  0  0  0  0  0  0
   19.9950   -7.2140  -17.6150 C   0  0  2  0  0  0  0  0  0  0  0  0
   18.7276   -7.7334  -17.9929 N   0  0  0  0  0  0  0  0  0  0  0  0
   20.0642   -6.8507  -16.1652 C   0  0  0  0  0  0  0  0  0  0  0  0
   19.1265   -6.2245  -15.6056 O   0  0  0  0  0  0  0  0  0  0  0  0
   22.7962   -8.7304  -13.3667 C   0  0  0  0  0  0  0  0  0  0  0  0
   21.4653   -8.0428  -13.0442 C   0  0  2  0  0  0  0  0  0  0  0  0
   20.3820   -9.0706  -13.3023 C   0  0  0  0  0  0  0  0  0  0  0  0
   21.2829   -6.9084  -13.9467 C   0  0  2  0  0  0  0  0  0  0  0  0
   21.1466   -7.1702  -15.3425 N   0  0  0  0  0  0  0  0  0  0  0  0
   22.3216   -5.8607  -13.6820 C   0  0  0  0  0  0  0  0  0  0  0  0
   23.2076   -5.5164  -14.6856 O   0  0  0  0  0  0  0  0  0  0  0  0
   22.4304   -5.2734  -12.5829 O   0  0  0  0  0  0  0  0  0  0  0  0
  2  1  1  1
  2  4  1  0
  3  2  1  0
  4 10  1  0
  4  5  2  0
  7  6  1  1
  7  8  1  0
  9  7  1  0
  9 10  1  6
 11 12  2  0
 11  9  1  0
 14 13  1  6
 14 16  1  0
 14 15  1  0
 16 17  1  6
 17 11  1  0
 18 16  1  0
 19 18  1  0
 20 18  2  0
M  END
$$$$
