ATV.pdb
     RDKit          3D

 20 19  0  0  1  0  0  0  0  0999 V2000
   17.8315  -12.6163  -15.4892 C   0  0  0  0  0  0  0  0  0  0  0  0
   17.5491  -11.7751  -16.6841 C   0  0  2  0  0  0  0  0  0  0  0  0
   17.7077  -12.4554  -17.9341 N   0  0  0  0  0  0  0  0  0  0  0  0
   18.2589  -10.4530  -16.6712 C   0  0  0  0  0  0  0  0  0  0  0  0
   19.4150  -10.3606  -17.1342 O   0  0  0  0  0  0  0  0  0  0  0  0
   18.1392   -5.5358  -16.2198 C   0  0  0  0  0  0  0  0  0  0  0  0
   17.4002   -6.8384  -16.2429 C   0  0  1  0  0  0  0  0  0  0  0  0
   16.6237   -6.8718  -17.4013 O   0  0  0  0  0  0  0  0  0  0  0  0
   18.3133   -8.0320  -16.1419 C   0  0  2  0  0  0  0  0  0  0  0  0
   17.6501   -9.2886  -16.1409 N   0  0  0  0  0  0  0  0  0  0  0  0
   19.2883   -7.8899  -15.0160 C   0  0  0  0  0  0  0  0  0  0  0  0
   18.9704   -8.1957  -13.8370 O   0  0  0  0  0  0  0  0  0  0  0  0
   23.5207   -7.9168  -15.5350 C   0  0  0  0  0  0  0  0  0  0  0  0
   22.7569   -8.1630  -14.2297 C   0  0  2  0  0  0  0  0  0  0  0  0
   22.2865   -9.6028  -14.2771 C   0  0  0  0  0  0  0  0  0  0  0  0
   21.5978   -7.2751  -14.1799 C   0  0  2  0  0  0  0  0  0  0  0  0
   20.5926   -7.4189  -15.1821 N   0  0  0  0  0  0  0  0  0  0  0  0
   22.0399   -5.8494  -14.0443 C   0  0  0  0  0  0  0  0  0  0  0  0
   21.7538   -4.9522  -15.0562 O   0  0  0  0  0  0  0  0  0  0  0  0
   22.6647   -5.4230  -13.0480 O   0  0  0  0  0  0  0  0  0  0  0  0
  2  1  1  1
  2  4  1  0
  3  2  1  0
  4 10  1  0
  4  5  2  0
  7  6  1  6
  7  8  1  0
  9  7  1  0
  9 10  1  1
 11 12  2  0
 11  9  1  0
 14 13  1  6
 14 16  1  0
 14 15  1  0
 16 17  1  6
 17 11  1  0
 18 16  1  0
 19 18  1  0
 20 18  2  0
M  END
$$$$
