ATV.pdb
     RDKit          3D

 20 19  0  0  1  0  0  0  0  0999 V2000
   16.0566  -11.7861  -17.2857 C   0  0  0  0  0  0  0  0  0  0  0  0
   16.9657  -11.5060  -16.1410 C   0  0  2  0  0  0  0  0  0  0  0  0
   16.3983  -11.7856  -14.8563 N   0  0  0  0  0  0  0  0  0  0  0  0
   17.5960  -10.1452  -16.1914 C   0  0  0  0  0  0  0  0  0  0  0  0
   18.4615   -9.8896  -17.0546 O   0  0  0  0  0  0  0  0  0  0  0  0
   17.4655   -5.3484  -15.2283 C   0  0  0  0  0  0  0  0  0  0  0  0
   16.8148   -6.6974  -15.2303 C   0  0  1  0  0  0  0  0  0  0  0  0
   15.8779   -6.7214  -16.2636 O   0  0  0  0  0  0  0  0  0  0  0  0
   17.8060   -7.8260  -15.3418 C   0  0  2  0  0  0  0  0  0  0  0  0
   17.2359   -9.1258  -15.2756 N   0  0  0  0  0  0  0  0  0  0  0  0
   18.9559   -7.6484  -14.4013 C   0  0  0  0  0  0  0  0  0  0  0  0
   18.8086   -7.7892  -13.1591 O   0  0  0  0  0  0  0  0  0  0  0  0
   23.0008   -7.8911  -15.7636 C   0  0  0  0  0  0  0  0  0  0  0  0
   22.5325   -8.1485  -14.3275 C   0  0  2  0  0  0  0  0  0  0  0  0
   22.0396   -9.5810  -14.2911 C   0  0  0  0  0  0  0  0  0  0  0  0
   21.4260   -7.2464  -14.0170 C   0  0  2  0  0  0  0  0  0  0  0  0
   20.2480   -7.3209  -14.8184 N   0  0  0  0  0  0  0  0  0  0  0  0
   21.9217   -5.8370  -13.8969 C   0  0  0  0  0  0  0  0  0  0  0  0
   21.4526   -4.8768  -14.7737 O   0  0  0  0  0  0  0  0  0  0  0  0
   22.7514   -5.4794  -13.0317 O   0  0  0  0  0  0  0  0  0  0  0  0
  2  1  1  6
  2  4  1  0
  3  2  1  0
  4 10  1  0
  4  5  2  0
  7  6  1  6
  7  8  1  0
  9  7  1  0
  9 10  1  1
 11 12  2  0
 11  9  1  0
 14 13  1  6
 14 16  1  0
 14 15  1  0
 16 17  1  6
 17 11  1  0
 18 16  1  0
 19 18  1  0
 20 18  2  0
M  END
$$$$
