HEE.pdb
     RDKit          3D

 29 29  0  0  1  0  0  0  0  0999 V2000
    9.7646  -15.8480   17.9969 N   0  0  0  0  0  0  0  0  0  0  0  0
   10.6170  -14.7096   18.2454 C   0  0  1  0  0  0  0  0  0  0  0  0
   10.0422  -13.8803   19.3792 C   0  0  0  0  0  0  0  0  0  0  0  0
    8.7732  -13.2876   18.9314 C   0  0  0  0  0  0  0  0  0  0  0  0
    8.1825  -13.4120   17.7046 C   0  0  0  0  0  0  0  0  0  0  0  0
    7.0347  -12.7039   17.7348 N   0  0  0  0  0  0  0  0  0  0  0  0
    6.9034  -12.1445   18.9545 C   0  0  0  0  0  0  0  0  0  0  0  0
    7.9813  -12.5088   19.6908 N   0  0  0  0  0  0  0  0  0  0  0  0
   11.9414  -15.1959   18.7008 C   0  0  0  0  0  0  0  0  0  0  0  0
   11.9847  -16.2205   19.4296 O   0  0  0  0  0  0  0  0  0  0  0  0
   13.1479  -14.5110   18.3168 N   0  0  0  0  0  0  0  0  0  0  0  0
   14.3792  -14.9946   18.8401 C   0  0  1  0  0  0  0  0  0  0  0  0
   15.5154  -14.2331   18.1420 C   0  0  0  0  0  0  0  0  0  0  0  0
   15.6082  -14.6862   16.7068 C   0  0  0  0  0  0  0  0  0  0  0  0
   16.7587  -14.0293   16.0248 C   0  0  0  0  0  0  0  0  0  0  0  0
   16.5889  -13.2476   15.0350 O   0  0  0  0  0  0  0  0  0  0  0  0
   14.5425  -14.6811   20.2947 C   0  0  0  0  0  0  0  0  0  0  0  0
   13.5458  -14.2598   20.9336 O   0  0  0  0  0  0  0  0  0  0  0  0
   18.0610  -14.2411   16.4384 O   0  0  0  0  0  0  0  0  0  0  0  0
   15.7617  -14.8374   20.9775 N   0  0  0  0  0  0  0  0  0  0  0  0
   15.8388  -15.1912   22.4227 C   0  0  1  0  0  0  0  0  0  0  0  0
   15.1348  -16.4827   22.6529 C   0  0  0  0  0  0  0  0  0  0  0  0
   13.9744  -16.3349   23.5766 C   0  0  0  0  0  0  0  0  0  0  0  0
   13.6922  -17.5652   24.3376 C   0  0  0  0  0  0  0  0  0  0  0  0
   13.2715  -18.6109   23.8192 O   0  0  0  0  0  0  0  0  0  0  0  0
   17.2769  -15.3168   22.7085 C   0  0  0  0  0  0  0  0  0  0  0  0
   18.0102  -15.9960   21.9654 O   0  0  0  0  0  0  0  0  0  0  0  0
   13.8885  -17.6270   25.7305 O   0  0  0  0  0  0  0  0  0  0  0  0
   17.8355  -14.6882   23.7985 O   0  0  0  0  0  0  0  0  0  0  0  0
  2  1  1  1
  2  3  1  0
  3  4  1  0
  4  8  1  0
  4  5  2  0
  5  6  1  0
  7  6  1  0
  8  7  2  0
  9  2  1  0
 10  9  2  0
 11  9  1  0
 12 11  1  0
 12 13  1  6
 14 13  1  0
 15 16  2  0
 15 14  1  0
 17 12  1  0
 17 20  1  0
 18 17  2  0
 19 15  1  0
 21 20  1  0
 21 26  1  0
 21 22  1  6
 23 22  1  0
 24 28  1  0
 24 23  1  0
 25 24  2  0
 26 29  1  0
 27 26  2  0
M  END
$$$$
