HEE.pdb
     RDKit          3D

 29 29  0  0  1  0  0  0  0  0999 V2000
    8.8355  -15.9212   16.6617 N   0  0  0  0  0  0  0  0  0  0  0  0
    9.6081  -14.9595   17.4118 C   0  0  1  0  0  0  0  0  0  0  0  0
    8.7350  -14.3258   18.4795 C   0  0  0  0  0  0  0  0  0  0  0  0
    7.7116  -13.5006   17.8209 C   0  0  0  0  0  0  0  0  0  0  0  0
    7.5207  -13.3237   16.4786 C   0  0  0  0  0  0  0  0  0  0  0  0
    6.4731  -12.4878   16.3259 N   0  0  0  0  0  0  0  0  0  0  0  0
    6.0123  -12.1442   17.5454 C   0  0  0  0  0  0  0  0  0  0  0  0
    6.7818  -12.7734   18.4667 N   0  0  0  0  0  0  0  0  0  0  0  0
   10.6989  -15.6718   18.1194 C   0  0  0  0  0  0  0  0  0  0  0  0
   10.4078  -16.3541   19.1355 O   0  0  0  0  0  0  0  0  0  0  0  0
   12.0579  -15.5839   17.6530 N   0  0  0  0  0  0  0  0  0  0  0  0
   13.0510  -16.3121   18.3653 C   0  0  1  0  0  0  0  0  0  0  0  0
   14.2052  -16.6013   17.3947 C   0  0  0  0  0  0  0  0  0  0  0  0
   14.7237  -15.2994   16.8378 C   0  0  0  0  0  0  0  0  0  0  0  0
   15.8757  -15.5434   15.9250 C   0  0  0  0  0  0  0  0  0  0  0  0
   16.9178  -16.1599   16.3169 O   0  0  0  0  0  0  0  0  0  0  0  0
   13.6669  -15.5075   19.4672 C   0  0  0  0  0  0  0  0  0  0  0  0
   13.8814  -14.2852   19.2703 O   0  0  0  0  0  0  0  0  0  0  0  0
   15.8622  -15.1100   14.6120 O   0  0  0  0  0  0  0  0  0  0  0  0
   14.0158  -16.0593   20.7126 N   0  0  0  0  0  0  0  0  0  0  0  0
   14.5434  -15.2403   21.8398 C   0  0  1  0  0  0  0  0  0  0  0  0
   13.7336  -15.5018   23.0614 C   0  0  0  0  0  0  0  0  0  0  0  0
   13.6138  -16.9578   23.3568 C   0  0  0  0  0  0  0  0  0  0  0  0
   12.8137  -17.2297   24.5644 C   0  0  0  0  0  0  0  0  0  0  0  0
   12.7195  -18.3511   25.0866 O   0  0  0  0  0  0  0  0  0  0  0  0
   15.9322  -15.6917   22.0218 C   0  0  0  0  0  0  0  0  0  0  0  0
   16.6803  -15.1170   22.8351 O   0  0  0  0  0  0  0  0  0  0  0  0
   12.0925  -16.2080   25.2114 O   0  0  0  0  0  0  0  0  0  0  0  0
   16.4278  -16.7536   21.2991 O   0  0  0  0  0  0  0  0  0  0  0  0
  2  1  1  1
  2  3  1  0
  3  4  1  0
  4  8  1  0
  4  5  2  0
  5  6  1  0
  7  6  1  0
  8  7  2  0
  9  2  1  0
 10  9  2  0
 11  9  1  0
 12 11  1  0
 12 13  1  6
 14 13  1  0
 15 16  2  0
 15 14  1  0
 17 12  1  0
 17 20  1  0
 18 17  2  0
 19 15  1  0
 21 20  1  0
 21 26  1  0
 21 22  1  1
 23 22  1  0
 24 28  1  0
 24 23  1  0
 25 24  2  0
 26 29  1  0
 27 26  2  0
M  END
$$$$
