HEE.pdb
     RDKit          3D

 29 29  0  0  1  0  0  0  0  0999 V2000
    8.4769  -18.9547   19.5020 N   0  0  0  0  0  0  0  0  0  0  0  0
    9.5653  -18.3126   20.2002 C   0  0  1  0  0  0  0  0  0  0  0  0
    9.8133  -16.9390   19.6040 C   0  0  0  0  0  0  0  0  0  0  0  0
   10.4931  -17.1039   18.3106 C   0  0  0  0  0  0  0  0  0  0  0  0
   11.8057  -17.4193   18.0932 C   0  0  0  0  0  0  0  0  0  0  0  0
   11.9947  -17.4657   16.7584 N   0  0  0  0  0  0  0  0  0  0  0  0
   10.8267  -17.1857   16.1460 C   0  0  0  0  0  0  0  0  0  0  0  0
    9.9011  -16.9627   17.1105 N   0  0  0  0  0  0  0  0  0  0  0  0
    9.1665  -18.0996   21.6121 C   0  0  0  0  0  0  0  0  0  0  0  0
    8.4789  -17.0844   21.8933 O   0  0  0  0  0  0  0  0  0  0  0  0
    9.5575  -19.0337   22.6353 N   0  0  0  0  0  0  0  0  0  0  0  0
    9.0962  -18.7964   23.9600 C   0  0  1  0  0  0  0  0  0  0  0  0
    8.6581  -20.1442   24.5512 C   0  0  0  0  0  0  0  0  0  0  0  0
    8.1923  -19.9360   25.9701 C   0  0  0  0  0  0  0  0  0  0  0  0
    7.7030  -21.2171   26.5527 C   0  0  0  0  0  0  0  0  0  0  0  0
    6.4940  -21.5914   26.4193 O   0  0  0  0  0  0  0  0  0  0  0  0
   10.1868  -18.3151   24.8654 C   0  0  0  0  0  0  0  0  0  0  0  0
   11.3257  -18.8360   24.7630 O   0  0  0  0  0  0  0  0  0  0  0  0
    8.5421  -22.0549   27.2640 O   0  0  0  0  0  0  0  0  0  0  0  0
    9.9928  -17.3059   25.8251 N   0  0  0  0  0  0  0  0  0  0  0  0
   11.0800  -16.8257   26.7235 C   0  0  1  0  0  0  0  0  0  0  0  0
   10.8383  -15.3984   27.0718 C   0  0  0  0  0  0  0  0  0  0  0  0
    9.5249  -15.1981   27.7474 C   0  0  0  0  0  0  0  0  0  0  0  0
    9.2871  -13.7932   28.1241 C   0  0  0  0  0  0  0  0  0  0  0  0
    8.6889  -12.9812   27.4015 O   0  0  0  0  0  0  0  0  0  0  0  0
   10.9937  -17.6812   27.9178 C   0  0  0  0  0  0  0  0  0  0  0  0
    9.9845  -18.3829   28.1189 O   0  0  0  0  0  0  0  0  0  0  0  0
    9.7355  -13.2783   29.3555 O   0  0  0  0  0  0  0  0  0  0  0  0
   12.0233  -17.7213   28.8309 O   0  0  0  0  0  0  0  0  0  0  0  0
  2  1  1  6
  2  3  1  0
  3  4  1  0
  4  8  1  0
  4  5  2  0
  5  6  1  0
  7  6  1  0
  8  7  2  0
  9  2  1  0
 10  9  2  0
 11  9  1  0
 12 11  1  0
 12 13  1  1
 14 13  1  0
 15 16  2  0
 15 14  1  0
 17 12  1  0
 17 20  1  0
 18 17  2  0
 19 15  1  0
 21 20  1  0
 21 26  1  0
 21 22  1  1
 23 22  1  0
 24 28  1  0
 24 23  1  0
 25 24  2  0
 26 29  1  0
 27 26  2  0
M  END
$$$$
