HEE.pdb
     RDKit          3D

 29 29  0  0  1  0  0  0  0  0999 V2000
    5.4508  -14.9816   21.3045 N   0  0  0  0  0  0  0  0  0  0  0  0
    6.7003  -15.6735   21.5152 C   0  0  1  0  0  0  0  0  0  0  0  0
    7.8398  -14.6712   21.5409 C   0  0  0  0  0  0  0  0  0  0  0  0
    8.0936  -14.2130   20.1669 C   0  0  0  0  0  0  0  0  0  0  0  0
    7.4271  -14.5779   19.0302 C   0  0  0  0  0  0  0  0  0  0  0  0
    7.9929  -13.9164   17.9998 N   0  0  0  0  0  0  0  0  0  0  0  0
    8.9951  -13.1502   18.4754 C   0  0  0  0  0  0  0  0  0  0  0  0
    9.0531  -13.3372   19.8165 N   0  0  0  0  0  0  0  0  0  0  0  0
    6.6689  -16.3189   22.8495 C   0  0  0  0  0  0  0  0  0  0  0  0
    6.4381  -15.6009   23.8564 O   0  0  0  0  0  0  0  0  0  0  0  0
    6.8970  -17.7335   22.9875 N   0  0  0  0  0  0  0  0  0  0  0  0
    6.9111  -18.2770   24.3021 C   0  0  1  0  0  0  0  0  0  0  0  0
    6.8522  -19.8064   24.1766 C   0  0  0  0  0  0  0  0  0  0  0  0
    6.9712  -20.4220   25.5480 C   0  0  0  0  0  0  0  0  0  0  0  0
    6.9009  -21.9078   25.4617 C   0  0  0  0  0  0  0  0  0  0  0  0
    6.0179  -22.5712   26.0939 O   0  0  0  0  0  0  0  0  0  0  0  0
    8.1947  -17.9986   25.0201 C   0  0  0  0  0  0  0  0  0  0  0  0
    9.2689  -18.0467   24.3699 O   0  0  0  0  0  0  0  0  0  0  0  0
    7.7928  -22.6301   24.6905 O   0  0  0  0  0  0  0  0  0  0  0  0
    8.2513  -17.6858   26.3898 N   0  0  0  0  0  0  0  0  0  0  0  0
    9.5098  -17.2751   27.0733 C   0  0  1  0  0  0  0  0  0  0  0  0
    9.2423  -16.0846   27.9265 C   0  0  0  0  0  0  0  0  0  0  0  0
   10.3743  -15.1151   27.9115 C   0  0  0  0  0  0  0  0  0  0  0  0
   10.1053  -13.9135   28.7216 C   0  0  0  0  0  0  0  0  0  0  0  0
    9.0809  -13.7621   29.4047 O   0  0  0  0  0  0  0  0  0  0  0  0
    9.8946  -18.4350   27.8932 C   0  0  0  0  0  0  0  0  0  0  0  0
    9.0613  -19.3204   28.1630 O   0  0  0  0  0  0  0  0  0  0  0  0
   11.0173  -12.8417   28.7685 O   0  0  0  0  0  0  0  0  0  0  0  0
   11.1781  -18.5617   28.3749 O   0  0  0  0  0  0  0  0  0  0  0  0
  2  1  1  1
  2  3  1  0
  3  4  1  0
  4  8  1  0
  4  5  2  0
  5  6  1  0
  7  6  1  0
  8  7  2  0
  9  2  1  0
 10  9  2  0
 11  9  1  0
 12 11  1  0
 12 13  1  6
 14 13  1  0
 15 16  2  0
 15 14  1  0
 17 12  1  0
 17 20  1  0
 18 17  2  0
 19 15  1  0
 21 20  1  0
 21 26  1  0
 21 22  1  1
 23 22  1  0
 24 28  1  0
 24 23  1  0
 25 24  2  0
 26 29  1  0
 27 26  2  0
M  END
$$$$
