HEE.pdb
     RDKit          3D

 29 29  0  0  1  0  0  0  0  0999 V2000
    9.9322  -15.7381   18.2887 N   0  0  0  0  0  0  0  0  0  0  0  0
   10.8398  -14.6291   18.4641 C   0  0  1  0  0  0  0  0  0  0  0  0
   10.3482  -13.7421   19.5934 C   0  0  0  0  0  0  0  0  0  0  0  0
    9.0570  -13.1567   19.2032 C   0  0  0  0  0  0  0  0  0  0  0  0
    8.8412  -11.9766   18.5473 C   0  0  0  0  0  0  0  0  0  0  0  0
    7.5081  -11.8350   18.3977 N   0  0  0  0  0  0  0  0  0  0  0  0
    6.8952  -12.9027   18.9473 C   0  0  0  0  0  0  0  0  0  0  0  0
    7.8577  -13.7173   19.4440 N   0  0  0  0  0  0  0  0  0  0  0  0
   12.1618  -15.1559   18.8794 C   0  0  0  0  0  0  0  0  0  0  0  0
   12.1954  -16.1688   19.6248 O   0  0  0  0  0  0  0  0  0  0  0  0
   13.3771  -14.5225   18.4387 N   0  0  0  0  0  0  0  0  0  0  0  0
   14.6108  -15.0815   18.8736 C   0  0  1  0  0  0  0  0  0  0  0  0
   15.7364  -14.4102   18.0734 C   0  0  0  0  0  0  0  0  0  0  0  0
   15.6738  -14.8769   16.6409 C   0  0  0  0  0  0  0  0  0  0  0  0
   16.8439  -14.3656   15.8732 C   0  0  0  0  0  0  0  0  0  0  0  0
   17.9170  -15.0412   15.7652 O   0  0  0  0  0  0  0  0  0  0  0  0
   14.9098  -14.7585   20.3043 C   0  0  0  0  0  0  0  0  0  0  0  0
   14.7434  -13.5777   20.7007 O   0  0  0  0  0  0  0  0  0  0  0  0
   16.8141  -13.1343   15.2447 O   0  0  0  0  0  0  0  0  0  0  0  0
   15.3687  -15.7180   21.2241 N   0  0  0  0  0  0  0  0  0  0  0  0
   15.5931  -15.4133   22.6651 C   0  0  1  0  0  0  0  0  0  0  0  0
   15.0603  -16.5292   23.4945 C   0  0  0  0  0  0  0  0  0  0  0  0
   13.5704  -16.5699   23.4936 C   0  0  0  0  0  0  0  0  0  0  0  0
   13.0320  -17.7186   24.2440 C   0  0  0  0  0  0  0  0  0  0  0  0
   13.7425  -18.5983   24.7542 O   0  0  0  0  0  0  0  0  0  0  0  0
   17.0534  -15.3012   22.8084 C   0  0  0  0  0  0  0  0  0  0  0  0
   17.8059  -15.6357   21.8740 O   0  0  0  0  0  0  0  0  0  0  0  0
   11.6467  -17.8884   24.4302 O   0  0  0  0  0  0  0  0  0  0  0  0
   17.6120  -14.8263   23.9737 O   0  0  0  0  0  0  0  0  0  0  0  0
  2  1  1  1
  2  3  1  0
  3  4  1  0
  4  8  1  0
  4  5  2  0
  5  6  1  0
  7  6  1  0
  8  7  2  0
  9  2  1  0
 10  9  2  0
 11  9  1  0
 12 11  1  0
 12 13  1  6
 14 13  1  0
 15 16  2  0
 15 14  1  0
 17 12  1  0
 17 20  1  0
 18 17  2  0
 19 15  1  0
 21 20  1  0
 21 26  1  0
 21 22  1  1
 23 22  1  0
 24 28  1  0
 24 23  1  0
 25 24  2  0
 26 29  1  0
 27 26  2  0
M  END
$$$$
