HEE.pdb
     RDKit          3D

 29 29  0  0  1  0  0  0  0  0999 V2000
   10.1532  -15.8420   18.6116 N   0  0  0  0  0  0  0  0  0  0  0  0
   10.5772  -14.5069   18.9609 C   0  0  1  0  0  0  0  0  0  0  0  0
    9.3828  -13.5705   18.9379 C   0  0  0  0  0  0  0  0  0  0  0  0
    8.7617  -13.6338   17.6066 C   0  0  0  0  0  0  0  0  0  0  0  0
    8.8367  -12.7038   16.6070 C   0  0  0  0  0  0  0  0  0  0  0  0
    8.1184  -13.1712   15.5653 N   0  0  0  0  0  0  0  0  0  0  0  0
    7.6010  -14.3704   15.8996 C   0  0  0  0  0  0  0  0  0  0  0  0
    8.0020  -14.6520   17.1633 N   0  0  0  0  0  0  0  0  0  0  0  0
   11.0852  -14.5169   20.3536 C   0  0  0  0  0  0  0  0  0  0  0  0
   11.3383  -13.4155   20.9065 O   0  0  0  0  0  0  0  0  0  0  0  0
   11.2830  -15.7583   21.0551 N   0  0  0  0  0  0  0  0  0  0  0  0
   11.9283  -15.7077   22.3219 C   0  0  1  0  0  0  0  0  0  0  0  0
   10.9856  -16.3453   23.3529 C   0  0  0  0  0  0  0  0  0  0  0  0
   11.6301  -16.2914   24.7151 C   0  0  0  0  0  0  0  0  0  0  0  0
   10.7610  -16.9494   25.7307 C   0  0  0  0  0  0  0  0  0  0  0  0
    9.6412  -17.4658   25.4159 O   0  0  0  0  0  0  0  0  0  0  0  0
   13.1680  -16.5456   22.3638 C   0  0  0  0  0  0  0  0  0  0  0  0
   13.0943  -17.7454   21.9978 O   0  0  0  0  0  0  0  0  0  0  0  0
   11.1339  -17.0274   27.0599 O   0  0  0  0  0  0  0  0  0  0  0  0
   14.4112  -16.0492   22.7944 N   0  0  0  0  0  0  0  0  0  0  0  0
   15.6529  -16.8725   22.7968 C   0  0  1  0  0  0  0  0  0  0  0  0
   16.8003  -16.0365   22.3482 C   0  0  0  0  0  0  0  0  0  0  0  0
   16.3563  -14.7497   21.7412 C   0  0  0  0  0  0  0  0  0  0  0  0
   17.4701  -13.9824   21.1554 C   0  0  0  0  0  0  0  0  0  0  0  0
   18.3294  -13.3962   21.8315 O   0  0  0  0  0  0  0  0  0  0  0  0
   15.8259  -17.2978   24.1950 C   0  0  0  0  0  0  0  0  0  0  0  0
   16.7559  -18.0638   24.5103 O   0  0  0  0  0  0  0  0  0  0  0  0
   17.6276  -13.8673   19.7610 O   0  0  0  0  0  0  0  0  0  0  0  0
   14.9658  -16.8581   25.1760 O   0  0  0  0  0  0  0  0  0  0  0  0
  2  1  1  1
  2  3  1  0
  3  4  1  0
  4  8  1  0
  4  5  2  0
  5  6  1  0
  7  6  1  0
  8  7  2  0
  9  2  1  0
 10  9  2  0
 11  9  1  0
 12 11  1  0
 12 13  1  1
 14 13  1  0
 15 16  2  0
 15 14  1  0
 17 12  1  0
 17 20  1  0
 18 17  2  0
 19 15  1  0
 21 20  1  0
 21 26  1  0
 21 22  1  1
 23 22  1  0
 24 28  1  0
 24 23  1  0
 25 24  2  0
 26 29  1  0
 27 26  2  0
M  END
$$$$
