HEE.pdb
     RDKit          3D

 29 29  0  0  1  0  0  0  0  0999 V2000
    9.2348  -16.3755   18.4440 N   0  0  0  0  0  0  0  0  0  0  0  0
    9.3100  -15.3158   19.4216 C   0  0  1  0  0  0  0  0  0  0  0  0
    7.9918  -14.5645   19.4611 C   0  0  0  0  0  0  0  0  0  0  0  0
    7.6623  -14.1218   18.0982 C   0  0  0  0  0  0  0  0  0  0  0  0
    8.3469  -14.3919   16.9458 C   0  0  0  0  0  0  0  0  0  0  0  0
    7.6906  -13.7870   15.9344 N   0  0  0  0  0  0  0  0  0  0  0  0
    6.6147  -13.1487   16.4371 C   0  0  0  0  0  0  0  0  0  0  0  0
    6.6017  -13.3590   17.7759 N   0  0  0  0  0  0  0  0  0  0  0  0
    9.4991  -15.9173   20.7633 C   0  0  0  0  0  0  0  0  0  0  0  0
    8.7658  -15.5213   21.7057 O   0  0  0  0  0  0  0  0  0  0  0  0
   10.4982  -16.9307   20.9805 N   0  0  0  0  0  0  0  0  0  0  0  0
   10.6561  -17.4326   22.3023 C   0  0  1  0  0  0  0  0  0  0  0  0
   11.1406  -18.8859   22.1959 C   0  0  0  0  0  0  0  0  0  0  0  0
   11.2969  -19.4598   23.5816 C   0  0  0  0  0  0  0  0  0  0  0  0
   11.7982  -20.8612   23.5133 C   0  0  0  0  0  0  0  0  0  0  0  0
   11.9633  -21.4566   22.4007 O   0  0  0  0  0  0  0  0  0  0  0  0
   11.7356  -16.7211   23.0568 C   0  0  0  0  0  0  0  0  0  0  0  0
   12.7911  -16.4138   22.4481 O   0  0  0  0  0  0  0  0  0  0  0  0
   12.1057  -21.5756   24.6565 O   0  0  0  0  0  0  0  0  0  0  0  0
   11.6204  -16.3815   24.4165 N   0  0  0  0  0  0  0  0  0  0  0  0
   12.6602  -15.6024   25.1454 C   0  0  1  0  0  0  0  0  0  0  0  0
   12.1404  -15.2201   26.4872 C   0  0  0  0  0  0  0  0  0  0  0  0
   11.7707  -16.4083   27.3075 C   0  0  0  0  0  0  0  0  0  0  0  0
   11.4200  -16.0554   28.6949 C   0  0  0  0  0  0  0  0  0  0  0  0
   11.9586  -16.5654   29.6893 O   0  0  0  0  0  0  0  0  0  0  0  0
   13.8073  -16.5164   25.2657 C   0  0  0  0  0  0  0  0  0  0  0  0
   13.6535  -17.7435   25.1187 O   0  0  0  0  0  0  0  0  0  0  0  0
   10.4295  -15.0959   28.9792 O   0  0  0  0  0  0  0  0  0  0  0  0
   15.0665  -16.0331   25.5417 O   0  0  0  0  0  0  0  0  0  0  0  0
  2  1  1  6
  2  3  1  0
  3  4  1  0
  4  8  1  0
  4  5  2  0
  5  6  1  0
  7  6  1  0
  8  7  2  0
  9  2  1  0
 10  9  2  0
 11  9  1  0
 12 11  1  0
 12 13  1  6
 14 13  1  0
 15 16  2  0
 15 14  1  0
 17 12  1  0
 17 20  1  0
 18 17  2  0
 19 15  1  0
 21 20  1  0
 21 26  1  0
 21 22  1  1
 23 22  1  0
 24 28  1  0
 24 23  1  0
 25 24  2  0
 26 29  1  0
 27 26  2  0
M  END
$$$$
