HEE.pdb
     RDKit          3D

 29 29  0  0  1  0  0  0  0  0999 V2000
   15.3868  -12.7920   17.8464 N   0  0  0  0  0  0  0  0  0  0  0  0
   14.9218  -14.1492   18.0077 C   0  0  1  0  0  0  0  0  0  0  0  0
   16.1111  -15.0838   18.1337 C   0  0  0  0  0  0  0  0  0  0  0  0
   16.7877  -15.1616   16.8305 C   0  0  0  0  0  0  0  0  0  0  0  0
   16.8655  -14.1890   15.8726 C   0  0  0  0  0  0  0  0  0  0  0  0
   17.5785  -14.6912   14.8435 N   0  0  0  0  0  0  0  0  0  0  0  0
   17.9432  -15.9537   15.1450 C   0  0  0  0  0  0  0  0  0  0  0  0
   17.4516  -16.2397   16.3752 N   0  0  0  0  0  0  0  0  0  0  0  0
   14.1658  -14.2463   19.2793 C   0  0  0  0  0  0  0  0  0  0  0  0
   14.7506  -13.9351   20.3487 O   0  0  0  0  0  0  0  0  0  0  0  0
   12.7951  -14.6861   19.2879 N   0  0  0  0  0  0  0  0  0  0  0  0
   12.1487  -14.8149   20.5486 C   0  0  1  0  0  0  0  0  0  0  0  0
   10.6712  -15.1406   20.2856 C   0  0  0  0  0  0  0  0  0  0  0  0
   10.5809  -16.2498   19.2680 C   0  0  0  0  0  0  0  0  0  0  0  0
    9.1576  -16.6062   19.0086 C   0  0  0  0  0  0  0  0  0  0  0  0
    8.2016  -15.9928   19.5825 O   0  0  0  0  0  0  0  0  0  0  0  0
   12.6649  -15.9777   21.3373 C   0  0  0  0  0  0  0  0  0  0  0  0
   13.4822  -16.7594   20.7896 O   0  0  0  0  0  0  0  0  0  0  0  0
    8.8141  -17.6195   18.1326 O   0  0  0  0  0  0  0  0  0  0  0  0
   12.2756  -16.2338   22.6641 N   0  0  0  0  0  0  0  0  0  0  0  0
   13.1335  -16.9777   23.6285 C   0  0  1  0  0  0  0  0  0  0  0  0
   14.4088  -16.2358   23.8289 C   0  0  0  0  0  0  0  0  0  0  0  0
   15.5452  -16.8604   23.0942 C   0  0  0  0  0  0  0  0  0  0  0  0
   16.8367  -16.2133   23.3872 C   0  0  0  0  0  0  0  0  0  0  0  0
   17.5856  -15.7504   22.5132 O   0  0  0  0  0  0  0  0  0  0  0  0
   12.3519  -17.0279   24.8744 C   0  0  0  0  0  0  0  0  0  0  0  0
   11.3021  -16.3672   24.9869 O   0  0  0  0  0  0  0  0  0  0  0  0
   17.3069  -16.0797   24.7076 O   0  0  0  0  0  0  0  0  0  0  0  0
   12.7655  -17.8033   25.9341 O   0  0  0  0  0  0  0  0  0  0  0  0
  2  1  1  1
  2  3  1  0
  3  4  1  0
  4  8  1  0
  4  5  2  0
  5  6  1  0
  7  6  1  0
  8  7  2  0
  9  2  1  0
 10  9  2  0
 11  9  1  0
 12 11  1  0
 12 13  1  6
 14 13  1  0
 15 16  2  0
 15 14  1  0
 17 12  1  0
 17 20  1  0
 18 17  2  0
 19 15  1  0
 21 20  1  0
 21 26  1  0
 21 22  1  1
 23 22  1  0
 24 28  1  0
 24 23  1  0
 25 24  2  0
 26 29  1  0
 27 26  2  0
M  END
$$$$
