HEE.pdb
     RDKit          3D

 29 29  0  0  1  0  0  0  0  0999 V2000
    8.5586  -16.3540   20.1617 N   0  0  0  0  0  0  0  0  0  0  0  0
    8.0562  -15.2361   20.9246 C   0  0  1  0  0  0  0  0  0  0  0  0
    6.8684  -14.6218   20.2066 C   0  0  0  0  0  0  0  0  0  0  0  0
    7.3015  -14.1844   18.8712 C   0  0  0  0  0  0  0  0  0  0  0  0
    7.9399  -13.0211   18.5416 C   0  0  0  0  0  0  0  0  0  0  0  0
    8.1442  -13.0358   17.2083 N   0  0  0  0  0  0  0  0  0  0  0  0
    7.6455  -14.1835   16.7066 C   0  0  0  0  0  0  0  0  0  0  0  0
    7.1254  -14.8905   17.7394 N   0  0  0  0  0  0  0  0  0  0  0  0
    7.5560  -15.7346   22.2282 C   0  0  0  0  0  0  0  0  0  0  0  0
    6.9217  -14.9403   22.9694 O   0  0  0  0  0  0  0  0  0  0  0  0
    7.7912  -17.0956   22.6340 N   0  0  0  0  0  0  0  0  0  0  0  0
    7.4359  -17.4615   23.9621 C   0  0  1  0  0  0  0  0  0  0  0  0
    7.6600  -18.9738   24.1063 C   0  0  0  0  0  0  0  0  0  0  0  0
    7.3536  -19.3881   25.5235 C   0  0  0  0  0  0  0  0  0  0  0  0
    7.5415  -20.8567   25.6907 C   0  0  0  0  0  0  0  0  0  0  0  0
    8.0628  -21.5706   24.7752 O   0  0  0  0  0  0  0  0  0  0  0  0
    8.3352  -16.8397   24.9844 C   0  0  0  0  0  0  0  0  0  0  0  0
    9.5761  -16.8660   24.7879 O   0  0  0  0  0  0  0  0  0  0  0  0
    7.1571  -21.5075   26.8486 O   0  0  0  0  0  0  0  0  0  0  0  0
    7.8527  -16.2274   26.1547 N   0  0  0  0  0  0  0  0  0  0  0  0
    8.4609  -14.9959   26.7319 C   0  0  1  0  0  0  0  0  0  0  0  0
    7.3940  -13.9869   26.9776 C   0  0  0  0  0  0  0  0  0  0  0  0
    7.9115  -12.7806   27.6836 C   0  0  0  0  0  0  0  0  0  0  0  0
    6.8924  -11.7259   27.8301 C   0  0  0  0  0  0  0  0  0  0  0  0
    6.4649  -11.3328   28.9264 O   0  0  0  0  0  0  0  0  0  0  0  0
    9.0760  -15.4308   27.9961 C   0  0  0  0  0  0  0  0  0  0  0  0
    9.7895  -14.6483   28.6518 O   0  0  0  0  0  0  0  0  0  0  0  0
    6.3312  -11.0878   26.7074 O   0  0  0  0  0  0  0  0  0  0  0  0
    8.8746  -16.7057   28.4750 O   0  0  0  0  0  0  0  0  0  0  0  0
  2  1  1  6
  2  3  1  0
  3  4  1  0
  4  8  1  0
  4  5  2  0
  5  6  1  0
  7  6  1  0
  8  7  2  0
  9  2  1  0
 10  9  2  0
 11  9  1  0
 12 11  1  0
 12 13  1  6
 14 13  1  0
 15 16  2  0
 15 14  1  0
 17 12  1  0
 17 20  1  0
 18 17  2  0
 19 15  1  0
 21 20  1  0
 21 26  1  0
 21 22  1  1
 23 22  1  0
 24 28  1  0
 24 23  1  0
 25 24  2  0
 26 29  1  0
 27 26  2  0
M  END
$$$$
