HEE.pdb
     RDKit          3D

 29 29  0  0  1  0  0  0  0  0999 V2000
    7.5424  -17.6417   19.1295 N   0  0  0  0  0  0  0  0  0  0  0  0
    8.4537  -16.7639   19.8247 C   0  0  1  0  0  0  0  0  0  0  0  0
    7.6776  -15.8801   20.7841 C   0  0  0  0  0  0  0  0  0  0  0  0
    7.8291  -14.4802   20.3605 C   0  0  0  0  0  0  0  0  0  0  0  0
    6.9538  -13.7337   19.6214 C   0  0  0  0  0  0  0  0  0  0  0  0
    7.4959  -12.5080   19.4693 N   0  0  0  0  0  0  0  0  0  0  0  0
    8.6879  -12.4808   20.0988 C   0  0  0  0  0  0  0  0  0  0  0  0
    8.8892  -13.7031   20.6484 N   0  0  0  0  0  0  0  0  0  0  0  0
    9.3721  -17.5855   20.6488 C   0  0  0  0  0  0  0  0  0  0  0  0
    8.8912  -18.5455   21.3045 O   0  0  0  0  0  0  0  0  0  0  0  0
   10.7803  -17.2906   20.6960 N   0  0  0  0  0  0  0  0  0  0  0  0
   11.6330  -18.2319   21.3369 C   0  0  1  0  0  0  0  0  0  0  0  0
   12.9849  -18.2098   20.6089 C   0  0  0  0  0  0  0  0  0  0  0  0
   12.9295  -19.1489   19.4304 C   0  0  0  0  0  0  0  0  0  0  0  0
   14.2449  -19.1886   18.7317 C   0  0  0  0  0  0  0  0  0  0  0  0
   15.1394  -20.0389   19.0424 O   0  0  0  0  0  0  0  0  0  0  0  0
   11.9493  -17.8457   22.7481 C   0  0  0  0  0  0  0  0  0  0  0  0
   12.2667  -16.6537   22.9877 O   0  0  0  0  0  0  0  0  0  0  0  0
   14.5505  -18.3026   17.7151 O   0  0  0  0  0  0  0  0  0  0  0  0
   11.9067  -18.7579   23.8174 N   0  0  0  0  0  0  0  0  0  0  0  0
   12.1910  -18.3653   25.2262 C   0  0  1  0  0  0  0  0  0  0  0  0
   11.4982  -19.3051   26.1500 C   0  0  0  0  0  0  0  0  0  0  0  0
   11.9331  -19.1276   27.5645 C   0  0  0  0  0  0  0  0  0  0  0  0
   11.3171  -20.1078   28.4767 C   0  0  0  0  0  0  0  0  0  0  0  0
   10.4723  -20.9423   28.1175 O   0  0  0  0  0  0  0  0  0  0  0  0
   13.6522  -18.4719   25.3645 C   0  0  0  0  0  0  0  0  0  0  0  0
   14.2430  -17.8789   26.2867 O   0  0  0  0  0  0  0  0  0  0  0  0
   11.6598  -20.1555   29.8415 O   0  0  0  0  0  0  0  0  0  0  0  0
   14.3898  -19.2265   24.4801 O   0  0  0  0  0  0  0  0  0  0  0  0
  2  1  1  1
  2  3  1  0
  3  4  1  0
  4  8  1  0
  4  5  2  0
  5  6  1  0
  7  6  1  0
  8  7  2  0
  9  2  1  0
 10  9  2  0
 11  9  1  0
 12 11  1  0
 12 13  1  6
 14 13  1  0
 15 16  2  0
 15 14  1  0
 17 12  1  0
 17 20  1  0
 18 17  2  0
 19 15  1  0
 21 20  1  0
 21 26  1  0
 21 22  1  1
 23 22  1  0
 24 28  1  0
 24 23  1  0
 25 24  2  0
 26 29  1  0
 27 26  2  0
M  END
$$$$
