HEE.pdb
     RDKit          3D

 29 29  0  0  1  0  0  0  0  0999 V2000
   10.1337  -15.5390   19.2120 N   0  0  0  0  0  0  0  0  0  0  0  0
    9.1253  -15.2903   20.2147 C   0  0  1  0  0  0  0  0  0  0  0  0
    7.7493  -15.5493   19.6288 C   0  0  0  0  0  0  0  0  0  0  0  0
    7.5391  -14.6314   18.4994 C   0  0  0  0  0  0  0  0  0  0  0  0
    7.3648  -14.9563   17.1828 C   0  0  0  0  0  0  0  0  0  0  0  0
    7.2081  -13.8040   16.4993 N   0  0  0  0  0  0  0  0  0  0  0  0
    7.2819  -12.7735   17.3655 C   0  0  0  0  0  0  0  0  0  0  0  0
    7.4866  -13.2907   18.6014 N   0  0  0  0  0  0  0  0  0  0  0  0
    9.3064  -16.2577   21.3234 C   0  0  0  0  0  0  0  0  0  0  0  0
    8.4519  -16.2771   22.2465 O   0  0  0  0  0  0  0  0  0  0  0  0
   10.4334  -17.1531   21.3411 N   0  0  0  0  0  0  0  0  0  0  0  0
   10.5694  -18.0248   22.4570 C   0  0  1  0  0  0  0  0  0  0  0  0
   11.5157  -19.1632   22.0488 C   0  0  0  0  0  0  0  0  0  0  0  0
   10.7447  -20.1907   21.2592 C   0  0  0  0  0  0  0  0  0  0  0  0
   11.6441  -21.2941   20.8191 C   0  0  0  0  0  0  0  0  0  0  0  0
   12.1095  -21.3428   19.6356 O   0  0  0  0  0  0  0  0  0  0  0  0
   11.2421  -17.3626   23.6187 C   0  0  0  0  0  0  0  0  0  0  0  0
   12.2789  -16.6853   23.4058 O   0  0  0  0  0  0  0  0  0  0  0  0
   12.0118  -22.3133   21.6782 O   0  0  0  0  0  0  0  0  0  0  0  0
   10.7651  -17.4651   24.9375 N   0  0  0  0  0  0  0  0  0  0  0  0
   11.3360  -16.6783   26.0666 C   0  0  1  0  0  0  0  0  0  0  0  0
   10.2846  -15.7861   26.6279 C   0  0  0  0  0  0  0  0  0  0  0  0
   10.7570  -15.0479   27.8334 C   0  0  0  0  0  0  0  0  0  0  0  0
    9.7192  -14.1734   28.4084 C   0  0  0  0  0  0  0  0  0  0  0  0
    8.5617  -14.1017   27.9678 O   0  0  0  0  0  0  0  0  0  0  0  0
   11.7583  -17.6824   27.0561 C   0  0  0  0  0  0  0  0  0  0  0  0
   11.2701  -18.8281   27.0392 O   0  0  0  0  0  0  0  0  0  0  0  0
    9.9874  -13.3488   29.5177 O   0  0  0  0  0  0  0  0  0  0  0  0
   12.6971  -17.3744   28.0149 O   0  0  0  0  0  0  0  0  0  0  0  0
  2  1  1  6
  2  3  1  0
  3  4  1  0
  4  8  1  0
  4  5  2  0
  5  6  1  0
  7  6  1  0
  8  7  2  0
  9  2  1  0
 10  9  2  0
 11  9  1  0
 12 11  1  0
 12 13  1  6
 14 13  1  0
 15 16  2  0
 15 14  1  0
 17 12  1  0
 17 20  1  0
 18 17  2  0
 19 15  1  0
 21 20  1  0
 21 26  1  0
 21 22  1  1
 23 22  1  0
 24 28  1  0
 24 23  1  0
 25 24  2  0
 26 29  1  0
 27 26  2  0
M  END
$$$$
