SGT.pdb
     RDKit          3D

 18 17  0  0  1  0  0  0  0  0999 V2000
   10.2367  -18.1799   21.4517 O   0  0  0  0  0  0  0  0  0  0  0  0
    9.1550  -18.3144   22.3230 C   0  0  0  0  0  0  0  0  0  0  0  0
    7.9582  -17.6425   21.6581 C   0  0  2  0  0  0  0  0  0  0  0  0
    7.8176  -18.1811   20.3348 N   0  0  0  0  0  0  0  0  0  0  0  0
    8.1253  -16.1814   21.6024 C   0  0  0  0  0  0  0  0  0  0  0  0
    9.1209  -15.6962   21.0293 O   0  0  0  0  0  0  0  0  0  0  0  0
    7.1805  -15.3056   22.1856 N   0  0  0  0  0  0  0  0  0  0  0  0
    7.2968  -13.8542   22.0498 C   0  0  0  0  0  0  0  0  0  0  0  0
    7.7154  -13.2809   23.3488 C   0  0  0  0  0  0  0  0  0  0  0  0
    7.9469  -12.0512   23.4604 O   0  0  0  0  0  0  0  0  0  0  0  0
    6.3504  -11.9203   25.8252 C   0  0  0  0  0  0  0  0  0  0  0  0
    6.9580  -13.1228   26.4602 C   0  0  1  0  0  0  0  0  0  0  0  0
    6.0405  -14.1986   26.4449 O   0  0  0  0  0  0  0  0  0  0  0  0
    8.2011  -13.6202   25.7739 C   0  0  2  0  0  0  0  0  0  0  0  0
    7.8571  -14.1302   24.4823 N   0  0  0  0  0  0  0  0  0  0  0  0
    8.8903  -14.6226   26.6265 C   0  0  0  0  0  0  0  0  0  0  0  0
    9.4179  -14.3252   27.8684 O   0  0  0  0  0  0  0  0  0  0  0  0
    8.9915  -15.7820   26.1915 O   0  0  0  0  0  0  0  0  0  0  0  0
  2  1  1  0
  3  2  1  0
  3  4  1  6
  5  6  2  0
  5  3  1  0
  7  5  1  0
  8  7  1  0
  9 15  1  0
  9  8  1  0
 10  9  2  0
 12 13  1  0
 12 11  1  6
 14 15  1  6
 14 12  1  0
 16 14  1  0
 17 16  1  0
 18 16  2  0
M  END
$$$$
