SGT.pdb
     RDKit          3D

 18 17  0  0  1  0  0  0  0  0999 V2000
    7.7014  -15.7955   18.1872 O   0  0  0  0  0  0  0  0  0  0  0  0
    6.6956  -14.8291   18.1453 C   0  0  0  0  0  0  0  0  0  0  0  0
    7.3324  -13.5023   18.5451 C   0  0  2  0  0  0  0  0  0  0  0  0
    8.3136  -13.1578   17.5553 N   0  0  0  0  0  0  0  0  0  0  0  0
    7.9538  -13.5846   19.8767 C   0  0  0  0  0  0  0  0  0  0  0  0
    9.1917  -13.6990   19.9733 O   0  0  0  0  0  0  0  0  0  0  0  0
    7.1794  -13.5373   21.0589 N   0  0  0  0  0  0  0  0  0  0  0  0
    7.7997  -13.5834   22.3824 C   0  0  0  0  0  0  0  0  0  0  0  0
    8.1893  -14.9795   22.6835 C   0  0  0  0  0  0  0  0  0  0  0  0
    7.4983  -15.9410   22.2638 O   0  0  0  0  0  0  0  0  0  0  0  0
   12.1850  -15.8577   23.5010 C   0  0  0  0  0  0  0  0  0  0  0  0
   11.1184  -16.8211   23.1101 C   0  0  1  0  0  0  0  0  0  0  0  0
   11.4910  -18.1355   23.4747 O   0  0  0  0  0  0  0  0  0  0  0  0
    9.7873  -16.5647   23.7629 C   0  0  2  0  0  0  0  0  0  0  0  0
    9.3574  -15.2353   23.4557 N   0  0  0  0  0  0  0  0  0  0  0  0
    9.8757  -16.8207   25.2235 C   0  0  0  0  0  0  0  0  0  0  0  0
   10.1128  -18.0719   25.7597 O   0  0  0  0  0  0  0  0  0  0  0  0
    9.7276  -15.8552   25.9912 O   0  0  0  0  0  0  0  0  0  0  0  0
  2  1  1  0
  3  2  1  0
  3  4  1  6
  5  6  2  0
  5  3  1  0
  7  5  1  0
  8  7  1  0
  9 15  1  0
  9  8  1  0
 10  9  2  0
 12 13  1  0
 12 11  1  1
 14 15  1  1
 14 12  1  0
 16 14  1  0
 17 16  1  0
 18 16  2  0
M  END
$$$$
