SGT.pdb
     RDKit          3D

 18 17  0  0  1  0  0  0  0  0999 V2000
    6.3259  -21.8307   20.5024 O   0  0  0  0  0  0  0  0  0  0  0  0
    5.2657  -22.3294   21.2604 C   0  0  0  0  0  0  0  0  0  0  0  0
    4.1423  -21.3003   21.1909 C   0  0  2  0  0  0  0  0  0  0  0  0
    3.7669  -21.1361   19.8150 N   0  0  0  0  0  0  0  0  0  0  0  0
    4.5586  -20.0114   21.7665 C   0  0  0  0  0  0  0  0  0  0  0  0
    4.7370  -19.0306   21.0175 O   0  0  0  0  0  0  0  0  0  0  0  0
    4.7636  -19.8535   23.1568 N   0  0  0  0  0  0  0  0  0  0  0  0
    5.0022  -18.5386   23.7506 C   0  0  0  0  0  0  0  0  0  0  0  0
    6.4595  -18.3464   23.9260 C   0  0  0  0  0  0  0  0  0  0  0  0
    7.2531  -19.3102   23.7863 O   0  0  0  0  0  0  0  0  0  0  0  0
    7.8255  -14.3638   24.7264 C   0  0  0  0  0  0  0  0  0  0  0  0
    8.5848  -15.3315   23.8865 C   0  0  1  0  0  0  0  0  0  0  0  0
    9.9740  -15.0961   24.0062 O   0  0  0  0  0  0  0  0  0  0  0  0
    8.3687  -16.7730   24.2594 C   0  0  2  0  0  0  0  0  0  0  0  0
    6.9668  -17.0580   24.2559 N   0  0  0  0  0  0  0  0  0  0  0  0
    9.0151  -17.0666   25.5643 C   0  0  0  0  0  0  0  0  0  0  0  0
   10.3840  -17.1617   25.7265 O   0  0  0  0  0  0  0  0  0  0  0  0
    8.2791  -17.2331   26.5513 O   0  0  0  0  0  0  0  0  0  0  0  0
  2  1  1  0
  3  2  1  0
  3  4  1  6
  5  6  2  0
  5  3  1  0
  7  5  1  0
  8  7  1  0
  9 15  1  0
  9  8  1  0
 10  9  2  0
 12 13  1  0
 12 11  1  1
 14 15  1  1
 14 12  1  0
 16 14  1  0
 17 16  1  0
 18 16  2  0
M  END
$$$$
