SGT.pdb
     RDKit          3D

 18 17  0  0  1  0  0  0  0  0999 V2000
    8.4660  -18.5121   19.7117 O   0  0  0  0  0  0  0  0  0  0  0  0
    9.0520  -17.4395   19.0383 C   0  0  0  0  0  0  0  0  0  0  0  0
    9.6436  -16.5151   20.0972 C   0  0  2  0  0  0  0  0  0  0  0  0
   10.5867  -17.2676   20.8753 N   0  0  0  0  0  0  0  0  0  0  0  0
    8.5961  -15.9524   20.9644 C   0  0  0  0  0  0  0  0  0  0  0  0
    7.7431  -15.1822   20.4804 O   0  0  0  0  0  0  0  0  0  0  0  0
    8.5297  -16.2637   22.3422 N   0  0  0  0  0  0  0  0  0  0  0  0
    7.4768  -15.7205   23.1995 C   0  0  0  0  0  0  0  0  0  0  0  0
    8.0904  -14.8304   24.2109 C   0  0  0  0  0  0  0  0  0  0  0  0
    9.3311  -14.6342   24.2217 O   0  0  0  0  0  0  0  0  0  0  0  0
    6.2673  -11.3524   25.6411 C   0  0  0  0  0  0  0  0  0  0  0  0
    6.7034  -12.3732   26.6341 C   0  0  1  0  0  0  0  0  0  0  0  0
    5.6196  -13.2143   26.9770 O   0  0  0  0  0  0  0  0  0  0  0  0
    7.8006  -13.2791   26.1451 C   0  0  2  0  0  0  0  0  0  0  0  0
    7.2673  -14.1908   25.1802 N   0  0  0  0  0  0  0  0  0  0  0  0
    8.4477  -13.9652   27.2929 C   0  0  0  0  0  0  0  0  0  0  0  0
    8.4372  -15.3369   27.4585 O   0  0  0  0  0  0  0  0  0  0  0  0
    9.0235  -13.2611   28.1393 O   0  0  0  0  0  0  0  0  0  0  0  0
  2  1  1  0
  3  2  1  0
  3  4  1  1
  5  6  2  0
  5  3  1  0
  7  5  1  0
  8  7  1  0
  9 15  1  0
  9  8  1  0
 10  9  2  0
 12 13  1  0
 12 11  1  6
 14 15  1  6
 14 12  1  0
 16 14  1  0
 17 16  1  0
 18 16  2  0
M  END
$$$$
