SGT.pdb
     RDKit          3D

 18 17  0  0  1  0  0  0  0  0999 V2000
    7.1355  -13.3408   17.6079 O   0  0  0  0  0  0  0  0  0  0  0  0
    8.3976  -12.7584   17.7311 C   0  0  0  0  0  0  0  0  0  0  0  0
    9.1199  -13.4887   18.8584 C   0  0  2  0  0  0  0  0  0  0  0  0
    9.1420  -14.8897   18.5454 N   0  0  0  0  0  0  0  0  0  0  0  0
    8.4595  -13.2629   20.1540 C   0  0  0  0  0  0  0  0  0  0  0  0
    8.5411  -12.1452   20.7010 O   0  0  0  0  0  0  0  0  0  0  0  0
    7.7291  -14.2865   20.8009 N   0  0  0  0  0  0  0  0  0  0  0  0
    7.0763  -14.0631   22.0903 C   0  0  0  0  0  0  0  0  0  0  0  0
    7.7119  -14.9294   23.1086 C   0  0  0  0  0  0  0  0  0  0  0  0
    7.2455  -14.9956   24.2732 O   0  0  0  0  0  0  0  0  0  0  0  0
    8.5930  -18.6211   22.4526 C   0  0  0  0  0  0  0  0  0  0  0  0
    9.7867  -17.8945   22.9681 C   0  0  1  0  0  0  0  0  0  0  0  0
   10.6451  -17.5469   21.8996 O   0  0  0  0  0  0  0  0  0  0  0  0
    9.4649  -16.6109   23.6840 C   0  0  2  0  0  0  0  0  0  0  0  0
    8.8621  -15.6947   22.7655 N   0  0  0  0  0  0  0  0  0  0  0  0
   10.6867  -16.0640   24.3283 C   0  0  0  0  0  0  0  0  0  0  0  0
   11.3179  -16.6747   25.3950 O   0  0  0  0  0  0  0  0  0  0  0  0
   11.1551  -15.0052   23.8776 O   0  0  0  0  0  0  0  0  0  0  0  0
  2  1  1  0
  3  2  1  0
  3  4  1  6
  5  6  2  0
  5  3  1  0
  7  5  1  0
  8  7  1  0
  9 15  1  0
  9  8  1  0
 10  9  2  0
 12 13  1  0
 12 11  1  6
 14 15  1  6
 14 12  1  0
 16 14  1  0
 17 16  1  0
 18 16  2  0
M  END
$$$$
