SGT.pdb
     RDKit          3D

 18 17  0  0  1  0  0  0  0  0999 V2000
    5.9256  -20.1065   20.4205 O   0  0  0  0  0  0  0  0  0  0  0  0
    5.6632  -19.5173   21.6579 C   0  0  0  0  0  0  0  0  0  0  0  0
    6.6242  -18.3426   21.8073 C   0  0  2  0  0  0  0  0  0  0  0  0
    7.6939  -18.5136   20.8652 N   0  0  0  0  0  0  0  0  0  0  0  0
    7.1558  -18.2547   23.1769 C   0  0  0  0  0  0  0  0  0  0  0  0
    8.1293  -18.9607   23.5067 O   0  0  0  0  0  0  0  0  0  0  0  0
    6.5885  -17.3848   24.1366 N   0  0  0  0  0  0  0  0  0  0  0  0
    7.0864  -17.3320   25.5105 C   0  0  0  0  0  0  0  0  0  0  0  0
    8.1804  -16.3377   25.5886 C   0  0  0  0  0  0  0  0  0  0  0  0
    8.6268  -15.7948   24.5474 O   0  0  0  0  0  0  0  0  0  0  0  0
    8.4509  -13.1614   27.7790 C   0  0  0  0  0  0  0  0  0  0  0  0
    9.5596  -14.1094   28.0800 C   0  0  1  0  0  0  0  0  0  0  0  0
    9.2499  -14.8731   29.2290 O   0  0  0  0  0  0  0  0  0  0  0  0
    9.8405  -15.0978   26.9810 C   0  0  2  0  0  0  0  0  0  0  0  0
    8.7320  -15.9934   26.8549 N   0  0  0  0  0  0  0  0  0  0  0  0
   11.1241  -15.7994   27.2393 C   0  0  0  0  0  0  0  0  0  0  0  0
   12.3527  -15.1684   27.2008 O   0  0  0  0  0  0  0  0  0  0  0  0
   11.0788  -17.0130   27.5018 O   0  0  0  0  0  0  0  0  0  0  0  0
  2  1  1  0
  3  2  1  0
  3  4  1  6
  5  6  2  0
  5  3  1  0
  7  5  1  0
  8  7  1  0
  9 15  1  0
  9  8  1  0
 10  9  2  0
 12 13  1  0
 12 11  1  6
 14 15  1  1
 14 12  1  0
 16 14  1  0
 17 16  1  0
 18 16  2  0
M  END
$$$$
