SGT.pdb
     RDKit          3D

 18 17  0  0  1  0  0  0  0  0999 V2000
    9.3927  -18.5619   18.5246 O   0  0  0  0  0  0  0  0  0  0  0  0
    9.0610  -17.2419   18.8323 C   0  0  0  0  0  0  0  0  0  0  0  0
    9.5630  -16.9719   20.2468 C   0  0  2  0  0  0  0  0  0  0  0  0
    9.5904  -18.2176   20.9599 N   0  0  0  0  0  0  0  0  0  0  0  0
    8.7057  -16.0001   20.9444 C   0  0  0  0  0  0  0  0  0  0  0  0
    8.6074  -14.8374   20.5044 O   0  0  0  0  0  0  0  0  0  0  0  0
    7.9847  -16.3513   22.1090 N   0  0  0  0  0  0  0  0  0  0  0  0
    7.1124  -15.3932   22.7870 C   0  0  0  0  0  0  0  0  0  0  0  0
    7.8481  -14.7912   23.9219 C   0  0  0  0  0  0  0  0  0  0  0  0
    9.0889  -14.9507   24.0366 O   0  0  0  0  0  0  0  0  0  0  0  0
    6.6474  -11.1643   25.8737 C   0  0  0  0  0  0  0  0  0  0  0  0
    6.8704  -12.4176   26.6470 C   0  0  1  0  0  0  0  0  0  0  0  0
    5.6480  -13.1066   26.8222 O   0  0  0  0  0  0  0  0  0  0  0  0
    7.8104  -13.3895   25.9873 C   0  0  2  0  0  0  0  0  0  0  0  0
    7.1435  -14.0246   24.8925 N   0  0  0  0  0  0  0  0  0  0  0  0
    8.3308  -14.3572   26.9870 C   0  0  0  0  0  0  0  0  0  0  0  0
    9.1184  -13.9869   28.0603 O   0  0  0  0  0  0  0  0  0  0  0  0
    8.0372  -15.5556   26.8412 O   0  0  0  0  0  0  0  0  0  0  0  0
  2  1  1  0
  3  2  1  0
  3  4  1  1
  5  6  2  0
  5  3  1  0
  7  5  1  0
  8  7  1  0
  9 15  1  0
  9  8  1  0
 10  9  2  0
 12 13  1  0
 12 11  1  6
 14 15  1  6
 14 12  1  0
 16 14  1  0
 17 16  1  0
 18 16  2  0
M  END
$$$$
