SGT.pdb
     RDKit          3D

 18 17  0  0  1  0  0  0  0  0999 V2000
    8.5045  -15.6724   18.6533 O   0  0  0  0  0  0  0  0  0  0  0  0
    7.1938  -15.1980   18.7191 C   0  0  0  0  0  0  0  0  0  0  0  0
    7.2724  -13.7053   19.0215 C   0  0  2  0  0  0  0  0  0  0  0  0
    7.8373  -13.0440   17.8793 N   0  0  0  0  0  0  0  0  0  0  0  0
    8.0845  -13.4424   20.2204 C   0  0  0  0  0  0  0  0  0  0  0  0
    9.0692  -12.6814   20.1432 O   0  0  0  0  0  0  0  0  0  0  0  0
    7.7762  -14.0339   21.4673 N   0  0  0  0  0  0  0  0  0  0  0  0
    8.5002  -13.6726   22.6854 C   0  0  0  0  0  0  0  0  0  0  0  0
    7.9526  -14.4501   23.8199 C   0  0  0  0  0  0  0  0  0  0  0  0
    6.9831  -14.0112   24.4873 O   0  0  0  0  0  0  0  0  0  0  0  0
    6.2205  -17.5620   23.9684 C   0  0  0  0  0  0  0  0  0  0  0  0
    7.4549  -17.7546   24.7795 C   0  0  1  0  0  0  0  0  0  0  0  0
    8.4487  -18.4011   24.0090 O   0  0  0  0  0  0  0  0  0  0  0  0
    8.0725  -16.4752   25.2747 C   0  0  2  0  0  0  0  0  0  0  0  0
    8.5296  -15.7067   24.1580 N   0  0  0  0  0  0  0  0  0  0  0  0
    9.1508  -16.7722   26.2524 C   0  0  0  0  0  0  0  0  0  0  0  0
    8.9248  -17.4061   27.4592 O   0  0  0  0  0  0  0  0  0  0  0  0
   10.3087  -16.4294   25.9602 O   0  0  0  0  0  0  0  0  0  0  0  0
  2  1  1  0
  3  2  1  0
  3  4  1  6
  5  6  2  0
  5  3  1  0
  7  5  1  0
  8  7  1  0
  9 15  1  0
  9  8  1  0
 10  9  2  0
 12 13  1  0
 12 11  1  6
 14 15  1  6
 14 12  1  0
 16 14  1  0
 17 16  1  0
 18 16  2  0
M  END
$$$$
