SGT.pdb
     RDKit          3D

 18 17  0  0  1  0  0  0  0  0999 V2000
    7.6351  -17.9613   19.1016 O   0  0  0  0  0  0  0  0  0  0  0  0
    8.4695  -16.8856   18.7952 C   0  0  0  0  0  0  0  0  0  0  0  0
    9.1506  -16.4634   20.0927 C   0  0  2  0  0  0  0  0  0  0  0  0
    9.7500  -17.6256   20.6851 N   0  0  0  0  0  0  0  0  0  0  0  0
    8.1935  -15.8476   21.0258 C   0  0  0  0  0  0  0  0  0  0  0  0
    7.6864  -14.7426   20.7486 O   0  0  0  0  0  0  0  0  0  0  0  0
    7.8302  -16.4795   22.2375 N   0  0  0  0  0  0  0  0  0  0  0  0
    6.9362  -15.8349   23.1986 C   0  0  0  0  0  0  0  0  0  0  0  0
    7.7415  -15.0108   24.1281 C   0  0  0  0  0  0  0  0  0  0  0  0
    8.9954  -15.0012   24.0519 O   0  0  0  0  0  0  0  0  0  0  0  0
    6.5880  -11.2682   25.8037 C   0  0  0  0  0  0  0  0  0  0  0  0
    6.9027  -12.4242   26.6886 C   0  0  1  0  0  0  0  0  0  0  0  0
    5.7168  -13.1154   27.0283 O   0  0  0  0  0  0  0  0  0  0  0  0
    7.8204  -13.4426   26.0688 C   0  0  2  0  0  0  0  0  0  0  0  0
    7.0895  -14.2219   25.1174 N   0  0  0  0  0  0  0  0  0  0  0  0
    8.4566  -14.2693   27.1265 C   0  0  0  0  0  0  0  0  0  0  0  0
    9.2757  -13.7441   28.1075 O   0  0  0  0  0  0  0  0  0  0  0  0
    8.2342  -15.4917   27.1190 O   0  0  0  0  0  0  0  0  0  0  0  0
  2  1  1  0
  3  2  1  0
  3  4  1  1
  5  6  2  0
  5  3  1  0
  7  5  1  0
  8  7  1  0
  9 15  1  0
  9  8  1  0
 10  9  2  0
 12 13  1  0
 12 11  1  6
 14 15  1  6
 14 12  1  0
 16 14  1  0
 17 16  1  0
 18 16  2  0
M  END
$$$$
