SGT.pdb
     RDKit          3D

 18 17  0  0  1  0  0  0  0  0999 V2000
    9.5264  -18.8541   21.2261 O   0  0  0  0  0  0  0  0  0  0  0  0
    8.8800  -18.7294   19.9957 C   0  0  0  0  0  0  0  0  0  0  0  0
    8.7357  -17.2374   19.7147 C   0  0  2  0  0  0  0  0  0  0  0  0
   10.0248  -16.6241   19.8670 N   0  0  0  0  0  0  0  0  0  0  0  0
    7.7597  -16.6122   20.6217 C   0  0  0  0  0  0  0  0  0  0  0  0
    6.5606  -16.9497   20.5643 O   0  0  0  0  0  0  0  0  0  0  0  0
    8.1474  -15.6316   21.5639 N   0  0  0  0  0  0  0  0  0  0  0  0
    7.1822  -15.0294   22.4827 C   0  0  0  0  0  0  0  0  0  0  0  0
    7.8942  -14.5705   23.6967 C   0  0  0  0  0  0  0  0  0  0  0  0
    9.1379  -14.7139   23.8015 O   0  0  0  0  0  0  0  0  0  0  0  0
    6.8372  -11.1284   25.7717 C   0  0  0  0  0  0  0  0  0  0  0  0
    6.9319  -12.3939   26.5514 C   0  0  1  0  0  0  0  0  0  0  0  0
    5.6521  -12.9797   26.6877 O   0  0  0  0  0  0  0  0  0  0  0  0
    7.8091  -13.4415   25.9216 C   0  0  2  0  0  0  0  0  0  0  0  0
    7.1635  -13.9612   24.7555 N   0  0  0  0  0  0  0  0  0  0  0  0
    8.1434  -14.4941   26.9151 C   0  0  0  0  0  0  0  0  0  0  0  0
    8.9167  -14.2591   28.0357 O   0  0  0  0  0  0  0  0  0  0  0  0
    7.7004  -15.6382   26.7186 O   0  0  0  0  0  0  0  0  0  0  0  0
  2  1  1  0
  3  2  1  0
  3  4  1  1
  5  6  2  0
  5  3  1  0
  7  5  1  0
  8  7  1  0
  9 15  1  0
  9  8  1  0
 10  9  2  0
 12 13  1  0
 12 11  1  6
 14 15  1  6
 14 12  1  0
 16 14  1  0
 17 16  1  0
 18 16  2  0
M  END
$$$$
