SGT.pdb
     RDKit          3D

 18 17  0  0  1  0  0  0  0  0999 V2000
    7.1715  -15.9731   17.1233 O   0  0  0  0  0  0  0  0  0  0  0  0
    6.6467  -14.7258   16.7825 C   0  0  0  0  0  0  0  0  0  0  0  0
    7.8233  -13.7634   16.6590 C   0  0  2  0  0  0  0  0  0  0  0  0
    8.6441  -14.1945   15.5628 N   0  0  0  0  0  0  0  0  0  0  0  0
    8.6105  -13.7156   17.9016 C   0  0  0  0  0  0  0  0  0  0  0  0
    9.7168  -14.2887   17.9530 O   0  0  0  0  0  0  0  0  0  0  0  0
    8.1430  -13.0321   19.0479 N   0  0  0  0  0  0  0  0  0  0  0  0
    8.9919  -12.8390   20.2229 C   0  0  0  0  0  0  0  0  0  0  0  0
    8.8665  -14.0196   21.1072 C   0  0  0  0  0  0  0  0  0  0  0  0
    7.7835  -14.2676   21.6933 O   0  0  0  0  0  0  0  0  0  0  0  0
    9.1884  -17.4968   20.1970 C   0  0  0  0  0  0  0  0  0  0  0  0
   10.1819  -17.2686   21.2831 C   0  0  1  0  0  0  0  0  0  0  0  0
   11.4728  -17.0917   20.7339 O   0  0  0  0  0  0  0  0  0  0  0  0
    9.9099  -16.0485   22.1204 C   0  0  2  0  0  0  0  0  0  0  0  0
    9.9832  -14.8820   21.2954 N   0  0  0  0  0  0  0  0  0  0  0  0
   10.8448  -16.0005   23.2739 C   0  0  0  0  0  0  0  0  0  0  0  0
   10.7600  -16.8590   24.3532 O   0  0  0  0  0  0  0  0  0  0  0  0
   11.7431  -15.1424   23.2566 O   0  0  0  0  0  0  0  0  0  0  0  0
  2  1  1  0
  3  2  1  0
  3  4  1  6
  5  6  2  0
  5  3  1  0
  7  5  1  0
  8  7  1  0
  9 15  1  0
  9  8  1  0
 10  9  2  0
 12 13  1  0
 12 11  1  6
 14 15  1  6
 14 12  1  0
 16 14  1  0
 17 16  1  0
 18 16  2  0
M  END
$$$$
