AKH.pdb
     RDKit          3D

 25 25  0  0  1  0  0  0  0  0999 V2000
   16.7512  -13.9237  -16.5899 C   0  0  0  0  0  0  0  0  0  0  0  0
   16.4107  -12.4540  -16.4675 C   0  0  2  0  0  0  0  0  0  0  0  0
   15.7097  -12.0388  -17.6504 N   0  0  0  0  0  0  0  0  0  0  0  0
   17.6820  -11.6987  -16.3008 C   0  0  0  0  0  0  0  0  0  0  0  0
   18.4356  -11.9791  -15.3432 O   0  0  0  0  0  0  0  0  0  0  0  0
   18.0516  -10.6760  -17.1995 N   0  0  0  0  0  0  0  0  0  0  0  0
   19.3506  -10.0097  -16.9867 C   0  0  1  0  0  0  0  0  0  0  0  0
   19.9401   -9.7351  -18.3661 C   0  0  0  0  0  0  0  0  0  0  0  0
   21.2987   -9.1550  -18.2371 C   0  0  0  0  0  0  0  0  0  0  0  0
   21.8446   -8.8315  -19.6351 C   0  0  0  0  0  0  0  0  0  0  0  0
   23.2603   -8.3576  -19.4835 C   0  0  0  0  0  0  0  0  0  0  0  0
   23.8147   -8.1098  -20.8118 N   0  0  0  0  0  0  0  0  0  0  0  0
   19.1587   -8.7560  -16.2579 C   0  0  0  0  0  0  0  0  0  0  0  0
   18.1220   -8.0290  -16.3864 O   0  0  0  0  0  0  0  0  0  0  0  0
   20.1221   -8.2856  -15.3577 N   0  0  0  0  0  0  0  0  0  0  0  0
   19.7383   -7.5227  -14.1862 C   0  0  1  0  0  0  0  0  0  0  0  0
   18.8681   -8.4618  -13.3789 C   0  0  0  0  0  0  0  0  0  0  0  0
   18.3774   -7.8693  -12.1405 C   0  0  0  0  0  0  0  0  0  0  0  0
   18.9677   -8.0326  -10.9000 C   0  0  0  0  0  0  0  0  0  0  0  0
   18.2215   -7.3357  -10.0312 N   0  0  0  0  0  0  0  0  0  0  0  0
   17.2122   -6.7668  -10.7132 C   0  0  0  0  0  0  0  0  0  0  0  0
   17.2947   -7.0867  -12.0158 N   0  0  0  0  0  0  0  0  0  0  0  0
   20.8488   -7.0647  -13.3741 C   0  0  0  0  0  0  0  0  0  0  0  0
   20.6074   -6.2289  -12.4649 O   0  0  0  0  0  0  0  0  0  0  0  0
   22.1783   -7.4537  -13.4898 O   0  0  0  0  0  0  0  0  0  0  0  0
  2  1  1  6
  2  4  1  0
  3  2  1  0
  4  6  1  0
  4  5  2  0
  6  7  1  0
  7 13  1  0
  7  8  1  6
  8  9  1  0
 10  9  1  0
 10 11  1  0
 11 12  1  0
 13 14  2  0
 15 13  1  0
 15 16  1  0
 16 23  1  0
 16 17  1  1
 18 17  1  0
 19 18  2  0
 20 19  1  0
 21 20  1  0
 21 22  2  0
 22 18  1  0
 23 25  1  0
 24 23  2  0
M  END
$$$$
