AKH.pdb
     RDKit          3D

 25 25  0  0  1  0  0  0  0  0999 V2000
   19.1620  -15.7469  -13.5347 C   0  0  0  0  0  0  0  0  0  0  0  0
   18.8977  -16.0088  -15.0018 C   0  0  2  0  0  0  0  0  0  0  0  0
   19.7094  -17.1134  -15.4308 N   0  0  0  0  0  0  0  0  0  0  0  0
   19.2284  -14.7706  -15.7580 C   0  0  0  0  0  0  0  0  0  0  0  0
   20.4214  -14.5360  -16.0503 O   0  0  0  0  0  0  0  0  0  0  0  0
   18.2250  -13.8597  -16.1499 N   0  0  0  0  0  0  0  0  0  0  0  0
   18.6346  -12.6836  -16.9409 C   0  0  1  0  0  0  0  0  0  0  0  0
   17.5160  -12.4092  -17.9405 C   0  0  0  0  0  0  0  0  0  0  0  0
   17.8858  -11.2792  -18.8266 C   0  0  0  0  0  0  0  0  0  0  0  0
   16.7374  -11.0116  -19.8098 C   0  0  0  0  0  0  0  0  0  0  0  0
   17.1402   -9.8695  -20.6960 C   0  0  0  0  0  0  0  0  0  0  0  0
   16.1366   -9.7166  -21.7460 N   0  0  0  0  0  0  0  0  0  0  0  0
   18.8253  -11.5292  -16.0630 C   0  0  0  0  0  0  0  0  0  0  0  0
   18.0893  -11.2966  -15.0510 O   0  0  0  0  0  0  0  0  0  0  0  0
   19.8528  -10.6062  -16.2912 N   0  0  0  0  0  0  0  0  0  0  0  0
   19.9734   -9.4096  -15.4817 C   0  0  1  0  0  0  0  0  0  0  0  0
   21.2995   -8.8007  -15.8835 C   0  0  0  0  0  0  0  0  0  0  0  0
   21.5915   -7.5511  -15.1917 C   0  0  0  0  0  0  0  0  0  0  0  0
   21.7274   -7.4215  -13.8210 C   0  0  0  0  0  0  0  0  0  0  0  0
   21.9904   -6.1278  -13.5875 N   0  0  0  0  0  0  0  0  0  0  0  0
   22.0148   -5.4886  -14.7700 C   0  0  0  0  0  0  0  0  0  0  0  0
   21.7705   -6.3533  -15.7694 N   0  0  0  0  0  0  0  0  0  0  0  0
   18.9115   -8.4412  -15.6749 C   0  0  0  0  0  0  0  0  0  0  0  0
   18.3231   -8.0017  -14.6530 O   0  0  0  0  0  0  0  0  0  0  0  0
   18.4613   -7.9331  -16.8879 O   0  0  0  0  0  0  0  0  0  0  0  0
  2  1  1  1
  2  4  1  0
  3  2  1  0
  4  6  1  0
  4  5  2  0
  6  7  1  0
  7 13  1  0
  7  8  1  6
  8  9  1  0
 10  9  1  0
 10 11  1  0
 11 12  1  0
 13 14  2  0
 15 13  1  0
 15 16  1  0
 16 23  1  0
 16 17  1  6
 18 17  1  0
 19 18  2  0
 20 19  1  0
 21 20  1  0
 21 22  2  0
 22 18  1  0
 23 25  1  0
 24 23  2  0
M  END
$$$$
