AKH.pdb
     RDKit          3D

 25 25  0  0  1  0  0  0  0  0999 V2000
   27.2003  -16.5760  -18.5023 C   0  0  0  0  0  0  0  0  0  0  0  0
   27.4332  -17.8701  -17.7526 C   0  0  2  0  0  0  0  0  0  0  0  0
   28.2999  -18.7096  -18.5317 N   0  0  0  0  0  0  0  0  0  0  0  0
   26.1121  -18.5178  -17.5299 C   0  0  0  0  0  0  0  0  0  0  0  0
   25.2690  -18.5147  -18.4533 O   0  0  0  0  0  0  0  0  0  0  0  0
   25.7941  -19.1332  -16.3009 N   0  0  0  0  0  0  0  0  0  0  0  0
   24.4945  -19.8231  -16.1930 C   0  0  1  0  0  0  0  0  0  0  0  0
   24.7666  -21.1878  -15.5693 C   0  0  0  0  0  0  0  0  0  0  0  0
   25.1258  -22.1699  -16.6207 C   0  0  0  0  0  0  0  0  0  0  0  0
   25.2540  -23.5629  -15.9882 C   0  0  0  0  0  0  0  0  0  0  0  0
   25.7561  -24.5074  -17.0408 C   0  0  0  0  0  0  0  0  0  0  0  0
   25.8941  -25.8355  -16.4490 N   0  0  0  0  0  0  0  0  0  0  0  0
   23.5844  -19.0509  -15.3473 C   0  0  0  0  0  0  0  0  0  0  0  0
   23.8753  -18.6895  -14.1621 O   0  0  0  0  0  0  0  0  0  0  0  0
   22.3239  -18.6553  -15.8104 N   0  0  0  0  0  0  0  0  0  0  0  0
   21.4256  -17.8918  -14.9666 C   0  0  1  0  0  0  0  0  0  0  0  0
   20.5790  -17.0868  -15.9289 C   0  0  0  0  0  0  0  0  0  0  0  0
   19.5762  -16.2644  -15.2629 C   0  0  0  0  0  0  0  0  0  0  0  0
   19.7770  -15.5827  -14.0759 C   0  0  0  0  0  0  0  0  0  0  0  0
   18.6256  -14.9530  -13.8018 N   0  0  0  0  0  0  0  0  0  0  0  0
   17.7522  -15.2378  -14.7834 C   0  0  0  0  0  0  0  0  0  0  0  0
   18.3239  -16.0459  -15.6924 N   0  0  0  0  0  0  0  0  0  0  0  0
   20.5695  -18.6947  -14.1151 C   0  0  0  0  0  0  0  0  0  0  0  0
   20.1746  -19.8047  -14.5571 O   0  0  0  0  0  0  0  0  0  0  0  0
   20.1270  -18.3688  -12.8383 O   0  0  0  0  0  0  0  0  0  0  0  0
  2  1  1  6
  2  4  1  0
  3  2  1  0
  4  6  1  0
  4  5  2  0
  6  7  1  0
  7 13  1  0
  7  8  1  1
  8  9  1  0
 10  9  1  0
 10 11  1  0
 11 12  1  0
 13 14  2  0
 15 13  1  0
 15 16  1  0
 16 23  1  0
 16 17  1  6
 18 17  1  0
 19 18  2  0
 20 19  1  0
 21 20  1  0
 21 22  2  0
 22 18  1  0
 23 25  1  0
 24 23  2  0
M  END
$$$$
