AKH.pdb
     RDKit          3D

 25 25  0  0  1  0  0  0  0  0999 V2000
   24.1441  -20.5908   -8.9253 C   0  0  0  0  0  0  0  0  0  0  0  0
   25.5817  -20.5509   -9.3974 C   0  0  2  0  0  0  0  0  0  0  0  0
   26.3054  -19.5967   -8.6045 N   0  0  0  0  0  0  0  0  0  0  0  0
   25.5840  -20.1693  -10.8357 C   0  0  0  0  0  0  0  0  0  0  0  0
   25.4681  -18.9635  -11.1460 O   0  0  0  0  0  0  0  0  0  0  0  0
   25.7139  -21.1388  -11.8523 N   0  0  0  0  0  0  0  0  0  0  0  0
   25.6708  -20.6771  -13.2528 C   0  0  1  0  0  0  0  0  0  0  0  0
   26.8011  -21.3877  -13.9897 C   0  0  0  0  0  0  0  0  0  0  0  0
   26.9085  -20.8780  -15.3780 C   0  0  0  0  0  0  0  0  0  0  0  0
   28.0566  -21.6026  -16.0948 C   0  0  0  0  0  0  0  0  0  0  0  0
   28.2181  -20.9879  -17.4542 C   0  0  0  0  0  0  0  0  0  0  0  0
   29.3569  -21.6163  -18.1186 N   0  0  0  0  0  0  0  0  0  0  0  0
   24.3810  -21.0158  -13.8540 C   0  0  0  0  0  0  0  0  0  0  0  0
   23.7410  -22.0794  -13.5729 O   0  0  0  0  0  0  0  0  0  0  0  0
   23.7684  -20.1665  -14.7830 N   0  0  0  0  0  0  0  0  0  0  0  0
   22.3456  -20.2534  -15.0477 C   0  0  1  0  0  0  0  0  0  0  0  0
   21.6841  -19.9319  -13.7249 C   0  0  0  0  0  0  0  0  0  0  0  0
   20.2309  -20.0416  -13.7672 C   0  0  0  0  0  0  0  0  0  0  0  0
   19.5309  -21.2342  -13.8106 C   0  0  0  0  0  0  0  0  0  0  0  0
   18.2307  -20.9089  -13.8400 N   0  0  0  0  0  0  0  0  0  0  0  0
   18.1371  -19.5679  -13.8156 C   0  0  0  0  0  0  0  0  0  0  0  0
   19.3628  -19.0185  -13.7706 N   0  0  0  0  0  0  0  0  0  0  0  0
   21.8654  -19.3431  -16.0692 C   0  0  0  0  0  0  0  0  0  0  0  0
   20.6656  -19.4480  -16.4335 O   0  0  0  0  0  0  0  0  0  0  0  0
   22.5975  -18.3467  -16.7044 O   0  0  0  0  0  0  0  0  0  0  0  0
  2  1  1  1
  2  4  1  0
  3  2  1  0
  4  6  1  0
  4  5  2  0
  6  7  1  0
  7 13  1  0
  7  8  1  6
  8  9  1  0
 10  9  1  0
 10 11  1  0
 11 12  1  0
 13 14  2  0
 15 13  1  0
 15 16  1  0
 16 23  1  0
 16 17  1  1
 18 17  1  0
 19 18  2  0
 20 19  1  0
 21 20  1  0
 21 22  2  0
 22 18  1  0
 23 25  1  0
 24 23  2  0
M  END
$$$$
