AKH.pdb
     RDKit          3D

 25 25  0  0  1  0  0  0  0  0999 V2000
   18.3802  -14.8550  -20.5761 C   0  0  0  0  0  0  0  0  0  0  0  0
   19.6267  -14.2521  -21.1876 C   0  0  2  0  0  0  0  0  0  0  0  0
   20.7372  -15.1286  -20.9395 N   0  0  0  0  0  0  0  0  0  0  0  0
   19.8445  -12.9168  -20.5679 C   0  0  0  0  0  0  0  0  0  0  0  0
   20.5269  -12.8343  -19.5234 O   0  0  0  0  0  0  0  0  0  0  0  0
   19.2974  -11.7464  -21.1347 N   0  0  0  0  0  0  0  0  0  0  0  0
   19.6850  -10.4507  -20.5453 C   0  0  1  0  0  0  0  0  0  0  0  0
   19.6699   -9.4266  -21.6751 C   0  0  0  0  0  0  0  0  0  0  0  0
   20.1800   -8.1211  -21.1910 C   0  0  0  0  0  0  0  0  0  0  0  0
   20.1306   -7.1025  -22.3386 C   0  0  0  0  0  0  0  0  0  0  0  0
   20.6612   -5.7963  -21.8245 C   0  0  0  0  0  0  0  0  0  0  0  0
   20.5946   -4.8096  -22.8993 N   0  0  0  0  0  0  0  0  0  0  0  0
   18.7341  -10.0690  -19.5014 C   0  0  0  0  0  0  0  0  0  0  0  0
   17.4736  -10.0660  -19.6769 O   0  0  0  0  0  0  0  0  0  0  0  0
   19.1705   -9.6866  -18.2274 N   0  0  0  0  0  0  0  0  0  0  0  0
   18.2312   -9.2196  -17.2267 C   0  0  1  0  0  0  0  0  0  0  0  0
   18.5832   -9.9913  -15.9732 C   0  0  0  0  0  0  0  0  0  0  0  0
   18.0547  -11.3500  -15.9671 C   0  0  0  0  0  0  0  0  0  0  0  0
   17.2277  -11.8790  -16.9419 C   0  0  0  0  0  0  0  0  0  0  0  0
   16.9674  -13.1414  -16.5731 N   0  0  0  0  0  0  0  0  0  0  0  0
   17.6105  -13.3773  -15.4163 C   0  0  0  0  0  0  0  0  0  0  0  0
   18.2857  -12.2817  -15.0295 N   0  0  0  0  0  0  0  0  0  0  0  0
   18.2935   -7.7958  -16.9588 C   0  0  0  0  0  0  0  0  0  0  0  0
   17.2298   -7.1312  -17.0598 O   0  0  0  0  0  0  0  0  0  0  0  0
   19.4203   -7.0677  -16.5950 O   0  0  0  0  0  0  0  0  0  0  0  0
  2  1  1  1
  2  4  1  0
  3  2  1  0
  4  6  1  0
  4  5  2  0
  6  7  1  0
  7 13  1  0
  7  8  1  6
  8  9  1  0
 10  9  1  0
 10 11  1  0
 11 12  1  0
 13 14  2  0
 15 13  1  0
 15 16  1  0
 16 23  1  0
 16 17  1  1
 18 17  1  0
 19 18  2  0
 20 19  1  0
 21 20  1  0
 21 22  2  0
 22 18  1  0
 23 25  1  0
 24 23  2  0
M  END
$$$$
