AKH.pdb
     RDKit          3D

 25 25  0  0  1  0  0  0  0  0999 V2000
   22.3490   -9.0329  -22.1686 C   0  0  0  0  0  0  0  0  0  0  0  0
   22.4282  -10.2223  -21.2357 C   0  0  2  0  0  0  0  0  0  0  0  0
   21.9867  -11.3947  -21.9382 N   0  0  0  0  0  0  0  0  0  0  0  0
   21.5640   -9.9420  -20.0572 C   0  0  0  0  0  0  0  0  0  0  0  0
   20.4705   -9.3602  -20.2287 O   0  0  0  0  0  0  0  0  0  0  0  0
   21.9536  -10.3191  -18.7548 N   0  0  0  0  0  0  0  0  0  0  0  0
   21.0020  -10.0748  -17.6543 C   0  0  1  0  0  0  0  0  0  0  0  0
   20.9802  -11.3363  -16.7978 C   0  0  0  0  0  0  0  0  0  0  0  0
   19.8598  -12.2164  -17.2092 C   0  0  0  0  0  0  0  0  0  0  0  0
   19.9140  -13.5170  -16.3952 C   0  0  0  0  0  0  0  0  0  0  0  0
   18.8338  -14.4277  -16.9010 C   0  0  0  0  0  0  0  0  0  0  0  0
   18.8342  -15.6455  -16.0947 N   0  0  0  0  0  0  0  0  0  0  0  0
   21.4384   -8.9281  -16.8579 C   0  0  0  0  0  0  0  0  0  0  0  0
   22.6335   -8.4904  -16.8664 O   0  0  0  0  0  0  0  0  0  0  0  0
   20.5438   -8.2343  -16.0343 N   0  0  0  0  0  0  0  0  0  0  0  0
   20.9743   -7.0774  -15.2740 C   0  0  1  0  0  0  0  0  0  0  0  0
   21.4214   -6.0732  -16.3144 C   0  0  0  0  0  0  0  0  0  0  0  0
   21.8204   -4.7926  -15.7431 C   0  0  0  0  0  0  0  0  0  0  0  0
   22.8214   -4.6260  -14.8028 C   0  0  0  0  0  0  0  0  0  0  0  0
   22.8778   -3.3128  -14.5388 N   0  0  0  0  0  0  0  0  0  0  0  0
   21.9468   -2.6978  -15.2888 C   0  0  0  0  0  0  0  0  0  0  0  0
   21.2861   -3.5974  -16.0372 N   0  0  0  0  0  0  0  0  0  0  0  0
   19.9469   -6.4899  -14.4362 C   0  0  0  0  0  0  0  0  0  0  0  0
   18.7738   -6.4438  -14.8890 O   0  0  0  0  0  0  0  0  0  0  0  0
   20.1163   -5.9610  -13.1619 O   0  0  0  0  0  0  0  0  0  0  0  0
  2  1  1  6
  2  4  1  0
  3  2  1  0
  4  6  1  0
  4  5  2  0
  6  7  1  0
  7 13  1  0
  7  8  1  1
  8  9  1  0
 10  9  1  0
 10 11  1  0
 11 12  1  0
 13 14  2  0
 15 13  1  0
 15 16  1  0
 16 23  1  0
 16 17  1  6
 18 17  1  0
 19 18  2  0
 20 19  1  0
 21 20  1  0
 21 22  2  0
 22 18  1  0
 23 25  1  0
 24 23  2  0
M  END
$$$$
