AKH.pdb
     RDKit          3D

 25 25  0  0  1  0  0  0  0  0999 V2000
   18.7364  -14.9873  -17.1218 C   0  0  0  0  0  0  0  0  0  0  0  0
   19.9524  -14.8448  -18.0118 C   0  0  2  0  0  0  0  0  0  0  0  0
   20.8142  -15.9753  -17.8065 N   0  0  0  0  0  0  0  0  0  0  0  0
   20.6374  -13.5726  -17.6559 C   0  0  0  0  0  0  0  0  0  0  0  0
   20.8834  -13.3290  -16.4544 O   0  0  0  0  0  0  0  0  0  0  0  0
   21.0132  -12.6395  -18.6451 N   0  0  0  0  0  0  0  0  0  0  0  0
   21.7410  -11.4321  -18.2106 C   0  0  1  0  0  0  0  0  0  0  0  0
   22.2889  -10.7670  -19.4689 C   0  0  0  0  0  0  0  0  0  0  0  0
   23.0779   -9.5635  -19.1109 C   0  0  0  0  0  0  0  0  0  0  0  0
   23.7298   -8.9917  -20.3778 C   0  0  0  0  0  0  0  0  0  0  0  0
   24.5343   -7.7877  -19.9841 C   0  0  0  0  0  0  0  0  0  0  0  0
   25.2951   -7.3342  -21.1455 N   0  0  0  0  0  0  0  0  0  0  0  0
   20.8337  -10.5233  -17.5102 C   0  0  0  0  0  0  0  0  0  0  0  0
   19.6410  -10.2996  -17.8939 O   0  0  0  0  0  0  0  0  0  0  0  0
   21.2366   -9.8447  -16.3539 N   0  0  0  0  0  0  0  0  0  0  0  0
   20.3107   -9.0014  -15.6235 C   0  0  1  0  0  0  0  0  0  0  0  0
   19.8173   -9.8640  -14.4820 C   0  0  0  0  0  0  0  0  0  0  0  0
   18.8788   -9.1747  -13.6046 C   0  0  0  0  0  0  0  0  0  0  0  0
   18.4368   -7.8765  -13.7868 C   0  0  0  0  0  0  0  0  0  0  0  0
   17.5934   -7.6188  -12.7770 N   0  0  0  0  0  0  0  0  0  0  0  0
   17.5211   -8.7172  -12.0052 C   0  0  0  0  0  0  0  0  0  0  0  0
   18.3086   -9.6859  -12.5028 N   0  0  0  0  0  0  0  0  0  0  0  0
   20.8917   -7.7807  -15.0991 C   0  0  0  0  0  0  0  0  0  0  0  0
   22.1353   -7.7558  -14.9084 O   0  0  0  0  0  0  0  0  0  0  0  0
   20.2146   -6.6103  -14.7769 O   0  0  0  0  0  0  0  0  0  0  0  0
  2  1  1  1
  2  4  1  0
  3  2  1  0
  4  6  1  0
  4  5  2  0
  6  7  1  0
  7 13  1  0
  7  8  1  6
  8  9  1  0
 10  9  1  0
 10 11  1  0
 11 12  1  0
 13 14  2  0
 15 13  1  0
 15 16  1  0
 16 23  1  0
 16 17  1  1
 18 17  1  0
 19 18  2  0
 20 19  1  0
 21 20  1  0
 21 22  2  0
 22 18  1  0
 23 25  1  0
 24 23  2  0
M  END
$$$$
