AKH.pdb
     RDKit          3D

 25 25  0  0  1  0  0  0  0  0999 V2000
   21.6281  -11.9356  -22.3357 C   0  0  0  0  0  0  0  0  0  0  0  0
   21.8646  -10.8875  -21.2698 C   0  0  2  0  0  0  0  0  0  0  0  0
   22.7587  -11.4227  -20.2812 N   0  0  0  0  0  0  0  0  0  0  0  0
   20.5488  -10.5333  -20.6717 C   0  0  0  0  0  0  0  0  0  0  0  0
   19.6892   -9.9684  -21.3827 O   0  0  0  0  0  0  0  0  0  0  0  0
   20.2541  -10.8218  -19.3226 N   0  0  0  0  0  0  0  0  0  0  0  0
   18.9190  -10.4515  -18.8158 C   0  0  1  0  0  0  0  0  0  0  0  0
   18.4922  -11.5483  -17.8460 C   0  0  0  0  0  0  0  0  0  0  0  0
   17.8543  -12.6654  -18.5835 C   0  0  0  0  0  0  0  0  0  0  0  0
   18.3514  -13.9993  -18.0085 C   0  0  0  0  0  0  0  0  0  0  0  0
   17.6892  -15.1099  -18.7701 C   0  0  0  0  0  0  0  0  0  0  0  0
   18.1170  -16.3857  -18.2020 N   0  0  0  0  0  0  0  0  0  0  0  0
   18.9824   -9.1622  -18.1279 C   0  0  0  0  0  0  0  0  0  0  0  0
   17.9826   -8.6381  -17.5401 O   0  0  0  0  0  0  0  0  0  0  0  0
   20.1725   -8.4269  -18.0735 N   0  0  0  0  0  0  0  0  0  0  0  0
   20.2033   -7.1006  -17.4889 C   0  0  1  0  0  0  0  0  0  0  0  0
   21.2547   -7.1789  -16.4030 C   0  0  0  0  0  0  0  0  0  0  0  0
   21.4467   -5.9180  -15.6967 C   0  0  0  0  0  0  0  0  0  0  0  0
   20.7184   -4.7650  -15.9291 C   0  0  0  0  0  0  0  0  0  0  0  0
   21.1953   -3.8395  -15.0843 N   0  0  0  0  0  0  0  0  0  0  0  0
   22.1784   -4.4039  -14.3616 C   0  0  0  0  0  0  0  0  0  0  0  0
   22.3455   -5.6861  -14.7277 N   0  0  0  0  0  0  0  0  0  0  0  0
   20.5378   -6.0392  -18.4186 C   0  0  0  0  0  0  0  0  0  0  0  0
   20.5903   -4.8630  -17.9744 O   0  0  0  0  0  0  0  0  0  0  0  0
   20.8128   -6.1785  -19.7741 O   0  0  0  0  0  0  0  0  0  0  0  0
  2  1  1  6
  2  4  1  0
  3  2  1  0
  4  6  1  0
  4  5  2  0
  6  7  1  0
  7 13  1  0
  7  8  1  1
  8  9  1  0
 10  9  1  0
 10 11  1  0
 11 12  1  0
 13 14  2  0
 15 13  1  0
 15 16  1  0
 16 23  1  0
 16 17  1  1
 18 17  1  0
 19 18  2  0
 20 19  1  0
 21 20  1  0
 21 22  2  0
 22 18  1  0
 23 25  1  0
 24 23  2  0
M  END
$$$$
