AKH.pdb
     RDKit          3D

 25 25  0  0  1  0  0  0  0  0999 V2000
   21.3685  -14.1447  -21.2424 C   0  0  0  0  0  0  0  0  0  0  0  0
   22.1400  -13.2616  -20.2854 C   0  0  2  0  0  0  0  0  0  0  0  0
   22.7426  -14.0856  -19.2750 N   0  0  0  0  0  0  0  0  0  0  0  0
   21.1877  -12.2862  -19.6888 C   0  0  0  0  0  0  0  0  0  0  0  0
   20.6249  -11.4524  -20.4316 O   0  0  0  0  0  0  0  0  0  0  0  0
   20.9087  -12.2843  -18.3059 N   0  0  0  0  0  0  0  0  0  0  0  0
   19.9962  -11.2464  -17.7896 C   0  0  1  0  0  0  0  0  0  0  0  0
   18.9962  -11.9484  -16.8770 C   0  0  0  0  0  0  0  0  0  0  0  0
   18.0666  -10.9602  -16.2784 C   0  0  0  0  0  0  0  0  0  0  0  0
   17.0402  -11.6964  -15.4058 C   0  0  0  0  0  0  0  0  0  0  0  0
   16.0599  -10.6853  -14.8874 C   0  0  0  0  0  0  0  0  0  0  0  0
   15.0926  -11.3684  -14.0324 N   0  0  0  0  0  0  0  0  0  0  0  0
   20.7503  -10.2424  -17.0394 C   0  0  0  0  0  0  0  0  0  0  0  0
   21.4980  -10.5304  -16.0505 O   0  0  0  0  0  0  0  0  0  0  0  0
   20.6928   -8.8863  -17.3821 N   0  0  0  0  0  0  0  0  0  0  0  0
   21.4181   -7.8922  -16.6156 C   0  0  1  0  0  0  0  0  0  0  0  0
   21.5936   -6.7241  -17.5618 C   0  0  0  0  0  0  0  0  0  0  0  0
   22.3585   -5.6258  -16.9836 C   0  0  0  0  0  0  0  0  0  0  0  0
   23.4588   -5.7792  -16.1591 C   0  0  0  0  0  0  0  0  0  0  0  0
   23.8713   -4.5429  -15.8446 N   0  0  0  0  0  0  0  0  0  0  0  0
   23.0549   -3.6651  -16.4533 C   0  0  0  0  0  0  0  0  0  0  0  0
   22.1164   -4.3178  -17.1598 N   0  0  0  0  0  0  0  0  0  0  0  0
   20.7435   -7.4494  -15.4108 C   0  0  0  0  0  0  0  0  0  0  0  0
   19.4867   -7.3901  -15.4284 O   0  0  0  0  0  0  0  0  0  0  0  0
   21.3422   -7.0752  -14.2134 O   0  0  0  0  0  0  0  0  0  0  0  0
  2  1  1  6
  2  4  1  0
  3  2  1  0
  4  6  1  0
  4  5  2  0
  6  7  1  0
  7 13  1  0
  7  8  1  1
  8  9  1  0
 10  9  1  0
 10 11  1  0
 11 12  1  0
 13 14  2  0
 15 13  1  0
 15 16  1  0
 16 23  1  0
 16 17  1  6
 18 17  1  0
 19 18  2  0
 20 19  1  0
 21 20  1  0
 21 22  2  0
 22 18  1  0
 23 25  1  0
 24 23  2  0
M  END
$$$$
