AKH.pdb
     RDKit          3D

 25 25  0  0  1  0  0  0  0  0999 V2000
   20.0368  -28.4161   -9.9816 C   0  0  0  0  0  0  0  0  0  0  0  0
   21.2097  -28.6072  -10.9190 C   0  0  2  0  0  0  0  0  0  0  0  0
   20.7550  -28.4468  -12.2719 N   0  0  0  0  0  0  0  0  0  0  0  0
   21.7624  -29.9703  -10.6937 C   0  0  0  0  0  0  0  0  0  0  0  0
   21.2993  -30.9307  -11.3469 O   0  0  0  0  0  0  0  0  0  0  0  0
   22.7954  -30.1987   -9.7604 N   0  0  0  0  0  0  0  0  0  0  0  0
   23.3122  -31.5742   -9.6292 C   0  0  1  0  0  0  0  0  0  0  0  0
   24.7161  -31.4672   -9.0433 C   0  0  0  0  0  0  0  0  0  0  0  0
   25.3391  -32.8100   -8.9556 C   0  0  0  0  0  0  0  0  0  0  0  0
   26.7230  -32.6832   -8.3030 C   0  0  0  0  0  0  0  0  0  0  0  0
   27.3609  -34.0415   -8.2974 C   0  0  0  0  0  0  0  0  0  0  0  0
   28.6774  -33.9365   -7.6736 N   0  0  0  0  0  0  0  0  0  0  0  0
   22.4494  -32.3526   -8.7408 C   0  0  0  0  0  0  0  0  0  0  0  0
   21.9339  -31.8757   -7.6793 O   0  0  0  0  0  0  0  0  0  0  0  0
   22.1340  -33.6872   -9.0221 N   0  0  0  0  0  0  0  0  0  0  0  0
   21.3026  -34.4624   -8.1223 C   0  0  1  0  0  0  0  0  0  0  0  0
   20.8091  -35.6260   -8.9548 C   0  0  0  0  0  0  0  0  0  0  0  0
   19.6644  -35.2891   -9.7924 C   0  0  0  0  0  0  0  0  0  0  0  0
   18.8855  -34.1553   -9.6446 C   0  0  0  0  0  0  0  0  0  0  0  0
   17.9458  -34.2147  -10.5989 N   0  0  0  0  0  0  0  0  0  0  0  0
   18.1411  -35.3421  -11.3049 C   0  0  0  0  0  0  0  0  0  0  0  0
   19.1978  -36.0157  -10.8194 N   0  0  0  0  0  0  0  0  0  0  0  0
   21.9880  -34.9587   -6.9448 C   0  0  0  0  0  0  0  0  0  0  0  0
   21.2964  -35.2112   -5.9243 O   0  0  0  0  0  0  0  0  0  0  0  0
   23.3522  -35.1919   -6.8143 O   0  0  0  0  0  0  0  0  0  0  0  0
  2  1  1  1
  2  4  1  0
  3  2  1  0
  4  6  1  0
  4  5  2  0
  6  7  1  0
  7 13  1  0
  7  8  1  1
  8  9  1  0
 10  9  1  0
 10 11  1  0
 11 12  1  0
 13 14  2  0
 15 13  1  0
 15 16  1  0
 16 23  1  0
 16 17  1  6
 18 17  1  0
 19 18  2  0
 20 19  1  0
 21 20  1  0
 21 22  2  0
 22 18  1  0
 23 25  1  0
 24 23  2  0
M  END
$$$$
