AKH.pdb
     RDKit          3D

 25 25  0  0  1  0  0  0  0  0999 V2000
   24.7045  -20.7868   -9.4239 C   0  0  0  0  0  0  0  0  0  0  0  0
   26.1048  -20.7981   -9.9984 C   0  0  2  0  0  0  0  0  0  0  0  0
   27.0018  -20.1997   -9.0496 N   0  0  0  0  0  0  0  0  0  0  0  0
   26.0847  -20.0362  -11.2766 C   0  0  0  0  0  0  0  0  0  0  0  0
   26.0811  -18.7863  -11.2403 O   0  0  0  0  0  0  0  0  0  0  0  0
   26.0698  -20.6952  -12.5239 N   0  0  0  0  0  0  0  0  0  0  0  0
   26.0409  -19.8625  -13.7414 C   0  0  1  0  0  0  0  0  0  0  0  0
   27.0118  -20.4932  -14.7339 C   0  0  0  0  0  0  0  0  0  0  0  0
   27.0542  -19.6988  -15.9853 C   0  0  0  0  0  0  0  0  0  0  0  0
   27.9999  -20.3804  -16.9844 C   0  0  0  0  0  0  0  0  0  0  0  0
   28.1082  -19.5018  -18.1962 C   0  0  0  0  0  0  0  0  0  0  0  0
   29.1490  -20.0372  -19.0698 N   0  0  0  0  0  0  0  0  0  0  0  0
   24.6894  -19.8363  -14.3002 C   0  0  0  0  0  0  0  0  0  0  0  0
   23.8038  -20.7059  -14.0186 O   0  0  0  0  0  0  0  0  0  0  0  0
   24.2901  -18.8284  -15.1860 N   0  0  0  0  0  0  0  0  0  0  0  0
   22.8895  -18.6217  -15.4978 C   0  0  1  0  0  0  0  0  0  0  0  0
   22.2320  -18.3401  -14.1639 C   0  0  0  0  0  0  0  0  0  0  0  0
   20.8145  -18.0189  -14.2781 C   0  0  0  0  0  0  0  0  0  0  0  0
   19.9354  -18.6299  -15.1544 C   0  0  0  0  0  0  0  0  0  0  0  0
   18.7400  -18.0579  -14.9515 N   0  0  0  0  0  0  0  0  0  0  0  0
   18.8809  -17.1315  -13.9874 C   0  0  0  0  0  0  0  0  0  0  0  0
   20.1551  -17.0955  -13.5619 N   0  0  0  0  0  0  0  0  0  0  0  0
   22.6303  -17.5266  -16.4122 C   0  0  0  0  0  0  0  0  0  0  0  0
   21.4815  -17.4427  -16.9189 O   0  0  0  0  0  0  0  0  0  0  0  0
   23.5276  -16.5382  -16.7999 O   0  0  0  0  0  0  0  0  0  0  0  0
  2  1  1  1
  2  4  1  0
  3  2  1  0
  4  6  1  0
  4  5  2  0
  6  7  1  0
  7 13  1  0
  7  8  1  6
  8  9  1  0
 10  9  1  0
 10 11  1  0
 11 12  1  0
 13 14  2  0
 15 13  1  0
 15 16  1  0
 16 23  1  0
 16 17  1  1
 18 17  1  0
 19 18  2  0
 20 19  1  0
 21 20  1  0
 21 22  2  0
 22 18  1  0
 23 25  1  0
 24 23  2  0
M  END
$$$$
