AKH.pdb
     RDKit          3D

 25 25  0  0  1  0  0  0  0  0999 V2000
   27.9258  -19.6853  -15.9190 C   0  0  0  0  0  0  0  0  0  0  0  0
   26.9142  -20.7706  -15.6194 C   0  0  2  0  0  0  0  0  0  0  0  0
   26.5961  -21.4597  -16.8388 N   0  0  0  0  0  0  0  0  0  0  0  0
   25.7075  -20.1267  -15.0331 C   0  0  0  0  0  0  0  0  0  0  0  0
   25.8041  -19.5401  -13.9330 O   0  0  0  0  0  0  0  0  0  0  0  0
   24.4610  -20.1655  -15.6926 N   0  0  0  0  0  0  0  0  0  0  0  0
   23.3495  -19.3907  -15.1089 C   0  0  1  0  0  0  0  0  0  0  0  0
   22.8036  -18.4946  -16.2155 C   0  0  0  0  0  0  0  0  0  0  0  0
   23.4452  -17.1590  -16.1574 C   0  0  0  0  0  0  0  0  0  0  0  0
   22.8653  -16.2712  -17.2676 C   0  0  0  0  0  0  0  0  0  0  0  0
   23.5908  -14.9579  -17.2398 C   0  0  0  0  0  0  0  0  0  0  0  0
   23.1337  -14.1479  -18.3659 N   0  0  0  0  0  0  0  0  0  0  0  0
   22.3057  -20.2947  -14.6265 C   0  0  0  0  0  0  0  0  0  0  0  0
   21.9449  -21.3394  -15.2575 O   0  0  0  0  0  0  0  0  0  0  0  0
   21.6415  -20.0562  -13.4174 N   0  0  0  0  0  0  0  0  0  0  0  0
   20.5941  -20.9452  -12.9543 C   0  0  1  0  0  0  0  0  0  0  0  0
   21.0610  -21.4211  -11.5956 C   0  0  0  0  0  0  0  0  0  0  0  0
   20.1231  -22.3334  -10.9524 C   0  0  0  0  0  0  0  0  0  0  0  0
   18.8885  -22.6870  -11.4667 C   0  0  0  0  0  0  0  0  0  0  0  0
   18.3401  -23.5351  -10.5849 N   0  0  0  0  0  0  0  0  0  0  0  0
   19.2058  -23.6953   -9.5688 C   0  0  0  0  0  0  0  0  0  0  0  0
   20.3107  -22.9603   -9.7809 N   0  0  0  0  0  0  0  0  0  0  0  0
   19.2878  -20.3272  -12.8343 C   0  0  0  0  0  0  0  0  0  0  0  0
   19.2407  -19.0992  -12.5637 O   0  0  0  0  0  0  0  0  0  0  0  0
   18.0559  -20.9525  -12.9880 O   0  0  0  0  0  0  0  0  0  0  0  0
  2  1  1  6
  2  4  1  0
  3  2  1  0
  4  6  1  0
  4  5  2  0
  6  7  1  0
  7 13  1  0
  7  8  1  6
  8  9  1  0
 10  9  1  0
 10 11  1  0
 11 12  1  0
 13 14  2  0
 15 13  1  0
 15 16  1  0
 16 23  1  0
 16 17  1  1
 18 17  1  0
 19 18  2  0
 20 19  1  0
 21 20  1  0
 21 22  2  0
 22 18  1  0
 23 25  1  0
 24 23  2  0
M  END
$$$$
