AKH.pdb
     RDKit          3D

 25 25  0  0  1  0  0  0  0  0999 V2000
   25.2816  -25.2044  -16.1952 C   0  0  0  0  0  0  0  0  0  0  0  0
   25.1818  -23.6962  -16.2743 C   0  0  2  0  0  0  0  0  0  0  0  0
   26.4992  -23.1514  -16.4500 N   0  0  0  0  0  0  0  0  0  0  0  0
   24.5602  -23.2086  -15.0132 C   0  0  0  0  0  0  0  0  0  0  0  0
   23.3939  -23.5619  -14.7332 O   0  0  0  0  0  0  0  0  0  0  0  0
   25.2595  -22.3585  -14.1309 N   0  0  0  0  0  0  0  0  0  0  0  0
   24.5227  -21.8084  -12.9772 C   0  0  1  0  0  0  0  0  0  0  0  0
   25.5568  -21.4792  -11.9059 C   0  0  0  0  0  0  0  0  0  0  0  0
   26.8881  -21.2707  -12.5249 C   0  0  0  0  0  0  0  0  0  0  0  0
   27.9223  -21.0061  -11.4215 C   0  0  0  0  0  0  0  0  0  0  0  0
   29.2277  -20.6664  -12.0792 C   0  0  0  0  0  0  0  0  0  0  0  0
   30.2222  -20.4130  -11.0400 N   0  0  0  0  0  0  0  0  0  0  0  0
   23.7992  -20.6002  -13.3727 C   0  0  0  0  0  0  0  0  0  0  0  0
   24.3231  -19.6734  -14.0701 O   0  0  0  0  0  0  0  0  0  0  0  0
   22.4638  -20.4007  -13.0030 N   0  0  0  0  0  0  0  0  0  0  0  0
   21.5853  -19.5692  -13.8022 C   0  0  1  0  0  0  0  0  0  0  0  0
   21.6725  -20.1431  -15.1999 C   0  0  0  0  0  0  0  0  0  0  0  0
   20.8940  -19.3938  -16.1787 C   0  0  0  0  0  0  0  0  0  0  0  0
   20.7125  -18.0224  -16.1592 C   0  0  0  0  0  0  0  0  0  0  0  0
   19.9440  -17.7274  -17.2174 N   0  0  0  0  0  0  0  0  0  0  0  0
   19.6650  -18.8743  -17.8610 C   0  0  0  0  0  0  0  0  0  0  0  0
   20.2440  -19.9113  -17.2323 N   0  0  0  0  0  0  0  0  0  0  0  0
   20.2032  -19.5563  -13.3636 C   0  0  0  0  0  0  0  0  0  0  0  0
   19.6588  -18.4389  -13.1673 O   0  0  0  0  0  0  0  0  0  0  0  0
   19.3953  -20.6633  -13.1308 O   0  0  0  0  0  0  0  0  0  0  0  0
  2  1  1  1
  2  4  1  0
  3  2  1  0
  4  6  1  0
  4  5  2  0
  6  7  1  0
  7 13  1  0
  7  8  1  1
  8  9  1  0
 10  9  1  0
 10 11  1  0
 11 12  1  0
 13 14  2  0
 15 13  1  0
 15 16  1  0
 16 23  1  0
 16 17  1  6
 18 17  1  0
 19 18  2  0
 20 19  1  0
 21 20  1  0
 21 22  2  0
 22 18  1  0
 23 25  1  0
 24 23  2  0
M  END
$$$$
