AKH.pdb
     RDKit          3D

 25 25  0  0  1  0  0  0  0  0999 V2000
   29.6367  -27.7552  -22.8358 C   0  0  0  0  0  0  0  0  0  0  0  0
   29.2662  -26.8160  -21.7082 C   0  0  2  0  0  0  0  0  0  0  0  0
   30.4685  -26.3618  -21.0670 N   0  0  0  0  0  0  0  0  0  0  0  0
   28.3952  -27.5586  -20.7572 C   0  0  0  0  0  0  0  0  0  0  0  0
   27.2046  -27.7805  -21.0683 O   0  0  0  0  0  0  0  0  0  0  0  0
   28.8857  -28.0154  -19.5158 N   0  0  0  0  0  0  0  0  0  0  0  0
   27.9334  -28.6701  -18.5988 C   0  0  1  0  0  0  0  0  0  0  0  0
   28.6959  -29.7824  -17.8868 C   0  0  0  0  0  0  0  0  0  0  0  0
   27.8023  -30.4918  -16.9395 C   0  0  0  0  0  0  0  0  0  0  0  0
   28.5883  -31.6152  -16.2486 C   0  0  0  0  0  0  0  0  0  0  0  0
   27.6305  -32.3994  -15.4004 C   0  0  0  0  0  0  0  0  0  0  0  0
   28.3729  -33.4473  -14.7047 N   0  0  0  0  0  0  0  0  0  0  0  0
   27.4241  -27.7018  -17.6279 C   0  0  0  0  0  0  0  0  0  0  0  0
   28.1813  -27.0003  -16.8833 O   0  0  0  0  0  0  0  0  0  0  0  0
   26.0498  -27.4873  -17.4699 N   0  0  0  0  0  0  0  0  0  0  0  0
   25.5545  -26.3778  -16.6791 C   0  0  1  0  0  0  0  0  0  0  0  0
   26.0875  -25.1405  -17.3688 C   0  0  0  0  0  0  0  0  0  0  0  0
   25.6045  -23.8989  -16.7765 C   0  0  0  0  0  0  0  0  0  0  0  0
   24.8081  -23.8210  -15.6480 C   0  0  0  0  0  0  0  0  0  0  0  0
   24.5853  -22.5169  -15.4314 N   0  0  0  0  0  0  0  0  0  0  0  0
   25.2210  -21.8218  -16.3906 C   0  0  0  0  0  0  0  0  0  0  0  0
   25.8544  -22.6604  -17.2282 N   0  0  0  0  0  0  0  0  0  0  0  0
   24.1095  -26.3017  -16.5850 C   0  0  0  0  0  0  0  0  0  0  0  0
   23.4311  -27.0591  -17.3264 O   0  0  0  0  0  0  0  0  0  0  0  0
   23.3742  -25.4684  -15.7500 O   0  0  0  0  0  0  0  0  0  0  0  0
  2  1  1  6
  2  4  1  0
  3  2  1  0
  4  6  1  0
  4  5  2  0
  6  7  1  0
  7 13  1  0
  7  8  1  1
  8  9  1  0
 10  9  1  0
 10 11  1  0
 11 12  1  0
 13 14  2  0
 15 13  1  0
 15 16  1  0
 16 23  1  0
 16 17  1  6
 18 17  1  0
 19 18  2  0
 20 19  1  0
 21 20  1  0
 21 22  2  0
 22 18  1  0
 23 25  1  0
 24 23  2  0
M  END
$$$$
