AKH.pdb
     RDKit          3D

 25 25  0  0  1  0  0  0  0  0999 V2000
   26.0547  -26.1170  -21.2604 C   0  0  0  0  0  0  0  0  0  0  0  0
   27.5525  -26.2838  -21.4001 C   0  0  2  0  0  0  0  0  0  0  0  0
   27.8765  -26.4313  -22.7916 N   0  0  0  0  0  0  0  0  0  0  0  0
   27.9570  -27.4858  -20.6217 C   0  0  0  0  0  0  0  0  0  0  0  0
   27.1397  -28.4212  -20.4777 O   0  0  0  0  0  0  0  0  0  0  0  0
   29.2404  -27.5896  -20.0453 N   0  0  0  0  0  0  0  0  0  0  0  0
   29.5655  -28.8254  -19.3080 C   0  0  1  0  0  0  0  0  0  0  0  0
   31.0779  -28.8418  -19.1136 C   0  0  0  0  0  0  0  0  0  0  0  0
   31.4665  -29.9481  -18.2059 C   0  0  0  0  0  0  0  0  0  0  0  0
   32.4339  -30.8876  -18.9398 C   0  0  0  0  0  0  0  0  0  0  0  0
   32.7469  -32.0377  -18.0281 C   0  0  0  0  0  0  0  0  0  0  0  0
   33.6806  -32.9318  -18.7079 N   0  0  0  0  0  0  0  0  0  0  0  0
   28.8870  -28.8306  -18.0121 C   0  0  0  0  0  0  0  0  0  0  0  0
   29.0422  -27.9141  -17.1428 O   0  0  0  0  0  0  0  0  0  0  0  0
   28.0085  -29.8612  -17.6574 N   0  0  0  0  0  0  0  0  0  0  0  0
   27.4533  -29.9404  -16.3205 C   0  0  1  0  0  0  0  0  0  0  0  0
   25.9584  -29.8008  -16.5117 C   0  0  0  0  0  0  0  0  0  0  0  0
   25.3348  -30.9983  -17.0617 C   0  0  0  0  0  0  0  0  0  0  0  0
   26.0203  -32.1305  -17.4643 C   0  0  0  0  0  0  0  0  0  0  0  0
   25.0960  -32.9957  -17.9053 N   0  0  0  0  0  0  0  0  0  0  0  0
   23.8897  -32.4159  -17.7778 C   0  0  0  0  0  0  0  0  0  0  0  0
   24.0205  -31.1832  -17.2587 N   0  0  0  0  0  0  0  0  0  0  0  0
   27.7438  -31.1758  -15.6190 C   0  0  0  0  0  0  0  0  0  0  0  0
   27.3346  -31.2899  -14.4346 O   0  0  0  0  0  0  0  0  0  0  0  0
   28.4383  -32.2713  -16.1190 O   0  0  0  0  0  0  0  0  0  0  0  0
  2  1  1  6
  2  4  1  0
  3  2  1  0
  4  6  1  0
  4  5  2  0
  6  7  1  0
  7 13  1  0
  7  8  1  1
  8  9  1  0
 10  9  1  0
 10 11  1  0
 11 12  1  0
 13 14  2  0
 15 13  1  0
 15 16  1  0
 16 23  1  0
 16 17  1  6
 18 17  1  0
 19 18  2  0
 20 19  1  0
 21 20  1  0
 21 22  2  0
 22 18  1  0
 23 25  1  0
 24 23  2  0
M  END
$$$$
