WQV.pdb
     RDKit          3D

 31 32  0  0  1  0  0  0  0  0999 V2000
    6.5415  -16.7627   23.0376 N   0  0  0  0  0  0  0  0  0  0  0  0
    7.7669  -16.0442   23.3011 C   0  0  1  0  0  0  0  0  0  0  0  0
    7.9309  -15.7712   24.7755 C   0  0  0  0  0  0  0  0  0  0  0  0
    6.9115  -14.7684   25.1692 C   0  0  0  0  0  0  0  0  0  0  0  0
    5.6471  -14.9897   25.6593 C   0  0  0  0  0  0  0  0  0  0  0  0
    5.0537  -13.8148   25.8884 N   0  0  0  0  0  0  0  0  0  0  0  0
    5.8839  -12.7875   25.5658 C   0  0  0  0  0  0  0  0  0  0  0  0
    5.7605  -11.4049   25.6125 C   0  0  0  0  0  0  0  0  0  0  0  0
    6.8099  -10.6016   25.2051 C   0  0  0  0  0  0  0  0  0  0  0  0
    7.9741  -11.2105   24.7545 C   0  0  0  0  0  0  0  0  0  0  0  0
    8.0813  -12.5873   24.7142 C   0  0  0  0  0  0  0  0  0  0  0  0
    7.0431  -13.3846   25.1171 C   0  0  0  0  0  0  0  0  0  0  0  0
    8.9079  -16.9467   22.9069 C   0  0  0  0  0  0  0  0  0  0  0  0
    8.6746  -18.1097   22.5247 O   0  0  0  0  0  0  0  0  0  0  0  0
   13.4751  -18.3078   20.4185 N   0  0  0  0  0  0  0  0  0  0  0  0
   13.1079  -16.9414   20.4514 C   0  0  0  0  0  0  0  0  0  0  0  0
   13.2039  -16.1927   19.4488 O   0  0  0  0  0  0  0  0  0  0  0  0
   12.5841  -16.3424   21.7121 C   0  0  0  0  0  0  0  0  0  0  0  0
   12.4723  -17.3637   22.8112 C   0  0  0  0  0  0  0  0  0  0  0  0
   11.2711  -17.0238   23.6646 C   0  0  2  0  0  0  0  0  0  0  0  0
   10.1867  -16.3942   23.0022 N   0  0  0  0  0  0  0  0  0  0  0  0
   11.5385  -16.4618   24.9636 C   0  0  0  0  0  0  0  0  0  0  0  0
   12.5174  -15.6465   25.0810 O   0  0  0  0  0  0  0  0  0  0  0  0
   10.7368  -14.8107   29.4198 C   0  0  0  0  0  0  0  0  0  0  0  0
   10.3194  -15.2698   28.0629 C   0  0  1  0  0  0  0  0  0  0  0  0
   10.1331  -14.0872   27.1508 C   0  0  0  0  0  0  0  0  0  0  0  0
   11.2944  -16.2365   27.4315 C   0  0  2  0  0  0  0  0  0  0  0  0
   10.8099  -16.7266   26.1538 N   0  0  0  0  0  0  0  0  0  0  0  0
   11.4917  -17.3841   28.3510 C   0  0  0  0  0  0  0  0  0  0  0  0
   12.2038  -17.2637   29.5325 O   0  0  0  0  0  0  0  0  0  0  0  0
   11.0094  -18.5114   28.0751 O   0  0  0  0  0  0  0  0  0  0  0  0
  2  1  1  1
  3  4  1  0
  3  2  1  0
  4  5  2  0
  6  5  1  0
  7  6  1  0
  8  7  2  0
  9  8  1  0
 10  9  2  0
 10 11  1  0
 11 12  2  0
 12  7  1  0
 12  4  1  0
 13  2  1  0
 13 14  2  0
 16 15  1  0
 16 17  2  0
 18 19  1  0
 18 16  1  0
 20 19  1  6
 20 21  1  0
 21 13  1  0
 22 28  1  0
 22 20  1  0
 23 22  2  0
 25 24  1  1
 26 25  1  0
 27 25  1  0
 27 29  1  0
 27 28  1  6
 29 30  1  0
 31 29  2  0
M  END
$$$$
