WQV.pdb
     RDKit          3D

 31 32  0  0  1  0  0  0  0  0999 V2000
    6.3301  -17.2253   24.4417 N   0  0  0  0  0  0  0  0  0  0  0  0
    7.2944  -16.7948   23.4557 C   0  0  1  0  0  0  0  0  0  0  0  0
    7.2277  -15.3027   23.2452 C   0  0  0  0  0  0  0  0  0  0  0  0
    6.7215  -14.6883   24.4967 C   0  0  0  0  0  0  0  0  0  0  0  0
    6.0680  -15.2997   25.5393 C   0  0  0  0  0  0  0  0  0  0  0  0
    5.7840  -14.3881   26.4737 N   0  0  0  0  0  0  0  0  0  0  0  0
    6.2288  -13.1600   26.0962 C   0  0  0  0  0  0  0  0  0  0  0  0
    6.1899  -11.9036   26.6868 C   0  0  0  0  0  0  0  0  0  0  0  0
    6.7433  -10.8153   26.0372 C   0  0  0  0  0  0  0  0  0  0  0  0
    7.3306  -11.0141   24.7943 C   0  0  0  0  0  0  0  0  0  0  0  0
    7.3613  -12.2703   24.2201 C   0  0  0  0  0  0  0  0  0  0  0  0
    6.8138  -13.3492   24.8619 C   0  0  0  0  0  0  0  0  0  0  0  0
    8.6642  -17.0841   24.0139 C   0  0  0  0  0  0  0  0  0  0  0  0
    8.7764  -17.6606   25.1131 O   0  0  0  0  0  0  0  0  0  0  0  0
   14.8271  -17.1985   20.8428 N   0  0  0  0  0  0  0  0  0  0  0  0
   14.2283  -17.9268   21.8982 C   0  0  0  0  0  0  0  0  0  0  0  0
   14.3207  -19.1746   21.9941 O   0  0  0  0  0  0  0  0  0  0  0  0
   13.4524  -17.2096   22.9499 C   0  0  0  0  0  0  0  0  0  0  0  0
   12.1052  -16.7680   22.4462 C   0  0  0  0  0  0  0  0  0  0  0  0
   11.1005  -16.9125   23.5672 C   0  0  2  0  0  0  0  0  0  0  0  0
    9.7442  -16.6705   23.2315 N   0  0  0  0  0  0  0  0  0  0  0  0
   11.4709  -16.3572   24.8436 C   0  0  0  0  0  0  0  0  0  0  0  0
   12.2966  -15.3801   24.8623 O   0  0  0  0  0  0  0  0  0  0  0  0
   10.1631  -14.1031   26.9648 C   0  0  0  0  0  0  0  0  0  0  0  0
   10.5315  -15.1969   27.9104 C   0  0  1  0  0  0  0  0  0  0  0  0
    9.2965  -15.9300   28.3606 C   0  0  0  0  0  0  0  0  0  0  0  0
   11.5132  -16.1870   27.3276 C   0  0  2  0  0  0  0  0  0  0  0  0
   11.0025  -16.7936   26.1116 N   0  0  0  0  0  0  0  0  0  0  0  0
   11.7722  -17.2491   28.3307 C   0  0  0  0  0  0  0  0  0  0  0  0
   12.4780  -17.0013   29.4961 O   0  0  0  0  0  0  0  0  0  0  0  0
   11.3504  -18.4182   28.1439 O   0  0  0  0  0  0  0  0  0  0  0  0
  2  1  1  1
  3  4  1  0
  3  2  1  0
  4  5  2  0
  6  5  1  0
  7  6  1  0
  8  7  2  0
  9  8  1  0
 10  9  2  0
 10 11  1  0
 11 12  2  0
 12  7  1  0
 12  4  1  0
 13  2  1  0
 13 14  2  0
 16 15  1  0
 16 17  2  0
 18 19  1  0
 18 16  1  0
 20 19  1  6
 20 21  1  0
 21 13  1  0
 22 28  1  0
 22 20  1  0
 23 22  2  0
 25 24  1  6
 26 25  1  0
 27 25  1  0
 27 29  1  0
 27 28  1  6
 29 30  1  0
 31 29  2  0
M  END
$$$$
