WQV.pdb
     RDKit          3D

 31 32  0  0  1  0  0  0  0  0999 V2000
    6.2127  -17.2029   24.5239 N   0  0  0  0  0  0  0  0  0  0  0  0
    7.4177  -16.4132   24.4156 C   0  0  1  0  0  0  0  0  0  0  0  0
    7.7063  -15.6822   25.7030 C   0  0  0  0  0  0  0  0  0  0  0  0
    6.7541  -14.5497   25.8072 C   0  0  0  0  0  0  0  0  0  0  0  0
    5.5032  -14.5412   26.3757 C   0  0  0  0  0  0  0  0  0  0  0  0
    4.9772  -13.3186   26.2596 N   0  0  0  0  0  0  0  0  0  0  0  0
    5.8405  -12.4838   25.6222 C   0  0  0  0  0  0  0  0  0  0  0  0
    5.7852  -11.1449   25.2570 C   0  0  0  0  0  0  0  0  0  0  0  0
    6.8529  -10.5616   24.5995 C   0  0  0  0  0  0  0  0  0  0  0  0
    7.9659  -11.3439   24.3195 C   0  0  0  0  0  0  0  0  0  0  0  0
    8.0055  -12.6744   24.6893 C   0  0  0  0  0  0  0  0  0  0  0  0
    6.9491  -13.2539   25.3405 C   0  0  0  0  0  0  0  0  0  0  0  0
    8.5624  -17.3708   24.2052 C   0  0  0  0  0  0  0  0  0  0  0  0
    8.4949  -18.5277   24.6636 O   0  0  0  0  0  0  0  0  0  0  0  0
   11.0059  -17.2093   19.6553 N   0  0  0  0  0  0  0  0  0  0  0  0
   11.8096  -16.2589   20.3288 C   0  0  0  0  0  0  0  0  0  0  0  0
   12.7653  -15.6672   19.7708 O   0  0  0  0  0  0  0  0  0  0  0  0
   11.5328  -15.9290   21.7560 C   0  0  0  0  0  0  0  0  0  0  0  0
   12.0041  -17.0170   22.6821 C   0  0  0  0  0  0  0  0  0  0  0  0
   11.0040  -17.1588   23.8075 C   0  0  2  0  0  0  0  0  0  0  0  0
    9.6522  -16.8741   23.4874 N   0  0  0  0  0  0  0  0  0  0  0  0
   11.3981  -16.6406   25.0924 C   0  0  0  0  0  0  0  0  0  0  0  0
   12.4540  -15.9211   25.1573 O   0  0  0  0  0  0  0  0  0  0  0  0
   10.1344  -14.0916   27.2362 C   0  0  0  0  0  0  0  0  0  0  0  0
   10.3525  -15.2549   28.1447 C   0  0  1  0  0  0  0  0  0  0  0  0
    9.0334  -15.8803   28.5109 C   0  0  0  0  0  0  0  0  0  0  0  0
   11.2583  -16.3122   27.5569 C   0  0  2  0  0  0  0  0  0  0  0  0
   10.7189  -16.8519   26.3219 N   0  0  0  0  0  0  0  0  0  0  0  0
   11.4124  -17.4103   28.5426 C   0  0  0  0  0  0  0  0  0  0  0  0
   10.9430  -18.6895   28.2955 O   0  0  0  0  0  0  0  0  0  0  0  0
   11.9820  -17.2026   29.6435 O   0  0  0  0  0  0  0  0  0  0  0  0
  2  1  1  1
  3  4  1  0
  3  2  1  0
  4  5  2  0
  6  5  1  0
  7  6  1  0
  8  7  2  0
  9  8  1  0
 10  9  2  0
 10 11  1  0
 11 12  2  0
 12  7  1  0
 12  4  1  0
 13  2  1  0
 13 14  2  0
 16 15  1  0
 16 17  2  0
 18 19  1  0
 18 16  1  0
 20 19  1  6
 20 21  1  0
 21 13  1  0
 22 28  1  0
 22 20  1  0
 23 22  2  0
 25 24  1  6
 26 25  1  0
 27 25  1  0
 27 29  1  0
 27 28  1  6
 29 30  1  0
 31 29  2  0
M  END
$$$$
