WQV.pdb
     RDKit          3D

 31 32  0  0  1  0  0  0  0  0999 V2000
    8.0143  -16.6983   20.7381 N   0  0  0  0  0  0  0  0  0  0  0  0
    8.2681  -15.8114   21.8500 C   0  0  1  0  0  0  0  0  0  0  0  0
    6.9814  -15.2533   22.4050 C   0  0  0  0  0  0  0  0  0  0  0  0
    7.2437  -13.8643   22.8546 C   0  0  0  0  0  0  0  0  0  0  0  0
    7.7943  -12.8293   22.1380 C   0  0  0  0  0  0  0  0  0  0  0  0
    7.8558  -11.7431   22.9134 N   0  0  0  0  0  0  0  0  0  0  0  0
    7.3585  -12.0086   24.1507 C   0  0  0  0  0  0  0  0  0  0  0  0
    7.1962  -11.2483   25.3016 C   0  0  0  0  0  0  0  0  0  0  0  0
    6.6439  -11.8164   26.4350 C   0  0  0  0  0  0  0  0  0  0  0  0
    6.2621  -13.1510   26.3882 C   0  0  0  0  0  0  0  0  0  0  0  0
    6.4301  -13.8940   25.2357 C   0  0  0  0  0  0  0  0  0  0  0  0
    6.9769  -13.3332   24.1122 C   0  0  0  0  0  0  0  0  0  0  0  0
    8.8818  -16.6384   22.9505 C   0  0  0  0  0  0  0  0  0  0  0  0
    8.1881  -16.9841   23.9263 O   0  0  0  0  0  0  0  0  0  0  0  0
   13.2218  -21.2927   23.7802 N   0  0  0  0  0  0  0  0  0  0  0  0
   12.6269  -20.3704   24.6736 C   0  0  0  0  0  0  0  0  0  0  0  0
   11.8440  -20.7259   25.5878 O   0  0  0  0  0  0  0  0  0  0  0  0
   12.9238  -18.9150   24.5467 C   0  0  0  0  0  0  0  0  0  0  0  0
   12.2515  -18.3108   23.3441 C   0  0  0  0  0  0  0  0  0  0  0  0
   11.0234  -17.5587   23.8055 C   0  0  2  0  0  0  0  0  0  0  0  0
   10.2292  -16.9678   22.7902 N   0  0  0  0  0  0  0  0  0  0  0  0
   11.1790  -16.7126   24.9608 C   0  0  0  0  0  0  0  0  0  0  0  0
   12.0212  -15.7515   24.8986 O   0  0  0  0  0  0  0  0  0  0  0  0
   10.1798  -14.2724   28.9589 C   0  0  0  0  0  0  0  0  0  0  0  0
    9.8117  -15.0781   27.7583 C   0  0  1  0  0  0  0  0  0  0  0  0
    9.5014  -14.1689   26.5998 C   0  0  0  0  0  0  0  0  0  0  0  0
   10.8823  -16.0618   27.3460 C   0  0  2  0  0  0  0  0  0  0  0  0
   10.4771  -16.8395   26.1891 N   0  0  0  0  0  0  0  0  0  0  0  0
   11.1500  -16.9792   28.4809 C   0  0  0  0  0  0  0  0  0  0  0  0
   12.0048  -16.6370   29.5152 O   0  0  0  0  0  0  0  0  0  0  0  0
   10.5984  -18.1074   28.5316 O   0  0  0  0  0  0  0  0  0  0  0  0
  2  1  1  6
  3  4  1  0
  3  2  1  0
  4  5  2  0
  6  5  1  0
  7  6  1  0
  8  7  2  0
  9  8  1  0
 10  9  2  0
 10 11  1  0
 11 12  2  0
 12  7  1  0
 12  4  1  0
 13  2  1  0
 13 14  2  0
 16 15  1  0
 16 17  2  0
 18 19  1  0
 18 16  1  0
 20 19  1  6
 20 21  1  0
 21 13  1  0
 22 28  1  0
 22 20  1  0
 23 22  2  0
 25 24  1  1
 26 25  1  0
 27 25  1  0
 27 29  1  0
 27 28  1  6
 29 30  1  0
 31 29  2  0
M  END
$$$$
