WQV.pdb
     RDKit          3D

 31 32  0  0  1  0  0  0  0  0999 V2000
    6.6487  -17.4402   24.0323 N   0  0  0  0  0  0  0  0  0  0  0  0
    7.6640  -16.4133   24.0775 C   0  0  1  0  0  0  0  0  0  0  0  0
    7.7726  -15.8166   25.4585 C   0  0  0  0  0  0  0  0  0  0  0  0
    6.7258  -14.7738   25.5878 C   0  0  0  0  0  0  0  0  0  0  0  0
    5.4139  -14.9295   25.9656 C   0  0  0  0  0  0  0  0  0  0  0  0
    4.8099  -13.7378   25.9537 N   0  0  0  0  0  0  0  0  0  0  0  0
    5.6793  -12.7635   25.5751 C   0  0  0  0  0  0  0  0  0  0  0  0
    5.5640  -11.3900   25.4042 C   0  0  0  0  0  0  0  0  0  0  0  0
    6.6585  -10.6480   24.9989 C   0  0  0  0  0  0  0  0  0  0  0  0
    7.8590  -11.3085   24.7714 C   0  0  0  0  0  0  0  0  0  0  0  0
    7.9575  -12.6754   24.9460 C   0  0  0  0  0  0  0  0  0  0  0  0
    6.8748  -13.4119   25.3472 C   0  0  0  0  0  0  0  0  0  0  0  0
    8.9865  -17.0798   23.7977 C   0  0  0  0  0  0  0  0  0  0  0  0
    9.1495  -18.2805   24.0891 O   0  0  0  0  0  0  0  0  0  0  0  0
   14.4267  -18.4794   21.8447 N   0  0  0  0  0  0  0  0  0  0  0  0
   14.1634  -17.1235   21.5365 C   0  0  0  0  0  0  0  0  0  0  0  0
   14.3244  -16.6498   20.3855 O   0  0  0  0  0  0  0  0  0  0  0  0
   13.6753  -16.2003   22.6004 C   0  0  0  0  0  0  0  0  0  0  0  0
   12.2521  -15.7752   22.3610 C   0  0  0  0  0  0  0  0  0  0  0  0
   11.3588  -16.5129   23.3330 C   0  0  2  0  0  0  0  0  0  0  0  0
    9.9660  -16.2751   23.2122 N   0  0  0  0  0  0  0  0  0  0  0  0
   11.8020  -16.5717   24.7023 C   0  0  0  0  0  0  0  0  0  0  0  0
   12.9686  -17.0391   24.9417 O   0  0  0  0  0  0  0  0  0  0  0  0
   11.1230  -13.7289   27.5342 C   0  0  0  0  0  0  0  0  0  0  0  0
   11.0379  -15.1221   28.0617 C   0  0  1  0  0  0  0  0  0  0  0  0
    9.6003  -15.4986   28.2998 C   0  0  0  0  0  0  0  0  0  0  0  0
   11.6766  -16.1466   27.1527 C   0  0  2  0  0  0  0  0  0  0  0  0
   11.0592  -16.1545   25.8388 N   0  0  0  0  0  0  0  0  0  0  0  0
   11.5299  -17.4884   27.7685 C   0  0  0  0  0  0  0  0  0  0  0  0
   12.2224  -17.8508   28.9117 O   0  0  0  0  0  0  0  0  0  0  0  0
   10.7611  -18.3423   27.2592 O   0  0  0  0  0  0  0  0  0  0  0  0
  2  1  1  1
  3  4  1  0
  3  2  1  0
  4  5  2  0
  6  5  1  0
  7  6  1  0
  8  7  2  0
  9  8  1  0
 10  9  2  0
 10 11  1  0
 11 12  2  0
 12  7  1  0
 12  4  1  0
 13  2  1  0
 13 14  2  0
 16 15  1  0
 16 17  2  0
 18 19  1  0
 18 16  1  0
 20 19  1  6
 20 21  1  0
 21 13  1  0
 22 28  1  0
 22 20  1  0
 23 22  2  0
 25 24  1  6
 26 25  1  0
 27 25  1  0
 27 29  1  0
 27 28  1  6
 29 30  1  0
 31 29  2  0
M  END
$$$$
