WQV.pdb
     RDKit          3D

 31 32  0  0  1  0  0  0  0  0999 V2000
    6.5139  -16.9657   23.8578 N   0  0  0  0  0  0  0  0  0  0  0  0
    7.7202  -16.2117   24.1103 C   0  0  1  0  0  0  0  0  0  0  0  0
    7.7513  -15.6938   25.5267 C   0  0  0  0  0  0  0  0  0  0  0  0
    6.7313  -14.6232   25.6427 C   0  0  0  0  0  0  0  0  0  0  0  0
    5.4150  -14.7411   26.0186 C   0  0  0  0  0  0  0  0  0  0  0  0
    4.8420  -13.5345   25.9931 N   0  0  0  0  0  0  0  0  0  0  0  0
    5.7371  -12.5867   25.6070 C   0  0  0  0  0  0  0  0  0  0  0  0
    5.6576  -11.2125   25.4218 C   0  0  0  0  0  0  0  0  0  0  0  0
    6.7718  -10.5032   25.0119 C   0  0  0  0  0  0  0  0  0  0  0  0
    7.9554  -11.1967   24.7942 C   0  0  0  0  0  0  0  0  0  0  0  0
    8.0183  -12.5638   24.9828 C   0  0  0  0  0  0  0  0  0  0  0  0
    6.9159  -13.2681   25.3887 C   0  0  0  0  0  0  0  0  0  0  0  0
    8.8793  -17.1664   23.9818 C   0  0  0  0  0  0  0  0  0  0  0  0
    8.8365  -18.2737   24.5520 O   0  0  0  0  0  0  0  0  0  0  0  0
   14.2603  -16.6446   20.4101 N   0  0  0  0  0  0  0  0  0  0  0  0
   14.6462  -17.1786   21.6627 C   0  0  0  0  0  0  0  0  0  0  0  0
   15.8257  -17.5265   21.9131 O   0  0  0  0  0  0  0  0  0  0  0  0
   13.6334  -17.3450   22.7438 C   0  0  0  0  0  0  0  0  0  0  0  0
   12.2606  -16.9272   22.2920 C   0  0  0  0  0  0  0  0  0  0  0  0
   11.3037  -17.0801   23.4530 C   0  0  2  0  0  0  0  0  0  0  0  0
    9.9533  -16.7247   23.2063 N   0  0  0  0  0  0  0  0  0  0  0  0
   11.7741  -16.6399   24.7414 C   0  0  0  0  0  0  0  0  0  0  0  0
   12.3867  -15.5189   24.8118 O   0  0  0  0  0  0  0  0  0  0  0  0
    9.6606  -16.1112   27.8185 C   0  0  0  0  0  0  0  0  0  0  0  0
   11.0580  -15.6248   27.6266 C   0  0  1  0  0  0  0  0  0  0  0  0
   11.5562  -14.9705   28.8871 C   0  0  0  0  0  0  0  0  0  0  0  0
   12.0209  -16.7157   27.2181 C   0  0  2  0  0  0  0  0  0  0  0  0
   11.6237  -17.3390   25.9686 N   0  0  0  0  0  0  0  0  0  0  0  0
   12.0574  -17.7446   28.2863 C   0  0  0  0  0  0  0  0  0  0  0  0
   12.6341  -17.5000   29.5214 O   0  0  0  0  0  0  0  0  0  0  0  0
   11.5577  -18.8815   28.0929 O   0  0  0  0  0  0  0  0  0  0  0  0
  2  1  1  1
  3  4  1  0
  3  2  1  0
  4  5  2  0
  6  5  1  0
  7  6  1  0
  8  7  2  0
  9  8  1  0
 10  9  2  0
 10 11  1  0
 11 12  2  0
 12  7  1  0
 12  4  1  0
 13  2  1  0
 13 14  2  0
 16 15  1  0
 16 17  2  0
 18 19  1  0
 18 16  1  0
 20 19  1  6
 20 21  1  0
 21 13  1  0
 22 28  1  0
 22 20  1  0
 23 22  2  0
 25 24  1  1
 26 25  1  0
 27 25  1  0
 27 29  1  0
 27 28  1  6
 29 30  1  0
 31 29  2  0
M  END
$$$$
