WQV.pdb
     RDKit          3D

 31 32  0  0  1  0  0  0  0  0999 V2000
    7.8772  -18.5979   20.7753 N   0  0  0  0  0  0  0  0  0  0  0  0
    8.1918  -17.3496   21.4313 C   0  0  1  0  0  0  0  0  0  0  0  0
    6.9841  -16.4479   21.4921 C   0  0  0  0  0  0  0  0  0  0  0  0
    7.0320  -15.5427   20.3180 C   0  0  0  0  0  0  0  0  0  0  0  0
    6.6815  -15.8181   19.0183 C   0  0  0  0  0  0  0  0  0  0  0  0
    6.8742  -14.7271   18.2716 N   0  0  0  0  0  0  0  0  0  0  0  0
    7.3507  -13.7047   19.0308 C   0  0  0  0  0  0  0  0  0  0  0  0
    7.7088  -12.3917   18.7538 C   0  0  0  0  0  0  0  0  0  0  0  0
    8.1728  -11.5719   19.7663 C   0  0  0  0  0  0  0  0  0  0  0  0
    8.2684  -12.0939   21.0498 C   0  0  0  0  0  0  0  0  0  0  0  0
    7.9082  -13.4021   21.3092 C   0  0  0  0  0  0  0  0  0  0  0  0
    7.4485  -14.2156   20.3079 C   0  0  0  0  0  0  0  0  0  0  0  0
    8.5523  -17.6732   22.8585 C   0  0  0  0  0  0  0  0  0  0  0  0
    7.6662  -18.0424   23.6532 O   0  0  0  0  0  0  0  0  0  0  0  0
   13.7115  -20.4987   24.9471 N   0  0  0  0  0  0  0  0  0  0  0  0
   13.0689  -20.0003   26.1053 C   0  0  0  0  0  0  0  0  0  0  0  0
   13.4067  -20.3428   27.2644 O   0  0  0  0  0  0  0  0  0  0  0  0
   11.9447  -19.0302   25.9726 C   0  0  0  0  0  0  0  0  0  0  0  0
   11.5863  -18.7845   24.5322 C   0  0  0  0  0  0  0  0  0  0  0  0
   10.4247  -17.8175   24.4828 C   0  0  2  0  0  0  0  0  0  0  0  0
    9.8994  -17.5305   23.1972 N   0  0  0  0  0  0  0  0  0  0  0  0
   10.5163  -16.6527   25.3251 C   0  0  0  0  0  0  0  0  0  0  0  0
   11.3143  -15.7151   24.9775 O   0  0  0  0  0  0  0  0  0  0  0  0
    8.8175  -13.3108   28.4367 C   0  0  0  0  0  0  0  0  0  0  0  0
    8.6667  -14.5627   27.6390 C   0  0  1  0  0  0  0  0  0  0  0  0
    7.8955  -14.2829   26.3772 C   0  0  0  0  0  0  0  0  0  0  0  0
    9.9858  -15.2085   27.2831 C   0  0  2  0  0  0  0  0  0  0  0  0
    9.7948  -16.4342   26.5290 N   0  0  0  0  0  0  0  0  0  0  0  0
   10.7199  -15.5158   28.5353 C   0  0  0  0  0  0  0  0  0  0  0  0
   11.3246  -14.5268   29.2930 O   0  0  0  0  0  0  0  0  0  0  0  0
   10.8121  -16.7003   28.9452 O   0  0  0  0  0  0  0  0  0  0  0  0
  2  1  1  6
  3  4  1  0
  3  2  1  0
  4  5  2  0
  6  5  1  0
  7  6  1  0
  8  7  2  0
  9  8  1  0
 10  9  2  0
 10 11  1  0
 11 12  2  0
 12  7  1  0
 12  4  1  0
 13  2  1  0
 13 14  2  0
 16 15  1  0
 16 17  2  0
 18 19  1  0
 18 16  1  0
 20 19  1  6
 20 21  1  0
 21 13  1  0
 22 28  1  0
 22 20  1  0
 23 22  2  0
 25 24  1  6
 26 25  1  0
 27 25  1  0
 27 29  1  0
 27 28  1  1
 29 30  1  0
 31 29  2  0
M  END
$$$$
