WQV.pdb
     RDKit          3D

 31 32  0  0  1  0  0  0  0  0999 V2000
    6.5568  -18.8976   24.1093 N   0  0  0  0  0  0  0  0  0  0  0  0
    7.1207  -17.5936   23.8465 C   0  0  1  0  0  0  0  0  0  0  0  0
    6.4938  -16.5424   24.7281 C   0  0  0  0  0  0  0  0  0  0  0  0
    6.7001  -15.2235   24.0815 C   0  0  0  0  0  0  0  0  0  0  0  0
    7.0820  -14.9622   22.7878 C   0  0  0  0  0  0  0  0  0  0  0  0
    7.1508  -13.6399   22.6095 N   0  0  0  0  0  0  0  0  0  0  0  0
    6.8238  -12.9841   23.7548 C   0  0  0  0  0  0  0  0  0  0  0  0
    6.7399  -11.6413   24.0995 C   0  0  0  0  0  0  0  0  0  0  0  0
    6.3695  -11.2770   25.3811 C   0  0  0  0  0  0  0  0  0  0  0  0
    6.0880  -12.2800   26.2997 C   0  0  0  0  0  0  0  0  0  0  0  0
    6.1760  -13.6113   25.9413 C   0  0  0  0  0  0  0  0  0  0  0  0
    6.5428  -13.9742   24.6726 C   0  0  0  0  0  0  0  0  0  0  0  0
    8.5781  -17.6520   24.2261 C   0  0  0  0  0  0  0  0  0  0  0  0
    8.9718  -18.5059   25.0441 O   0  0  0  0  0  0  0  0  0  0  0  0
   12.9407  -17.7794   20.7115 N   0  0  0  0  0  0  0  0  0  0  0  0
   13.7093  -17.2456   21.7733 C   0  0  0  0  0  0  0  0  0  0  0  0
   14.9361  -17.4770   21.9007 O   0  0  0  0  0  0  0  0  0  0  0  0
   13.0623  -16.3720   22.7935 C   0  0  0  0  0  0  0  0  0  0  0  0
   11.5914  -16.1993   22.5287 C   0  0  0  0  0  0  0  0  0  0  0  0
   10.8226  -16.7170   23.7237 C   0  0  2  0  0  0  0  0  0  0  0  0
    9.4090  -16.7126   23.6122 N   0  0  0  0  0  0  0  0  0  0  0  0
   11.2850  -16.2973   25.0217 C   0  0  0  0  0  0  0  0  0  0  0  0
   12.2552  -15.4654   25.0792 O   0  0  0  0  0  0  0  0  0  0  0  0
    9.0942  -14.9997   28.0249 C   0  0  0  0  0  0  0  0  0  0  0  0
   10.5674  -14.8502   27.8416 C   0  0  1  0  0  0  0  0  0  0  0  0
   11.1861  -14.2605   29.0804 C   0  0  0  0  0  0  0  0  0  0  0  0
   11.2641  -16.1490   27.5074 C   0  0  2  0  0  0  0  0  0  0  0  0
   10.7619  -16.7226   26.2720 N   0  0  0  0  0  0  0  0  0  0  0  0
   11.0417  -17.1090   28.6165 C   0  0  0  0  0  0  0  0  0  0  0  0
   10.3642  -18.3022   28.4294 O   0  0  0  0  0  0  0  0  0  0  0  0
   11.4698  -16.8584   29.7713 O   0  0  0  0  0  0  0  0  0  0  0  0
  2  1  1  1
  3  4  1  0
  3  2  1  0
  4  5  2  0
  6  5  1  0
  7  6  1  0
  8  7  2  0
  9  8  1  0
 10  9  2  0
 10 11  1  0
 11 12  2  0
 12  7  1  0
 12  4  1  0
 13  2  1  0
 13 14  2  0
 16 15  1  0
 16 17  2  0
 18 19  1  0
 18 16  1  0
 20 19  1  6
 20 21  1  0
 21 13  1  0
 22 28  1  0
 22 20  1  0
 23 22  2  0
 25 24  1  1
 26 25  1  0
 27 25  1  0
 27 29  1  0
 27 28  1  6
 29 30  1  0
 31 29  2  0
M  END
$$$$
