WQV.pdb
     RDKit          3D

 31 32  0  0  1  0  0  0  0  0999 V2000
    7.7027  -17.8071   21.2418 N   0  0  0  0  0  0  0  0  0  0  0  0
    8.5939  -16.8513   21.8581 C   0  0  1  0  0  0  0  0  0  0  0  0
    7.8367  -15.6478   22.3615 C   0  0  0  0  0  0  0  0  0  0  0  0
    7.3032  -14.9202   21.1842 C   0  0  0  0  0  0  0  0  0  0  0  0
    6.0358  -14.9725   20.6559 C   0  0  0  0  0  0  0  0  0  0  0  0
    5.9693  -14.1634   19.5949 N   0  0  0  0  0  0  0  0  0  0  0  0
    7.1658  -13.5540   19.3810 C   0  0  0  0  0  0  0  0  0  0  0  0
    7.6222  -12.6437   18.4365 C   0  0  0  0  0  0  0  0  0  0  0  0
    8.9300  -12.1964   18.4810 C   0  0  0  0  0  0  0  0  0  0  0  0
    9.7611  -12.6780   19.4842 C   0  0  0  0  0  0  0  0  0  0  0  0
    9.2921  -13.5833   20.4164 C   0  0  0  0  0  0  0  0  0  0  0  0
    7.9972  -14.0276   20.3740 C   0  0  0  0  0  0  0  0  0  0  0  0
    9.1912  -17.5154   23.0721 C   0  0  0  0  0  0  0  0  0  0  0  0
    8.4446  -18.0223   23.9316 O   0  0  0  0  0  0  0  0  0  0  0  0
   15.1080  -19.7737   24.0445 N   0  0  0  0  0  0  0  0  0  0  0  0
   14.5453  -19.5566   25.3248 C   0  0  0  0  0  0  0  0  0  0  0  0
   15.1211  -19.9080   26.3831 O   0  0  0  0  0  0  0  0  0  0  0  0
   13.2192  -18.8873   25.4504 C   0  0  0  0  0  0  0  0  0  0  0  0
   12.6613  -18.4971   24.1087 C   0  0  0  0  0  0  0  0  0  0  0  0
   11.3132  -17.8449   24.3184 C   0  0  2  0  0  0  0  0  0  0  0  0
   10.5855  -17.5138   23.1472 N   0  0  0  0  0  0  0  0  0  0  0  0
   11.2387  -16.8252   25.3331 C   0  0  0  0  0  0  0  0  0  0  0  0
   12.0651  -15.8503   25.2739 O   0  0  0  0  0  0  0  0  0  0  0  0
    9.1256  -13.8934   28.5429 C   0  0  0  0  0  0  0  0  0  0  0  0
    9.1098  -14.9500   27.4896 C   0  0  1  0  0  0  0  0  0  0  0  0
    8.8159  -14.3379   26.1464 C   0  0  0  0  0  0  0  0  0  0  0  0
   10.3995  -15.7334   27.4079 C   0  0  2  0  0  0  0  0  0  0  0  0
   10.3208  -16.7910   26.4165 N   0  0  0  0  0  0  0  0  0  0  0  0
   10.6801  -16.3306   28.7367 C   0  0  0  0  0  0  0  0  0  0  0  0
   11.1949  -15.5836   29.7830 O   0  0  0  0  0  0  0  0  0  0  0  0
   10.4537  -17.5487   28.9483 O   0  0  0  0  0  0  0  0  0  0  0  0
  2  1  1  1
  3  4  1  0
  3  2  1  0
  4  5  2  0
  6  5  1  0
  7  6  1  0
  8  7  2  0
  9  8  1  0
 10  9  2  0
 10 11  1  0
 11 12  2  0
 12  7  1  0
 12  4  1  0
 13  2  1  0
 13 14  2  0
 16 15  1  0
 16 17  2  0
 18 19  1  0
 18 16  1  0
 20 19  1  6
 20 21  1  0
 21 13  1  0
 22 28  1  0
 22 20  1  0
 23 22  2  0
 25 24  1  1
 26 25  1  0
 27 25  1  0
 27 29  1  0
 27 28  1  6
 29 30  1  0
 31 29  2  0
M  END
$$$$
