WQV.pdb
     RDKit          3D

 31 32  0  0  1  0  0  0  0  0999 V2000
    6.0831  -18.4032   22.9566 N   0  0  0  0  0  0  0  0  0  0  0  0
    7.2011  -17.6077   22.5044 C   0  0  1  0  0  0  0  0  0  0  0  0
    6.8091  -16.1600   22.3446 C   0  0  0  0  0  0  0  0  0  0  0  0
    6.5528  -15.6056   23.6962 C   0  0  0  0  0  0  0  0  0  0  0  0
    6.0573  -16.2552   24.8009 C   0  0  0  0  0  0  0  0  0  0  0  0
    5.9803  -15.3932   25.8187 N   0  0  0  0  0  0  0  0  0  0  0  0
    6.4129  -14.1618   25.4378 C   0  0  0  0  0  0  0  0  0  0  0  0
    6.5352  -12.9438   26.0939 C   0  0  0  0  0  0  0  0  0  0  0  0
    7.0218  -11.8392   25.4190 C   0  0  0  0  0  0  0  0  0  0  0  0
    7.3792  -11.9826   24.0845 C   0  0  0  0  0  0  0  0  0  0  0  0
    7.2517  -13.2010   23.4459 C   0  0  0  0  0  0  0  0  0  0  0  0
    6.7699  -14.2962   24.1126 C   0  0  0  0  0  0  0  0  0  0  0  0
    8.2460  -17.6473   23.5898 C   0  0  0  0  0  0  0  0  0  0  0  0
    8.0558  -18.3398   24.6083 O   0  0  0  0  0  0  0  0  0  0  0  0
   13.7981  -18.4073   21.2283 N   0  0  0  0  0  0  0  0  0  0  0  0
   14.0520  -18.3947   22.6205 C   0  0  0  0  0  0  0  0  0  0  0  0
   15.1601  -18.7268   23.1071 O   0  0  0  0  0  0  0  0  0  0  0  0
   12.9802  -17.9754   23.5680 C   0  0  0  0  0  0  0  0  0  0  0  0
   11.7283  -17.5576   22.8456 C   0  0  0  0  0  0  0  0  0  0  0  0
   10.6736  -17.2085   23.8715 C   0  0  2  0  0  0  0  0  0  0  0  0
    9.3901  -16.8784   23.3668 N   0  0  0  0  0  0  0  0  0  0  0  0
   11.0852  -16.3585   24.9591 C   0  0  0  0  0  0  0  0  0  0  0  0
   11.7587  -15.3062   24.6840 O   0  0  0  0  0  0  0  0  0  0  0  0
    9.0419  -15.4921   28.4578 C   0  0  0  0  0  0  0  0  0  0  0  0
   10.1602  -14.7370   27.8209 C   0  0  1  0  0  0  0  0  0  0  0  0
   10.7167  -13.7246   28.7855 C   0  0  0  0  0  0  0  0  0  0  0  0
   11.2801  -15.6256   27.3310 C   0  0  2  0  0  0  0  0  0  0  0  0
   10.8135  -16.5746   26.3365 N   0  0  0  0  0  0  0  0  0  0  0  0
   11.8414  -16.3671   28.4870 C   0  0  0  0  0  0  0  0  0  0  0  0
   12.6829  -15.7642   29.4068 O   0  0  0  0  0  0  0  0  0  0  0  0
   11.5622  -17.5800   28.6620 O   0  0  0  0  0  0  0  0  0  0  0  0
  2  1  1  1
  3  4  1  0
  3  2  1  0
  4  5  2  0
  6  5  1  0
  7  6  1  0
  8  7  2  0
  9  8  1  0
 10  9  2  0
 10 11  1  0
 11 12  2  0
 12  7  1  0
 12  4  1  0
 13  2  1  0
 13 14  2  0
 16 15  1  0
 16 17  2  0
 18 19  1  0
 18 16  1  0
 20 19  1  6
 20 21  1  0
 21 13  1  0
 22 28  1  0
 22 20  1  0
 23 22  2  0
 25 24  1  1
 26 25  1  0
 27 25  1  0
 27 29  1  0
 27 28  1  6
 29 30  1  0
 31 29  2  0
M  END
$$$$
