WQV.pdb
     RDKit          3D

 31 32  0  0  1  0  0  0  0  0999 V2000
   -4.4090  -57.0143  -12.5456 N   0  0  0  0  0  0  0  0  0  0  0  0
   -3.4006  -56.2894  -13.2839 C   0  0  1  0  0  0  0  0  0  0  0  0
   -4.0166  -55.1819  -14.1020 C   0  0  0  0  0  0  0  0  0  0  0  0
   -2.9585  -54.6178  -14.9750 C   0  0  0  0  0  0  0  0  0  0  0  0
   -2.7318  -54.8702  -16.3065 C   0  0  0  0  0  0  0  0  0  0  0  0
   -1.6781  -54.1574  -16.7146 N   0  0  0  0  0  0  0  0  0  0  0  0
   -1.1736  -53.4185  -15.6909 C   0  0  0  0  0  0  0  0  0  0  0  0
   -0.1111  -52.5305  -15.5829 C   0  0  0  0  0  0  0  0  0  0  0  0
    0.1598  -51.9184  -14.3728 C   0  0  0  0  0  0  0  0  0  0  0  0
   -0.6510  -52.2143  -13.2845 C   0  0  0  0  0  0  0  0  0  0  0  0
   -1.7041  -53.0998  -13.4082 C   0  0  0  0  0  0  0  0  0  0  0  0
   -1.9740  -53.7071  -14.6058 C   0  0  0  0  0  0  0  0  0  0  0  0
   -2.5012  -55.6222  -12.2751 C   0  0  0  0  0  0  0  0  0  0  0  0
   -1.4855  -56.2150  -11.8627 O   0  0  0  0  0  0  0  0  0  0  0  0
   -1.3101  -55.6721   -8.8940 N   0  0  0  0  0  0  0  0  0  0  0  0
   -0.6798  -54.4729   -9.3030 C   0  0  0  0  0  0  0  0  0  0  0  0
   -0.7528  -53.4115   -8.6374 O   0  0  0  0  0  0  0  0  0  0  0  0
    0.1073  -54.4408  -10.5686 C   0  0  0  0  0  0  0  0  0  0  0  0
   -0.5365  -53.5597  -11.6043 C   0  0  0  0  0  0  0  0  0  0  0  0
   -2.0026  -53.4095  -11.2653 C   0  0  2  0  0  0  0  0  0  0  0  0
   -2.8854  -54.3448  -11.8625 N   0  0  0  0  0  0  0  0  0  0  0  0
   -2.5295  -52.0689  -11.2520 C   0  0  0  0  0  0  0  0  0  0  0  0
   -2.6037  -51.4363  -12.3615 O   0  0  0  0  0  0  0  0  0  0  0  0
   -4.1515  -53.9470   -9.1338 C   0  0  0  0  0  0  0  0  0  0  0  0
   -4.8836  -52.8990   -9.9032 C   0  0  1  0  0  0  0  0  0  0  0  0
   -6.3507  -52.9424   -9.5703 C   0  0  0  0  0  0  0  0  0  0  0  0
   -4.3595  -51.5024   -9.6610 C   0  0  2  0  0  0  0  0  0  0  0  0
   -2.9851  -51.3623  -10.1071 N   0  0  0  0  0  0  0  0  0  0  0  0
   -4.4327  -51.2106   -8.2082 C   0  0  0  0  0  0  0  0  0  0  0  0
   -5.0040  -50.0468   -7.7214 O   0  0  0  0  0  0  0  0  0  0  0  0
   -3.9705  -52.0258   -7.3707 O   0  0  0  0  0  0  0  0  0  0  0  0
  2  1  1  1
  3  4  1  0
  3  2  1  0
  4  5  2  0
  6  5  1  0
  7  6  1  0
  8  7  2  0
  9  8  1  0
 10  9  2  0
 10 11  1  0
 11 12  2  0
 12  7  1  0
 12  4  1  0
 13  2  1  0
 13 14  2  0
 16 15  1  0
 16 17  2  0
 18 19  1  0
 18 16  1  0
 20 19  1  6
 20 21  1  0
 21 13  1  0
 22 28  1  0
 22 20  1  0
 23 22  2  0
 25 24  1  1
 26 25  1  0
 27 25  1  0
 27 29  1  0
 27 28  1  1
 29 30  1  0
 31 29  2  0
M  END
$$$$
