WQV.pdb
     RDKit          3D

 31 32  0  0  1  0  0  0  0  0999 V2000
    6.3820  -16.7430   23.9665 N   0  0  0  0  0  0  0  0  0  0  0  0
    7.5003  -16.2591   23.1902 C   0  0  1  0  0  0  0  0  0  0  0  0
    7.6412  -14.7624   23.3141 C   0  0  0  0  0  0  0  0  0  0  0  0
    6.8624  -14.3281   24.4993 C   0  0  0  0  0  0  0  0  0  0  0  0
    6.0775  -15.0940   25.3273 C   0  0  0  0  0  0  0  0  0  0  0  0
    5.5513  -14.3151   26.2766 N   0  0  0  0  0  0  0  0  0  0  0  0
    5.9577  -13.0272   26.1198 C   0  0  0  0  0  0  0  0  0  0  0  0
    5.7076  -11.8519   26.8164 C   0  0  0  0  0  0  0  0  0  0  0  0
    6.2824  -10.6647   26.4009 C   0  0  0  0  0  0  0  0  0  0  0  0
    7.1054  -10.6830   25.2822 C   0  0  0  0  0  0  0  0  0  0  0  0
    7.3444  -11.8603   24.6001 C   0  0  0  0  0  0  0  0  0  0  0  0
    6.7760  -13.0371   25.0099 C   0  0  0  0  0  0  0  0  0  0  0  0
    8.7498  -16.8541   23.7873 C   0  0  0  0  0  0  0  0  0  0  0  0
    8.6817  -17.4994   24.8512 O   0  0  0  0  0  0  0  0  0  0  0  0
   13.5912  -19.0236   21.0211 N   0  0  0  0  0  0  0  0  0  0  0  0
   14.2000  -18.6545   22.2442 C   0  0  0  0  0  0  0  0  0  0  0  0
   15.2785  -19.1593   22.6403 O   0  0  0  0  0  0  0  0  0  0  0  0
   13.5572  -17.6294   23.1151 C   0  0  0  0  0  0  0  0  0  0  0  0
   12.3120  -17.0647   22.4872 C   0  0  0  0  0  0  0  0  0  0  0  0
   11.2100  -17.0592   23.5228 C   0  0  2  0  0  0  0  0  0  0  0  0
    9.9328  -16.6307   23.0800 N   0  0  0  0  0  0  0  0  0  0  0  0
   11.5509  -16.5535   24.8277 C   0  0  0  0  0  0  0  0  0  0  0  0
   12.3302  -15.5415   24.9004 O   0  0  0  0  0  0  0  0  0  0  0  0
   10.3851  -14.8938   29.0809 C   0  0  0  0  0  0  0  0  0  0  0  0
   10.1787  -15.5623   27.7630 C   0  0  1  0  0  0  0  0  0  0  0  0
    9.8344  -14.5409   26.7126 C   0  0  0  0  0  0  0  0  0  0  0  0
   11.3750  -16.3639   27.3044 C   0  0  2  0  0  0  0  0  0  0  0  0
   11.1000  -17.0756   26.0694 N   0  0  0  0  0  0  0  0  0  0  0  0
   11.7282  -17.3420   28.3626 C   0  0  0  0  0  0  0  0  0  0  0  0
   12.5818  -17.0198   29.4044 O   0  0  0  0  0  0  0  0  0  0  0  0
   11.2534  -18.5054   28.3386 O   0  0  0  0  0  0  0  0  0  0  0  0
  2  1  1  1
  3  4  1  0
  3  2  1  0
  4  5  2  0
  6  5  1  0
  7  6  1  0
  8  7  2  0
  9  8  1  0
 10  9  2  0
 10 11  1  0
 11 12  2  0
 12  7  1  0
 12  4  1  0
 13  2  1  0
 13 14  2  0
 16 15  1  0
 16 17  2  0
 18 19  1  0
 18 16  1  0
 20 19  1  6
 20 21  1  0
 21 13  1  0
 22 28  1  0
 22 20  1  0
 23 22  2  0
 25 24  1  1
 26 25  1  0
 27 25  1  0
 27 29  1  0
 27 28  1  6
 29 30  1  0
 31 29  2  0
M  END
$$$$
