WQV.pdb
     RDKit          3D

 31 32  0  0  1  0  0  0  0  0999 V2000
    6.1613  -17.2619   24.4961 N   0  0  0  0  0  0  0  0  0  0  0  0
    7.3076  -16.4016   24.3140 C   0  0  1  0  0  0  0  0  0  0  0  0
    7.6113  -15.6269   25.5721 C   0  0  0  0  0  0  0  0  0  0  0  0
    6.5906  -14.5593   25.7073 C   0  0  0  0  0  0  0  0  0  0  0  0
    5.2547  -14.6934   25.9996 C   0  0  0  0  0  0  0  0  0  0  0  0
    4.6886  -13.4836   26.0286 N   0  0  0  0  0  0  0  0  0  0  0  0
    5.6077  -12.5178   25.7619 C   0  0  0  0  0  0  0  0  0  0  0  0
    5.5440  -11.1333   25.6714 C   0  0  0  0  0  0  0  0  0  0  0  0
    6.6822  -10.4053   25.3763 C   0  0  0  0  0  0  0  0  0  0  0  0
    7.8735  -11.0907   25.1760 C   0  0  0  0  0  0  0  0  0  0  0  0
    7.9204  -12.4683   25.2695 C   0  0  0  0  0  0  0  0  0  0  0  0
    6.7943  -13.1910   25.5616 C   0  0  0  0  0  0  0  0  0  0  0  0
    8.4988  -17.2907   24.0649 C   0  0  0  0  0  0  0  0  0  0  0  0
    8.5424  -18.4263   24.5765 O   0  0  0  0  0  0  0  0  0  0  0  0
   13.6826  -17.3895   19.7444 N   0  0  0  0  0  0  0  0  0  0  0  0
   12.4528  -17.9275   20.1929 C   0  0  0  0  0  0  0  0  0  0  0  0
   11.5585  -18.3162   19.4030 O   0  0  0  0  0  0  0  0  0  0  0  0
   12.1830  -18.0485   21.6540 C   0  0  0  0  0  0  0  0  0  0  0  0
   11.7847  -16.7301   22.2594 C   0  0  0  0  0  0  0  0  0  0  0  0
   10.8851  -16.9964   23.4454 C   0  0  2  0  0  0  0  0  0  0  0  0
    9.5008  -16.7584   23.2510 N   0  0  0  0  0  0  0  0  0  0  0  0
   11.3575  -16.5466   24.7297 C   0  0  0  0  0  0  0  0  0  0  0  0
   11.8297  -15.3610   24.8200 O   0  0  0  0  0  0  0  0  0  0  0  0
   10.8165  -15.3047   29.0940 C   0  0  0  0  0  0  0  0  0  0  0  0
   10.6216  -15.7502   27.6834 C   0  0  1  0  0  0  0  0  0  0  0  0
   10.5343  -14.5566   26.7708 C   0  0  0  0  0  0  0  0  0  0  0  0
   11.7116  -16.6742   27.1912 C   0  0  2  0  0  0  0  0  0  0  0  0
   11.3523  -17.3020   25.9326 N   0  0  0  0  0  0  0  0  0  0  0  0
   11.9428  -17.7257   28.2121 C   0  0  0  0  0  0  0  0  0  0  0  0
   12.6614  -17.4789   29.3699 O   0  0  0  0  0  0  0  0  0  0  0  0
   11.4847  -18.8845   28.0480 O   0  0  0  0  0  0  0  0  0  0  0  0
  2  1  1  1
  3  4  1  0
  3  2  1  0
  4  5  2  0
  6  5  1  0
  7  6  1  0
  8  7  2  0
  9  8  1  0
 10  9  2  0
 10 11  1  0
 11 12  2  0
 12  7  1  0
 12  4  1  0
 13  2  1  0
 13 14  2  0
 16 15  1  0
 16 17  2  0
 18 19  1  0
 18 16  1  0
 20 19  1  6
 20 21  1  0
 21 13  1  0
 22 28  1  0
 22 20  1  0
 23 22  2  0
 25 24  1  1
 26 25  1  0
 27 25  1  0
 27 29  1  0
 27 28  1  6
 29 30  1  0
 31 29  2  0
M  END
$$$$
