HEQ.pdb
     RDKit          3D

 29 29  0  0  1  0  0  0  0  0999 V2000
    7.8846  -17.1863   19.5395 N   0  0  0  0  0  0  0  0  0  0  0  0
    8.8269  -16.2563   20.1780 C   0  0  1  0  0  0  0  0  0  0  0  0
    8.1578  -14.9149   20.3685 C   0  0  0  0  0  0  0  0  0  0  0  0
    7.9042  -14.2088   19.1183 C   0  0  0  0  0  0  0  0  0  0  0  0
    6.6805  -14.0900   18.4989 C   0  0  0  0  0  0  0  0  0  0  0  0
    6.8458  -13.3783   17.3844 N   0  0  0  0  0  0  0  0  0  0  0  0
    8.1324  -13.0351   17.2647 C   0  0  0  0  0  0  0  0  0  0  0  0
    8.7761  -13.5576   18.3478 N   0  0  0  0  0  0  0  0  0  0  0  0
    9.1076  -16.7919   21.5428 C   0  0  0  0  0  0  0  0  0  0  0  0
    8.1830  -17.2769   22.2569 O   0  0  0  0  0  0  0  0  0  0  0  0
   10.4105  -16.7918   22.1189 N   0  0  0  0  0  0  0  0  0  0  0  0
   10.6241  -17.2590   23.4598 C   0  0  1  0  0  0  0  0  0  0  0  0
   12.0580  -17.7247   23.6631 C   0  0  0  0  0  0  0  0  0  0  0  0
   12.2888  -18.9649   22.8270 C   0  0  0  0  0  0  0  0  0  0  0  0
   13.6821  -19.4433   22.9844 C   0  0  0  0  0  0  0  0  0  0  0  0
   14.0273  -19.9713   24.0504 O   0  0  0  0  0  0  0  0  0  0  0  0
   10.2466  -16.2476   24.4806 C   0  0  0  0  0  0  0  0  0  0  0  0
   10.6731  -15.0715   24.3489 O   0  0  0  0  0  0  0  0  0  0  0  0
   14.5607  -19.2885   21.9385 O   0  0  0  0  0  0  0  0  0  0  0  0
    7.0144  -12.6061   25.2982 N   0  0  0  0  0  0  0  0  0  0  0  0
    6.8336  -12.7646   26.7144 C   0  0  0  0  0  0  0  0  0  0  0  0
    6.4085  -11.7917   27.4109 O   0  0  0  0  0  0  0  0  0  0  0  0
    7.1495  -14.0769   27.3014 C   0  0  0  0  0  0  0  0  0  0  0  0
    7.6857  -15.0515   26.3175 C   0  0  0  0  0  0  0  0  0  0  0  0
    9.0863  -15.4746   26.5893 C   0  0  2  0  0  0  0  0  0  0  0  0
    9.4309  -16.5389   25.5951 N   0  0  0  0  0  0  0  0  0  0  0  0
    9.3776  -16.0637   27.8806 C   0  0  0  0  0  0  0  0  0  0  0  0
    9.4931  -17.3048   28.0159 O   0  0  0  0  0  0  0  0  0  0  0  0
    9.5535  -15.3030   29.0209 O   0  0  0  0  0  0  0  0  0  0  0  0
  2  1  1  1
  3  4  1  0
  3  2  1  0
  4  8  1  0
  5  6  1  0
  5  4  2  0
  6  7  1  0
  7  8  2  0
  9  2  1  0
  9 11  1  0
 10  9  2  0
 11 12  1  0
 12 17  1  0
 13 14  1  0
 12 13  1  6
 15 16  2  0
 15 14  1  0
 17 18  2  0
 17 26  1  0
 19 15  1  0
 20 21  1  0
 21 23  1  0
 21 22  2  0
 23 24  1  0
 25 24  1  1
 25 27  1  0
 26 25  1  0
 27 28  2  0
 27 29  1  0
M  END
$$$$
