HEQ.pdb
     RDKit          3D

 29 29  0  0  1  0  0  0  0  0999 V2000
    7.4216  -17.0554   20.4069 N   0  0  0  0  0  0  0  0  0  0  0  0
    8.6272  -16.3094   20.7951 C   0  0  1  0  0  0  0  0  0  0  0  0
    8.2898  -14.8424   20.9262 C   0  0  0  0  0  0  0  0  0  0  0  0
    8.1401  -14.1633   19.6446 C   0  0  0  0  0  0  0  0  0  0  0  0
    8.2951  -14.7450   18.4065 C   0  0  0  0  0  0  0  0  0  0  0  0
    8.0801  -13.8124   17.4791 N   0  0  0  0  0  0  0  0  0  0  0  0
    7.7924  -12.6515   18.0765 C   0  0  0  0  0  0  0  0  0  0  0  0
    7.8336  -12.8853   19.4197 N   0  0  0  0  0  0  0  0  0  0  0  0
    9.0108  -16.7835   22.1576 C   0  0  0  0  0  0  0  0  0  0  0  0
    8.1327  -17.0354   23.0326 O   0  0  0  0  0  0  0  0  0  0  0  0
   10.3651  -16.9795   22.5535 N   0  0  0  0  0  0  0  0  0  0  0  0
   10.6970  -17.3015   23.9129 C   0  0  1  0  0  0  0  0  0  0  0  0
   12.0887  -17.9070   24.0156 C   0  0  0  0  0  0  0  0  0  0  0  0
   12.1145  -19.2006   23.2304 C   0  0  0  0  0  0  0  0  0  0  0  0
   13.4789  -19.7777   23.2283 C   0  0  0  0  0  0  0  0  0  0  0  0
   14.3635  -19.2459   22.5434 O   0  0  0  0  0  0  0  0  0  0  0  0
   10.5591  -16.1350   24.8228 C   0  0  0  0  0  0  0  0  0  0  0  0
   11.0968  -15.0469   24.4920 O   0  0  0  0  0  0  0  0  0  0  0  0
   13.7301  -20.8941   23.9901 O   0  0  0  0  0  0  0  0  0  0  0  0
    5.9396  -13.2286   26.0380 N   0  0  0  0  0  0  0  0  0  0  0  0
    6.7877  -12.5028   26.9422 C   0  0  0  0  0  0  0  0  0  0  0  0
    6.4092  -11.3814   27.4023 O   0  0  0  0  0  0  0  0  0  0  0  0
    8.0785  -13.1098   27.3051 C   0  0  0  0  0  0  0  0  0  0  0  0
    8.3825  -14.3505   26.5477 C   0  0  0  0  0  0  0  0  0  0  0  0
    9.6979  -14.9577   26.8875 C   0  0  2  0  0  0  0  0  0  0  0  0
    9.8533  -16.1844   26.0441 N   0  0  0  0  0  0  0  0  0  0  0  0
    9.9029  -15.4132   28.2476 C   0  0  0  0  0  0  0  0  0  0  0  0
    9.8959  -16.6346   28.5304 O   0  0  0  0  0  0  0  0  0  0  0  0
   10.1259  -14.5417   29.2967 O   0  0  0  0  0  0  0  0  0  0  0  0
  2  1  1  1
  3  4  1  0
  3  2  1  0
  4  8  1  0
  5  6  1  0
  5  4  2  0
  6  7  1  0
  7  8  2  0
  9  2  1  0
  9 11  1  0
 10  9  2  0
 11 12  1  0
 12 17  1  0
 13 14  1  0
 12 13  1  6
 15 16  2  0
 15 14  1  0
 17 18  2  0
 17 26  1  0
 19 15  1  0
 20 21  1  0
 21 23  1  0
 21 22  2  0
 23 24  1  0
 25 24  1  1
 25 27  1  0
 26 25  1  0
 27 28  2  0
 27 29  1  0
M  END
$$$$
