HEQ.pdb
     RDKit          3D

 29 29  0  0  1  0  0  0  0  0999 V2000
    8.8324  -17.8824   19.0977 N   0  0  0  0  0  0  0  0  0  0  0  0
    9.5886  -16.8530   19.8249 C   0  0  1  0  0  0  0  0  0  0  0  0
    8.6261  -15.8698   20.4496 C   0  0  0  0  0  0  0  0  0  0  0  0
    8.2559  -14.7743   19.5614 C   0  0  0  0  0  0  0  0  0  0  0  0
    8.6989  -14.6058   18.2688 C   0  0  0  0  0  0  0  0  0  0  0  0
    8.1456  -13.4958   17.7810 N   0  0  0  0  0  0  0  0  0  0  0  0
    7.3625  -12.9442   18.7137 C   0  0  0  0  0  0  0  0  0  0  0  0
    7.4414  -13.7488   19.8123 N   0  0  0  0  0  0  0  0  0  0  0  0
   10.2870  -17.5415   20.9502 C   0  0  0  0  0  0  0  0  0  0  0  0
    9.6450  -18.2366   21.7897 O   0  0  0  0  0  0  0  0  0  0  0  0
   11.6955  -17.4621   21.1482 N   0  0  0  0  0  0  0  0  0  0  0  0
   12.3011  -17.9655   22.3490 C   0  0  1  0  0  0  0  0  0  0  0  0
   13.8172  -17.8524   22.2950 C   0  0  0  0  0  0  0  0  0  0  0  0
   14.3330  -18.7588   21.1982 C   0  0  0  0  0  0  0  0  0  0  0  0
   15.8080  -18.6632   21.0987 C   0  0  0  0  0  0  0  0  0  0  0  0
   16.3187  -18.1716   20.0829 O   0  0  0  0  0  0  0  0  0  0  0  0
   11.7652  -17.3136   23.5718 C   0  0  0  0  0  0  0  0  0  0  0  0
   12.0016  -16.0918   23.7553 O   0  0  0  0  0  0  0  0  0  0  0  0
   16.5763  -19.1246   22.1410 O   0  0  0  0  0  0  0  0  0  0  0  0
    7.1052  -14.2866   24.9996 N   0  0  0  0  0  0  0  0  0  0  0  0
    7.0079  -15.4951   25.7699 C   0  0  0  0  0  0  0  0  0  0  0  0
    5.8704  -16.0137   25.9926 O   0  0  0  0  0  0  0  0  0  0  0  0
    8.2581  -16.0907   26.2686 C   0  0  0  0  0  0  0  0  0  0  0  0
    9.1079  -16.6671   25.1957 C   0  0  0  0  0  0  0  0  0  0  0  0
   10.3822  -17.2577   25.6872 C   0  0  2  0  0  0  0  0  0  0  0  0
   11.0013  -17.9968   24.5424 N   0  0  0  0  0  0  0  0  0  0  0  0
   10.3096  -18.2282   26.7606 C   0  0  0  0  0  0  0  0  0  0  0  0
   10.3133  -17.8684   27.9616 O   0  0  0  0  0  0  0  0  0  0  0  0
   10.2223  -19.5876   26.5275 O   0  0  0  0  0  0  0  0  0  0  0  0
  2  1  1  1
  3  4  1  0
  3  2  1  0
  4  8  1  0
  5  6  1  0
  5  4  2  0
  6  7  1  0
  7  8  2  0
  9  2  1  0
  9 11  1  0
 10  9  2  0
 11 12  1  0
 12 17  1  0
 13 14  1  0
 12 13  1  6
 15 16  2  0
 15 14  1  0
 17 18  2  0
 17 26  1  0
 19 15  1  0
 20 21  1  0
 21 23  1  0
 21 22  2  0
 23 24  1  0
 25 24  1  6
 25 27  1  0
 26 25  1  0
 27 28  2  0
 27 29  1  0
M  END
$$$$
