HEQ.pdb
     RDKit          3D

 29 29  0  0  1  0  0  0  0  0999 V2000
    7.0696  -16.8146   19.8277 N   0  0  0  0  0  0  0  0  0  0  0  0
    8.3878  -16.2213   20.0940 C   0  0  1  0  0  0  0  0  0  0  0  0
    8.2176  -14.9728   20.9280 C   0  0  0  0  0  0  0  0  0  0  0  0
    7.9847  -13.7713   20.1354 C   0  0  0  0  0  0  0  0  0  0  0  0
    7.8500  -13.7282   18.7660 C   0  0  0  0  0  0  0  0  0  0  0  0
    7.6493  -12.4604   18.4076 N   0  0  0  0  0  0  0  0  0  0  0  0
    7.6502  -11.6863   19.4977 C   0  0  0  0  0  0  0  0  0  0  0  0
    7.8594  -12.5140   20.5614 N   0  0  0  0  0  0  0  0  0  0  0  0
    9.1413  -17.1978   20.9347 C   0  0  0  0  0  0  0  0  0  0  0  0
    8.5359  -18.0363   21.6630 O   0  0  0  0  0  0  0  0  0  0  0  0
   10.5646  -17.2480   20.9708 N   0  0  0  0  0  0  0  0  0  0  0  0
   11.2481  -18.2441   21.7469 C   0  0  1  0  0  0  0  0  0  0  0  0
   12.7122  -18.3501   21.3478 C   0  0  0  0  0  0  0  0  0  0  0  0
   13.3815  -19.3842   22.2270 C   0  0  0  0  0  0  0  0  0  0  0  0
   14.7933  -19.5739   21.8201 C   0  0  0  0  0  0  0  0  0  0  0  0
   15.0873  -19.5569   20.6169 O   0  0  0  0  0  0  0  0  0  0  0  0
   11.1134  -18.0161   23.2089 C   0  0  0  0  0  0  0  0  0  0  0  0
   11.3462  -16.8661   23.6626 O   0  0  0  0  0  0  0  0  0  0  0  0
   15.7459  -19.7650   22.7926 O   0  0  0  0  0  0  0  0  0  0  0  0
    6.9861  -20.3877   26.9703 N   0  0  0  0  0  0  0  0  0  0  0  0
    7.9186  -19.9619   27.9767 C   0  0  0  0  0  0  0  0  0  0  0  0
    7.6345  -20.1093   29.2055 O   0  0  0  0  0  0  0  0  0  0  0  0
    9.1882  -19.3695   27.5257 C   0  0  0  0  0  0  0  0  0  0  0  0
    9.3372  -19.3437   26.0483 C   0  0  0  0  0  0  0  0  0  0  0  0
   10.6103  -18.7312   25.5809 C   0  0  2  0  0  0  0  0  0  0  0  0
   10.7364  -19.0269   24.1191 N   0  0  0  0  0  0  0  0  0  0  0  0
   11.8469  -19.2096   26.1650 C   0  0  0  0  0  0  0  0  0  0  0  0
   12.5189  -20.1120   25.6118 O   0  0  0  0  0  0  0  0  0  0  0  0
   12.3573  -18.6995   27.3436 O   0  0  0  0  0  0  0  0  0  0  0  0
  2  1  1  1
  3  4  1  0
  3  2  1  0
  4  8  1  0
  5  6  1  0
  5  4  2  0
  6  7  1  0
  7  8  2  0
  9  2  1  0
  9 11  1  0
 10  9  2  0
 11 12  1  0
 12 17  1  0
 13 14  1  0
 12 13  1  6
 15 16  2  0
 15 14  1  0
 17 18  2  0
 17 26  1  0
 19 15  1  0
 20 21  1  0
 21 23  1  0
 21 22  2  0
 23 24  1  0
 25 24  1  1
 25 27  1  0
 26 25  1  0
 27 28  2  0
 27 29  1  0
M  END
$$$$
