HEQ.pdb
     RDKit          3D

 29 29  0  0  1  0  0  0  0  0999 V2000
    7.5579  -17.0250   20.4983 N   0  0  0  0  0  0  0  0  0  0  0  0
    8.8503  -16.4062   20.8257 C   0  0  1  0  0  0  0  0  0  0  0  0
    8.6248  -14.9841   21.2841 C   0  0  0  0  0  0  0  0  0  0  0  0
    8.2960  -14.0684   20.1980 C   0  0  0  0  0  0  0  0  0  0  0  0
    8.1686  -14.4118   18.8710 C   0  0  0  0  0  0  0  0  0  0  0  0
    7.8629  -13.3115   18.1842 N   0  0  0  0  0  0  0  0  0  0  0  0
    7.7892  -12.2723   19.0221 C   0  0  0  0  0  0  0  0  0  0  0  0
    8.0603  -12.7579   20.2676 N   0  0  0  0  0  0  0  0  0  0  0  0
    9.4034  -17.1500   21.9958 C   0  0  0  0  0  0  0  0  0  0  0  0
    8.6855  -17.4067   23.0052 O   0  0  0  0  0  0  0  0  0  0  0  0
   10.7504  -17.6105   22.0508 N   0  0  0  0  0  0  0  0  0  0  0  0
   11.2590  -18.2646   23.2236 C   0  0  1  0  0  0  0  0  0  0  0  0
   12.5494  -19.0131   22.9257 C   0  0  0  0  0  0  0  0  0  0  0  0
   13.0312  -19.6758   24.1981 C   0  0  0  0  0  0  0  0  0  0  0  0
   14.2758  -20.4385   23.9453 C   0  0  0  0  0  0  0  0  0  0  0  0
   14.6217  -21.3204   24.7433 O   0  0  0  0  0  0  0  0  0  0  0  0
   11.4416  -17.3277   24.3622 C   0  0  0  0  0  0  0  0  0  0  0  0
   12.0199  -16.2305   24.1520 O   0  0  0  0  0  0  0  0  0  0  0  0
   15.0189  -20.1468   22.8261 O   0  0  0  0  0  0  0  0  0  0  0  0
    7.5971  -14.2228   26.6557 N   0  0  0  0  0  0  0  0  0  0  0  0
    8.5736  -13.8685   27.6478 C   0  0  0  0  0  0  0  0  0  0  0  0
    8.3445  -12.9085   28.4467 O   0  0  0  0  0  0  0  0  0  0  0  0
    9.8159  -14.6564   27.6964 C   0  0  0  0  0  0  0  0  0  0  0  0
    9.8834  -15.7189   26.6611 C   0  0  0  0  0  0  0  0  0  0  0  0
   11.0997  -16.5716   26.7502 C   0  0  2  0  0  0  0  0  0  0  0  0
   10.9983  -17.6059   25.6731 N   0  0  0  0  0  0  0  0  0  0  0  0
   11.3116  -17.3245   27.9698 C   0  0  0  0  0  0  0  0  0  0  0  0
   11.0555  -18.5504   28.0279 O   0  0  0  0  0  0  0  0  0  0  0  0
   11.8114  -16.7468   29.1214 O   0  0  0  0  0  0  0  0  0  0  0  0
  2  1  1  1
  3  4  1  0
  3  2  1  0
  4  8  1  0
  5  6  1  0
  5  4  2  0
  6  7  1  0
  7  8  2  0
  9  2  1  0
  9 11  1  0
 10  9  2  0
 11 12  1  0
 12 17  1  0
 13 14  1  0
 12 13  1  6
 15 16  2  0
 15 14  1  0
 17 18  2  0
 17 26  1  0
 19 15  1  0
 20 21  1  0
 21 23  1  0
 21 22  2  0
 23 24  1  0
 25 24  1  1
 25 27  1  0
 26 25  1  0
 27 28  2  0
 27 29  1  0
M  END
$$$$
