HEQ.pdb
     RDKit          3D

 29 29  0  0  1  0  0  0  0  0999 V2000
    8.1011  -17.5846   17.7913 N   0  0  0  0  0  0  0  0  0  0  0  0
    8.4855  -16.3637   18.5138 C   0  0  1  0  0  0  0  0  0  0  0  0
    7.5751  -15.2295   18.1038 C   0  0  0  0  0  0  0  0  0  0  0  0
    7.8608  -14.7066   16.7729 C   0  0  0  0  0  0  0  0  0  0  0  0
    8.8398  -15.1699   15.9230 C   0  0  0  0  0  0  0  0  0  0  0  0
    8.7960  -14.4464   14.8047 N   0  0  0  0  0  0  0  0  0  0  0  0
    7.8238  -13.5342   14.9049 C   0  0  0  0  0  0  0  0  0  0  0  0
    7.2529  -13.7083   16.1314 N   0  0  0  0  0  0  0  0  0  0  0  0
    8.2273  -16.6171   19.9621 C   0  0  0  0  0  0  0  0  0  0  0  0
    7.0929  -16.3886   20.4729 O   0  0  0  0  0  0  0  0  0  0  0  0
    9.2230  -17.1232   20.8463 N   0  0  0  0  0  0  0  0  0  0  0  0
    8.9055  -17.4408   22.2102 C   0  0  1  0  0  0  0  0  0  0  0  0
    9.5354  -18.7592   22.6338 C   0  0  0  0  0  0  0  0  0  0  0  0
    8.8789  -19.8818   21.8596 C   0  0  0  0  0  0  0  0  0  0  0  0
    9.4219  -21.1921   22.2873 C   0  0  0  0  0  0  0  0  0  0  0  0
   10.2813  -21.2330   23.1784 O   0  0  0  0  0  0  0  0  0  0  0  0
    9.2781  -16.3509   23.1487 C   0  0  0  0  0  0  0  0  0  0  0  0
   10.3536  -15.7288   22.9520 O   0  0  0  0  0  0  0  0  0  0  0  0
    8.9560  -22.3348   21.6817 O   0  0  0  0  0  0  0  0  0  0  0  0
    5.4909  -12.7544   26.4243 N   0  0  0  0  0  0  0  0  0  0  0  0
    6.7591  -12.1946   26.8010 C   0  0  0  0  0  0  0  0  0  0  0  0
    6.8013  -11.1101   27.4602 O   0  0  0  0  0  0  0  0  0  0  0  0
    7.9739  -12.9239   26.4026 C   0  0  0  0  0  0  0  0  0  0  0  0
    7.7010  -14.1001   25.5380 C   0  0  0  0  0  0  0  0  0  0  0  0
    8.9183  -14.8712   25.1666 C   0  0  2  0  0  0  0  0  0  0  0  0
    8.4847  -15.9755   24.2542 N   0  0  0  0  0  0  0  0  0  0  0  0
    9.6519  -15.5317   26.2273 C   0  0  0  0  0  0  0  0  0  0  0  0
    9.4306  -16.7306   26.5195 O   0  0  0  0  0  0  0  0  0  0  0  0
   10.6323  -14.8918   26.9616 O   0  0  0  0  0  0  0  0  0  0  0  0
  2  1  1  6
  3  4  1  0
  3  2  1  0
  4  8  1  0
  5  6  1  0
  5  4  2  0
  6  7  1  0
  7  8  2  0
  9  2  1  0
  9 11  1  0
 10  9  2  0
 11 12  1  0
 12 17  1  0
 13 14  1  0
 12 13  1  1
 15 16  2  0
 15 14  1  0
 17 18  2  0
 17 26  1  0
 19 15  1  0
 20 21  1  0
 21 23  1  0
 21 22  2  0
 23 24  1  0
 25 24  1  1
 25 27  1  0
 26 25  1  0
 27 28  2  0
 27 29  1  0
M  END
$$$$
