HEQ.pdb
     RDKit          3D

 29 29  0  0  1  0  0  0  0  0999 V2000
    7.8655  -17.6521   20.3460 N   0  0  0  0  0  0  0  0  0  0  0  0
    8.6636  -16.5567   20.9148 C   0  0  1  0  0  0  0  0  0  0  0  0
    7.8197  -15.3054   20.9877 C   0  0  0  0  0  0  0  0  0  0  0  0
    8.0161  -14.4050   19.8577 C   0  0  0  0  0  0  0  0  0  0  0  0
    8.8503  -14.6333   18.7866 C   0  0  0  0  0  0  0  0  0  0  0  0
    8.7627  -13.5904   17.9616 N   0  0  0  0  0  0  0  0  0  0  0  0
    7.9018  -12.6992   18.4638 C   0  0  0  0  0  0  0  0  0  0  0  0
    7.4472  -13.2189   19.6402 N   0  0  0  0  0  0  0  0  0  0  0  0
    8.9844  -16.9387   22.3218 C   0  0  0  0  0  0  0  0  0  0  0  0
    8.0669  -17.1424   23.1685 O   0  0  0  0  0  0  0  0  0  0  0  0
   10.3193  -17.0959   22.7935 N   0  0  0  0  0  0  0  0  0  0  0  0
   10.5870  -17.3353   24.1838 C   0  0  1  0  0  0  0  0  0  0  0  0
   11.9369  -18.0084   24.3809 C   0  0  0  0  0  0  0  0  0  0  0  0
   11.8755  -19.4013   23.7921 C   0  0  0  0  0  0  0  0  0  0  0  0
   13.1716  -20.0963   23.9707 C   0  0  0  0  0  0  0  0  0  0  0  0
   14.0247  -20.0326   23.0749 O   0  0  0  0  0  0  0  0  0  0  0  0
   10.4876  -16.0993   25.0023 C   0  0  0  0  0  0  0  0  0  0  0  0
   11.0725  -15.0614   24.5984 O   0  0  0  0  0  0  0  0  0  0  0  0
   13.3958  -20.7977   25.1315 O   0  0  0  0  0  0  0  0  0  0  0  0
    5.6462  -13.3923   26.7093 N   0  0  0  0  0  0  0  0  0  0  0  0
    6.5900  -12.5060   27.3316 C   0  0  0  0  0  0  0  0  0  0  0  0
    6.2269  -11.3414   27.6842 O   0  0  0  0  0  0  0  0  0  0  0  0
    7.9593  -13.0033   27.5415 C   0  0  0  0  0  0  0  0  0  0  0  0
    8.2588  -14.2475   26.7881 C   0  0  0  0  0  0  0  0  0  0  0  0
    9.6534  -14.7369   26.9616 C   0  0  2  0  0  0  0  0  0  0  0  0
    9.7681  -16.0288   26.2146 N   0  0  0  0  0  0  0  0  0  0  0  0
   10.1018  -15.0431   28.3049 C   0  0  0  0  0  0  0  0  0  0  0  0
   10.0844  -14.1739   29.2083 O   0  0  0  0  0  0  0  0  0  0  0  0
   10.5585  -16.2960   28.6675 O   0  0  0  0  0  0  0  0  0  0  0  0
  2  1  1  1
  3  4  1  0
  3  2  1  0
  4  8  1  0
  5  6  1  0
  5  4  2  0
  6  7  1  0
  7  8  2  0
  9  2  1  0
  9 11  1  0
 10  9  2  0
 11 12  1  0
 12 17  1  0
 13 14  1  0
 12 13  1  6
 15 16  2  0
 15 14  1  0
 17 18  2  0
 17 26  1  0
 19 15  1  0
 20 21  1  0
 21 23  1  0
 21 22  2  0
 23 24  1  0
 25 24  1  1
 25 27  1  0
 26 25  1  0
 27 28  2  0
 27 29  1  0
M  END
$$$$
