HEQ.pdb
     RDKit          3D

 29 29  0  0  1  0  0  0  0  0999 V2000
    7.5290  -16.6619   20.6478 N   0  0  0  0  0  0  0  0  0  0  0  0
    8.7991  -16.1002   21.1291 C   0  0  1  0  0  0  0  0  0  0  0  0
    8.7437  -14.5922   21.0498 C   0  0  0  0  0  0  0  0  0  0  0  0
    8.4750  -14.0900   19.7076 C   0  0  0  0  0  0  0  0  0  0  0  0
    8.2916  -14.8641   18.5840 C   0  0  0  0  0  0  0  0  0  0  0  0
    8.0702  -14.0518   17.5510 N   0  0  0  0  0  0  0  0  0  0  0  0
    8.1046  -12.7826   17.9700 C   0  0  0  0  0  0  0  0  0  0  0  0
    8.3568  -12.8228   19.3099 N   0  0  0  0  0  0  0  0  0  0  0  0
    8.9069  -16.4487   22.5766 C   0  0  0  0  0  0  0  0  0  0  0  0
    7.8781  -16.5223   23.3089 O   0  0  0  0  0  0  0  0  0  0  0  0
   10.1518  -16.7160   23.2153 N   0  0  0  0  0  0  0  0  0  0  0  0
   10.2033  -17.1101   24.5951 C   0  0  1  0  0  0  0  0  0  0  0  0
   11.3720  -18.0468   24.8612 C   0  0  0  0  0  0  0  0  0  0  0  0
   11.1437  -19.3359   24.1019 C   0  0  0  0  0  0  0  0  0  0  0  0
   12.4103  -20.0941   23.9766 C   0  0  0  0  0  0  0  0  0  0  0  0
   13.4410  -19.6475   24.4986 O   0  0  0  0  0  0  0  0  0  0  0  0
   10.2379  -15.9457   25.5174 C   0  0  0  0  0  0  0  0  0  0  0  0
   11.1823  -15.1215   25.4109 O   0  0  0  0  0  0  0  0  0  0  0  0
   12.4097  -21.2797   23.2809 O   0  0  0  0  0  0  0  0  0  0  0  0
    5.6943  -12.5963   26.9743 N   0  0  0  0  0  0  0  0  0  0  0  0
    6.8455  -11.9142   26.4518 C   0  0  0  0  0  0  0  0  0  0  0  0
    6.7073  -10.7938   25.8703 O   0  0  0  0  0  0  0  0  0  0  0  0
    8.1583  -12.5568   26.6252 C   0  0  0  0  0  0  0  0  0  0  0  0
    8.1021  -13.8134   27.4148 C   0  0  0  0  0  0  0  0  0  0  0  0
    9.3890  -14.5595   27.4535 C   0  0  2  0  0  0  0  0  0  0  0  0
    9.2622  -15.7153   26.5110 N   0  0  0  0  0  0  0  0  0  0  0  0
    9.7922  -15.1500   28.7137 C   0  0  0  0  0  0  0  0  0  0  0  0
   10.1453  -14.4352   29.6813 O   0  0  0  0  0  0  0  0  0  0  0  0
    9.8010  -16.5158   28.9244 O   0  0  0  0  0  0  0  0  0  0  0  0
  2  1  1  1
  3  4  1  0
  3  2  1  0
  4  8  1  0
  5  6  1  0
  5  4  2  0
  6  7  1  0
  7  8  2  0
  9  2  1  0
  9 11  1  0
 10  9  2  0
 11 12  1  0
 12 17  1  0
 13 14  1  0
 12 13  1  6
 15 16  2  0
 15 14  1  0
 17 18  2  0
 17 26  1  0
 19 15  1  0
 20 21  1  0
 21 23  1  0
 21 22  2  0
 23 24  1  0
 25 24  1  1
 25 27  1  0
 26 25  1  0
 27 28  2  0
 27 29  1  0
M  END
$$$$
