HEQ.pdb
     RDKit          3D

 29 29  0  0  1  0  0  0  0  0999 V2000
    6.9369  -16.6597   20.8915 N   0  0  0  0  0  0  0  0  0  0  0  0
    8.3108  -16.1588   21.0398 C   0  0  1  0  0  0  0  0  0  0  0  0
    8.2756  -14.7469   21.5770 C   0  0  0  0  0  0  0  0  0  0  0  0
    8.0648  -13.7376   20.5459 C   0  0  0  0  0  0  0  0  0  0  0  0
    7.8691  -13.9889   19.2066 C   0  0  0  0  0  0  0  0  0  0  0  0
    7.7137  -12.8215   18.5829 N   0  0  0  0  0  0  0  0  0  0  0  0
    7.8025  -11.8281   19.4733 C   0  0  0  0  0  0  0  0  0  0  0  0
    8.0203  -12.4124   20.6864 N   0  0  0  0  0  0  0  0  0  0  0  0
    8.9680  -16.9978   22.0851 C   0  0  0  0  0  0  0  0  0  0  0  0
    8.2830  -17.6536   22.9222 O   0  0  0  0  0  0  0  0  0  0  0  0
   10.3829  -17.1123   22.2055 N   0  0  0  0  0  0  0  0  0  0  0  0
   10.9717  -17.9987   23.1696 C   0  0  1  0  0  0  0  0  0  0  0  0
   12.1146  -18.7983   22.5624 C   0  0  0  0  0  0  0  0  0  0  0  0
   12.7097  -19.6856   23.6345 C   0  0  0  0  0  0  0  0  0  0  0  0
   13.7944  -20.5224   23.0706 C   0  0  0  0  0  0  0  0  0  0  0  0
   13.6452  -21.0419   21.9561 O   0  0  0  0  0  0  0  0  0  0  0  0
   11.4161  -17.2889   24.3968 C   0  0  0  0  0  0  0  0  0  0  0  0
   12.1691  -16.2887   24.2742 O   0  0  0  0  0  0  0  0  0  0  0  0
   14.9444  -20.7020   23.8019 O   0  0  0  0  0  0  0  0  0  0  0  0
   10.3044  -13.4595   28.4173 N   0  0  0  0  0  0  0  0  0  0  0  0
    9.2071  -14.1028   27.7498 C   0  0  0  0  0  0  0  0  0  0  0  0
    8.0335  -13.6313   27.8628 O   0  0  0  0  0  0  0  0  0  0  0  0
    9.5030  -15.2985   26.9441 C   0  0  0  0  0  0  0  0  0  0  0  0
   10.9502  -15.4801   26.6644 C   0  0  0  0  0  0  0  0  0  0  0  0
   11.4387  -16.8676   26.8894 C   0  0  2  0  0  0  0  0  0  0  0  0
   11.0358  -17.6800   25.6986 N   0  0  0  0  0  0  0  0  0  0  0  0
   10.9157  -17.5937   28.0290 C   0  0  0  0  0  0  0  0  0  0  0  0
   10.0538  -18.4926   27.8851 O   0  0  0  0  0  0  0  0  0  0  0  0
   11.3378  -17.3494   29.3220 O   0  0  0  0  0  0  0  0  0  0  0  0
  2  1  1  1
  3  4  1  0
  3  2  1  0
  4  8  1  0
  5  6  1  0
  5  4  2  0
  6  7  1  0
  7  8  2  0
  9  2  1  0
  9 11  1  0
 10  9  2  0
 11 12  1  0
 12 17  1  0
 13 14  1  0
 12 13  1  6
 15 16  2  0
 15 14  1  0
 17 18  2  0
 17 26  1  0
 19 15  1  0
 20 21  1  0
 21 23  1  0
 21 22  2  0
 23 24  1  0
 25 24  1  6
 25 27  1  0
 26 25  1  0
 27 28  2  0
 27 29  1  0
M  END
$$$$
