HEQ.pdb
     RDKit          3D

 29 29  0  0  1  0  0  0  0  0999 V2000
    7.4445  -16.9267   20.1846 N   0  0  0  0  0  0  0  0  0  0  0  0
    8.7564  -16.3026   20.4081 C   0  0  1  0  0  0  0  0  0  0  0  0
    8.5725  -14.8248   20.6647 C   0  0  0  0  0  0  0  0  0  0  0  0
    8.1545  -14.0773   19.4846 C   0  0  0  0  0  0  0  0  0  0  0  0
    7.8978  -14.6161   18.2440 C   0  0  0  0  0  0  0  0  0  0  0  0
    7.5430  -13.6257   17.4259 N   0  0  0  0  0  0  0  0  0  0  0  0
    7.5623  -12.4690   18.0960 C   0  0  0  0  0  0  0  0  0  0  0  0
    7.9435  -12.7656   19.3716 N   0  0  0  0  0  0  0  0  0  0  0  0
    9.3077  -16.8895   21.6650 C   0  0  0  0  0  0  0  0  0  0  0  0
    8.5436  -17.3693   22.5517 O   0  0  0  0  0  0  0  0  0  0  0  0
   10.7038  -16.9466   21.9424 N   0  0  0  0  0  0  0  0  0  0  0  0
   11.1901  -17.5235   23.1641 C   0  0  1  0  0  0  0  0  0  0  0  0
   12.5825  -18.1093   22.9851 C   0  0  0  0  0  0  0  0  0  0  0  0
   12.9996  -18.7741   24.2792 C   0  0  0  0  0  0  0  0  0  0  0  0
   14.3759  -19.3104   24.1654 C   0  0  0  0  0  0  0  0  0  0  0  0
   15.3373  -18.5299   24.1930 O   0  0  0  0  0  0  0  0  0  0  0  0
   11.1621  -16.5622   24.2967 C   0  0  0  0  0  0  0  0  0  0  0  0
   11.6859  -15.4296   24.1378 O   0  0  0  0  0  0  0  0  0  0  0  0
   14.5520  -20.6672   24.0316 O   0  0  0  0  0  0  0  0  0  0  0  0
    6.7076  -13.9407   24.8022 N   0  0  0  0  0  0  0  0  0  0  0  0
    7.1939  -13.3785   26.0315 C   0  0  0  0  0  0  0  0  0  0  0  0
    6.6040  -12.3792   26.5472 O   0  0  0  0  0  0  0  0  0  0  0  0
    8.3728  -14.0053   26.6510 C   0  0  0  0  0  0  0  0  0  0  0  0
    8.9309  -15.1294   25.8569 C   0  0  0  0  0  0  0  0  0  0  0  0
   10.1378  -15.7548   26.4623 C   0  0  2  0  0  0  0  0  0  0  0  0
   10.5759  -16.8549   25.5469 N   0  0  0  0  0  0  0  0  0  0  0  0
    9.9962  -16.3847   27.7594 C   0  0  0  0  0  0  0  0  0  0  0  0
    9.6709  -15.7196   28.7712 O   0  0  0  0  0  0  0  0  0  0  0  0
   10.1975  -17.7381   27.9533 O   0  0  0  0  0  0  0  0  0  0  0  0
  2  1  1  1
  3  4  1  0
  3  2  1  0
  4  8  1  0
  5  6  1  0
  5  4  2  0
  6  7  1  0
  7  8  2  0
  9  2  1  0
  9 11  1  0
 10  9  2  0
 11 12  1  0
 12 17  1  0
 13 14  1  0
 12 13  1  6
 15 16  2  0
 15 14  1  0
 17 18  2  0
 17 26  1  0
 19 15  1  0
 20 21  1  0
 21 23  1  0
 21 22  2  0
 23 24  1  0
 25 24  1  6
 25 27  1  0
 26 25  1  0
 27 28  2  0
 27 29  1  0
M  END
$$$$
