HEQ.pdb
     RDKit          3D

 29 29  0  0  1  0  0  0  0  0999 V2000
    8.9495  -17.3028   20.1820 N   0  0  0  0  0  0  0  0  0  0  0  0
    9.5839  -16.3726   21.1268 C   0  0  1  0  0  0  0  0  0  0  0  0
    8.5348  -15.4536   21.7082 C   0  0  0  0  0  0  0  0  0  0  0  0
    8.1367  -14.3805   20.8048 C   0  0  0  0  0  0  0  0  0  0  0  0
    8.6183  -14.1862   19.5298 C   0  0  0  0  0  0  0  0  0  0  0  0
    8.0216  -13.1094   19.0195 N   0  0  0  0  0  0  0  0  0  0  0  0
    7.1732  -12.6040   19.9208 C   0  0  0  0  0  0  0  0  0  0  0  0
    7.2560  -13.4035   21.0229 N   0  0  0  0  0  0  0  0  0  0  0  0
   10.1077  -17.1936   22.2582 C   0  0  0  0  0  0  0  0  0  0  0  0
    9.3235  -17.7342   23.0906 O   0  0  0  0  0  0  0  0  0  0  0  0
   11.4986  -17.4173   22.4700 N   0  0  0  0  0  0  0  0  0  0  0  0
   11.9629  -18.1345   23.6241 C   0  0  1  0  0  0  0  0  0  0  0  0
   13.4306  -18.5112   23.4897 C   0  0  0  0  0  0  0  0  0  0  0  0
   13.5938  -19.4038   22.2784 C   0  0  0  0  0  0  0  0  0  0  0  0
   14.8708  -19.1102   21.5873 C   0  0  0  0  0  0  0  0  0  0  0  0
   14.8661  -18.8871   20.3690 O   0  0  0  0  0  0  0  0  0  0  0  0
   11.7207  -17.3932   24.8888 C   0  0  0  0  0  0  0  0  0  0  0  0
   11.7345  -16.1357   24.8614 O   0  0  0  0  0  0  0  0  0  0  0  0
   16.0344  -19.0928   22.3192 O   0  0  0  0  0  0  0  0  0  0  0  0
    9.9719  -13.7849   26.8875 N   0  0  0  0  0  0  0  0  0  0  0  0
    9.4015  -14.3247   28.0903 C   0  0  0  0  0  0  0  0  0  0  0  0
    9.0330  -13.5441   29.0216 O   0  0  0  0  0  0  0  0  0  0  0  0
    9.2619  -15.7869   28.1846 C   0  0  0  0  0  0  0  0  0  0  0  0
    9.8419  -16.5125   27.0259 C   0  0  0  0  0  0  0  0  0  0  0  0
   11.1078  -17.2306   27.3360 C   0  0  2  0  0  0  0  0  0  0  0  0
   11.4749  -18.0294   26.1247 N   0  0  0  0  0  0  0  0  0  0  0  0
   11.0946  -18.1885   28.4230 C   0  0  0  0  0  0  0  0  0  0  0  0
   10.8500  -19.4006   28.2162 O   0  0  0  0  0  0  0  0  0  0  0  0
   11.3578  -17.8301   29.7315 O   0  0  0  0  0  0  0  0  0  0  0  0
  2  1  1  6
  3  4  1  0
  3  2  1  0
  4  8  1  0
  5  6  1  0
  5  4  2  0
  6  7  1  0
  7  8  2  0
  9  2  1  0
  9 11  1  0
 10  9  2  0
 11 12  1  0
 12 17  1  0
 13 14  1  0
 12 13  1  6
 15 16  2  0
 15 14  1  0
 17 18  2  0
 17 26  1  0
 19 15  1  0
 20 21  1  0
 21 23  1  0
 21 22  2  0
 23 24  1  0
 25 24  1  6
 25 27  1  0
 26 25  1  0
 27 28  2  0
 27 29  1  0
M  END
$$$$
