HEQ.pdb
     RDKit          3D

 29 29  0  0  1  0  0  0  0  0999 V2000
    7.8307  -17.6025   19.6364 N   0  0  0  0  0  0  0  0  0  0  0  0
    8.5448  -16.5133   20.3176 C   0  0  1  0  0  0  0  0  0  0  0  0
    7.6685  -15.2827   20.3527 C   0  0  0  0  0  0  0  0  0  0  0  0
    7.8995  -14.3724   19.2373 C   0  0  0  0  0  0  0  0  0  0  0  0
    8.7986  -14.5708   18.2139 C   0  0  0  0  0  0  0  0  0  0  0  0
    8.7250  -13.5279   17.3875 N   0  0  0  0  0  0  0  0  0  0  0  0
    7.8104  -12.6655   17.8429 C   0  0  0  0  0  0  0  0  0  0  0  0
    7.3073  -13.2034   18.9910 N   0  0  0  0  0  0  0  0  0  0  0  0
    8.7384  -16.9409   21.7346 C   0  0  0  0  0  0  0  0  0  0  0  0
    7.7537  -17.2657   22.4592 O   0  0  0  0  0  0  0  0  0  0  0  0
   10.0207  -17.0097   22.3515 N   0  0  0  0  0  0  0  0  0  0  0  0
   10.1541  -17.3539   23.7392 C   0  0  1  0  0  0  0  0  0  0  0  0
   11.3682  -18.2391   23.9769 C   0  0  0  0  0  0  0  0  0  0  0  0
   12.5930  -17.5416   23.4257 C   0  0  0  0  0  0  0  0  0  0  0  0
   13.7989  -18.3788   23.6247 C   0  0  0  0  0  0  0  0  0  0  0  0
   14.9095  -17.9314   23.3073 O   0  0  0  0  0  0  0  0  0  0  0  0
   10.1908  -16.1579   24.6199 C   0  0  0  0  0  0  0  0  0  0  0  0
   10.8271  -15.1443   24.2323 O   0  0  0  0  0  0  0  0  0  0  0  0
   13.6543  -19.6371   24.1591 O   0  0  0  0  0  0  0  0  0  0  0  0
    5.6255  -13.2968   26.7915 N   0  0  0  0  0  0  0  0  0  0  0  0
    6.6480  -12.4887   27.3958 C   0  0  0  0  0  0  0  0  0  0  0  0
    6.3540  -11.3501   27.8750 O   0  0  0  0  0  0  0  0  0  0  0  0
    8.0146  -13.0338   27.4379 C   0  0  0  0  0  0  0  0  0  0  0  0
    8.1852  -14.2660   26.6267 C   0  0  0  0  0  0  0  0  0  0  0  0
    9.5574  -14.8393   26.6817 C   0  0  2  0  0  0  0  0  0  0  0  0
    9.5461  -16.0995   25.8743 N   0  0  0  0  0  0  0  0  0  0  0  0
   10.0763  -15.2318   27.9763 C   0  0  0  0  0  0  0  0  0  0  0  0
   10.1021  -16.4352   28.3268 O   0  0  0  0  0  0  0  0  0  0  0  0
   10.5764  -14.3174   28.8838 O   0  0  0  0  0  0  0  0  0  0  0  0
  2  1  1  6
  3  4  1  0
  3  2  1  0
  4  8  1  0
  5  6  1  0
  5  4  2  0
  6  7  1  0
  7  8  2  0
  9  2  1  0
  9 11  1  0
 10  9  2  0
 11 12  1  0
 12 17  1  0
 13 14  1  0
 12 13  1  6
 15 16  2  0
 15 14  1  0
 17 18  2  0
 17 26  1  0
 19 15  1  0
 20 21  1  0
 21 23  1  0
 21 22  2  0
 23 24  1  0
 25 24  1  1
 25 27  1  0
 26 25  1  0
 27 28  2  0
 27 29  1  0
M  END
$$$$
