HEQ.pdb
     RDKit          3D

 29 29  0  0  1  0  0  0  0  0999 V2000
   11.5189  -14.4765   18.2859 N   0  0  0  0  0  0  0  0  0  0  0  0
   12.2922  -15.1517   19.3378 C   0  0  1  0  0  0  0  0  0  0  0  0
   13.2881  -14.1820   19.9303 C   0  0  0  0  0  0  0  0  0  0  0  0
   14.4739  -13.9889   19.1040 C   0  0  0  0  0  0  0  0  0  0  0  0
   14.7562  -14.6630   17.9373 C   0  0  0  0  0  0  0  0  0  0  0  0
   15.9219  -14.2167   17.4707 N   0  0  0  0  0  0  0  0  0  0  0  0
   16.3998  -13.2794   18.2957 C   0  0  0  0  0  0  0  0  0  0  0  0
   15.4903  -13.1494   19.3040 N   0  0  0  0  0  0  0  0  0  0  0  0
   11.3323  -15.4980   20.4273 C   0  0  0  0  0  0  0  0  0  0  0  0
   10.3505  -14.7470   20.6958 O   0  0  0  0  0  0  0  0  0  0  0  0
   11.4573  -16.6746   21.2207 N   0  0  0  0  0  0  0  0  0  0  0  0
   10.5289  -16.9515   22.2806 C   0  0  1  0  0  0  0  0  0  0  0  0
    9.9964  -18.3739   22.1939 C   0  0  0  0  0  0  0  0  0  0  0  0
   11.1687  -19.3263   22.0985 C   0  0  0  0  0  0  0  0  0  0  0  0
   10.6924  -20.7265   22.0133 C   0  0  0  0  0  0  0  0  0  0  0  0
   10.5185  -21.2435   20.9012 O   0  0  0  0  0  0  0  0  0  0  0  0
   11.1041  -16.6829   23.6239 C   0  0  0  0  0  0  0  0  0  0  0  0
   12.0257  -15.8327   23.7249 O   0  0  0  0  0  0  0  0  0  0  0  0
   10.4543  -21.4200   23.1761 O   0  0  0  0  0  0  0  0  0  0  0  0
    7.5601  -14.1051   26.9105 N   0  0  0  0  0  0  0  0  0  0  0  0
    8.8665  -13.5809   27.1970 C   0  0  0  0  0  0  0  0  0  0  0  0
    8.9861  -12.4264   27.7120 O   0  0  0  0  0  0  0  0  0  0  0  0
   10.0277  -14.4279   26.8799 C   0  0  0  0  0  0  0  0  0  0  0  0
    9.6596  -15.7380   26.2852 C   0  0  0  0  0  0  0  0  0  0  0  0
   10.8055  -16.6753   26.1342 C   0  0  2  0  0  0  0  0  0  0  0  0
   10.6683  -17.3347   24.7976 N   0  0  0  0  0  0  0  0  0  0  0  0
   10.9156  -17.7686   27.0786 C   0  0  0  0  0  0  0  0  0  0  0  0
   10.6390  -18.9448   26.7441 O   0  0  0  0  0  0  0  0  0  0  0  0
   11.3363  -17.5841   28.3820 O   0  0  0  0  0  0  0  0  0  0  0  0
  2  1  1  6
  3  4  1  0
  3  2  1  0
  4  8  1  0
  5  6  1  0
  5  4  2  0
  6  7  1  0
  7  8  2  0
  9  2  1  0
  9 11  1  0
 10  9  2  0
 11 12  1  0
 12 17  1  0
 13 14  1  0
 12 13  1  1
 15 16  2  0
 15 14  1  0
 17 18  2  0
 17 26  1  0
 19 15  1  0
 20 21  1  0
 21 23  1  0
 21 22  2  0
 23 24  1  0
 25 24  1  1
 25 27  1  0
 26 25  1  0
 27 28  2  0
 27 29  1  0
M  END
$$$$
