RKF.pdb
     RDKit          3D

 32 32  0  0  1  0  0  0  0  0999 V2000
   32.7114  -26.3832  -18.5128 N   0  0  0  0  0  0  0  0  0  0  0  0
   31.7184  -27.0285  -19.2822 C   0  0  0  0  0  0  0  0  0  0  0  0
   31.9590  -28.1584  -19.8608 N   0  0  0  0  0  0  0  0  0  0  0  0
   30.4177  -26.4580  -19.4473 N   0  0  0  0  0  0  0  0  0  0  0  0
   30.0498  -25.1926  -18.7865 C   0  0  0  0  0  0  0  0  0  0  0  0
   29.4779  -25.5573  -17.4652 C   0  0  0  0  0  0  0  0  0  0  0  0
   29.0026  -24.4521  -16.6015 C   0  0  0  0  0  0  0  0  0  0  0  0
   29.9909  -23.4154  -16.2155 C   0  0  2  0  0  0  0  0  0  0  0  0
   31.1484  -23.9116  -15.5398 N   0  0  0  0  0  0  0  0  0  0  0  0
   29.3173  -22.4462  -15.2949 C   0  0  0  0  0  0  0  0  0  0  0  0
   29.3700  -22.5950  -14.0280 O   0  0  0  0  0  0  0  0  0  0  0  0
   31.3006  -28.6558  -20.4660 N   0  0  0  0  0  0  0  0  0  0  0  0
   28.5977  -21.3286  -15.8118 C   0  0  2  0  0  0  0  0  0  0  0  0
   27.7968  -20.4404  -15.0315 C   0  0  0  0  0  0  0  0  0  0  0  0
   27.4138  -19.1869  -15.7037 C   0  0  0  0  0  0  0  0  0  0  0  0
   26.5032  -18.1983  -15.1615 C   0  0  0  0  0  0  0  0  0  0  0  0
   26.0383  -17.0263  -15.8906 C   0  0  0  0  0  0  0  0  0  0  0  0
   25.4832  -15.8724  -15.1433 N   0  0  0  0  0  0  0  0  0  0  0  0
   25.0091  -14.8312  -16.0589 C   0  0  0  0  0  0  0  0  0  0  0  0
   26.7455  -21.0283  -14.1954 O   0  0  0  0  0  0  0  0  0  0  0  0
   25.8949  -21.8116  -14.7389 N   0  0  0  0  0  0  0  0  0  0  0  0
   26.5757  -20.8003  -12.7980 C   0  0  2  0  0  0  0  0  0  0  0  0
   25.5848  -21.5578  -12.0629 C   0  0  0  0  0  0  0  0  0  0  0  0
   26.1431  -22.2199  -10.8458 C   0  0  0  0  0  0  0  0  0  0  0  0
   26.7892  -21.3204   -9.8839 C   0  0  0  0  0  0  0  0  0  0  0  0
   28.1682  -21.3047   -9.8226 C   0  0  0  0  0  0  0  0  0  0  0  0
   28.7848  -20.4806   -8.9367 C   0  0  0  0  0  0  0  0  0  0  0  0
   28.0841  -19.6560   -8.0932 C   0  0  0  0  0  0  0  0  0  0  0  0
   26.7099  -19.6688   -8.1512 C   0  0  0  0  0  0  0  0  0  0  0  0
   26.0527  -20.4888   -9.0339 C   0  0  0  0  0  0  0  0  0  0  0  0
   24.4824  -20.6342  -11.6840 O   0  0  0  0  0  0  0  0  0  0  0  0
   23.4320  -21.0649  -11.1735 O   0  0  0  0  0  0  0  0  0  0  0  0
  1  2  1  0
  2  3  2  0
  4  2  1  0
  4  5  1  0
  6  5  1  0
  7  8  1  0
  7  6  1  0
  8  9  1  1
 10  8  1  0
 11 10  2  0
 12 10  1  0
 13 19  1  0
 13 12  1  0
 14 15  1  0
 13 14  1  6
 15 16  1  0
 17 16  1  0
 17 18  1  0
 19 21  1  0
 20 19  2  0
 21 22  1  0
 22 30  1  0
 22 23  1  6
 24 23  1  0
 24 29  2  0
 25 24  1  0
 26 25  2  0
 26 27  1  0
 27 28  2  0
 28 29  1  0
 30 31  2  0
 30 32  1  0
M  END
$$$$
