RKF.pdb
     RDKit          3D

 32 32  0  0  1  0  0  0  0  0999 V2000
   26.1924  -16.1532  -20.1312 N   0  0  0  0  0  0  0  0  0  0  0  0
   26.4326  -17.4915  -19.7496 C   0  0  0  0  0  0  0  0  0  0  0  0
   26.1657  -18.4675  -20.5532 N   0  0  0  0  0  0  0  0  0  0  0  0
   26.9776  -17.8130  -18.4673 N   0  0  0  0  0  0  0  0  0  0  0  0
   27.4298  -19.1801  -18.1512 C   0  0  0  0  0  0  0  0  0  0  0  0
   26.2123  -19.9582  -17.8071 C   0  0  0  0  0  0  0  0  0  0  0  0
   25.9631  -20.2321  -16.3732 C   0  0  0  0  0  0  0  0  0  0  0  0
   26.7314  -21.3355  -15.7465 C   0  0  2  0  0  0  0  0  0  0  0  0
   26.8407  -22.5180  -16.5417 N   0  0  0  0  0  0  0  0  0  0  0  0
   26.0474  -21.7165  -14.4708 C   0  0  0  0  0  0  0  0  0  0  0  0
   24.9857  -22.4254  -14.4784 O   0  0  0  0  0  0  0  0  0  0  0  0
   26.2872  -19.4583  -20.3282 N   0  0  0  0  0  0  0  0  0  0  0  0
   26.5668  -21.2960  -13.2107 C   0  0  2  0  0  0  0  0  0  0  0  0
   25.8007  -21.1687  -12.0124 C   0  0  0  0  0  0  0  0  0  0  0  0
   26.5813  -20.8831  -10.7963 C   0  0  0  0  0  0  0  0  0  0  0  0
   26.0334  -20.8048   -9.4568 C   0  0  0  0  0  0  0  0  0  0  0  0
   26.8126  -20.4745   -8.2715 C   0  0  0  0  0  0  0  0  0  0  0  0
   26.1459  -20.4245   -6.9482 N   0  0  0  0  0  0  0  0  0  0  0  0
   27.1143  -20.1604   -5.8806 C   0  0  0  0  0  0  0  0  0  0  0  0
   24.5209  -20.4579  -12.0948 O   0  0  0  0  0  0  0  0  0  0  0  0
   24.5207  -19.1825  -12.0174 N   0  0  0  0  0  0  0  0  0  0  0  0
   23.2430  -21.0707  -12.2537 C   0  0  1  0  0  0  0  0  0  0  0  0
   22.0514  -20.2488  -12.2780 C   0  0  0  0  0  0  0  0  0  0  0  0
   22.0547  -19.2515  -13.3900 C   0  0  0  0  0  0  0  0  0  0  0  0
   22.1996  -19.8149  -14.7366 C   0  0  0  0  0  0  0  0  0  0  0  0
   21.2928  -20.7698  -15.1506 C   0  0  0  0  0  0  0  0  0  0  0  0
   21.4118  -21.3051  -16.3930 C   0  0  0  0  0  0  0  0  0  0  0  0
   22.4070  -20.9303  -17.2599 C   0  0  0  0  0  0  0  0  0  0  0  0
   23.3125  -19.9790  -16.8510 C   0  0  0  0  0  0  0  0  0  0  0  0
   23.2233  -19.4163  -15.6025 C   0  0  0  0  0  0  0  0  0  0  0  0
   20.8715  -21.1462  -12.3976 O   0  0  0  0  0  0  0  0  0  0  0  0
   19.7140  -20.6886  -12.3847 O   0  0  0  0  0  0  0  0  0  0  0  0
  1  2  1  0
  2  3  2  0
  4  2  1  0
  4  5  1  0
  6  5  1  0
  7  8  1  0
  7  6  1  0
  8  9  1  6
 10  8  1  0
 11 10  2  0
 12 10  1  0
 13 19  1  0
 13 12  1  0
 14 15  1  0
 13 14  1  6
 15 16  1  0
 17 16  1  0
 17 18  1  0
 19 21  1  0
 20 19  2  0
 21 22  1  0
 22 30  1  0
 22 23  1  1
 24 23  1  0
 24 29  2  0
 25 24  1  0
 26 25  2  0
 26 27  1  0
 27 28  2  0
 28 29  1  0
 30 31  2  0
 30 32  1  0
M  END
$$$$
