RKF.pdb
     RDKit          3D

 32 32  0  0  1  0  0  0  0  0999 V2000
   32.6100  -23.9749  -21.0835 N   0  0  0  0  0  0  0  0  0  0  0  0
   31.3193  -24.0087  -21.6557 C   0  0  0  0  0  0  0  0  0  0  0  0
   31.1187  -23.5930  -22.8625 N   0  0  0  0  0  0  0  0  0  0  0  0
   30.1940  -24.5021  -20.9243 N   0  0  0  0  0  0  0  0  0  0  0  0
   30.0674  -24.2743  -19.4734 C   0  0  0  0  0  0  0  0  0  0  0  0
   29.7037  -22.8446  -19.3009 C   0  0  0  0  0  0  0  0  0  0  0  0
   29.6241  -22.3255  -17.9161 C   0  0  0  0  0  0  0  0  0  0  0  0
   28.8063  -23.0943  -16.9461 C   0  0  2  0  0  0  0  0  0  0  0  0
   27.9703  -24.0970  -17.5275 N   0  0  0  0  0  0  0  0  0  0  0  0
   27.9152  -22.1347  -16.2211 C   0  0  0  0  0  0  0  0  0  0  0  0
   28.3766  -21.0522  -15.7259 O   0  0  0  0  0  0  0  0  0  0  0  0
   30.2155  -23.6110  -23.3432 N   0  0  0  0  0  0  0  0  0  0  0  0
   26.5238  -22.4065  -16.0653 C   0  0  1  0  0  0  0  0  0  0  0  0
   25.6101  -21.5945  -15.3271 C   0  0  0  0  0  0  0  0  0  0  0  0
   24.2645  -21.4722  -15.9139 C   0  0  0  0  0  0  0  0  0  0  0  0
   23.1612  -20.7457  -15.3178 C   0  0  0  0  0  0  0  0  0  0  0  0
   21.8488  -20.6007  -15.9326 C   0  0  0  0  0  0  0  0  0  0  0  0
   20.8210  -19.7597  -15.2736 N   0  0  0  0  0  0  0  0  0  0  0  0
   19.6199  -19.6481  -16.1054 C   0  0  0  0  0  0  0  0  0  0  0  0
   25.6286  -21.7053  -13.8652 O   0  0  0  0  0  0  0  0  0  0  0  0
   25.5733  -22.8672  -13.3367 N   0  0  0  0  0  0  0  0  0  0  0  0
   25.7008  -20.6110  -12.9536 C   0  0  1  0  0  0  0  0  0  0  0  0
   25.9134  -20.8645  -11.5441 C   0  0  0  0  0  0  0  0  0  0  0  0
   27.0664  -20.0988  -10.9823 C   0  0  0  0  0  0  0  0  0  0  0  0
   27.2160  -20.1711   -9.5248 C   0  0  0  0  0  0  0  0  0  0  0  0
   26.3845  -19.3981   -8.7396 C   0  0  0  0  0  0  0  0  0  0  0  0
   26.5093  -19.4495   -7.3883 C   0  0  0  0  0  0  0  0  0  0  0  0
   27.4379  -20.2467   -6.7682 C   0  0  0  0  0  0  0  0  0  0  0  0
   28.2684  -21.0184   -7.5473 C   0  0  0  0  0  0  0  0  0  0  0  0
   28.1709  -20.9921   -8.9159 C   0  0  0  0  0  0  0  0  0  0  0  0
   24.6637  -20.5168  -10.8167 O   0  0  0  0  0  0  0  0  0  0  0  0
   23.8805  -19.6579  -11.2621 O   0  0  0  0  0  0  0  0  0  0  0  0
  1  2  1  0
  2  3  2  0
  4  2  1  0
  4  5  1  0
  6  5  1  0
  7  8  1  0
  7  6  1  0
  8  9  1  6
 10  8  1  0
 11 10  2  0
 12 10  1  0
 13 19  1  0
 13 12  1  0
 14 15  1  0
 13 14  1  1
 15 16  1  0
 17 16  1  0
 17 18  1  0
 19 21  1  0
 20 19  2  0
 21 22  1  0
 22 30  1  0
 22 23  1  1
 24 23  1  0
 24 29  2  0
 25 24  1  0
 26 25  2  0
 26 27  1  0
 27 28  2  0
 28 29  1  0
 30 31  2  0
 30 32  1  0
M  END
$$$$
