RKF.pdb
     RDKit          3D

 32 32  0  0  1  0  0  0  0  0999 V2000
   24.5402  -25.2710  -16.4938 N   0  0  0  0  0  0  0  0  0  0  0  0
   24.9395  -26.6073  -16.2724 C   0  0  0  0  0  0  0  0  0  0  0  0
   24.0741  -27.5666  -16.2770 N   0  0  0  0  0  0  0  0  0  0  0  0
   26.3089  -26.9452  -16.0370 N   0  0  0  0  0  0  0  0  0  0  0  0
   27.3970  -26.0204  -16.4029 C   0  0  0  0  0  0  0  0  0  0  0  0
   27.8629  -26.4300  -17.7524 C   0  0  0  0  0  0  0  0  0  0  0  0
   28.7850  -25.5128  -18.4608 C   0  0  0  0  0  0  0  0  0  0  0  0
   29.8832  -24.9055  -17.6697 C   0  0  2  0  0  0  0  0  0  0  0  0
   30.4276  -25.7487  -16.6524 N   0  0  0  0  0  0  0  0  0  0  0  0
   29.3520  -23.6787  -16.9964 C   0  0  0  0  0  0  0  0  0  0  0  0
   29.6465  -23.4130  -15.7829 O   0  0  0  0  0  0  0  0  0  0  0  0
   24.2899  -28.5480  -16.0835 N   0  0  0  0  0  0  0  0  0  0  0  0
   28.5012  -22.7728  -17.6962 C   0  0  2  0  0  0  0  0  0  0  0  0
   27.9879  -21.5532  -17.1591 C   0  0  0  0  0  0  0  0  0  0  0  0
   27.4123  -20.6257  -18.1481 C   0  0  0  0  0  0  0  0  0  0  0  0
   26.8176  -19.3416  -17.8348 C   0  0  0  0  0  0  0  0  0  0  0  0
   26.2833  -18.4221  -18.8299 C   0  0  0  0  0  0  0  0  0  0  0  0
   25.7335  -17.1149  -18.3976 N   0  0  0  0  0  0  0  0  0  0  0  0
   26.8034  -16.2094  -17.9702 C   0  0  0  0  0  0  0  0  0  0  0  0
   27.2547  -21.6229  -15.8913 O   0  0  0  0  0  0  0  0  0  0  0  0
   26.3336  -22.4989  -15.7620 N   0  0  0  0  0  0  0  0  0  0  0  0
   27.4752  -20.7819  -14.7609 C   0  0  1  0  0  0  0  0  0  0  0  0
   26.6971  -20.9807  -13.5563 C   0  0  0  0  0  0  0  0  0  0  0  0
   27.3047  -20.3301  -12.3568 C   0  0  0  0  0  0  0  0  0  0  0  0
   26.5298  -20.4531  -11.1173 C   0  0  0  0  0  0  0  0  0  0  0  0
   25.6520  -19.4400  -10.7877 C   0  0  0  0  0  0  0  0  0  0  0  0
   24.9275  -19.5345   -9.6430 C   0  0  0  0  0  0  0  0  0  0  0  0
   25.0353  -20.6072   -8.7942 C   0  0  0  0  0  0  0  0  0  0  0  0
   25.9090  -21.6186   -9.1192 C   0  0  0  0  0  0  0  0  0  0  0  0
   26.6575  -21.5571  -10.2679 C   0  0  0  0  0  0  0  0  0  0  0  0
   25.3303  -20.4447  -13.7934 O   0  0  0  0  0  0  0  0  0  0  0  0
   25.1531  -19.4210  -14.4790 O   0  0  0  0  0  0  0  0  0  0  0  0
  1  2  1  0
  2  3  2  0
  4  2  1  0
  4  5  1  0
  6  5  1  0
  7  8  1  0
  7  6  1  0
  8  9  1  1
 10  8  1  0
 11 10  2  0
 12 10  1  0
 13 19  1  0
 13 12  1  0
 14 15  1  0
 13 14  1  6
 15 16  1  0
 17 16  1  0
 17 18  1  0
 19 21  1  0
 20 19  2  0
 21 22  1  0
 22 30  1  0
 22 23  1  6
 24 23  1  0
 24 29  2  0
 25 24  1  0
 26 25  2  0
 26 27  1  0
 27 28  2  0
 28 29  1  0
 30 31  2  0
 30 32  1  0
M  END
$$$$
