RKF.pdb
     RDKit          3D

 32 32  0  0  1  0  0  0  0  0999 V2000
   22.7342  -29.3759  -15.2012 N   0  0  0  0  0  0  0  0  0  0  0  0
   22.9423  -30.7619  -15.0279 C   0  0  0  0  0  0  0  0  0  0  0  0
   23.9181  -31.3646  -15.6228 N   0  0  0  0  0  0  0  0  0  0  0  0
   22.0855  -31.5440  -14.1920 N   0  0  0  0  0  0  0  0  0  0  0  0
   20.9856  -30.9223  -13.4323 C   0  0  0  0  0  0  0  0  0  0  0  0
   21.3838  -29.5119  -13.1911 C   0  0  0  0  0  0  0  0  0  0  0  0
   20.6800  -28.7817  -12.1119 C   0  0  0  0  0  0  0  0  0  0  0  0
   19.2008  -28.8861  -12.0707 C   0  0  2  0  0  0  0  0  0  0  0  0
   18.5519  -28.7208  -13.3332 N   0  0  0  0  0  0  0  0  0  0  0  0
   18.6816  -27.8191  -11.1583 C   0  0  0  0  0  0  0  0  0  0  0  0
   19.1427  -27.6812   -9.9757 O   0  0  0  0  0  0  0  0  0  0  0  0
   24.1462  -32.3560  -15.5115 N   0  0  0  0  0  0  0  0  0  0  0  0
   17.6557  -26.9267  -11.5888 C   0  0  1  0  0  0  0  0  0  0  0  0
   17.0360  -25.9366  -10.7673 C   0  0  0  0  0  0  0  0  0  0  0  0
   16.2238  -24.9418  -11.4887 C   0  0  0  0  0  0  0  0  0  0  0  0
   15.6261  -23.7653  -10.8895 C   0  0  0  0  0  0  0  0  0  0  0  0
   14.8235  -22.7929  -11.6187 C   0  0  0  0  0  0  0  0  0  0  0  0
   14.3335  -21.5792  -10.9224 N   0  0  0  0  0  0  0  0  0  0  0  0
   13.5899  -20.7108  -11.8388 C   0  0  0  0  0  0  0  0  0  0  0  0
   16.4694  -26.3716   -9.4868 O   0  0  0  0  0  0  0  0  0  0  0  0
   16.1202  -27.5934   -9.3533 N   0  0  0  0  0  0  0  0  0  0  0  0
   16.2624  -25.5384   -8.3481 C   0  0  1  0  0  0  0  0  0  0  0  0
   16.3655  -26.1022   -7.0186 C   0  0  0  0  0  0  0  0  0  0  0  0
   17.7257  -26.6422   -6.7191 C   0  0  0  0  0  0  0  0  0  0  0  0
   17.8789  -27.2554   -5.3954 C   0  0  0  0  0  0  0  0  0  0  0  0
   18.5294  -26.5395   -4.4106 C   0  0  0  0  0  0  0  0  0  0  0  0
   18.6833  -27.0912   -3.1794 C   0  0  0  0  0  0  0  0  0  0  0  0
   18.2132  -28.3435   -2.8738 C   0  0  0  0  0  0  0  0  0  0  0  0
   17.5645  -29.0600   -3.8524 C   0  0  0  0  0  0  0  0  0  0  0  0
   17.3906  -28.5344   -5.1081 C   0  0  0  0  0  0  0  0  0  0  0  0
   16.0063  -25.0442   -6.0371 O   0  0  0  0  0  0  0  0  0  0  0  0
   16.1927  -23.8407   -6.2948 O   0  0  0  0  0  0  0  0  0  0  0  0
  1  2  1  0
  2  3  2  0
  4  2  1  0
  4  5  1  0
  6  5  1  0
  7  8  1  0
  7  6  1  0
  8  9  1  6
 10  8  1  0
 11 10  2  0
 12 10  1  0
 13 19  1  0
 13 12  1  0
 14 15  1  0
 13 14  1  1
 15 16  1  0
 17 16  1  0
 17 18  1  0
 19 21  1  0
 20 19  2  0
 21 22  1  0
 22 30  1  0
 22 23  1  1
 24 23  1  0
 24 29  2  0
 25 24  1  0
 26 25  2  0
 26 27  1  0
 27 28  2  0
 28 29  1  0
 30 31  2  0
 30 32  1  0
M  END
$$$$
