RKF.pdb
     RDKit          3D

 32 32  0  0  1  0  0  0  0  0999 V2000
   26.4384  -17.7388  -18.4593 N   0  0  0  0  0  0  0  0  0  0  0  0
   26.6460  -17.8540  -19.8514 C   0  0  0  0  0  0  0  0  0  0  0  0
   26.7968  -16.8031  -20.5878 N   0  0  0  0  0  0  0  0  0  0  0  0
   26.6970  -19.1310  -20.4927 N   0  0  0  0  0  0  0  0  0  0  0  0
   27.0276  -20.3523  -19.7362 C   0  0  0  0  0  0  0  0  0  0  0  0
   27.0517  -19.9668  -18.3021 C   0  0  0  0  0  0  0  0  0  0  0  0
   26.2202  -20.7624  -17.3699 C   0  0  0  0  0  0  0  0  0  0  0  0
   26.8815  -21.8778  -16.6494 C   0  0  2  0  0  0  0  0  0  0  0  0
   26.9599  -23.1026  -17.3816 N   0  0  0  0  0  0  0  0  0  0  0  0
   26.1050  -22.1532  -15.3996 C   0  0  0  0  0  0  0  0  0  0  0  0
   25.1260  -22.9726  -15.3989 O   0  0  0  0  0  0  0  0  0  0  0  0
   26.9689  -16.8173  -21.5964 N   0  0  0  0  0  0  0  0  0  0  0  0
   26.4410  -21.5052  -14.1743 C   0  0  2  0  0  0  0  0  0  0  0  0
   25.5549  -21.3419  -13.0664 C   0  0  0  0  0  0  0  0  0  0  0  0
   26.2016  -20.9743  -11.7950 C   0  0  0  0  0  0  0  0  0  0  0  0
   25.5082  -20.7719  -10.5385 C   0  0  0  0  0  0  0  0  0  0  0  0
   26.1668  -20.4257   -9.2864 C   0  0  0  0  0  0  0  0  0  0  0  0
   25.3572  -20.2591   -8.0556 N   0  0  0  0  0  0  0  0  0  0  0  0
   26.2089  -19.9549   -6.9026 C   0  0  0  0  0  0  0  0  0  0  0  0
   24.2731  -20.6739  -13.3125 O   0  0  0  0  0  0  0  0  0  0  0  0
   24.2740  -19.5445  -13.9101 N   0  0  0  0  0  0  0  0  0  0  0  0
   22.9928  -21.1762  -12.9355 C   0  0  1  0  0  0  0  0  0  0  0  0
   21.7963  -20.4757  -13.3523 C   0  0  0  0  0  0  0  0  0  0  0  0
   21.6887  -20.3390  -14.8359 C   0  0  0  0  0  0  0  0  0  0  0  0
   20.4443  -19.7322  -15.3206 C   0  0  0  0  0  0  0  0  0  0  0  0
   19.3809  -20.5610  -15.6171 C   0  0  0  0  0  0  0  0  0  0  0  0
   18.2211  -20.0182  -16.0695 C   0  0  0  0  0  0  0  0  0  0  0  0
   18.0644  -18.6665  -16.2448 C   0  0  0  0  0  0  0  0  0  0  0  0
   19.1217  -17.8374  -15.9506 C   0  0  0  0  0  0  0  0  0  0  0  0
   20.3088  -18.3505  -15.4913 C   0  0  0  0  0  0  0  0  0  0  0  0
   20.6188  -21.2106  -12.8183 O   0  0  0  0  0  0  0  0  0  0  0  0
   19.5856  -20.6055  -12.4780 O   0  0  0  0  0  0  0  0  0  0  0  0
  1  2  1  0
  2  3  2  0
  4  2  1  0
  4  5  1  0
  6  5  1  0
  7  8  1  0
  7  6  1  0
  8  9  1  6
 10  8  1  0
 11 10  2  0
 12 10  1  0
 13 19  1  0
 13 12  1  0
 14 15  1  0
 13 14  1  1
 15 16  1  0
 17 16  1  0
 17 18  1  0
 19 21  1  0
 20 19  2  0
 21 22  1  0
 22 30  1  0
 22 23  1  1
 24 23  1  0
 24 29  2  0
 25 24  1  0
 26 25  2  0
 26 27  1  0
 27 28  2  0
 28 29  1  0
 30 31  2  0
 30 32  1  0
M  END
$$$$
