RKF.pdb
     RDKit          3D

 32 32  0  0  1  0  0  0  0  0999 V2000
   26.4605  -26.2303  -16.5015 N   0  0  0  0  0  0  0  0  0  0  0  0
   27.0315  -26.9794  -17.5536 C   0  0  0  0  0  0  0  0  0  0  0  0
   27.1544  -28.2624  -17.4625 N   0  0  0  0  0  0  0  0  0  0  0  0
   27.4913  -26.3485  -18.7516 N   0  0  0  0  0  0  0  0  0  0  0  0
   27.5225  -24.8801  -18.8773 C   0  0  0  0  0  0  0  0  0  0  0  0
   28.6128  -24.4036  -17.9883 C   0  0  0  0  0  0  0  0  0  0  0  0
   28.2672  -23.3762  -16.9791 C   0  0  0  0  0  0  0  0  0  0  0  0
   28.0527  -21.9905  -17.4631 C   0  0  2  0  0  0  0  0  0  0  0  0
   29.2484  -21.2366  -17.6743 N   0  0  0  0  0  0  0  0  0  0  0  0
   27.2377  -21.2592  -16.4425 C   0  0  0  0  0  0  0  0  0  0  0  0
   27.6820  -21.0625  -15.2619 O   0  0  0  0  0  0  0  0  0  0  0  0
   27.5967  -28.8576  -18.1677 N   0  0  0  0  0  0  0  0  0  0  0  0
   25.9405  -20.7618  -16.7648 C   0  0  2  0  0  0  0  0  0  0  0  0
   25.0830  -20.0673  -15.8583 C   0  0  0  0  0  0  0  0  0  0  0  0
   24.2924  -18.9764  -16.4539 C   0  0  0  0  0  0  0  0  0  0  0  0
   23.2726  -18.2153  -15.7604 C   0  0  0  0  0  0  0  0  0  0  0  0
   22.4658  -17.1728  -16.3798 C   0  0  0  0  0  0  0  0  0  0  0  0
   21.5574  -16.3550  -15.5406 N   0  0  0  0  0  0  0  0  0  0  0  0
   20.8357  -15.3706  -16.3513 C   0  0  0  0  0  0  0  0  0  0  0  0
   24.3658  -20.8614  -14.8558 O   0  0  0  0  0  0  0  0  0  0  0  0
   23.6578  -21.8503  -15.2475 N   0  0  0  0  0  0  0  0  0  0  0  0
   24.3809  -20.6267  -13.4493 C   0  0  1  0  0  0  0  0  0  0  0  0
   23.6049  -21.4775  -12.5717 C   0  0  0  0  0  0  0  0  0  0  0  0
   24.4227  -22.0905  -11.4824 C   0  0  0  0  0  0  0  0  0  0  0  0
   25.0676  -21.1385  -10.5716 C   0  0  0  0  0  0  0  0  0  0  0  0
   26.4025  -20.8449  -10.7652 C   0  0  0  0  0  0  0  0  0  0  0  0
   27.0180  -19.9678   -9.9308 C   0  0  0  0  0  0  0  0  0  0  0  0
   26.3586  -19.3570   -8.8942 C   0  0  0  0  0  0  0  0  0  0  0  0
   25.0284  -19.6470   -8.6981 C   0  0  0  0  0  0  0  0  0  0  0  0
   24.3737  -20.5285   -9.5214 C   0  0  0  0  0  0  0  0  0  0  0  0
   22.5044  -20.6634  -11.9906 O   0  0  0  0  0  0  0  0  0  0  0  0
   22.5365  -19.4197  -12.0313 O   0  0  0  0  0  0  0  0  0  0  0  0
  1  2  1  0
  2  3  2  0
  4  2  1  0
  4  5  1  0
  6  5  1  0
  7  8  1  0
  7  6  1  0
  8  9  1  1
 10  8  1  0
 11 10  2  0
 12 10  1  0
 13 19  1  0
 13 12  1  0
 14 15  1  0
 13 14  1  6
 15 16  1  0
 17 16  1  0
 17 18  1  0
 19 21  1  0
 20 19  2  0
 21 22  1  0
 22 30  1  0
 22 23  1  6
 24 23  1  0
 24 29  2  0
 25 24  1  0
 26 25  2  0
 26 27  1  0
 27 28  2  0
 28 29  1  0
 30 31  2  0
 30 32  1  0
M  END
$$$$
