RKF.pdb
     RDKit          3D

 32 32  0  0  1  0  0  0  0  0999 V2000
   45.2882  -14.2670   -7.7796 N   0  0  0  0  0  0  0  0  0  0  0  0
   46.4073  -14.0478   -6.9467 C   0  0  0  0  0  0  0  0  0  0  0  0
   46.8767  -14.9957   -6.2048 N   0  0  0  0  0  0  0  0  0  0  0  0
   47.0584  -12.7757   -6.8951 N   0  0  0  0  0  0  0  0  0  0  0  0
   46.4554  -11.5839   -7.5189 C   0  0  0  0  0  0  0  0  0  0  0  0
   45.4398  -11.0750   -6.5620 C   0  0  0  0  0  0  0  0  0  0  0  0
   44.6924   -9.8560   -6.9480 C   0  0  0  0  0  0  0  0  0  0  0  0
   43.8410   -9.9339   -8.1603 C   0  0  2  0  0  0  0  0  0  0  0  0
   44.5558  -10.1067   -9.3858 N   0  0  0  0  0  0  0  0  0  0  0  0
   43.0663   -8.6579   -8.2709 C   0  0  0  0  0  0  0  0  0  0  0  0
   42.3424   -8.2406   -7.3056 O   0  0  0  0  0  0  0  0  0  0  0  0
   47.6106  -14.8772   -5.5015 N   0  0  0  0  0  0  0  0  0  0  0  0
   43.1180   -7.8738   -9.4611 C   0  0  1  0  0  0  0  0  0  0  0  0
   42.4898   -6.6026   -9.6303 C   0  0  0  0  0  0  0  0  0  0  0  0
   43.1692   -5.6863  -10.5622 C   0  0  0  0  0  0  0  0  0  0  0  0
   42.7944   -4.3050  -10.7903 C   0  0  0  0  0  0  0  0  0  0  0  0
   43.4999   -3.4030  -11.6904 C   0  0  0  0  0  0  0  0  0  0  0  0
   43.0062   -2.0170  -11.8722 N   0  0  0  0  0  0  0  0  0  0  0  0
   43.9534   -1.2194  -12.6557 C   0  0  0  0  0  0  0  0  0  0  0  0
   41.0258   -6.5713   -9.7051 O   0  0  0  0  0  0  0  0  0  0  0  0
   40.4574   -6.9618  -10.7808 N   0  0  0  0  0  0  0  0  0  0  0  0
   40.1536   -6.1318   -8.6659 C   0  0  1  0  0  0  0  0  0  0  0  0
   38.7323   -6.0246   -8.9198 C   0  0  0  0  0  0  0  0  0  0  0  0
   37.9200   -6.9625   -8.0881 C   0  0  0  0  0  0  0  0  0  0  0  0
   38.2843   -8.3787   -8.2040 C   0  0  0  0  0  0  0  0  0  0  0  0
   38.7727   -9.0253   -7.0864 C   0  0  0  0  0  0  0  0  0  0  0  0
   39.1177  -10.3358   -7.1744 C   0  0  0  0  0  0  0  0  0  0  0  0
   38.9986  -11.0479   -8.3411 C   0  0  0  0  0  0  0  0  0  0  0  0
   38.5124  -10.4071   -9.4568 C   0  0  0  0  0  0  0  0  0  0  0  0
   38.1537   -9.0835   -9.4052 C   0  0  0  0  0  0  0  0  0  0  0  0
   38.3195   -4.6197   -8.6598 O   0  0  0  0  0  0  0  0  0  0  0  0
   39.1233   -3.7909   -8.1948 O   0  0  0  0  0  0  0  0  0  0  0  0
  1  2  1  0
  2  3  2  0
  4  2  1  0
  4  5  1  0
  6  5  1  0
  7  8  1  0
  7  6  1  0
  8  9  1  6
 10  8  1  0
 11 10  2  0
 12 10  1  0
 13 19  1  0
 13 12  1  0
 14 15  1  0
 13 14  1  1
 15 16  1  0
 17 16  1  0
 17 18  1  0
 19 21  1  0
 20 19  2  0
 21 22  1  0
 22 30  1  0
 22 23  1  6
 24 23  1  0
 24 29  2  0
 25 24  1  0
 26 25  2  0
 26 27  1  0
 27 28  2  0
 28 29  1  0
 30 31  2  0
 30 32  1  0
M  END
$$$$
