RKF.pdb
     RDKit          3D

 32 32  0  0  1  0  0  0  0  0999 V2000
   30.5067  -23.4199  -17.6868 N   0  0  0  0  0  0  0  0  0  0  0  0
   29.3771  -23.0190  -18.4335 C   0  0  0  0  0  0  0  0  0  0  0  0
   28.8435  -23.8107  -19.3040 N   0  0  0  0  0  0  0  0  0  0  0  0
   28.7860  -21.7294  -18.2538 N   0  0  0  0  0  0  0  0  0  0  0  0
   29.3058  -20.7851  -17.2482 C   0  0  0  0  0  0  0  0  0  0  0  0
   28.9925  -21.3691  -15.9191 C   0  0  0  0  0  0  0  0  0  0  0  0
   28.2175  -20.5325  -14.9742 C   0  0  0  0  0  0  0  0  0  0  0  0
   26.7608  -20.7927  -14.8705 C   0  0  2  0  0  0  0  0  0  0  0  0
   25.9835  -20.2993  -15.9636 N   0  0  0  0  0  0  0  0  0  0  0  0
   26.2544  -20.1304  -13.6273 C   0  0  0  0  0  0  0  0  0  0  0  0
   25.5936  -19.0394  -13.6840 O   0  0  0  0  0  0  0  0  0  0  0  0
   28.0316  -23.5795  -19.8825 N   0  0  0  0  0  0  0  0  0  0  0  0
   26.4980  -20.7036  -12.3442 C   0  0  2  0  0  0  0  0  0  0  0  0
   25.5530  -20.7437  -11.2743 C   0  0  0  0  0  0  0  0  0  0  0  0
   24.1643  -21.0287  -11.6743 C   0  0  0  0  0  0  0  0  0  0  0  0
   22.9910  -20.3844  -11.1187 C   0  0  0  0  0  0  0  0  0  0  0  0
   21.6222  -20.7120  -11.4935 C   0  0  0  0  0  0  0  0  0  0  0  0
   20.4992  -19.9399  -10.9098 N   0  0  0  0  0  0  0  0  0  0  0  0
   19.2134  -20.3944  -11.4458 C   0  0  0  0  0  0  0  0  0  0  0  0
   25.9690  -21.3835  -10.0222 O   0  0  0  0  0  0  0  0  0  0  0  0
   26.8912  -22.2670  -10.0610 N   0  0  0  0  0  0  0  0  0  0  0  0
   25.4258  -21.1087   -8.7326 C   0  0  1  0  0  0  0  0  0  0  0  0
   26.3018  -21.0589   -7.5811 C   0  0  0  0  0  0  0  0  0  0  0  0
   27.4070  -20.0655   -7.7328 C   0  0  0  0  0  0  0  0  0  0  0  0
   28.2930  -19.9315   -6.5714 C   0  0  0  0  0  0  0  0  0  0  0  0
   28.1410  -18.8309   -5.7523 C   0  0  0  0  0  0  0  0  0  0  0  0
   28.9534  -18.6879   -4.6735 C   0  0  0  0  0  0  0  0  0  0  0  0
   29.9277  -19.6030   -4.3638 C   0  0  0  0  0  0  0  0  0  0  0  0
   30.0823  -20.7010   -5.1777 C   0  0  0  0  0  0  0  0  0  0  0  0
   29.2795  -20.8784   -6.2765 C   0  0  0  0  0  0  0  0  0  0  0  0
   25.4789  -20.7319   -6.3862 O   0  0  0  0  0  0  0  0  0  0  0  0
   24.5029  -19.9640   -6.4706 O   0  0  0  0  0  0  0  0  0  0  0  0
  1  2  1  0
  2  3  2  0
  4  2  1  0
  4  5  1  0
  6  5  1  0
  7  8  1  0
  7  6  1  0
  8  9  1  6
 10  8  1  0
 11 10  2  0
 12 10  1  0
 13 19  1  0
 13 12  1  0
 14 15  1  0
 13 14  1  6
 15 16  1  0
 17 16  1  0
 17 18  1  0
 19 21  1  0
 20 19  2  0
 21 22  1  0
 22 30  1  0
 22 23  1  1
 24 23  1  0
 24 29  2  0
 25 24  1  0
 26 25  2  0
 26 27  1  0
 27 28  2  0
 28 29  1  0
 30 31  2  0
 30 32  1  0
M  END
$$$$
