RKF.pdb
     RDKit          3D

 32 32  0  0  1  0  0  0  0  0999 V2000
   30.3546  -23.3151  -17.9935 N   0  0  0  0  0  0  0  0  0  0  0  0
   30.6062  -22.5262  -19.1374 C   0  0  0  0  0  0  0  0  0  0  0  0
   31.2405  -23.0139  -20.1519 N   0  0  0  0  0  0  0  0  0  0  0  0
   30.1698  -21.1667  -19.2141 N   0  0  0  0  0  0  0  0  0  0  0  0
   29.3424  -20.5695  -18.1501 C   0  0  0  0  0  0  0  0  0  0  0  0
   27.9282  -20.8449  -18.5107 C   0  0  0  0  0  0  0  0  0  0  0  0
   26.9770  -21.0816  -17.4005 C   0  0  0  0  0  0  0  0  0  0  0  0
   27.4335  -21.9461  -16.2847 C   0  0  2  0  0  0  0  0  0  0  0  0
   27.7324  -23.2941  -16.6533 N   0  0  0  0  0  0  0  0  0  0  0  0
   26.3475  -21.9944  -15.2556 C   0  0  0  0  0  0  0  0  0  0  0  0
   25.2677  -22.6420  -15.4668 O   0  0  0  0  0  0  0  0  0  0  0  0
   31.4438  -22.5015  -21.0141 N   0  0  0  0  0  0  0  0  0  0  0  0
   26.4927  -21.3163  -14.0094 C   0  0  1  0  0  0  0  0  0  0  0  0
   25.4808  -21.2249  -13.0059 C   0  0  0  0  0  0  0  0  0  0  0  0
   25.9739  -20.9958  -11.6370 C   0  0  0  0  0  0  0  0  0  0  0  0
   25.1341  -20.8565  -10.4640 C   0  0  0  0  0  0  0  0  0  0  0  0
   25.6392  -20.6161   -9.1192 C   0  0  0  0  0  0  0  0  0  0  0  0
   24.6835  -20.4247   -8.0021 N   0  0  0  0  0  0  0  0  0  0  0  0
   25.3748  -19.9834   -6.7878 C   0  0  0  0  0  0  0  0  0  0  0  0
   24.2538  -20.4953  -13.3408 O   0  0  0  0  0  0  0  0  0  0  0  0
   24.3534  -19.3339  -13.8639 N   0  0  0  0  0  0  0  0  0  0  0  0
   22.9256  -20.9696  -13.1294 C   0  0  1  0  0  0  0  0  0  0  0  0
   21.8319  -20.4024  -13.8898 C   0  0  0  0  0  0  0  0  0  0  0  0
   22.0306  -20.5125  -15.3662 C   0  0  0  0  0  0  0  0  0  0  0  0
   20.9371  -19.9813  -16.1870 C   0  0  0  0  0  0  0  0  0  0  0  0
   20.0208  -20.8686  -16.7151 C   0  0  0  0  0  0  0  0  0  0  0  0
   19.0027  -20.3963  -17.4796 C   0  0  0  0  0  0  0  0  0  0  0  0
   18.8483  -19.0600  -17.7497 C   0  0  0  0  0  0  0  0  0  0  0  0
   19.7592  -18.1728  -17.2253 C   0  0  0  0  0  0  0  0  0  0  0  0
   20.8009  -18.6139  -16.4483 C   0  0  0  0  0  0  0  0  0  0  0  0
   20.5791  -21.0956  -13.4879 O   0  0  0  0  0  0  0  0  0  0  0  0
   20.5578  -22.3268  -13.3053 O   0  0  0  0  0  0  0  0  0  0  0  0
  1  2  1  0
  2  3  2  0
  4  2  1  0
  4  5  1  0
  6  5  1  0
  7  8  1  0
  7  6  1  0
  8  9  1  6
 10  8  1  0
 11 10  2  0
 12 10  1  0
 13 19  1  0
 13 12  1  0
 14 15  1  0
 13 14  1  1
 15 16  1  0
 17 16  1  0
 17 18  1  0
 19 21  1  0
 20 19  2  0
 21 22  1  0
 22 30  1  0
 22 23  1  1
 24 23  1  0
 24 29  2  0
 25 24  1  0
 26 25  2  0
 26 27  1  0
 27 28  2  0
 28 29  1  0
 30 31  2  0
 30 32  1  0
M  END
$$$$
