RKF.pdb
     RDKit          3D

 32 32  0  0  1  0  0  0  0  0999 V2000
   29.4692  -31.4335  -16.4834 N   0  0  0  0  0  0  0  0  0  0  0  0
   28.2871  -31.9780  -17.0316 C   0  0  0  0  0  0  0  0  0  0  0  0
   27.8675  -33.1461  -16.6727 N   0  0  0  0  0  0  0  0  0  0  0  0
   27.5158  -31.2598  -17.9980 N   0  0  0  0  0  0  0  0  0  0  0  0
   27.6963  -29.8099  -18.1938 C   0  0  0  0  0  0  0  0  0  0  0  0
   27.1599  -29.1496  -16.9764 C   0  0  0  0  0  0  0  0  0  0  0  0
   26.3920  -27.8973  -17.1644 C   0  0  0  0  0  0  0  0  0  0  0  0
   27.1648  -26.6395  -17.3105 C   0  0  2  0  0  0  0  0  0  0  0  0
   28.3746  -26.5866  -16.5516 N   0  0  0  0  0  0  0  0  0  0  0  0
   26.3017  -25.5043  -16.8553 C   0  0  0  0  0  0  0  0  0  0  0  0
   26.2647  -25.1556  -15.6277 O   0  0  0  0  0  0  0  0  0  0  0  0
   27.0670  -33.6311  -17.0866 N   0  0  0  0  0  0  0  0  0  0  0  0
   25.4970  -24.7814  -17.7847 C   0  0  1  0  0  0  0  0  0  0  0  0
   24.6668  -23.6677  -17.4538 C   0  0  0  0  0  0  0  0  0  0  0  0
   24.4515  -22.7001  -18.5434 C   0  0  0  0  0  0  0  0  0  0  0  0
   23.7357  -21.4468  -18.4120 C   0  0  0  0  0  0  0  0  0  0  0  0
   23.9103  -20.5162  -17.3052 C   0  0  0  0  0  0  0  0  0  0  0  0
   23.0170  -19.3384  -17.1919 N   0  0  0  0  0  0  0  0  0  0  0  0
   23.2560  -18.6152  -15.9400 C   0  0  0  0  0  0  0  0  0  0  0  0
   23.4851  -23.9222  -16.6238 O   0  0  0  0  0  0  0  0  0  0  0  0
   22.7422  -24.9233  -16.9037 N   0  0  0  0  0  0  0  0  0  0  0  0
   23.0737  -23.1363  -15.5071 C   0  0  1  0  0  0  0  0  0  0  0  0
   21.9032  -23.5249  -14.7489 C   0  0  0  0  0  0  0  0  0  0  0  0
   22.1740  -23.6546  -13.2857 C   0  0  0  0  0  0  0  0  0  0  0  0
   20.9975  -23.9249  -12.4522 C   0  0  0  0  0  0  0  0  0  0  0  0
   20.3573  -22.8585  -11.8534 C   0  0  0  0  0  0  0  0  0  0  0  0
   19.2678  -23.0886  -11.0761 C   0  0  0  0  0  0  0  0  0  0  0  0
   18.7746  -24.3508  -10.8612 C   0  0  0  0  0  0  0  0  0  0  0  0
   19.4098  -25.4159  -11.4562 C   0  0  0  0  0  0  0  0  0  0  0  0
   20.5135  -25.2213  -12.2482 C   0  0  0  0  0  0  0  0  0  0  0  0
   20.8401  -22.5123  -14.9858 O   0  0  0  0  0  0  0  0  0  0  0  0
   19.6395  -22.7900  -14.8102 O   0  0  0  0  0  0  0  0  0  0  0  0
  1  2  1  0
  2  3  2  0
  4  2  1  0
  4  5  1  0
  6  5  1  0
  7  8  1  0
  7  6  1  0
  8  9  1  1
 10  8  1  0
 11 10  2  0
 12 10  1  0
 13 19  1  0
 13 12  1  0
 14 15  1  0
 13 14  1  6
 15 16  1  0
 17 16  1  0
 17 18  1  0
 19 21  1  0
 20 19  2  0
 21 22  1  0
 22 30  1  0
 22 23  1  6
 24 23  1  0
 24 29  2  0
 25 24  1  0
 26 25  2  0
 26 27  1  0
 27 28  2  0
 28 29  1  0
 30 31  2  0
 30 32  1  0
M  END
$$$$
