YNW.pdb
     RDKit          3D

 35 37  0  0  1  0  0  0  0  0999 V2000
   27.4223  -20.2167   -6.3097 O   0  0  0  0  0  0  0  0  0  0  0  0
   26.8067  -20.6705   -7.4721 C   0  0  0  0  0  0  0  0  0  0  0  0
   27.6131  -21.1968   -8.4893 C   0  0  0  0  0  0  0  0  0  0  0  0
   27.0374  -21.6560   -9.6558 C   0  0  0  0  0  0  0  0  0  0  0  0
   25.6772  -21.5949   -9.8142 C   0  0  0  0  0  0  0  0  0  0  0  0
   25.0608  -22.0863  -11.0599 C   0  0  0  0  0  0  0  0  0  0  0  0
   25.0133  -20.9415  -12.0787 C   0  0  2  0  0  0  0  0  0  0  0  0
   24.5658  -19.7343  -11.4650 N   0  0  0  0  0  0  0  0  0  0  0  0
   24.0889  -21.3520  -13.1931 C   0  0  0  0  0  0  0  0  0  0  0  0
   22.8837  -21.5287  -12.9523 O   0  0  0  0  0  0  0  0  0  0  0  0
   24.8955  -21.0744   -8.8052 C   0  0  0  0  0  0  0  0  0  0  0  0
   25.4468  -20.6077   -7.6266 C   0  0  0  0  0  0  0  0  0  0  0  0
   24.2111  -17.3977  -16.1405 N   0  0  0  0  0  0  0  0  0  0  0  0
   23.8413  -18.1151  -14.9360 C   0  0  0  0  0  0  0  0  0  0  0  0
   22.8087  -17.7365  -14.4008 O   0  0  0  0  0  0  0  0  0  0  0  0
   24.7065  -19.1647  -14.5137 C   0  0  0  0  0  0  0  0  0  0  0  0
   24.9986  -20.3522  -15.3415 C   0  0  2  0  0  0  0  0  0  0  0  0
   24.6118  -21.5287  -14.4953 N   0  0  0  0  0  0  0  0  0  0  0  0
   26.3566  -20.5601  -15.8349 C   0  0  0  0  0  0  0  0  0  0  0  0
   26.9027  -19.6444  -16.5711 O   0  0  0  0  0  0  0  0  0  0  0  0
   27.1880  -21.6604  -15.6057 N   0  0  0  0  0  0  0  0  0  0  0  0
   28.5372  -21.7450  -16.2187 C   0  0  1  0  0  0  0  0  0  0  0  0
   29.4091  -22.1913  -15.0833 C   0  0  0  0  0  0  0  0  0  0  0  0
   29.7034  -21.1115  -14.1327 C   0  0  0  0  0  0  0  0  0  0  0  0
   29.1360  -19.8232  -14.1318 C   0  0  0  0  0  0  0  0  0  0  0  0
   29.6674  -19.0999  -13.1374 N   0  0  0  0  0  0  0  0  0  0  0  0
   30.5747  -19.8321  -12.4528 C   0  0  0  0  0  0  0  0  0  0  0  0
   31.3525  -19.5249  -11.3559 C   0  0  0  0  0  0  0  0  0  0  0  0
   32.1792  -20.5046  -10.8612 C   0  0  0  0  0  0  0  0  0  0  0  0
   32.2077  -21.7448  -11.4642 C   0  0  0  0  0  0  0  0  0  0  0  0
   31.4290  -22.0355  -12.5552 C   0  0  0  0  0  0  0  0  0  0  0  0
   30.5900  -21.0763  -13.0762 C   0  0  0  0  0  0  0  0  0  0  0  0
   28.5252  -22.6606  -17.3617 C   0  0  0  0  0  0  0  0  0  0  0  0
   27.4162  -23.1897  -17.7067 O   0  0  0  0  0  0  0  0  0  0  0  0
   29.6239  -23.0059  -18.1188 O   0  0  0  0  0  0  0  0  0  0  0  0
  2  1  1  0
  3  2  2  0
  4  3  1  0
  5 11  1  0
  5  4  2  0
  6  5  1  0
  7  8  1  1
  7  6  1  0
  9  7  1  0
 10  9  2  0
 11 12  2  0
 12  2  1  0
 13 14  1  0
 14 15  2  0
 14 16  1  0
 17 16  1  1
 17 19  1  0
 17 18  1  0
 18  9  1  0
 19 21  1  0
 20 19  2  0
 21 22  1  0
 22 23  1  1
 22 33  1  0
 24 23  1  0
 25 24  2  0
 26 27  1  0
 26 25  1  0
 27 32  2  0
 28 27  1  0
 28 29  2  0
 29 30  1  0
 30 31  2  0
 32 24  1  0
 32 31  1  0
 33 34  2  0
 33 35  1  0
M  END
$$$$
