YNW.pdb
     RDKit          3D

 35 37  0  0  1  0  0  0  0  0999 V2000
   31.2893  -23.1863  -18.4260 O   0  0  0  0  0  0  0  0  0  0  0  0
   30.5614  -22.5341  -17.4355 C   0  0  0  0  0  0  0  0  0  0  0  0
   30.3507  -21.1554  -17.5646 C   0  0  0  0  0  0  0  0  0  0  0  0
   29.6338  -20.4758  -16.6017 C   0  0  0  0  0  0  0  0  0  0  0  0
   29.1305  -21.1537  -15.5219 C   0  0  0  0  0  0  0  0  0  0  0  0
   28.3633  -20.4286  -14.4929 C   0  0  0  0  0  0  0  0  0  0  0  0
   26.8909  -20.8471  -14.5806 C   0  0  2  0  0  0  0  0  0  0  0  0
   26.3212  -20.4414  -15.8235 N   0  0  0  0  0  0  0  0  0  0  0  0
   26.1614  -20.2176  -13.4245 C   0  0  0  0  0  0  0  0  0  0  0  0
   26.0365  -18.9830  -13.3814 O   0  0  0  0  0  0  0  0  0  0  0  0
   29.3454  -22.5103  -15.4073 C   0  0  0  0  0  0  0  0  0  0  0  0
   30.0599  -23.2153  -16.3577 C   0  0  0  0  0  0  0  0  0  0  0  0
   22.4838  -20.1778  -13.9159 N   0  0  0  0  0  0  0  0  0  0  0  0
   22.6691  -19.8020  -12.5279 C   0  0  0  0  0  0  0  0  0  0  0  0
   22.1715  -18.7316  -12.2073 O   0  0  0  0  0  0  0  0  0  0  0  0
   23.3988  -20.7047  -11.7024 C   0  0  0  0  0  0  0  0  0  0  0  0
   24.8003  -20.4750  -11.2975 C   0  0  2  0  0  0  0  0  0  0  0  0
   25.6311  -21.0460  -12.4082 N   0  0  0  0  0  0  0  0  0  0  0  0
   25.2752  -21.0243  -10.0313 C   0  0  0  0  0  0  0  0  0  0  0  0
   25.8930  -22.1633  -10.0350 O   0  0  0  0  0  0  0  0  0  0  0  0
   25.1539  -20.4602   -8.7580 N   0  0  0  0  0  0  0  0  0  0  0  0
   24.9932  -21.3111   -7.5525 C   0  0  1  0  0  0  0  0  0  0  0  0
   25.3071  -20.3776   -6.4218 C   0  0  0  0  0  0  0  0  0  0  0  0
   26.6424  -19.7769   -6.5331 C   0  0  0  0  0  0  0  0  0  0  0  0
   27.0485  -18.8153   -7.4776 C   0  0  0  0  0  0  0  0  0  0  0  0
   28.3436  -18.5263   -7.2948 N   0  0  0  0  0  0  0  0  0  0  0  0
   28.8478  -19.2448   -6.2665 C   0  0  0  0  0  0  0  0  0  0  0  0
   30.1077  -19.2721   -5.7056 C   0  0  0  0  0  0  0  0  0  0  0  0
   30.3141  -20.1054   -4.6328 C   0  0  0  0  0  0  0  0  0  0  0  0
   29.2751  -20.8770   -4.1556 C   0  0  0  0  0  0  0  0  0  0  0  0
   28.0275  -20.8399   -4.7243 C   0  0  0  0  0  0  0  0  0  0  0  0
   27.7871  -20.0161   -5.8010 C   0  0  0  0  0  0  0  0  0  0  0  0
   23.6452  -21.8816   -7.5028 C   0  0  0  0  0  0  0  0  0  0  0  0
   22.7476  -21.3908   -8.2659 O   0  0  0  0  0  0  0  0  0  0  0  0
   23.2503  -22.9260   -6.6950 O   0  0  0  0  0  0  0  0  0  0  0  0
  2  1  1  0
  3  2  2  0
  4  3  1  0
  5 11  1  0
  5  4  2  0
  6  5  1  0
  7  8  1  6
  7  6  1  0
  9  7  1  0
 10  9  2  0
 11 12  2  0
 12  2  1  0
 13 14  1  0
 14 15  2  0
 14 16  1  0
 17 16  1  6
 17 19  1  0
 17 18  1  0
 18  9  1  0
 19 21  1  0
 20 19  2  0
 21 22  1  0
 22 23  1  1
 22 33  1  0
 24 23  1  0
 25 24  2  0
 26 27  1  0
 26 25  1  0
 27 32  2  0
 28 27  1  0
 28 29  2  0
 29 30  1  0
 30 31  2  0
 32 24  1  0
 32 31  1  0
 33 34  2  0
 33 35  1  0
M  END
$$$$
