YNW.pdb
     RDKit          3D

 35 37  0  0  1  0  0  0  0  0999 V2000
   18.9529  -17.2773  -15.8882 O   0  0  0  0  0  0  0  0  0  0  0  0
   19.9492  -17.9944  -15.2330 C   0  0  0  0  0  0  0  0  0  0  0  0
   19.7503  -19.3643  -15.0186 C   0  0  0  0  0  0  0  0  0  0  0  0
   20.7165  -20.1070  -14.3721 C   0  0  0  0  0  0  0  0  0  0  0  0
   21.8678  -19.5002  -13.9420 C   0  0  0  0  0  0  0  0  0  0  0  0
   22.9014  -20.2932  -13.2521 C   0  0  0  0  0  0  0  0  0  0  0  0
   24.0495  -20.5744  -14.2286 C   0  0  2  0  0  0  0  0  0  0  0  0
   23.6220  -21.4396  -15.2787 N   0  0  0  0  0  0  0  0  0  0  0  0
   25.1786  -21.1930  -13.4493 C   0  0  0  0  0  0  0  0  0  0  0  0
   25.2421  -22.4285  -13.3437 O   0  0  0  0  0  0  0  0  0  0  0  0
   22.0505  -18.1515  -14.1595 C   0  0  0  0  0  0  0  0  0  0  0  0
   21.0987  -17.3843  -14.8046 C   0  0  0  0  0  0  0  0  0  0  0  0
   30.2432  -21.9248  -11.6370 N   0  0  0  0  0  0  0  0  0  0  0  0
   29.6961  -20.5839  -11.7051 C   0  0  0  0  0  0  0  0  0  0  0  0
   30.3544  -19.7234  -11.1375 O   0  0  0  0  0  0  0  0  0  0  0  0
   28.4715  -20.4172  -12.4133 C   0  0  0  0  0  0  0  0  0  0  0  0
   27.1731  -20.9044  -11.9059 C   0  0  2  0  0  0  0  0  0  0  0  0
   26.1474  -20.3535  -12.8516 N   0  0  0  0  0  0  0  0  0  0  0  0
   26.7724  -20.5750  -10.5415 C   0  0  0  0  0  0  0  0  0  0  0  0
   26.1134  -19.4798  -10.3292 O   0  0  0  0  0  0  0  0  0  0  0  0
   27.0087  -21.3173   -9.3806 N   0  0  0  0  0  0  0  0  0  0  0  0
   26.1448  -21.1668   -8.1830 C   0  0  1  0  0  0  0  0  0  0  0  0
   26.2688  -19.7115   -7.8437 C   0  0  0  0  0  0  0  0  0  0  0  0
   27.4676  -19.4117   -7.0504 C   0  0  0  0  0  0  0  0  0  0  0  0
   28.4634  -18.4686   -7.3674 C   0  0  0  0  0  0  0  0  0  0  0  0
   29.4194  -18.4933   -6.4294 N   0  0  0  0  0  0  0  0  0  0  0  0
   29.1266  -19.4104   -5.4801 C   0  0  0  0  0  0  0  0  0  0  0  0
   29.7931  -19.7744   -4.3286 C   0  0  0  0  0  0  0  0  0  0  0  0
   29.2234  -20.7417   -3.5364 C   0  0  0  0  0  0  0  0  0  0  0  0
   28.0234  -21.3114   -3.9078 C   0  0  0  0  0  0  0  0  0  0  0  0
   27.3725  -20.9399   -5.0565 C   0  0  0  0  0  0  0  0  0  0  0  0
   27.9161  -19.9738   -5.8730 C   0  0  0  0  0  0  0  0  0  0  0  0
   24.7773  -21.5994   -8.4789 C   0  0  0  0  0  0  0  0  0  0  0  0
   24.3948  -21.6197   -9.6963 O   0  0  0  0  0  0  0  0  0  0  0  0
   23.8477  -22.0009   -7.5440 O   0  0  0  0  0  0  0  0  0  0  0  0
  2  1  1  0
  3  2  2  0
  4  3  1  0
  5 11  1  0
  5  4  2  0
  6  5  1  0
  7  8  1  6
  7  6  1  0
  9  7  1  0
 10  9  2  0
 11 12  2  0
 12  2  1  0
 13 14  1  0
 14 15  2  0
 14 16  1  0
 17 16  1  6
 17 19  1  0
 17 18  1  0
 18  9  1  0
 19 21  1  0
 20 19  2  0
 21 22  1  0
 22 23  1  6
 22 33  1  0
 24 23  1  0
 25 24  2  0
 26 27  1  0
 26 25  1  0
 27 32  2  0
 28 27  1  0
 28 29  2  0
 29 30  1  0
 30 31  2  0
 32 24  1  0
 32 31  1  0
 33 34  2  0
 33 35  1  0
M  END
$$$$
