YNW.pdb
     RDKit          3D

 35 37  0  0  1  0  0  0  0  0999 V2000
   19.1606  -14.5259  -16.4453 O   0  0  0  0  0  0  0  0  0  0  0  0
   19.7736  -15.5499  -15.7299 C   0  0  0  0  0  0  0  0  0  0  0  0
   21.0476  -15.3174  -15.1960 C   0  0  0  0  0  0  0  0  0  0  0  0
   21.6858  -16.3098  -14.4813 C   0  0  0  0  0  0  0  0  0  0  0  0
   21.0695  -17.5202  -14.2968 C   0  0  0  0  0  0  0  0  0  0  0  0
   21.7502  -18.5810  -13.5322 C   0  0  0  0  0  0  0  0  0  0  0  0
   22.9123  -19.1311  -14.3675 C   0  0  2  0  0  0  0  0  0  0  0  0
   22.4328  -19.7413  -15.5640 N   0  0  0  0  0  0  0  0  0  0  0  0
   23.6609  -20.1247  -13.5207 C   0  0  0  0  0  0  0  0  0  0  0  0
   23.0976  -21.1740  -13.1696 O   0  0  0  0  0  0  0  0  0  0  0  0
   19.8159  -17.7355  -14.8276 C   0  0  0  0  0  0  0  0  0  0  0  0
   19.1544  -16.7583  -15.5475 C   0  0  0  0  0  0  0  0  0  0  0  0
   27.5441  -23.1099  -11.3950 N   0  0  0  0  0  0  0  0  0  0  0  0
   27.9346  -21.8601  -12.0175 C   0  0  0  0  0  0  0  0  0  0  0  0
   29.1077  -21.5479  -11.8676 O   0  0  0  0  0  0  0  0  0  0  0  0
   26.9265  -21.1434  -12.7238 C   0  0  0  0  0  0  0  0  0  0  0  0
   25.6872  -20.6548  -12.0866 C   0  0  2  0  0  0  0  0  0  0  0  0
   24.9941  -19.8436  -13.1409 N   0  0  0  0  0  0  0  0  0  0  0  0
   25.7797  -19.8543  -10.8695 C   0  0  0  0  0  0  0  0  0  0  0  0
   26.7396  -18.9911  -10.7589 O   0  0  0  0  0  0  0  0  0  0  0  0
   24.9314  -19.8899   -9.7588 N   0  0  0  0  0  0  0  0  0  0  0  0
   25.0714  -20.9389   -8.7181 C   0  0  1  0  0  0  0  0  0  0  0  0
   25.2902  -20.1546   -7.4590 C   0  0  0  0  0  0  0  0  0  0  0  0
   26.6611  -19.6423   -7.3381 C   0  0  0  0  0  0  0  0  0  0  0  0
   27.4017  -18.9953   -8.3453 C   0  0  0  0  0  0  0  0  0  0  0  0
   28.6233  -18.6983   -7.8829 N   0  0  0  0  0  0  0  0  0  0  0  0
   28.7574  -19.1109   -6.6024 C   0  0  0  0  0  0  0  0  0  0  0  0
   29.8115  -19.0103   -5.7185 C   0  0  0  0  0  0  0  0  0  0  0  0
   29.6365  -19.5132   -4.4519 C   0  0  0  0  0  0  0  0  0  0  0  0
   28.4341  -20.0938   -4.1061 C   0  0  0  0  0  0  0  0  0  0  0  0
   27.3949  -20.1875   -4.9962 C   0  0  0  0  0  0  0  0  0  0  0  0
   27.5373  -19.6940   -6.2736 C   0  0  0  0  0  0  0  0  0  0  0  0
   23.8850  -21.7972   -8.6916 C   0  0  0  0  0  0  0  0  0  0  0  0
   24.0288  -23.0256   -8.3764 O   0  0  0  0  0  0  0  0  0  0  0  0
   22.5994  -21.3901   -8.9760 O   0  0  0  0  0  0  0  0  0  0  0  0
  2  1  1  0
  3  2  2  0
  4  3  1  0
  5 11  1  0
  5  4  2  0
  6  5  1  0
  7  8  1  6
  7  6  1  0
  9  7  1  0
 10  9  2  0
 11 12  2  0
 12  2  1  0
 13 14  1  0
 14 15  2  0
 14 16  1  0
 17 16  1  6
 17 19  1  0
 17 18  1  0
 18  9  1  0
 19 21  1  0
 20 19  2  0
 21 22  1  0
 22 23  1  1
 22 33  1  0
 24 23  1  0
 25 24  2  0
 26 27  1  0
 26 25  1  0
 27 32  2  0
 28 27  1  0
 28 29  2  0
 29 30  1  0
 30 31  2  0
 32 24  1  0
 32 31  1  0
 33 34  2  0
 33 35  1  0
M  END
$$$$
