YNW.pdb
     RDKit          3D

 35 37  0  0  1  0  0  0  0  0999 V2000
   18.8824  -14.6718  -15.1030 O   0  0  0  0  0  0  0  0  0  0  0  0
   19.9500  -15.5636  -15.0722 C   0  0  0  0  0  0  0  0  0  0  0  0
   19.6736  -16.9252  -14.8940 C   0  0  0  0  0  0  0  0  0  0  0  0
   20.7071  -17.8382  -14.8582 C   0  0  0  0  0  0  0  0  0  0  0  0
   22.0012  -17.4081  -14.9972 C   0  0  0  0  0  0  0  0  0  0  0  0
   23.1063  -18.3831  -14.9601 C   0  0  0  0  0  0  0  0  0  0  0  0
   23.7274  -18.4869  -16.3580 C   0  0  2  0  0  0  0  0  0  0  0  0
   22.7543  -18.8971  -17.3165 N   0  0  0  0  0  0  0  0  0  0  0  0
   24.8616  -19.4737  -16.2881 C   0  0  0  0  0  0  0  0  0  0  0  0
   24.6204  -20.6881  -16.3824 O   0  0  0  0  0  0  0  0  0  0  0  0
   22.2589  -16.0654  -15.1717 C   0  0  0  0  0  0  0  0  0  0  0  0
   21.2421  -15.1299  -15.2116 C   0  0  0  0  0  0  0  0  0  0  0  0
   28.4900  -17.0875  -17.9004 N   0  0  0  0  0  0  0  0  0  0  0  0
   28.2787  -18.5209  -17.9529 C   0  0  0  0  0  0  0  0  0  0  0  0
   27.9692  -18.9618  -19.0511 O   0  0  0  0  0  0  0  0  0  0  0  0
   28.4510  -19.2478  -16.7402 C   0  0  0  0  0  0  0  0  0  0  0  0
   27.3449  -19.9435  -16.0522 C   0  0  2  0  0  0  0  0  0  0  0  0
   26.1824  -18.9978  -16.1166 N   0  0  0  0  0  0  0  0  0  0  0  0
   27.5227  -20.3689  -14.6673 C   0  0  0  0  0  0  0  0  0  0  0  0
   27.9228  -19.5013  -13.7920 O   0  0  0  0  0  0  0  0  0  0  0  0
   27.3044  -21.6414  -14.1312 N   0  0  0  0  0  0  0  0  0  0  0  0
   27.0556  -21.8319  -12.6803 C   0  0  1  0  0  0  0  0  0  0  0  0
   26.8513  -20.4351  -12.1748 C   0  0  0  0  0  0  0  0  0  0  0  0
   26.7190  -20.3719  -10.7136 C   0  0  0  0  0  0  0  0  0  0  0  0
   25.5287  -20.1616   -9.9921 C   0  0  0  0  0  0  0  0  0  0  0  0
   25.7985  -20.1336   -8.6804 N   0  0  0  0  0  0  0  0  0  0  0  0
   27.1209  -20.3159   -8.4657 C   0  0  0  0  0  0  0  0  0  0  0  0
   27.8539  -20.3808   -7.2991 C   0  0  0  0  0  0  0  0  0  0  0  0
   29.2058  -20.6037   -7.4027 C   0  0  0  0  0  0  0  0  0  0  0  0
   29.7814  -20.7533   -8.6473 C   0  0  0  0  0  0  0  0  0  0  0  0
   29.0396  -20.6853   -9.7989 C   0  0  0  0  0  0  0  0  0  0  0  0
   27.6827  -20.4628   -9.7305 C   0  0  0  0  0  0  0  0  0  0  0  0
   25.9107  -22.7201  -12.4682 C   0  0  0  0  0  0  0  0  0  0  0  0
   24.8416  -22.5047  -13.1311 O   0  0  0  0  0  0  0  0  0  0  0  0
   25.8832  -23.7938  -11.6045 O   0  0  0  0  0  0  0  0  0  0  0  0
  2  1  1  0
  3  2  2  0
  4  3  1  0
  5 11  1  0
  5  4  2  0
  6  5  1  0
  7  8  1  6
  7  6  1  0
  9  7  1  0
 10  9  2  0
 11 12  2  0
 12  2  1  0
 13 14  1  0
 14 15  2  0
 14 16  1  0
 17 16  1  1
 17 19  1  0
 17 18  1  0
 18  9  1  0
 19 21  1  0
 20 19  2  0
 21 22  1  0
 22 23  1  6
 22 33  1  0
 24 23  1  0
 25 24  2  0
 26 27  1  0
 26 25  1  0
 27 32  2  0
 28 27  1  0
 28 29  2  0
 29 30  1  0
 30 31  2  0
 32 24  1  0
 32 31  1  0
 33 34  2  0
 33 35  1  0
M  END
$$$$
