YNW.pdb
     RDKit          3D

 35 37  0  0  1  0  0  0  0  0999 V2000
   22.8938  -11.3054  -15.8204 O   0  0  0  0  0  0  0  0  0  0  0  0
   23.1389  -12.6745  -15.8585 C   0  0  0  0  0  0  0  0  0  0  0  0
   24.4367  -13.1252  -15.5853 C   0  0  0  0  0  0  0  0  0  0  0  0
   24.7165  -14.4757  -15.6142 C   0  0  0  0  0  0  0  0  0  0  0  0
   23.7221  -15.3713  -15.9105 C   0  0  0  0  0  0  0  0  0  0  0  0
   24.0197  -16.8148  -15.9406 C   0  0  0  0  0  0  0  0  0  0  0  0
   24.6129  -17.1737  -17.3081 C   0  0  2  0  0  0  0  0  0  0  0  0
   23.6431  -17.0091  -18.3408 N   0  0  0  0  0  0  0  0  0  0  0  0
   25.0930  -18.5986  -17.2445 C   0  0  0  0  0  0  0  0  0  0  0  0
   24.2778  -19.5241  -17.3883 O   0  0  0  0  0  0  0  0  0  0  0  0
   22.4495  -14.9141  -16.1775 C   0  0  0  0  0  0  0  0  0  0  0  0
   22.1422  -13.5666  -16.1551 C   0  0  0  0  0  0  0  0  0  0  0  0
   27.4239  -20.2128  -19.7516 N   0  0  0  0  0  0  0  0  0  0  0  0
   28.5753  -20.3110  -18.8760 C   0  0  0  0  0  0  0  0  0  0  0  0
   29.6502  -20.4505  -19.4428 O   0  0  0  0  0  0  0  0  0  0  0  0
   28.3337  -20.2363  -17.4743 C   0  0  0  0  0  0  0  0  0  0  0  0
   26.9792  -20.2591  -16.8865 C   0  0  2  0  0  0  0  0  0  0  0  0
   26.4658  -18.8563  -17.0222 N   0  0  0  0  0  0  0  0  0  0  0  0
   26.8112  -20.6840  -15.5002 C   0  0  0  0  0  0  0  0  0  0  0  0
   27.4200  -20.0255  -14.5650 O   0  0  0  0  0  0  0  0  0  0  0  0
   26.0432  -21.7497  -15.0219 N   0  0  0  0  0  0  0  0  0  0  0  0
   25.9817  -22.0632  -13.5724 C   0  0  1  0  0  0  0  0  0  0  0  0
   25.5697  -20.7622  -12.9510 C   0  0  0  0  0  0  0  0  0  0  0  0
   25.3402  -20.8693  -11.5046 C   0  0  0  0  0  0  0  0  0  0  0  0
   26.3264  -20.8558  -10.5002 C   0  0  0  0  0  0  0  0  0  0  0  0
   25.7478  -21.0072   -9.3016 N   0  0  0  0  0  0  0  0  0  0  0  0
   24.4074  -21.1235   -9.4350 C   0  0  0  0  0  0  0  0  0  0  0  0
   23.4083  -21.2761   -8.4963 C   0  0  0  0  0  0  0  0  0  0  0  0
   22.1114  -21.3431   -8.9452 C   0  0  0  0  0  0  0  0  0  0  0  0
   21.8497  -21.2576  -10.2967 C   0  0  0  0  0  0  0  0  0  0  0  0
   22.8539  -21.1069  -11.2187 C   0  0  0  0  0  0  0  0  0  0  0  0
   24.1643  -21.0367  -10.8026 C   0  0  0  0  0  0  0  0  0  0  0  0
   25.0517  -23.1672  -13.3250 C   0  0  0  0  0  0  0  0  0  0  0  0
   25.2190  -23.8822  -12.2810 O   0  0  0  0  0  0  0  0  0  0  0  0
   23.9863  -23.5084  -14.1298 O   0  0  0  0  0  0  0  0  0  0  0  0
  2  1  1  0
  3  2  2  0
  4  3  1  0
  5 11  1  0
  5  4  2  0
  6  5  1  0
  7  8  1  6
  7  6  1  0
  9  7  1  0
 10  9  2  0
 11 12  2  0
 12  2  1  0
 13 14  1  0
 14 15  2  0
 14 16  1  0
 17 16  1  1
 17 19  1  0
 17 18  1  0
 18  9  1  0
 19 21  1  0
 20 19  2  0
 21 22  1  0
 22 23  1  1
 22 33  1  0
 24 23  1  0
 25 24  2  0
 26 27  1  0
 26 25  1  0
 27 32  2  0
 28 27  1  0
 28 29  2  0
 29 30  1  0
 30 31  2  0
 32 24  1  0
 32 31  1  0
 33 34  2  0
 33 35  1  0
M  END
$$$$
