YNW.pdb
     RDKit          3D

 35 37  0  0  1  0  0  0  0  0999 V2000
   32.8930  -19.2511  -18.8961 O   0  0  0  0  0  0  0  0  0  0  0  0
   31.7682  -18.9487  -18.1349 C   0  0  0  0  0  0  0  0  0  0  0  0
   31.0350  -20.0070  -17.5829 C   0  0  0  0  0  0  0  0  0  0  0  0
   29.9141  -19.7449  -16.8229 C   0  0  0  0  0  0  0  0  0  0  0  0
   29.5224  -18.4485  -16.6112 C   0  0  0  0  0  0  0  0  0  0  0  0
   28.3252  -18.1672  -15.7983 C   0  0  0  0  0  0  0  0  0  0  0  0
   27.0784  -18.3132  -16.6786 C   0  0  2  0  0  0  0  0  0  0  0  0
   27.0613  -17.3207  -17.7027 N   0  0  0  0  0  0  0  0  0  0  0  0
   25.8689  -18.1905  -15.7916 C   0  0  0  0  0  0  0  0  0  0  0  0
   25.5450  -17.0752  -15.3523 O   0  0  0  0  0  0  0  0  0  0  0  0
   30.2529  -17.4167  -17.1604 C   0  0  0  0  0  0  0  0  0  0  0  0
   31.3799  -17.6516  -17.9255 C   0  0  0  0  0  0  0  0  0  0  0  0
   22.5351  -18.9533  -17.9881 N   0  0  0  0  0  0  0  0  0  0  0  0
   22.5313  -18.4423  -16.6313 C   0  0  0  0  0  0  0  0  0  0  0  0
   22.3294  -17.2403  -16.5282 O   0  0  0  0  0  0  0  0  0  0  0  0
   22.7598  -19.3796  -15.5835 C   0  0  0  0  0  0  0  0  0  0  0  0
   23.8846  -19.2691  -14.6330 C   0  0  2  0  0  0  0  0  0  0  0  0
   25.1230  -19.3499  -15.4753 N   0  0  0  0  0  0  0  0  0  0  0  0
   23.9968  -20.2373  -13.5464 C   0  0  0  0  0  0  0  0  0  0  0  0
   24.1113  -21.4948  -13.8372 O   0  0  0  0  0  0  0  0  0  0  0  0
   24.0038  -19.9801  -12.1723 N   0  0  0  0  0  0  0  0  0  0  0  0
   23.7903  -21.0683  -11.1856 C   0  0  1  0  0  0  0  0  0  0  0  0
   24.4531  -20.5493   -9.9447 C   0  0  0  0  0  0  0  0  0  0  0  0
   25.9009  -20.7943   -9.9275 C   0  0  0  0  0  0  0  0  0  0  0  0
   26.6496  -21.4404  -10.9293 C   0  0  0  0  0  0  0  0  0  0  0  0
   27.9338  -21.5101  -10.5545 N   0  0  0  0  0  0  0  0  0  0  0  0
   28.1036  -20.9405   -9.3402 C   0  0  0  0  0  0  0  0  0  0  0  0
   29.2321  -20.7616   -8.5676 C   0  0  0  0  0  0  0  0  0  0  0  0
   29.0897  -20.1130   -7.3647 C   0  0  0  0  0  0  0  0  0  0  0  0
   27.8452  -19.6675   -6.9705 C   0  0  0  0  0  0  0  0  0  0  0  0
   26.7315  -19.8535   -7.7492 C   0  0  0  0  0  0  0  0  0  0  0  0
   26.8394  -20.4999   -8.9600 C   0  0  0  0  0  0  0  0  0  0  0  0
   22.3610  -21.3473  -11.0303 C   0  0  0  0  0  0  0  0  0  0  0  0
   22.0095  -22.4734  -10.5432 O   0  0  0  0  0  0  0  0  0  0  0  0
   21.3390  -20.4846  -11.3634 O   0  0  0  0  0  0  0  0  0  0  0  0
  2  1  1  0
  3  2  2  0
  4  3  1  0
  5 11  1  0
  5  4  2  0
  6  5  1  0
  7  8  1  6
  7  6  1  0
  9  7  1  0
 10  9  2  0
 11 12  2  0
 12  2  1  0
 13 14  1  0
 14 15  2  0
 14 16  1  0
 17 16  1  6
 17 19  1  0
 17 18  1  0
 18  9  1  0
 19 21  1  0
 20 19  2  0
 21 22  1  0
 22 23  1  1
 22 33  1  0
 24 23  1  0
 25 24  2  0
 26 27  1  0
 26 25  1  0
 27 32  2  0
 28 27  1  0
 28 29  2  0
 29 30  1  0
 30 31  2  0
 32 24  1  0
 32 31  1  0
 33 34  2  0
 33 35  1  0
M  END
$$$$
