YNW.pdb
     RDKit          3D

 35 37  0  0  1  0  0  0  0  0999 V2000
   31.6476  -19.5931  -18.4594 O   0  0  0  0  0  0  0  0  0  0  0  0
   30.7243  -19.4504  -17.4282 C   0  0  0  0  0  0  0  0  0  0  0  0
   30.0975  -18.2085  -17.2644 C   0  0  0  0  0  0  0  0  0  0  0  0
   29.1770  -18.0305  -16.2526 C   0  0  0  0  0  0  0  0  0  0  0  0
   28.8796  -19.0709  -15.4112 C   0  0  0  0  0  0  0  0  0  0  0  0
   27.8952  -18.8820  -14.3303 C   0  0  0  0  0  0  0  0  0  0  0  0
   26.6866  -19.7884  -14.5919 C   0  0  2  0  0  0  0  0  0  0  0  0
   26.1169  -19.5180  -15.8711 N   0  0  0  0  0  0  0  0  0  0  0  0
   25.6832  -19.5495  -13.4959 C   0  0  0  0  0  0  0  0  0  0  0  0
   25.0483  -18.4827  -13.4720 O   0  0  0  0  0  0  0  0  0  0  0  0
   29.5039  -20.2876  -15.5836 C   0  0  0  0  0  0  0  0  0  0  0  0
   30.4298  -20.4928  -16.5893 C   0  0  0  0  0  0  0  0  0  0  0  0
   21.4343  -19.6101  -13.0688 N   0  0  0  0  0  0  0  0  0  0  0  0
   21.9427  -20.2790  -11.8872 C   0  0  0  0  0  0  0  0  0  0  0  0
   21.2228  -20.2121  -10.9007 O   0  0  0  0  0  0  0  0  0  0  0  0
   23.2045  -20.9299  -12.0016 C   0  0  0  0  0  0  0  0  0  0  0  0
   24.4518  -20.3773  -11.4364 C   0  0  2  0  0  0  0  0  0  0  0  0
   25.4824  -20.5465  -12.5130 N   0  0  0  0  0  0  0  0  0  0  0  0
   24.9798  -20.9348  -10.1950 C   0  0  0  0  0  0  0  0  0  0  0  0
   25.6140  -22.0640  -10.2353 O   0  0  0  0  0  0  0  0  0  0  0  0
   24.8955  -20.3884   -8.9110 N   0  0  0  0  0  0  0  0  0  0  0  0
   25.2110  -21.1993   -7.7084 C   0  0  1  0  0  0  0  0  0  0  0  0
   25.2920  -20.1801   -6.6116 C   0  0  0  0  0  0  0  0  0  0  0  0
   26.5981  -19.5117   -6.5505 C   0  0  0  0  0  0  0  0  0  0  0  0
   27.0397  -18.4659   -7.3830 C   0  0  0  0  0  0  0  0  0  0  0  0
   28.2946  -18.1313   -7.0551 N   0  0  0  0  0  0  0  0  0  0  0  0
   28.7371  -18.8989   -6.0338 C   0  0  0  0  0  0  0  0  0  0  0  0
   29.9381  -18.9088   -5.3556 C   0  0  0  0  0  0  0  0  0  0  0  0
   30.0864  -19.8077   -4.3270 C   0  0  0  0  0  0  0  0  0  0  0  0
   29.0495  -20.6594   -4.0076 C   0  0  0  0  0  0  0  0  0  0  0  0
   27.8610  -20.6386   -4.6917 C   0  0  0  0  0  0  0  0  0  0  0  0
   27.6797  -19.7505   -5.7280 C   0  0  0  0  0  0  0  0  0  0  0  0
   24.1880  -22.2261   -7.4988 C   0  0  0  0  0  0  0  0  0  0  0  0
   23.0594  -22.0890   -8.0790 O   0  0  0  0  0  0  0  0  0  0  0  0
   24.3374  -23.3540   -6.7210 O   0  0  0  0  0  0  0  0  0  0  0  0
  2  1  1  0
  3  2  2  0
  4  3  1  0
  5 11  1  0
  5  4  2  0
  6  5  1  0
  7  8  1  6
  7  6  1  0
  9  7  1  0
 10  9  2  0
 11 12  2  0
 12  2  1  0
 13 14  1  0
 14 15  2  0
 14 16  1  0
 17 16  1  6
 17 19  1  0
 17 18  1  0
 18  9  1  0
 19 21  1  0
 20 19  2  0
 21 22  1  0
 22 23  1  1
 22 33  1  0
 24 23  1  0
 25 24  2  0
 26 27  1  0
 26 25  1  0
 27 32  2  0
 28 27  1  0
 28 29  2  0
 29 30  1  0
 30 31  2  0
 32 24  1  0
 32 31  1  0
 33 34  2  0
 33 35  1  0
M  END
$$$$
