YNW.pdb
     RDKit          3D

 35 37  0  0  1  0  0  0  0  0999 V2000
   31.3281  -16.6575  -18.6499 O   0  0  0  0  0  0  0  0  0  0  0  0
   30.2593  -16.7865  -17.7684 C   0  0  0  0  0  0  0  0  0  0  0  0
   30.2240  -17.9050  -16.9258 C   0  0  0  0  0  0  0  0  0  0  0  0
   29.1795  -18.0659  -16.0393 C   0  0  0  0  0  0  0  0  0  0  0  0
   28.1798  -17.1296  -15.9871 C   0  0  0  0  0  0  0  0  0  0  0  0
   27.0636  -17.3001  -15.0393 C   0  0  0  0  0  0  0  0  0  0  0  0
   26.0075  -18.2145  -15.6711 C   0  0  2  0  0  0  0  0  0  0  0  0
   25.4252  -17.5998  -16.8188 N   0  0  0  0  0  0  0  0  0  0  0  0
   24.9618  -18.5032  -14.6280 C   0  0  0  0  0  0  0  0  0  0  0  0
   23.9906  -17.7388  -14.5098 O   0  0  0  0  0  0  0  0  0  0  0  0
   28.2269  -16.0339  -16.8220 C   0  0  0  0  0  0  0  0  0  0  0  0
   29.2619  -15.8485  -17.7192 C   0  0  0  0  0  0  0  0  0  0  0  0
   21.5953  -22.2853  -12.1650 N   0  0  0  0  0  0  0  0  0  0  0  0
   22.0572  -20.9157  -12.0508 C   0  0  0  0  0  0  0  0  0  0  0  0
   21.5275  -20.2597  -11.1648 O   0  0  0  0  0  0  0  0  0  0  0  0
   23.0605  -20.4900  -12.9679 C   0  0  0  0  0  0  0  0  0  0  0  0
   24.2958  -19.7978  -12.5487 C   0  0  2  0  0  0  0  0  0  0  0  0
   25.1058  -19.6419  -13.8014 N   0  0  0  0  0  0  0  0  0  0  0  0
   25.1383  -20.4033  -11.5220 C   0  0  0  0  0  0  0  0  0  0  0  0
   25.7374  -21.5222  -11.7829 O   0  0  0  0  0  0  0  0  0  0  0  0
   25.4034  -19.9151  -10.2392 N   0  0  0  0  0  0  0  0  0  0  0  0
   26.1775  -20.7148   -9.2572 C   0  0  1  0  0  0  0  0  0  0  0  0
   27.1318  -19.7183   -8.6702 C   0  0  0  0  0  0  0  0  0  0  0  0
   27.9705  -20.2897   -7.6088 C   0  0  0  0  0  0  0  0  0  0  0  0
   28.8038  -21.4188   -7.7209 C   0  0  0  0  0  0  0  0  0  0  0  0
   29.3896  -21.6626   -6.5412 N   0  0  0  0  0  0  0  0  0  0  0  0
   28.9980  -20.7520   -5.6217 C   0  0  0  0  0  0  0  0  0  0  0  0
   29.3430  -20.5896   -4.2961 C   0  0  0  0  0  0  0  0  0  0  0  0
   28.7865  -19.5352   -3.6132 C   0  0  0  0  0  0  0  0  0  0  0  0
   27.9146  -18.6844   -4.2602 C   0  0  0  0  0  0  0  0  0  0  0  0
   27.5802  -18.8591   -5.5788 C   0  0  0  0  0  0  0  0  0  0  0  0
   28.1196  -19.9059   -6.2920 C   0  0  0  0  0  0  0  0  0  0  0  0
   25.2807  -21.3347   -8.2792 C   0  0  0  0  0  0  0  0  0  0  0  0
   24.0880  -20.8916   -8.1799 O   0  0  0  0  0  0  0  0  0  0  0  0
   25.6118  -22.3790   -7.4429 O   0  0  0  0  0  0  0  0  0  0  0  0
  2  1  1  0
  3  2  2  0
  4  3  1  0
  5 11  1  0
  5  4  2  0
  6  5  1  0
  7  8  1  6
  7  6  1  0
  9  7  1  0
 10  9  2  0
 11 12  2  0
 12  2  1  0
 13 14  1  0
 14 15  2  0
 14 16  1  0
 17 16  1  6
 17 19  1  0
 17 18  1  0
 18  9  1  0
 19 21  1  0
 20 19  2  0
 21 22  1  0
 22 23  1  1
 22 33  1  0
 24 23  1  0
 25 24  2  0
 26 27  1  0
 26 25  1  0
 27 32  2  0
 28 27  1  0
 28 29  2  0
 29 30  1  0
 30 31  2  0
 32 24  1  0
 32 31  1  0
 33 34  2  0
 33 35  1  0
M  END
$$$$
