YNW.pdb
     RDKit          3D

 35 37  0  0  1  0  0  0  0  0999 V2000
   30.4338  -15.0543  -18.1978 O   0  0  0  0  0  0  0  0  0  0  0  0
   29.6498  -15.7746  -17.3018 C   0  0  0  0  0  0  0  0  0  0  0  0
   30.0648  -17.0633  -16.9425 C   0  0  0  0  0  0  0  0  0  0  0  0
   29.3123  -17.8066  -16.0570 C   0  0  0  0  0  0  0  0  0  0  0  0
   28.1607  -17.2800  -15.5322 C   0  0  0  0  0  0  0  0  0  0  0  0
   27.3564  -18.0730  -14.5849 C   0  0  0  0  0  0  0  0  0  0  0  0
   26.8426  -19.3300  -15.2968 C   0  0  2  0  0  0  0  0  0  0  0  0
   26.2275  -18.9941  -16.5389 N   0  0  0  0  0  0  0  0  0  0  0  0
   25.8636  -20.0131  -14.3802 C   0  0  0  0  0  0  0  0  0  0  0  0
   24.7241  -19.5395  -14.2425 O   0  0  0  0  0  0  0  0  0  0  0  0
   27.7640  -16.0106  -15.8945 C   0  0  0  0  0  0  0  0  0  0  0  0
   28.4994  -15.2447  -16.7795 C   0  0  0  0  0  0  0  0  0  0  0  0
   25.2230  -22.5006  -15.6633 N   0  0  0  0  0  0  0  0  0  0  0  0
   25.2716  -23.6208  -14.7441 C   0  0  0  0  0  0  0  0  0  0  0  0
   25.2828  -24.7253  -15.2694 O   0  0  0  0  0  0  0  0  0  0  0  0
   25.3000  -23.3184  -13.3525 C   0  0  0  0  0  0  0  0  0  0  0  0
   25.2976  -21.9386  -12.8262 C   0  0  2  0  0  0  0  0  0  0  0  0
   26.2612  -21.1835  -13.6927 N   0  0  0  0  0  0  0  0  0  0  0  0
   25.6498  -21.7087  -11.4285 C   0  0  0  0  0  0  0  0  0  0  0  0
   26.4742  -22.5226  -10.8481 O   0  0  0  0  0  0  0  0  0  0  0  0
   25.2029  -20.6795  -10.5946 N   0  0  0  0  0  0  0  0  0  0  0  0
   25.2035  -20.8315   -9.1181 C   0  0  1  0  0  0  0  0  0  0  0  0
   26.0314  -19.6730   -8.6481 C   0  0  0  0  0  0  0  0  0  0  0  0
   27.3477  -20.0820   -8.1416 C   0  0  0  0  0  0  0  0  0  0  0  0
   28.3337  -20.7885   -8.8560 C   0  0  0  0  0  0  0  0  0  0  0  0
   29.3890  -21.0122   -8.0617 N   0  0  0  0  0  0  0  0  0  0  0  0
   29.1746  -20.4910   -6.8328 C   0  0  0  0  0  0  0  0  0  0  0  0
   29.9693  -20.4582   -5.7059 C   0  0  0  0  0  0  0  0  0  0  0  0
   29.4764  -19.8227   -4.5918 C   0  0  0  0  0  0  0  0  0  0  0  0
   28.2239  -19.2463   -4.6306 C   0  0  0  0  0  0  0  0  0  0  0  0
   27.4445  -19.2877   -5.7584 C   0  0  0  0  0  0  0  0  0  0  0  0
   27.9082  -19.9168   -6.8918 C   0  0  0  0  0  0  0  0  0  0  0  0
   23.8329  -20.8377   -8.6021 C   0  0  0  0  0  0  0  0  0  0  0  0
   22.8834  -20.5143   -9.3913 O   0  0  0  0  0  0  0  0  0  0  0  0
   23.4658  -21.1739   -7.3169 O   0  0  0  0  0  0  0  0  0  0  0  0
  2  1  1  0
  3  2  2  0
  4  3  1  0
  5 11  1  0
  5  4  2  0
  6  5  1  0
  7  8  1  6
  7  6  1  0
  9  7  1  0
 10  9  2  0
 11 12  2  0
 12  2  1  0
 13 14  1  0
 14 15  2  0
 14 16  1  0
 17 16  1  6
 17 19  1  0
 17 18  1  0
 18  9  1  0
 19 21  1  0
 20 19  2  0
 21 22  1  0
 22 23  1  1
 22 33  1  0
 24 23  1  0
 25 24  2  0
 26 27  1  0
 26 25  1  0
 27 32  2  0
 28 27  1  0
 28 29  2  0
 29 30  1  0
 30 31  2  0
 32 24  1  0
 32 31  1  0
 33 34  2  0
 33 35  1  0
M  END
$$$$
