YNW.pdb
     RDKit          3D

 35 37  0  0  1  0  0  0  0  0999 V2000
   32.1759  -16.6157  -20.1333 O   0  0  0  0  0  0  0  0  0  0  0  0
   30.8038  -16.5410  -19.9146 C   0  0  0  0  0  0  0  0  0  0  0  0
   30.0491  -17.7164  -20.0197 C   0  0  0  0  0  0  0  0  0  0  0  0
   28.6862  -17.6801  -19.8098 C   0  0  0  0  0  0  0  0  0  0  0  0
   28.0761  -16.4926  -19.4990 C   0  0  0  0  0  0  0  0  0  0  0  0
   26.6199  -16.4529  -19.2733 C   0  0  0  0  0  0  0  0  0  0  0  0
   26.2024  -17.7013  -18.4872 C   0  0  2  0  0  0  0  0  0  0  0  0
   26.5574  -18.8882  -19.1938 N   0  0  0  0  0  0  0  0  0  0  0  0
   24.7154  -17.6327  -18.2657 C   0  0  0  0  0  0  0  0  0  0  0  0
   24.2142  -16.5935  -17.8068 O   0  0  0  0  0  0  0  0  0  0  0  0
   28.8308  -15.3436  -19.3988 C   0  0  0  0  0  0  0  0  0  0  0  0
   30.1977  -15.3522  -19.6040 C   0  0  0  0  0  0  0  0  0  0  0  0
   22.5190  -18.9623  -22.1128 N   0  0  0  0  0  0  0  0  0  0  0  0
   22.0202  -18.3101  -20.9178 C   0  0  0  0  0  0  0  0  0  0  0  0
   21.7632  -17.1207  -21.0425 O   0  0  0  0  0  0  0  0  0  0  0  0
   21.8867  -19.1116  -19.7480 C   0  0  0  0  0  0  0  0  0  0  0  0
   22.4248  -18.7140  -18.4315 C   0  0  2  0  0  0  0  0  0  0  0  0
   23.9163  -18.7551  -18.5856 N   0  0  0  0  0  0  0  0  0  0  0  0
   22.0577  -19.4868  -17.2489 C   0  0  0  0  0  0  0  0  0  0  0  0
   22.9568  -20.2258  -16.6795 O   0  0  0  0  0  0  0  0  0  0  0  0
   20.8128  -19.5356  -16.6147 N   0  0  0  0  0  0  0  0  0  0  0  0
   20.6313  -20.2610  -15.3325 C   0  0  1  0  0  0  0  0  0  0  0  0
   21.5130  -19.5110  -14.3792 C   0  0  0  0  0  0  0  0  0  0  0  0
   20.9809  -18.1868  -14.0330 C   0  0  0  0  0  0  0  0  0  0  0  0
   19.7448  -17.9203  -13.4142 C   0  0  0  0  0  0  0  0  0  0  0  0
   19.5843  -16.5966  -13.2851 N   0  0  0  0  0  0  0  0  0  0  0  0
   20.6543  -15.9395  -13.7864 C   0  0  0  0  0  0  0  0  0  0  0  0
   20.9447  -14.5930  -13.8585 C   0  0  0  0  0  0  0  0  0  0  0  0
   22.1466  -14.2250  -14.4135 C   0  0  0  0  0  0  0  0  0  0  0  0
   23.0129  -15.1942  -14.8746 C   0  0  0  0  0  0  0  0  0  0  0  0
   22.7100  -16.5297  -14.7970 C   0  0  0  0  0  0  0  0  0  0  0  0
   21.5139  -16.9325  -14.2469 C   0  0  0  0  0  0  0  0  0  0  0  0
   19.2175  -20.2833  -14.9510 C   0  0  0  0  0  0  0  0  0  0  0  0
   18.4150  -19.4846  -15.5400 O   0  0  0  0  0  0  0  0  0  0  0  0
   18.6613  -21.1093  -13.9983 O   0  0  0  0  0  0  0  0  0  0  0  0
  2  1  1  0
  3  2  2  0
  4  3  1  0
  5 11  1  0
  5  4  2  0
  6  5  1  0
  7  8  1  6
  7  6  1  0
  9  7  1  0
 10  9  2  0
 11 12  2  0
 12  2  1  0
 13 14  1  0
 14 15  2  0
 14 16  1  0
 17 16  1  6
 17 19  1  0
 17 18  1  0
 18  9  1  0
 19 21  1  0
 20 19  2  0
 21 22  1  0
 22 23  1  1
 22 33  1  0
 24 23  1  0
 25 24  2  0
 26 27  1  0
 26 25  1  0
 27 32  2  0
 28 27  1  0
 28 29  2  0
 29 30  1  0
 30 31  2  0
 32 24  1  0
 32 31  1  0
 33 34  2  0
 33 35  1  0
M  END
$$$$
