YNW.pdb
     RDKit          3D

 35 37  0  0  1  0  0  0  0  0999 V2000
   33.1425  -25.5596  -17.1107 O   0  0  0  0  0  0  0  0  0  0  0  0
   32.2489  -24.5823  -16.6835 C   0  0  0  0  0  0  0  0  0  0  0  0
   31.5427  -24.8017  -15.4939 C   0  0  0  0  0  0  0  0  0  0  0  0
   30.6483  -23.8546  -15.0400 C   0  0  0  0  0  0  0  0  0  0  0  0
   30.4546  -22.7020  -15.7560 C   0  0  0  0  0  0  0  0  0  0  0  0
   29.4999  -21.6887  -15.2712 C   0  0  0  0  0  0  0  0  0  0  0  0
   28.1031  -22.0215  -15.8088 C   0  0  2  0  0  0  0  0  0  0  0  0
   28.0218  -21.7578  -17.2080 N   0  0  0  0  0  0  0  0  0  0  0  0
   27.1046  -21.1921  -15.0471 C   0  0  0  0  0  0  0  0  0  0  0  0
   26.9113  -20.0117  -15.3804 O   0  0  0  0  0  0  0  0  0  0  0  0
   31.1561  -22.4990  -16.9250 C   0  0  0  0  0  0  0  0  0  0  0  0
   32.0582  -23.4314  -17.4020 C   0  0  0  0  0  0  0  0  0  0  0  0
   23.1662  -19.1940  -12.8252 N   0  0  0  0  0  0  0  0  0  0  0  0
   22.9795  -20.3884  -13.6255 C   0  0  0  0  0  0  0  0  0  0  0  0
   21.8564  -20.5357  -14.0870 O   0  0  0  0  0  0  0  0  0  0  0  0
   24.1052  -21.2466  -13.7842 C   0  0  0  0  0  0  0  0  0  0  0  0
   25.4177  -20.9793  -13.1624 C   0  0  2  0  0  0  0  0  0  0  0  0
   26.4044  -21.7744  -13.9649 N   0  0  0  0  0  0  0  0  0  0  0  0
   25.6122  -21.2869  -11.7488 C   0  0  0  0  0  0  0  0  0  0  0  0
   25.7346  -22.5254  -11.3883 O   0  0  0  0  0  0  0  0  0  0  0  0
   25.6939  -20.3856  -10.6833 N   0  0  0  0  0  0  0  0  0  0  0  0
   25.7122  -20.8583   -9.2764 C   0  0  1  0  0  0  0  0  0  0  0  0
   26.4814  -19.7896   -8.5590 C   0  0  0  0  0  0  0  0  0  0  0  0
   27.7856  -20.2564   -8.0715 C   0  0  0  0  0  0  0  0  0  0  0  0
   28.6683  -21.1199   -8.7474 C   0  0  0  0  0  0  0  0  0  0  0  0
   29.7442  -21.3493   -7.9830 N   0  0  0  0  0  0  0  0  0  0  0  0
   29.6427  -20.6822   -6.8115 C   0  0  0  0  0  0  0  0  0  0  0  0
   30.4991  -20.5988   -5.7334 C   0  0  0  0  0  0  0  0  0  0  0  0
   30.1234  -19.8063   -4.6757 C   0  0  0  0  0  0  0  0  0  0  0  0
   28.9227  -19.1290   -4.7206 C   0  0  0  0  0  0  0  0  0  0  0  0
   28.0807  -19.2223   -5.7993 C   0  0  0  0  0  0  0  0  0  0  0  0
   28.4267  -20.0081   -6.8755 C   0  0  0  0  0  0  0  0  0  0  0  0
   24.3472  -21.0497   -8.7815 C   0  0  0  0  0  0  0  0  0  0  0  0
   23.3983  -20.4129   -9.3497 O   0  0  0  0  0  0  0  0  0  0  0  0
   23.9848  -21.8767   -7.7403 O   0  0  0  0  0  0  0  0  0  0  0  0
  2  1  1  0
  3  2  2  0
  4  3  1  0
  5 11  1  0
  5  4  2  0
  6  5  1  0
  7  8  1  6
  7  6  1  0
  9  7  1  0
 10  9  2  0
 11 12  2  0
 12  2  1  0
 13 14  1  0
 14 15  2  0
 14 16  1  0
 17 16  1  6
 17 19  1  0
 17 18  1  0
 18  9  1  0
 19 21  1  0
 20 19  2  0
 21 22  1  0
 22 23  1  1
 22 33  1  0
 24 23  1  0
 25 24  2  0
 26 27  1  0
 26 25  1  0
 27 32  2  0
 28 27  1  0
 28 29  2  0
 29 30  1  0
 30 31  2  0
 32 24  1  0
 32 31  1  0
 33 34  2  0
 33 35  1  0
M  END
$$$$
