YNW.pdb
     RDKit          3D

 35 37  0  0  1  0  0  0  0  0999 V2000
   21.7423  -11.6940  -16.2773 O   0  0  0  0  0  0  0  0  0  0  0  0
   22.1865  -13.0073  -16.1589 C   0  0  0  0  0  0  0  0  0  0  0  0
   21.5628  -13.9924  -16.9353 C   0  0  0  0  0  0  0  0  0  0  0  0
   21.9768  -15.3051  -16.8438 C   0  0  0  0  0  0  0  0  0  0  0  0
   22.9976  -15.6398  -15.9925 C   0  0  0  0  0  0  0  0  0  0  0  0
   23.4415  -17.0421  -15.8948 C   0  0  0  0  0  0  0  0  0  0  0  0
   24.7608  -17.2025  -16.6593 C   0  0  2  0  0  0  0  0  0  0  0  0
   24.5766  -16.9421  -18.0494 N   0  0  0  0  0  0  0  0  0  0  0  0
   25.2565  -18.6060  -16.4371 C   0  0  0  0  0  0  0  0  0  0  0  0
   24.8579  -19.5185  -17.1788 O   0  0  0  0  0  0  0  0  0  0  0  0
   23.6024  -14.6605  -15.2342 C   0  0  0  0  0  0  0  0  0  0  0  0
   23.2072  -13.3379  -15.3069 C   0  0  0  0  0  0  0  0  0  0  0  0
   28.4820  -22.4486  -14.9701 N   0  0  0  0  0  0  0  0  0  0  0  0
   28.8886  -21.1734  -14.4128 C   0  0  0  0  0  0  0  0  0  0  0  0
   30.0298  -21.1370  -13.9741 O   0  0  0  0  0  0  0  0  0  0  0  0
   27.9308  -20.1194  -14.4357 C   0  0  0  0  0  0  0  0  0  0  0  0
   26.5941  -20.2568  -15.0483 C   0  0  2  0  0  0  0  0  0  0  0  0
   26.1687  -18.8587  -15.3861 N   0  0  0  0  0  0  0  0  0  0  0  0
   25.5250  -20.8979  -14.2890 C   0  0  0  0  0  0  0  0  0  0  0  0
   24.3082  -20.4813  -14.4462 O   0  0  0  0  0  0  0  0  0  0  0  0
   25.6398  -21.9523  -13.3782 N   0  0  0  0  0  0  0  0  0  0  0  0
   25.3687  -21.7521  -11.9326 C   0  0  1  0  0  0  0  0  0  0  0  0
   26.6885  -21.2910  -11.3905 C   0  0  0  0  0  0  0  0  0  0  0  0
   26.6161  -20.8903   -9.9796 C   0  0  0  0  0  0  0  0  0  0  0  0
   25.4622  -20.4741   -9.2888 C   0  0  0  0  0  0  0  0  0  0  0  0
   25.7844  -20.1575   -8.0277 N   0  0  0  0  0  0  0  0  0  0  0  0
   27.1079  -20.3375   -7.8185 C   0  0  0  0  0  0  0  0  0  0  0  0
   27.8842  -20.1627   -6.6918 C   0  0  0  0  0  0  0  0  0  0  0  0
   29.2233  -20.4561   -6.7837 C   0  0  0  0  0  0  0  0  0  0  0  0
   29.7444  -20.9087   -7.9779 C   0  0  0  0  0  0  0  0  0  0  0  0
   28.9601  -21.0769   -9.0905 C   0  0  0  0  0  0  0  0  0  0  0  0
   27.6145  -20.7916   -9.0326 C   0  0  0  0  0  0  0  0  0  0  0  0
   24.2754  -20.7964  -11.7429 C   0  0  0  0  0  0  0  0  0  0  0  0
   23.1930  -21.2078  -11.2061 O   0  0  0  0  0  0  0  0  0  0  0  0
   24.3110  -19.4638  -12.0926 O   0  0  0  0  0  0  0  0  0  0  0  0
  2  1  1  0
  3  2  2  0
  4  3  1  0
  5 11  1  0
  5  4  2  0
  6  5  1  0
  7  8  1  6
  7  6  1  0
  9  7  1  0
 10  9  2  0
 11 12  2  0
 12  2  1  0
 13 14  1  0
 14 15  2  0
 14 16  1  0
 17 16  1  1
 17 19  1  0
 17 18  1  0
 18  9  1  0
 19 21  1  0
 20 19  2  0
 21 22  1  0
 22 23  1  1
 22 33  1  0
 24 23  1  0
 25 24  2  0
 26 27  1  0
 26 25  1  0
 27 32  2  0
 28 27  1  0
 28 29  2  0
 29 30  1  0
 30 31  2  0
 32 24  1  0
 32 31  1  0
 33 34  2  0
 33 35  1  0
M  END
$$$$
