NFT.pdb
     RDKit          3D

 27 27  0  0  1  0  0  0  0  0999 V2000
    9.6052  -19.3158   17.6419 N   0  0  0  0  0  0  0  0  0  0  0  0
    8.7611  -18.9001   18.6918 C   0  0  0  0  0  0  0  0  0  0  0  0
    7.5621  -19.2359   18.6912 O   0  0  0  0  0  0  0  0  0  0  0  0
    9.3022  -18.0716   19.7821 C   0  0  0  0  0  0  0  0  0  0  0  0
    8.5164  -16.7629   19.9028 C   0  0  2  0  0  0  0  0  0  0  0  0
    8.8551  -15.9807   18.7284 N   0  0  0  0  0  0  0  0  0  0  0  0
    8.9054  -16.0280   21.1277 C   0  0  0  0  0  0  0  0  0  0  0  0
   10.0890  -15.6280   21.2348 O   0  0  0  0  0  0  0  0  0  0  0  0
    7.9530  -15.7895   22.1462 N   0  0  0  0  0  0  0  0  0  0  0  0
    8.3175  -15.0098   23.3555 C   0  0  1  0  0  0  0  0  0  0  0  0
    7.1903  -14.0671   23.5649 C   0  0  0  0  0  0  0  0  0  0  0  0
    7.1848  -13.3005   24.8169 C   0  0  0  0  0  0  0  0  0  0  0  0
    6.3207  -13.6310   25.8363 C   0  0  0  0  0  0  0  0  0  0  0  0
    6.2879  -12.9719   27.0417 C   0  0  0  0  0  0  0  0  0  0  0  0
    7.1824  -11.9157   27.2267 C   0  0  0  0  0  0  0  0  0  0  0  0
    8.0545  -11.5660   26.2257 C   0  0  0  0  0  0  0  0  0  0  0  0
    8.0586  -12.2613   25.0106 C   0  0  0  0  0  0  0  0  0  0  0  0
    8.6115  -15.9819   24.3945 C   0  0  0  0  0  0  0  0  0  0  0  0
    7.7067  -16.8043   24.8086 O   0  0  0  0  0  0  0  0  0  0  0  0
   11.0248  -18.7483   24.3768 C   0  0  0  0  0  0  0  0  0  0  0  0
   11.2859  -18.0732   25.7036 C   0  0  1  0  0  0  0  0  0  0  0  0
   12.3745  -17.2230   25.5066 O   0  0  0  0  0  0  0  0  0  0  0  0
   10.0679  -17.2350   26.0181 C   0  0  2  0  0  0  0  0  0  0  0  0
    9.8482  -16.1834   25.0748 N   0  0  0  0  0  0  0  0  0  0  0  0
   10.2732  -16.6885   27.3621 C   0  0  0  0  0  0  0  0  0  0  0  0
   10.3888  -17.5280   28.4419 O   0  0  0  0  0  0  0  0  0  0  0  0
   10.3456  -15.4541   27.5486 O   0  0  0  0  0  0  0  0  0  0  0  0
  2  1  1  0
  3  2  2  0
  4  2  1  0
  4  5  1  0
  5  7  1  0
  5  6  1  6
  7  8  2  0
  9 10  1  0
  9  7  1  0
 10 18  1  0
 10 11  1  1
 12 11  1  0
 12 17  2  0
 13 12  1  0
 14 13  2  0
 14 15  1  0
 15 16  2  0
 16 17  1  0
 18 24  1  0
 18 19  2  0
 21 20  1  6
 21 23  1  0
 22 21  1  0
 23 25  1  0
 23 24  1  6
 25 27  2  0
 25 26  1  0
M  END
$$$$
