NFT.pdb
     RDKit          3D

 27 27  0  0  1  0  0  0  0  0999 V2000
    8.4622  -18.4894   18.7787 N   0  0  0  0  0  0  0  0  0  0  0  0
    9.2121  -19.0208   19.8478 C   0  0  0  0  0  0  0  0  0  0  0  0
    9.8284  -20.0923   19.6982 O   0  0  0  0  0  0  0  0  0  0  0  0
    9.2618  -18.3059   21.1339 C   0  0  0  0  0  0  0  0  0  0  0  0
    9.7973  -16.8848   20.9381 C   0  0  2  0  0  0  0  0  0  0  0  0
   11.1588  -17.0308   20.4574 N   0  0  0  0  0  0  0  0  0  0  0  0
    9.7915  -16.1405   22.2178 C   0  0  0  0  0  0  0  0  0  0  0  0
   10.8874  -15.9161   22.7844 O   0  0  0  0  0  0  0  0  0  0  0  0
    8.5696  -15.6984   22.7774 N   0  0  0  0  0  0  0  0  0  0  0  0
    8.5595  -14.8074   23.9645 C   0  0  1  0  0  0  0  0  0  0  0  0
    7.3307  -13.9868   23.8245 C   0  0  0  0  0  0  0  0  0  0  0  0
    7.0361  -13.0362   24.9038 C   0  0  0  0  0  0  0  0  0  0  0  0
    7.7296  -11.8510   25.0015 C   0  0  0  0  0  0  0  0  0  0  0  0
    7.4805  -10.9082   25.9697 C   0  0  0  0  0  0  0  0  0  0  0  0
    6.4699  -11.1806   26.8940 C   0  0  0  0  0  0  0  0  0  0  0  0
    5.7634  -12.3553   26.8186 C   0  0  0  0  0  0  0  0  0  0  0  0
    6.0458  -13.2923   25.8175 C   0  0  0  0  0  0  0  0  0  0  0  0
    8.6881  -15.6722   25.1249 C   0  0  0  0  0  0  0  0  0  0  0  0
    8.7283  -15.1801   26.3177 O   0  0  0  0  0  0  0  0  0  0  0  0
    6.5562  -18.8024   26.0376 C   0  0  0  0  0  0  0  0  0  0  0  0
    8.0115  -19.1659   26.2222 C   0  0  1  0  0  0  0  0  0  0  0  0
    8.4103  -19.8072   25.0489 O   0  0  0  0  0  0  0  0  0  0  0  0
    8.7766  -17.8683   26.3485 C   0  0  2  0  0  0  0  0  0  0  0  0
    8.7777  -17.0951   25.1459 N   0  0  0  0  0  0  0  0  0  0  0  0
   10.1444  -18.2260   26.7336 C   0  0  0  0  0  0  0  0  0  0  0  0
   10.3753  -18.9591   27.8708 O   0  0  0  0  0  0  0  0  0  0  0  0
   11.1206  -17.8711   26.0373 O   0  0  0  0  0  0  0  0  0  0  0  0
  2  1  1  0
  3  2  2  0
  4  2  1  0
  4  5  1  0
  5  7  1  0
  5  6  1  1
  7  8  2  0
  9 10  1  0
  9  7  1  0
 10 18  1  0
 10 11  1  1
 12 11  1  0
 12 17  2  0
 13 12  1  0
 14 13  2  0
 14 15  1  0
 15 16  2  0
 16 17  1  0
 18 24  1  0
 18 19  2  0
 21 20  1  6
 21 23  1  0
 22 21  1  0
 23 25  1  0
 23 24  1  6
 25 27  2  0
 25 26  1  0
M  END
$$$$
