NFT.pdb
     RDKit          3D

 27 27  0  0  1  0  0  0  0  0999 V2000
   10.0947  -18.7783   19.2489 N   0  0  0  0  0  0  0  0  0  0  0  0
   10.8017  -17.5715   19.0717 C   0  0  0  0  0  0  0  0  0  0  0  0
   11.2705  -17.2879   17.9536 O   0  0  0  0  0  0  0  0  0  0  0  0
   10.9815  -16.6543   20.2094 C   0  0  0  0  0  0  0  0  0  0  0  0
   10.3682  -17.2486   21.4803 C   0  0  2  0  0  0  0  0  0  0  0  0
    9.0680  -17.7657   21.0955 N   0  0  0  0  0  0  0  0  0  0  0  0
   10.2092  -16.2089   22.5222 C   0  0  0  0  0  0  0  0  0  0  0  0
   11.2240  -15.5712   22.8908 O   0  0  0  0  0  0  0  0  0  0  0  0
    8.9351  -15.9511   23.0805 N   0  0  0  0  0  0  0  0  0  0  0  0
    8.7836  -15.0082   24.2168 C   0  0  1  0  0  0  0  0  0  0  0  0
    7.5660  -14.2179   23.9069 C   0  0  0  0  0  0  0  0  0  0  0  0
    7.1064  -13.2707   24.9300 C   0  0  0  0  0  0  0  0  0  0  0  0
    7.7132  -12.0431   25.0705 C   0  0  0  0  0  0  0  0  0  0  0  0
    7.3106  -11.1025   25.9878 C   0  0  0  0  0  0  0  0  0  0  0  0
    6.2299  -11.4229   26.8120 C   0  0  0  0  0  0  0  0  0  0  0  0
    5.6072  -12.6406   26.6921 C   0  0  0  0  0  0  0  0  0  0  0  0
    6.0460  -13.5738   25.7453 C   0  0  0  0  0  0  0  0  0  0  0  0
    8.7972  -15.8176   25.4233 C   0  0  0  0  0  0  0  0  0  0  0  0
    8.6880  -15.2729   26.5886 O   0  0  0  0  0  0  0  0  0  0  0  0
    6.7224  -19.0350   26.1920 C   0  0  0  0  0  0  0  0  0  0  0  0
    8.1504  -19.2985   26.6112 C   0  0  1  0  0  0  0  0  0  0  0  0
    8.7506  -19.9878   25.5570 O   0  0  0  0  0  0  0  0  0  0  0  0
    8.8226  -17.9521   26.7540 C   0  0  2  0  0  0  0  0  0  0  0  0
    8.9164  -17.2351   25.5207 N   0  0  0  0  0  0  0  0  0  0  0  0
   10.1559  -18.2078   27.3055 C   0  0  0  0  0  0  0  0  0  0  0  0
   11.2779  -17.8370   26.6073 O   0  0  0  0  0  0  0  0  0  0  0  0
   10.2947  -18.7661   28.4159 O   0  0  0  0  0  0  0  0  0  0  0  0
  2  1  1  0
  3  2  2  0
  4  2  1  0
  4  5  1  0
  5  7  1  0
  5  6  1  6
  7  8  2  0
  9 10  1  0
  9  7  1  0
 10 18  1  0
 10 11  1  6
 12 11  1  0
 12 17  2  0
 13 12  1  0
 14 13  2  0
 14 15  1  0
 15 16  2  0
 16 17  1  0
 18 24  1  0
 18 19  2  0
 21 20  1  6
 21 23  1  0
 22 21  1  0
 23 25  1  0
 23 24  1  6
 25 27  2  0
 25 26  1  0
M  END
$$$$
