NFT.pdb
     RDKit          3D

 27 27  0  0  1  0  0  0  0  0999 V2000
    6.6368  -16.9658   18.1361 N   0  0  0  0  0  0  0  0  0  0  0  0
    8.0167  -16.7118   18.2733 C   0  0  0  0  0  0  0  0  0  0  0  0
    8.7633  -16.7997   17.2807 O   0  0  0  0  0  0  0  0  0  0  0  0
    8.5664  -16.3444   19.5888 C   0  0  0  0  0  0  0  0  0  0  0  0
    7.6115  -15.4008   20.3253 C   0  0  2  0  0  0  0  0  0  0  0  0
    7.6075  -14.1621   19.5693 N   0  0  0  0  0  0  0  0  0  0  0  0
    8.0840  -15.1479   21.7054 C   0  0  0  0  0  0  0  0  0  0  0  0
    9.1014  -14.4332   21.8678 O   0  0  0  0  0  0  0  0  0  0  0  0
    7.3933  -15.7062   22.8067 N   0  0  0  0  0  0  0  0  0  0  0  0
    7.8506  -15.4500   24.1953 C   0  0  1  0  0  0  0  0  0  0  0  0
    6.6451  -14.9776   24.9210 C   0  0  0  0  0  0  0  0  0  0  0  0
    6.7258  -13.6598   25.5629 C   0  0  0  0  0  0  0  0  0  0  0  0
    7.2326  -13.5313   26.8363 C   0  0  0  0  0  0  0  0  0  0  0  0
    7.3617  -12.3236   27.4792 C   0  0  0  0  0  0  0  0  0  0  0  0
    6.9538  -11.1780   26.7930 C   0  0  0  0  0  0  0  0  0  0  0  0
    6.4448  -11.2788   25.5219 C   0  0  0  0  0  0  0  0  0  0  0  0
    6.3285  -12.5272   24.8992 C   0  0  0  0  0  0  0  0  0  0  0  0
    8.4967  -16.6715   24.6442 C   0  0  0  0  0  0  0  0  0  0  0  0
    7.8275  -17.7683   24.7695 O   0  0  0  0  0  0  0  0  0  0  0  0
   11.1171  -18.6679   23.0176 C   0  0  0  0  0  0  0  0  0  0  0  0
   11.6349  -18.4665   24.4231 C   0  0  1  0  0  0  0  0  0  0  0  0
   12.4792  -17.3565   24.3776 O   0  0  0  0  0  0  0  0  0  0  0  0
   10.4413  -18.1315   25.2880 C   0  0  2  0  0  0  0  0  0  0  0  0
    9.8679  -16.8565   24.9883 N   0  0  0  0  0  0  0  0  0  0  0  0
   10.9070  -18.1746   26.6768 C   0  0  0  0  0  0  0  0  0  0  0  0
   11.4282  -19.3325   27.1978 O   0  0  0  0  0  0  0  0  0  0  0  0
   10.8376  -17.1628   27.4084 O   0  0  0  0  0  0  0  0  0  0  0  0
  2  1  1  0
  3  2  2  0
  4  2  1  0
  4  5  1  0
  5  7  1  0
  5  6  1  6
  7  8  2  0
  9 10  1  0
  9  7  1  0
 10 18  1  0
 10 11  1  1
 12 11  1  0
 12 17  2  0
 13 12  1  0
 14 13  2  0
 14 15  1  0
 15 16  2  0
 16 17  1  0
 18 24  1  0
 18 19  2  0
 21 20  1  6
 21 23  1  0
 22 21  1  0
 23 25  1  0
 23 24  1  6
 25 27  2  0
 25 26  1  0
M  END
$$$$
