NFT.pdb
     RDKit          3D

 27 27  0  0  1  0  0  0  0  0999 V2000
    6.6499  -16.1937   19.0195 N   0  0  0  0  0  0  0  0  0  0  0  0
    7.7157  -17.0562   19.3477 C   0  0  0  0  0  0  0  0  0  0  0  0
    7.9039  -18.0891   18.6784 O   0  0  0  0  0  0  0  0  0  0  0  0
    8.5993  -16.7305   20.4795 C   0  0  0  0  0  0  0  0  0  0  0  0
    8.0679  -15.5141   21.2429 C   0  0  2  0  0  0  0  0  0  0  0  0
    8.5439  -14.3478   20.5223 N   0  0  0  0  0  0  0  0  0  0  0  0
    8.5867  -15.4967   22.6293 C   0  0  0  0  0  0  0  0  0  0  0  0
    9.7648  -15.1131   22.8226 O   0  0  0  0  0  0  0  0  0  0  0  0
    7.7608  -15.9063   23.7025 N   0  0  0  0  0  0  0  0  0  0  0  0
    8.2325  -15.7955   25.1054 C   0  0  1  0  0  0  0  0  0  0  0  0
    7.0689  -15.2775   25.8674 C   0  0  0  0  0  0  0  0  0  0  0  0
    6.9892  -13.8241   26.0583 C   0  0  0  0  0  0  0  0  0  0  0  0
    8.0313  -13.1359   26.6374 C   0  0  0  0  0  0  0  0  0  0  0  0
    8.0295  -11.7734   26.8162 C   0  0  0  0  0  0  0  0  0  0  0  0
    6.9067  -11.0651   26.3833 C   0  0  0  0  0  0  0  0  0  0  0  0
    5.8538  -11.7276   25.8026 C   0  0  0  0  0  0  0  0  0  0  0  0
    5.8918  -13.1172   25.6372 C   0  0  0  0  0  0  0  0  0  0  0  0
    8.7697  -17.0982   25.4594 C   0  0  0  0  0  0  0  0  0  0  0  0
    8.0037  -18.1350   25.5290 O   0  0  0  0  0  0  0  0  0  0  0  0
   11.4216  -19.2980   23.9156 C   0  0  0  0  0  0  0  0  0  0  0  0
   11.7944  -19.1897   25.3763 C   0  0  1  0  0  0  0  0  0  0  0  0
   12.7519  -18.1787   25.4656 O   0  0  0  0  0  0  0  0  0  0  0  0
   10.5527  -18.7469   26.1157 C   0  0  2  0  0  0  0  0  0  0  0  0
   10.1235  -17.4305   25.7594 N   0  0  0  0  0  0  0  0  0  0  0  0
   10.8703  -18.8173   27.5445 C   0  0  0  0  0  0  0  0  0  0  0  0
   11.2287  -20.0122   28.1171 O   0  0  0  0  0  0  0  0  0  0  0  0
   10.8201  -17.7957   28.2640 O   0  0  0  0  0  0  0  0  0  0  0  0
  2  1  1  0
  3  2  2  0
  4  2  1  0
  4  5  1  0
  5  7  1  0
  5  6  1  6
  7  8  2  0
  9 10  1  0
  9  7  1  0
 10 18  1  0
 10 11  1  1
 12 11  1  0
 12 17  2  0
 13 12  1  0
 14 13  2  0
 14 15  1  0
 15 16  2  0
 16 17  1  0
 18 24  1  0
 18 19  2  0
 21 20  1  6
 21 23  1  0
 22 21  1  0
 23 25  1  0
 23 24  1  6
 25 27  2  0
 25 26  1  0
M  END
$$$$
