NFT.pdb
     RDKit          3D

 27 27  0  0  1  0  0  0  0  0999 V2000
   10.6242  -18.3177   15.3406 N   0  0  0  0  0  0  0  0  0  0  0  0
   10.5689  -18.8395   16.6492 C   0  0  0  0  0  0  0  0  0  0  0  0
   10.2225  -20.0219   16.8293 O   0  0  0  0  0  0  0  0  0  0  0  0
   10.9207  -17.9835   17.7943 C   0  0  0  0  0  0  0  0  0  0  0  0
    9.7469  -17.8862   18.7727 C   0  0  2  0  0  0  0  0  0  0  0  0
    8.6736  -17.2303   18.0490 N   0  0  0  0  0  0  0  0  0  0  0  0
   10.1184  -17.0840   19.9602 C   0  0  0  0  0  0  0  0  0  0  0  0
   11.1530  -16.3776   19.9052 O   0  0  0  0  0  0  0  0  0  0  0  0
    9.3149  -17.1229   21.1239 N   0  0  0  0  0  0  0  0  0  0  0  0
    9.6368  -16.2691   22.2946 C   0  0  1  0  0  0  0  0  0  0  0  0
    8.3823  -15.5363   22.5984 C   0  0  0  0  0  0  0  0  0  0  0  0
    7.9714  -14.4941   21.6498 C   0  0  0  0  0  0  0  0  0  0  0  0
    6.9533  -14.7260   20.7527 C   0  0  0  0  0  0  0  0  0  0  0  0
    6.5033  -13.7823   19.8608 C   0  0  0  0  0  0  0  0  0  0  0  0
    7.1200  -12.5296   19.8776 C   0  0  0  0  0  0  0  0  0  0  0  0
    8.1377  -12.2726   20.7624 C   0  0  0  0  0  0  0  0  0  0  0  0
    8.5692  -13.2597   21.6565 C   0  0  0  0  0  0  0  0  0  0  0  0
   10.1858  -17.1548   23.3071 C   0  0  0  0  0  0  0  0  0  0  0  0
    9.4758  -18.1089   23.8093 O   0  0  0  0  0  0  0  0  0  0  0  0
   12.8907  -19.5645   23.0893 C   0  0  0  0  0  0  0  0  0  0  0  0
   13.2382  -18.7956   24.3432 C   0  0  1  0  0  0  0  0  0  0  0  0
   14.1670  -17.8249   23.9665 O   0  0  0  0  0  0  0  0  0  0  0  0
   11.9739  -18.1043   24.8000 C   0  0  2  0  0  0  0  0  0  0  0  0
   11.4960  -17.1302   23.8690 N   0  0  0  0  0  0  0  0  0  0  0  0
   12.2826  -17.4790   26.0888 C   0  0  0  0  0  0  0  0  0  0  0  0
   12.6797  -18.2470   27.1548 O   0  0  0  0  0  0  0  0  0  0  0  0
   12.1895  -16.2411   26.2399 O   0  0  0  0  0  0  0  0  0  0  0  0
  2  1  1  0
  3  2  2  0
  4  2  1  0
  4  5  1  0
  5  7  1  0
  5  6  1  6
  7  8  2  0
  9 10  1  0
  9  7  1  0
 10 18  1  0
 10 11  1  1
 12 11  1  0
 12 17  2  0
 13 12  1  0
 14 13  2  0
 14 15  1  0
 15 16  2  0
 16 17  1  0
 18 24  1  0
 18 19  2  0
 21 20  1  6
 21 23  1  0
 22 21  1  0
 23 25  1  0
 23 24  1  6
 25 27  2  0
 25 26  1  0
M  END
$$$$
