NFT.pdb
     RDKit          3D

 27 27  0  0  1  0  0  0  0  0999 V2000
   10.9471  -18.7166   18.4936 N   0  0  0  0  0  0  0  0  0  0  0  0
   10.7815  -17.3740   18.0963 C   0  0  0  0  0  0  0  0  0  0  0  0
   11.3288  -16.9652   17.0553 O   0  0  0  0  0  0  0  0  0  0  0  0
    9.9630  -16.4639   18.9146 C   0  0  0  0  0  0  0  0  0  0  0  0
    9.5018  -17.1626   20.1966 C   0  0  2  0  0  0  0  0  0  0  0  0
    8.0960  -17.4674   20.0050 N   0  0  0  0  0  0  0  0  0  0  0  0
    9.6698  -16.2737   21.3685 C   0  0  0  0  0  0  0  0  0  0  0  0
   10.8263  -15.8958   21.6719 O   0  0  0  0  0  0  0  0  0  0  0  0
    8.5421  -15.8675   22.1201 N   0  0  0  0  0  0  0  0  0  0  0  0
    8.7078  -15.0829   23.3691 C   0  0  1  0  0  0  0  0  0  0  0  0
    7.5379  -14.1705   23.4135 C   0  0  0  0  0  0  0  0  0  0  0  0
    7.3031  -13.4465   24.6688 C   0  0  0  0  0  0  0  0  0  0  0  0
    6.3042  -13.8428   25.5292 C   0  0  0  0  0  0  0  0  0  0  0  0
    6.0543  -13.2256   26.7313 C   0  0  0  0  0  0  0  0  0  0  0  0
    6.8630  -12.1432   27.0839 C   0  0  0  0  0  0  0  0  0  0  0  0
    7.8661  -11.7280   26.2435 C   0  0  0  0  0  0  0  0  0  0  0  0
    8.0907  -12.3821   25.0263 C   0  0  0  0  0  0  0  0  0  0  0  0
    8.8743  -16.0506   24.4399 C   0  0  0  0  0  0  0  0  0  0  0  0
    7.9693  -16.9403   24.6766 O   0  0  0  0  0  0  0  0  0  0  0  0
   11.1208  -18.7450   24.6305 C   0  0  0  0  0  0  0  0  0  0  0  0
   11.3231  -18.1250   25.9939 C   0  0  1  0  0  0  0  0  0  0  0  0
   12.4493  -17.3074   25.8927 O   0  0  0  0  0  0  0  0  0  0  0  0
   10.1167  -17.2556   26.2654 C   0  0  2  0  0  0  0  0  0  0  0  0
    9.9767  -16.1790   25.3351 N   0  0  0  0  0  0  0  0  0  0  0  0
   10.2705  -16.7426   27.6294 C   0  0  0  0  0  0  0  0  0  0  0  0
   10.4092  -17.6092   28.6847 O   0  0  0  0  0  0  0  0  0  0  0  0
   10.2772  -15.5126   27.8553 O   0  0  0  0  0  0  0  0  0  0  0  0
  2  1  1  0
  3  2  2  0
  4  2  1  0
  4  5  1  0
  5  7  1  0
  5  6  1  6
  7  8  2  0
  9 10  1  0
  9  7  1  0
 10 18  1  0
 10 11  1  1
 12 11  1  0
 12 17  2  0
 13 12  1  0
 14 13  2  0
 14 15  1  0
 15 16  2  0
 16 17  1  0
 18 24  1  0
 18 19  2  0
 21 20  1  6
 21 23  1  0
 22 21  1  0
 23 25  1  0
 23 24  1  6
 25 27  2  0
 25 26  1  0
M  END
$$$$
