NFT.pdb
     RDKit          3D

 27 27  0  0  1  0  0  0  0  0999 V2000
   12.6204  -17.7304   18.7366 N   0  0  0  0  0  0  0  0  0  0  0  0
   11.3054  -17.4913   19.1853 C   0  0  0  0  0  0  0  0  0  0  0  0
   10.3631  -18.1621   18.7244 O   0  0  0  0  0  0  0  0  0  0  0  0
   11.0545  -16.4500   20.1956 C   0  0  0  0  0  0  0  0  0  0  0  0
   10.5583  -17.0772   21.5014 C   0  0  2  0  0  0  0  0  0  0  0  0
    9.2823  -17.6950   21.1913 N   0  0  0  0  0  0  0  0  0  0  0  0
   10.3774  -16.0430   22.5451 C   0  0  0  0  0  0  0  0  0  0  0  0
   11.3824  -15.3993   22.9300 O   0  0  0  0  0  0  0  0  0  0  0  0
    9.0940  -15.7969   23.0871 N   0  0  0  0  0  0  0  0  0  0  0  0
    8.9255  -14.8949   24.2537 C   0  0  1  0  0  0  0  0  0  0  0  0
    7.6624  -14.1589   23.9972 C   0  0  0  0  0  0  0  0  0  0  0  0
    7.1517  -13.3110   25.0814 C   0  0  0  0  0  0  0  0  0  0  0  0
    6.1486  -13.7618   25.9095 C   0  0  0  0  0  0  0  0  0  0  0  0
    5.6492  -13.0285   26.9588 C   0  0  0  0  0  0  0  0  0  0  0  0
    6.1971  -11.7640   27.1839 C   0  0  0  0  0  0  0  0  0  0  0  0
    7.1985  -11.2909   26.3725 C   0  0  0  0  0  0  0  0  0  0  0  0
    7.6818  -12.0673   25.3125 C   0  0  0  0  0  0  0  0  0  0  0  0
    9.0112  -15.7357   25.4355 C   0  0  0  0  0  0  0  0  0  0  0  0
    9.0935  -15.2165   26.6145 O   0  0  0  0  0  0  0  0  0  0  0  0
    6.7970  -18.9338   26.1302 C   0  0  0  0  0  0  0  0  0  0  0  0
    8.2183  -19.2315   26.5490 C   0  0  1  0  0  0  0  0  0  0  0  0
    8.8076  -19.9176   25.4866 O   0  0  0  0  0  0  0  0  0  0  0  0
    8.9167  -17.9009   26.7126 C   0  0  2  0  0  0  0  0  0  0  0  0
    9.0120  -17.1604   25.4933 N   0  0  0  0  0  0  0  0  0  0  0  0
   10.2504  -18.1923   27.2453 C   0  0  0  0  0  0  0  0  0  0  0  0
   10.3909  -18.8697   28.4307 O   0  0  0  0  0  0  0  0  0  0  0  0
   11.2790  -17.8302   26.6330 O   0  0  0  0  0  0  0  0  0  0  0  0
  2  1  1  0
  3  2  2  0
  4  2  1  0
  4  5  1  0
  5  7  1  0
  5  6  1  6
  7  8  2  0
  9 10  1  0
  9  7  1  0
 10 18  1  0
 10 11  1  6
 12 11  1  0
 12 17  2  0
 13 12  1  0
 14 13  2  0
 14 15  1  0
 15 16  2  0
 16 17  1  0
 18 24  1  0
 18 19  2  0
 21 20  1  6
 21 23  1  0
 22 21  1  0
 23 25  1  0
 23 24  1  6
 25 27  2  0
 25 26  1  0
M  END
$$$$
