NFT.pdb
     RDKit          3D

 27 27  0  0  1  0  0  0  0  0999 V2000
    6.9526  -16.4522   17.8336 N   0  0  0  0  0  0  0  0  0  0  0  0
    8.0344  -15.5668   18.0168 C   0  0  0  0  0  0  0  0  0  0  0  0
    8.4599  -14.9028   17.0533 O   0  0  0  0  0  0  0  0  0  0  0  0
    8.6540  -15.4329   19.3457 C   0  0  0  0  0  0  0  0  0  0  0  0
    7.8406  -14.4780   20.2238 C   0  0  2  0  0  0  0  0  0  0  0  0
    8.0177  -13.1561   19.6516 N   0  0  0  0  0  0  0  0  0  0  0  0
    8.3379  -14.4947   21.6181 C   0  0  0  0  0  0  0  0  0  0  0  0
    9.4399  -13.9507   21.8668 O   0  0  0  0  0  0  0  0  0  0  0  0
    7.5764  -15.1141   22.6369 N   0  0  0  0  0  0  0  0  0  0  0  0
    8.0663  -15.1405   24.0378 C   0  0  1  0  0  0  0  0  0  0  0  0
    6.8755  -14.8421   24.8720 C   0  0  0  0  0  0  0  0  0  0  0  0
    6.8528  -13.5480   25.5648 C   0  0  0  0  0  0  0  0  0  0  0  0
    5.7406  -13.1524   26.2730 C   0  0  0  0  0  0  0  0  0  0  0  0
    5.6688  -11.9682   26.9663 C   0  0  0  0  0  0  0  0  0  0  0  0
    6.7887  -11.1345   26.9417 C   0  0  0  0  0  0  0  0  0  0  0  0
    7.9106  -11.5057   26.2428 C   0  0  0  0  0  0  0  0  0  0  0  0
    7.9465  -12.7206   25.5482 C   0  0  0  0  0  0  0  0  0  0  0  0
    8.7336  -16.4191   24.2127 C   0  0  0  0  0  0  0  0  0  0  0  0
    8.0614  -17.5211   24.2310 O   0  0  0  0  0  0  0  0  0  0  0  0
   11.3637  -18.0289   22.1164 C   0  0  0  0  0  0  0  0  0  0  0  0
   11.8842  -18.1563   23.5296 C   0  0  1  0  0  0  0  0  0  0  0  0
   12.7739  -17.0984   23.7196 O   0  0  0  0  0  0  0  0  0  0  0  0
   10.7024  -17.9664   24.4527 C   0  0  2  0  0  0  0  0  0  0  0  0
   10.1299  -16.6587   24.3740 N   0  0  0  0  0  0  0  0  0  0  0  0
   11.1846  -18.2382   25.8095 C   0  0  0  0  0  0  0  0  0  0  0  0
   11.6442  -19.4873   26.1448 O   0  0  0  0  0  0  0  0  0  0  0  0
   11.1853  -17.3420   26.6816 O   0  0  0  0  0  0  0  0  0  0  0  0
  2  1  1  0
  3  2  2  0
  4  2  1  0
  4  5  1  0
  5  7  1  0
  5  6  1  6
  7  8  2  0
  9 10  1  0
  9  7  1  0
 10 18  1  0
 10 11  1  1
 12 11  1  0
 12 17  2  0
 13 12  1  0
 14 13  2  0
 14 15  1  0
 15 16  2  0
 16 17  1  0
 18 24  1  0
 18 19  2  0
 21 20  1  6
 21 23  1  0
 22 21  1  0
 23 25  1  0
 23 24  1  1
 25 27  2  0
 25 26  1  0
M  END
$$$$
