NFT.pdb
     RDKit          3D

 27 27  0  0  1  0  0  0  0  0999 V2000
    6.0396  -23.3067   22.7528 N   0  0  0  0  0  0  0  0  0  0  0  0
    6.0667  -22.2657   23.7032 C   0  0  0  0  0  0  0  0  0  0  0  0
    5.6162  -22.4612   24.8474 O   0  0  0  0  0  0  0  0  0  0  0  0
    6.6270  -20.9543   23.3371 C   0  0  0  0  0  0  0  0  0  0  0  0
    5.5551  -19.8655   23.4369 C   0  0  2  0  0  0  0  0  0  0  0  0
    4.7217  -20.0124   22.2580 N   0  0  0  0  0  0  0  0  0  0  0  0
    6.1731  -18.5203   23.4532 C   0  0  0  0  0  0  0  0  0  0  0  0
    6.4982  -17.9980   22.3605 O   0  0  0  0  0  0  0  0  0  0  0  0
    6.3860  -17.8507   24.6811 N   0  0  0  0  0  0  0  0  0  0  0  0
    7.0503  -16.5238   24.7141 C   0  0  1  0  0  0  0  0  0  0  0  0
    6.4210  -15.8018   25.8481 C   0  0  0  0  0  0  0  0  0  0  0  0
    6.9227  -14.4539   26.1423 C   0  0  0  0  0  0  0  0  0  0  0  0
    8.0036  -14.2757   26.9760 C   0  0  0  0  0  0  0  0  0  0  0  0
    8.5380  -13.0434   27.2663 C   0  0  0  0  0  0  0  0  0  0  0  0
    7.9437  -11.9250   26.6782 C   0  0  0  0  0  0  0  0  0  0  0  0
    6.8646  -12.0755   25.8430 C   0  0  0  0  0  0  0  0  0  0  0  0
    6.3476  -13.3477   25.5708 C   0  0  0  0  0  0  0  0  0  0  0  0
    8.4789  -16.7837   24.7639 C   0  0  0  0  0  0  0  0  0  0  0  0
    8.9779  -17.5788   25.6501 O   0  0  0  0  0  0  0  0  0  0  0  0
   10.7076  -17.6581   21.7044 C   0  0  0  0  0  0  0  0  0  0  0  0
   11.4977  -16.6987   22.5644 C   0  0  1  0  0  0  0  0  0  0  0  0
   11.3398  -15.4352   21.9939 O   0  0  0  0  0  0  0  0  0  0  0  0
   10.8507  -16.6972   23.9305 C   0  0  2  0  0  0  0  0  0  0  0  0
    9.4912  -16.2553   23.9101 N   0  0  0  0  0  0  0  0  0  0  0  0
   11.6656  -15.8217   24.7772 C   0  0  0  0  0  0  0  0  0  0  0  0
   12.9744  -16.1372   25.0440 O   0  0  0  0  0  0  0  0  0  0  0  0
   11.1854  -14.7774   25.2698 O   0  0  0  0  0  0  0  0  0  0  0  0
  2  1  1  0
  3  2  2  0
  4  2  1  0
  4  5  1  0
  5  7  1  0
  5  6  1  6
  7  8  2  0
  9 10  1  0
  9  7  1  0
 10 18  1  0
 10 11  1  1
 12 11  1  0
 12 17  2  0
 13 12  1  0
 14 13  2  0
 14 15  1  0
 15 16  2  0
 16 17  1  0
 18 24  1  0
 18 19  2  0
 21 20  1  6
 21 23  1  0
 22 21  1  0
 23 25  1  0
 23 24  1  6
 25 27  2  0
 25 26  1  0
M  END
$$$$
