NFT.pdb
     RDKit          3D

 27 27  0  0  1  0  0  0  0  0999 V2000
   10.3318  -19.9230   18.7147 N   0  0  0  0  0  0  0  0  0  0  0  0
    9.3931  -18.9960   19.2118 C   0  0  0  0  0  0  0  0  0  0  0  0
    8.3409  -18.7828   18.5811 O   0  0  0  0  0  0  0  0  0  0  0  0
    9.6626  -18.2859   20.4732 C   0  0  0  0  0  0  0  0  0  0  0  0
    9.3450  -16.7950   20.3286 C   0  0  2  0  0  0  0  0  0  0  0  0
   10.2833  -16.2771   19.3502 N   0  0  0  0  0  0  0  0  0  0  0  0
    9.5234  -16.0926   21.6195 C   0  0  0  0  0  0  0  0  0  0  0  0
   10.6888  -15.9064   22.0432 O   0  0  0  0  0  0  0  0  0  0  0  0
    8.3955  -15.6469   22.3480 N   0  0  0  0  0  0  0  0  0  0  0  0
    8.5618  -14.9425   23.6439 C   0  0  1  0  0  0  0  0  0  0  0  0
    7.3906  -14.0365   23.7473 C   0  0  0  0  0  0  0  0  0  0  0  0
    7.2044  -13.3285   25.0198 C   0  0  0  0  0  0  0  0  0  0  0  0
    6.2244  -13.7220   25.9029 C   0  0  0  0  0  0  0  0  0  0  0  0
    6.0198  -13.1198   27.1210 C   0  0  0  0  0  0  0  0  0  0  0  0
    6.8563  -12.0563   27.4662 C   0  0  0  0  0  0  0  0  0  0  0  0
    7.8413  -11.6443   26.6032 C   0  0  0  0  0  0  0  0  0  0  0  0
    8.0196  -12.2827   25.3702 C   0  0  0  0  0  0  0  0  0  0  0  0
    8.7310  -15.9757   24.6512 C   0  0  0  0  0  0  0  0  0  0  0  0
    7.8082  -16.8533   24.8628 O   0  0  0  0  0  0  0  0  0  0  0  0
   10.8272  -18.7997   24.6265 C   0  0  0  0  0  0  0  0  0  0  0  0
   11.1480  -18.2179   25.9841 C   0  0  1  0  0  0  0  0  0  0  0  0
   12.2880  -17.4310   25.8171 O   0  0  0  0  0  0  0  0  0  0  0  0
    9.9919  -17.3207   26.3627 C   0  0  2  0  0  0  0  0  0  0  0  0
    9.8542  -16.1858   25.5041 N   0  0  0  0  0  0  0  0  0  0  0  0
   10.2281  -16.8966   27.7453 C   0  0  0  0  0  0  0  0  0  0  0  0
   10.3435  -17.8284   28.7464 O   0  0  0  0  0  0  0  0  0  0  0  0
   10.3276  -15.6845   28.0364 O   0  0  0  0  0  0  0  0  0  0  0  0
  2  1  1  0
  3  2  2  0
  4  2  1  0
  4  5  1  0
  5  7  1  0
  5  6  1  6
  7  8  2  0
  9 10  1  0
  9  7  1  0
 10 18  1  0
 10 11  1  1
 12 11  1  0
 12 17  2  0
 13 12  1  0
 14 13  2  0
 14 15  1  0
 15 16  2  0
 16 17  1  0
 18 24  1  0
 18 19  2  0
 21 20  1  6
 21 23  1  0
 22 21  1  0
 23 25  1  0
 23 24  1  6
 25 27  2  0
 25 26  1  0
M  END
$$$$
