NFT.pdb
     RDKit          3D

 27 27  0  0  1  0  0  0  0  0999 V2000
    8.5620  -18.2688   17.9246 N   0  0  0  0  0  0  0  0  0  0  0  0
    8.3356  -18.9658   19.1290 C   0  0  0  0  0  0  0  0  0  0  0  0
    7.9342  -20.1440   19.0955 O   0  0  0  0  0  0  0  0  0  0  0  0
    8.5747  -18.2965   20.4184 C   0  0  0  0  0  0  0  0  0  0  0  0
    8.9264  -16.8222   20.2011 C   0  0  2  0  0  0  0  0  0  0  0  0
   10.1199  -16.8110   19.3755 N   0  0  0  0  0  0  0  0  0  0  0  0
    9.2002  -16.1519   21.4924 C   0  0  0  0  0  0  0  0  0  0  0  0
   10.3777  -16.1417   21.9234 O   0  0  0  0  0  0  0  0  0  0  0  0
    8.1474  -15.5406   22.2132 N   0  0  0  0  0  0  0  0  0  0  0  0
    8.4176  -14.8215   23.4832 C   0  0  1  0  0  0  0  0  0  0  0  0
    7.3092  -13.8439   23.6202 C   0  0  0  0  0  0  0  0  0  0  0  0
    7.2023  -13.1305   24.8987 C   0  0  0  0  0  0  0  0  0  0  0  0
    8.0440  -12.0798   25.1865 C   0  0  0  0  0  0  0  0  0  0  0  0
    7.9745  -11.3541   26.3514 C   0  0  0  0  0  0  0  0  0  0  0  0
    6.9955  -11.7126   27.2802 C   0  0  0  0  0  0  0  0  0  0  0  0
    6.1436  -12.7566   27.0175 C   0  0  0  0  0  0  0  0  0  0  0  0
    6.2448  -13.4730   25.8190 C   0  0  0  0  0  0  0  0  0  0  0  0
    8.5729  -15.8424   24.5052 C   0  0  0  0  0  0  0  0  0  0  0  0
    7.6683  -16.7460   24.6831 O   0  0  0  0  0  0  0  0  0  0  0  0
   12.2489  -17.2281   25.6982 C   0  0  0  0  0  0  0  0  0  0  0  0
   10.9906  -18.0644   25.6582 C   0  0  1  0  0  0  0  0  0  0  0  0
   11.1906  -19.1214   26.5468 O   0  0  0  0  0  0  0  0  0  0  0  0
    9.8690  -17.1972   26.1823 C   0  0  2  0  0  0  0  0  0  0  0  0
    9.6631  -16.0129   25.4083 N   0  0  0  0  0  0  0  0  0  0  0  0
   10.2158  -16.8568   27.5647 C   0  0  0  0  0  0  0  0  0  0  0  0
   10.3243  -17.8412   28.5150 O   0  0  0  0  0  0  0  0  0  0  0  0
   10.4172  -15.6695   27.9018 O   0  0  0  0  0  0  0  0  0  0  0  0
  2  1  1  0
  3  2  2  0
  4  2  1  0
  4  5  1  0
  5  7  1  0
  5  6  1  6
  7  8  2  0
  9 10  1  0
  9  7  1  0
 10 18  1  0
 10 11  1  1
 12 11  1  0
 12 17  2  0
 13 12  1  0
 14 13  2  0
 14 15  1  0
 15 16  2  0
 16 17  1  0
 18 24  1  0
 18 19  2  0
 21 20  1  1
 21 23  1  0
 22 21  1  0
 23 25  1  0
 23 24  1  6
 25 27  2  0
 25 26  1  0
M  END
$$$$
