NFT.pdb
     RDKit          3D

 27 27  0  0  1  0  0  0  0  0999 V2000
    7.0182  -20.1328   20.1105 N   0  0  0  0  0  0  0  0  0  0  0  0
    7.8743  -19.1404   19.5911 C   0  0  0  0  0  0  0  0  0  0  0  0
    7.8801  -18.9071   18.3680 O   0  0  0  0  0  0  0  0  0  0  0  0
    8.7560  -18.3863   20.4976 C   0  0  0  0  0  0  0  0  0  0  0  0
    8.0532  -17.1232   21.0027 C   0  0  2  0  0  0  0  0  0  0  0  0
    7.8626  -16.2766   19.8396 N   0  0  0  0  0  0  0  0  0  0  0  0
    8.8882  -16.4229   22.0048 C   0  0  0  0  0  0  0  0  0  0  0  0
    9.8215  -15.6904   21.5990 O   0  0  0  0  0  0  0  0  0  0  0  0
    8.6276  -16.5855   23.3857 N   0  0  0  0  0  0  0  0  0  0  0  0
    9.3973  -15.8181   24.3965 C   0  0  1  0  0  0  0  0  0  0  0  0
    8.4577  -15.6124   25.5271 C   0  0  0  0  0  0  0  0  0  0  0  0
    9.0157  -15.0578   26.7665 C   0  0  0  0  0  0  0  0  0  0  0  0
    9.6453  -15.8751   27.6780 C   0  0  0  0  0  0  0  0  0  0  0  0
   10.2133  -15.4126   28.8406 C   0  0  0  0  0  0  0  0  0  0  0  0
   10.1401  -14.0418   29.0964 C   0  0  0  0  0  0  0  0  0  0  0  0
    9.5177  -13.2050   28.2035 C   0  0  0  0  0  0  0  0  0  0  0  0
    8.9502  -13.7132   27.0289 C   0  0  0  0  0  0  0  0  0  0  0  0
   10.6179  -16.5688   24.6363 C   0  0  0  0  0  0  0  0  0  0  0  0
   10.5815  -17.7357   25.1874 O   0  0  0  0  0  0  0  0  0  0  0  0
   12.8532  -17.8509   22.1173 C   0  0  0  0  0  0  0  0  0  0  0  0
   13.8135  -17.2177   23.0976 C   0  0  1  0  0  0  0  0  0  0  0  0
   14.1027  -15.9460   22.6017 O   0  0  0  0  0  0  0  0  0  0  0  0
   13.0723  -17.0697   24.4066 C   0  0  2  0  0  0  0  0  0  0  0  0
   11.9544  -16.1822   24.3244 N   0  0  0  0  0  0  0  0  0  0  0  0
   14.0475  -16.5822   25.3857 C   0  0  0  0  0  0  0  0  0  0  0  0
   15.1476  -17.3387   25.7045 O   0  0  0  0  0  0  0  0  0  0  0  0
   13.8955  -15.4745   25.9459 O   0  0  0  0  0  0  0  0  0  0  0  0
  2  1  1  0
  3  2  2  0
  4  2  1  0
  4  5  1  0
  5  7  1  0
  5  6  1  6
  7  8  2  0
  9 10  1  0
  9  7  1  0
 10 18  1  0
 10 11  1  1
 12 11  1  0
 12 17  2  0
 13 12  1  0
 14 13  2  0
 14 15  1  0
 15 16  2  0
 16 17  1  0
 18 24  1  0
 18 19  2  0
 21 20  1  6
 21 23  1  0
 22 21  1  0
 23 25  1  0
 23 24  1  6
 25 27  2  0
 25 26  1  0
M  END
$$$$
