NFT.pdb
     RDKit          3D

 27 27  0  0  1  0  0  0  0  0999 V2000
    9.1407  -15.9645   17.3013 N   0  0  0  0  0  0  0  0  0  0  0  0
    8.3197  -16.6163   18.2441 C   0  0  0  0  0  0  0  0  0  0  0  0
    7.2485  -17.1345   17.8777 O   0  0  0  0  0  0  0  0  0  0  0  0
    8.7338  -16.6800   19.6556 C   0  0  0  0  0  0  0  0  0  0  0  0
    8.0864  -15.5471   20.4568 C   0  0  2  0  0  0  0  0  0  0  0  0
    7.9395  -14.4358   19.5353 N   0  0  0  0  0  0  0  0  0  0  0  0
    8.9475  -15.1493   21.5934 C   0  0  0  0  0  0  0  0  0  0  0  0
    9.5672  -14.0614   21.5224 O   0  0  0  0  0  0  0  0  0  0  0  0
    9.0593  -15.9872   22.7279 N   0  0  0  0  0  0  0  0  0  0  0  0
    8.8543  -15.4431   24.0935 C   0  0  1  0  0  0  0  0  0  0  0  0
    7.5343  -14.7660   24.0485 C   0  0  0  0  0  0  0  0  0  0  0  0
    7.2897  -13.7131   25.0418 C   0  0  0  0  0  0  0  0  0  0  0  0
    7.8262  -12.4562   24.8763 C   0  0  0  0  0  0  0  0  0  0  0  0
    7.6097  -11.4214   25.7541 C   0  0  0  0  0  0  0  0  0  0  0  0
    6.8024  -11.6730   26.8653 C   0  0  0  0  0  0  0  0  0  0  0  0
    6.2552  -12.9179   27.0536 C   0  0  0  0  0  0  0  0  0  0  0  0
    6.4984  -13.9480   26.1372 C   0  0  0  0  0  0  0  0  0  0  0  0
    9.0315  -16.5582   25.0079 C   0  0  0  0  0  0  0  0  0  0  0  0
    8.0625  -17.3752   25.2533 O   0  0  0  0  0  0  0  0  0  0  0  0
   11.2601  -19.4139   24.6720 C   0  0  0  0  0  0  0  0  0  0  0  0
   11.5064  -18.9703   26.0957 C   0  0  1  0  0  0  0  0  0  0  0  0
   12.6503  -18.1718   26.0682 O   0  0  0  0  0  0  0  0  0  0  0  0
   10.3281  -18.1140   26.4999 C   0  0  2  0  0  0  0  0  0  0  0  0
   10.2093  -16.9172   25.7268 N   0  0  0  0  0  0  0  0  0  0  0  0
   10.5104  -17.7963   27.9187 C   0  0  0  0  0  0  0  0  0  0  0  0
   10.4996  -18.7952   28.8600 O   0  0  0  0  0  0  0  0  0  0  0  0
   10.6773  -16.6156   28.2955 O   0  0  0  0  0  0  0  0  0  0  0  0
  2  1  1  0
  3  2  2  0
  4  2  1  0
  4  5  1  0
  5  7  1  0
  5  6  1  6
  7  8  2  0
  9 10  1  0
  9  7  1  0
 10 18  1  0
 10 11  1  6
 12 11  1  0
 12 17  2  0
 13 12  1  0
 14 13  2  0
 14 15  1  0
 15 16  2  0
 16 17  1  0
 18 24  1  0
 18 19  2  0
 21 20  1  6
 21 23  1  0
 22 21  1  0
 23 25  1  0
 23 24  1  6
 25 27  2  0
 25 26  1  0
M  END
$$$$
