VHW.pdb
     RDKit          3D

 32 34  0  0  1  0  0  0  0  0999 V2000
    7.2904  -12.6507   19.8949 C   0  0  0  0  0  0  0  0  0  0  0  0
    8.0565  -13.5285   20.8409 C   0  0  1  0  0  0  0  0  0  0  0  0
    7.8699  -13.1880   22.2911 C   0  0  0  0  0  0  0  0  0  0  0  0
    7.9178  -14.9969   20.5325 C   0  0  2  0  0  0  0  0  0  0  0  0
    6.4889  -15.3017   20.7162 N   0  0  0  0  0  0  0  0  0  0  0  0
    8.6799  -15.8920   21.3953 C   0  0  0  0  0  0  0  0  0  0  0  0
    8.1127  -16.4815   22.3617 O   0  0  0  0  0  0  0  0  0  0  0  0
   10.0675  -16.1785   21.2472 N   0  0  0  0  0  0  0  0  0  0  0  0
   10.7475  -17.0867   22.1402 C   0  0  1  0  0  0  0  0  0  0  0  0
   11.9885  -17.6204   21.4956 C   0  0  0  0  0  0  0  0  0  0  0  0
   12.6952  -18.6064   22.3323 C   0  0  0  0  0  0  0  0  0  0  0  0
   12.3158  -19.0954   23.5592 C   0  0  0  0  0  0  0  0  0  0  0  0
   13.2632  -19.9739   23.9504 N   0  0  0  0  0  0  0  0  0  0  0  0
   14.2318  -20.0578   23.0103 C   0  0  0  0  0  0  0  0  0  0  0  0
   13.8538  -19.2032   22.0246 N   0  0  0  0  0  0  0  0  0  0  0  0
   11.0173  -16.4754   23.4672 C   0  0  0  0  0  0  0  0  0  0  0  0
   11.8028  -15.4865   23.5508 O   0  0  0  0  0  0  0  0  0  0  0  0
   10.4278  -16.9544   24.6551 N   0  0  0  0  0  0  0  0  0  0  0  0
   10.7240  -16.4818   25.9842 C   0  0  1  0  0  0  0  0  0  0  0  0
   10.2755  -15.0422   26.1647 C   0  0  0  0  0  0  0  0  0  0  0  0
    8.8150  -14.9061   25.9607 C   0  0  0  0  0  0  0  0  0  0  0  0
    7.9413  -15.9370   25.6994 C   0  0  0  0  0  0  0  0  0  0  0  0
    6.7158  -15.4146   25.5767 N   0  0  0  0  0  0  0  0  0  0  0  0
    6.7524  -14.0786   25.7481 C   0  0  0  0  0  0  0  0  0  0  0  0
    5.7704  -13.0984   25.7185 C   0  0  0  0  0  0  0  0  0  0  0  0
    6.0999  -11.7794   25.9321 C   0  0  0  0  0  0  0  0  0  0  0  0
    7.4187  -11.4176   26.1792 C   0  0  0  0  0  0  0  0  0  0  0  0
    8.3788  -12.4068   26.2038 C   0  0  0  0  0  0  0  0  0  0  0  0
    8.0863  -13.7352   25.9946 C   0  0  0  0  0  0  0  0  0  0  0  0
   10.0163  -17.3519   26.9526 C   0  0  0  0  0  0  0  0  0  0  0  0
    9.9653  -17.0738   28.1903 O   0  0  0  0  0  0  0  0  0  0  0  0
    9.3660  -18.5213   26.5730 O   0  0  0  0  0  0  0  0  0  0  0  0
  2  1  1  6
  3  2  1  0
  4  5  1  1
  4  2  1  0
  6  7  2  0
  6  4  1  0
  8  6  1  0
  9  8  1  0
  9 10  1  6
 11 15  1  0
 11 10  1  0
 12 11  2  0
 13 12  1  0
 13 14  1  0
 14 15  2  0
 16  9  1  0
 16 18  1  0
 17 16  2  0
 19 18  1  0
 19 30  1  0
 19 20  1  6
 21 20  1  0
 22 21  2  0
 23 24  1  0
 23 22  1  0
 24 29  2  0
 25 24  1  0
 25 26  2  0
 26 27  1  0
 27 28  2  0
 29 21  1  0
 29 28  1  0
 30 32  1  0
 31 30  2  0
M  END
$$$$
