VHW.pdb
     RDKit          3D

 32 34  0  0  1  0  0  0  0  0999 V2000
    8.3093  -12.9158   21.4397 C   0  0  0  0  0  0  0  0  0  0  0  0
    7.4991  -13.6740   20.4291 C   0  0  1  0  0  0  0  0  0  0  0  0
    6.8341  -12.8120   19.3954 C   0  0  0  0  0  0  0  0  0  0  0  0
    8.2245  -14.8657   19.8599 C   0  0  2  0  0  0  0  0  0  0  0  0
    7.2381  -15.5554   19.0116 N   0  0  0  0  0  0  0  0  0  0  0  0
    8.7180  -15.8249   20.8412 C   0  0  0  0  0  0  0  0  0  0  0  0
    7.9115  -16.5950   21.4409 O   0  0  0  0  0  0  0  0  0  0  0  0
   10.0857  -15.9840   21.2068 N   0  0  0  0  0  0  0  0  0  0  0  0
   10.4982  -16.9898   22.1569 C   0  0  1  0  0  0  0  0  0  0  0  0
   11.8340  -17.5488   21.7777 C   0  0  0  0  0  0  0  0  0  0  0  0
   12.2494  -18.6784   22.6281 C   0  0  0  0  0  0  0  0  0  0  0  0
   11.4871  -19.3741   23.5353 C   0  0  0  0  0  0  0  0  0  0  0  0
   12.2792  -20.3213   24.0809 N   0  0  0  0  0  0  0  0  0  0  0  0
   13.5201  -20.2486   23.5482 C   0  0  0  0  0  0  0  0  0  0  0  0
   13.4711  -19.2261   22.6556 N   0  0  0  0  0  0  0  0  0  0  0  0
   10.4709  -16.4887   23.5553 C   0  0  0  0  0  0  0  0  0  0  0  0
   11.0720  -15.4132   23.8447 O   0  0  0  0  0  0  0  0  0  0  0  0
    9.7943  -17.1676   24.5895 N   0  0  0  0  0  0  0  0  0  0  0  0
    9.8007  -16.7898   25.9805 C   0  0  1  0  0  0  0  0  0  0  0  0
    8.4110  -16.9003   26.5829 C   0  0  0  0  0  0  0  0  0  0  0  0
    7.5328  -15.8060   26.1092 C   0  0  0  0  0  0  0  0  0  0  0  0
    6.4191  -15.9570   25.3148 C   0  0  0  0  0  0  0  0  0  0  0  0
    5.8992  -14.7428   25.1025 N   0  0  0  0  0  0  0  0  0  0  0  0
    6.6304  -13.7997   25.7285 C   0  0  0  0  0  0  0  0  0  0  0  0
    6.5114  -12.4198   25.8150 C   0  0  0  0  0  0  0  0  0  0  0  0
    7.4241  -11.6888   26.5407 C   0  0  0  0  0  0  0  0  0  0  0  0
    8.4726  -12.3262   27.1931 C   0  0  0  0  0  0  0  0  0  0  0  0
    8.5727  -13.6977   27.0939 C   0  0  0  0  0  0  0  0  0  0  0  0
    7.6792  -14.4606   26.3775 C   0  0  0  0  0  0  0  0  0  0  0  0
   10.7314  -17.6909   26.6999 C   0  0  0  0  0  0  0  0  0  0  0  0
   11.2379  -18.7135   26.1435 O   0  0  0  0  0  0  0  0  0  0  0  0
   11.1090  -17.4778   28.0214 O   0  0  0  0  0  0  0  0  0  0  0  0
  2  1  1  6
  3  2  1  0
  4  5  1  6
  4  2  1  0
  6  7  2  0
  6  4  1  0
  8  6  1  0
  9  8  1  0
  9 10  1  6
 11 15  1  0
 11 10  1  0
 12 11  2  0
 13 12  1  0
 13 14  1  0
 14 15  2  0
 16  9  1  0
 16 18  1  0
 17 16  2  0
 19 18  1  0
 19 30  1  0
 19 20  1  1
 21 20  1  0
 22 21  2  0
 23 24  1  0
 23 22  1  0
 24 29  2  0
 25 24  1  0
 25 26  2  0
 26 27  1  0
 27 28  2  0
 29 21  1  0
 29 28  1  0
 30 32  1  0
 31 30  2  0
M  END
$$$$
