VHW.pdb
     RDKit          3D

 32 34  0  0  1  0  0  0  0  0999 V2000
   15.8862  -15.9853   19.2576 C   0  0  0  0  0  0  0  0  0  0  0  0
   14.7810  -15.6018   20.1978 C   0  0  1  0  0  0  0  0  0  0  0  0
   15.2016  -14.6797   21.3053 C   0  0  0  0  0  0  0  0  0  0  0  0
   13.5206  -15.1763   19.4902 C   0  0  2  0  0  0  0  0  0  0  0  0
   13.8571  -13.9086   18.8207 N   0  0  0  0  0  0  0  0  0  0  0  0
   12.3702  -14.9341   20.3529 C   0  0  0  0  0  0  0  0  0  0  0  0
   12.2808  -13.8539   21.0075 O   0  0  0  0  0  0  0  0  0  0  0  0
   11.2872  -15.8409   20.5384 N   0  0  0  0  0  0  0  0  0  0  0  0
   10.2294  -15.5663   21.4819 C   0  0  1  0  0  0  0  0  0  0  0  0
    8.8965  -15.8776   20.8761 C   0  0  0  0  0  0  0  0  0  0  0  0
    8.5103  -14.9318   19.8139 C   0  0  0  0  0  0  0  0  0  0  0  0
    9.2188  -13.8484   19.3529 C   0  0  0  0  0  0  0  0  0  0  0  0
    8.4826  -13.2741   18.3780 N   0  0  0  0  0  0  0  0  0  0  0  0
    7.3294  -13.9592   18.2057 C   0  0  0  0  0  0  0  0  0  0  0  0
    7.3749  -14.9758   19.1051 N   0  0  0  0  0  0  0  0  0  0  0  0
   10.4373  -16.2603   22.7790 C   0  0  0  0  0  0  0  0  0  0  0  0
   11.0644  -17.3593   22.8053 O   0  0  0  0  0  0  0  0  0  0  0  0
    9.9607  -15.7409   24.0002 N   0  0  0  0  0  0  0  0  0  0  0  0
   10.0166  -16.4149   25.2731 C   0  0  1  0  0  0  0  0  0  0  0  0
    9.6258  -15.4796   26.4039 C   0  0  0  0  0  0  0  0  0  0  0  0
    8.3364  -14.8078   26.1226 C   0  0  0  0  0  0  0  0  0  0  0  0
    7.2114  -15.4119   25.6090 C   0  0  0  0  0  0  0  0  0  0  0  0
    6.2596  -14.4785   25.4971 N   0  0  0  0  0  0  0  0  0  0  0  0
    6.7179  -13.2835   25.9186 C   0  0  0  0  0  0  0  0  0  0  0  0
    6.1339  -12.0274   26.0018 C   0  0  0  0  0  0  0  0  0  0  0  0
    6.8540  -10.9579   26.4830 C   0  0  0  0  0  0  0  0  0  0  0  0
    8.1720  -11.1265   26.8897 C   0  0  0  0  0  0  0  0  0  0  0  0
    8.7333  -12.3825   26.7983 C   0  0  0  0  0  0  0  0  0  0  0  0
    8.0440  -13.4744   26.3224 C   0  0  0  0  0  0  0  0  0  0  0  0
    9.0827  -17.5645   25.2288 C   0  0  0  0  0  0  0  0  0  0  0  0
    9.0304  -18.4215   26.1640 O   0  0  0  0  0  0  0  0  0  0  0  0
    8.2086  -17.7791   24.1685 O   0  0  0  0  0  0  0  0  0  0  0  0
  2  1  1  6
  3  2  1  0
  4  5  1  1
  4  2  1  0
  6  7  2  0
  6  4  1  0
  8  6  1  0
  9  8  1  0
  9 10  1  6
 11 15  1  0
 11 10  1  0
 12 11  2  0
 13 12  1  0
 13 14  1  0
 14 15  2  0
 16  9  1  0
 16 18  1  0
 17 16  2  0
 19 18  1  0
 19 30  1  0
 19 20  1  1
 21 20  1  0
 22 21  2  0
 23 24  1  0
 23 22  1  0
 24 29  2  0
 25 24  1  0
 25 26  2  0
 26 27  1  0
 27 28  2  0
 29 21  1  0
 29 28  1  0
 30 32  1  0
 31 30  2  0
M  END
$$$$
