VHW.pdb
     RDKit          3D

 32 34  0  0  1  0  0  0  0  0999 V2000
    8.7631  -12.6059   20.9318 C   0  0  0  0  0  0  0  0  0  0  0  0
    8.0130  -13.2649   19.8113 C   0  0  1  0  0  0  0  0  0  0  0  0
    7.5833  -12.3293   18.7187 C   0  0  0  0  0  0  0  0  0  0  0  0
    8.6734  -14.5253   19.3155 C   0  0  2  0  0  0  0  0  0  0  0  0
    7.7578  -15.0733   18.3008 N   0  0  0  0  0  0  0  0  0  0  0  0
    8.8908  -15.5559   20.3240 C   0  0  0  0  0  0  0  0  0  0  0  0
    7.9040  -16.1287   20.8728 O   0  0  0  0  0  0  0  0  0  0  0  0
   10.1686  -15.9991   20.7718 N   0  0  0  0  0  0  0  0  0  0  0  0
   10.2982  -17.0181   21.7864 C   0  0  1  0  0  0  0  0  0  0  0  0
   11.1868  -18.1225   21.3058 C   0  0  0  0  0  0  0  0  0  0  0  0
   10.6420  -18.8340   20.1358 C   0  0  0  0  0  0  0  0  0  0  0  0
    9.6021  -19.7317   20.1056 C   0  0  0  0  0  0  0  0  0  0  0  0
    9.4522  -20.1277   18.8239 N   0  0  0  0  0  0  0  0  0  0  0  0
   10.3641  -19.5093   18.0397 C   0  0  0  0  0  0  0  0  0  0  0  0
   11.0835  -18.7180   18.8769 N   0  0  0  0  0  0  0  0  0  0  0  0
   10.7422  -16.4615   23.0904 C   0  0  0  0  0  0  0  0  0  0  0  0
   11.7118  -15.6487   23.1243 O   0  0  0  0  0  0  0  0  0  0  0  0
   10.1218  -16.8028   24.3097 N   0  0  0  0  0  0  0  0  0  0  0  0
   10.5465  -16.3626   25.6149 C   0  0  1  0  0  0  0  0  0  0  0  0
   10.0839  -14.9425   25.8898 C   0  0  0  0  0  0  0  0  0  0  0  0
    8.6086  -14.8706   25.9972 C   0  0  0  0  0  0  0  0  0  0  0  0
    7.7338  -15.9027   25.7444 C   0  0  0  0  0  0  0  0  0  0  0  0
    6.4926  -15.4474   25.9483 N   0  0  0  0  0  0  0  0  0  0  0  0
    6.5198  -14.1542   26.3260 C   0  0  0  0  0  0  0  0  0  0  0  0
    5.5208  -13.2463   26.6480 C   0  0  0  0  0  0  0  0  0  0  0  0
    5.8439  -11.9576   27.0071 C   0  0  0  0  0  0  0  0  0  0  0  0
    7.1731  -11.5544   27.0504 C   0  0  0  0  0  0  0  0  0  0  0  0
    8.1499  -12.4719   26.7264 C   0  0  0  0  0  0  0  0  0  0  0  0
    7.8642  -13.7681   26.3628 C   0  0  0  0  0  0  0  0  0  0  0  0
    9.9683  -17.2816   26.6233 C   0  0  0  0  0  0  0  0  0  0  0  0
    9.1757  -18.2189   26.2992 O   0  0  0  0  0  0  0  0  0  0  0  0
   10.2534  -17.1794   27.9808 O   0  0  0  0  0  0  0  0  0  0  0  0
  2  1  1  1
  3  2  1  0
  4  5  1  6
  4  2  1  0
  6  7  2  0
  6  4  1  0
  8  6  1  0
  9  8  1  0
  9 10  1  6
 11 15  1  0
 11 10  1  0
 12 11  2  0
 13 12  1  0
 13 14  1  0
 14 15  2  0
 16  9  1  0
 16 18  1  0
 17 16  2  0
 19 18  1  0
 19 30  1  0
 19 20  1  1
 21 20  1  0
 22 21  2  0
 23 24  1  0
 23 22  1  0
 24 29  2  0
 25 24  1  0
 25 26  2  0
 26 27  1  0
 27 28  2  0
 29 21  1  0
 29 28  1  0
 30 32  1  0
 31 30  2  0
M  END
$$$$
