VHW.pdb
     RDKit          3D

 32 34  0  0  1  0  0  0  0  0999 V2000
    8.2195  -12.2345   18.9965 C   0  0  0  0  0  0  0  0  0  0  0  0
    8.2634  -13.1765   20.1640 C   0  0  1  0  0  0  0  0  0  0  0  0
    7.1559  -12.9826   21.1588 C   0  0  0  0  0  0  0  0  0  0  0  0
    8.4816  -14.6119   19.7606 C   0  0  2  0  0  0  0  0  0  0  0  0
    7.4186  -14.9101   18.7862 N   0  0  0  0  0  0  0  0  0  0  0  0
    8.3838  -15.5869   20.8405 C   0  0  0  0  0  0  0  0  0  0  0  0
    7.5578  -16.5434   20.7626 O   0  0  0  0  0  0  0  0  0  0  0  0
    9.1658  -15.5631   22.0312 N   0  0  0  0  0  0  0  0  0  0  0  0
    9.6402  -16.7814   22.6438 C   0  0  1  0  0  0  0  0  0  0  0  0
   10.2318  -17.6886   21.6107 C   0  0  0  0  0  0  0  0  0  0  0  0
   10.6221  -19.0026   22.1518 C   0  0  0  0  0  0  0  0  0  0  0  0
   10.4205  -19.4830   23.4234 C   0  0  0  0  0  0  0  0  0  0  0  0
   10.9402  -20.7281   23.4680 N   0  0  0  0  0  0  0  0  0  0  0  0
   11.4650  -21.0530   22.2647 C   0  0  0  0  0  0  0  0  0  0  0  0
   11.2538  -19.9693   21.4737 N   0  0  0  0  0  0  0  0  0  0  0  0
   10.5750  -16.5193   23.7686 C   0  0  0  0  0  0  0  0  0  0  0  0
   11.6863  -17.1235   23.8102 O   0  0  0  0  0  0  0  0  0  0  0  0
   10.2749  -15.6134   24.8066 N   0  0  0  0  0  0  0  0  0  0  0  0
   10.0215  -15.9708   26.1798 C   0  0  1  0  0  0  0  0  0  0  0  0
    8.6333  -16.5647   26.3424 C   0  0  0  0  0  0  0  0  0  0  0  0
    7.5845  -15.5377   26.1464 C   0  0  0  0  0  0  0  0  0  0  0  0
    6.3205  -15.7650   25.6514 C   0  0  0  0  0  0  0  0  0  0  0  0
    5.6745  -14.5939   25.6230 N   0  0  0  0  0  0  0  0  0  0  0  0
    6.4675  -13.6056   26.0814 C   0  0  0  0  0  0  0  0  0  0  0  0
    6.2715  -12.2419   26.2479 C   0  0  0  0  0  0  0  0  0  0  0  0
    7.2807  -11.4519   26.7491 C   0  0  0  0  0  0  0  0  0  0  0  0
    8.5048  -12.0128   27.0929 C   0  0  0  0  0  0  0  0  0  0  0  0
    8.6789  -13.3695   26.9192 C   0  0  0  0  0  0  0  0  0  0  0  0
    7.6928  -14.1900   26.4208 C   0  0  0  0  0  0  0  0  0  0  0  0
   11.0418  -16.9617   26.5954 C   0  0  0  0  0  0  0  0  0  0  0  0
   11.7997  -16.7640   27.5946 O   0  0  0  0  0  0  0  0  0  0  0  0
   11.2353  -18.1643   25.9241 O   0  0  0  0  0  0  0  0  0  0  0  0
  2  1  1  6
  3  2  1  0
  4  5  1  6
  4  2  1  0
  6  7  2  0
  6  4  1  0
  8  6  1  0
  9  8  1  0
  9 10  1  6
 11 15  1  0
 11 10  1  0
 12 11  2  0
 13 12  1  0
 13 14  1  0
 14 15  2  0
 16  9  1  0
 16 18  1  0
 17 16  2  0
 19 18  1  0
 19 30  1  0
 19 20  1  6
 21 20  1  0
 22 21  2  0
 23 24  1  0
 23 22  1  0
 24 29  2  0
 25 24  1  0
 25 26  2  0
 26 27  1  0
 27 28  2  0
 29 21  1  0
 29 28  1  0
 30 32  1  0
 31 30  2  0
M  END
$$$$
