VHW.pdb
     RDKit          3D

 32 34  0  0  1  0  0  0  0  0999 V2000
    6.0525  -20.6981   25.0390 C   0  0  0  0  0  0  0  0  0  0  0  0
    6.8670  -19.6672   24.3135 C   0  0  1  0  0  0  0  0  0  0  0  0
    8.3353  -19.7066   24.6240 C   0  0  0  0  0  0  0  0  0  0  0  0
    6.5528  -19.5904   22.8418 C   0  0  2  0  0  0  0  0  0  0  0  0
    6.9642  -20.8904   22.2858 N   0  0  0  0  0  0  0  0  0  0  0  0
    7.2566  -18.5469   22.1056 C   0  0  0  0  0  0  0  0  0  0  0  0
    8.3946  -18.7796   21.6017 O   0  0  0  0  0  0  0  0  0  0  0  0
    6.7619  -17.2283   21.8905 N   0  0  0  0  0  0  0  0  0  0  0  0
    7.5696  -16.2171   21.2504 C   0  0  1  0  0  0  0  0  0  0  0  0
    6.7009  -15.1408   20.6783 C   0  0  0  0  0  0  0  0  0  0  0  0
    7.4574  -14.1356   19.9106 C   0  0  0  0  0  0  0  0  0  0  0  0
    7.7565  -12.8458   20.2781 C   0  0  0  0  0  0  0  0  0  0  0  0
    8.4637  -12.2956   19.2684 N   0  0  0  0  0  0  0  0  0  0  0  0
    8.6228  -13.1959   18.2718 C   0  0  0  0  0  0  0  0  0  0  0  0
    7.9916  -14.3209   18.6967 N   0  0  0  0  0  0  0  0  0  0  0  0
    8.6176  -15.6773   22.1549 C   0  0  0  0  0  0  0  0  0  0  0  0
    9.4158  -14.7930   21.7276 O   0  0  0  0  0  0  0  0  0  0  0  0
    8.7639  -16.1123   23.4881 N   0  0  0  0  0  0  0  0  0  0  0  0
    9.7292  -15.6054   24.4309 C   0  0  1  0  0  0  0  0  0  0  0  0
    9.2250  -15.7437   25.8567 C   0  0  0  0  0  0  0  0  0  0  0  0
    7.9212  -15.0636   26.0326 C   0  0  0  0  0  0  0  0  0  0  0  0
    6.6909  -15.6802   26.0582 C   0  0  0  0  0  0  0  0  0  0  0  0
    5.7616  -14.7338   26.2325 N   0  0  0  0  0  0  0  0  0  0  0  0
    6.3362  -13.5182   26.3226 C   0  0  0  0  0  0  0  0  0  0  0  0
    5.8185  -12.2432   26.5010 C   0  0  0  0  0  0  0  0  0  0  0  0
    6.6587  -11.1546   26.5566 C   0  0  0  0  0  0  0  0  0  0  0  0
    8.0327  -11.3229   26.4347 C   0  0  0  0  0  0  0  0  0  0  0  0
    8.5263  -12.5981   26.2576 C   0  0  0  0  0  0  0  0  0  0  0  0
    7.7167  -13.7092   26.1970 C   0  0  0  0  0  0  0  0  0  0  0  0
   10.9843  -16.3757   24.2667 C   0  0  0  0  0  0  0  0  0  0  0  0
   11.0424  -17.4148   23.5396 O   0  0  0  0  0  0  0  0  0  0  0  0
   12.1725  -16.0143   24.8929 O   0  0  0  0  0  0  0  0  0  0  0  0
  2  1  1  6
  3  2  1  0
  4  5  1  6
  4  2  1  0
  6  7  2  0
  6  4  1  0
  8  6  1  0
  9  8  1  0
  9 10  1  1
 11 15  1  0
 11 10  1  0
 12 11  2  0
 13 12  1  0
 13 14  1  0
 14 15  2  0
 16  9  1  0
 16 18  1  0
 17 16  2  0
 19 18  1  0
 19 30  1  0
 19 20  1  1
 21 20  1  0
 22 21  2  0
 23 24  1  0
 23 22  1  0
 24 29  2  0
 25 24  1  0
 25 26  2  0
 26 27  1  0
 27 28  2  0
 29 21  1  0
 29 28  1  0
 30 32  1  0
 31 30  2  0
M  END
$$$$
