VHW.pdb
     RDKit          3D

 32 34  0  0  1  0  0  0  0  0999 V2000
    8.8128  -12.8133   19.7924 C   0  0  0  0  0  0  0  0  0  0  0  0
    7.9407  -13.6039   18.8614 C   0  0  1  0  0  0  0  0  0  0  0  0
    7.3849  -12.8139   17.7122 C   0  0  0  0  0  0  0  0  0  0  0  0
    8.5435  -14.9261   18.4626 C   0  0  2  0  0  0  0  0  0  0  0  0
    7.4934  -15.6200   17.6984 N   0  0  0  0  0  0  0  0  0  0  0  0
    8.9382  -15.7922   19.5672 C   0  0  0  0  0  0  0  0  0  0  0  0
    8.0584  -16.3163   20.3118 O   0  0  0  0  0  0  0  0  0  0  0  0
   10.2834  -16.1189   19.9043 N   0  0  0  0  0  0  0  0  0  0  0  0
   10.5916  -16.9669   21.0314 C   0  0  1  0  0  0  0  0  0  0  0  0
   11.9125  -17.6416   20.8306 C   0  0  0  0  0  0  0  0  0  0  0  0
   12.2888  -18.5194   21.9530 C   0  0  0  0  0  0  0  0  0  0  0  0
   13.4191  -18.4527   22.7316 C   0  0  0  0  0  0  0  0  0  0  0  0
   13.3428  -19.4533   23.6346 N   0  0  0  0  0  0  0  0  0  0  0  0
   12.1994  -20.1525   23.4536 C   0  0  0  0  0  0  0  0  0  0  0  0
   11.5704  -19.5532   22.4096 N   0  0  0  0  0  0  0  0  0  0  0  0
   10.5204  -16.2355   22.3227 C   0  0  0  0  0  0  0  0  0  0  0  0
   11.0403  -15.0855   22.4181 O   0  0  0  0  0  0  0  0  0  0  0  0
    9.8894  -16.7731   23.4633 N   0  0  0  0  0  0  0  0  0  0  0  0
    9.6944  -16.0827   24.7135 C   0  0  1  0  0  0  0  0  0  0  0  0
    8.2745  -15.5574   24.8318 C   0  0  0  0  0  0  0  0  0  0  0  0
    8.0772  -14.8279   26.1054 C   0  0  0  0  0  0  0  0  0  0  0  0
    8.3803  -15.3061   27.3600 C   0  0  0  0  0  0  0  0  0  0  0  0
    8.0578  -14.3594   28.2485 N   0  0  0  0  0  0  0  0  0  0  0  0
    7.5542  -13.2769   27.6238 C   0  0  0  0  0  0  0  0  0  0  0  0
    7.0818  -12.0572   28.0875 C   0  0  0  0  0  0  0  0  0  0  0  0
    6.6140  -11.1125   27.2028 C   0  0  0  0  0  0  0  0  0  0  0  0
    6.6107  -11.3718   25.8375 C   0  0  0  0  0  0  0  0  0  0  0  0
    7.0838  -12.5899   25.3979 C   0  0  0  0  0  0  0  0  0  0  0  0
    7.5588  -13.5579   26.2530 C   0  0  0  0  0  0  0  0  0  0  0  0
    9.9695  -17.0350   25.8151 C   0  0  0  0  0  0  0  0  0  0  0  0
    9.4607  -18.1979   25.8380 O   0  0  0  0  0  0  0  0  0  0  0  0
   10.7967  -16.7205   26.8880 O   0  0  0  0  0  0  0  0  0  0  0  0
  2  1  1  6
  3  2  1  0
  4  5  1  6
  4  2  1  0
  6  7  2  0
  6  4  1  0
  8  6  1  0
  9  8  1  0
  9 10  1  6
 11 15  1  0
 11 10  1  0
 12 11  2  0
 13 12  1  0
 13 14  1  0
 14 15  2  0
 16  9  1  0
 16 18  1  0
 17 16  2  0
 19 18  1  0
 19 30  1  0
 19 20  1  1
 21 20  1  0
 22 21  2  0
 23 24  1  0
 23 22  1  0
 24 29  2  0
 25 24  1  0
 25 26  2  0
 26 27  1  0
 27 28  2  0
 29 21  1  0
 29 28  1  0
 30 32  1  0
 31 30  2  0
M  END
$$$$
