VHW.pdb
     RDKit          3D

 32 34  0  0  1  0  0  0  0  0999 V2000
    8.3766  -12.2149   18.5613 C   0  0  0  0  0  0  0  0  0  0  0  0
    8.4004  -13.1173   19.7603 C   0  0  1  0  0  0  0  0  0  0  0  0
    7.1148  -13.1529   20.5347 C   0  0  0  0  0  0  0  0  0  0  0  0
    8.9786  -14.4777   19.4680 C   0  0  2  0  0  0  0  0  0  0  0  0
    8.1678  -15.0182   18.3640 N   0  0  0  0  0  0  0  0  0  0  0  0
    8.9240  -15.4306   20.5703 C   0  0  0  0  0  0  0  0  0  0  0  0
    8.0200  -15.3343   21.4517 O   0  0  0  0  0  0  0  0  0  0  0  0
    9.8350  -16.5096   20.7588 N   0  0  0  0  0  0  0  0  0  0  0  0
    9.7674  -17.3558   21.9267 C   0  0  1  0  0  0  0  0  0  0  0  0
   10.3575  -18.6994   21.6320 C   0  0  0  0  0  0  0  0  0  0  0  0
   10.2365  -19.6424   22.7580 C   0  0  0  0  0  0  0  0  0  0  0  0
    9.1012  -20.2680   23.2139 C   0  0  0  0  0  0  0  0  0  0  0  0
    9.4622  -21.0393   24.2613 N   0  0  0  0  0  0  0  0  0  0  0  0
   10.7910  -20.9230   24.4842 C   0  0  0  0  0  0  0  0  0  0  0  0
   11.2411  -20.0550   23.5416 N   0  0  0  0  0  0  0  0  0  0  0  0
   10.3802  -16.7181   23.1206 C   0  0  0  0  0  0  0  0  0  0  0  0
   11.4049  -15.9884   22.9815 O   0  0  0  0  0  0  0  0  0  0  0  0
    9.8628  -16.8917   24.4207 N   0  0  0  0  0  0  0  0  0  0  0  0
   10.4671  -16.3985   25.6329 C   0  0  1  0  0  0  0  0  0  0  0  0
   10.0685  -14.9567   25.8945 C   0  0  0  0  0  0  0  0  0  0  0  0
    8.5964  -14.8124   25.9682 C   0  0  0  0  0  0  0  0  0  0  0  0
    7.6802  -15.8221   25.7799 C   0  0  0  0  0  0  0  0  0  0  0  0
    6.4576  -15.2985   25.9244 N   0  0  0  0  0  0  0  0  0  0  0  0
    6.5371  -13.9820   26.2008 C   0  0  0  0  0  0  0  0  0  0  0  0
    5.5751  -13.0090   26.4323 C   0  0  0  0  0  0  0  0  0  0  0  0
    5.9501  -11.7114   26.6962 C   0  0  0  0  0  0  0  0  0  0  0  0
    7.2952  -11.3644   26.7331 C   0  0  0  0  0  0  0  0  0  0  0  0
    8.2348  -12.3461   26.4998 C   0  0  0  0  0  0  0  0  0  0  0  0
    7.8968  -13.6532   26.2328 C   0  0  0  0  0  0  0  0  0  0  0  0
   10.0161  -17.2543   26.7554 C   0  0  0  0  0  0  0  0  0  0  0  0
    9.0980  -18.1193   26.6115 O   0  0  0  0  0  0  0  0  0  0  0  0
   10.5645  -17.1677   28.0306 O   0  0  0  0  0  0  0  0  0  0  0  0
  2  1  1  6
  3  2  1  0
  4  5  1  6
  4  2  1  0
  6  7  2  0
  6  4  1  0
  8  6  1  0
  9  8  1  0
  9 10  1  6
 11 15  1  0
 11 10  1  0
 12 11  2  0
 13 12  1  0
 13 14  1  0
 14 15  2  0
 16  9  1  0
 16 18  1  0
 17 16  2  0
 19 18  1  0
 19 30  1  0
 19 20  1  1
 21 20  1  0
 22 21  2  0
 23 24  1  0
 23 22  1  0
 24 29  2  0
 25 24  1  0
 25 26  2  0
 26 27  1  0
 27 28  2  0
 29 21  1  0
 29 28  1  0
 30 32  1  0
 31 30  2  0
M  END
$$$$
