VHW.pdb
     RDKit          3D

 32 34  0  0  1  0  0  0  0  0999 V2000
    7.7901  -12.3434   18.8331 C   0  0  0  0  0  0  0  0  0  0  0  0
    8.2451  -13.3975   19.7997 C   0  0  1  0  0  0  0  0  0  0  0  0
    7.7301  -13.2194   21.1986 C   0  0  0  0  0  0  0  0  0  0  0  0
    8.0955  -14.7981   19.2644 C   0  0  2  0  0  0  0  0  0  0  0  0
    6.6445  -15.0172   19.1426 N   0  0  0  0  0  0  0  0  0  0  0  0
    8.6369  -15.8532   20.1128 C   0  0  0  0  0  0  0  0  0  0  0  0
    7.9369  -16.3406   21.0485 O   0  0  0  0  0  0  0  0  0  0  0  0
    9.9406  -16.4129   19.9830 N   0  0  0  0  0  0  0  0  0  0  0  0
   10.4061  -17.4499   20.8733 C   0  0  1  0  0  0  0  0  0  0  0  0
   11.5428  -18.1995   20.2516 C   0  0  0  0  0  0  0  0  0  0  0  0
   12.0328  -19.3061   21.0925 C   0  0  0  0  0  0  0  0  0  0  0  0
   13.2273  -19.3857   21.7671 C   0  0  0  0  0  0  0  0  0  0  0  0
   13.2489  -20.5758   22.4039 N   0  0  0  0  0  0  0  0  0  0  0  0
   12.1055  -21.2537   22.1548 C   0  0  0  0  0  0  0  0  0  0  0  0
   11.3755  -20.4455   21.3433 N   0  0  0  0  0  0  0  0  0  0  0  0
   10.7445  -16.9248   22.2214 C   0  0  0  0  0  0  0  0  0  0  0  0
   11.3081  -15.7967   22.3283 O   0  0  0  0  0  0  0  0  0  0  0  0
   10.4608  -17.6377   23.4044 N   0  0  0  0  0  0  0  0  0  0  0  0
   10.7526  -17.1864   24.7418 C   0  0  1  0  0  0  0  0  0  0  0  0
    9.5048  -17.1997   25.6073 C   0  0  0  0  0  0  0  0  0  0  0  0
    9.8107  -16.7842   26.9954 C   0  0  0  0  0  0  0  0  0  0  0  0
   10.2029  -17.6203   28.0159 C   0  0  0  0  0  0  0  0  0  0  0  0
   10.3805  -16.8741   29.1120 N   0  0  0  0  0  0  0  0  0  0  0  0
   10.1196  -15.5785   28.8490 C   0  0  0  0  0  0  0  0  0  0  0  0
   10.1549  -14.4334   29.6320 C   0  0  0  0  0  0  0  0  0  0  0  0
    9.8309  -13.2111   29.0887 C   0  0  0  0  0  0  0  0  0  0  0  0
    9.4655  -13.1132   27.7516 C   0  0  0  0  0  0  0  0  0  0  0  0
    9.4363  -14.2631   26.9914 C   0  0  0  0  0  0  0  0  0  0  0  0
    9.7537  -15.5016   27.5006 C   0  0  0  0  0  0  0  0  0  0  0  0
   11.7739  -18.0899   25.3219 C   0  0  0  0  0  0  0  0  0  0  0  0
   11.7187  -19.3490   25.1693 O   0  0  0  0  0  0  0  0  0  0  0  0
   12.8521  -17.6222   26.0657 O   0  0  0  0  0  0  0  0  0  0  0  0
  2  1  1  6
  3  2  1  0
  4  5  1  1
  4  2  1  0
  6  7  2  0
  6  4  1  0
  8  6  1  0
  9  8  1  0
  9 10  1  6
 11 15  1  0
 11 10  1  0
 12 11  2  0
 13 12  1  0
 13 14  1  0
 14 15  2  0
 16  9  1  0
 16 18  1  0
 17 16  2  0
 19 18  1  0
 19 30  1  0
 19 20  1  1
 21 20  1  0
 22 21  2  0
 23 24  1  0
 23 22  1  0
 24 29  2  0
 25 24  1  0
 25 26  2  0
 26 27  1  0
 27 28  2  0
 29 21  1  0
 29 28  1  0
 30 32  1  0
 31 30  2  0
M  END
$$$$
