VHW.pdb
     RDKit          3D

 32 34  0  0  1  0  0  0  0  0999 V2000
    9.1507  -12.7555   20.8892 C   0  0  0  0  0  0  0  0  0  0  0  0
    7.9392  -13.1390   20.0905 C   0  0  1  0  0  0  0  0  0  0  0  0
    7.4705  -12.0844   19.1305 C   0  0  0  0  0  0  0  0  0  0  0  0
    8.0369  -14.5170   19.4887 C   0  0  2  0  0  0  0  0  0  0  0  0
    6.7209  -14.7715   18.8790 N   0  0  0  0  0  0  0  0  0  0  0  0
    8.3074  -15.5944   20.4333 C   0  0  0  0  0  0  0  0  0  0  0  0
    7.3751  -16.0610   21.1518 O   0  0  0  0  0  0  0  0  0  0  0  0
    9.5816  -16.1992   20.6344 N   0  0  0  0  0  0  0  0  0  0  0  0
    9.7683  -17.2569   21.5993 C   0  0  1  0  0  0  0  0  0  0  0  0
   10.5578  -18.3776   20.9984 C   0  0  0  0  0  0  0  0  0  0  0  0
   10.8388  -19.4632   21.9545 C   0  0  0  0  0  0  0  0  0  0  0  0
   10.4434  -19.5518   23.2676 C   0  0  0  0  0  0  0  0  0  0  0  0
   10.9265  -20.7149   23.7535 N   0  0  0  0  0  0  0  0  0  0  0  0
   11.6157  -21.3673   22.7900 C   0  0  0  0  0  0  0  0  0  0  0  0
   11.5441  -20.5709   21.6921 N   0  0  0  0  0  0  0  0  0  0  0  0
   10.3624  -16.7632   22.8684 C   0  0  0  0  0  0  0  0  0  0  0  0
   11.4404  -16.1007   22.8367 O   0  0  0  0  0  0  0  0  0  0  0  0
    9.7696  -17.0026   24.1251 N   0  0  0  0  0  0  0  0  0  0  0  0
   10.3266  -16.6193   25.3981 C   0  0  1  0  0  0  0  0  0  0  0  0
   10.0607  -15.1532   25.6915 C   0  0  0  0  0  0  0  0  0  0  0  0
    8.6076  -14.8708   25.7380 C   0  0  0  0  0  0  0  0  0  0  0  0
    7.6045  -15.7810   25.4937 C   0  0  0  0  0  0  0  0  0  0  0  0
    6.4341  -15.1476   25.6300 N   0  0  0  0  0  0  0  0  0  0  0  0
    6.6315  -13.8549   25.9551 C   0  0  0  0  0  0  0  0  0  0  0  0
    5.7609  -12.8023   26.2003 C   0  0  0  0  0  0  0  0  0  0  0  0
    6.2510  -11.5563   26.5187 C   0  0  0  0  0  0  0  0  0  0  0  0
    7.6217  -11.3415   26.5975 C   0  0  0  0  0  0  0  0  0  0  0  0
    8.4691  -12.4005   26.3498 C   0  0  0  0  0  0  0  0  0  0  0  0
    8.0151  -13.6593   26.0287 C   0  0  0  0  0  0  0  0  0  0  0  0
    9.7044  -17.4608   26.4471 C   0  0  0  0  0  0  0  0  0  0  0  0
   10.0102  -17.3383   27.6731 O   0  0  0  0  0  0  0  0  0  0  0  0
    8.7516  -18.4327   26.1605 O   0  0  0  0  0  0  0  0  0  0  0  0
  2  1  1  6
  3  2  1  0
  4  5  1  1
  4  2  1  0
  6  7  2  0
  6  4  1  0
  8  6  1  0
  9  8  1  0
  9 10  1  6
 11 15  1  0
 11 10  1  0
 12 11  2  0
 13 12  1  0
 13 14  1  0
 14 15  2  0
 16  9  1  0
 16 18  1  0
 17 16  2  0
 19 18  1  0
 19 30  1  0
 19 20  1  1
 21 20  1  0
 22 21  2  0
 23 24  1  0
 23 22  1  0
 24 29  2  0
 25 24  1  0
 25 26  2  0
 26 27  1  0
 27 28  2  0
 29 21  1  0
 29 28  1  0
 30 32  1  0
 31 30  2  0
M  END
$$$$
