VHW.pdb
     RDKit          3D

 32 34  0  0  1  0  0  0  0  0999 V2000
    8.3654  -12.8036   21.5020 C   0  0  0  0  0  0  0  0  0  0  0  0
    7.6669  -13.5463   20.4006 C   0  0  1  0  0  0  0  0  0  0  0  0
    7.0466  -12.6651   19.3554 C   0  0  0  0  0  0  0  0  0  0  0  0
    8.4831  -14.6822   19.8401 C   0  0  2  0  0  0  0  0  0  0  0  0
    7.6115  -15.3395   18.8519 N   0  0  0  0  0  0  0  0  0  0  0  0
    8.9004  -15.6898   20.8080 C   0  0  0  0  0  0  0  0  0  0  0  0
    8.0485  -16.4773   21.3153 O   0  0  0  0  0  0  0  0  0  0  0  0
   10.2384  -15.8801   21.2586 N   0  0  0  0  0  0  0  0  0  0  0  0
   10.5650  -16.8852   22.2423 C   0  0  1  0  0  0  0  0  0  0  0  0
   11.8447  -17.5724   21.8808 C   0  0  0  0  0  0  0  0  0  0  0  0
   11.6958  -18.5163   20.7588 C   0  0  0  0  0  0  0  0  0  0  0  0
   10.5357  -18.9025   20.1319 C   0  0  0  0  0  0  0  0  0  0  0  0
   10.8767  -19.7787   19.1632 N   0  0  0  0  0  0  0  0  0  0  0  0
   12.2168  -19.9603   19.1556 C   0  0  0  0  0  0  0  0  0  0  0  0
   12.6946  -19.1689   20.1506 N   0  0  0  0  0  0  0  0  0  0  0  0
   10.5882  -16.3358   23.6226 C   0  0  0  0  0  0  0  0  0  0  0  0
   11.2728  -15.3007   23.8709 O   0  0  0  0  0  0  0  0  0  0  0  0
    9.8702  -16.9246   24.6837 N   0  0  0  0  0  0  0  0  0  0  0  0
    9.8974  -16.4848   26.0561 C   0  0  1  0  0  0  0  0  0  0  0  0
    8.5290  -16.6208   26.7004 C   0  0  0  0  0  0  0  0  0  0  0  0
    7.5724  -15.6389   26.1399 C   0  0  0  0  0  0  0  0  0  0  0  0
    6.4647  -15.9404   25.3806 C   0  0  0  0  0  0  0  0  0  0  0  0
    5.8597  -14.7902   25.0634 N   0  0  0  0  0  0  0  0  0  0  0  0
    6.5291  -13.7442   25.5865 C   0  0  0  0  0  0  0  0  0  0  0  0
    6.3152  -12.3737   25.5449 C   0  0  0  0  0  0  0  0  0  0  0  0
    7.1814  -11.5165   26.1844 C   0  0  0  0  0  0  0  0  0  0  0  0
    8.2776  -12.0159   26.8774 C   0  0  0  0  0  0  0  0  0  0  0  0
    8.4720  -13.3806   26.9059 C   0  0  0  0  0  0  0  0  0  0  0  0
    7.6272  -14.2674   26.2783 C   0  0  0  0  0  0  0  0  0  0  0  0
   10.8807  -17.3166   26.7887 C   0  0  0  0  0  0  0  0  0  0  0  0
   11.3922  -18.3585   26.2742 O   0  0  0  0  0  0  0  0  0  0  0  0
   11.3055  -17.0135   28.0779 O   0  0  0  0  0  0  0  0  0  0  0  0
  2  1  1  1
  3  2  1  0
  4  5  1  6
  4  2  1  0
  6  7  2  0
  6  4  1  0
  8  6  1  0
  9  8  1  0
  9 10  1  6
 11 15  1  0
 11 10  1  0
 12 11  2  0
 13 12  1  0
 13 14  1  0
 14 15  2  0
 16  9  1  0
 16 18  1  0
 17 16  2  0
 19 18  1  0
 19 30  1  0
 19 20  1  1
 21 20  1  0
 22 21  2  0
 23 24  1  0
 23 22  1  0
 24 29  2  0
 25 24  1  0
 25 26  2  0
 26 27  1  0
 27 28  2  0
 29 21  1  0
 29 28  1  0
 30 32  1  0
 31 30  2  0
M  END
$$$$
