VHW.pdb
     RDKit          3D

 32 34  0  0  1  0  0  0  0  0999 V2000
    8.1405  -12.3337   18.4510 C   0  0  0  0  0  0  0  0  0  0  0  0
    8.5860  -13.2313   19.5682 C   0  0  1  0  0  0  0  0  0  0  0  0
    7.6867  -13.2177   20.7702 C   0  0  0  0  0  0  0  0  0  0  0  0
    8.9683  -14.6127   19.1034 C   0  0  2  0  0  0  0  0  0  0  0  0
    7.7492  -15.1721   18.4958 N   0  0  0  0  0  0  0  0  0  0  0  0
    9.4048  -15.5271   20.1520 C   0  0  0  0  0  0  0  0  0  0  0  0
    8.5531  -16.1855   20.8185 O   0  0  0  0  0  0  0  0  0  0  0  0
   10.7626  -15.7597   20.5151 N   0  0  0  0  0  0  0  0  0  0  0  0
   11.1140  -16.7122   21.5418 C   0  0  1  0  0  0  0  0  0  0  0  0
   12.3074  -17.5132   21.1236 C   0  0  0  0  0  0  0  0  0  0  0  0
   12.0209  -18.4386   20.0130 C   0  0  0  0  0  0  0  0  0  0  0  0
   10.8436  -19.0952   19.7467 C   0  0  0  0  0  0  0  0  0  0  0  0
   11.0397  -19.8330   18.6334 N   0  0  0  0  0  0  0  0  0  0  0  0
   12.3044  -19.6650   18.1847 C   0  0  0  0  0  0  0  0  0  0  0  0
   12.8851  -18.7998   19.0559 N   0  0  0  0  0  0  0  0  0  0  0  0
   11.3013  -16.0681   22.8675 C   0  0  0  0  0  0  0  0  0  0  0  0
   11.8456  -14.9275   22.9359 O   0  0  0  0  0  0  0  0  0  0  0  0
   10.8928  -16.6796   24.0705 N   0  0  0  0  0  0  0  0  0  0  0  0
    9.9494  -16.1272   25.0099 C   0  0  1  0  0  0  0  0  0  0  0  0
    8.6123  -15.8530   24.3441 C   0  0  0  0  0  0  0  0  0  0  0  0
    7.6628  -15.2208   25.2885 C   0  0  0  0  0  0  0  0  0  0  0  0
    6.6093  -15.8513   25.9105 C   0  0  0  0  0  0  0  0  0  0  0  0
    5.9888  -14.9501   26.6802 N   0  0  0  0  0  0  0  0  0  0  0  0
    6.5961  -13.7508   26.5869 C   0  0  0  0  0  0  0  0  0  0  0  0
    6.3428  -12.5192   27.1739 C   0  0  0  0  0  0  0  0  0  0  0  0
    7.1451  -11.4374   26.8906 C   0  0  0  0  0  0  0  0  0  0  0  0
    8.2156  -11.5692   26.0145 C   0  0  0  0  0  0  0  0  0  0  0  0
    8.4495  -12.8014   25.4419 C   0  0  0  0  0  0  0  0  0  0  0  0
    7.6686  -13.9045   25.7015 C   0  0  0  0  0  0  0  0  0  0  0  0
    9.7696  -17.1018   26.1116 C   0  0  0  0  0  0  0  0  0  0  0  0
    9.6058  -18.3411   25.8897 O   0  0  0  0  0  0  0  0  0  0  0  0
    9.7687  -16.7267   27.4509 O   0  0  0  0  0  0  0  0  0  0  0  0
  2  1  1  6
  3  2  1  0
  4  5  1  1
  4  2  1  0
  6  7  2  0
  6  4  1  0
  8  6  1  0
  9  8  1  0
  9 10  1  6
 11 15  1  0
 11 10  1  0
 12 11  2  0
 13 12  1  0
 13 14  1  0
 14 15  2  0
 16  9  1  0
 16 18  1  0
 17 16  2  0
 19 18  1  0
 19 30  1  0
 19 20  1  6
 21 20  1  0
 22 21  2  0
 23 24  1  0
 23 22  1  0
 24 29  2  0
 25 24  1  0
 25 26  2  0
 26 27  1  0
 27 28  2  0
 29 21  1  0
 29 28  1  0
 30 32  1  0
 31 30  2  0
M  END
$$$$
