VHW.pdb
     RDKit          3D

 32 34  0  0  1  0  0  0  0  0999 V2000
    7.6838  -12.1935   19.5698 C   0  0  0  0  0  0  0  0  0  0  0  0
    8.0151  -13.2976   20.5310 C   0  0  1  0  0  0  0  0  0  0  0  0
    6.9009  -13.6556   21.4713 C   0  0  0  0  0  0  0  0  0  0  0  0
    8.6655  -14.4851   19.8696 C   0  0  2  0  0  0  0  0  0  0  0  0
    7.6878  -14.9646   18.8784 N   0  0  0  0  0  0  0  0  0  0  0  0
    8.9848  -15.5977   20.7564 C   0  0  0  0  0  0  0  0  0  0  0  0
    8.1113  -16.4768   21.0158 O   0  0  0  0  0  0  0  0  0  0  0  0
   10.2456  -15.7978   21.3889 N   0  0  0  0  0  0  0  0  0  0  0  0
   10.4494  -16.8658   22.3389 C   0  0  1  0  0  0  0  0  0  0  0  0
   11.6124  -17.7140   21.9284 C   0  0  0  0  0  0  0  0  0  0  0  0
   11.2854  -18.6555   20.8429 C   0  0  0  0  0  0  0  0  0  0  0  0
   10.0597  -18.8795   20.2635 C   0  0  0  0  0  0  0  0  0  0  0  0
   10.2321  -19.8237   19.3143 N   0  0  0  0  0  0  0  0  0  0  0  0
   11.5287  -20.2058   19.2730 C   0  0  0  0  0  0  0  0  0  0  0  0
   12.1535  -19.4681   20.2270 N   0  0  0  0  0  0  0  0  0  0  0  0
   10.5786  -16.3641   23.7314 C   0  0  0  0  0  0  0  0  0  0  0  0
   11.3958  -15.4316   23.9855 O   0  0  0  0  0  0  0  0  0  0  0  0
    9.8196  -16.8877   24.7981 N   0  0  0  0  0  0  0  0  0  0  0  0
    9.9667  -16.5245   26.1852 C   0  0  1  0  0  0  0  0  0  0  0  0
    8.6357  -16.5964   26.9128 C   0  0  0  0  0  0  0  0  0  0  0  0
    7.6573  -15.6460   26.3358 C   0  0  0  0  0  0  0  0  0  0  0  0
    6.6504  -15.9667   25.4540 C   0  0  0  0  0  0  0  0  0  0  0  0
    5.9855  -14.8425   25.1645 N   0  0  0  0  0  0  0  0  0  0  0  0
    6.5185  -13.7952   25.8239 C   0  0  0  0  0  0  0  0  0  0  0  0
    6.1993  -12.4452   25.8614 C   0  0  0  0  0  0  0  0  0  0  0  0
    6.9324  -11.5803   26.6415 C   0  0  0  0  0  0  0  0  0  0  0  0
    7.9985  -12.0513   27.3983 C   0  0  0  0  0  0  0  0  0  0  0  0
    8.2991  -13.3959   27.3463 C   0  0  0  0  0  0  0  0  0  0  0  0
    7.5886  -14.2896   26.5779 C   0  0  0  0  0  0  0  0  0  0  0  0
   10.9295  -17.4625   26.8089 C   0  0  0  0  0  0  0  0  0  0  0  0
   11.3058  -18.5241   26.2231 O   0  0  0  0  0  0  0  0  0  0  0  0
   11.4807  -17.2437   28.0670 O   0  0  0  0  0  0  0  0  0  0  0  0
  2  1  1  6
  3  2  1  0
  4  5  1  6
  4  2  1  0
  6  7  2  0
  6  4  1  0
  8  6  1  0
  9  8  1  0
  9 10  1  6
 11 15  1  0
 11 10  1  0
 12 11  2  0
 13 12  1  0
 13 14  1  0
 14 15  2  0
 16  9  1  0
 16 18  1  0
 17 16  2  0
 19 18  1  0
 19 30  1  0
 19 20  1  1
 21 20  1  0
 22 21  2  0
 23 24  1  0
 23 22  1  0
 24 29  2  0
 25 24  1  0
 25 26  2  0
 26 27  1  0
 27 28  2  0
 29 21  1  0
 29 28  1  0
 30 32  1  0
 31 30  2  0
M  END
$$$$
