VHW.pdb
     RDKit          3D

 32 34  0  0  1  0  0  0  0  0999 V2000
    8.2756  -12.1155   18.8049 C   0  0  0  0  0  0  0  0  0  0  0  0
    8.4712  -13.1688   19.8560 C   0  0  1  0  0  0  0  0  0  0  0  0
    7.6952  -12.9349   21.1197 C   0  0  0  0  0  0  0  0  0  0  0  0
    8.3598  -14.5720   19.3183 C   0  0  2  0  0  0  0  0  0  0  0  0
    7.0030  -14.6679   18.7541 N   0  0  0  0  0  0  0  0  0  0  0  0
    8.5088  -15.6341   20.3062 C   0  0  0  0  0  0  0  0  0  0  0  0
    7.5084  -16.0266   20.9757 O   0  0  0  0  0  0  0  0  0  0  0  0
    9.7312  -16.3025   20.6039 N   0  0  0  0  0  0  0  0  0  0  0  0
    9.8087  -17.3009   21.6440 C   0  0  1  0  0  0  0  0  0  0  0  0
   10.5901  -18.4868   21.1715 C   0  0  0  0  0  0  0  0  0  0  0  0
   10.7141  -19.5409   22.1939 C   0  0  0  0  0  0  0  0  0  0  0  0
   10.2607  -19.5133   23.4907 C   0  0  0  0  0  0  0  0  0  0  0  0
   10.5954  -20.6921   24.0570 N   0  0  0  0  0  0  0  0  0  0  0  0
   11.2468  -21.4669   23.1601 C   0  0  0  0  0  0  0  0  0  0  0  0
   11.3048  -20.7302   22.0206 N   0  0  0  0  0  0  0  0  0  0  0  0
   10.3356  -16.7472   22.9181 C   0  0  0  0  0  0  0  0  0  0  0  0
   11.2671  -15.8909   22.8885 O   0  0  0  0  0  0  0  0  0  0  0  0
    9.8363  -17.1386   24.1773 N   0  0  0  0  0  0  0  0  0  0  0  0
   10.3318  -16.6814   25.4513 C   0  0  1  0  0  0  0  0  0  0  0  0
    9.9584  -15.2295   25.6935 C   0  0  0  0  0  0  0  0  0  0  0  0
    8.4996  -15.0784   25.8998 C   0  0  0  0  0  0  0  0  0  0  0  0
    7.5615  -16.0759   25.7610 C   0  0  0  0  0  0  0  0  0  0  0  0
    6.3609  -15.5495   26.0278 N   0  0  0  0  0  0  0  0  0  0  0  0
    6.4759  -14.2430   26.3370 C   0  0  0  0  0  0  0  0  0  0  0  0
    5.5465  -13.2718   26.6817 C   0  0  0  0  0  0  0  0  0  0  0  0
    5.9547  -11.9856   26.9519 C   0  0  0  0  0  0  0  0  0  0  0  0
    7.3010  -11.6483   26.8820 C   0  0  0  0  0  0  0  0  0  0  0  0
    8.2078  -12.6280   26.5373 C   0  0  0  0  0  0  0  0  0  0  0  0
    7.8361  -13.9238   26.2604 C   0  0  0  0  0  0  0  0  0  0  0  0
    9.7412  -17.5336   26.5098 C   0  0  0  0  0  0  0  0  0  0  0  0
    8.8059  -18.3561   26.2636 O   0  0  0  0  0  0  0  0  0  0  0  0
   10.1689  -17.4897   27.8325 O   0  0  0  0  0  0  0  0  0  0  0  0
  2  1  1  6
  3  2  1  0
  4  5  1  1
  4  2  1  0
  6  7  2  0
  6  4  1  0
  8  6  1  0
  9  8  1  0
  9 10  1  6
 11 15  1  0
 11 10  1  0
 12 11  2  0
 13 12  1  0
 13 14  1  0
 14 15  2  0
 16  9  1  0
 16 18  1  0
 17 16  2  0
 19 18  1  0
 19 30  1  0
 19 20  1  1
 21 20  1  0
 22 21  2  0
 23 24  1  0
 23 22  1  0
 24 29  2  0
 25 24  1  0
 25 26  2  0
 26 27  1  0
 27 28  2  0
 29 21  1  0
 29 28  1  0
 30 32  1  0
 31 30  2  0
M  END
$$$$
