FNF.pdb
     RDKit          3D

 31 32  0  0  1  0  0  0  0  0999 V2000
    7.2745  -18.3895   20.0912 N   0  0  0  0  0  0  0  0  0  0  0  0
    7.8276  -17.0991   20.4862 C   0  0  1  0  0  0  0  0  0  0  0  0
    6.8353  -16.5183   21.5100 C   0  0  0  0  0  0  0  0  0  0  0  0
    7.2662  -15.1105   21.8381 C   0  0  0  0  0  0  0  0  0  0  0  0
    7.3036  -14.7105   23.1458 C   0  0  0  0  0  0  0  0  0  0  0  0
    7.6936  -13.4512   23.4743 C   0  0  0  0  0  0  0  0  0  0  0  0
    8.0572  -12.5622   22.4708 C   0  0  0  0  0  0  0  0  0  0  0  0
    8.0197  -12.9636   21.1548 C   0  0  0  0  0  0  0  0  0  0  0  0
    7.6240  -14.2353   20.8527 C   0  0  0  0  0  0  0  0  0  0  0  0
    9.1388  -17.3336   21.1309 C   0  0  0  0  0  0  0  0  0  0  0  0
    9.2860  -18.2176   22.0423 O   0  0  0  0  0  0  0  0  0  0  0  0
   12.5219  -15.8390   18.1493 N   0  0  0  0  0  0  0  0  0  0  0  0
   12.7068  -16.7293   19.2729 C   0  0  0  0  0  0  0  0  0  0  0  0
   12.8747  -17.9623   19.0482 O   0  0  0  0  0  0  0  0  0  0  0  0
   12.7010  -16.2241   20.6502 C   0  0  0  0  0  0  0  0  0  0  0  0
   11.6023  -16.8344   21.4567 C   0  0  2  0  0  0  0  0  0  0  0  0
   10.3107  -16.6093   20.7907 N   0  0  0  0  0  0  0  0  0  0  0  0
   11.5090  -16.2834   22.8520 C   0  0  0  0  0  0  0  0  0  0  0  0
   11.9300  -15.1527   23.1817 O   0  0  0  0  0  0  0  0  0  0  0  0
   10.9134  -17.0332   23.9266 N   0  0  0  0  0  0  0  0  0  0  0  0
   10.8896  -16.4415   25.2444 C   0  0  1  0  0  0  0  0  0  0  0  0
   10.1264  -15.1277   25.0779 C   0  0  0  0  0  0  0  0  0  0  0  0
    9.8226  -14.4707   26.3547 C   0  0  0  0  0  0  0  0  0  0  0  0
   10.6032  -14.8039   27.4489 C   0  0  0  0  0  0  0  0  0  0  0  0
   10.3224  -14.1826   28.6469 C   0  0  0  0  0  0  0  0  0  0  0  0
    9.3047  -13.2582   28.7758 C   0  0  0  0  0  0  0  0  0  0  0  0
    8.5188  -12.9206   27.6821 C   0  0  0  0  0  0  0  0  0  0  0  0
    8.8058  -13.5459   26.4880 C   0  0  0  0  0  0  0  0  0  0  0  0
   10.2058  -17.3470   26.1791 C   0  0  0  0  0  0  0  0  0  0  0  0
    9.3260  -18.3286   25.7417 O   0  0  0  0  0  0  0  0  0  0  0  0
   10.4077  -17.2475   27.4058 O   0  0  0  0  0  0  0  0  0  0  0  0
  2  1  1  1
  3  4  1  0
  3  2  1  0
  4  5  2  0
  5  6  1  0
  7  6  2  0
  8  7  1  0
  9  8  2  0
  9  4  1  0
 10 11  2  0
 10  2  1  0
 13 12  1  0
 14 13  2  0
 15 13  1  0
 16 15  1  6
 16 17  1  0
 17 10  1  0
 18 19  2  0
 18 16  1  0
 20 18  1  0
 21 22  1  6
 21 20  1  0
 23 28  1  0
 23 22  1  0
 24 23  2  0
 25 26  2  0
 25 24  1  0
 26 27  1  0
 27 28  2  0
 29 21  1  0
 30 29  1  0
 31 29  2  0
M  END
$$$$
