FNF.pdb
     RDKit          3D

 31 32  0  0  1  0  0  0  0  0999 V2000
    6.2783  -17.9454   19.3094 N   0  0  0  0  0  0  0  0  0  0  0  0
    7.0254  -16.9208   20.0298 C   0  0  1  0  0  0  0  0  0  0  0  0
    6.2145  -15.6227   19.8645 C   0  0  0  0  0  0  0  0  0  0  0  0
    6.9717  -14.5048   20.5371 C   0  0  0  0  0  0  0  0  0  0  0  0
    7.8772  -13.7799   19.8119 C   0  0  0  0  0  0  0  0  0  0  0  0
    8.5702  -12.7626   20.3871 C   0  0  0  0  0  0  0  0  0  0  0  0
    8.3559  -12.4574   21.7252 C   0  0  0  0  0  0  0  0  0  0  0  0
    7.4453  -13.1863   22.4557 C   0  0  0  0  0  0  0  0  0  0  0  0
    6.7622  -14.2036   21.8525 C   0  0  0  0  0  0  0  0  0  0  0  0
    7.0797  -17.3037   21.4581 C   0  0  0  0  0  0  0  0  0  0  0  0
    6.0322  -17.2998   22.1907 O   0  0  0  0  0  0  0  0  0  0  0  0
    6.3896  -20.5915   22.8231 N   0  0  0  0  0  0  0  0  0  0  0  0
    7.7762  -20.1937   22.7298 C   0  0  0  0  0  0  0  0  0  0  0  0
    8.4320  -20.5185   21.6987 O   0  0  0  0  0  0  0  0  0  0  0  0
    8.4199  -19.4290   23.8036 C   0  0  0  0  0  0  0  0  0  0  0  0
    8.3424  -17.9583   23.5560 C   0  0  2  0  0  0  0  0  0  0  0  0
    8.2766  -17.6989   22.1101 N   0  0  0  0  0  0  0  0  0  0  0  0
    9.5124  -17.1968   24.1130 C   0  0  0  0  0  0  0  0  0  0  0  0
   10.3467  -16.5904   23.4055 O   0  0  0  0  0  0  0  0  0  0  0  0
    9.7566  -17.1081   25.5287 N   0  0  0  0  0  0  0  0  0  0  0  0
   10.8675  -16.3042   25.9838 C   0  0  1  0  0  0  0  0  0  0  0  0
   10.6000  -14.9048   25.4304 C   0  0  0  0  0  0  0  0  0  0  0  0
    9.5503  -14.1856   26.1619 C   0  0  0  0  0  0  0  0  0  0  0  0
    9.7982  -13.8613   27.4852 C   0  0  0  0  0  0  0  0  0  0  0  0
    8.8152  -13.1804   28.1709 C   0  0  0  0  0  0  0  0  0  0  0  0
    7.6185  -12.8239   27.5812 C   0  0  0  0  0  0  0  0  0  0  0  0
    7.3646  -13.1468   26.2549 C   0  0  0  0  0  0  0  0  0  0  0  0
    8.3522  -13.8274   25.5761 C   0  0  0  0  0  0  0  0  0  0  0  0
   10.9067  -16.3041   27.4533 C   0  0  0  0  0  0  0  0  0  0  0  0
    9.9706  -16.9924   28.2143 O   0  0  0  0  0  0  0  0  0  0  0  0
   11.7987  -15.6731   28.0545 O   0  0  0  0  0  0  0  0  0  0  0  0
  2  1  1  6
  3  4  1  0
  3  2  1  0
  4  5  2  0
  5  6  1  0
  7  6  2  0
  8  7  1  0
  9  8  2  0
  9  4  1  0
 10 11  2  0
 10  2  1  0
 13 12  1  0
 14 13  2  0
 15 13  1  0
 16 15  1  6
 16 17  1  0
 17 10  1  0
 18 19  2  0
 18 16  1  0
 20 18  1  0
 21 22  1  1
 21 20  1  0
 23 28  1  0
 23 22  1  0
 24 23  2  0
 25 26  2  0
 25 24  1  0
 26 27  1  0
 27 28  2  0
 29 21  1  0
 30 29  1  0
 31 29  2  0
M  END
$$$$
