FNF.pdb
     RDKit          3D

 31 32  0  0  1  0  0  0  0  0999 V2000
    6.7060  -18.4639   19.6853 N   0  0  0  0  0  0  0  0  0  0  0  0
    7.3909  -17.2921   20.2190 C   0  0  1  0  0  0  0  0  0  0  0  0
    6.4268  -16.6831   21.2532 C   0  0  0  0  0  0  0  0  0  0  0  0
    7.0246  -15.3910   21.7516 C   0  0  0  0  0  0  0  0  0  0  0  0
    7.0647  -15.1483   23.0973 C   0  0  0  0  0  0  0  0  0  0  0  0
    7.6026  -13.9969   23.5780 C   0  0  0  0  0  0  0  0  0  0  0  0
    8.1160  -13.0579   22.6925 C   0  0  0  0  0  0  0  0  0  0  0  0
    8.0759  -13.3010   21.3384 C   0  0  0  0  0  0  0  0  0  0  0  0
    7.5297  -14.4667   20.8823 C   0  0  0  0  0  0  0  0  0  0  0  0
    8.6306  -17.7439   20.8890 C   0  0  0  0  0  0  0  0  0  0  0  0
    8.6450  -18.7792   21.6386 O   0  0  0  0  0  0  0  0  0  0  0  0
   11.5072  -18.7765   18.9691 N   0  0  0  0  0  0  0  0  0  0  0  0
   12.4574  -17.7708   19.3877 C   0  0  0  0  0  0  0  0  0  0  0  0
   13.4377  -17.5112   18.6324 O   0  0  0  0  0  0  0  0  0  0  0  0
   12.2980  -17.0599   20.6610 C   0  0  0  0  0  0  0  0  0  0  0  0
   11.1016  -17.5402   21.4147 C   0  0  2  0  0  0  0  0  0  0  0  0
    9.8746  -17.0752   20.7511 N   0  0  0  0  0  0  0  0  0  0  0  0
   11.0664  -17.0692   22.8417 C   0  0  0  0  0  0  0  0  0  0  0  0
   11.9081  -17.4037   23.7043 O   0  0  0  0  0  0  0  0  0  0  0  0
   10.0423  -16.1799   23.3230 N   0  0  0  0  0  0  0  0  0  0  0  0
   10.1208  -15.7200   24.6904 C   0  0  1  0  0  0  0  0  0  0  0  0
    9.1832  -14.5150   24.7602 C   0  0  0  0  0  0  0  0  0  0  0  0
    9.0858  -13.9364   26.1056 C   0  0  0  0  0  0  0  0  0  0  0  0
    7.9295  -13.2440   26.4236 C   0  0  0  0  0  0  0  0  0  0  0  0
    7.8349  -12.7056   27.6890 C   0  0  0  0  0  0  0  0  0  0  0  0
    8.8433  -12.8387   28.6228 C   0  0  0  0  0  0  0  0  0  0  0  0
   10.0049  -13.5317   28.3092 C   0  0  0  0  0  0  0  0  0  0  0  0
   10.0920  -14.0670   27.0423 C   0  0  0  0  0  0  0  0  0  0  0  0
    9.6877  -16.7930   25.5971 C   0  0  0  0  0  0  0  0  0  0  0  0
   10.3365  -17.0477   26.7985 O   0  0  0  0  0  0  0  0  0  0  0  0
    8.7107  -17.5078   25.2975 O   0  0  0  0  0  0  0  0  0  0  0  0
  2  1  1  1
  3  4  1  0
  3  2  1  0
  4  5  2  0
  5  6  1  0
  7  6  2  0
  8  7  1  0
  9  8  2  0
  9  4  1  0
 10 11  2  0
 10  2  1  0
 13 12  1  0
 14 13  2  0
 15 13  1  0
 16 15  1  6
 16 17  1  0
 17 10  1  0
 18 19  2  0
 18 16  1  0
 20 18  1  0
 21 22  1  6
 21 20  1  0
 23 28  1  0
 23 22  1  0
 24 23  2  0
 25 26  2  0
 25 24  1  0
 26 27  1  0
 27 28  2  0
 29 21  1  0
 30 29  1  0
 31 29  2  0
M  END
$$$$
