FNF.pdb
     RDKit          3D

 31 32  0  0  1  0  0  0  0  0999 V2000
    6.3542  -17.3872   22.4854 N   0  0  0  0  0  0  0  0  0  0  0  0
    7.6472  -16.7319   22.3251 C   0  0  1  0  0  0  0  0  0  0  0  0
    7.4642  -15.3102   22.8867 C   0  0  0  0  0  0  0  0  0  0  0  0
    7.5444  -14.3355   21.7383 C   0  0  0  0  0  0  0  0  0  0  0  0
    7.5451  -12.9928   22.0001 C   0  0  0  0  0  0  0  0  0  0  0  0
    7.6230  -12.0896   20.9881 C   0  0  0  0  0  0  0  0  0  0  0  0
    7.7020  -12.5361   19.6751 C   0  0  0  0  0  0  0  0  0  0  0  0
    7.7011  -13.8868   19.4107 C   0  0  0  0  0  0  0  0  0  0  0  0
    7.6221  -14.7728   20.4469 C   0  0  0  0  0  0  0  0  0  0  0  0
    8.6447  -17.4691   23.1321 C   0  0  0  0  0  0  0  0  0  0  0  0
    8.2922  -18.3609   23.9772 O   0  0  0  0  0  0  0  0  0  0  0  0
   14.6238  -19.0582   23.2625 N   0  0  0  0  0  0  0  0  0  0  0  0
   13.2186  -19.1319   23.5934 C   0  0  0  0  0  0  0  0  0  0  0  0
   12.8471  -19.9514   24.4818 O   0  0  0  0  0  0  0  0  0  0  0  0
   12.2344  -18.2787   22.9184 C   0  0  0  0  0  0  0  0  0  0  0  0
   11.0284  -18.0490   23.7687 C   0  0  2  0  0  0  0  0  0  0  0  0
   10.0424  -17.2470   23.0293 N   0  0  0  0  0  0  0  0  0  0  0  0
   11.3334  -17.3392   25.0580 C   0  0  0  0  0  0  0  0  0  0  0  0
   12.2964  -17.6316   25.8007 O   0  0  0  0  0  0  0  0  0  0  0  0
   10.5235  -16.2493   25.5351 N   0  0  0  0  0  0  0  0  0  0  0  0
   10.8531  -15.6578   26.8114 C   0  0  1  0  0  0  0  0  0  0  0  0
   10.6023  -14.1606   26.6335 C   0  0  0  0  0  0  0  0  0  0  0  0
    9.1777  -13.8216   26.5343 C   0  0  0  0  0  0  0  0  0  0  0  0
    8.6269  -13.0624   27.5532 C   0  0  0  0  0  0  0  0  0  0  0  0
    7.2904  -12.7386   27.4575 C   0  0  0  0  0  0  0  0  0  0  0  0
    6.5089  -13.1448   26.3941 C   0  0  0  0  0  0  0  0  0  0  0  0
    7.0560  -13.9063   25.3700 C   0  0  0  0  0  0  0  0  0  0  0  0
    8.3926  -14.2259   25.4728 C   0  0  0  0  0  0  0  0  0  0  0  0
    9.9908  -16.2280   27.8565 C   0  0  0  0  0  0  0  0  0  0  0  0
    9.0771  -17.2385   27.5862 O   0  0  0  0  0  0  0  0  0  0  0  0
   10.0659  -15.8059   29.0277 O   0  0  0  0  0  0  0  0  0  0  0  0
  2  1  1  1
  3  4  1  0
  3  2  1  0
  4  5  2  0
  5  6  1  0
  7  6  2  0
  8  7  1  0
  9  8  2  0
  9  4  1  0
 10 11  2  0
 10  2  1  0
 13 12  1  0
 14 13  2  0
 15 13  1  0
 16 15  1  6
 16 17  1  0
 17 10  1  0
 18 19  2  0
 18 16  1  0
 20 18  1  0
 21 22  1  6
 21 20  1  0
 23 28  1  0
 23 22  1  0
 24 23  2  0
 25 26  2  0
 25 24  1  0
 26 27  1  0
 27 28  2  0
 29 21  1  0
 30 29  1  0
 31 29  2  0
M  END
$$$$
