FNF.pdb
     RDKit          3D

 31 32  0  0  1  0  0  0  0  0999 V2000
    7.0698  -18.5449   19.1540 N   0  0  0  0  0  0  0  0  0  0  0  0
    7.6137  -17.2970   19.6771 C   0  0  1  0  0  0  0  0  0  0  0  0
    6.4554  -16.6261   20.4376 C   0  0  0  0  0  0  0  0  0  0  0  0
    6.9729  -15.3510   21.0555 C   0  0  0  0  0  0  0  0  0  0  0  0
    6.8706  -15.1743   22.4082 C   0  0  0  0  0  0  0  0  0  0  0  0
    7.3332  -14.0400   22.9957 C   0  0  0  0  0  0  0  0  0  0  0  0
    7.9150  -13.0506   22.2133 C   0  0  0  0  0  0  0  0  0  0  0  0
    8.0180  -13.2273   20.8522 C   0  0  0  0  0  0  0  0  0  0  0  0
    7.5450  -14.3774   20.2876 C   0  0  0  0  0  0  0  0  0  0  0  0
    8.7103  -17.6253   20.6149 C   0  0  0  0  0  0  0  0  0  0  0  0
    8.6047  -18.5810   21.4572 O   0  0  0  0  0  0  0  0  0  0  0  0
   14.5584  -16.3315   22.0169 N   0  0  0  0  0  0  0  0  0  0  0  0
   13.4981  -17.2724   21.7341 C   0  0  0  0  0  0  0  0  0  0  0  0
   13.5746  -18.4366   22.2218 O   0  0  0  0  0  0  0  0  0  0  0  0
   12.3522  -16.8958   20.8990 C   0  0  0  0  0  0  0  0  0  0  0  0
   11.0586  -17.3147   21.5165 C   0  0  2  0  0  0  0  0  0  0  0  0
    9.9401  -16.9182   20.6482 N   0  0  0  0  0  0  0  0  0  0  0  0
   10.8260  -16.7191   22.8768 C   0  0  0  0  0  0  0  0  0  0  0  0
   11.5752  -16.9164   23.8587 O   0  0  0  0  0  0  0  0  0  0  0  0
    9.7034  -15.8601   23.1480 N   0  0  0  0  0  0  0  0  0  0  0  0
    9.5770  -15.2944   24.4714 C   0  0  1  0  0  0  0  0  0  0  0  0
    8.6304  -14.1056   24.3081 C   0  0  0  0  0  0  0  0  0  0  0  0
    8.3172  -13.4384   25.5774 C   0  0  0  0  0  0  0  0  0  0  0  0
    7.0677  -12.8549   25.7038 C   0  0  0  0  0  0  0  0  0  0  0  0
    6.7707  -12.2335   26.8978 C   0  0  0  0  0  0  0  0  0  0  0  0
    7.6701  -12.1818   27.9443 C   0  0  0  0  0  0  0  0  0  0  0  0
    8.9243  -12.7649   27.8229 C   0  0  0  0  0  0  0  0  0  0  0  0
    9.2137  -13.3842   26.6263 C   0  0  0  0  0  0  0  0  0  0  0  0
    9.0234  -16.3021   25.3875 C   0  0  0  0  0  0  0  0  0  0  0  0
    9.4486  -16.4111   26.7052 O   0  0  0  0  0  0  0  0  0  0  0  0
    8.1449  -17.0927   24.9895 O   0  0  0  0  0  0  0  0  0  0  0  0
  2  1  1  1
  3  4  1  0
  3  2  1  0
  4  5  2  0
  5  6  1  0
  7  6  2  0
  8  7  1  0
  9  8  2  0
  9  4  1  0
 10 11  2  0
 10  2  1  0
 13 12  1  0
 14 13  2  0
 15 13  1  0
 16 15  1  6
 16 17  1  0
 17 10  1  0
 18 19  2  0
 18 16  1  0
 20 18  1  0
 21 22  1  6
 21 20  1  0
 23 28  1  0
 23 22  1  0
 24 23  2  0
 25 26  2  0
 25 24  1  0
 26 27  1  0
 27 28  2  0
 29 21  1  0
 30 29  1  0
 31 29  2  0
M  END
$$$$
