FNF.pdb
     RDKit          3D

 31 32  0  0  1  0  0  0  0  0999 V2000
    6.2973  -18.1698   20.1621 N   0  0  0  0  0  0  0  0  0  0  0  0
    7.0604  -16.9484   20.3920 C   0  0  1  0  0  0  0  0  0  0  0  0
    6.0545  -15.9318   20.9619 C   0  0  0  0  0  0  0  0  0  0  0  0
    6.7990  -14.6587   21.2788 C   0  0  0  0  0  0  0  0  0  0  0  0
    7.2079  -13.8507   20.2534 C   0  0  0  0  0  0  0  0  0  0  0  0
    7.8746  -12.6942   20.5062 C   0  0  0  0  0  0  0  0  0  0  0  0
    8.1432  -12.3306   21.8196 C   0  0  0  0  0  0  0  0  0  0  0  0
    7.7325  -13.1429   22.8519 C   0  0  0  0  0  0  0  0  0  0  0  0
    7.0639  -14.2998   22.5695 C   0  0  0  0  0  0  0  0  0  0  0  0
    8.1091  -17.2378   21.3951 C   0  0  0  0  0  0  0  0  0  0  0  0
    7.8982  -18.0378   22.3695 O   0  0  0  0  0  0  0  0  0  0  0  0
   12.8579  -18.4745   23.3010 N   0  0  0  0  0  0  0  0  0  0  0  0
   12.8951  -17.2367   22.5554 C   0  0  0  0  0  0  0  0  0  0  0  0
   13.8927  -16.4729   22.6978 O   0  0  0  0  0  0  0  0  0  0  0  0
   11.8031  -16.8635   21.6495 C   0  0  0  0  0  0  0  0  0  0  0  0
   10.4680  -17.0282   22.2981 C   0  0  2  0  0  0  0  0  0  0  0  0
    9.4049  -16.6611   21.3509 N   0  0  0  0  0  0  0  0  0  0  0  0
   10.2983  -16.1922   23.5356 C   0  0  0  0  0  0  0  0  0  0  0  0
   10.1175  -14.9547   23.5182 O   0  0  0  0  0  0  0  0  0  0  0  0
   10.3295  -16.7705   24.8532 N   0  0  0  0  0  0  0  0  0  0  0  0
    9.8010  -15.9979   25.9537 C   0  0  1  0  0  0  0  0  0  0  0  0
    8.3469  -15.7129   25.5787 C   0  0  0  0  0  0  0  0  0  0  0  0
    7.9540  -14.3177   25.8096 C   0  0  0  0  0  0  0  0  0  0  0  0
    6.7239  -13.9090   25.3221 C   0  0  0  0  0  0  0  0  0  0  0  0
    6.3516  -12.6005   25.5441 C   0  0  0  0  0  0  0  0  0  0  0  0
    7.1588  -11.7109   26.2251 C   0  0  0  0  0  0  0  0  0  0  0  0
    8.3932  -12.1153   26.7158 C   0  0  0  0  0  0  0  0  0  0  0  0
    8.7582  -13.4249   26.4899 C   0  0  0  0  0  0  0  0  0  0  0  0
    9.8939  -16.7802   27.1948 C   0  0  0  0  0  0  0  0  0  0  0  0
   10.1568  -16.1848   28.4218 O   0  0  0  0  0  0  0  0  0  0  0  0
    9.7353  -18.0169   27.1673 O   0  0  0  0  0  0  0  0  0  0  0  0
  2  1  1  1
  3  4  1  0
  3  2  1  0
  4  5  2  0
  5  6  1  0
  7  6  2  0
  8  7  1  0
  9  8  2  0
  9  4  1  0
 10 11  2  0
 10  2  1  0
 13 12  1  0
 14 13  2  0
 15 13  1  0
 16 15  1  6
 16 17  1  0
 17 10  1  0
 18 19  2  0
 18 16  1  0
 20 18  1  0
 21 22  1  6
 21 20  1  0
 23 28  1  0
 23 22  1  0
 24 23  2  0
 25 26  2  0
 25 24  1  0
 26 27  1  0
 27 28  2  0
 29 21  1  0
 30 29  1  0
 31 29  2  0
M  END
$$$$
