FNF.pdb
     RDKit          3D

 31 32  0  0  1  0  0  0  0  0999 V2000
    7.7336  -16.8459   25.4529 N   0  0  0  0  0  0  0  0  0  0  0  0
    7.1367  -17.0964   24.1460 C   0  0  1  0  0  0  0  0  0  0  0  0
    6.1964  -15.9058   23.8843 C   0  0  0  0  0  0  0  0  0  0  0  0
    6.7661  -14.6936   24.5781 C   0  0  0  0  0  0  0  0  0  0  0  0
    6.5768  -14.5436   25.9246 C   0  0  0  0  0  0  0  0  0  0  0  0
    7.0830  -13.4663   26.5797 C   0  0  0  0  0  0  0  0  0  0  0  0
    7.7992  -12.5085   25.8732 C   0  0  0  0  0  0  0  0  0  0  0  0
    7.9900  -12.6583   24.5185 C   0  0  0  0  0  0  0  0  0  0  0  0
    7.4704  -13.7510   23.8850 C   0  0  0  0  0  0  0  0  0  0  0  0
    8.2191  -17.1163   23.1372 C   0  0  0  0  0  0  0  0  0  0  0  0
    8.2411  -17.9839   22.1987 O   0  0  0  0  0  0  0  0  0  0  0  0
   12.3255  -16.9182   20.2156 N   0  0  0  0  0  0  0  0  0  0  0  0
   11.8717  -15.5759   20.5017 C   0  0  0  0  0  0  0  0  0  0  0  0
   12.5053  -14.6023   20.0022 O   0  0  0  0  0  0  0  0  0  0  0  0
   10.7015  -15.3361   21.3535 C   0  0  0  0  0  0  0  0  0  0  0  0
   10.5314  -16.4141   22.3729 C   0  0  2  0  0  0  0  0  0  0  0  0
    9.2936  -16.1894   23.1343 N   0  0  0  0  0  0  0  0  0  0  0  0
   11.6706  -16.4968   23.3500 C   0  0  0  0  0  0  0  0  0  0  0  0
   12.7075  -15.8022   23.2681 O   0  0  0  0  0  0  0  0  0  0  0  0
   11.6447  -17.3974   24.4724 N   0  0  0  0  0  0  0  0  0  0  0  0
   11.6614  -16.8351   25.8031 C   0  0  1  0  0  0  0  0  0  0  0  0
   10.3757  -16.0149   25.9054 C   0  0  0  0  0  0  0  0  0  0  0  0
   10.0919  -15.5540   27.2697 C   0  0  0  0  0  0  0  0  0  0  0  0
   10.2152  -16.4752   28.2963 C   0  0  0  0  0  0  0  0  0  0  0  0
    9.9548  -16.0413   29.5785 C   0  0  0  0  0  0  0  0  0  0  0  0
    9.5829  -14.7404   29.8541 C   0  0  0  0  0  0  0  0  0  0  0  0
    9.4576  -13.8127   28.8286 C   0  0  0  0  0  0  0  0  0  0  0  0
    9.7196  -14.2540   27.5496 C   0  0  0  0  0  0  0  0  0  0  0  0
   11.6896  -17.9188   26.7960 C   0  0  0  0  0  0  0  0  0  0  0  0
   11.2151  -19.1922   26.5089 O   0  0  0  0  0  0  0  0  0  0  0  0
   12.1489  -17.7095   27.9364 O   0  0  0  0  0  0  0  0  0  0  0  0
  2  1  1  1
  3  4  1  0
  3  2  1  0
  4  5  2  0
  5  6  1  0
  7  6  2  0
  8  7  1  0
  9  8  2  0
  9  4  1  0
 10 11  2  0
 10  2  1  0
 13 12  1  0
 14 13  2  0
 15 13  1  0
 16 15  1  6
 16 17  1  0
 17 10  1  0
 18 19  2  0
 18 16  1  0
 20 18  1  0
 21 22  1  1
 21 20  1  0
 23 28  1  0
 23 22  1  0
 24 23  2  0
 25 26  2  0
 25 24  1  0
 26 27  1  0
 27 28  2  0
 29 21  1  0
 30 29  1  0
 31 29  2  0
M  END
$$$$
