FNF.pdb
     RDKit          3D

 31 32  0  0  1  0  0  0  0  0999 V2000
    7.1042  -18.3803   21.2925 N   0  0  0  0  0  0  0  0  0  0  0  0
    7.6257  -17.0491   21.5805 C   0  0  1  0  0  0  0  0  0  0  0  0
    6.5270  -16.3398   22.3927 C   0  0  0  0  0  0  0  0  0  0  0  0
    6.9661  -14.9178   22.6385 C   0  0  0  0  0  0  0  0  0  0  0  0
    7.0150  -14.4457   23.9215 C   0  0  0  0  0  0  0  0  0  0  0  0
    7.4126  -13.1717   24.1764 C   0  0  0  0  0  0  0  0  0  0  0  0
    7.7720  -12.3417   23.1222 C   0  0  0  0  0  0  0  0  0  0  0  0
    7.7228  -12.8156   21.8310 C   0  0  0  0  0  0  0  0  0  0  0  0
    7.3197  -14.1004   21.6032 C   0  0  0  0  0  0  0  0  0  0  0  0
    8.8465  -17.1968   22.4038 C   0  0  0  0  0  0  0  0  0  0  0  0
    8.9086  -18.0429   23.3599 O   0  0  0  0  0  0  0  0  0  0  0  0
   12.7159  -17.9418   21.0683 N   0  0  0  0  0  0  0  0  0  0  0  0
   13.0885  -16.5826   21.3899 C   0  0  0  0  0  0  0  0  0  0  0  0
   14.0639  -16.0603   20.7777 O   0  0  0  0  0  0  0  0  0  0  0  0
   12.3575  -15.8155   22.4045 C   0  0  0  0  0  0  0  0  0  0  0  0
   11.2397  -16.6093   22.9966 C   0  0  2  0  0  0  0  0  0  0  0  0
   10.0195  -16.4256   22.1967 N   0  0  0  0  0  0  0  0  0  0  0  0
   10.9264  -16.2315   24.4172 C   0  0  0  0  0  0  0  0  0  0  0  0
   10.5541  -15.0895   24.7662 O   0  0  0  0  0  0  0  0  0  0  0  0
   11.0323  -17.1783   25.4960 N   0  0  0  0  0  0  0  0  0  0  0  0
   10.6683  -16.7462   26.8257 C   0  0  1  0  0  0  0  0  0  0  0  0
    9.1651  -16.4770   26.7599 C   0  0  0  0  0  0  0  0  0  0  0  0
    8.8249  -15.0586   26.9230 C   0  0  0  0  0  0  0  0  0  0  0  0
    9.3704  -14.3889   28.0055 C   0  0  0  0  0  0  0  0  0  0  0  0
    9.0562  -13.0552   28.1558 C   0  0  0  0  0  0  0  0  0  0  0  0
    8.2298  -12.3895   27.2722 C   0  0  0  0  0  0  0  0  0  0  0  0
    7.6800  -13.0562   26.1854 C   0  0  0  0  0  0  0  0  0  0  0  0
    7.9989  -14.3892   26.0419 C   0  0  0  0  0  0  0  0  0  0  0  0
   10.9837  -17.8075   27.7927 C   0  0  0  0  0  0  0  0  0  0  0  0
   11.0833  -17.5557   29.1550 O   0  0  0  0  0  0  0  0  0  0  0  0
   11.1714  -18.9759   27.3990 O   0  0  0  0  0  0  0  0  0  0  0  0
  2  1  1  1
  3  4  1  0
  3  2  1  0
  4  5  2  0
  5  6  1  0
  7  6  2  0
  8  7  1  0
  9  8  2  0
  9  4  1  0
 10 11  2  0
 10  2  1  0
 13 12  1  0
 14 13  2  0
 15 13  1  0
 16 15  1  6
 16 17  1  0
 17 10  1  0
 18 19  2  0
 18 16  1  0
 20 18  1  0
 21 22  1  6
 21 20  1  0
 23 28  1  0
 23 22  1  0
 24 23  2  0
 25 26  2  0
 25 24  1  0
 26 27  1  0
 27 28  2  0
 29 21  1  0
 30 29  1  0
 31 29  2  0
M  END
$$$$
