FNF.pdb
     RDKit          3D

 31 32  0  0  1  0  0  0  0  0999 V2000
    6.4556  -17.9762   23.2815 N   0  0  0  0  0  0  0  0  0  0  0  0
    7.0742  -16.7017   23.6279 C   0  0  1  0  0  0  0  0  0  0  0  0
    6.3909  -16.2495   24.9312 C   0  0  0  0  0  0  0  0  0  0  0  0
    6.8260  -14.8355   25.2257 C   0  0  0  0  0  0  0  0  0  0  0  0
    7.4045  -14.0936   24.2326 C   0  0  0  0  0  0  0  0  0  0  0  0
    7.8011  -12.8150   24.4643 C   0  0  0  0  0  0  0  0  0  0  0  0
    7.6169  -12.2574   25.7232 C   0  0  0  0  0  0  0  0  0  0  0  0
    7.0352  -13.0031   26.7231 C   0  0  0  0  0  0  0  0  0  0  0  0
    6.6457  -14.2859   26.4628 C   0  0  0  0  0  0  0  0  0  0  0  0
    8.5155  -16.9353   23.8683 C   0  0  0  0  0  0  0  0  0  0  0  0
    8.9229  -17.9085   24.5900 O   0  0  0  0  0  0  0  0  0  0  0  0
   13.7435  -15.4404   21.2604 N   0  0  0  0  0  0  0  0  0  0  0  0
   12.5650  -16.2692   21.1437 C   0  0  0  0  0  0  0  0  0  0  0  0
   12.6727  -17.4023   20.5928 O   0  0  0  0  0  0  0  0  0  0  0  0
   11.2651  -15.8152   21.6501 C   0  0  0  0  0  0  0  0  0  0  0  0
   10.7916  -16.6584   22.7881 C   0  0  2  0  0  0  0  0  0  0  0  0
    9.5358  -16.1126   23.3242 N   0  0  0  0  0  0  0  0  0  0  0  0
   11.7801  -16.7472   23.9169 C   0  0  0  0  0  0  0  0  0  0  0  0
   12.8526  -17.3875   23.8520 O   0  0  0  0  0  0  0  0  0  0  0  0
   11.5577  -16.0851   25.1753 N   0  0  0  0  0  0  0  0  0  0  0  0
   12.5218  -16.2816   26.2332 C   0  0  1  0  0  0  0  0  0  0  0  0
   12.5393  -14.9634   27.0067 C   0  0  0  0  0  0  0  0  0  0  0  0
   11.2479  -14.6392   27.6242 C   0  0  0  0  0  0  0  0  0  0  0  0
   11.1204  -14.8422   28.9881 C   0  0  0  0  0  0  0  0  0  0  0  0
    9.9098  -14.5321   29.5696 C   0  0  0  0  0  0  0  0  0  0  0  0
    8.8481  -14.0357   28.8395 C   0  0  0  0  0  0  0  0  0  0  0  0
    8.9703  -13.8304   27.4717 C   0  0  0  0  0  0  0  0  0  0  0  0
   10.1837  -14.1428   26.8977 C   0  0  0  0  0  0  0  0  0  0  0  0
   12.0967  -17.4010   27.0860 C   0  0  0  0  0  0  0  0  0  0  0  0
   10.9098  -18.0869   26.8624 O   0  0  0  0  0  0  0  0  0  0  0  0
   12.8084  -17.7616   28.0446 O   0  0  0  0  0  0  0  0  0  0  0  0
  2  1  1  1
  3  4  1  0
  3  2  1  0
  4  5  2  0
  5  6  1  0
  7  6  2  0
  8  7  1  0
  9  8  2  0
  9  4  1  0
 10 11  2  0
 10  2  1  0
 13 12  1  0
 14 13  2  0
 15 13  1  0
 16 15  1  6
 16 17  1  0
 17 10  1  0
 18 19  2  0
 18 16  1  0
 20 18  1  0
 21 22  1  1
 21 20  1  0
 23 28  1  0
 23 22  1  0
 24 23  2  0
 25 26  2  0
 25 24  1  0
 26 27  1  0
 27 28  2  0
 29 21  1  0
 30 29  1  0
 31 29  2  0
M  END
$$$$
