FNF.pdb
     RDKit          3D

 31 32  0  0  1  0  0  0  0  0999 V2000
    3.3874  -22.0357   22.7347 N   0  0  0  0  0  0  0  0  0  0  0  0
    3.5227  -20.5987   22.5255 C   0  0  1  0  0  0  0  0  0  0  0  0
    2.6235  -19.9385   23.5864 C   0  0  0  0  0  0  0  0  0  0  0  0
    1.1857  -20.1376   23.1759 C   0  0  0  0  0  0  0  0  0  0  0  0
    0.7784  -19.7133   21.9408 C   0  0  0  0  0  0  0  0  0  0  0  0
   -0.5082  -19.8841   21.5390 C   0  0  0  0  0  0  0  0  0  0  0  0
   -1.4177  -20.4954   22.3925 C   0  0  0  0  0  0  0  0  0  0  0  0
   -1.0090  -20.9223   23.6355 C   0  0  0  0  0  0  0  0  0  0  0  0
    0.2903  -20.7383   24.0139 C   0  0  0  0  0  0  0  0  0  0  0  0
    4.9358  -20.2265   22.7590 C   0  0  0  0  0  0  0  0  0  0  0  0
    5.5861  -20.6722   23.7652 O   0  0  0  0  0  0  0  0  0  0  0  0
    9.0470  -21.0871   20.5395 N   0  0  0  0  0  0  0  0  0  0  0  0
    7.9319  -20.2144   20.2490 C   0  0  0  0  0  0  0  0  0  0  0  0
    7.0506  -20.6083   19.4322 O   0  0  0  0  0  0  0  0  0  0  0  0
    7.8149  -18.8963   20.8824 C   0  0  0  0  0  0  0  0  0  0  0  0
    7.0533  -18.9666   22.1650 C   0  0  2  0  0  0  0  0  0  0  0  0
    5.6629  -19.3639   21.8982 N   0  0  0  0  0  0  0  0  0  0  0  0
    7.0297  -17.6656   22.9173 C   0  0  0  0  0  0  0  0  0  0  0  0
    6.2330  -16.7340   22.6686 O   0  0  0  0  0  0  0  0  0  0  0  0
    7.9390  -17.3978   24.0004 N   0  0  0  0  0  0  0  0  0  0  0  0
    8.1304  -16.0260   24.4115 C   0  0  1  0  0  0  0  0  0  0  0  0
    7.0713  -15.7802   25.4858 C   0  0  0  0  0  0  0  0  0  0  0  0
    7.1670  -14.4493   26.0971 C   0  0  0  0  0  0  0  0  0  0  0  0
    7.9833  -14.3109   27.2072 C   0  0  0  0  0  0  0  0  0  0  0  0
    8.0785  -13.0599   27.7780 C   0  0  0  0  0  0  0  0  0  0  0  0
    7.3943  -11.9691   27.2791 C   0  0  0  0  0  0  0  0  0  0  0  0
    6.5744  -12.1023   26.1665 C   0  0  0  0  0  0  0  0  0  0  0  0
    6.4845  -13.3560   25.6014 C   0  0  0  0  0  0  0  0  0  0  0  0
    9.4893  -15.8565   24.9459 C   0  0  0  0  0  0  0  0  0  0  0  0
   10.1047  -14.6130   25.0105 O   0  0  0  0  0  0  0  0  0  0  0  0
   10.1263  -16.8461   25.3587 O   0  0  0  0  0  0  0  0  0  0  0  0
  2  1  1  1
  3  4  1  0
  3  2  1  0
  4  5  2  0
  5  6  1  0
  7  6  2  0
  8  7  1  0
  9  8  2  0
  9  4  1  0
 10 11  2  0
 10  2  1  0
 13 12  1  0
 14 13  2  0
 15 13  1  0
 16 15  1  6
 16 17  1  0
 17 10  1  0
 18 19  2  0
 18 16  1  0
 20 18  1  0
 21 22  1  1
 21 20  1  0
 23 28  1  0
 23 22  1  0
 24 23  2  0
 25 26  2  0
 25 24  1  0
 26 27  1  0
 27 28  2  0
 29 21  1  0
 30 29  1  0
 31 29  2  0
M  END
$$$$
