FNF.pdb
     RDKit          3D

 31 32  0  0  1  0  0  0  0  0999 V2000
    6.6998  -17.4996   19.6300 N   0  0  0  0  0  0  0  0  0  0  0  0
    7.4992  -16.4714   20.2865 C   0  0  1  0  0  0  0  0  0  0  0  0
    6.5998  -15.2235   20.3489 C   0  0  0  0  0  0  0  0  0  0  0  0
    7.4379  -14.0613   20.8205 C   0  0  0  0  0  0  0  0  0  0  0  0
    7.4686  -13.7570   22.1538 C   0  0  0  0  0  0  0  0  0  0  0  0
    8.2188  -12.7206   22.6109 C   0  0  0  0  0  0  0  0  0  0  0  0
    8.9610  -11.9633   21.7137 C   0  0  0  0  0  0  0  0  0  0  0  0
    8.9306  -12.2685   20.3720 C   0  0  0  0  0  0  0  0  0  0  0  0
    8.1681  -13.3158   19.9396 C   0  0  0  0  0  0  0  0  0  0  0  0
    7.8166  -16.9338   21.6559 C   0  0  0  0  0  0  0  0  0  0  0  0
    6.9131  -17.4046   22.4278 O   0  0  0  0  0  0  0  0  0  0  0  0
    8.8905  -19.3558   21.4832 N   0  0  0  0  0  0  0  0  0  0  0  0
   10.1383  -19.5030   22.1979 C   0  0  0  0  0  0  0  0  0  0  0  0
   10.9075  -20.4565   21.8848 O   0  0  0  0  0  0  0  0  0  0  0  0
   10.5146  -18.5717   23.2671 C   0  0  0  0  0  0  0  0  0  0  0  0
    9.4671  -17.5298   23.4848 C   0  0  2  0  0  0  0  0  0  0  0  0
    9.1246  -16.8922   22.2048 N   0  0  0  0  0  0  0  0  0  0  0  0
    9.8876  -16.4519   24.4442 C   0  0  0  0  0  0  0  0  0  0  0  0
   10.6070  -15.4798   24.1248 O   0  0  0  0  0  0  0  0  0  0  0  0
    9.4801  -16.4624   25.8246 N   0  0  0  0  0  0  0  0  0  0  0  0
   10.1929  -15.6189   26.7562 C   0  0  1  0  0  0  0  0  0  0  0  0
    9.1475  -15.1891   27.7851 C   0  0  0  0  0  0  0  0  0  0  0  0
    8.1743  -14.2281   27.2526 C   0  0  0  0  0  0  0  0  0  0  0  0
    6.9447  -14.7191   26.8467 C   0  0  0  0  0  0  0  0  0  0  0  0
    6.0281  -13.8161   26.3522 C   0  0  0  0  0  0  0  0  0  0  0  0
    6.3029  -12.4664   26.2554 C   0  0  0  0  0  0  0  0  0  0  0  0
    7.5342  -11.9688   26.6606 C   0  0  0  0  0  0  0  0  0  0  0  0
    8.4452  -12.8777   27.1539 C   0  0  0  0  0  0  0  0  0  0  0  0
   11.2811  -16.3844   27.3813 C   0  0  0  0  0  0  0  0  0  0  0  0
   12.2842  -15.7690   28.1190 O   0  0  0  0  0  0  0  0  0  0  0  0
   11.3239  -17.6247   27.2574 O   0  0  0  0  0  0  0  0  0  0  0  0
  2  1  1  6
  3  4  1  0
  3  2  1  0
  4  5  2  0
  5  6  1  0
  7  6  2  0
  8  7  1  0
  9  8  2  0
  9  4  1  0
 10 11  2  0
 10  2  1  0
 13 12  1  0
 14 13  2  0
 15 13  1  0
 16 15  1  6
 16 17  1  0
 17 10  1  0
 18 19  2  0
 18 16  1  0
 20 18  1  0
 21 22  1  1
 21 20  1  0
 23 28  1  0
 23 22  1  0
 24 23  2  0
 25 26  2  0
 25 24  1  0
 26 27  1  0
 27 28  2  0
 29 21  1  0
 30 29  1  0
 31 29  2  0
M  END
$$$$
