FNF.pdb
     RDKit          3D

 31 32  0  0  1  0  0  0  0  0999 V2000
    7.9661  -16.8678   18.5010 N   0  0  0  0  0  0  0  0  0  0  0  0
    8.8304  -16.9603   19.6721 C   0  0  1  0  0  0  0  0  0  0  0  0
    9.5289  -15.5927   19.7813 C   0  0  0  0  0  0  0  0  0  0  0  0
    8.4770  -14.5463   20.0530 C   0  0  0  0  0  0  0  0  0  0  0  0
    7.9990  -13.7939   19.0154 C   0  0  0  0  0  0  0  0  0  0  0  0
    7.0467  -12.8480   19.2264 C   0  0  0  0  0  0  0  0  0  0  0  0
    6.5553  -12.6441   20.5095 C   0  0  0  0  0  0  0  0  0  0  0  0
    7.0358  -13.4004   21.5542 C   0  0  0  0  0  0  0  0  0  0  0  0
    7.9928  -14.3445   21.3139 C   0  0  0  0  0  0  0  0  0  0  0  0
    7.9790  -17.1887   20.8607 C   0  0  0  0  0  0  0  0  0  0  0  0
    6.7768  -17.6086   20.7501 O   0  0  0  0  0  0  0  0  0  0  0  0
    5.8653  -20.1996   24.3411 N   0  0  0  0  0  0  0  0  0  0  0  0
    7.2659  -19.8521   24.2576 C   0  0  0  0  0  0  0  0  0  0  0  0
    8.0318  -20.1895   25.2055 O   0  0  0  0  0  0  0  0  0  0  0  0
    7.7989  -19.1224   23.1019 C   0  0  0  0  0  0  0  0  0  0  0  0
    7.8361  -17.6500   23.3488 C   0  0  2  0  0  0  0  0  0  0  0  0
    8.4255  -16.9647   22.1889 N   0  0  0  0  0  0  0  0  0  0  0  0
    8.6292  -17.2690   24.5674 C   0  0  0  0  0  0  0  0  0  0  0  0
    9.8788  -17.2918   24.6178 O   0  0  0  0  0  0  0  0  0  0  0  0
    7.9924  -16.8393   25.7845 N   0  0  0  0  0  0  0  0  0  0  0  0
    8.8284  -16.5013   26.9133 C   0  0  1  0  0  0  0  0  0  0  0  0
    8.0126  -15.4970   27.7270 C   0  0  0  0  0  0  0  0  0  0  0  0
    7.8829  -14.1911   27.0696 C   0  0  0  0  0  0  0  0  0  0  0  0
    6.6853  -13.9093   26.4341 C   0  0  0  0  0  0  0  0  0  0  0  0
    6.5607  -12.6807   25.8218 C   0  0  0  0  0  0  0  0  0  0  0  0
    7.5791  -11.7483   25.8285 C   0  0  0  0  0  0  0  0  0  0  0  0
    8.7821  -12.0256   26.4640 C   0  0  0  0  0  0  0  0  0  0  0  0
    8.8989  -13.2559   27.0738 C   0  0  0  0  0  0  0  0  0  0  0  0
    9.1206  -17.7140   27.6911 C   0  0  0  0  0  0  0  0  0  0  0  0
   10.0961  -17.7369   28.6795 O   0  0  0  0  0  0  0  0  0  0  0  0
    8.4852  -18.7647   27.4726 O   0  0  0  0  0  0  0  0  0  0  0  0
  2  1  1  6
  3  4  1  0
  3  2  1  0
  4  5  2  0
  5  6  1  0
  7  6  2  0
  8  7  1  0
  9  8  2  0
  9  4  1  0
 10 11  2  0
 10  2  1  0
 13 12  1  0
 14 13  2  0
 15 13  1  0
 16 15  1  6
 16 17  1  0
 17 10  1  0
 18 19  2  0
 18 16  1  0
 20 18  1  0
 21 22  1  1
 21 20  1  0
 23 28  1  0
 23 22  1  0
 24 23  2  0
 25 26  2  0
 25 24  1  0
 26 27  1  0
 27 28  2  0
 29 21  1  0
 30 29  1  0
 31 29  2  0
M  END
$$$$
