FNF.pdb
     RDKit          3D

 31 32  0  0  1  0  0  0  0  0999 V2000
    7.0511  -17.9986   20.2916 N   0  0  0  0  0  0  0  0  0  0  0  0
    7.8056  -16.9848   21.0195 C   0  0  1  0  0  0  0  0  0  0  0  0
    6.7573  -15.9935   21.5568 C   0  0  0  0  0  0  0  0  0  0  0  0
    7.1078  -14.6163   21.0511 C   0  0  0  0  0  0  0  0  0  0  0  0
    7.5933  -13.6857   21.9284 C   0  0  0  0  0  0  0  0  0  0  0  0
    7.9244  -12.4386   21.5027 C   0  0  0  0  0  0  0  0  0  0  0  0
    7.7672  -12.1071   20.1630 C   0  0  0  0  0  0  0  0  0  0  0  0
    7.2786  -13.0426   19.2796 C   0  0  0  0  0  0  0  0  0  0  0  0
    6.9538  -14.2888   19.7343 C   0  0  0  0  0  0  0  0  0  0  0  0
    8.5014  -17.6440   22.1469 C   0  0  0  0  0  0  0  0  0  0  0  0
    8.4854  -18.9140   22.2904 O   0  0  0  0  0  0  0  0  0  0  0  0
   13.4895  -18.0755   22.7508 N   0  0  0  0  0  0  0  0  0  0  0  0
   12.4308  -17.8480   21.7932 C   0  0  0  0  0  0  0  0  0  0  0  0
   12.4168  -18.5333   20.7307 O   0  0  0  0  0  0  0  0  0  0  0  0
   11.3890  -16.8446   22.0382 C   0  0  0  0  0  0  0  0  0  0  0  0
   10.6761  -17.0933   23.3267 C   0  0  2  0  0  0  0  0  0  0  0  0
    9.2274  -16.9292   23.1347 N   0  0  0  0  0  0  0  0  0  0  0  0
   11.1063  -16.1729   24.4342 C   0  0  0  0  0  0  0  0  0  0  0  0
   11.3696  -14.9615   24.2677 O   0  0  0  0  0  0  0  0  0  0  0  0
   11.2446  -16.6307   25.7918 N   0  0  0  0  0  0  0  0  0  0  0  0
   10.2906  -16.1664   26.7724 C   0  0  1  0  0  0  0  0  0  0  0  0
    9.0092  -15.8950   25.9847 C   0  0  0  0  0  0  0  0  0  0  0  0
    8.4166  -14.5851   26.2799 C   0  0  0  0  0  0  0  0  0  0  0  0
    7.1134  -14.3633   25.8672 C   0  0  0  0  0  0  0  0  0  0  0  0
    6.5541  -13.1355   26.1496 C   0  0  0  0  0  0  0  0  0  0  0  0
    7.2483  -12.1468   26.8184 C   0  0  0  0  0  0  0  0  0  0  0  0
    8.5552  -12.3637   27.2341 C   0  0  0  0  0  0  0  0  0  0  0  0
    9.1073  -13.5936   26.9482 C   0  0  0  0  0  0  0  0  0  0  0  0
   10.0863  -17.2055   27.7920 C   0  0  0  0  0  0  0  0  0  0  0  0
   10.2055  -16.9376   29.1497 O   0  0  0  0  0  0  0  0  0  0  0  0
    9.7969  -18.3691   27.4491 O   0  0  0  0  0  0  0  0  0  0  0  0
  2  1  1  6
  3  4  1  0
  3  2  1  0
  4  5  2  0
  5  6  1  0
  7  6  2  0
  8  7  1  0
  9  8  2  0
  9  4  1  0
 10 11  2  0
 10  2  1  0
 13 12  1  0
 14 13  2  0
 15 13  1  0
 16 15  1  6
 16 17  1  0
 17 10  1  0
 18 19  2  0
 18 16  1  0
 20 18  1  0
 21 22  1  6
 21 20  1  0
 23 28  1  0
 23 22  1  0
 24 23  2  0
 25 26  2  0
 25 24  1  0
 26 27  1  0
 27 28  2  0
 29 21  1  0
 30 29  1  0
 31 29  2  0
M  END
$$$$
