FNF.pdb
     RDKit          3D

 31 32  0  0  1  0  0  0  0  0999 V2000
    6.1892  -18.3552   22.9175 N   0  0  0  0  0  0  0  0  0  0  0  0
    7.0501  -17.2555   22.4975 C   0  0  1  0  0  0  0  0  0  0  0  0
    6.4458  -15.9898   23.1324 C   0  0  0  0  0  0  0  0  0  0  0  0
    6.9848  -14.7892   22.3953 C   0  0  0  0  0  0  0  0  0  0  0  0
    6.6819  -13.5348   22.8493 C   0  0  0  0  0  0  0  0  0  0  0  0
    7.1574  -12.4334   22.2115 C   0  0  0  0  0  0  0  0  0  0  0  0
    7.9586  -12.5847   21.0869 C   0  0  0  0  0  0  0  0  0  0  0  0
    8.2636  -13.8464   20.6291 C   0  0  0  0  0  0  0  0  0  0  0  0
    7.7725  -14.9362   21.2895 C   0  0  0  0  0  0  0  0  0  0  0  0
    8.4061  -17.4941   23.0397 C   0  0  0  0  0  0  0  0  0  0  0  0
    8.6235  -18.3921   23.9229 O   0  0  0  0  0  0  0  0  0  0  0  0
   13.7817  -18.3023   21.6463 N   0  0  0  0  0  0  0  0  0  0  0  0
   13.2327  -17.0398   22.0871 C   0  0  0  0  0  0  0  0  0  0  0  0
   13.9840  -16.2370   22.7116 O   0  0  0  0  0  0  0  0  0  0  0  0
   11.8338  -16.6867   21.8214 C   0  0  0  0  0  0  0  0  0  0  0  0
   10.9206  -17.2210   22.8754 C   0  0  2  0  0  0  0  0  0  0  0  0
    9.5471  -16.7586   22.6262 N   0  0  0  0  0  0  0  0  0  0  0  0
   11.3068  -16.8045   24.2670 C   0  0  0  0  0  0  0  0  0  0  0  0
   12.4148  -17.0628   24.7868 O   0  0  0  0  0  0  0  0  0  0  0  0
   10.4110  -16.0615   25.1137 N   0  0  0  0  0  0  0  0  0  0  0  0
   10.9005  -15.6009   26.3927 C   0  0  1  0  0  0  0  0  0  0  0  0
   10.6901  -14.0870   26.3783 C   0  0  0  0  0  0  0  0  0  0  0  0
    9.2745  -13.7012   26.3411 C   0  0  0  0  0  0  0  0  0  0  0  0
    8.8440  -12.7539   27.2550 C   0  0  0  0  0  0  0  0  0  0  0  0
    7.5159  -12.3866   27.2165 C   0  0  0  0  0  0  0  0  0  0  0  0
    6.6280  -12.9295   26.3089 C   0  0  0  0  0  0  0  0  0  0  0  0
    7.0543  -13.8798   25.3906 C   0  0  0  0  0  0  0  0  0  0  0  0
    8.3833  -14.2417   25.4354 C   0  0  0  0  0  0  0  0  0  0  0  0
   10.1358  -16.2408   27.4728 C   0  0  0  0  0  0  0  0  0  0  0  0
    9.1862  -17.2224   27.2202 O   0  0  0  0  0  0  0  0  0  0  0  0
   10.3300  -15.9068   28.6586 O   0  0  0  0  0  0  0  0  0  0  0  0
  2  1  1  1
  3  4  1  0
  3  2  1  0
  4  5  2  0
  5  6  1  0
  7  6  2  0
  8  7  1  0
  9  8  2  0
  9  4  1  0
 10 11  2  0
 10  2  1  0
 13 12  1  0
 14 13  2  0
 15 13  1  0
 16 15  1  6
 16 17  1  0
 17 10  1  0
 18 19  2  0
 18 16  1  0
 20 18  1  0
 21 22  1  6
 21 20  1  0
 23 28  1  0
 23 22  1  0
 24 23  2  0
 25 26  2  0
 25 24  1  0
 26 27  1  0
 27 28  2  0
 29 21  1  0
 30 29  1  0
 31 29  2  0
M  END
$$$$
