FNF.pdb
     RDKit          3D

 31 32  0  0  1  0  0  0  0  0999 V2000
    7.3506  -15.8495   23.7876 N   0  0  0  0  0  0  0  0  0  0  0  0
    7.0372  -16.8495   22.7733 C   0  0  1  0  0  0  0  0  0  0  0  0
    6.1738  -16.1222   21.7265 C   0  0  0  0  0  0  0  0  0  0  0  0
    6.9074  -14.8777   21.2925 C   0  0  0  0  0  0  0  0  0  0  0  0
    7.1630  -13.8976   22.2120 C   0  0  0  0  0  0  0  0  0  0  0  0
    7.8275  -12.7679   21.8540 C   0  0  0  0  0  0  0  0  0  0  0  0
    8.2502  -12.6081   20.5405 C   0  0  0  0  0  0  0  0  0  0  0  0
    7.9933  -13.5935   19.6146 C   0  0  0  0  0  0  0  0  0  0  0  0
    7.3236  -14.7191   20.0015 C   0  0  0  0  0  0  0  0  0  0  0  0
    8.3052  -17.2995   22.1574 C   0  0  0  0  0  0  0  0  0  0  0  0
    8.4551  -17.3356   20.8884 O   0  0  0  0  0  0  0  0  0  0  0  0
   10.7914  -15.0451   19.8586 N   0  0  0  0  0  0  0  0  0  0  0  0
   11.2553  -15.6799   21.0716 C   0  0  0  0  0  0  0  0  0  0  0  0
   12.3559  -16.3019   21.0476 O   0  0  0  0  0  0  0  0  0  0  0  0
   10.4732  -15.6110   22.3108 C   0  0  0  0  0  0  0  0  0  0  0  0
   10.6088  -16.8597   23.1186 C   0  0  2  0  0  0  0  0  0  0  0  0
    9.4305  -17.7156   22.9150 N   0  0  0  0  0  0  0  0  0  0  0  0
   10.7498  -16.6045   24.5930 C   0  0  0  0  0  0  0  0  0  0  0  0
   11.8441  -16.3872   25.1587 O   0  0  0  0  0  0  0  0  0  0  0  0
    9.6115  -16.5890   25.4736 N   0  0  0  0  0  0  0  0  0  0  0  0
    9.8362  -16.3496   26.8806 C   0  0  1  0  0  0  0  0  0  0  0  0
    8.4684  -15.9634   27.4428 C   0  0  0  0  0  0  0  0  0  0  0  0
    8.0304  -14.6255   27.0275 C   0  0  0  0  0  0  0  0  0  0  0  0
    8.8845  -13.5647   27.2781 C   0  0  0  0  0  0  0  0  0  0  0  0
    8.4764  -12.3089   26.8827 C   0  0  0  0  0  0  0  0  0  0  0  0
    7.2643  -12.0916   26.2578 C   0  0  0  0  0  0  0  0  0  0  0  0
    6.4040  -13.1515   26.0044 C   0  0  0  0  0  0  0  0  0  0  0  0
    6.8191  -14.4038   26.4025 C   0  0  0  0  0  0  0  0  0  0  0  0
   10.3527  -17.5724   27.5124 C   0  0  0  0  0  0  0  0  0  0  0  0
   10.9119  -17.5638   28.7838 O   0  0  0  0  0  0  0  0  0  0  0  0
   10.2970  -18.6606   26.9058 O   0  0  0  0  0  0  0  0  0  0  0  0
  2  1  1  1
  3  4  1  0
  3  2  1  0
  4  5  2  0
  5  6  1  0
  7  6  2  0
  8  7  1  0
  9  8  2  0
  9  4  1  0
 10 11  2  0
 10  2  1  0
 13 12  1  0
 14 13  2  0
 15 13  1  0
 16 15  1  6
 16 17  1  0
 17 10  1  0
 18 19  2  0
 18 16  1  0
 20 18  1  0
 21 22  1  1
 21 20  1  0
 23 28  1  0
 23 22  1  0
 24 23  2  0
 25 26  2  0
 25 24  1  0
 26 27  1  0
 27 28  2  0
 29 21  1  0
 30 29  1  0
 31 29  2  0
M  END
$$$$
