FNF.pdb
     RDKit          3D

 31 32  0  0  1  0  0  0  0  0999 V2000
    6.1258  -18.6604   24.1779 N   0  0  0  0  0  0  0  0  0  0  0  0
    6.7319  -17.3642   23.8963 C   0  0  1  0  0  0  0  0  0  0  0  0
    6.2887  -16.4404   25.0453 C   0  0  0  0  0  0  0  0  0  0  0  0
    6.5783  -15.0156   24.6434 C   0  0  0  0  0  0  0  0  0  0  0  0
    6.6553  -14.6984   23.3149 C   0  0  0  0  0  0  0  0  0  0  0  0
    6.9081  -13.4230   22.9206 C   0  0  0  0  0  0  0  0  0  0  0  0
    7.0905  -12.4328   23.8776 C   0  0  0  0  0  0  0  0  0  0  0  0
    7.0136  -12.7511   25.2144 C   0  0  0  0  0  0  0  0  0  0  0  0
    6.7580  -14.0410   25.5830 C   0  0  0  0  0  0  0  0  0  0  0  0
    8.2028  -17.5251   23.9166 C   0  0  0  0  0  0  0  0  0  0  0  0
    8.7872  -18.2082   24.8253 O   0  0  0  0  0  0  0  0  0  0  0  0
   10.2030  -18.8659   20.1081 N   0  0  0  0  0  0  0  0  0  0  0  0
   10.1755  -17.4554   20.4234 C   0  0  0  0  0  0  0  0  0  0  0  0
    9.4178  -16.6986   19.7511 O   0  0  0  0  0  0  0  0  0  0  0  0
   11.0059  -16.9021   21.4988 C   0  0  0  0  0  0  0  0  0  0  0  0
   10.4877  -17.2825   22.8468 C   0  0  2  0  0  0  0  0  0  0  0  0
    9.0598  -16.9453   22.9454 N   0  0  0  0  0  0  0  0  0  0  0  0
   11.2064  -16.6004   23.9769 C   0  0  0  0  0  0  0  0  0  0  0  0
   11.8370  -15.5274   23.8519 O   0  0  0  0  0  0  0  0  0  0  0  0
   11.2161  -17.1444   25.3094 N   0  0  0  0  0  0  0  0  0  0  0  0
   12.3574  -16.8727   26.1526 C   0  0  1  0  0  0  0  0  0  0  0  0
   12.2915  -15.3732   26.4416 C   0  0  0  0  0  0  0  0  0  0  0  0
   11.2193  -15.0120   27.3765 C   0  0  0  0  0  0  0  0  0  0  0  0
   10.0625  -14.4664   26.8455 C   0  0  0  0  0  0  0  0  0  0  0  0
    9.0527  -14.1326   27.7224 C   0  0  0  0  0  0  0  0  0  0  0  0
    9.1672  -14.3259   29.0848 C   0  0  0  0  0  0  0  0  0  0  0  0
   10.3248  -14.8724   29.6226 C   0  0  0  0  0  0  0  0  0  0  0  0
   11.3297  -15.2034   28.7396 C   0  0  0  0  0  0  0  0  0  0  0  0
   12.2577  -17.6642   27.3873 C   0  0  0  0  0  0  0  0  0  0  0  0
   11.1708  -18.4891   27.6468 O   0  0  0  0  0  0  0  0  0  0  0  0
   13.1654  -17.6077   28.2407 O   0  0  0  0  0  0  0  0  0  0  0  0
  2  1  1  1
  3  4  1  0
  3  2  1  0
  4  5  2  0
  5  6  1  0
  7  6  2  0
  8  7  1  0
  9  8  2  0
  9  4  1  0
 10 11  2  0
 10  2  1  0
 13 12  1  0
 14 13  2  0
 15 13  1  0
 16 15  1  6
 16 17  1  0
 17 10  1  0
 18 19  2  0
 18 16  1  0
 20 18  1  0
 21 22  1  1
 21 20  1  0
 23 28  1  0
 23 22  1  0
 24 23  2  0
 25 26  2  0
 25 24  1  0
 26 27  1  0
 27 28  2  0
 29 21  1  0
 30 29  1  0
 31 29  2  0
M  END
$$$$
