TII.pdb
     RDKit          3D

 24 23  0  0  1  0  0  0  0  0999 V2000
    7.7345  -17.9037   19.7076 C   0  0  0  0  0  0  0  0  0  0  0  0
    8.2760  -17.3666   21.0194 C   0  0  1  0  0  0  0  0  0  0  0  0
    9.5714  -17.8141   21.1613 O   0  0  0  0  0  0  0  0  0  0  0  0
    8.2706  -15.8350   20.9946 C   0  0  2  0  0  0  0  0  0  0  0  0
    9.1924  -15.4768   19.9249 N   0  0  0  0  0  0  0  0  0  0  0  0
    8.7187  -15.2688   22.2867 C   0  0  0  0  0  0  0  0  0  0  0  0
    9.9350  -14.8825   22.3550 O   0  0  0  0  0  0  0  0  0  0  0  0
    5.2736  -12.4071   25.4192 C   0  0  0  0  0  0  0  0  0  0  0  0
    6.4753  -12.9097   24.6925 C   0  0  0  0  0  0  0  0  0  0  0  0
    7.2052  -13.9975   25.4448 C   0  0  2  0  0  0  0  0  0  0  0  0
    7.6476  -13.5411   26.8081 C   0  0  0  0  0  0  0  0  0  0  0  0
    8.3308  -14.5909   24.6427 C   0  0  2  0  0  0  0  0  0  0  0  0
    7.8547  -15.1491   23.4143 N   0  0  0  0  0  0  0  0  0  0  0  0
    9.0526  -15.5900   25.4842 C   0  0  0  0  0  0  0  0  0  0  0  0
    8.8763  -16.8184   25.2778 O   0  0  0  0  0  0  0  0  0  0  0  0
   11.4578  -14.2934   30.4606 C   0  0  0  0  0  0  0  0  0  0  0  0
   10.5176  -14.8458   29.3903 C   0  0  0  0  0  0  0  0  0  0  0  0
   11.3664  -15.7080   28.4840 C   0  0  2  0  0  0  0  0  0  0  0  0
   12.4389  -14.7821   27.9102 C   0  0  0  0  0  0  0  0  0  0  0  0
   10.5987  -16.2670   27.3145 C   0  0  2  0  0  0  0  0  0  0  0  0
    9.9494  -15.2434   26.5316 N   0  0  0  0  0  0  0  0  0  0  0  0
    9.5641  -17.1720   27.8636 C   0  0  0  0  0  0  0  0  0  0  0  0
    8.3739  -16.8454   27.8180 O   0  0  0  0  0  0  0  0  0  0  0  0
    9.9056  -18.3963   28.4365 O   0  0  0  0  0  0  0  0  0  0  0  0
  2  1  1  6
  3  2  1  0
  4  2  1  0
  4  5  1  6
  6  4  1  0
  6  7  2  0
  9 10  1  0
  9  8  1  0
 10 12  1  0
 10 11  1  1
 12 13  1  6
 13  6  1  0
 14 12  1  0
 15 14  2  0
 16 17  1  0
 17 18  1  0
 18 19  1  6
 18 20  1  0
 20 21  1  1
 20 22  1  0
 21 14  1  0
 22 24  1  0
 23 22  2  0
M  END
$$$$
