TII.pdb
     RDKit          3D

 24 23  0  0  1  0  0  0  0  0999 V2000
    6.5789  -17.4055   22.3117 C   0  0  0  0  0  0  0  0  0  0  0  0
    7.3825  -16.6138   21.2967 C   0  0  1  0  0  0  0  0  0  0  0  0
    6.8287  -16.8281   20.0534 O   0  0  0  0  0  0  0  0  0  0  0  0
    7.3124  -15.1205   21.6305 C   0  0  2  0  0  0  0  0  0  0  0  0
    7.9149  -14.4542   20.4835 N   0  0  0  0  0  0  0  0  0  0  0  0
    8.0548  -14.8054   22.8717 C   0  0  0  0  0  0  0  0  0  0  0  0
    9.3274  -14.7336   22.7787 O   0  0  0  0  0  0  0  0  0  0  0  0
    5.8597  -11.3650   26.2903 C   0  0  0  0  0  0  0  0  0  0  0  0
    6.8044  -12.1630   25.4564 C   0  0  0  0  0  0  0  0  0  0  0  0
    7.3940  -13.3394   26.1982 C   0  0  2  0  0  0  0  0  0  0  0  0
    8.1973  -12.9070   27.3941 C   0  0  0  0  0  0  0  0  0  0  0  0
    8.1621  -14.2609   25.2908 C   0  0  2  0  0  0  0  0  0  0  0  0
    7.4050  -14.5879   24.1216 N   0  0  0  0  0  0  0  0  0  0  0  0
    8.5748  -15.4697   26.0628 C   0  0  0  0  0  0  0  0  0  0  0  0
    7.6948  -16.2219   26.5553 O   0  0  0  0  0  0  0  0  0  0  0  0
   13.8263  -17.6660   25.7695 C   0  0  0  0  0  0  0  0  0  0  0  0
   12.7139  -16.8897   26.4726 C   0  0  0  0  0  0  0  0  0  0  0  0
   11.4737  -17.7493   26.3813 C   0  0  2  0  0  0  0  0  0  0  0  0
   11.2133  -17.9506   24.8885 C   0  0  0  0  0  0  0  0  0  0  0  0
   10.2506  -17.0812   26.9534 C   0  0  2  0  0  0  0  0  0  0  0  0
    9.9284  -15.8419   26.2881 N   0  0  0  0  0  0  0  0  0  0  0  0
   10.5349  -16.7953   28.3775 C   0  0  0  0  0  0  0  0  0  0  0  0
   10.6241  -15.6258   28.7644 O   0  0  0  0  0  0  0  0  0  0  0  0
   10.7058  -17.8256   29.3010 O   0  0  0  0  0  0  0  0  0  0  0  0
  2  1  1  1
  3  2  1  0
  4  2  1  0
  4  5  1  6
  6  4  1  0
  6  7  2  0
  9 10  1  0
  9  8  1  0
 10 12  1  0
 10 11  1  1
 12 13  1  6
 13  6  1  0
 14 12  1  0
 15 14  2  0
 16 17  1  0
 17 18  1  0
 18 19  1  6
 18 20  1  0
 20 21  1  6
 20 22  1  0
 21 14  1  0
 22 24  1  0
 23 22  2  0
M  END
$$$$
