TII.pdb
     RDKit          3D

 24 23  0  0  1  0  0  0  0  0999 V2000
    6.4200  -18.3351   25.4070 C   0  0  0  0  0  0  0  0  0  0  0  0
    6.7677  -19.3746   24.3576 C   0  0  1  0  0  0  0  0  0  0  0  0
    5.9733  -20.4797   24.5723 O   0  0  0  0  0  0  0  0  0  0  0  0
    6.4870  -18.8145   22.9597 C   0  0  2  0  0  0  0  0  0  0  0  0
    6.5662  -19.9683   22.0738 N   0  0  0  0  0  0  0  0  0  0  0  0
    7.4812  -17.7873   22.5759 C   0  0  0  0  0  0  0  0  0  0  0  0
    8.6457  -18.2049   22.2553 O   0  0  0  0  0  0  0  0  0  0  0  0
    6.2828  -13.2624   19.8267 C   0  0  0  0  0  0  0  0  0  0  0  0
    7.0220  -14.4419   20.3626 C   0  0  0  0  0  0  0  0  0  0  0  0
    7.6578  -14.1764   21.7069 C   0  0  2  0  0  0  0  0  0  0  0  0
    8.6730  -13.0684   21.6417 C   0  0  0  0  0  0  0  0  0  0  0  0
    8.2092  -15.4267   22.3356 C   0  0  2  0  0  0  0  0  0  0  0  0
    7.1787  -16.3944   22.5565 N   0  0  0  0  0  0  0  0  0  0  0  0
    8.9310  -15.0618   23.5898 C   0  0  0  0  0  0  0  0  0  0  0  0
   10.0817  -14.5581   23.5196 O   0  0  0  0  0  0  0  0  0  0  0  0
    6.8533  -11.6293   26.6127 C   0  0  0  0  0  0  0  0  0  0  0  0
    7.8239  -12.5021   25.8183 C   0  0  0  0  0  0  0  0  0  0  0  0
    8.2270  -13.6328   26.7371 C   0  0  2  0  0  0  0  0  0  0  0  0
    9.1125  -13.0027   27.8121 C   0  0  0  0  0  0  0  0  0  0  0  0
    9.0560  -14.6849   26.0476 C   0  0  2  0  0  0  0  0  0  0  0  0
    8.3969  -15.2483   24.8942 N   0  0  0  0  0  0  0  0  0  0  0  0
    9.2972  -15.7646   27.0309 C   0  0  0  0  0  0  0  0  0  0  0  0
    9.9711  -15.5378   28.0407 O   0  0  0  0  0  0  0  0  0  0  0  0
    8.7761  -17.0437   26.8416 O   0  0  0  0  0  0  0  0  0  0  0  0
  2  1  1  1
  3  2  1  0
  4  2  1  0
  4  5  1  6
  6  4  1  0
  6  7  2  0
  9 10  1  0
  9  8  1  0
 10 12  1  0
 10 11  1  6
 12 13  1  1
 13  6  1  0
 14 12  1  0
 15 14  2  0
 16 17  1  0
 17 18  1  0
 18 19  1  1
 18 20  1  0
 20 21  1  6
 20 22  1  0
 21 14  1  0
 22 24  1  0
 23 22  2  0
M  END
$$$$
