TII.pdb
     RDKit          3D

 24 23  0  0  1  0  0  0  0  0999 V2000
    7.4210  -18.7006   23.7502 C   0  0  0  0  0  0  0  0  0  0  0  0
    7.7669  -18.3072   22.3260 C   0  0  1  0  0  0  0  0  0  0  0  0
    7.3209  -19.3053   21.4875 O   0  0  0  0  0  0  0  0  0  0  0  0
    7.0658  -16.9938   21.9657 C   0  0  2  0  0  0  0  0  0  0  0  0
    7.1929  -16.8891   20.5182 N   0  0  0  0  0  0  0  0  0  0  0  0
    7.7016  -15.8367   22.6348 C   0  0  0  0  0  0  0  0  0  0  0  0
    8.7997  -15.4150   22.1351 O   0  0  0  0  0  0  0  0  0  0  0  0
    6.5112  -11.2198   26.6048 C   0  0  0  0  0  0  0  0  0  0  0  0
    7.4501  -12.0193   25.7658 C   0  0  0  0  0  0  0  0  0  0  0  0
    6.8145  -13.2662   25.1973 C   0  0  2  0  0  0  0  0  0  0  0  0
    6.1142  -14.0747   26.2549 C   0  0  0  0  0  0  0  0  0  0  0  0
    7.7851  -14.0870   24.3931 C   0  0  2  0  0  0  0  0  0  0  0  0
    7.1364  -15.2059   23.7813 N   0  0  0  0  0  0  0  0  0  0  0  0
    8.9214  -14.4933   25.2712 C   0  0  0  0  0  0  0  0  0  0  0  0
    9.7381  -13.6241   25.6714 O   0  0  0  0  0  0  0  0  0  0  0  0
   10.5254  -13.3962   29.2033 C   0  0  0  0  0  0  0  0  0  0  0  0
   10.5668  -13.9559   27.7821 C   0  0  0  0  0  0  0  0  0  0  0  0
   10.1862  -15.4150   27.8895 C   0  0  2  0  0  0  0  0  0  0  0  0
   11.2289  -16.0527   28.8077 C   0  0  0  0  0  0  0  0  0  0  0  0
   10.2598  -16.1413   26.5717 C   0  0  2  0  0  0  0  0  0  0  0  0
    9.1537  -15.8291   25.6992 N   0  0  0  0  0  0  0  0  0  0  0  0
   10.2344  -17.5909   26.8700 C   0  0  0  0  0  0  0  0  0  0  0  0
    9.2116  -18.2467   26.6486 O   0  0  0  0  0  0  0  0  0  0  0  0
   11.3491  -18.2390   27.4001 O   0  0  0  0  0  0  0  0  0  0  0  0
  2  1  1  1
  3  2  1  0
  4  2  1  0
  4  5  1  6
  6  4  1  0
  6  7  2  0
  9 10  1  0
  9  8  1  0
 10 12  1  0
 10 11  1  1
 12 13  1  1
 13  6  1  0
 14 12  1  0
 15 14  2  0
 16 17  1  0
 17 18  1  0
 18 19  1  1
 18 20  1  0
 20 21  1  6
 20 22  1  0
 21 14  1  0
 22 24  1  0
 23 22  2  0
M  END
$$$$
