TII.pdb
     RDKit          3D

 24 23  0  0  1  0  0  0  0  0999 V2000
    7.0239  -17.3419   22.1721 C   0  0  0  0  0  0  0  0  0  0  0  0
    7.7806  -16.5416   21.1283 C   0  0  1  0  0  0  0  0  0  0  0  0
    7.3334  -16.9318   19.8848 O   0  0  0  0  0  0  0  0  0  0  0  0
    7.5031  -15.0472   21.3188 C   0  0  2  0  0  0  0  0  0  0  0  0
    8.1483  -14.4013   20.1834 N   0  0  0  0  0  0  0  0  0  0  0  0
    8.0627  -14.5488   22.5953 C   0  0  0  0  0  0  0  0  0  0  0  0
    9.2989  -14.2245   22.5943 O   0  0  0  0  0  0  0  0  0  0  0  0
    5.3439  -11.5936   26.3038 C   0  0  0  0  0  0  0  0  0  0  0  0
    6.4146  -12.1838   25.4493 C   0  0  0  0  0  0  0  0  0  0  0  0
    6.9457  -13.4902   25.9907 C   0  0  2  0  0  0  0  0  0  0  0  0
    7.5184  -13.3368   27.3730 C   0  0  0  0  0  0  0  0  0  0  0  0
    7.9036  -14.1555   25.0408 C   0  0  2  0  0  0  0  0  0  0  0  0
    7.2813  -14.4269   23.7813 N   0  0  0  0  0  0  0  0  0  0  0  0
    8.4519  -15.3846   25.6857 C   0  0  0  0  0  0  0  0  0  0  0  0
    7.7350  -16.4151   25.7674 O   0  0  0  0  0  0  0  0  0  0  0  0
   12.2423  -15.5232   28.8781 C   0  0  0  0  0  0  0  0  0  0  0  0
   12.3549  -15.4747   27.3550 C   0  0  0  0  0  0  0  0  0  0  0  0
   11.7603  -16.7673   26.8443 C   0  0  2  0  0  0  0  0  0  0  0  0
   12.2896  -16.9372   25.4203 C   0  0  0  0  0  0  0  0  0  0  0  0
   10.2571  -16.7278   26.7513 C   0  0  2  0  0  0  0  0  0  0  0  0
    9.7623  -15.4767   26.2297 N   0  0  0  0  0  0  0  0  0  0  0  0
    9.7298  -16.9122   28.1219 C   0  0  0  0  0  0  0  0  0  0  0  0
    9.2070  -15.9622   28.7130 O   0  0  0  0  0  0  0  0  0  0  0  0
    9.8103  -18.1455   28.7671 O   0  0  0  0  0  0  0  0  0  0  0  0
  2  1  1  1
  3  2  1  0
  4  2  1  0
  4  5  1  6
  6  4  1  0
  6  7  2  0
  9 10  1  0
  9  8  1  0
 10 12  1  0
 10 11  1  1
 12 13  1  6
 13  6  1  0
 14 12  1  0
 15 14  2  0
 16 17  1  0
 17 18  1  0
 18 19  1  6
 18 20  1  0
 20 21  1  1
 20 22  1  0
 21 14  1  0
 22 24  1  0
 23 22  2  0
M  END
$$$$
