TII.pdb
     RDKit          3D

 24 23  0  0  1  0  0  0  0  0999 V2000
   11.7624  -19.4571   21.8692 C   0  0  0  0  0  0  0  0  0  0  0  0
   12.8311  -18.5775   21.2473 C   0  0  1  0  0  0  0  0  0  0  0  0
   13.4651  -19.3065   20.2649 O   0  0  0  0  0  0  0  0  0  0  0  0
   12.1834  -17.3396   20.6192 C   0  0  2  0  0  0  0  0  0  0  0  0
   13.2836  -16.6248   19.9858 N   0  0  0  0  0  0  0  0  0  0  0  0
   11.5248  -16.4936   21.6398 C   0  0  0  0  0  0  0  0  0  0  0  0
   12.2868  -15.7668   22.3639 O   0  0  0  0  0  0  0  0  0  0  0  0
    6.5790  -14.3644   20.6584 C   0  0  0  0  0  0  0  0  0  0  0  0
    7.9896  -14.5809   21.0923 C   0  0  0  0  0  0  0  0  0  0  0  0
    8.0934  -15.2757   22.4296 C   0  0  2  0  0  0  0  0  0  0  0  0
    7.3812  -14.5175   23.5160 C   0  0  0  0  0  0  0  0  0  0  0  0
    9.5151  -15.6052   22.7939 C   0  0  2  0  0  0  0  0  0  0  0  0
   10.1116  -16.4727   21.8250 N   0  0  0  0  0  0  0  0  0  0  0  0
    9.5428  -16.1793   24.1712 C   0  0  0  0  0  0  0  0  0  0  0  0
    9.5584  -17.4281   24.3228 O   0  0  0  0  0  0  0  0  0  0  0  0
   10.2469  -12.7151   28.4668 C   0  0  0  0  0  0  0  0  0  0  0  0
   10.7852  -13.8604   27.6106 C   0  0  0  0  0  0  0  0  0  0  0  0
    9.8085  -15.0034   27.7685 C   0  0  2  0  0  0  0  0  0  0  0  0
   10.2399  -15.7507   29.0304 C   0  0  0  0  0  0  0  0  0  0  0  0
    9.8687  -15.9907   26.6322 C   0  0  2  0  0  0  0  0  0  0  0  0
    9.5526  -15.3946   25.3567 N   0  0  0  0  0  0  0  0  0  0  0  0
    8.8753  -17.0494   26.9204 C   0  0  0  0  0  0  0  0  0  0  0  0
    9.2254  -18.0785   27.5068 O   0  0  0  0  0  0  0  0  0  0  0  0
    7.5408  -16.9103   26.5418 O   0  0  0  0  0  0  0  0  0  0  0  0
  2  1  1  6
  3  2  1  0
  4  2  1  0
  4  5  1  1
  6  4  1  0
  6  7  2  0
  9 10  1  0
  9  8  1  0
 10 12  1  0
 10 11  1  1
 12 13  1  6
 13  6  1  0
 14 12  1  0
 15 14  2  0
 16 17  1  0
 17 18  1  0
 18 19  1  1
 18 20  1  0
 20 21  1  6
 20 22  1  0
 21 14  1  0
 22 24  1  0
 23 22  2  0
M  END
$$$$
