TII.pdb
     RDKit          3D

 24 23  0  0  1  0  0  0  0  0999 V2000
    5.9001  -16.3316   19.9831 C   0  0  0  0  0  0  0  0  0  0  0  0
    6.7141  -16.1226   21.2466 C   0  0  1  0  0  0  0  0  0  0  0  0
    7.8470  -16.9018   21.1578 O   0  0  0  0  0  0  0  0  0  0  0  0
    7.1214  -14.6506   21.3638 C   0  0  2  0  0  0  0  0  0  0  0  0
    7.9339  -14.3941   20.1821 N   0  0  0  0  0  0  0  0  0  0  0  0
    7.8956  -14.3975   22.5996 C   0  0  0  0  0  0  0  0  0  0  0  0
    9.1692  -14.4241   22.4966 O   0  0  0  0  0  0  0  0  0  0  0  0
    5.9417  -11.1834   26.5154 C   0  0  0  0  0  0  0  0  0  0  0  0
    6.9083  -11.8594   25.6025 C   0  0  0  0  0  0  0  0  0  0  0  0
    7.3323  -13.2216   26.0992 C   0  0  2  0  0  0  0  0  0  0  0  0
    8.1015  -13.1373   27.3890 C   0  0  0  0  0  0  0  0  0  0  0  0
    8.0580  -14.0137   25.0464 C   0  0  2  0  0  0  0  0  0  0  0  0
    7.2744  -14.1340   23.8553 N   0  0  0  0  0  0  0  0  0  0  0  0
    8.4431  -15.3387   25.6151 C   0  0  0  0  0  0  0  0  0  0  0  0
    7.5522  -16.1939   25.8549 O   0  0  0  0  0  0  0  0  0  0  0  0
   12.3051  -18.2005   23.3629 C   0  0  0  0  0  0  0  0  0  0  0  0
   11.0099  -17.7019   24.0021 C   0  0  0  0  0  0  0  0  0  0  0  0
   11.2754  -17.6169   25.4878 C   0  0  2  0  0  0  0  0  0  0  0  0
   11.4938  -19.0554   25.9566 C   0  0  0  0  0  0  0  0  0  0  0  0
   10.1041  -17.0757   26.2654 C   0  0  2  0  0  0  0  0  0  0  0  0
    9.7816  -15.7137   25.9140 N   0  0  0  0  0  0  0  0  0  0  0  0
   10.4723  -17.1216   27.6982 C   0  0  0  0  0  0  0  0  0  0  0  0
   10.5574  -18.2093   28.2770 O   0  0  0  0  0  0  0  0  0  0  0  0
   10.7277  -15.9542   28.4163 O   0  0  0  0  0  0  0  0  0  0  0  0
  2  1  1  6
  3  2  1  0
  4  2  1  0
  4  5  1  6
  6  4  1  0
  6  7  2  0
  9 10  1  0
  9  8  1  0
 10 12  1  0
 10 11  1  1
 12 13  1  6
 13  6  1  0
 14 12  1  0
 15 14  2  0
 16 17  1  0
 17 18  1  0
 18 19  1  1
 18 20  1  0
 20 21  1  6
 20 22  1  0
 21 14  1  0
 22 24  1  0
 23 22  2  0
M  END
$$$$
