TII.pdb
     RDKit          3D

 24 23  0  0  1  0  0  0  0  0999 V2000
    9.6763  -18.6782   22.3186 C   0  0  0  0  0  0  0  0  0  0  0  0
   10.2733  -17.7315   21.2940 C   0  0  1  0  0  0  0  0  0  0  0  0
   10.2199  -18.3470   20.0625 O   0  0  0  0  0  0  0  0  0  0  0  0
    9.4571  -16.4361   21.2471 C   0  0  2  0  0  0  0  0  0  0  0  0
   10.0008  -15.6945   20.1170 N   0  0  0  0  0  0  0  0  0  0  0  0
    9.5951  -15.6609   22.5004 C   0  0  0  0  0  0  0  0  0  0  0  0
   10.7009  -15.0452   22.6776 O   0  0  0  0  0  0  0  0  0  0  0  0
    5.6174  -12.6917   24.6434 C   0  0  0  0  0  0  0  0  0  0  0  0
    6.9439  -13.2342   24.2297 C   0  0  0  0  0  0  0  0  0  0  0  0
    7.4871  -14.2599   25.1965 C   0  0  2  0  0  0  0  0  0  0  0  0
    7.6128  -13.7098   26.5908 C   0  0  0  0  0  0  0  0  0  0  0  0
    8.7639  -14.8868   24.7073 C   0  0  2  0  0  0  0  0  0  0  0  0
    8.5595  -15.5886   23.4773 N   0  0  0  0  0  0  0  0  0  0  0  0
    9.3176  -15.7625   25.7815 C   0  0  0  0  0  0  0  0  0  0  0  0
    9.4446  -16.9965   25.5723 O   0  0  0  0  0  0  0  0  0  0  0  0
   11.4944  -13.7685   28.4308 C   0  0  0  0  0  0  0  0  0  0  0  0
   10.5956  -14.2185   29.5815 C   0  0  0  0  0  0  0  0  0  0  0  0
   10.3743  -15.7018   29.3919 C   0  0  2  0  0  0  0  0  0  0  0  0
   11.5091  -16.3937   30.1471 C   0  0  0  0  0  0  0  0  0  0  0  0
   10.4786  -16.1336   27.9524 C   0  0  2  0  0  0  0  0  0  0  0  0
    9.7223  -15.2891   27.0596 N   0  0  0  0  0  0  0  0  0  0  0  0
    9.9435  -17.5111   27.8697 C   0  0  0  0  0  0  0  0  0  0  0  0
    8.7234  -17.7001   27.9024 O   0  0  0  0  0  0  0  0  0  0  0  0
   10.7930  -18.6104   27.7546 O   0  0  0  0  0  0  0  0  0  0  0  0
  2  1  1  1
  3  2  1  0
  4  2  1  0
  4  5  1  6
  6  4  1  0
  6  7  2  0
  9 10  1  0
  9  8  1  0
 10 12  1  0
 10 11  1  1
 12 13  1  6
 13  6  1  0
 14 12  1  0
 15 14  2  0
 16 17  1  0
 17 18  1  0
 18 19  1  1
 18 20  1  0
 20 21  1  6
 20 22  1  0
 21 14  1  0
 22 24  1  0
 23 22  2  0
M  END
$$$$
