TII.pdb
     RDKit          3D

 24 23  0  0  1  0  0  0  0  0999 V2000
    5.8771  -20.6056   25.3300 C   0  0  0  0  0  0  0  0  0  0  0  0
    6.8274  -19.4814   24.9618 C   0  0  1  0  0  0  0  0  0  0  0  0
    8.1050  -19.8772   25.2930 O   0  0  0  0  0  0  0  0  0  0  0  0
    6.7559  -19.2141   23.4552 C   0  0  2  0  0  0  0  0  0  0  0  0
    7.1208  -20.4808   22.8349 N   0  0  0  0  0  0  0  0  0  0  0  0
    7.6905  -18.1407   23.0485 C   0  0  0  0  0  0  0  0  0  0  0  0
    8.8197  -18.5089   22.5767 O   0  0  0  0  0  0  0  0  0  0  0  0
    6.3657  -13.7140   20.2944 C   0  0  0  0  0  0  0  0  0  0  0  0
    7.1137  -14.8636   20.8805 C   0  0  0  0  0  0  0  0  0  0  0  0
    7.7127  -14.5484   22.2310 C   0  0  2  0  0  0  0  0  0  0  0  0
    8.6457  -13.3699   22.1730 C   0  0  0  0  0  0  0  0  0  0  0  0
    8.3457  -15.7534   22.8711 C   0  0  2  0  0  0  0  0  0  0  0  0
    7.3697  -16.7568   23.1669 N   0  0  0  0  0  0  0  0  0  0  0  0
    9.1050  -15.3184   24.0801 C   0  0  0  0  0  0  0  0  0  0  0  0
   10.1585  -14.6447   23.9423 O   0  0  0  0  0  0  0  0  0  0  0  0
    6.9496  -12.2914   27.4454 C   0  0  0  0  0  0  0  0  0  0  0  0
    7.9326  -13.0129   26.5247 C   0  0  0  0  0  0  0  0  0  0  0  0
    8.5548  -14.1163   27.3496 C   0  0  2  0  0  0  0  0  0  0  0  0
    9.4762  -13.4206   28.3515 C   0  0  0  0  0  0  0  0  0  0  0  0
    9.4156  -15.0466   26.5353 C   0  0  2  0  0  0  0  0  0  0  0  0
    8.7124  -15.6196   25.4130 N   0  0  0  0  0  0  0  0  0  0  0  0
    9.8471  -16.1409   27.4337 C   0  0  0  0  0  0  0  0  0  0  0  0
    9.3561  -17.2675   27.3109 O   0  0  0  0  0  0  0  0  0  0  0  0
   10.8042  -15.9272   28.4246 O   0  0  0  0  0  0  0  0  0  0  0  0
  2  1  1  6
  3  2  1  0
  4  2  1  0
  4  5  1  6
  6  4  1  0
  6  7  2  0
  9 10  1  0
  9  8  1  0
 10 12  1  0
 10 11  1  6
 12 13  1  1
 13  6  1  0
 14 12  1  0
 15 14  2  0
 16 17  1  0
 17 18  1  0
 18 19  1  1
 18 20  1  0
 20 21  1  6
 20 22  1  0
 21 14  1  0
 22 24  1  0
 23 22  2  0
M  END
$$$$
