TII.pdb
     RDKit          3D

 24 23  0  0  1  0  0  0  0  0999 V2000
    9.0626  -12.4224   19.8136 C   0  0  0  0  0  0  0  0  0  0  0  0
    8.1878  -13.0950   18.7720 C   0  0  1  0  0  0  0  0  0  0  0  0
    8.4328  -12.4938   17.5567 O   0  0  0  0  0  0  0  0  0  0  0  0
    8.5412  -14.5826   18.6801 C   0  0  2  0  0  0  0  0  0  0  0  0
    7.6798  -15.1054   17.6278 N   0  0  0  0  0  0  0  0  0  0  0  0
    8.2905  -15.2811   19.9607 C   0  0  0  0  0  0  0  0  0  0  0  0
    7.0770  -15.5848   20.2228 O   0  0  0  0  0  0  0  0  0  0  0  0
   10.5339  -19.7031   21.2688 C   0  0  0  0  0  0  0  0  0  0  0  0
    9.6573  -18.5013   21.1581 C   0  0  0  0  0  0  0  0  0  0  0  0
    9.8738  -17.5104   22.2776 C   0  0  2  0  0  0  0  0  0  0  0  0
    9.6999  -18.1421   23.6315 C   0  0  0  0  0  0  0  0  0  0  0  0
    9.0423  -16.2682   22.1103 C   0  0  2  0  0  0  0  0  0  0  0  0
    9.3345  -15.6105   20.8737 N   0  0  0  0  0  0  0  0  0  0  0  0
    9.2495  -15.3823   23.2934 C   0  0  0  0  0  0  0  0  0  0  0  0
   10.3435  -14.7767   23.4312 O   0  0  0  0  0  0  0  0  0  0  0  0
    6.4427  -11.4214   26.8524 C   0  0  0  0  0  0  0  0  0  0  0  0
    7.5959  -12.4238   26.8462 C   0  0  0  0  0  0  0  0  0  0  0  0
    7.3777  -13.3141   25.6441 C   0  0  2  0  0  0  0  0  0  0  0  0
    6.1603  -14.1763   25.9777 C   0  0  0  0  0  0  0  0  0  0  0  0
    8.5262  -14.2560   25.3926 C   0  0  2  0  0  0  0  0  0  0  0  0
    8.2724  -15.1683   24.3038 N   0  0  0  0  0  0  0  0  0  0  0  0
    8.7273  -15.0401   26.6317 C   0  0  0  0  0  0  0  0  0  0  0  0
    9.1224  -14.4782   27.6581 O   0  0  0  0  0  0  0  0  0  0  0  0
    8.4784  -16.4114   26.6672 O   0  0  0  0  0  0  0  0  0  0  0  0
  2  1  1  1
  3  2  1  0
  4  2  1  0
  4  5  1  6
  6  4  1  0
  6  7  2  0
  9 10  1  0
  9  8  1  0
 10 12  1  0
 10 11  1  1
 12 13  1  6
 13  6  1  0
 14 12  1  0
 15 14  2  0
 16 17  1  0
 17 18  1  0
 18 19  1  1
 18 20  1  0
 20 21  1  6
 20 22  1  0
 21 14  1  0
 22 24  1  0
 23 22  2  0
M  END
$$$$
