TII.pdb
     RDKit          3D

 24 23  0  0  1  0  0  0  0  0999 V2000
   10.1291  -14.2604   20.3782 C   0  0  0  0  0  0  0  0  0  0  0  0
    8.9405  -13.6006   19.7041 C   0  0  1  0  0  0  0  0  0  0  0  0
    9.3033  -13.2851   18.4129 O   0  0  0  0  0  0  0  0  0  0  0  0
    7.7566  -14.5721   19.6731 C   0  0  2  0  0  0  0  0  0  0  0  0
    6.7109  -13.8615   18.9491 N   0  0  0  0  0  0  0  0  0  0  0  0
    7.3055  -14.9233   21.0384 C   0  0  0  0  0  0  0  0  0  0  0  0
    6.6674  -14.0230   21.6831 O   0  0  0  0  0  0  0  0  0  0  0  0
    6.0794  -20.1449   22.1451 C   0  0  0  0  0  0  0  0  0  0  0  0
    6.0839  -18.6562   22.0516 C   0  0  0  0  0  0  0  0  0  0  0  0
    6.9326  -18.0028   23.1168 C   0  0  2  0  0  0  0  0  0  0  0  0
    6.4810  -18.3720   24.5032 C   0  0  0  0  0  0  0  0  0  0  0  0
    7.0457  -16.5152   22.9248 C   0  0  2  0  0  0  0  0  0  0  0  0
    7.5578  -16.1967   21.6273 N   0  0  0  0  0  0  0  0  0  0  0  0
    7.8780  -15.9456   24.0249 C   0  0  0  0  0  0  0  0  0  0  0  0
    9.1305  -16.0528   23.9749 O   0  0  0  0  0  0  0  0  0  0  0  0
    5.9500  -11.7117   27.0578 C   0  0  0  0  0  0  0  0  0  0  0  0
    6.8715  -12.4842   26.1149 C   0  0  0  0  0  0  0  0  0  0  0  0
    7.4926  -13.5886   26.9393 C   0  0  2  0  0  0  0  0  0  0  0  0
    8.5465  -12.9133   27.8168 C   0  0  0  0  0  0  0  0  0  0  0  0
    8.2111  -14.6150   26.1028 C   0  0  2  0  0  0  0  0  0  0  0  0
    7.3420  -15.2724   25.1568 N   0  0  0  0  0  0  0  0  0  0  0  0
    8.7567  -15.6306   27.0310 C   0  0  0  0  0  0  0  0  0  0  0  0
    9.8811  -15.4775   27.5185 O   0  0  0  0  0  0  0  0  0  0  0  0
    8.0237  -16.7666   27.3710 O   0  0  0  0  0  0  0  0  0  0  0  0
  2  1  1  6
  3  2  1  0
  4  2  1  0
  4  5  1  6
  6  4  1  0
  6  7  2  0
  9 10  1  0
  9  8  1  0
 10 12  1  0
 10 11  1  1
 12 13  1  6
 13  6  1  0
 14 12  1  0
 15 14  2  0
 16 17  1  0
 17 18  1  0
 18 19  1  1
 18 20  1  0
 20 21  1  6
 20 22  1  0
 21 14  1  0
 22 24  1  0
 23 22  2  0
M  END
$$$$
