TII.pdb
     RDKit          3D

 24 23  0  0  1  0  0  0  0  0999 V2000
    6.3697  -16.9826   21.7875 C   0  0  0  0  0  0  0  0  0  0  0  0
    7.2593  -16.2108   20.8306 C   0  0  1  0  0  0  0  0  0  0  0  0
    6.7302  -16.3325   19.5642 O   0  0  0  0  0  0  0  0  0  0  0  0
    7.2866  -14.7313   21.2266 C   0  0  2  0  0  0  0  0  0  0  0  0
    7.9814  -14.0660   20.1324 N   0  0  0  0  0  0  0  0  0  0  0  0
    8.0008  -14.5242   22.5064 C   0  0  0  0  0  0  0  0  0  0  0  0
    9.2759  -14.4591   22.4500 O   0  0  0  0  0  0  0  0  0  0  0  0
    5.8128  -11.4466   26.3379 C   0  0  0  0  0  0  0  0  0  0  0  0
    6.7902  -12.1261   25.4391 C   0  0  0  0  0  0  0  0  0  0  0  0
    7.2658  -13.4526   25.9833 C   0  0  2  0  0  0  0  0  0  0  0  0
    7.9958  -13.2975   27.2892 C   0  0  0  0  0  0  0  0  0  0  0  0
    8.0561  -14.2356   24.9709 C   0  0  2  0  0  0  0  0  0  0  0  0
    7.3222  -14.3999   23.7538 N   0  0  0  0  0  0  0  0  0  0  0  0
    8.4632  -15.5382   25.5749 C   0  0  0  0  0  0  0  0  0  0  0  0
    7.5807  -16.3707   25.9078 O   0  0  0  0  0  0  0  0  0  0  0  0
   12.3523  -18.5016   23.3841 C   0  0  0  0  0  0  0  0  0  0  0  0
   11.0625  -17.9545   23.9939 C   0  0  0  0  0  0  0  0  0  0  0  0
   11.3136  -17.8339   25.4797 C   0  0  2  0  0  0  0  0  0  0  0  0
   11.5069  -19.2624   25.9885 C   0  0  0  0  0  0  0  0  0  0  0  0
   10.1419  -17.2562   26.2300 C   0  0  2  0  0  0  0  0  0  0  0  0
    9.8140  -15.9158   25.8077 N   0  0  0  0  0  0  0  0  0  0  0  0
   10.5131  -17.2249   27.6625 C   0  0  0  0  0  0  0  0  0  0  0  0
   10.8966  -16.1691   28.1758 O   0  0  0  0  0  0  0  0  0  0  0  0
   10.4388  -18.3707   28.4532 O   0  0  0  0  0  0  0  0  0  0  0  0
  2  1  1  1
  3  2  1  0
  4  2  1  0
  4  5  1  6
  6  4  1  0
  6  7  2  0
  9 10  1  0
  9  8  1  0
 10 12  1  0
 10 11  1  1
 12 13  1  6
 13  6  1  0
 14 12  1  0
 15 14  2  0
 16 17  1  0
 17 18  1  0
 18 19  1  1
 18 20  1  0
 20 21  1  6
 20 22  1  0
 21 14  1  0
 22 24  1  0
 23 22  2  0
M  END
$$$$
