DLN.pdb
     RDKit          3D

 25 24  0  0  1  0  0  0  0  0999 V2000
   20.3041  -19.6971  -12.1918 N   0  0  0  0  0  0  0  0  0  0  0  0
   21.0761  -20.6707  -12.9351 C   0  0  1  0  0  0  0  0  0  0  0  0
   20.1295  -21.2738  -13.9647 C   0  0  0  0  0  0  0  0  0  0  0  0
   19.0584  -22.0042  -13.2788 C   0  0  0  0  0  0  0  0  0  0  0  0
   17.8896  -21.5476  -13.2735 O   0  0  0  0  0  0  0  0  0  0  0  0
   22.2231  -20.0358  -13.6394 C   0  0  0  0  0  0  0  0  0  0  0  0
   22.0935  -18.9382  -14.2629 O   0  0  0  0  0  0  0  0  0  0  0  0
   19.2994  -23.1963  -12.6287 O   0  0  0  0  0  0  0  0  0  0  0  0
   28.3396  -21.1196  -13.9861 C   0  0  0  0  0  0  0  0  0  0  0  0
   27.1283  -20.3715  -14.4809 C   0  0  2  0  0  0  0  0  0  0  0  0
   27.3612  -18.8974  -14.1882 C   0  0  0  0  0  0  0  0  0  0  0  0
   25.8926  -20.7859  -13.7615 C   0  0  0  0  0  0  0  0  0  0  0  0
   24.6498  -20.1162  -14.3236 C   0  0  2  0  0  0  0  0  0  0  0  0
   23.5017  -20.6293  -13.6418 N   0  0  0  0  0  0  0  0  0  0  0  0
   24.5828  -20.3011  -15.7943 C   0  0  0  0  0  0  0  0  0  0  0  0
   23.9223  -21.2429  -16.2925 O   0  0  0  0  0  0  0  0  0  0  0  0
   22.6254  -20.2718  -19.3834 N   0  0  0  0  0  0  0  0  0  0  0  0
   22.3691  -19.0912  -18.6183 C   0  0  0  0  0  0  0  0  0  0  0  0
   21.1902  -18.6792  -18.5982 O   0  0  0  0  0  0  0  0  0  0  0  0
   23.4307  -18.3896  -17.8887 C   0  0  0  0  0  0  0  0  0  0  0  0
   24.7399  -19.0688  -18.0128 C   0  0  2  0  0  0  0  0  0  0  0  0
   25.2678  -19.4114  -16.6599 N   0  0  0  0  0  0  0  0  0  0  0  0
   25.8056  -18.2524  -18.6734 C   0  0  0  0  0  0  0  0  0  0  0  0
   26.6501  -17.6519  -18.0251 O   0  0  0  0  0  0  0  0  0  0  0  0
   25.8768  -18.1436  -20.0672 O   0  0  0  0  0  0  0  0  0  0  0  0
  2  1  1  6
  2  3  1  0
  4  3  1  0
  5  4  2  0
  6  2  1  0
  7  6  2  0
  8  4  1  0
 10  9  1  1
 10 12  1  0
 11 10  1  0
 13 12  1  1
 13 14  1  0
 14  6  1  0
 15 22  1  0
 15 13  1  0
 16 15  2  0
 18 19  2  0
 18 17  1  0
 20 18  1  0
 21 20  1  1
 21 22  1  0
 23 25  1  0
 23 21  1  0
 24 23  2  0
M  END
$$$$
