DLN.pdb
     RDKit          3D

 25 24  0  0  1  0  0  0  0  0999 V2000
   22.7123  -13.7320  -17.5018 N   0  0  0  0  0  0  0  0  0  0  0  0
   22.2498  -12.4625  -18.0224 C   0  0  1  0  0  0  0  0  0  0  0  0
   20.7414  -12.5913  -18.1904 C   0  0  0  0  0  0  0  0  0  0  0  0
   20.4454  -13.6001  -19.2131 C   0  0  0  0  0  0  0  0  0  0  0  0
   19.2552  -13.8632  -19.5107 O   0  0  0  0  0  0  0  0  0  0  0  0
   22.5426  -11.3471  -17.0818 C   0  0  0  0  0  0  0  0  0  0  0  0
   21.7328  -11.0279  -16.1585 O   0  0  0  0  0  0  0  0  0  0  0  0
   21.4506  -14.2798  -19.8686 O   0  0  0  0  0  0  0  0  0  0  0  0
   26.5208  -11.4869  -16.3912 C   0  0  0  0  0  0  0  0  0  0  0  0
   26.4332  -10.1291  -15.7429 C   0  0  2  0  0  0  0  0  0  0  0  0
   25.7898  -10.3242  -14.3788 C   0  0  0  0  0  0  0  0  0  0  0  0
   25.5688   -9.2008  -16.5223 C   0  0  0  0  0  0  0  0  0  0  0  0
   24.0909   -9.5005  -16.3357 C   0  0  2  0  0  0  0  0  0  0  0  0
   23.7337  -10.5996  -17.1788 N   0  0  0  0  0  0  0  0  0  0  0  0
   23.2800   -8.2846  -16.5918 C   0  0  0  0  0  0  0  0  0  0  0  0
   23.1478   -7.8355  -17.7547 O   0  0  0  0  0  0  0  0  0  0  0  0
   18.7253   -5.1157  -16.6907 N   0  0  0  0  0  0  0  0  0  0  0  0
   19.6105   -5.4011  -15.6044 C   0  0  0  0  0  0  0  0  0  0  0  0
   19.6704   -4.5522  -14.6902 O   0  0  0  0  0  0  0  0  0  0  0  0
   20.4140   -6.6272  -15.5553 C   0  0  0  0  0  0  0  0  0  0  0  0
   21.8584   -6.3588  -15.7343 C   0  0  2  0  0  0  0  0  0  0  0  0
   22.6410   -7.6111  -15.5203 N   0  0  0  0  0  0  0  0  0  0  0  0
   22.4280   -5.3529  -14.7844 C   0  0  0  0  0  0  0  0  0  0  0  0
   22.3232   -4.1511  -14.9815 O   0  0  0  0  0  0  0  0  0  0  0  0
   23.1073   -5.7513  -13.6270 O   0  0  0  0  0  0  0  0  0  0  0  0
  2  1  1  1
  2  3  1  0
  4  3  1  0
  5  4  2  0
  6  2  1  0
  7  6  2  0
  8  4  1  0
 10  9  1  6
 10 12  1  0
 11 10  1  0
 13 12  1  6
 13 14  1  0
 14  6  1  0
 15 22  1  0
 15 13  1  0
 16 15  2  0
 18 19  2  0
 18 17  1  0
 20 18  1  0
 21 20  1  1
 21 22  1  0
 23 25  1  0
 23 21  1  0
 24 23  2  0
M  END
$$$$
