DLN.pdb
     RDKit          3D

 25 24  0  0  1  0  0  0  0  0999 V2000
   15.1923  -20.0177    2.2087 N   0  0  0  0  0  0  0  0  0  0  0  0
   14.9263  -18.6982    2.7421 C   0  0  1  0  0  0  0  0  0  0  0  0
   14.0493  -18.9006    3.9709 C   0  0  0  0  0  0  0  0  0  0  0  0
   12.6372  -18.7891    3.5903 C   0  0  0  0  0  0  0  0  0  0  0  0
   12.0058  -19.8055    3.2126 O   0  0  0  0  0  0  0  0  0  0  0  0
   16.1819  -18.0094    3.1468 C   0  0  0  0  0  0  0  0  0  0  0  0
   17.3028  -18.6037    3.1204 O   0  0  0  0  0  0  0  0  0  0  0  0
   11.9708  -17.5825    3.6350 O   0  0  0  0  0  0  0  0  0  0  0  0
   17.9944  -12.1487    3.8579 C   0  0  0  0  0  0  0  0  0  0  0  0
   18.2678  -13.6154    4.0713 C   0  0  2  0  0  0  0  0  0  0  0  0
   19.4233  -13.9937    3.1577 C   0  0  0  0  0  0  0  0  0  0  0  0
   17.0981  -14.4550    3.6928 C   0  0  0  0  0  0  0  0  0  0  0  0
   17.3279  -15.9270    3.9918 C   0  0  2  0  0  0  0  0  0  0  0  0
   16.1762  -16.6667    3.5761 N   0  0  0  0  0  0  0  0  0  0  0  0
   17.6546  -16.1186    5.4264 C   0  0  0  0  0  0  0  0  0  0  0  0
   18.7329  -15.6903    5.9010 O   0  0  0  0  0  0  0  0  0  0  0  0
   16.5447  -14.1852    9.7271 N   0  0  0  0  0  0  0  0  0  0  0  0
   16.0261  -14.8639    8.5802 C   0  0  0  0  0  0  0  0  0  0  0  0
   15.6686  -14.1508    7.6190 O   0  0  0  0  0  0  0  0  0  0  0  0
   15.9147  -16.3253    8.5236 C   0  0  0  0  0  0  0  0  0  0  0  0
   17.0118  -16.9418    7.7446 C   0  0  2  0  0  0  0  0  0  0  0  0
   16.7478  -16.7916    6.2837 N   0  0  0  0  0  0  0  0  0  0  0  0
   17.1952  -18.4081    7.9788 C   0  0  0  0  0  0  0  0  0  0  0  0
   17.0120  -19.2288    7.0917 O   0  0  0  0  0  0  0  0  0  0  0  0
   17.5853  -18.8997    9.2302 O   0  0  0  0  0  0  0  0  0  0  0  0
  2  1  1  1
  2  3  1  0
  4  3  1  0
  5  4  2  0
  6  2  1  0
  7  6  2  0
  8  4  1  0
 10  9  1  6
 10 12  1  0
 11 10  1  0
 13 12  1  1
 13 14  1  0
 14  6  1  0
 15 22  1  0
 15 13  1  0
 16 15  2  0
 18 19  2  0
 18 17  1  0
 20 18  1  0
 21 20  1  1
 21 22  1  0
 23 25  1  0
 23 21  1  0
 24 23  2  0
M  END
$$$$
