DLN.pdb
     RDKit          3D

 25 24  0  0  1  0  0  0  0  0999 V2000
   19.9935  -23.3234  -12.5239 N   0  0  0  0  0  0  0  0  0  0  0  0
   19.4548  -22.0309  -12.1554 C   0  0  1  0  0  0  0  0  0  0  0  0
   18.9817  -22.1582  -10.7132 C   0  0  0  0  0  0  0  0  0  0  0  0
   17.8528  -23.0923  -10.6473 C   0  0  0  0  0  0  0  0  0  0  0  0
   17.2586  -23.2845   -9.5590 O   0  0  0  0  0  0  0  0  0  0  0  0
   20.4896  -20.9644  -12.2372 C   0  0  0  0  0  0  0  0  0  0  0  0
   20.2265  -19.7602  -11.9358 O   0  0  0  0  0  0  0  0  0  0  0  0
   17.4168  -23.7773  -11.7621 O   0  0  0  0  0  0  0  0  0  0  0  0
   23.7800  -20.3285   -9.9348 C   0  0  0  0  0  0  0  0  0  0  0  0
   24.0386  -21.4244  -10.9366 C   0  0  2  0  0  0  0  0  0  0  0  0
   25.3723  -22.0585  -10.5733 C   0  0  0  0  0  0  0  0  0  0  0  0
   24.1542  -20.8895  -12.3212 C   0  0  0  0  0  0  0  0  0  0  0  0
   22.8498  -20.2854  -12.8134 C   0  0  2  0  0  0  0  0  0  0  0  0
   21.8058  -21.2501  -12.6530 N   0  0  0  0  0  0  0  0  0  0  0  0
   22.9940  -19.8128  -14.2125 C   0  0  0  0  0  0  0  0  0  0  0  0
   23.9029  -19.0089  -14.5272 O   0  0  0  0  0  0  0  0  0  0  0  0
   23.0075  -20.6377  -19.9399 N   0  0  0  0  0  0  0  0  0  0  0  0
   21.9899  -20.4014  -18.9634 C   0  0  0  0  0  0  0  0  0  0  0  0
   20.9777  -19.7775  -19.3459 O   0  0  0  0  0  0  0  0  0  0  0  0
   22.1173  -20.8641  -17.5773 C   0  0  0  0  0  0  0  0  0  0  0  0
   22.1587  -19.7421  -16.6130 C   0  0  2  0  0  0  0  0  0  0  0  0
   22.1019  -20.2659  -15.2170 N   0  0  0  0  0  0  0  0  0  0  0  0
   21.0239  -18.7743  -16.7335 C   0  0  0  0  0  0  0  0  0  0  0  0
   21.0792  -17.8084  -17.4806 O   0  0  0  0  0  0  0  0  0  0  0  0
   19.8487  -18.9381  -15.9908 O   0  0  0  0  0  0  0  0  0  0  0  0
  2  1  1  1
  2  3  1  0
  4  3  1  0
  5  4  2  0
  6  2  1  0
  7  6  2  0
  8  4  1  0
 10  9  1  1
 10 12  1  0
 11 10  1  0
 13 12  1  6
 13 14  1  0
 14  6  1  0
 15 22  1  0
 15 13  1  0
 16 15  2  0
 18 19  2  0
 18 17  1  0
 20 18  1  0
 21 20  1  6
 21 22  1  0
 23 25  1  0
 23 21  1  0
 24 23  2  0
M  END
$$$$
