DLN.pdb
     RDKit          3D

 25 24  0  0  1  0  0  0  0  0999 V2000
   22.9303  -13.0947  -19.3520 N   0  0  0  0  0  0  0  0  0  0  0  0
   23.1272  -11.6692  -19.5120 C   0  0  1  0  0  0  0  0  0  0  0  0
   21.8425  -11.1241  -20.1222 C   0  0  0  0  0  0  0  0  0  0  0  0
   21.7808  -11.4863  -21.5422 C   0  0  0  0  0  0  0  0  0  0  0  0
   21.2376  -12.5613  -21.8937 O   0  0  0  0  0  0  0  0  0  0  0  0
   23.3683  -11.0009  -18.2044 C   0  0  0  0  0  0  0  0  0  0  0  0
   22.6014  -11.1901  -17.2112 O   0  0  0  0  0  0  0  0  0  0  0  0
   22.3100  -10.6691  -22.5190 O   0  0  0  0  0  0  0  0  0  0  0  0
   26.3862  -11.3884  -15.1695 C   0  0  0  0  0  0  0  0  0  0  0  0
   26.8046  -10.7316  -16.4599 C   0  0  2  0  0  0  0  0  0  0  0  0
   28.3192  -10.5982  -16.4247 C   0  0  0  0  0  0  0  0  0  0  0  0
   26.2329   -9.3634  -16.5928 C   0  0  0  0  0  0  0  0  0  0  0  0
   24.7311   -9.3892  -16.8228 C   0  0  2  0  0  0  0  0  0  0  0  0
   24.4605  -10.1298  -18.0163 N   0  0  0  0  0  0  0  0  0  0  0  0
   24.1898   -8.0082  -16.8608 C   0  0  0  0  0  0  0  0  0  0  0  0
   24.2688   -7.3173  -17.9038 O   0  0  0  0  0  0  0  0  0  0  0  0
   21.0410   -4.0185  -16.1020 N   0  0  0  0  0  0  0  0  0  0  0  0
   20.7757   -5.2135  -16.8412 C   0  0  0  0  0  0  0  0  0  0  0  0
   19.7501   -5.2175  -17.5541 O   0  0  0  0  0  0  0  0  0  0  0  0
   21.6574   -6.3838  -16.7735 C   0  0  0  0  0  0  0  0  0  0  0  0
   22.7494   -6.2071  -15.7902 C   0  0  2  0  0  0  0  0  0  0  0  0
   23.5732   -7.4488  -15.7132 N   0  0  0  0  0  0  0  0  0  0  0  0
   22.2914   -5.9324  -14.3926 C   0  0  0  0  0  0  0  0  0  0  0  0
   21.8967   -6.8261  -13.6580 O   0  0  0  0  0  0  0  0  0  0  0  0
   22.2967   -4.6340  -13.8693 O   0  0  0  0  0  0  0  0  0  0  0  0
  2  1  1  1
  2  3  1  0
  4  3  1  0
  5  4  2  0
  6  2  1  0
  7  6  2  0
  8  4  1  0
 10  9  1  1
 10 12  1  0
 11 10  1  0
 13 12  1  6
 13 14  1  0
 14  6  1  0
 15 22  1  0
 15 13  1  0
 16 15  2  0
 18 19  2  0
 18 17  1  0
 20 18  1  0
 21 20  1  6
 21 22  1  0
 23 25  1  0
 23 21  1  0
 24 23  2  0
M  END
$$$$
