DLN.pdb
     RDKit          3D

 25 24  0  0  1  0  0  0  0  0999 V2000
   15.6441  -10.8185  -15.8258 N   0  0  0  0  0  0  0  0  0  0  0  0
   16.5826   -9.7224  -15.9463 C   0  0  1  0  0  0  0  0  0  0  0  0
   15.7611   -8.4915  -16.3067 C   0  0  0  0  0  0  0  0  0  0  0  0
   15.5766   -8.4325  -17.7606 C   0  0  0  0  0  0  0  0  0  0  0  0
   15.0833   -9.4110  -18.3719 O   0  0  0  0  0  0  0  0  0  0  0  0
   17.2987   -9.4734  -14.6657 C   0  0  0  0  0  0  0  0  0  0  0  0
   16.7611   -9.7271  -13.5446 O   0  0  0  0  0  0  0  0  0  0  0  0
   15.9342   -7.3172  -18.4888 O   0  0  0  0  0  0  0  0  0  0  0  0
   23.1633   -8.7067  -12.9235 C   0  0  0  0  0  0  0  0  0  0  0  0
   21.6999   -8.5527  -12.5972 C   0  0  2  0  0  0  0  0  0  0  0  0
   21.3687   -9.5809  -11.5267 C   0  0  0  0  0  0  0  0  0  0  0  0
   20.8390   -8.8359  -13.7783 C   0  0  0  0  0  0  0  0  0  0  0  0
   19.3625   -8.6540  -13.4687 C   0  0  2  0  0  0  0  0  0  0  0  0
   18.6054   -8.9451  -14.6470 N   0  0  0  0  0  0  0  0  0  0  0  0
   19.1094   -7.2920  -12.9373 C   0  0  0  0  0  0  0  0  0  0  0  0
   19.4003   -6.2763  -13.6120 O   0  0  0  0  0  0  0  0  0  0  0  0
   16.7099   -3.3989  -10.5840 N   0  0  0  0  0  0  0  0  0  0  0  0
   16.4245   -4.0183  -11.8409 C   0  0  0  0  0  0  0  0  0  0  0  0
   15.6236   -3.4229  -12.5920 O   0  0  0  0  0  0  0  0  0  0  0  0
   17.0362   -5.2904  -12.2396 C   0  0  0  0  0  0  0  0  0  0  0  0
   17.9690   -5.8099  -11.2146 C   0  0  2  0  0  0  0  0  0  0  0  0
   18.5325   -7.1199  -11.6537 N   0  0  0  0  0  0  0  0  0  0  0  0
   17.3485   -6.0592   -9.8761 C   0  0  0  0  0  0  0  0  0  0  0  0
   16.7567   -5.1794   -9.2678 O   0  0  0  0  0  0  0  0  0  0  0  0
   17.4225   -7.3165   -9.2650 O   0  0  0  0  0  0  0  0  0  0  0  0
  2  1  1  1
  2  3  1  0
  4  3  1  0
  5  4  2  0
  6  2  1  0
  7  6  2  0
  8  4  1  0
 10  9  1  6
 10 12  1  0
 11 10  1  0
 13 12  1  6
 13 14  1  0
 14  6  1  0
 15 22  1  0
 15 13  1  0
 16 15  2  0
 18 19  2  0
 18 17  1  0
 20 18  1  0
 21 20  1  6
 21 22  1  0
 23 25  1  0
 23 21  1  0
 24 23  2  0
M  END
$$$$
