DLN.pdb
     RDKit          3D

 25 24  0  0  1  0  0  0  0  0999 V2000
   27.9554  -21.3922  -16.6857 N   0  0  0  0  0  0  0  0  0  0  0  0
   27.3231  -20.4442  -15.7924 C   0  0  1  0  0  0  0  0  0  0  0  0
   26.1673  -19.8274  -16.5692 C   0  0  0  0  0  0  0  0  0  0  0  0
   26.6459  -18.6607  -17.3182 C   0  0  0  0  0  0  0  0  0  0  0  0
   26.9980  -17.6227  -16.7074 O   0  0  0  0  0  0  0  0  0  0  0  0
   26.7907  -21.1131  -14.5743 C   0  0  0  0  0  0  0  0  0  0  0  0
   26.2845  -22.2756  -14.6233 O   0  0  0  0  0  0  0  0  0  0  0  0
   26.7224  -18.6688  -18.6952 O   0  0  0  0  0  0  0  0  0  0  0  0
   29.1000  -22.5159  -11.6266 C   0  0  0  0  0  0  0  0  0  0  0  0
   28.8504  -21.0364  -11.4842 C   0  0  2  0  0  0  0  0  0  0  0  0
   29.8097  -20.5199  -10.4231 C   0  0  0  0  0  0  0  0  0  0  0  0
   27.4651  -20.7533  -11.0182 C   0  0  0  0  0  0  0  0  0  0  0  0
   26.4259  -21.0772  -12.0784 C   0  0  2  0  0  0  0  0  0  0  0  0
   26.8279  -20.4808  -13.3149 N   0  0  0  0  0  0  0  0  0  0  0  0
   25.0795  -20.6405  -11.6335 C   0  0  0  0  0  0  0  0  0  0  0  0
   24.9430  -19.6399  -10.8907 O   0  0  0  0  0  0  0  0  0  0  0  0
   20.5216  -19.1861  -13.4766 N   0  0  0  0  0  0  0  0  0  0  0  0
   21.7971  -19.0456  -14.1077 C   0  0  0  0  0  0  0  0  0  0  0  0
   21.8561  -18.2779  -15.0912 O   0  0  0  0  0  0  0  0  0  0  0  0
   22.9850  -19.7628  -13.6326 C   0  0  0  0  0  0  0  0  0  0  0  0
   22.6840  -20.6488  -12.4858 C   0  0  2  0  0  0  0  0  0  0  0  0
   23.9238  -21.3518  -12.0442 N   0  0  0  0  0  0  0  0  0  0  0  0
   21.6845  -21.7242  -12.7744 C   0  0  0  0  0  0  0  0  0  0  0  0
   20.5973  -21.7580  -12.2166 O   0  0  0  0  0  0  0  0  0  0  0  0
   21.9574  -22.7391  -13.6992 O   0  0  0  0  0  0  0  0  0  0  0  0
  2  1  1  6
  2  3  1  0
  4  3  1  0
  5  4  2  0
  6  2  1  0
  7  6  2  0
  8  4  1  0
 10  9  1  1
 10 12  1  0
 11 10  1  0
 13 12  1  1
 13 14  1  0
 14  6  1  0
 15 22  1  0
 15 13  1  0
 16 15  2  0
 18 19  2  0
 18 17  1  0
 20 18  1  0
 21 20  1  6
 21 22  1  0
 23 25  1  0
 23 21  1  0
 24 23  2  0
M  END
$$$$
