DLN.pdb
     RDKit          3D

 25 24  0  0  1  0  0  0  0  0999 V2000
   20.2808  -22.1129   -8.0742 N   0  0  0  0  0  0  0  0  0  0  0  0
   21.4169  -22.3277   -8.9457 C   0  0  1  0  0  0  0  0  0  0  0  0
   20.8812  -22.2740  -10.3706 C   0  0  0  0  0  0  0  0  0  0  0  0
   19.9557  -23.3905  -10.5898 C   0  0  0  0  0  0  0  0  0  0  0  0
   18.7167  -23.1934  -10.5683 O   0  0  0  0  0  0  0  0  0  0  0  0
   22.4472  -21.2680   -8.7714 C   0  0  0  0  0  0  0  0  0  0  0  0
   22.1305  -20.0420   -8.6891 O   0  0  0  0  0  0  0  0  0  0  0  0
   20.4119  -24.6710  -10.8225 O   0  0  0  0  0  0  0  0  0  0  0  0
   28.2900  -20.5870   -7.0200 C   0  0  0  0  0  0  0  0  0  0  0  0
   27.1611  -20.1224   -7.9039 C   0  0  2  0  0  0  0  0  0  0  0  0
   26.7196  -18.7612   -7.3891 C   0  0  0  0  0  0  0  0  0  0  0  0
   25.9889  -21.0370   -7.8275 C   0  0  0  0  0  0  0  0  0  0  0  0
   24.8916  -20.6456   -8.8030 C   0  0  2  0  0  0  0  0  0  0  0  0
   23.8183  -21.5846   -8.6900 N   0  0  0  0  0  0  0  0  0  0  0  0
   25.4346  -20.5471  -10.1803 C   0  0  0  0  0  0  0  0  0  0  0  0
   26.6701  -20.5939  -10.3871 O   0  0  0  0  0  0  0  0  0  0  0  0
   26.4313  -22.8766  -15.0569 N   0  0  0  0  0  0  0  0  0  0  0  0
   26.4343  -21.6780  -14.2770 C   0  0  0  0  0  0  0  0  0  0  0  0
   26.9348  -20.6637  -14.8069 O   0  0  0  0  0  0  0  0  0  0  0  0
   25.8797  -21.6298  -12.9199 C   0  0  0  0  0  0  0  0  0  0  0  0
   25.0596  -20.4190  -12.6918 C   0  0  2  0  0  0  0  0  0  0  0  0
   24.5599  -20.3980  -11.2860 N   0  0  0  0  0  0  0  0  0  0  0  0
   23.8450  -20.3162  -13.5596 C   0  0  0  0  0  0  0  0  0  0  0  0
   23.9198  -20.3649  -14.7787 O   0  0  0  0  0  0  0  0  0  0  0  0
   22.5690  -20.1587  -13.0058 O   0  0  0  0  0  0  0  0  0  0  0  0
  2  1  1  1
  2  3  1  0
  4  3  1  0
  5  4  2  0
  6  2  1  0
  7  6  2  0
  8  4  1  0
 10  9  1  1
 10 12  1  0
 11 10  1  0
 13 12  1  1
 13 14  1  0
 14  6  1  0
 15 22  1  0
 15 13  1  0
 16 15  2  0
 18 19  2  0
 18 17  1  0
 20 18  1  0
 21 20  1  6
 21 22  1  0
 23 25  1  0
 23 21  1  0
 24 23  2  0
M  END
$$$$
