DLN.pdb
     RDKit          3D

 25 24  0  0  1  0  0  0  0  0999 V2000
   18.1612  -13.3293  -17.1637 N   0  0  0  0  0  0  0  0  0  0  0  0
   17.5331  -12.4342  -16.2146 C   0  0  1  0  0  0  0  0  0  0  0  0
   16.9934  -13.3098  -15.0911 C   0  0  0  0  0  0  0  0  0  0  0  0
   15.8925  -14.1359  -15.5978 C   0  0  0  0  0  0  0  0  0  0  0  0
   15.4288  -13.9302  -16.7454 O   0  0  0  0  0  0  0  0  0  0  0  0
   18.5098  -11.4634  -15.6505 C   0  0  0  0  0  0  0  0  0  0  0  0
   18.1924  -10.6742  -14.7089 O   0  0  0  0  0  0  0  0  0  0  0  0
   15.3419  -15.1482  -14.8400 O   0  0  0  0  0  0  0  0  0  0  0  0
   24.6480  -10.7322  -15.7524 C   0  0  0  0  0  0  0  0  0  0  0  0
   23.2874  -10.1506  -15.4660 C   0  0  2  0  0  0  0  0  0  0  0  0
   23.1766   -9.9907  -13.9577 C   0  0  0  0  0  0  0  0  0  0  0  0
   22.1949  -11.0613  -15.9059 C   0  0  0  0  0  0  0  0  0  0  0  0
   20.8195  -10.4503  -15.6962 C   0  0  2  0  0  0  0  0  0  0  0  0
   19.8290  -11.3818  -16.1404 N   0  0  0  0  0  0  0  0  0  0  0  0
   20.7280   -9.1358  -16.3784 C   0  0  0  0  0  0  0  0  0  0  0  0
   21.0146   -9.0228  -17.5935 O   0  0  0  0  0  0  0  0  0  0  0  0
   16.5687   -7.4540  -16.6289 N   0  0  0  0  0  0  0  0  0  0  0  0
   17.8286   -6.9534  -17.0836 C   0  0  0  0  0  0  0  0  0  0  0  0
   18.1260   -7.1787  -18.2756 O   0  0  0  0  0  0  0  0  0  0  0  0
   18.7359   -6.2103  -16.2026 C   0  0  0  0  0  0  0  0  0  0  0  0
   20.1391   -6.6627  -16.3321 C   0  0  2  0  0  0  0  0  0  0  0  0
   20.3134   -7.9846  -15.6622 N   0  0  0  0  0  0  0  0  0  0  0  0
   21.1482   -5.7512  -15.7080 C   0  0  0  0  0  0  0  0  0  0  0  0
   21.4305   -5.8213  -14.5207 O   0  0  0  0  0  0  0  0  0  0  0  0
   21.8113   -4.7771  -16.4636 O   0  0  0  0  0  0  0  0  0  0  0  0
  2  1  1  6
  2  3  1  0
  4  3  1  0
  5  4  2  0
  6  2  1  0
  7  6  2  0
  8  4  1  0
 10  9  1  1
 10 12  1  0
 11 10  1  0
 13 12  1  6
 13 14  1  0
 14  6  1  0
 15 22  1  0
 15 13  1  0
 16 15  2  0
 18 19  2  0
 18 17  1  0
 20 18  1  0
 21 20  1  1
 21 22  1  0
 23 25  1  0
 23 21  1  0
 24 23  2  0
M  END
$$$$
