CEV.pdb
     RDKit          3D

 23 22  0  0  1  0  0  0  0  0999 V2000
    8.2619  -15.5756   17.9896 N   0  0  0  0  0  0  0  0  0  0  0  0
    8.4238  -14.6637   19.0782 C   0  0  1  0  0  0  0  0  0  0  0  0
    7.7751  -13.3573   18.7327 C   0  0  0  0  0  0  0  0  0  0  0  0
    8.0173  -12.2287   20.1436 S   0  0  0  0  0  0  0  0  0  0  0  0
    7.9442  -15.2186   20.3686 C   0  0  0  0  0  0  0  0  0  0  0  0
    6.7953  -15.7387   20.4096 O   0  0  0  0  0  0  0  0  0  0  0  0
    8.7224  -15.1888   21.5564 N   0  0  0  0  0  0  0  0  0  0  0  0
    8.2763  -15.6754   22.8338 C   0  0  1  0  0  0  0  0  0  0  0  0
    8.8118  -17.0821   23.1090 C   0  0  0  0  0  0  0  0  0  0  0  0
   10.2912  -17.1624   22.8144 C   0  0  0  0  0  0  0  0  0  0  0  0
   10.7568  -18.5364   23.0589 C   0  0  0  0  0  0  0  0  0  0  0  0
   11.5334  -19.1065   22.2718 O   0  0  0  0  0  0  0  0  0  0  0  0
    8.7746  -14.8172   23.9567 C   0  0  0  0  0  0  0  0  0  0  0  0
    9.8807  -14.2289   23.8558 O   0  0  0  0  0  0  0  0  0  0  0  0
   10.3318  -19.2421   24.1959 O   0  0  0  0  0  0  0  0  0  0  0  0
    6.1543  -13.2130   26.7298 C   0  0  0  0  0  0  0  0  0  0  0  0
    7.5480  -12.6722   26.5631 C   0  0  2  0  0  0  0  0  0  0  0  0
    7.5297  -11.7418   25.3632 C   0  0  0  0  0  0  0  0  0  0  0  0
    8.5137  -13.7856   26.2298 C   0  0  2  0  0  0  0  0  0  0  0  0
    8.0437  -14.6285   25.1613 N   0  0  0  0  0  0  0  0  0  0  0  0
    8.6913  -14.6103   27.4422 C   0  0  0  0  0  0  0  0  0  0  0  0
    8.2974  -15.8001   27.5059 O   0  0  0  0  0  0  0  0  0  0  0  0
    9.3056  -14.0763   28.5480 O   0  0  0  0  0  0  0  0  0  0  0  0
  2  3  1  0
  2  5  1  0
  2  1  1  6
  4  3  1  0
  5  6  2  0
  7  5  1  0
  7  8  1  0
  8 13  1  0
  9 10  1  0
  8  9  1  1
 10 11  1  0
 11 12  2  0
 13 20  1  0
 14 13  2  0
 15 11  1  0
 17 16  1  6
 17 18  1  0
 19 17  1  0
 19 20  1  6
 21 23  1  0
 21 19  1  0
 22 21  2  0
M  END
$$$$
