CEV.pdb
     RDKit          3D

 23 22  0  0  1  0  0  0  0  0999 V2000
    7.1484  -15.1600   18.8562 N   0  0  0  0  0  0  0  0  0  0  0  0
    7.9732  -14.4656   19.7945 C   0  0  1  0  0  0  0  0  0  0  0  0
    7.6951  -12.9952   19.7076 C   0  0  0  0  0  0  0  0  0  0  0  0
    8.3936  -12.3916   18.1356 S   0  0  0  0  0  0  0  0  0  0  0  0
    7.8421  -14.9934   21.1755 C   0  0  0  0  0  0  0  0  0  0  0  0
    6.6879  -15.0849   21.6772 O   0  0  0  0  0  0  0  0  0  0  0  0
    8.9587  -15.3989   21.9542 N   0  0  0  0  0  0  0  0  0  0  0  0
    8.8699  -15.9432   23.2821 C   0  0  1  0  0  0  0  0  0  0  0  0
    9.9116  -17.0424   23.5015 C   0  0  0  0  0  0  0  0  0  0  0  0
    9.8312  -17.5875   24.9080 C   0  0  0  0  0  0  0  0  0  0  0  0
   10.8031  -18.6820   25.0563 C   0  0  0  0  0  0  0  0  0  0  0  0
   11.9706  -18.4651   25.4273 O   0  0  0  0  0  0  0  0  0  0  0  0
    9.1425  -14.9024   24.3252 C   0  0  0  0  0  0  0  0  0  0  0  0
   10.1544  -14.1635   24.2274 O   0  0  0  0  0  0  0  0  0  0  0  0
   10.4324  -20.0077   24.7801 O   0  0  0  0  0  0  0  0  0  0  0  0
    6.1865  -13.6915   27.1651 C   0  0  0  0  0  0  0  0  0  0  0  0
    7.3560  -12.8411   26.7507 C   0  0  2  0  0  0  0  0  0  0  0  0
    6.9780  -12.1592   25.4477 C   0  0  0  0  0  0  0  0  0  0  0  0
    8.5605  -13.7030   26.4518 C   0  0  2  0  0  0  0  0  0  0  0  0
    8.2950  -14.7014   25.4489 N   0  0  0  0  0  0  0  0  0  0  0  0
    8.9554  -14.3805   27.7034 C   0  0  0  0  0  0  0  0  0  0  0  0
    8.8555  -15.6226   27.8525 O   0  0  0  0  0  0  0  0  0  0  0  0
    9.4510  -13.6451   28.7516 O   0  0  0  0  0  0  0  0  0  0  0  0
  2  3  1  0
  2  5  1  0
  2  1  1  6
  4  3  1  0
  5  6  2  0
  7  5  1  0
  7  8  1  0
  8 13  1  0
  9 10  1  0
  8  9  1  6
 10 11  1  0
 11 12  2  0
 13 20  1  0
 14 13  2  0
 15 11  1  0
 17 16  1  6
 17 18  1  0
 19 17  1  0
 19 20  1  6
 21 23  1  0
 21 19  1  0
 22 21  2  0
M  END
$$$$
