CEV.pdb
     RDKit          3D

 23 22  0  0  1  0  0  0  0  0999 V2000
   -1.3132  -28.3403   29.3631 N   0  0  0  0  0  0  0  0  0  0  0  0
   -1.6881  -27.1559   30.0698 C   0  0  1  0  0  0  0  0  0  0  0  0
   -0.6129  -26.1231   29.9140 C   0  0  0  0  0  0  0  0  0  0  0  0
    0.7684  -26.5926   31.0071 S   0  0  0  0  0  0  0  0  0  0  0  0
   -3.0280  -26.6525   29.6773 C   0  0  0  0  0  0  0  0  0  0  0  0
   -3.3035  -26.5709   28.4485 O   0  0  0  0  0  0  0  0  0  0  0  0
   -4.0109  -26.2596   30.6244 N   0  0  0  0  0  0  0  0  0  0  0  0
   -5.3336  -25.8094   30.2851 C   0  0  1  0  0  0  0  0  0  0  0  0
   -6.3995  -26.5827   31.0646 C   0  0  0  0  0  0  0  0  0  0  0  0
   -6.5951  -27.9636   30.4842 C   0  0  0  0  0  0  0  0  0  0  0  0
   -7.3924  -28.7707   31.4210 C   0  0  0  0  0  0  0  0  0  0  0  0
   -7.9821  -28.2498   32.3847 O   0  0  0  0  0  0  0  0  0  0  0  0
   -5.5327  -24.3660   30.6351 C   0  0  0  0  0  0  0  0  0  0  0  0
   -5.1997  -23.9422   31.7705 O   0  0  0  0  0  0  0  0  0  0  0  0
   -7.5072  -30.1592   31.2476 O   0  0  0  0  0  0  0  0  0  0  0  0
   -6.2403  -21.4821   27.6541 C   0  0  0  0  0  0  0  0  0  0  0  0
   -5.7451  -21.0984   29.0216 C   0  0  2  0  0  0  0  0  0  0  0  0
   -4.2373  -21.2781   29.0217 C   0  0  0  0  0  0  0  0  0  0  0  0
   -6.2910  -22.0415   30.0685 C   0  0  2  0  0  0  0  0  0  0  0  0
   -6.0929  -23.4262   29.7273 N   0  0  0  0  0  0  0  0  0  0  0  0
   -7.7402  -21.7867   30.1971 C   0  0  0  0  0  0  0  0  0  0  0  0
   -8.6020  -22.6016   29.7868 O   0  0  0  0  0  0  0  0  0  0  0  0
   -8.1806  -20.6254   30.7823 O   0  0  0  0  0  0  0  0  0  0  0  0
  2  3  1  0
  2  5  1  0
  2  1  1  6
  4  3  1  0
  5  6  2  0
  7  5  1  0
  7  8  1  0
  8 13  1  0
  9 10  1  0
  8  9  1  1
 10 11  1  0
 11 12  2  0
 13 20  1  0
 14 13  2  0
 15 11  1  0
 17 16  1  6
 17 18  1  0
 19 17  1  0
 19 20  1  6
 21 23  1  0
 21 19  1  0
 22 21  2  0
M  END
$$$$
