CEV.pdb
     RDKit          3D

 23 22  0  0  1  0  0  0  0  0999 V2000
    7.7767  -15.0495   17.9758 N   0  0  0  0  0  0  0  0  0  0  0  0
    8.3421  -14.3680   19.0977 C   0  0  1  0  0  0  0  0  0  0  0  0
    7.8945  -12.9375   19.0873 C   0  0  0  0  0  0  0  0  0  0  0  0
    8.6140  -12.1216   20.5501 S   0  0  0  0  0  0  0  0  0  0  0  0
    8.0582  -15.0484   20.3860 C   0  0  0  0  0  0  0  0  0  0  0  0
    6.8675  -15.3787   20.6420 O   0  0  0  0  0  0  0  0  0  0  0  0
    9.0681  -15.3426   21.3405 N   0  0  0  0  0  0  0  0  0  0  0  0
    8.8330  -16.0008   22.5970 C   0  0  1  0  0  0  0  0  0  0  0  0
    9.8235  -17.1464   22.8166 C   0  0  0  0  0  0  0  0  0  0  0  0
    9.5290  -17.8728   24.1079 C   0  0  0  0  0  0  0  0  0  0  0  0
   10.5502  -18.9104   24.3201 C   0  0  0  0  0  0  0  0  0  0  0  0
   11.5428  -18.7038   25.0412 O   0  0  0  0  0  0  0  0  0  0  0  0
    9.0200  -15.0665   23.7536 C   0  0  0  0  0  0  0  0  0  0  0  0
   10.1349  -14.5192   23.9465 O   0  0  0  0  0  0  0  0  0  0  0  0
   10.4273  -20.1682   23.7086 O   0  0  0  0  0  0  0  0  0  0  0  0
    6.1919  -12.4556   24.9185 C   0  0  0  0  0  0  0  0  0  0  0  0
    6.8171  -13.1367   26.1049 C   0  0  2  0  0  0  0  0  0  0  0  0
    7.1519  -12.0575   27.1193 C   0  0  0  0  0  0  0  0  0  0  0  0
    8.1263  -13.7840   25.7173 C   0  0  2  0  0  0  0  0  0  0  0  0
    7.9759  -14.7585   24.6682 N   0  0  0  0  0  0  0  0  0  0  0  0
    8.6724  -14.4553   26.9143 C   0  0  0  0  0  0  0  0  0  0  0  0
    8.6291  -15.7010   27.0613 O   0  0  0  0  0  0  0  0  0  0  0  0
    9.2513  -13.7100   27.9116 O   0  0  0  0  0  0  0  0  0  0  0  0
  2  3  1  0
  2  5  1  0
  2  1  1  6
  4  3  1  0
  5  6  2  0
  7  5  1  0
  7  8  1  0
  8 13  1  0
  9 10  1  0
  8  9  1  1
 10 11  1  0
 11 12  2  0
 13 20  1  0
 14 13  2  0
 15 11  1  0
 17 16  1  6
 17 18  1  0
 19 17  1  0
 19 20  1  6
 21 23  1  0
 21 19  1  0
 22 21  2  0
M  END
$$$$
