CEV.pdb
     RDKit          3D

 23 22  0  0  1  0  0  0  0  0999 V2000
    7.7105  -14.7469   18.4552 N   0  0  0  0  0  0  0  0  0  0  0  0
    8.2233  -14.0989   19.6213 C   0  0  1  0  0  0  0  0  0  0  0  0
    7.6679  -12.7090   19.7021 C   0  0  0  0  0  0  0  0  0  0  0  0
    8.7102  -11.6350   18.6612 S   0  0  0  0  0  0  0  0  0  0  0  0
    7.9932  -14.8814   20.8614 C   0  0  0  0  0  0  0  0  0  0  0  0
    6.8178  -15.2561   21.1266 O   0  0  0  0  0  0  0  0  0  0  0  0
    9.0380  -15.2252   21.7601 N   0  0  0  0  0  0  0  0  0  0  0  0
    8.8430  -15.9005   23.0144 C   0  0  1  0  0  0  0  0  0  0  0  0
    9.8001  -17.0855   23.1607 C   0  0  0  0  0  0  0  0  0  0  0  0
    9.5419  -17.8302   24.4494 C   0  0  0  0  0  0  0  0  0  0  0  0
   10.4661  -18.9714   24.5391 C   0  0  0  0  0  0  0  0  0  0  0  0
   10.2141  -20.0540   23.9804 O   0  0  0  0  0  0  0  0  0  0  0  0
    9.1232  -14.9979   24.1773 C   0  0  0  0  0  0  0  0  0  0  0  0
   10.2576  -14.4727   24.3071 O   0  0  0  0  0  0  0  0  0  0  0  0
   11.6640  -18.8643   25.2636 O   0  0  0  0  0  0  0  0  0  0  0  0
    5.9735  -13.7060   26.7296 C   0  0  0  0  0  0  0  0  0  0  0  0
    7.2299  -12.8958   26.5642 C   0  0  2  0  0  0  0  0  0  0  0  0
    7.0371  -12.0087   25.3470 C   0  0  0  0  0  0  0  0  0  0  0  0
    8.4058  -13.7947   26.2598 C   0  0  2  0  0  0  0  0  0  0  0  0
    8.1484  -14.6965   25.1674 N   0  0  0  0  0  0  0  0  0  0  0  0
    8.6964  -14.5875   27.4717 C   0  0  0  0  0  0  0  0  0  0  0  0
    8.5573  -15.8343   27.5051 O   0  0  0  0  0  0  0  0  0  0  0  0
    9.1347  -13.9587   28.6109 O   0  0  0  0  0  0  0  0  0  0  0  0
  2  3  1  0
  2  5  1  0
  2  1  1  6
  4  3  1  0
  5  6  2  0
  7  5  1  0
  7  8  1  0
  8 13  1  0
  9 10  1  0
  8  9  1  6
 10 11  1  0
 11 12  2  0
 13 20  1  0
 14 13  2  0
 15 11  1  0
 17 16  1  6
 17 18  1  0
 19 17  1  0
 19 20  1  6
 21 23  1  0
 21 19  1  0
 22 21  2  0
M  END
$$$$
