CEV.pdb
     RDKit          3D

 23 22  0  0  1  0  0  0  0  0999 V2000
    8.5040  -16.6886   18.4936 N   0  0  0  0  0  0  0  0  0  0  0  0
    8.5684  -15.5756   19.3879 C   0  0  1  0  0  0  0  0  0  0  0  0
    7.9962  -14.3642   18.7154 C   0  0  0  0  0  0  0  0  0  0  0  0
    8.1239  -12.9704   19.8834 S   0  0  0  0  0  0  0  0  0  0  0  0
    7.9350  -15.8558   20.7006 C   0  0  0  0  0  0  0  0  0  0  0  0
    6.8631  -16.5214   20.7211 O   0  0  0  0  0  0  0  0  0  0  0  0
    8.4833  -15.4072   21.9317 N   0  0  0  0  0  0  0  0  0  0  0  0
    7.9482  -15.7306   23.2265 C   0  0  1  0  0  0  0  0  0  0  0  0
    8.2934  -17.1667   23.6261 C   0  0  0  0  0  0  0  0  0  0  0  0
    9.7896  -17.3584   23.7069 C   0  0  0  0  0  0  0  0  0  0  0  0
   10.0764  -18.7468   24.1001 C   0  0  0  0  0  0  0  0  0  0  0  0
    9.4775  -19.7043   23.5782 O   0  0  0  0  0  0  0  0  0  0  0  0
    8.5246  -14.8546   24.2970 C   0  0  0  0  0  0  0  0  0  0  0  0
    9.7643  -14.6528   24.3451 O   0  0  0  0  0  0  0  0  0  0  0  0
   11.0407  -19.0257   25.0817 O   0  0  0  0  0  0  0  0  0  0  0  0
    5.9361  -12.8241   26.9457 C   0  0  0  0  0  0  0  0  0  0  0  0
    7.2931  -12.2373   26.6683 C   0  0  2  0  0  0  0  0  0  0  0  0
    7.1494  -11.3170   25.4691 C   0  0  0  0  0  0  0  0  0  0  0  0
    8.2680  -13.3195   26.2660 C   0  0  2  0  0  0  0  0  0  0  0  0
    7.7228  -14.2234   25.2869 N   0  0  0  0  0  0  0  0  0  0  0  0
    8.6189  -14.0874   27.4779 C   0  0  0  0  0  0  0  0  0  0  0  0
    9.1753  -13.5559   28.4693 O   0  0  0  0  0  0  0  0  0  0  0  0
    8.3354  -15.4293   27.5426 O   0  0  0  0  0  0  0  0  0  0  0  0
  2  3  1  0
  2  5  1  0
  2  1  1  6
  4  3  1  0
  5  6  2  0
  7  5  1  0
  7  8  1  0
  8 13  1  0
  9 10  1  0
  8  9  1  1
 10 11  1  0
 11 12  2  0
 13 20  1  0
 14 13  2  0
 15 11  1  0
 17 16  1  6
 17 18  1  0
 19 17  1  0
 19 20  1  6
 21 23  1  0
 21 19  1  0
 22 21  2  0
M  END
$$$$
