CEV.pdb
     RDKit          3D

 23 22  0  0  1  0  0  0  0  0999 V2000
    7.7489  -15.0942   18.5533 N   0  0  0  0  0  0  0  0  0  0  0  0
    8.2125  -14.3456   19.6791 C   0  0  1  0  0  0  0  0  0  0  0  0
    7.6278  -12.9661   19.6333 C   0  0  0  0  0  0  0  0  0  0  0  0
    8.6905  -11.9498   18.5558 S   0  0  0  0  0  0  0  0  0  0  0  0
    7.9595  -15.0331   20.9699 C   0  0  0  0  0  0  0  0  0  0  0  0
    6.7929  -15.4492   21.2110 O   0  0  0  0  0  0  0  0  0  0  0  0
    8.9730  -15.2419   21.9429 N   0  0  0  0  0  0  0  0  0  0  0  0
    8.7596  -15.8717   23.2177 C   0  0  1  0  0  0  0  0  0  0  0  0
    9.6370  -17.1154   23.3755 C   0  0  0  0  0  0  0  0  0  0  0  0
    9.2036  -18.2045   22.4226 C   0  0  0  0  0  0  0  0  0  0  0  0
   10.1406  -19.3342   22.5247 C   0  0  0  0  0  0  0  0  0  0  0  0
   10.3271  -19.9250   23.6036 O   0  0  0  0  0  0  0  0  0  0  0  0
    9.1253  -14.9624   24.3513 C   0  0  0  0  0  0  0  0  0  0  0  0
   10.3175  -14.5942   24.5031 O   0  0  0  0  0  0  0  0  0  0  0  0
   10.8519  -19.7755   21.3976 O   0  0  0  0  0  0  0  0  0  0  0  0
    6.1208  -13.2498   26.8297 C   0  0  0  0  0  0  0  0  0  0  0  0
    7.4756  -12.6064   26.7161 C   0  0  2  0  0  0  0  0  0  0  0  0
    7.4277  -11.6617   25.5283 C   0  0  0  0  0  0  0  0  0  0  0  0
    8.5307  -13.6412   26.4008 C   0  0  2  0  0  0  0  0  0  0  0  0
    8.1706  -14.4817   25.2887 N   0  0  0  0  0  0  0  0  0  0  0  0
    8.7079  -14.4878   27.5980 C   0  0  0  0  0  0  0  0  0  0  0  0
    8.3846  -15.7004   27.6142 O   0  0  0  0  0  0  0  0  0  0  0  0
    9.2426  -13.9497   28.7425 O   0  0  0  0  0  0  0  0  0  0  0  0
  2  3  1  0
  2  5  1  0
  2  1  1  6
  4  3  1  0
  5  6  2  0
  7  5  1  0
  7  8  1  0
  8 13  1  0
  9 10  1  0
  8  9  1  6
 10 11  1  0
 11 12  2  0
 13 20  1  0
 14 13  2  0
 15 11  1  0
 17 16  1  6
 17 18  1  0
 19 17  1  0
 19 20  1  6
 21 23  1  0
 21 19  1  0
 22 21  2  0
M  END
$$$$
