CEV.pdb
     RDKit          3D

 23 22  0  0  1  0  0  0  0  0999 V2000
    7.4993  -15.7989   18.6738 N   0  0  0  0  0  0  0  0  0  0  0  0
    8.0569  -14.8692   19.6052 C   0  0  1  0  0  0  0  0  0  0  0  0
    7.4153  -13.5281   19.4131 C   0  0  0  0  0  0  0  0  0  0  0  0
    8.2798  -12.3410   20.4933 S   0  0  0  0  0  0  0  0  0  0  0  0
    7.9799  -15.3459   21.0088 C   0  0  0  0  0  0  0  0  0  0  0  0
    6.8523  -15.6721   21.4720 O   0  0  0  0  0  0  0  0  0  0  0  0
    9.1193  -15.4502   21.8503 N   0  0  0  0  0  0  0  0  0  0  0  0
    9.0828  -15.8916   23.2182 C   0  0  1  0  0  0  0  0  0  0  0  0
   10.2902  -16.7713   23.5493 C   0  0  0  0  0  0  0  0  0  0  0  0
   10.2346  -18.0724   22.7837 C   0  0  0  0  0  0  0  0  0  0  0  0
   11.4230  -18.8752   23.1122 C   0  0  0  0  0  0  0  0  0  0  0  0
   11.5043  -20.0737   22.7883 O   0  0  0  0  0  0  0  0  0  0  0  0
    9.1390  -14.7378   24.1728 C   0  0  0  0  0  0  0  0  0  0  0  0
    9.9920  -13.8289   24.0117 O   0  0  0  0  0  0  0  0  0  0  0  0
   12.5019  -18.3026   23.8045 O   0  0  0  0  0  0  0  0  0  0  0  0
    5.9235  -13.7332   26.6856 C   0  0  0  0  0  0  0  0  0  0  0  0
    7.0541  -12.7842   26.3966 C   0  0  2  0  0  0  0  0  0  0  0  0
    6.7623  -12.1301   25.0577 C   0  0  0  0  0  0  0  0  0  0  0  0
    8.3529  -13.5389   26.2329 C   0  0  2  0  0  0  0  0  0  0  0  0
    8.2555  -14.6135   25.2798 N   0  0  0  0  0  0  0  0  0  0  0  0
    8.7190  -14.1024   27.5482 C   0  0  0  0  0  0  0  0  0  0  0  0
    8.7134  -15.3373   27.7723 O   0  0  0  0  0  0  0  0  0  0  0  0
    9.0806  -13.2645   28.5741 O   0  0  0  0  0  0  0  0  0  0  0  0
  2  3  1  0
  2  5  1  0
  2  1  1  6
  4  3  1  0
  5  6  2  0
  7  5  1  0
  7  8  1  0
  8 13  1  0
  9 10  1  0
  8  9  1  1
 10 11  1  0
 11 12  2  0
 13 20  1  0
 14 13  2  0
 15 11  1  0
 17 16  1  6
 17 18  1  0
 19 17  1  0
 19 20  1  6
 21 23  1  0
 21 19  1  0
 22 21  2  0
M  END
$$$$
