CEV.pdb
     RDKit          3D

 23 22  0  0  1  0  0  0  0  0999 V2000
    7.7384  -15.2691   17.8921 N   0  0  0  0  0  0  0  0  0  0  0  0
    8.2722  -14.5060   18.9763 C   0  0  1  0  0  0  0  0  0  0  0  0
    7.7639  -13.0984   18.8908 C   0  0  0  0  0  0  0  0  0  0  0  0
    8.3839  -12.1964   20.3486 S   0  0  0  0  0  0  0  0  0  0  0  0
    8.0153  -15.1292   20.2987 C   0  0  0  0  0  0  0  0  0  0  0  0
    6.8685  -15.6034   20.5274 O   0  0  0  0  0  0  0  0  0  0  0  0
    9.0037  -15.2139   21.3152 N   0  0  0  0  0  0  0  0  0  0  0  0
    8.8205  -15.8832   22.5745 C   0  0  1  0  0  0  0  0  0  0  0  0
    9.8363  -17.0132   22.7548 C   0  0  0  0  0  0  0  0  0  0  0  0
    9.6182  -17.7291   24.0669 C   0  0  0  0  0  0  0  0  0  0  0  0
   10.5582  -18.8570   24.1618 C   0  0  0  0  0  0  0  0  0  0  0  0
   11.4074  -19.0682   23.2774 O   0  0  0  0  0  0  0  0  0  0  0  0
    9.0292  -14.9526   23.7304 C   0  0  0  0  0  0  0  0  0  0  0  0
   10.1090  -14.3188   23.8408 O   0  0  0  0  0  0  0  0  0  0  0  0
   10.5183  -19.7285   25.2618 O   0  0  0  0  0  0  0  0  0  0  0  0
    6.4353  -12.3054   25.0453 C   0  0  0  0  0  0  0  0  0  0  0  0
    6.9620  -13.1016   26.2077 C   0  0  2  0  0  0  0  0  0  0  0  0
    7.3360  -12.1133   27.2982 C   0  0  0  0  0  0  0  0  0  0  0  0
    8.2339  -13.8224   25.8255 C   0  0  2  0  0  0  0  0  0  0  0  0
    8.0451  -14.7431   24.7348 N   0  0  0  0  0  0  0  0  0  0  0  0
    8.7012  -14.5753   27.0071 C   0  0  0  0  0  0  0  0  0  0  0  0
    8.6597  -15.8285   27.0616 O   0  0  0  0  0  0  0  0  0  0  0  0
    9.2016  -13.9008   28.0933 O   0  0  0  0  0  0  0  0  0  0  0  0
  2  3  1  0
  2  5  1  0
  2  1  1  6
  4  3  1  0
  5  6  2  0
  7  5  1  0
  7  8  1  0
  8 13  1  0
  9 10  1  0
  8  9  1  1
 10 11  1  0
 11 12  2  0
 13 20  1  0
 14 13  2  0
 15 11  1  0
 17 16  1  6
 17 18  1  0
 19 17  1  0
 19 20  1  6
 21 23  1  0
 21 19  1  0
 22 21  2  0
M  END
$$$$
