CEV.pdb
     RDKit          3D

 23 22  0  0  1  0  0  0  0  0999 V2000
    9.5325  -16.8584   19.8304 N   0  0  0  0  0  0  0  0  0  0  0  0
    8.1735  -16.5501   20.1478 C   0  0  1  0  0  0  0  0  0  0  0  0
    7.2677  -17.5152   19.4441 C   0  0  0  0  0  0  0  0  0  0  0  0
    7.0527  -16.9256   17.7326 S   0  0  0  0  0  0  0  0  0  0  0  0
    7.9240  -16.4912   21.6097 C   0  0  0  0  0  0  0  0  0  0  0  0
    6.7689  -16.1793   22.0105 O   0  0  0  0  0  0  0  0  0  0  0  0
    8.9286  -16.7705   22.5743 N   0  0  0  0  0  0  0  0  0  0  0  0
    8.7170  -16.7579   23.9964 C   0  0  1  0  0  0  0  0  0  0  0  0
    9.6434  -17.7495   24.7035 C   0  0  0  0  0  0  0  0  0  0  0  0
    9.3685  -17.7781   26.1886 C   0  0  0  0  0  0  0  0  0  0  0  0
   10.3339  -18.6776   26.8394 C   0  0  0  0  0  0  0  0  0  0  0  0
   11.4825  -18.2955   27.1271 O   0  0  0  0  0  0  0  0  0  0  0  0
    9.0209  -15.4152   24.5884 C   0  0  0  0  0  0  0  0  0  0  0  0
   10.0920  -14.8263   24.2955 O   0  0  0  0  0  0  0  0  0  0  0  0
    9.9785  -19.9990   27.1536 O   0  0  0  0  0  0  0  0  0  0  0  0
    6.0657  -13.2475   26.7598 C   0  0  0  0  0  0  0  0  0  0  0  0
    7.2237  -12.5568   26.0931 C   0  0  2  0  0  0  0  0  0  0  0  0
    6.8260  -12.3014   24.6501 C   0  0  0  0  0  0  0  0  0  0  0  0
    8.4317  -13.4637   26.0525 C   0  0  2  0  0  0  0  0  0  0  0  0
    8.1391  -14.7550   25.4871 N   0  0  0  0  0  0  0  0  0  0  0  0
    8.9067  -13.6489   27.4388 C   0  0  0  0  0  0  0  0  0  0  0  0
    9.2748  -12.6859   28.1544 O   0  0  0  0  0  0  0  0  0  0  0  0
    8.9552  -14.9089   27.9821 O   0  0  0  0  0  0  0  0  0  0  0  0
  2  3  1  0
  2  5  1  0
  2  1  1  1
  4  3  1  0
  5  6  2  0
  7  5  1  0
  7  8  1  0
  8 13  1  0
  9 10  1  0
  8  9  1  1
 10 11  1  0
 11 12  2  0
 13 20  1  0
 14 13  2  0
 15 11  1  0
 17 16  1  1
 17 18  1  0
 19 17  1  0
 19 20  1  1
 21 23  1  0
 21 19  1  0
 22 21  2  0
M  END
$$$$
