CEV.pdb
     RDKit          3D

 23 22  0  0  1  0  0  0  0  0999 V2000
    7.5258  -15.1827   18.7621 N   0  0  0  0  0  0  0  0  0  0  0  0
    8.1530  -14.4286   19.8017 C   0  0  1  0  0  0  0  0  0  0  0  0
    7.6843  -13.0063   19.7359 C   0  0  0  0  0  0  0  0  0  0  0  0
    8.5390  -12.2059   18.3387 S   0  0  0  0  0  0  0  0  0  0  0  0
    7.9640  -15.0332   21.1440 C   0  0  0  0  0  0  0  0  0  0  0  0
    6.8073  -15.4143   21.4744 O   0  0  0  0  0  0  0  0  0  0  0  0
    9.0278  -15.2002   22.0701 N   0  0  0  0  0  0  0  0  0  0  0  0
    8.8877  -15.7950   23.3716 C   0  0  1  0  0  0  0  0  0  0  0  0
    9.9359  -16.8865   23.5982 C   0  0  0  0  0  0  0  0  0  0  0  0
    9.6658  -18.0837   22.7176 C   0  0  0  0  0  0  0  0  0  0  0  0
   10.7040  -19.0990   22.9538 C   0  0  0  0  0  0  0  0  0  0  0  0
   10.5599  -20.2738   22.5704 O   0  0  0  0  0  0  0  0  0  0  0  0
    9.0958  -14.7902   24.4637 C   0  0  0  0  0  0  0  0  0  0  0  0
   10.1688  -14.1383   24.5227 O   0  0  0  0  0  0  0  0  0  0  0  0
   11.8916  -18.7628   23.6230 O   0  0  0  0  0  0  0  0  0  0  0  0
    5.8847  -13.5357   26.9411 C   0  0  0  0  0  0  0  0  0  0  0  0
    7.1210  -12.6977   26.7629 C   0  0  2  0  0  0  0  0  0  0  0  0
    6.9275  -11.8712   25.5039 C   0  0  0  0  0  0  0  0  0  0  0  0
    8.3273  -13.5748   26.5208 C   0  0  2  0  0  0  0  0  0  0  0  0
    8.1184  -14.5283   25.4624 N   0  0  0  0  0  0  0  0  0  0  0  0
    8.6133  -14.3080   27.7708 C   0  0  0  0  0  0  0  0  0  0  0  0
    8.5118  -15.5562   27.8528 O   0  0  0  0  0  0  0  0  0  0  0  0
    9.0049  -13.6197   28.8925 O   0  0  0  0  0  0  0  0  0  0  0  0
  2  3  1  0
  2  5  1  0
  2  1  1  6
  4  3  1  0
  5  6  2  0
  7  5  1  0
  7  8  1  0
  8 13  1  0
  9 10  1  0
  8  9  1  1
 10 11  1  0
 11 12  2  0
 13 20  1  0
 14 13  2  0
 15 11  1  0
 17 16  1  6
 17 18  1  0
 19 17  1  0
 19 20  1  6
 21 23  1  0
 21 19  1  0
 22 21  2  0
M  END
$$$$
