CEV.pdb
     RDKit          3D

 23 22  0  0  1  0  0  0  0  0999 V2000
    7.3957  -15.4539   18.4791 N   0  0  0  0  0  0  0  0  0  0  0  0
    8.0723  -14.6493   19.4473 C   0  0  1  0  0  0  0  0  0  0  0  0
    7.7287  -13.2076   19.2227 C   0  0  0  0  0  0  0  0  0  0  0  0
    8.6396  -12.2226   20.4569 S   0  0  0  0  0  0  0  0  0  0  0  0
    7.8150  -15.0897   20.8412 C   0  0  0  0  0  0  0  0  0  0  0  0
    6.6186  -15.2410   21.2129 O   0  0  0  0  0  0  0  0  0  0  0  0
    8.8564  -15.3474   21.7721 N   0  0  0  0  0  0  0  0  0  0  0  0
    8.6546  -15.8836   23.0908 C   0  0  1  0  0  0  0  0  0  0  0  0
    9.5954  -17.0597   23.3611 C   0  0  0  0  0  0  0  0  0  0  0  0
    9.4004  -17.5948   24.7602 C   0  0  0  0  0  0  0  0  0  0  0  0
   10.2883  -18.7505   24.9616 C   0  0  0  0  0  0  0  0  0  0  0  0
   11.4542  -18.6074   25.3715 O   0  0  0  0  0  0  0  0  0  0  0  0
    8.9496  -14.8671   24.1517 C   0  0  0  0  0  0  0  0  0  0  0  0
   10.0291  -14.2239   24.1239 O   0  0  0  0  0  0  0  0  0  0  0  0
    9.8367  -20.0525   24.6935 O   0  0  0  0  0  0  0  0  0  0  0  0
    5.9654  -13.5323   26.8863 C   0  0  0  0  0  0  0  0  0  0  0  0
    7.2103  -12.7375   26.6017 C   0  0  2  0  0  0  0  0  0  0  0  0
    6.9431  -11.9124   25.3553 C   0  0  0  0  0  0  0  0  0  0  0  0
    8.3634  -13.6563   26.2706 C   0  0  2  0  0  0  0  0  0  0  0  0
    8.0498  -14.5845   25.2156 N   0  0  0  0  0  0  0  0  0  0  0  0
    8.7001  -14.4192   27.4897 C   0  0  0  0  0  0  0  0  0  0  0  0
    8.5621  -15.6646   27.5594 O   0  0  0  0  0  0  0  0  0  0  0  0
    9.1818  -13.7629   28.5954 O   0  0  0  0  0  0  0  0  0  0  0  0
  2  3  1  0
  2  5  1  0
  2  1  1  6
  4  3  1  0
  5  6  2  0
  7  5  1  0
  7  8  1  0
  8 13  1  0
  9 10  1  0
  8  9  1  1
 10 11  1  0
 11 12  2  0
 13 20  1  0
 14 13  2  0
 15 11  1  0
 17 16  1  6
 17 18  1  0
 19 17  1  0
 19 20  1  6
 21 23  1  0
 21 19  1  0
 22 21  2  0
M  END
$$$$
