SRC.pdb
     RDKit          3D

 24 23  0  0  1  0  0  0  0  0999 V2000
   25.6973  -20.5652  -16.6796 O   0  0  0  0  0  0  0  0  0  0  0  0
   25.9805  -20.6767  -15.3065 C   0  0  0  0  0  0  0  0  0  0  0  0
   25.5524  -22.0485  -14.8064 C   0  0  2  0  0  0  0  0  0  0  0  0
   26.3173  -23.0421  -15.5457 N   0  0  0  0  0  0  0  0  0  0  0  0
   24.0910  -22.2524  -14.9913 C   0  0  0  0  0  0  0  0  0  0  0  0
   23.6767  -22.9248  -15.9817 O   0  0  0  0  0  0  0  0  0  0  0  0
   18.6077  -23.6865   -8.8277 N   0  0  0  0  0  0  0  0  0  0  0  0
   19.1005  -24.5853   -9.8242 C   0  0  0  0  0  0  0  0  0  0  0  0
   19.2394  -25.8348   -9.5541 N   0  0  0  0  0  0  0  0  0  0  0  0
   19.4503  -24.1548  -11.1243 N   0  0  0  0  0  0  0  0  0  0  0  0
   19.2538  -22.8036  -11.5229 C   0  0  0  0  0  0  0  0  0  0  0  0
   19.6390  -22.4644  -12.9225 C   0  0  0  0  0  0  0  0  0  0  0  0
   21.1225  -22.2277  -12.9775 C   0  0  0  0  0  0  0  0  0  0  0  0
   21.6682  -21.9264  -14.3457 C   0  0  2  0  0  0  0  0  0  0  0  0
   23.1243  -21.7355  -14.1185 N   0  0  0  0  0  0  0  0  0  0  0  0
   21.1285  -20.6160  -14.7827 C   0  0  0  0  0  0  0  0  0  0  0  0
   21.4186  -19.5774  -14.1394 O   0  0  0  0  0  0  0  0  0  0  0  0
   19.5699  -26.5082  -10.2820 N   0  0  0  0  0  0  0  0  0  0  0  0
   20.2834  -20.4410  -15.9071 C   0  0  2  0  0  0  0  0  0  0  0  0
   19.8273  -19.1577  -16.3782 C   0  0  0  0  0  0  0  0  0  0  0  0
   19.8539  -19.1927  -17.9125 S   0  0  0  0  0  0  0  0  0  0  0  0
   21.5394  -19.5754  -18.4904 C   0  0  0  0  0  0  0  0  0  0  0  0
   18.4798  -18.8044  -15.9014 O   0  0  0  0  0  0  0  0  0  0  0  0
   17.7688  -19.6645  -15.3524 O   0  0  0  0  0  0  0  0  0  0  0  0
  1  2  1  0
  3  4  1  6
  3  2  1  0
  5  3  1  0
  6  5  2  0
  7  8  1  0
  8  9  2  0
  8 10  1  0
 10 11  1  0
 11 12  1  0
 14 13  1  1
 13 12  1  0
 14 15  1  0
 15  5  1  0
 16 14  1  0
 16 18  1  0
 17 16  2  0
 19 18  1  0
 19 20  1  1
 20 21  1  0
 22 19  1  0
 22 24  1  0
 23 22  2  0
M  END
$$$$
