SRC.pdb
     RDKit          3D

 24 23  0  0  1  0  0  0  0  0999 V2000
   20.1639  -14.1802  -17.8459 O   0  0  0  0  0  0  0  0  0  0  0  0
   20.3363  -13.2212  -16.8317 C   0  0  0  0  0  0  0  0  0  0  0  0
   21.1342  -12.0437  -17.3722 C   0  0  2  0  0  0  0  0  0  0  0  0
   22.4935  -12.1670  -16.8661 N   0  0  0  0  0  0  0  0  0  0  0  0
   20.5251  -10.7513  -16.9598 C   0  0  0  0  0  0  0  0  0  0  0  0
   19.3726  -10.4426  -17.3851 O   0  0  0  0  0  0  0  0  0  0  0  0
   20.2795   -7.0430   -9.3738 N   0  0  0  0  0  0  0  0  0  0  0  0
   20.0885   -5.8678  -10.1652 C   0  0  0  0  0  0  0  0  0  0  0  0
   19.9539   -4.7222   -9.5971 N   0  0  0  0  0  0  0  0  0  0  0  0
   20.0399   -5.9069  -11.5773 N   0  0  0  0  0  0  0  0  0  0  0  0
   20.5582   -7.0205  -12.2946 C   0  0  0  0  0  0  0  0  0  0  0  0
   20.3445   -7.0143  -13.7699 C   0  0  0  0  0  0  0  0  0  0  0  0
   20.8259   -8.3198  -14.3390 C   0  0  0  0  0  0  0  0  0  0  0  0
   20.5845   -8.4991  -15.8121 C   0  0  2  0  0  0  0  0  0  0  0  0
   21.1616   -9.8354  -16.1116 N   0  0  0  0  0  0  0  0  0  0  0  0
   21.4079   -7.5048  -16.5421 C   0  0  0  0  0  0  0  0  0  0  0  0
   22.6604   -7.5697  -16.4824 O   0  0  0  0  0  0  0  0  0  0  0  0
   19.8325   -3.8524  -10.1639 N   0  0  0  0  0  0  0  0  0  0  0  0
   20.8716   -6.4534  -17.3269 C   0  0  2  0  0  0  0  0  0  0  0  0
   21.6733   -5.5273  -18.0863 C   0  0  0  0  0  0  0  0  0  0  0  0
   20.8139   -5.0212  -19.2530 S   0  0  0  0  0  0  0  0  0  0  0  0
   20.1825   -6.4366  -20.2120 C   0  0  0  0  0  0  0  0  0  0  0  0
   22.1682   -4.3922  -17.2900 O   0  0  0  0  0  0  0  0  0  0  0  0
   21.5463   -4.0240  -16.2780 O   0  0  0  0  0  0  0  0  0  0  0  0
  1  2  1  0
  3  4  1  1
  3  2  1  0
  5  3  1  0
  6  5  2  0
  7  8  1  0
  8  9  2  0
  8 10  1  0
 10 11  1  0
 11 12  1  0
 14 13  1  1
 13 12  1  0
 14 15  1  0
 15  5  1  0
 16 14  1  0
 16 18  1  0
 17 16  2  0
 19 18  1  0
 19 20  1  1
 20 21  1  0
 22 19  1  0
 22 24  1  0
 23 22  2  0
M  END
$$$$
