SRC.pdb
     RDKit          3D

 24 23  0  0  1  0  0  0  0  0999 V2000
   14.6766   -1.7265  -16.8954 O   0  0  0  0  0  0  0  0  0  0  0  0
   15.5831   -2.5832  -16.2456 C   0  0  0  0  0  0  0  0  0  0  0  0
   14.8411   -3.4315  -15.2233 C   0  0  2  0  0  0  0  0  0  0  0  0
   14.3000   -2.5301  -14.2166 N   0  0  0  0  0  0  0  0  0  0  0  0
   15.7452   -4.4394  -14.6083 C   0  0  0  0  0  0  0  0  0  0  0  0
   15.6144   -4.7265  -13.3815 O   0  0  0  0  0  0  0  0  0  0  0  0
   19.0160  -11.0823  -17.1801 N   0  0  0  0  0  0  0  0  0  0  0  0
   18.3861  -11.7720  -16.0977 C   0  0  0  0  0  0  0  0  0  0  0  0
   18.7381  -12.9739  -15.8065 N   0  0  0  0  0  0  0  0  0  0  0  0
   17.3701  -11.1802  -15.3131 N   0  0  0  0  0  0  0  0  0  0  0  0
   16.8871   -9.8753  -15.6085 C   0  0  0  0  0  0  0  0  0  0  0  0
   17.6354   -8.7395  -14.9985 C   0  0  0  0  0  0  0  0  0  0  0  0
   16.9325   -7.4540  -15.3354 C   0  0  0  0  0  0  0  0  0  0  0  0
   17.5366   -6.2199  -14.7249 C   0  0  2  0  0  0  0  0  0  0  0  0
   16.7537   -5.1047  -15.3180 N   0  0  0  0  0  0  0  0  0  0  0  0
   18.9244   -6.0837  -15.2299 C   0  0  0  0  0  0  0  0  0  0  0  0
   19.1365   -6.0536  -16.4671 O   0  0  0  0  0  0  0  0  0  0  0  0
   18.2437  -13.5124  -15.0594 N   0  0  0  0  0  0  0  0  0  0  0  0
   20.0658   -5.9815  -14.3958 C   0  0  2  0  0  0  0  0  0  0  0  0
   21.4120   -5.8362  -14.8894 C   0  0  0  0  0  0  0  0  0  0  0  0
   22.2221   -5.1013  -13.8125 S   0  0  0  0  0  0  0  0  0  0  0  0
   21.5082   -3.4493  -13.5252 C   0  0  0  0  0  0  0  0  0  0  0  0
   22.0548   -7.1182  -15.2223 O   0  0  0  0  0  0  0  0  0  0  0  0
   21.4888   -8.1893  -14.9414 O   0  0  0  0  0  0  0  0  0  0  0  0
  1  2  1  0
  3  4  1  1
  3  2  1  0
  5  3  1  0
  6  5  2  0
  7  8  1  0
  8  9  2  0
  8 10  1  0
 10 11  1  0
 11 12  1  0
 14 13  1  6
 13 12  1  0
 14 15  1  0
 15  5  1  0
 16 14  1  0
 16 18  1  0
 17 16  2  0
 19 18  1  0
 19 20  1  1
 20 21  1  0
 22 19  1  0
 22 24  1  0
 23 22  2  0
M  END
$$$$
