SRC.pdb
     RDKit          3D

 24 23  0  0  1  0  0  0  0  0999 V2000
   26.1794  -24.9212  -16.8286 O   0  0  0  0  0  0  0  0  0  0  0  0
   25.5318  -24.1416  -15.8535 C   0  0  0  0  0  0  0  0  0  0  0  0
   25.6045  -22.6725  -16.2429 C   0  0  2  0  0  0  0  0  0  0  0  0
   26.9986  -22.2640  -16.1516 N   0  0  0  0  0  0  0  0  0  0  0  0
   24.7448  -21.8422  -15.3580 C   0  0  0  0  0  0  0  0  0  0  0  0
   25.2042  -21.4309  -14.2515 O   0  0  0  0  0  0  0  0  0  0  0  0
   20.3561  -15.3450  -18.3523 N   0  0  0  0  0  0  0  0  0  0  0  0
   19.9180  -15.2858  -16.9927 C   0  0  0  0  0  0  0  0  0  0  0  0
   19.2393  -14.2758  -16.5769 N   0  0  0  0  0  0  0  0  0  0  0  0
   20.2021  -16.3104  -16.0614 N   0  0  0  0  0  0  0  0  0  0  0  0
   21.0553  -17.3947  -16.4074 C   0  0  0  0  0  0  0  0  0  0  0  0
   21.4000  -18.3415  -15.3087 C   0  0  0  0  0  0  0  0  0  0  0  0
   22.2567  -19.4445  -15.8649 C   0  0  0  0  0  0  0  0  0  0  0  0
   22.6574  -20.5005  -14.8725 C   0  0  2  0  0  0  0  0  0  0  0  0
   23.4304  -21.4792  -15.6806 N   0  0  0  0  0  0  0  0  0  0  0  0
   21.4308  -21.1978  -14.4157 C   0  0  0  0  0  0  0  0  0  0  0  0
   20.7668  -21.8866  -15.2288 O   0  0  0  0  0  0  0  0  0  0  0  0
   18.9995  -14.1696  -15.5651 N   0  0  0  0  0  0  0  0  0  0  0  0
   20.9351  -21.1443  -13.0889 C   0  0  2  0  0  0  0  0  0  0  0  0
   19.7187  -21.7860  -12.6584 C   0  0  0  0  0  0  0  0  0  0  0  0
   19.9239  -22.2382  -11.2060 S   0  0  0  0  0  0  0  0  0  0  0  0
   18.3742  -22.9433  -10.5559 C   0  0  0  0  0  0  0  0  0  0  0  0
   18.5329  -20.9189  -12.7577 O   0  0  0  0  0  0  0  0  0  0  0  0
   17.4450  -21.3930  -13.1294 O   0  0  0  0  0  0  0  0  0  0  0  0
  1  2  1  0
  3  4  1  1
  3  2  1  0
  5  3  1  0
  6  5  2  0
  7  8  1  0
  8  9  2  0
  8 10  1  0
 10 11  1  0
 11 12  1  0
 14 13  1  6
 13 12  1  0
 14 15  1  0
 15  5  1  0
 16 14  1  0
 16 18  1  0
 17 16  2  0
 19 18  1  0
 19 20  1  1
 20 21  1  0
 22 19  1  0
 22 24  1  0
 23 22  2  0
M  END
$$$$
