SRC.pdb
     RDKit          3D

 24 23  0  0  1  0  0  0  0  0999 V2000
   25.4035  -24.9160  -14.2175 O   0  0  0  0  0  0  0  0  0  0  0  0
   24.6694  -25.6525  -15.1645 C   0  0  0  0  0  0  0  0  0  0  0  0
   23.2862  -25.0399  -15.3274 C   0  0  2  0  0  0  0  0  0  0  0  0
   23.4412  -23.5931  -15.2908 N   0  0  0  0  0  0  0  0  0  0  0  0
   22.3659  -25.5065  -14.2565 C   0  0  0  0  0  0  0  0  0  0  0  0
   21.7905  -24.6551  -13.5156 O   0  0  0  0  0  0  0  0  0  0  0  0
   15.6642  -27.2579  -12.5460 N   0  0  0  0  0  0  0  0  0  0  0  0
   15.5843  -28.6704  -12.7516 C   0  0  0  0  0  0  0  0  0  0  0  0
   14.6007  -29.3390  -12.2628 N   0  0  0  0  0  0  0  0  0  0  0  0
   16.5592  -29.3840  -13.4854 N   0  0  0  0  0  0  0  0  0  0  0  0
   17.6866  -28.7179  -14.0407 C   0  0  0  0  0  0  0  0  0  0  0  0
   18.7639  -28.3324  -13.0851 C   0  0  0  0  0  0  0  0  0  0  0  0
   19.9099  -27.7372  -13.8547 C   0  0  0  0  0  0  0  0  0  0  0  0
   21.0766  -27.2935  -13.0165 C   0  0  2  0  0  0  0  0  0  0  0  0
   22.0904  -26.8584  -14.0121 N   0  0  0  0  0  0  0  0  0  0  0  0
   21.6348  -28.4837  -12.3303 C   0  0  0  0  0  0  0  0  0  0  0  0
   22.4960  -29.1898  -12.9103 O   0  0  0  0  0  0  0  0  0  0  0  0
   14.5244  -30.3704  -12.4139 N   0  0  0  0  0  0  0  0  0  0  0  0
   21.2584  -28.8983  -11.0282 C   0  0  2  0  0  0  0  0  0  0  0  0
   21.8422  -30.0232  -10.3422 C   0  0  0  0  0  0  0  0  0  0  0  0
   23.2054  -29.5753   -9.7972 S   0  0  0  0  0  0  0  0  0  0  0  0
   24.0082  -30.9629   -8.9303 C   0  0  0  0  0  0  0  0  0  0  0  0
   21.0034  -30.5415   -9.2489 O   0  0  0  0  0  0  0  0  0  0  0  0
   20.0531  -29.8643   -8.8191 O   0  0  0  0  0  0  0  0  0  0  0  0
  1  2  1  0
  3  4  1  1
  3  2  1  0
  5  3  1  0
  6  5  2  0
  7  8  1  0
  8  9  2  0
  8 10  1  0
 10 11  1  0
 11 12  1  0
 14 13  1  6
 13 12  1  0
 14 15  1  0
 15  5  1  0
 16 14  1  0
 16 18  1  0
 17 16  2  0
 19 18  1  0
 19 20  1  1
 20 21  1  0
 22 19  1  0
 22 24  1  0
 23 22  2  0
M  END
$$$$
