SRC.pdb
     RDKit          3D

 24 23  0  0  1  0  0  0  0  0999 V2000
   20.4293  -15.7241  -15.8223 O   0  0  0  0  0  0  0  0  0  0  0  0
   21.0870  -15.6250  -17.0616 C   0  0  0  0  0  0  0  0  0  0  0  0
   22.4001  -16.3917  -17.0059 C   0  0  2  0  0  0  0  0  0  0  0  0
   23.0579  -16.2270  -18.2939 N   0  0  0  0  0  0  0  0  0  0  0  0
   22.1670  -17.8291  -16.7042 C   0  0  0  0  0  0  0  0  0  0  0  0
   21.8196  -18.6125  -17.6371 O   0  0  0  0  0  0  0  0  0  0  0  0
   27.3792  -19.6352  -15.3604 N   0  0  0  0  0  0  0  0  0  0  0  0
   27.5467  -21.0327  -15.1098 C   0  0  0  0  0  0  0  0  0  0  0  0
   28.5254  -21.6716  -15.6459 N   0  0  0  0  0  0  0  0  0  0  0  0
   26.6658  -21.7630  -14.2799 N   0  0  0  0  0  0  0  0  0  0  0  0
   25.4485  -21.1867  -13.8223 C   0  0  0  0  0  0  0  0  0  0  0  0
   24.4083  -20.9290  -14.8586 C   0  0  0  0  0  0  0  0  0  0  0  0
   23.2707  -20.1723  -14.2315 C   0  0  0  0  0  0  0  0  0  0  0  0
   22.1409  -19.8343  -15.1642 C   0  0  2  0  0  0  0  0  0  0  0  0
   22.3115  -18.3812  -15.4245 N   0  0  0  0  0  0  0  0  0  0  0  0
   20.8653  -19.9890  -14.4239 C   0  0  0  0  0  0  0  0  0  0  0  0
   20.6442  -19.2819  -13.4101 O   0  0  0  0  0  0  0  0  0  0  0  0
   28.6786  -22.6860  -15.4458 N   0  0  0  0  0  0  0  0  0  0  0  0
   19.8441  -20.9032  -14.7850 C   0  0  2  0  0  0  0  0  0  0  0  0
   18.5751  -20.9996  -14.1087 C   0  0  0  0  0  0  0  0  0  0  0  0
   17.5522  -21.5354  -15.1199 S   0  0  0  0  0  0  0  0  0  0  0  0
   17.5061  -20.4498  -16.5831 C   0  0  0  0  0  0  0  0  0  0  0  0
   18.6114  -21.8629  -12.9167 O   0  0  0  0  0  0  0  0  0  0  0  0
   19.5422  -22.6733  -12.7635 O   0  0  0  0  0  0  0  0  0  0  0  0
  1  2  1  0
  3  4  1  6
  3  2  1  0
  5  3  1  0
  6  5  2  0
  7  8  1  0
  8  9  2  0
  8 10  1  0
 10 11  1  0
 11 12  1  0
 14 13  1  1
 13 12  1  0
 14 15  1  0
 15  5  1  0
 16 14  1  0
 16 18  1  0
 17 16  2  0
 19 18  1  0
 19 20  1  6
 20 21  1  0
 22 19  1  0
 22 24  1  0
 23 22  2  0
M  END
$$$$
