SRC.pdb
     RDKit          3D

 24 23  0  0  1  0  0  0  0  0999 V2000
   20.0176  -16.0273  -17.8253 O   0  0  0  0  0  0  0  0  0  0  0  0
   20.2139  -17.4048  -17.6196 C   0  0  0  0  0  0  0  0  0  0  0  0
   20.4029  -17.6777  -16.1347 C   0  0  2  0  0  0  0  0  0  0  0  0
   19.2370  -17.1502  -15.4410 N   0  0  0  0  0  0  0  0  0  0  0  0
   21.6538  -17.0507  -15.6312 C   0  0  0  0  0  0  0  0  0  0  0  0
   21.5899  -15.9560  -14.9970 O   0  0  0  0  0  0  0  0  0  0  0  0
   27.3453  -21.7944  -12.1284 N   0  0  0  0  0  0  0  0  0  0  0  0
   26.0827  -21.1641  -11.8994 C   0  0  0  0  0  0  0  0  0  0  0  0
   25.2216  -21.7102  -11.1160 N   0  0  0  0  0  0  0  0  0  0  0  0
   25.7278  -19.9388  -12.5082 N   0  0  0  0  0  0  0  0  0  0  0  0
   26.6612  -19.2252  -13.3099 C   0  0  0  0  0  0  0  0  0  0  0  0
   26.1621  -17.9759  -13.9523 C   0  0  0  0  0  0  0  0  0  0  0  0
   24.8279  -18.2524  -14.5874 C   0  0  0  0  0  0  0  0  0  0  0  0
   24.1401  -17.0496  -15.1713 C   0  0  2  0  0  0  0  0  0  0  0  0
   22.9253  -17.6088  -15.8192 N   0  0  0  0  0  0  0  0  0  0  0  0
   24.9929  -16.5085  -16.2572 C   0  0  0  0  0  0  0  0  0  0  0  0
   25.0751  -17.1231  -17.3491 O   0  0  0  0  0  0  0  0  0  0  0  0
   24.2904  -21.2661  -10.9482 N   0  0  0  0  0  0  0  0  0  0  0  0
   25.7462  -15.3124  -16.1533 C   0  0  2  0  0  0  0  0  0  0  0  0
   26.5594  -14.7792  -17.2169 C   0  0  0  0  0  0  0  0  0  0  0  0
   26.8890  -13.3230  -16.8608 S   0  0  0  0  0  0  0  0  0  0  0  0
   25.3485  -12.4040  -16.5388 C   0  0  0  0  0  0  0  0  0  0  0  0
   27.7994  -15.5401  -17.4432 O   0  0  0  0  0  0  0  0  0  0  0  0
   28.1304  -16.4400  -16.6513 O   0  0  0  0  0  0  0  0  0  0  0  0
  1  2  1  0
  3  4  1  1
  3  2  1  0
  5  3  1  0
  6  5  2  0
  7  8  1  0
  8  9  2  0
  8 10  1  0
 10 11  1  0
 11 12  1  0
 14 13  1  6
 13 12  1  0
 14 15  1  0
 15  5  1  0
 16 14  1  0
 16 18  1  0
 17 16  2  0
 19 18  1  0
 19 20  1  6
 20 21  1  0
 22 19  1  0
 22 24  1  0
 23 22  2  0
M  END
$$$$
