SRC.pdb
     RDKit          3D

 24 23  0  0  1  0  0  0  0  0999 V2000
   28.4078  -21.4241  -17.0842 O   0  0  0  0  0  0  0  0  0  0  0  0
   27.0253  -21.6778  -17.1333 C   0  0  0  0  0  0  0  0  0  0  0  0
   26.5884  -22.3763  -15.8541 C   0  0  2  0  0  0  0  0  0  0  0  0
   27.1010  -23.7378  -15.9019 N   0  0  0  0  0  0  0  0  0  0  0  0
   25.1075  -22.3668  -15.7193 C   0  0  0  0  0  0  0  0  0  0  0  0
   24.4427  -23.3816  -16.0841 O   0  0  0  0  0  0  0  0  0  0  0  0
   21.2216  -20.0653   -8.8915 N   0  0  0  0  0  0  0  0  0  0  0  0
   21.1033  -21.3599   -9.4864 C   0  0  0  0  0  0  0  0  0  0  0  0
   20.9653  -22.4008   -8.7442 N   0  0  0  0  0  0  0  0  0  0  0  0
   21.1310  -21.5542  -10.8862 N   0  0  0  0  0  0  0  0  0  0  0  0
   21.1623  -20.4450  -11.7762 C   0  0  0  0  0  0  0  0  0  0  0  0
   21.2369  -20.7658  -13.2301 C   0  0  0  0  0  0  0  0  0  0  0  0
   22.6771  -20.9625  -13.6138 C   0  0  0  0  0  0  0  0  0  0  0  0
   22.9088  -21.3072  -15.0589 C   0  0  2  0  0  0  0  0  0  0  0  0
   24.3877  -21.2814  -15.2025 N   0  0  0  0  0  0  0  0  0  0  0  0
   22.3793  -20.1999  -15.8912 C   0  0  0  0  0  0  0  0  0  0  0  0
   22.9540  -19.0836  -15.8809 O   0  0  0  0  0  0  0  0  0  0  0  0
   20.8700  -23.3524   -9.1659 N   0  0  0  0  0  0  0  0  0  0  0  0
   21.2375  -20.3091  -16.7239 C   0  0  2  0  0  0  0  0  0  0  0  0
   20.6553  -19.2020  -17.4395 C   0  0  0  0  0  0  0  0  0  0  0  0
   20.7243  -19.5321  -18.9369 S   0  0  0  0  0  0  0  0  0  0  0  0
   19.9210  -18.2076  -19.8971 C   0  0  0  0  0  0  0  0  0  0  0  0
   19.2656  -18.9166  -17.0457 O   0  0  0  0  0  0  0  0  0  0  0  0
   18.5210  -19.8418  -16.6770 O   0  0  0  0  0  0  0  0  0  0  0  0
  1  2  1  0
  3  4  1  6
  3  2  1  0
  5  3  1  0
  6  5  2  0
  7  8  1  0
  8  9  2  0
  8 10  1  0
 10 11  1  0
 11 12  1  0
 14 13  1  1
 13 12  1  0
 14 15  1  0
 15  5  1  0
 16 14  1  0
 16 18  1  0
 17 16  2  0
 19 18  1  0
 19 20  1  6
 20 21  1  0
 22 19  1  0
 22 24  1  0
 23 22  2  0
M  END
$$$$
