SRC.pdb
     RDKit          3D

 24 23  0  0  1  0  0  0  0  0999 V2000
   22.4200  -10.6255  -13.9271 O   0  0  0  0  0  0  0  0  0  0  0  0
   23.4119  -10.8541  -14.8976 C   0  0  0  0  0  0  0  0  0  0  0  0
   24.0800   -9.5375  -15.2652 C   0  0  2  0  0  0  0  0  0  0  0  0
   23.0440   -8.6456  -15.7651 N   0  0  0  0  0  0  0  0  0  0  0  0
   25.1444   -9.7444  -16.2829 C   0  0  0  0  0  0  0  0  0  0  0  0
   26.1186  -10.5096  -16.0180 O   0  0  0  0  0  0  0  0  0  0  0  0
   26.3940   -8.6924  -24.1949 N   0  0  0  0  0  0  0  0  0  0  0  0
   26.6257  -10.0992  -24.0885 C   0  0  0  0  0  0  0  0  0  0  0  0
   27.3264  -10.7068  -24.9792 N   0  0  0  0  0  0  0  0  0  0  0  0
   26.1086  -10.8723  -23.0242 N   0  0  0  0  0  0  0  0  0  0  0  0
   25.4758  -10.2515  -21.9118 C   0  0  0  0  0  0  0  0  0  0  0  0
   26.3259   -9.3446  -21.0888 C   0  0  0  0  0  0  0  0  0  0  0  0
   25.5665   -8.9513  -19.8525 C   0  0  0  0  0  0  0  0  0  0  0  0
   26.1916   -9.3876  -18.5565 C   0  0  2  0  0  0  0  0  0  0  0  0
   25.1350   -9.1321  -17.5432 N   0  0  0  0  0  0  0  0  0  0  0  0
   27.3117   -8.4660  -18.2477 C   0  0  0  0  0  0  0  0  0  0  0  0
   27.0700   -7.3320  -17.7658 O   0  0  0  0  0  0  0  0  0  0  0  0
   27.5202  -11.7311  -24.9034 N   0  0  0  0  0  0  0  0  0  0  0  0
   28.6777   -8.7777  -18.4617 C   0  0  2  0  0  0  0  0  0  0  0  0
   29.7668   -7.9009  -18.1124 C   0  0  0  0  0  0  0  0  0  0  0  0
   31.0277   -8.7646  -17.9697 S   0  0  0  0  0  0  0  0  0  0  0  0
   30.8028   -9.9634  -16.6156 C   0  0  0  0  0  0  0  0  0  0  0  0
   29.9938   -6.8292  -19.0961 O   0  0  0  0  0  0  0  0  0  0  0  0
   29.4885   -6.9080  -20.2297 O   0  0  0  0  0  0  0  0  0  0  0  0
  1  2  1  0
  3  4  1  6
  3  2  1  0
  5  3  1  0
  6  5  2  0
  7  8  1  0
  8  9  2  0
  8 10  1  0
 10 11  1  0
 11 12  1  0
 14 13  1  6
 13 12  1  0
 14 15  1  0
 15  5  1  0
 16 14  1  0
 16 18  1  0
 17 16  2  0
 19 18  1  0
 19 20  1  1
 20 21  1  0
 22 19  1  0
 22 24  1  0
 23 22  2  0
M  END
$$$$
