SRC.pdb
     RDKit          3D

 24 23  0  0  1  0  0  0  0  0999 V2000
   26.2438  -20.0705   -9.5077 O   0  0  0  0  0  0  0  0  0  0  0  0
   25.7361  -20.2232  -10.8104 C   0  0  0  0  0  0  0  0  0  0  0  0
   25.3582  -21.6785  -11.0441 C   0  0  2  0  0  0  0  0  0  0  0  0
   26.5938  -22.4435  -11.1275 N   0  0  0  0  0  0  0  0  0  0  0  0
   24.5515  -21.8284  -12.2843 C   0  0  0  0  0  0  0  0  0  0  0  0
   25.1298  -22.1292  -13.3705 O   0  0  0  0  0  0  0  0  0  0  0  0
   17.3738  -24.8017  -14.8748 N   0  0  0  0  0  0  0  0  0  0  0  0
   17.9264  -24.8731  -13.5581 C   0  0  0  0  0  0  0  0  0  0  0  0
   17.8507  -25.9661  -12.8850 N   0  0  0  0  0  0  0  0  0  0  0  0
   18.5681  -23.7720  -12.9467 N   0  0  0  0  0  0  0  0  0  0  0  0
   18.6349  -22.5109  -13.6013 C   0  0  0  0  0  0  0  0  0  0  0  0
   19.9495  -22.1471  -14.2029 C   0  0  0  0  0  0  0  0  0  0  0  0
   20.9876  -22.0989  -13.1166 C   0  0  0  0  0  0  0  0  0  0  0  0
   22.3828  -21.7892  -13.5836 C   0  0  2  0  0  0  0  0  0  0  0  0
   23.1618  -21.6538  -12.3254 N   0  0  0  0  0  0  0  0  0  0  0  0
   22.3717  -20.4523  -14.2254 C   0  0  0  0  0  0  0  0  0  0  0  0
   22.4478  -19.4200  -13.5147 O   0  0  0  0  0  0  0  0  0  0  0  0
   18.3045  -26.0520  -11.9474 N   0  0  0  0  0  0  0  0  0  0  0  0
   22.2790  -20.2444  -15.6244 C   0  0  1  0  0  0  0  0  0  0  0  0
   22.6292  -19.0091  -16.2787 C   0  0  0  0  0  0  0  0  0  0  0  0
   24.1427  -18.8127  -16.1154 S   0  0  0  0  0  0  0  0  0  0  0  0
   24.6589  -17.2801  -16.9556 C   0  0  0  0  0  0  0  0  0  0  0  0
   22.2638  -18.9781  -17.7046 O   0  0  0  0  0  0  0  0  0  0  0  0
   22.3374  -20.0142  -18.3884 O   0  0  0  0  0  0  0  0  0  0  0  0
  1  2  1  0
  3  4  1  6
  3  2  1  0
  5  3  1  0
  6  5  2  0
  7  8  1  0
  8  9  2  0
  8 10  1  0
 10 11  1  0
 11 12  1  0
 14 13  1  1
 13 12  1  0
 14 15  1  0
 15  5  1  0
 16 14  1  0
 16 18  1  0
 17 16  2  0
 19 18  1  0
 19 20  1  1
 20 21  1  0
 22 19  1  0
 22 24  1  0
 23 22  2  0
M  END
$$$$
