SRC.pdb
     RDKit          3D

 24 23  0  0  1  0  0  0  0  0999 V2000
   10.7565  -11.1432  -10.0122 O   0  0  0  0  0  0  0  0  0  0  0  0
   11.9532  -10.4541   -9.7453 C   0  0  0  0  0  0  0  0  0  0  0  0
   13.0473  -10.9498  -10.6793 C   0  0  2  0  0  0  0  0  0  0  0  0
   13.2884  -12.3508  -10.3663 N   0  0  0  0  0  0  0  0  0  0  0  0
   14.2884  -10.1456  -10.5227 C   0  0  0  0  0  0  0  0  0  0  0  0
   15.0228  -10.3259   -9.5064 O   0  0  0  0  0  0  0  0  0  0  0  0
   17.7704   -9.9371  -15.7905 N   0  0  0  0  0  0  0  0  0  0  0  0
   19.0784   -9.5443  -15.3677 C   0  0  0  0  0  0  0  0  0  0  0  0
   20.1159   -9.9853  -15.9861 N   0  0  0  0  0  0  0  0  0  0  0  0
   19.2900   -8.6723  -14.2755 N   0  0  0  0  0  0  0  0  0  0  0  0
   18.4036   -7.5884  -14.0251 C   0  0  0  0  0  0  0  0  0  0  0  0
   17.8410   -7.4990  -12.6475 C   0  0  0  0  0  0  0  0  0  0  0  0
   16.5965   -8.3390  -12.5724 C   0  0  0  0  0  0  0  0  0  0  0  0
   15.9109   -8.3417  -11.2343 C   0  0  2  0  0  0  0  0  0  0  0  0
   14.7035   -9.1808  -11.4501 N   0  0  0  0  0  0  0  0  0  0  0  0
   15.4312   -6.9664  -10.9554 C   0  0  0  0  0  0  0  0  0  0  0  0
   14.6685   -6.3954  -11.7731 O   0  0  0  0  0  0  0  0  0  0  0  0
   21.0789   -9.7354  -15.6657 N   0  0  0  0  0  0  0  0  0  0  0  0
   15.7792   -6.2239   -9.7993 C   0  0  2  0  0  0  0  0  0  0  0  0
   15.3947   -4.8526   -9.5785 C   0  0  0  0  0  0  0  0  0  0  0  0
   15.1446   -4.6795   -8.0740 S   0  0  0  0  0  0  0  0  0  0  0  0
   14.7939   -2.9295   -7.7054 C   0  0  0  0  0  0  0  0  0  0  0  0
   16.3996   -3.8813  -10.0415 O   0  0  0  0  0  0  0  0  0  0  0  0
   17.6086   -4.0941   -9.8422 O   0  0  0  0  0  0  0  0  0  0  0  0
  1  2  1  0
  3  4  1  1
  3  2  1  0
  5  3  1  0
  6  5  2  0
  7  8  1  0
  8  9  2  0
  8 10  1  0
 10 11  1  0
 11 12  1  0
 14 13  1  6
 13 12  1  0
 14 15  1  0
 15  5  1  0
 16 14  1  0
 16 18  1  0
 17 16  2  0
 19 18  1  0
 19 20  1  1
 20 21  1  0
 22 19  1  0
 22 24  1  0
 23 22  2  0
M  END
$$$$
