SRC.pdb
     RDKit          3D

 24 23  0  0  1  0  0  0  0  0999 V2000
   15.6537  -21.7190    4.0723 O   0  0  0  0  0  0  0  0  0  0  0  0
   14.8649  -20.6606    3.5869 C   0  0  0  0  0  0  0  0  0  0  0  0
   15.7119  -19.7548    2.7053 C   0  0  2  0  0  0  0  0  0  0  0  0
   16.0558  -20.5069    1.5075 N   0  0  0  0  0  0  0  0  0  0  0  0
   16.9338  -19.3025    3.4221 C   0  0  0  0  0  0  0  0  0  0  0  0
   18.0606  -19.7789    3.0933 O   0  0  0  0  0  0  0  0  0  0  0  0
   19.0585  -11.5637    5.1502 N   0  0  0  0  0  0  0  0  0  0  0  0
   19.9417  -12.1589    6.1040 C   0  0  0  0  0  0  0  0  0  0  0  0
   20.8507  -11.4489    6.6725 N   0  0  0  0  0  0  0  0  0  0  0  0
   19.8604  -13.5242    6.4607 N   0  0  0  0  0  0  0  0  0  0  0  0
   18.8343  -14.3561    5.9334 C   0  0  0  0  0  0  0  0  0  0  0  0
   18.8299  -15.7737    6.3947 C   0  0  0  0  0  0  0  0  0  0  0  0
   17.7416  -16.5190    5.6735 C   0  0  0  0  0  0  0  0  0  0  0  0
   18.1601  -17.8329    5.0743 C   0  0  2  0  0  0  0  0  0  0  0  0
   16.9144  -18.3617    4.4603 N   0  0  0  0  0  0  0  0  0  0  0  0
   18.5164  -18.7551    6.1797 C   0  0  0  0  0  0  0  0  0  0  0  0
   17.6131  -19.2235    6.9152 O   0  0  0  0  0  0  0  0  0  0  0  0
   21.5124  -11.8743    7.3608 N   0  0  0  0  0  0  0  0  0  0  0  0
   19.8412  -19.1608    6.4788 C   0  0  2  0  0  0  0  0  0  0  0  0
   20.1921  -20.0007    7.5961 C   0  0  0  0  0  0  0  0  0  0  0  0
   20.7451  -21.3157    7.0298 S   0  0  0  0  0  0  0  0  0  0  0  0
   19.8132  -21.7825    5.5347 C   0  0  0  0  0  0  0  0  0  0  0  0
   21.1741  -19.3859    8.5045 O   0  0  0  0  0  0  0  0  0  0  0  0
   21.4972  -19.9660    9.5560 O   0  0  0  0  0  0  0  0  0  0  0  0
  1  2  1  0
  3  4  1  6
  3  2  1  0
  5  3  1  0
  6  5  2  0
  7  8  1  0
  8  9  2  0
  8 10  1  0
 10 11  1  0
 11 12  1  0
 14 13  1  1
 13 12  1  0
 14 15  1  0
 15  5  1  0
 16 14  1  0
 16 18  1  0
 17 16  2  0
 19 18  1  0
 19 20  1  6
 20 21  1  0
 22 19  1  0
 22 24  1  0
 23 22  2  0
M  END
$$$$
