SRC.pdb
     RDKit          3D

 24 23  0  0  1  0  0  0  0  0999 V2000
   16.8500  -27.5929   -0.3316 O   0  0  0  0  0  0  0  0  0  0  0  0
   16.2365  -27.9292   -1.5517 C   0  0  0  0  0  0  0  0  0  0  0  0
   16.8726  -27.1312   -2.6804 C   0  0  2  0  0  0  0  0  0  0  0  0
   18.3074  -27.3713   -2.6315 N   0  0  0  0  0  0  0  0  0  0  0  0
   16.5681  -25.6817   -2.5473 C   0  0  0  0  0  0  0  0  0  0  0  0
   17.4441  -24.9031   -2.0667 O   0  0  0  0  0  0  0  0  0  0  0  0
   12.9670  -22.9374   -6.9958 N   0  0  0  0  0  0  0  0  0  0  0  0
   12.5622  -21.5819   -6.7890 C   0  0  0  0  0  0  0  0  0  0  0  0
   12.5564  -20.7532   -7.7721 N   0  0  0  0  0  0  0  0  0  0  0  0
   12.1578  -21.0982   -5.5239 N   0  0  0  0  0  0  0  0  0  0  0  0
   12.0582  -21.9725   -4.4063 C   0  0  0  0  0  0  0  0  0  0  0  0
   13.2542  -22.0515   -3.5199 C   0  0  0  0  0  0  0  0  0  0  0  0
   13.8321  -23.4369   -3.6012 C   0  0  0  0  0  0  0  0  0  0  0  0
   15.0591  -23.6643   -2.7626 C   0  0  2  0  0  0  0  0  0  0  0  0
   15.3458  -25.1129   -2.9293 N   0  0  0  0  0  0  0  0  0  0  0  0
   14.6932  -23.4622   -1.3397 C   0  0  0  0  0  0  0  0  0  0  0  0
   14.0225  -24.3373   -0.7390 O   0  0  0  0  0  0  0  0  0  0  0  0
   12.2503  -19.7628   -7.6380 N   0  0  0  0  0  0  0  0  0  0  0  0
   15.0544  -22.3201   -0.5820 C   0  0  2  0  0  0  0  0  0  0  0  0
   14.7580  -22.1578    0.8190 C   0  0  0  0  0  0  0  0  0  0  0  0
   16.0597  -21.7493    1.5223 S   0  0  0  0  0  0  0  0  0  0  0  0
   15.7210  -21.3696    3.2723 C   0  0  0  0  0  0  0  0  0  0  0  0
   13.7044  -21.1638    1.0829 O   0  0  0  0  0  0  0  0  0  0  0  0
   13.5398  -20.2096    0.3026 O   0  0  0  0  0  0  0  0  0  0  0  0
  1  2  1  0
  3  4  1  1
  3  2  1  0
  5  3  1  0
  6  5  2  0
  7  8  1  0
  8  9  2  0
  8 10  1  0
 10 11  1  0
 11 12  1  0
 14 13  1  6
 13 12  1  0
 14 15  1  0
 15  5  1  0
 16 14  1  0
 16 18  1  0
 17 16  2  0
 19 18  1  0
 19 20  1  6
 20 21  1  0
 22 19  1  0
 22 24  1  0
 23 22  2  0
M  END
$$$$
