APN.pdb
     RDKit          3D

 21 21  0  0  1  0  0  0  0  0999 V2000
    6.3778  -14.4039   20.7815 C   0  0  0  0  0  0  0  0  0  0  0  0
    7.2150  -13.2088   21.2107 C   0  0  2  0  0  0  0  0  0  0  0  0
    8.0643  -12.7990   20.1466 N   0  0  0  0  0  0  0  0  0  0  0  0
    7.8832  -13.5723   22.4664 C   0  0  0  0  0  0  0  0  0  0  0  0
    8.9475  -14.2670   22.3375 O   0  0  0  0  0  0  0  0  0  0  0  0
    7.4609  -13.2285   23.7573 N   0  0  0  0  0  0  0  0  0  0  0  0
    6.3065  -12.4912   24.2086 C   0  0  0  0  0  0  0  0  0  0  0  0
    6.0499  -13.0568   25.5851 C   0  0  0  0  0  0  0  0  0  0  0  0
    7.4898  -12.9976   26.1247 C   0  0  0  0  0  0  0  0  0  0  0  0
    8.2097  -13.5946   24.9720 C   0  0  1  0  0  0  0  0  0  0  0  0
    8.4176  -15.0518   25.0651 C   0  0  0  0  0  0  0  0  0  0  0  0
    7.4570  -15.7761   24.7340 O   0  0  0  0  0  0  0  0  0  0  0  0
   11.7007  -19.4491   24.1096 N   0  0  0  0  0  0  0  0  0  0  0  0
   11.9569  -18.5241   25.1546 C   0  0  0  0  0  0  0  0  0  0  0  0
   12.5900  -18.8927   26.1871 O   0  0  0  0  0  0  0  0  0  0  0  0
   11.4886  -17.1406   25.0402 C   0  0  0  0  0  0  0  0  0  0  0  0
   10.0477  -16.9676   25.5299 C   0  0  2  0  0  0  0  0  0  0  0  0
    9.6138  -15.5858   25.4970 N   0  0  0  0  0  0  0  0  0  0  0  0
    9.9738  -17.5202   26.8724 C   0  0  0  0  0  0  0  0  0  0  0  0
    9.7706  -18.8590   27.1832 O   0  0  0  0  0  0  0  0  0  0  0  0
   10.1021  -16.7375   27.8588 O   0  0  0  0  0  0  0  0  0  0  0  0
  2  1  1  6
  2  4  1  0
  3  2  1  0
  4  5  2  0
  6 10  1  0
  6  4  1  0
  7  6  1  0
  8  9  1  0
  8  7  1  0
  9 10  1  0
 10 11  1  1
 11 12  2  0
 11 18  1  0
 14 13  1  0
 14 16  1  0
 15 14  2  0
 17 16  1  1
 17 19  1  0
 18 17  1  0
 19 20  1  0
 21 19  2  0
M  END
$$$$
