APN.pdb
     RDKit          3D

 21 21  0  0  1  0  0  0  0  0999 V2000
    6.5087  -14.8016   20.8820 C   0  0  0  0  0  0  0  0  0  0  0  0
    7.2905  -13.5755   21.3284 C   0  0  2  0  0  0  0  0  0  0  0  0
    8.1972  -13.1758   20.3088 N   0  0  0  0  0  0  0  0  0  0  0  0
    7.8844  -13.8880   22.6342 C   0  0  0  0  0  0  0  0  0  0  0  0
    8.9497  -14.5920   22.5952 O   0  0  0  0  0  0  0  0  0  0  0  0
    7.3922  -13.4880   23.8833 N   0  0  0  0  0  0  0  0  0  0  0  0
    6.2303  -12.7096   24.2357 C   0  0  0  0  0  0  0  0  0  0  0  0
    5.8764  -13.2185   25.6128 C   0  0  0  0  0  0  0  0  0  0  0  0
    7.2815  -13.1709   26.2383 C   0  0  0  0  0  0  0  0  0  0  0  0
    8.0561  -13.8254   25.1544 C   0  0  1  0  0  0  0  0  0  0  0  0
    8.2229  -15.2823   25.3116 C   0  0  0  0  0  0  0  0  0  0  0  0
    7.3078  -16.0018   24.8622 O   0  0  0  0  0  0  0  0  0  0  0  0
   12.8753  -19.0781   24.9909 N   0  0  0  0  0  0  0  0  0  0  0  0
   11.4897  -18.7726   24.9828 C   0  0  0  0  0  0  0  0  0  0  0  0
   10.6348  -19.7047   24.9288 O   0  0  0  0  0  0  0  0  0  0  0  0
   11.0463  -17.3773   25.0366 C   0  0  0  0  0  0  0  0  0  0  0  0
    9.8145  -17.1881   25.9269 C   0  0  2  0  0  0  0  0  0  0  0  0
    9.3345  -15.8212   25.9252 N   0  0  0  0  0  0  0  0  0  0  0  0
   10.1718  -17.6284   27.2654 C   0  0  0  0  0  0  0  0  0  0  0  0
   10.0785  -18.9319   27.7373 O   0  0  0  0  0  0  0  0  0  0  0  0
   10.6070  -16.7724   28.0899 O   0  0  0  0  0  0  0  0  0  0  0  0
  2  1  1  6
  2  4  1  0
  3  2  1  0
  4  5  2  0
  6 10  1  0
  6  4  1  0
  7  6  1  0
  8  9  1  0
  8  7  1  0
  9 10  1  0
 10 11  1  1
 11 12  2  0
 11 18  1  0
 14 13  1  0
 14 16  1  0
 15 14  2  0
 17 16  1  6
 17 19  1  0
 18 17  1  0
 19 20  1  0
 21 19  2  0
M  END
$$$$
