APN.pdb
     RDKit          3D

 21 21  0  0  1  0  0  0  0  0999 V2000
    7.5388  -16.9738   16.1494 C   0  0  0  0  0  0  0  0  0  0  0  0
    8.5205  -15.8178   16.0332 C   0  0  2  0  0  0  0  0  0  0  0  0
    9.5739  -16.1585   15.1410 N   0  0  0  0  0  0  0  0  0  0  0  0
    8.9229  -15.4481   17.3958 C   0  0  0  0  0  0  0  0  0  0  0  0
    9.8312  -16.1812   17.9149 O   0  0  0  0  0  0  0  0  0  0  0  0
    8.4070  -14.3868   18.1510 N   0  0  0  0  0  0  0  0  0  0  0  0
    7.3448  -13.4537   17.8665 C   0  0  0  0  0  0  0  0  0  0  0  0
    6.8286  -13.0870   19.2376 C   0  0  0  0  0  0  0  0  0  0  0  0
    8.1799  -12.8140   19.9212 C   0  0  0  0  0  0  0  0  0  0  0  0
    8.9275  -14.0176   19.4788 C   0  0  1  0  0  0  0  0  0  0  0  0
    8.8763  -15.1529   20.4188 C   0  0  0  0  0  0  0  0  0  0  0  0
    8.0101  -16.0234   20.1978 O   0  0  0  0  0  0  0  0  0  0  0  0
   13.6364  -17.7861   23.0194 N   0  0  0  0  0  0  0  0  0  0  0  0
   12.3136  -17.8153   22.5070 C   0  0  0  0  0  0  0  0  0  0  0  0
   11.6065  -18.8575   22.6348 O   0  0  0  0  0  0  0  0  0  0  0  0
   11.7640  -16.6386   21.8289 C   0  0  0  0  0  0  0  0  0  0  0  0
   10.2795  -16.4240   22.1390 C   0  0  2  0  0  0  0  0  0  0  0  0
    9.7424  -15.2464   21.4883 N   0  0  0  0  0  0  0  0  0  0  0  0
   10.1424  -16.3466   23.5841 C   0  0  0  0  0  0  0  0  0  0  0  0
    9.7228  -15.2293   24.2955 O   0  0  0  0  0  0  0  0  0  0  0  0
   10.4226  -17.3687   24.2759 O   0  0  0  0  0  0  0  0  0  0  0  0
  2  1  1  1
  2  4  1  0
  3  2  1  0
  4  5  2  0
  6 10  1  0
  6  4  1  0
  7  6  1  0
  8  9  1  0
  8  7  1  0
  9 10  1  0
 10 11  1  1
 11 12  2  0
 11 18  1  0
 14 13  1  0
 14 16  1  0
 15 14  2  0
 17 16  1  1
 17 19  1  0
 18 17  1  0
 19 20  1  0
 21 19  2  0
M  END
$$$$
