APN.pdb
     RDKit          3D

 21 21  0  0  1  0  0  0  0  0999 V2000
    7.7584  -17.2063   16.5178 C   0  0  0  0  0  0  0  0  0  0  0  0
    8.0593  -15.8492   15.9003 C   0  0  2  0  0  0  0  0  0  0  0  0
    8.5729  -16.0135   14.5847 N   0  0  0  0  0  0  0  0  0  0  0  0
    8.9186  -15.1217   16.8424 C   0  0  0  0  0  0  0  0  0  0  0  0
   10.1623  -15.4064   16.7789 O   0  0  0  0  0  0  0  0  0  0  0  0
    8.4976  -14.1678   17.7781 N   0  0  0  0  0  0  0  0  0  0  0  0
    7.1888  -13.6282   18.0536 C   0  0  0  0  0  0  0  0  0  0  0  0
    7.2684  -13.2534   19.5143 C   0  0  0  0  0  0  0  0  0  0  0  0
    8.6175  -12.5139   19.4838 C   0  0  0  0  0  0  0  0  0  0  0  0
    9.4189  -13.4952   18.7104 C   0  0  1  0  0  0  0  0  0  0  0  0
   10.1645  -14.4651   19.5339 C   0  0  0  0  0  0  0  0  0  0  0  0
    9.5908  -15.5449   19.7832 O   0  0  0  0  0  0  0  0  0  0  0  0
   14.2769  -16.6261   21.9233 N   0  0  0  0  0  0  0  0  0  0  0  0
   14.6768  -15.3125   21.5658 C   0  0  0  0  0  0  0  0  0  0  0  0
   15.8611  -14.9263   21.7915 O   0  0  0  0  0  0  0  0  0  0  0  0
   13.7192  -14.4008   20.9348 C   0  0  0  0  0  0  0  0  0  0  0  0
   12.3341  -15.0321   20.7648 C   0  0  2  0  0  0  0  0  0  0  0  0
   11.4317  -14.1913   20.0049 N   0  0  0  0  0  0  0  0  0  0  0  0
   11.8152  -15.3100   22.0940 C   0  0  0  0  0  0  0  0  0  0  0  0
   12.0432  -16.4712   22.8220 O   0  0  0  0  0  0  0  0  0  0  0  0
   11.0923  -14.4376   22.6580 O   0  0  0  0  0  0  0  0  0  0  0  0
  2  1  1  1
  2  4  1  0
  3  2  1  0
  4  5  2  0
  6 10  1  0
  6  4  1  0
  7  6  1  0
  8  9  1  0
  8  7  1  0
  9 10  1  0
 10 11  1  1
 11 12  2  0
 11 18  1  0
 14 13  1  0
 14 16  1  0
 15 14  2  0
 17 16  1  1
 17 19  1  0
 18 17  1  0
 19 20  1  0
 21 19  2  0
M  END
$$$$
