APN.pdb
     RDKit          3D

 21 21  0  0  1  0  0  0  0  0999 V2000
    7.9704  -16.7077   15.8448 C   0  0  0  0  0  0  0  0  0  0  0  0
    8.5786  -15.3276   15.6468 C   0  0  2  0  0  0  0  0  0  0  0  0
    9.3948  -15.3153   14.4827 N   0  0  0  0  0  0  0  0  0  0  0  0
    9.2413  -14.9582   16.9037 C   0  0  0  0  0  0  0  0  0  0  0  0
   10.3927  -15.4800   17.0879 O   0  0  0  0  0  0  0  0  0  0  0  0
    8.7286  -14.1041   17.8888 N   0  0  0  0  0  0  0  0  0  0  0  0
    7.4549  -13.4351   17.9893 C   0  0  0  0  0  0  0  0  0  0  0  0
    7.2531  -13.2952   19.4794 C   0  0  0  0  0  0  0  0  0  0  0  0
    8.6461  -12.7534   19.8452 C   0  0  0  0  0  0  0  0  0  0  0  0
    9.4898  -13.7109   19.0872 C   0  0  1  0  0  0  0  0  0  0  0  0
    9.9327  -14.8858   19.8608 C   0  0  0  0  0  0  0  0  0  0  0  0
    9.2401  -15.9185   19.7553 O   0  0  0  0  0  0  0  0  0  0  0  0
   14.4514  -17.9138   21.4179 N   0  0  0  0  0  0  0  0  0  0  0  0
   13.9526  -16.7806   22.1110 C   0  0  0  0  0  0  0  0  0  0  0  0
   14.1039  -16.6861   23.3643 O   0  0  0  0  0  0  0  0  0  0  0  0
   13.2614  -15.7178   21.3767 C   0  0  0  0  0  0  0  0  0  0  0  0
   11.7440  -15.9228   21.3399 C   0  0  2  0  0  0  0  0  0  0  0  0
   11.0557  -14.8441   20.6607 N   0  0  0  0  0  0  0  0  0  0  0  0
   11.2898  -16.0667   22.7133 C   0  0  0  0  0  0  0  0  0  0  0  0
   11.3338  -17.2386   23.4585 O   0  0  0  0  0  0  0  0  0  0  0  0
   10.8095  -15.0550   23.3029 O   0  0  0  0  0  0  0  0  0  0  0  0
  2  1  1  1
  2  4  1  0
  3  2  1  0
  4  5  2  0
  6 10  1  0
  6  4  1  0
  7  6  1  0
  8  9  1  0
  8  7  1  0
  9 10  1  0
 10 11  1  1
 11 12  2  0
 11 18  1  0
 14 13  1  0
 14 16  1  0
 15 14  2  0
 17 16  1  1
 17 19  1  0
 18 17  1  0
 19 20  1  0
 21 19  2  0
M  END
$$$$
