APN.pdb
     RDKit          3D

 21 21  0  0  1  0  0  0  0  0999 V2000
    8.5118  -18.8127   20.9034 C   0  0  0  0  0  0  0  0  0  0  0  0
    8.9300  -17.4343   20.4146 C   0  0  2  0  0  0  0  0  0  0  0  0
    9.9477  -17.5529   19.4288 N   0  0  0  0  0  0  0  0  0  0  0  0
    9.2685  -16.6353   21.5988 C   0  0  0  0  0  0  0  0  0  0  0  0
   10.3664  -16.9472   22.1726 O   0  0  0  0  0  0  0  0  0  0  0  0
    8.5074  -15.5883   22.1349 N   0  0  0  0  0  0  0  0  0  0  0  0
    7.2609  -15.0077   21.7000 C   0  0  0  0  0  0  0  0  0  0  0  0
    6.6526  -14.4915   22.9823 C   0  0  0  0  0  0  0  0  0  0  0  0
    7.8921  -13.7756   23.5471 C   0  0  0  0  0  0  0  0  0  0  0  0
    8.9070  -14.8385   23.3384 C   0  0  1  0  0  0  0  0  0  0  0  0
    9.1084  -15.7317   24.4946 C   0  0  0  0  0  0  0  0  0  0  0  0
    8.2284  -16.5932   24.6958 O   0  0  0  0  0  0  0  0  0  0  0  0
   10.3446  -13.7965   29.3627 N   0  0  0  0  0  0  0  0  0  0  0  0
    9.7326  -13.8387   28.0833 C   0  0  0  0  0  0  0  0  0  0  0  0
    9.5977  -12.7757   27.4091 O   0  0  0  0  0  0  0  0  0  0  0  0
    9.2555  -15.1131   27.5405 C   0  0  0  0  0  0  0  0  0  0  0  0
   10.3330  -15.8479   26.7375 C   0  0  2  0  0  0  0  0  0  0  0  0
   10.2138  -15.6191   25.3119 N   0  0  0  0  0  0  0  0  0  0  0  0
   10.2323  -17.2610   27.0632 C   0  0  0  0  0  0  0  0  0  0  0  0
    9.1000  -18.0485   26.8952 O   0  0  0  0  0  0  0  0  0  0  0  0
   11.2469  -17.8474   27.5414 O   0  0  0  0  0  0  0  0  0  0  0  0
  2  1  1  1
  2  4  1  0
  3  2  1  0
  4  5  2  0
  6 10  1  0
  6  4  1  0
  7  6  1  0
  8  9  1  0
  8  7  1  0
  9 10  1  0
 10 11  1  1
 11 12  2  0
 11 18  1  0
 14 13  1  0
 14 16  1  0
 15 14  2  0
 17 16  1  1
 17 19  1  0
 18 17  1  0
 19 20  1  0
 21 19  2  0
M  END
$$$$
