APN.pdb
     RDKit          3D

 21 21  0  0  1  0  0  0  0  0999 V2000
    6.7076  -14.9938   20.4620 C   0  0  0  0  0  0  0  0  0  0  0  0
    7.6120  -13.8325   20.8458 C   0  0  2  0  0  0  0  0  0  0  0  0
    8.4709  -13.5026   19.7618 N   0  0  0  0  0  0  0  0  0  0  0  0
    8.2727  -14.1919   22.1066 C   0  0  0  0  0  0  0  0  0  0  0  0
    9.3782  -14.8202   21.9841 O   0  0  0  0  0  0  0  0  0  0  0  0
    7.8031  -13.9093   23.3959 N   0  0  0  0  0  0  0  0  0  0  0  0
    6.5973  -13.2543   23.8396 C   0  0  0  0  0  0  0  0  0  0  0  0
    6.3455  -13.8717   25.1946 C   0  0  0  0  0  0  0  0  0  0  0  0
    7.7673  -13.7423   25.7686 C   0  0  0  0  0  0  0  0  0  0  0  0
    8.5461  -14.2638   24.6176 C   0  0  1  0  0  0  0  0  0  0  0  0
    8.8387  -15.7080   24.6773 C   0  0  0  0  0  0  0  0  0  0  0  0
    7.8567  -16.4779   24.6825 O   0  0  0  0  0  0  0  0  0  0  0  0
   13.2529  -19.0713   24.0738 N   0  0  0  0  0  0  0  0  0  0  0  0
   12.9319  -17.7164   24.3463 C   0  0  0  0  0  0  0  0  0  0  0  0
   13.3211  -16.8020   23.5622 O   0  0  0  0  0  0  0  0  0  0  0  0
   12.1492  -17.3735   25.5365 C   0  0  0  0  0  0  0  0  0  0  0  0
   10.6402  -17.4217   25.2789 C   0  0  2  0  0  0  0  0  0  0  0  0
   10.1330  -16.1827   24.7254 N   0  0  0  0  0  0  0  0  0  0  0  0
    9.9929  -17.7499   26.5385 C   0  0  0  0  0  0  0  0  0  0  0  0
    9.8268  -16.8812   27.6101 O   0  0  0  0  0  0  0  0  0  0  0  0
    9.5334  -18.9183   26.6984 O   0  0  0  0  0  0  0  0  0  0  0  0
  2  1  1  6
  2  4  1  0
  3  2  1  0
  4  5  2  0
  6 10  1  0
  6  4  1  0
  7  6  1  0
  8  9  1  0
  8  7  1  0
  9 10  1  0
 10 11  1  1
 11 12  2  0
 11 18  1  0
 14 13  1  0
 14 16  1  0
 15 14  2  0
 17 16  1  1
 17 19  1  0
 18 17  1  0
 19 20  1  0
 21 19  2  0
M  END
$$$$
