APN.pdb
     RDKit          3D

 21 21  0  0  1  0  0  0  0  0999 V2000
    8.2856  -16.7044   16.2285 C   0  0  0  0  0  0  0  0  0  0  0  0
    9.0074  -15.3779   16.0469 C   0  0  2  0  0  0  0  0  0  0  0  0
    9.9759  -15.4858   15.0115 N   0  0  0  0  0  0  0  0  0  0  0  0
    9.5131  -14.9721   17.3640 C   0  0  0  0  0  0  0  0  0  0  0  0
   10.6131  -15.5167   17.7182 O   0  0  0  0  0  0  0  0  0  0  0  0
    8.9052  -14.0621   18.2386 N   0  0  0  0  0  0  0  0  0  0  0  0
    7.6721  -13.3228   18.1254 C   0  0  0  0  0  0  0  0  0  0  0  0
    7.2518  -13.1269   19.5627 C   0  0  0  0  0  0  0  0  0  0  0  0
    8.6009  -12.6498   20.1286 C   0  0  0  0  0  0  0  0  0  0  0  0
    9.4944  -13.6740   19.5319 C   0  0  1  0  0  0  0  0  0  0  0  0
    9.7443  -14.8469   20.3903 C   0  0  0  0  0  0  0  0  0  0  0  0
    8.9820  -15.8232   20.2392 O   0  0  0  0  0  0  0  0  0  0  0  0
   13.9201  -17.3202   20.9729 N   0  0  0  0  0  0  0  0  0  0  0  0
   13.5346  -16.0176   21.3826 C   0  0  0  0  0  0  0  0  0  0  0  0
   13.9320  -15.0051   20.7350 O   0  0  0  0  0  0  0  0  0  0  0  0
   12.6757  -15.8426   22.5566 C   0  0  0  0  0  0  0  0  0  0  0  0
   11.1860  -15.9219   22.2095 C   0  0  2  0  0  0  0  0  0  0  0  0
   10.7689  -14.8626   21.3137 N   0  0  0  0  0  0  0  0  0  0  0  0
   10.4445  -15.8891   23.4594 C   0  0  0  0  0  0  0  0  0  0  0  0
   10.3598  -16.9313   24.3743 O   0  0  0  0  0  0  0  0  0  0  0  0
    9.8143  -14.8345   23.7637 O   0  0  0  0  0  0  0  0  0  0  0  0
  2  1  1  1
  2  4  1  0
  3  2  1  0
  4  5  2  0
  6 10  1  0
  6  4  1  0
  7  6  1  0
  8  9  1  0
  8  7  1  0
  9 10  1  0
 10 11  1  1
 11 12  2  0
 11 18  1  0
 14 13  1  0
 14 16  1  0
 15 14  2  0
 17 16  1  1
 17 19  1  0
 18 17  1  0
 19 20  1  0
 21 19  2  0
M  END
$$$$
