APN.pdb
     RDKit          3D

 21 21  0  0  1  0  0  0  0  0999 V2000
    6.6741  -15.8517   22.5428 C   0  0  0  0  0  0  0  0  0  0  0  0
    7.3406  -14.4890   22.4310 C   0  0  2  0  0  0  0  0  0  0  0  0
    8.1378  -14.4295   21.2552 N   0  0  0  0  0  0  0  0  0  0  0  0
    8.0393  -14.2394   23.6978 C   0  0  0  0  0  0  0  0  0  0  0  0
    9.2136  -14.7357   23.7809 O   0  0  0  0  0  0  0  0  0  0  0  0
    7.5376  -13.5215   24.7913 N   0  0  0  0  0  0  0  0  0  0  0  0
    6.2849  -12.8304   24.9730 C   0  0  0  0  0  0  0  0  0  0  0  0
    6.0617  -12.9033   26.4648 C   0  0  0  0  0  0  0  0  0  0  0  0
    7.4650  -12.4700   26.9238 C   0  0  0  0  0  0  0  0  0  0  0  0
    8.2901  -13.3350   26.0439 C   0  0  1  0  0  0  0  0  0  0  0  0
    8.6807  -14.6253   26.6418 C   0  0  0  0  0  0  0  0  0  0  0  0
    7.8181  -15.5270   26.6392 O   0  0  0  0  0  0  0  0  0  0  0  0
   12.9502  -14.8519   25.6296 N   0  0  0  0  0  0  0  0  0  0  0  0
   12.2054  -15.9937   26.0230 C   0  0  0  0  0  0  0  0  0  0  0  0
   11.7624  -16.7946   25.1483 O   0  0  0  0  0  0  0  0  0  0  0  0
   11.9476  -16.2474   27.4427 C   0  0  0  0  0  0  0  0  0  0  0  0
   10.4862  -15.9967   27.8266 C   0  0  2  0  0  0  0  0  0  0  0  0
    9.9363  -14.8242   27.1772 N   0  0  0  0  0  0  0  0  0  0  0  0
   10.4288  -15.8830   29.2746 C   0  0  0  0  0  0  0  0  0  0  0  0
   10.6648  -16.9151   30.1744 O   0  0  0  0  0  0  0  0  0  0  0  0
   10.1418  -14.7607   29.7845 O   0  0  0  0  0  0  0  0  0  0  0  0
  2  1  1  1
  2  4  1  0
  3  2  1  0
  4  5  2  0
  6 10  1  0
  6  4  1  0
  7  6  1  0
  8  9  1  0
  8  7  1  0
  9 10  1  0
 10 11  1  1
 11 12  2  0
 11 18  1  0
 14 13  1  0
 14 16  1  0
 15 14  2  0
 17 16  1  1
 17 19  1  0
 18 17  1  0
 19 20  1  0
 21 19  2  0
M  END
$$$$
