APN.pdb
     RDKit          3D

 21 21  0  0  1  0  0  0  0  0999 V2000
    6.1900  -14.9409   22.1052 C   0  0  0  0  0  0  0  0  0  0  0  0
    7.1741  -13.7878   22.2296 C   0  0  2  0  0  0  0  0  0  0  0  0
    7.9795  -13.7040   21.0608 N   0  0  0  0  0  0  0  0  0  0  0  0
    7.8930  -13.9623   23.4977 C   0  0  0  0  0  0  0  0  0  0  0  0
    8.9483  -14.6793   23.4330 O   0  0  0  0  0  0  0  0  0  0  0  0
    7.5266  -13.4214   24.7370 N   0  0  0  0  0  0  0  0  0  0  0  0
    6.4041  -12.5979   25.1136 C   0  0  0  0  0  0  0  0  0  0  0  0
    6.1896  -12.9475   26.5671 C   0  0  0  0  0  0  0  0  0  0  0  0
    7.6498  -12.8437   27.0413 C   0  0  0  0  0  0  0  0  0  0  0  0
    8.3141  -13.6217   25.9658 C   0  0  1  0  0  0  0  0  0  0  0  0
    8.4983  -15.0536   26.2672 C   0  0  0  0  0  0  0  0  0  0  0  0
    7.4767  -15.7691   26.2297 O   0  0  0  0  0  0  0  0  0  0  0  0
   10.7205  -17.8244   24.1056 N   0  0  0  0  0  0  0  0  0  0  0  0
   11.5960  -17.1431   24.9903 C   0  0  0  0  0  0  0  0  0  0  0  0
   12.4840  -16.3665   24.5311 O   0  0  0  0  0  0  0  0  0  0  0  0
   11.4736  -17.3378   26.4372 C   0  0  0  0  0  0  0  0  0  0  0  0
   10.0996  -16.9206   26.9701 C   0  0  2  0  0  0  0  0  0  0  0  0
    9.7379  -15.5745   26.5753 N   0  0  0  0  0  0  0  0  0  0  0  0
   10.1306  -17.0642   28.4164 C   0  0  0  0  0  0  0  0  0  0  0  0
   10.1077  -18.2693   29.1076 O   0  0  0  0  0  0  0  0  0  0  0  0
   10.1828  -16.0196   29.1291 O   0  0  0  0  0  0  0  0  0  0  0  0
  2  1  1  6
  2  4  1  0
  3  2  1  0
  4  5  2  0
  6 10  1  0
  6  4  1  0
  7  6  1  0
  8  9  1  0
  8  7  1  0
  9 10  1  0
 10 11  1  1
 11 12  2  0
 11 18  1  0
 14 13  1  0
 14 16  1  0
 15 14  2  0
 17 16  1  1
 17 19  1  0
 18 17  1  0
 19 20  1  0
 21 19  2  0
M  END
$$$$
