APN.pdb
     RDKit          3D

 21 21  0  0  1  0  0  0  0  0999 V2000
    7.8634  -16.7075   15.7283 C   0  0  0  0  0  0  0  0  0  0  0  0
    8.3716  -15.2986   15.4632 C   0  0  2  0  0  0  0  0  0  0  0  0
    9.0608  -15.2530   14.2204 N   0  0  0  0  0  0  0  0  0  0  0  0
    9.1399  -14.8824   16.6430 C   0  0  0  0  0  0  0  0  0  0  0  0
   10.3218  -15.3608   16.7217 O   0  0  0  0  0  0  0  0  0  0  0  0
    8.6952  -14.0274   17.6598 N   0  0  0  0  0  0  0  0  0  0  0  0
    7.4066  -13.4211   17.8880 C   0  0  0  0  0  0  0  0  0  0  0  0
    7.3650  -13.2488   19.3877 C   0  0  0  0  0  0  0  0  0  0  0  0
    8.7591  -12.6269   19.5816 C   0  0  0  0  0  0  0  0  0  0  0  0
    9.5631  -13.5619   18.7554 C   0  0  1  0  0  0  0  0  0  0  0  0
   10.1517  -14.6902   19.5007 C   0  0  0  0  0  0  0  0  0  0  0  0
    9.4692  -15.7327   19.5683 O   0  0  0  0  0  0  0  0  0  0  0  0
   14.6372  -16.0997   18.7656 N   0  0  0  0  0  0  0  0  0  0  0  0
   14.2764  -15.0020   19.5891 C   0  0  0  0  0  0  0  0  0  0  0  0
   14.4952  -13.8175   19.1994 O   0  0  0  0  0  0  0  0  0  0  0  0
   13.6502  -15.2379   20.8924 C   0  0  0  0  0  0  0  0  0  0  0  0
   12.1704  -15.6142   20.7715 C   0  0  2  0  0  0  0  0  0  0  0  0
   11.3938  -14.5965   20.0933 N   0  0  0  0  0  0  0  0  0  0  0  0
   11.6720  -15.8615   22.1145 C   0  0  0  0  0  0  0  0  0  0  0  0
   12.0193  -16.9411   22.9173 O   0  0  0  0  0  0  0  0  0  0  0  0
   10.8517  -15.0399   22.6184 O   0  0  0  0  0  0  0  0  0  0  0  0
  2  1  1  1
  2  4  1  0
  3  2  1  0
  4  5  2  0
  6 10  1  0
  6  4  1  0
  7  6  1  0
  8  9  1  0
  8  7  1  0
  9 10  1  0
 10 11  1  1
 11 12  2  0
 11 18  1  0
 14 13  1  0
 14 16  1  0
 15 14  2  0
 17 16  1  1
 17 19  1  0
 18 17  1  0
 19 20  1  0
 21 19  2  0
M  END
$$$$
