APN.pdb
     RDKit          3D

 21 21  0  0  1  0  0  0  0  0999 V2000
    6.7425  -17.5068   17.9617 C   0  0  0  0  0  0  0  0  0  0  0  0
    7.8048  -16.5245   17.4923 C   0  0  2  0  0  0  0  0  0  0  0  0
    8.6347  -17.1334   16.5115 N   0  0  0  0  0  0  0  0  0  0  0  0
    8.4866  -16.0144   18.6882 C   0  0  0  0  0  0  0  0  0  0  0  0
    9.4287  -16.7518   19.1361 O   0  0  0  0  0  0  0  0  0  0  0  0
    8.1967  -14.8188   19.3585 N   0  0  0  0  0  0  0  0  0  0  0  0
    7.1882  -13.8178   19.1114 C   0  0  0  0  0  0  0  0  0  0  0  0
    6.9382  -13.2318   20.4806 C   0  0  0  0  0  0  0  0  0  0  0  0
    8.4020  -13.0253   20.9077 C   0  0  0  0  0  0  0  0  0  0  0  0
    8.9584  -14.3481   20.5283 C   0  0  1  0  0  0  0  0  0  0  0  0
    8.9627  -15.3471   21.6132 C   0  0  0  0  0  0  0  0  0  0  0  0
    7.8548  -15.8128   21.9492 O   0  0  0  0  0  0  0  0  0  0  0  0
   13.2954  -16.8561   21.3104 N   0  0  0  0  0  0  0  0  0  0  0  0
   12.7591  -16.8372   22.6239 C   0  0  0  0  0  0  0  0  0  0  0  0
   13.3066  -16.1336   23.5228 O   0  0  0  0  0  0  0  0  0  0  0  0
   11.5705  -17.6325   22.9420 C   0  0  0  0  0  0  0  0  0  0  0  0
   10.3448  -16.7622   23.2353 C   0  0  2  0  0  0  0  0  0  0  0  0
   10.1329  -15.7455   22.2253 N   0  0  0  0  0  0  0  0  0  0  0  0
   10.5304  -16.1772   24.5531 C   0  0  0  0  0  0  0  0  0  0  0  0
   10.5872  -14.8170   24.8308 O   0  0  0  0  0  0  0  0  0  0  0  0
   10.6532  -16.9496   25.5482 O   0  0  0  0  0  0  0  0  0  0  0  0
  2  1  1  1
  2  4  1  0
  3  2  1  0
  4  5  2  0
  6 10  1  0
  6  4  1  0
  7  6  1  0
  8  9  1  0
  8  7  1  0
  9 10  1  0
 10 11  1  1
 11 12  2  0
 11 18  1  0
 14 13  1  0
 14 16  1  0
 15 14  2  0
 17 16  1  6
 17 19  1  0
 18 17  1  0
 19 20  1  0
 21 19  2  0
M  END
$$$$
