APN.pdb
     RDKit          3D

 21 21  0  0  1  0  0  0  0  0999 V2000
    6.3742  -14.6462   20.8411 C   0  0  0  0  0  0  0  0  0  0  0  0
    7.3537  -13.5233   21.1463 C   0  0  2  0  0  0  0  0  0  0  0  0
    8.2138  -13.3089   20.0346 N   0  0  0  0  0  0  0  0  0  0  0  0
    8.0112  -13.8509   22.4174 C   0  0  0  0  0  0  0  0  0  0  0  0
    9.0577  -14.5770   22.3197 O   0  0  0  0  0  0  0  0  0  0  0  0
    7.5964  -13.4433   23.6919 N   0  0  0  0  0  0  0  0  0  0  0  0
    6.4866  -12.6205   24.1060 C   0  0  0  0  0  0  0  0  0  0  0  0
    6.1774  -13.1281   25.4943 C   0  0  0  0  0  0  0  0  0  0  0  0
    7.6114  -13.1458   26.0520 C   0  0  0  0  0  0  0  0  0  0  0  0
    8.3051  -13.8211   24.9269 C   0  0  1  0  0  0  0  0  0  0  0  0
    8.4174  -15.2853   25.0641 C   0  0  0  0  0  0  0  0  0  0  0  0
    7.4227  -15.9569   24.7228 O   0  0  0  0  0  0  0  0  0  0  0  0
   12.0824  -16.3888   23.1904 N   0  0  0  0  0  0  0  0  0  0  0  0
   11.1847  -17.3823   23.6598 C   0  0  0  0  0  0  0  0  0  0  0  0
   10.4110  -17.9721   22.8497 O   0  0  0  0  0  0  0  0  0  0  0  0
   11.1517  -17.7269   25.0833 C   0  0  0  0  0  0  0  0  0  0  0  0
    9.8528  -17.2840   25.7633 C   0  0  2  0  0  0  0  0  0  0  0  0
    9.5644  -15.8810   25.5460 N   0  0  0  0  0  0  0  0  0  0  0  0
    9.9739  -17.5926   27.1786 C   0  0  0  0  0  0  0  0  0  0  0  0
   10.0185  -18.8696   27.7244 O   0  0  0  0  0  0  0  0  0  0  0  0
   10.0465  -16.6362   28.0044 O   0  0  0  0  0  0  0  0  0  0  0  0
  2  1  1  6
  2  4  1  0
  3  2  1  0
  4  5  2  0
  6 10  1  0
  6  4  1  0
  7  6  1  0
  8  9  1  0
  8  7  1  0
  9 10  1  0
 10 11  1  1
 11 12  2  0
 11 18  1  0
 14 13  1  0
 14 16  1  0
 15 14  2  0
 17 16  1  6
 17 19  1  0
 18 17  1  0
 19 20  1  0
 21 19  2  0
M  END
$$$$
