APN.pdb
     RDKit          3D

 21 21  0  0  1  0  0  0  0  0999 V2000
    6.3553  -15.8095   22.4418 C   0  0  0  0  0  0  0  0  0  0  0  0
    7.1066  -14.4976   22.2738 C   0  0  2  0  0  0  0  0  0  0  0  0
    7.9556  -14.5626   21.1352 N   0  0  0  0  0  0  0  0  0  0  0  0
    7.7640  -14.2040   23.5533 C   0  0  0  0  0  0  0  0  0  0  0  0
    8.8608  -14.8257   23.7590 O   0  0  0  0  0  0  0  0  0  0  0  0
    7.2997  -13.3224   24.5382 N   0  0  0  0  0  0  0  0  0  0  0  0
    6.1160  -12.5001   24.5879 C   0  0  0  0  0  0  0  0  0  0  0  0
    5.8377  -12.3818   26.0675 C   0  0  0  0  0  0  0  0  0  0  0  0
    7.2610  -12.0333   26.5370 C   0  0  0  0  0  0  0  0  0  0  0  0
    8.0254  -13.0666   25.7945 C   0  0  1  0  0  0  0  0  0  0  0  0
    8.2670  -14.3117   26.5471 C   0  0  0  0  0  0  0  0  0  0  0  0
    7.3452  -15.1528   26.5475 O   0  0  0  0  0  0  0  0  0  0  0  0
   11.0283  -18.7472   27.6996 N   0  0  0  0  0  0  0  0  0  0  0  0
   11.6828  -17.5031   27.8922 C   0  0  0  0  0  0  0  0  0  0  0  0
   12.6943  -17.4289   28.6498 O   0  0  0  0  0  0  0  0  0  0  0  0
   11.1885  -16.3020   27.2143 C   0  0  0  0  0  0  0  0  0  0  0  0
    9.9284  -15.7339   27.8740 C   0  0  2  0  0  0  0  0  0  0  0  0
    9.4522  -14.5339   27.2168 N   0  0  0  0  0  0  0  0  0  0  0  0
   10.2401  -15.4904   29.2728 C   0  0  0  0  0  0  0  0  0  0  0  0
   10.3721  -16.4678   30.2515 O   0  0  0  0  0  0  0  0  0  0  0  0
   10.4104  -14.2968   29.6578 O   0  0  0  0  0  0  0  0  0  0  0  0
  2  1  1  1
  2  4  1  0
  3  2  1  0
  4  5  2  0
  6 10  1  0
  6  4  1  0
  7  6  1  0
  8  9  1  0
  8  7  1  0
  9 10  1  0
 10 11  1  1
 11 12  2  0
 11 18  1  0
 14 13  1  0
 14 16  1  0
 15 14  2  0
 17 16  1  6
 17 19  1  0
 18 17  1  0
 19 20  1  0
 21 19  2  0
M  END
$$$$
