APN.pdb
     RDKit          3D

 21 21  0  0  1  0  0  0  0  0999 V2000
    6.5584  -15.5661   22.1285 C   0  0  0  0  0  0  0  0  0  0  0  0
    7.5324  -14.3979   22.1497 C   0  0  2  0  0  0  0  0  0  0  0  0
    8.4714  -14.5249   21.0896 N   0  0  0  0  0  0  0  0  0  0  0  0
    8.0940  -14.3222   23.5040 C   0  0  0  0  0  0  0  0  0  0  0  0
    9.1108  -15.0660   23.7159 O   0  0  0  0  0  0  0  0  0  0  0  0
    7.6195  -13.5232   24.5524 N   0  0  0  0  0  0  0  0  0  0  0  0
    6.5657  -12.5393   24.5878 C   0  0  0  0  0  0  0  0  0  0  0  0
    6.0972  -12.5842   26.0228 C   0  0  0  0  0  0  0  0  0  0  0  0
    7.4729  -12.5331   26.7103 C   0  0  0  0  0  0  0  0  0  0  0  0
    8.1859  -13.5613   25.9118 C   0  0  1  0  0  0  0  0  0  0  0  0
    8.1431  -14.9209   26.4817 C   0  0  0  0  0  0  0  0  0  0  0  0
    7.5596  -15.7926   25.8058 O   0  0  0  0  0  0  0  0  0  0  0  0
   10.6093  -17.9493   26.1943 N   0  0  0  0  0  0  0  0  0  0  0  0
   11.3422  -16.7380   26.0996 C   0  0  0  0  0  0  0  0  0  0  0  0
   12.2358  -16.6048   25.2129 O   0  0  0  0  0  0  0  0  0  0  0  0
   11.0657  -15.6393   27.0285 C   0  0  0  0  0  0  0  0  0  0  0  0
    9.9226  -15.9633   27.9951 C   0  0  2  0  0  0  0  0  0  0  0  0
    8.7189  -15.2129   27.7006 N   0  0  0  0  0  0  0  0  0  0  0  0
   10.4021  -15.6992   29.3418 C   0  0  0  0  0  0  0  0  0  0  0  0
   10.6788  -14.4431   29.8674 O   0  0  0  0  0  0  0  0  0  0  0  0
   10.5918  -16.6781   30.1214 O   0  0  0  0  0  0  0  0  0  0  0  0
  2  1  1  1
  2  4  1  0
  3  2  1  0
  4  5  2  0
  6 10  1  0
  6  4  1  0
  7  6  1  0
  8  9  1  0
  8  7  1  0
  9 10  1  0
 10 11  1  1
 11 12  2  0
 11 18  1  0
 14 13  1  0
 14 16  1  0
 15 14  2  0
 17 16  1  6
 17 19  1  0
 18 17  1  0
 19 20  1  0
 21 19  2  0
M  END
$$$$
