APN.pdb
     RDKit          3D

 21 21  0  0  1  0  0  0  0  0999 V2000
    7.5503  -15.1642   18.8240 C   0  0  0  0  0  0  0  0  0  0  0  0
    8.2049  -13.8679   19.2766 C   0  0  2  0  0  0  0  0  0  0  0  0
    9.0322  -13.3507   18.2424 N   0  0  0  0  0  0  0  0  0  0  0  0
    8.8672  -14.1377   20.5588 C   0  0  0  0  0  0  0  0  0  0  0  0
   10.0519  -14.6078   20.4733 O   0  0  0  0  0  0  0  0  0  0  0  0
    8.3213  -13.9271   21.8317 N   0  0  0  0  0  0  0  0  0  0  0  0
    7.0175  -13.4607   22.2351 C   0  0  0  0  0  0  0  0  0  0  0  0
    6.8206  -14.1067   23.5859 C   0  0  0  0  0  0  0  0  0  0  0  0
    8.1885  -13.7633   24.2012 C   0  0  0  0  0  0  0  0  0  0  0  0
    9.0717  -14.1632   23.0772 C   0  0  1  0  0  0  0  0  0  0  0  0
    9.5768  -15.5467   23.1547 C   0  0  0  0  0  0  0  0  0  0  0  0
    8.8379  -16.4387   22.6905 O   0  0  0  0  0  0  0  0  0  0  0  0
   14.2643  -15.0938   23.0170 N   0  0  0  0  0  0  0  0  0  0  0  0
   13.4622  -16.2392   22.7764 C   0  0  0  0  0  0  0  0  0  0  0  0
   13.1743  -16.5744   21.5901 O   0  0  0  0  0  0  0  0  0  0  0  0
   12.9655  -17.0359   23.9012 C   0  0  0  0  0  0  0  0  0  0  0  0
   11.4367  -17.1244   23.9263 C   0  0  2  0  0  0  0  0  0  0  0  0
   10.8039  -15.8388   23.7128 N   0  0  0  0  0  0  0  0  0  0  0  0
   11.0541  -17.7038   25.2035 C   0  0  0  0  0  0  0  0  0  0  0  0
   10.7792  -16.9894   26.3630 O   0  0  0  0  0  0  0  0  0  0  0  0
   10.9562  -18.9624   25.2939 O   0  0  0  0  0  0  0  0  0  0  0  0
  2  1  1  6
  2  4  1  0
  3  2  1  0
  4  5  2  0
  6 10  1  0
  6  4  1  0
  7  6  1  0
  8  9  1  0
  8  7  1  0
  9 10  1  0
 10 11  1  1
 11 12  2  0
 11 18  1  0
 14 13  1  0
 14 16  1  0
 15 14  2  0
 17 16  1  1
 17 19  1  0
 18 17  1  0
 19 20  1  0
 21 19  2  0
M  END
$$$$
