HLM.pdb
     RDKit          3D

 27 27  0  0  1  0  0  0  0  0999 V2000
   21.3521  -11.7900  -19.7200 N   0  0  0  0  0  0  0  0  0  0  0  0
   22.4879  -10.8386  -19.9174 C   0  0  1  0  0  0  0  0  0  0  0  0
   22.0668   -9.9684  -21.0485 C   0  0  0  0  0  0  0  0  0  0  0  0
   22.0516  -10.5650  -22.3825 C   0  0  0  0  0  0  0  0  0  0  0  0
   23.0138  -10.7143  -23.3412 C   0  0  0  0  0  0  0  0  0  0  0  0
   22.4613  -11.4071  -24.3824 N   0  0  0  0  0  0  0  0  0  0  0  0
   21.2052  -11.6694  -24.0629 C   0  0  0  0  0  0  0  0  0  0  0  0
   20.9321  -11.1771  -22.8700 N   0  0  0  0  0  0  0  0  0  0  0  0
   22.5086   -9.9692  -18.6756 C   0  0  0  0  0  0  0  0  0  0  0  0
   21.4657   -9.7383  -18.0768 O   0  0  0  0  0  0  0  0  0  0  0  0
   24.1407  -10.5029  -14.7645 C   0  0  0  0  0  0  0  0  0  0  0  0
   25.2562  -10.2409  -15.7950 C   0  0  2  0  0  0  0  0  0  0  0  0
   26.5355  -10.5319  -15.0941 C   0  0  0  0  0  0  0  0  0  0  0  0
   25.0665   -8.8488  -16.2822 C   0  0  0  0  0  0  0  0  0  0  0  0
   23.8255   -8.5558  -17.0307 C   0  0  2  0  0  0  0  0  0  0  0  0
   23.7400   -9.4167  -18.1991 N   0  0  0  0  0  0  0  0  0  0  0  0
   23.5212   -7.1647  -17.3336 C   0  0  0  0  0  0  0  0  0  0  0  0
   24.1126   -6.6107  -18.2931 O   0  0  0  0  0  0  0  0  0  0  0  0
   18.8276   -2.6375  -20.6395 C   0  0  0  0  0  0  0  0  0  0  0  0
   19.5696   -4.1035  -19.9934 S   0  0  0  0  0  0  0  0  0  0  0  0
   20.6811   -3.8618  -18.6281 C   0  0  0  0  0  0  0  0  0  0  0  0
   21.3012   -5.1163  -18.1577 C   0  0  0  0  0  0  0  0  0  0  0  0
   22.2191   -5.0243  -16.9801 C   0  0  2  0  0  0  0  0  0  0  0  0
   22.5848   -6.4041  -16.5942 N   0  0  0  0  0  0  0  0  0  0  0  0
   21.5123   -4.4179  -15.8481 C   0  0  0  0  0  0  0  0  0  0  0  0
   21.3532   -3.0440  -15.7991 O   0  0  0  0  0  0  0  0  0  0  0  0
   21.0463   -5.0852  -14.9242 O   0  0  0  0  0  0  0  0  0  0  0  0
  2  3  1  0
  2  1  1  1
  4  3  1  0
  5  4  2  0
  6  5  1  0
  6  7  1  0
  7  8  2  0
  8  4  1  0
  9 16  1  0
  9  2  1  0
 10  9  2  0
 12 11  1  1
 12 13  1  0
 14 12  1  0
 15 14  1  6
 15 16  1  0
 17 15  1  0
 18 17  2  0
 19 20  1  0
 20 21  1  0
 22 21  1  0
 23 22  1  6
 23 25  1  0
 23 24  1  0
 24 17  1  0
 25 26  1  0
 27 25  2  0
M  END
$$$$
