HLM.pdb
     RDKit          3D

 27 27  0  0  1  0  0  0  0  0999 V2000
   16.5548  -11.6769  -15.9981 N   0  0  0  0  0  0  0  0  0  0  0  0
   17.5635  -11.0803  -16.9259 C   0  0  1  0  0  0  0  0  0  0  0  0
   16.8432   -9.9766  -17.6166 C   0  0  0  0  0  0  0  0  0  0  0  0
   15.8316  -10.3511  -18.6024 C   0  0  0  0  0  0  0  0  0  0  0  0
   15.5879  -11.5096  -19.2850 C   0  0  0  0  0  0  0  0  0  0  0  0
   14.4646  -11.3199  -20.0409 N   0  0  0  0  0  0  0  0  0  0  0  0
   14.0417  -10.0863  -19.8215 C   0  0  0  0  0  0  0  0  0  0  0  0
   14.8413   -9.4825  -18.9636 N   0  0  0  0  0  0  0  0  0  0  0  0
   18.6051  -10.4365  -16.0321 C   0  0  0  0  0  0  0  0  0  0  0  0
   18.2821  -10.0096  -14.9307 O   0  0  0  0  0  0  0  0  0  0  0  0
   24.6036  -10.9638  -15.3718 C   0  0  0  0  0  0  0  0  0  0  0  0
   23.4316  -10.0355  -14.9982 C   0  0  2  0  0  0  0  0  0  0  0  0
   23.3206  -10.0949  -13.5161 C   0  0  0  0  0  0  0  0  0  0  0  0
   22.2528  -10.5063  -15.7728 C   0  0  0  0  0  0  0  0  0  0  0  0
   21.0092   -9.7142  -15.6629 C   0  0  2  0  0  0  0  0  0  0  0  0
   19.9638  -10.3244  -16.4681 N   0  0  0  0  0  0  0  0  0  0  0  0
   21.0963   -8.2734  -15.8526 C   0  0  0  0  0  0  0  0  0  0  0  0
   21.2780   -7.8252  -17.0116 O   0  0  0  0  0  0  0  0  0  0  0  0
   18.0439   -1.3830  -15.4703 C   0  0  0  0  0  0  0  0  0  0  0  0
   18.1633   -3.1374  -15.3116 S   0  0  0  0  0  0  0  0  0  0  0  0
   19.8131   -3.7841  -15.1798 C   0  0  0  0  0  0  0  0  0  0  0  0
   19.8510   -5.2563  -15.0764 C   0  0  0  0  0  0  0  0  0  0  0  0
   21.1983   -5.8996  -14.9826 C   0  0  2  0  0  0  0  0  0  0  0  0
   20.9845   -7.3496  -14.7866 N   0  0  0  0  0  0  0  0  0  0  0  0
   21.9084   -5.3912  -13.8053 C   0  0  0  0  0  0  0  0  0  0  0  0
   22.5628   -4.1738  -13.8755 O   0  0  0  0  0  0  0  0  0  0  0  0
   21.9500   -6.0071  -12.7399 O   0  0  0  0  0  0  0  0  0  0  0  0
  2  3  1  0
  2  1  1  1
  4  3  1  0
  5  4  2  0
  6  5  1  0
  6  7  1  0
  7  8  2  0
  8  4  1  0
  9 16  1  0
  9  2  1  0
 10  9  2  0
 12 11  1  6
 12 13  1  0
 14 12  1  0
 15 14  1  6
 15 16  1  0
 17 15  1  0
 18 17  2  0
 19 20  1  0
 20 21  1  0
 22 21  1  0
 23 22  1  1
 23 25  1  0
 23 24  1  0
 24 17  1  0
 25 26  1  0
 27 25  2  0
M  END
$$$$
