HLM.pdb
     RDKit          3D

 27 27  0  0  1  0  0  0  0  0999 V2000
   21.2856  -20.4755  -13.1916 N   0  0  0  0  0  0  0  0  0  0  0  0
   22.4373  -21.4215  -13.3045 C   0  0  1  0  0  0  0  0  0  0  0  0
   22.5313  -21.7396  -14.7550 C   0  0  0  0  0  0  0  0  0  0  0  0
   21.5061  -22.6173  -15.3157 C   0  0  0  0  0  0  0  0  0  0  0  0
   20.1620  -22.7295  -15.0963 C   0  0  0  0  0  0  0  0  0  0  0  0
   19.6790  -23.6851  -15.9463 N   0  0  0  0  0  0  0  0  0  0  0  0
   20.6983  -24.1357  -16.6581 C   0  0  0  0  0  0  0  0  0  0  0  0
   21.8056  -23.5137  -16.3018 N   0  0  0  0  0  0  0  0  0  0  0  0
   23.6663  -20.6075  -12.9505 C   0  0  0  0  0  0  0  0  0  0  0  0
   23.7171  -19.4209  -13.2485 O   0  0  0  0  0  0  0  0  0  0  0  0
   24.9890  -19.0669   -9.4959 C   0  0  0  0  0  0  0  0  0  0  0  0
   25.3209  -20.5716   -9.5225 C   0  0  2  0  0  0  0  0  0  0  0  0
   25.6826  -20.9342   -8.1260 C   0  0  0  0  0  0  0  0  0  0  0  0
   26.3776  -20.7556  -10.5524 C   0  0  0  0  0  0  0  0  0  0  0  0
   26.0008  -20.5125  -11.9612 C   0  0  2  0  0  0  0  0  0  0  0  0
   24.7678  -21.2180  -12.2702 N   0  0  0  0  0  0  0  0  0  0  0  0
   27.0220  -20.6909  -12.9835 C   0  0  0  0  0  0  0  0  0  0  0  0
   27.9649  -21.4910  -12.7641 O   0  0  0  0  0  0  0  0  0  0  0  0
   26.7635  -25.2914  -15.6693 C   0  0  0  0  0  0  0  0  0  0  0  0
   26.6907  -24.2170  -17.0685 S   0  0  0  0  0  0  0  0  0  0  0  0
   27.4939  -22.6444  -16.8694 C   0  0  0  0  0  0  0  0  0  0  0  0
   27.0080  -21.8908  -15.6967 C   0  0  0  0  0  0  0  0  0  0  0  0
   27.6336  -20.5574  -15.4350 C   0  0  2  0  0  0  0  0  0  0  0  0
   27.0012  -20.0020  -14.2192 N   0  0  0  0  0  0  0  0  0  0  0  0
   27.3399  -19.6467  -16.5454 C   0  0  0  0  0  0  0  0  0  0  0  0
   26.2119  -18.8466  -16.4923 O   0  0  0  0  0  0  0  0  0  0  0  0
   28.0621  -19.5592  -17.5389 O   0  0  0  0  0  0  0  0  0  0  0  0
  2  3  1  0
  2  1  1  6
  4  3  1  0
  5  4  2  0
  6  5  1  0
  6  7  1  0
  7  8  2  0
  8  4  1  0
  9 16  1  0
  9  2  1  0
 10  9  2  0
 12 11  1  1
 12 13  1  0
 14 12  1  0
 15 14  1  1
 15 16  1  0
 17 15  1  0
 18 17  2  0
 19 20  1  0
 20 21  1  0
 22 21  1  0
 23 22  1  6
 23 25  1  0
 23 24  1  0
 24 17  1  0
 25 26  1  0
 27 25  2  0
M  END
$$$$
