HLM.pdb
     RDKit          3D

 27 27  0  0  1  0  0  0  0  0999 V2000
   17.6669  -13.3286  -17.6955 N   0  0  0  0  0  0  0  0  0  0  0  0
   17.0213  -12.2636  -16.8690 C   0  0  1  0  0  0  0  0  0  0  0  0
   17.2941  -12.6542  -15.4594 C   0  0  0  0  0  0  0  0  0  0  0  0
   16.5057  -13.7525  -14.9045 C   0  0  0  0  0  0  0  0  0  0  0  0
   15.3187  -13.7913  -14.2286 C   0  0  0  0  0  0  0  0  0  0  0  0
   15.0123  -15.1038  -13.9988 N   0  0  0  0  0  0  0  0  0  0  0  0
   15.9825  -15.8355  -14.5202 C   0  0  0  0  0  0  0  0  0  0  0  0
   16.8908  -15.0526  -15.0698 N   0  0  0  0  0  0  0  0  0  0  0  0
   17.8177  -11.0023  -17.1395 C   0  0  0  0  0  0  0  0  0  0  0  0
   19.0239  -11.0748  -17.3377 O   0  0  0  0  0  0  0  0  0  0  0  0
   16.3729   -5.4387  -19.1914 C   0  0  0  0  0  0  0  0  0  0  0  0
   17.5257   -6.2271  -18.5399 C   0  0  2  0  0  0  0  0  0  0  0  0
   18.6402   -6.2086  -19.5248 C   0  0  0  0  0  0  0  0  0  0  0  0
   16.9779   -7.5620  -18.1806 C   0  0  0  0  0  0  0  0  0  0  0  0
   17.8679   -8.4837  -17.4428 C   0  0  2  0  0  0  0  0  0  0  0  0
   17.1679   -9.7272  -17.1646 N   0  0  0  0  0  0  0  0  0  0  0  0
   18.5783   -7.9665  -16.2820 C   0  0  0  0  0  0  0  0  0  0  0  0
   17.9587   -7.8487  -15.1960 O   0  0  0  0  0  0  0  0  0  0  0  0
   23.6896  -11.5241  -13.9399 C   0  0  0  0  0  0  0  0  0  0  0  0
   23.6017   -9.8649  -14.5372 S   0  0  0  0  0  0  0  0  0  0  0  0
   21.9877   -9.1224  -14.5017 C   0  0  0  0  0  0  0  0  0  0  0  0
   21.9690   -7.7519  -15.0501 C   0  0  0  0  0  0  0  0  0  0  0  0
   20.6419   -7.0658  -15.1278 C   0  0  2  0  0  0  0  0  0  0  0  0
   19.9414   -7.5891  -16.3203 N   0  0  0  0  0  0  0  0  0  0  0  0
   20.8398   -5.6266  -15.3236 C   0  0  0  0  0  0  0  0  0  0  0  0
   21.2288   -4.8390  -14.2542 O   0  0  0  0  0  0  0  0  0  0  0  0
   20.6733   -5.0775  -16.4131 O   0  0  0  0  0  0  0  0  0  0  0  0
  2  3  1  0
  2  1  1  6
  4  3  1  0
  5  4  2  0
  6  5  1  0
  6  7  1  0
  7  8  2  0
  8  4  1  0
  9 16  1  0
  9  2  1  0
 10  9  2  0
 12 11  1  6
 12 13  1  0
 14 12  1  0
 15 14  1  1
 15 16  1  0
 17 15  1  0
 18 17  2  0
 19 20  1  0
 20 21  1  0
 22 21  1  0
 23 22  1  6
 23 25  1  0
 23 24  1  0
 24 17  1  0
 25 26  1  0
 27 25  2  0
M  END
$$$$
