HLM.pdb
     RDKit          3D

 27 27  0  0  1  0  0  0  0  0999 V2000
   14.0077  -27.5873    2.4889 N   0  0  0  0  0  0  0  0  0  0  0  0
   14.7264  -26.3061    2.7651 C   0  0  1  0  0  0  0  0  0  0  0  0
   14.2341  -25.8707    4.1001 C   0  0  0  0  0  0  0  0  0  0  0  0
   12.8862  -25.3101    4.1664 C   0  0  0  0  0  0  0  0  0  0  0  0
   11.6441  -25.8791    4.1390 C   0  0  0  0  0  0  0  0  0  0  0  0
   10.7242  -24.8803    4.2982 N   0  0  0  0  0  0  0  0  0  0  0  0
   11.3888  -23.7436    4.4193 C   0  0  0  0  0  0  0  0  0  0  0  0
   12.6860  -23.9707    4.3444 N   0  0  0  0  0  0  0  0  0  0  0  0
   16.1838  -26.6876    2.9349 C   0  0  0  0  0  0  0  0  0  0  0  0
   16.4813  -27.8381    3.2305 O   0  0  0  0  0  0  0  0  0  0  0  0
   21.5457  -24.5828    1.5074 C   0  0  0  0  0  0  0  0  0  0  0  0
   20.7424  -25.8953    1.4243 C   0  0  2  0  0  0  0  0  0  0  0  0
   21.1134  -26.5190    0.1258 C   0  0  0  0  0  0  0  0  0  0  0  0
   19.3119  -25.5303    1.6021 C   0  0  0  0  0  0  0  0  0  0  0  0
   18.6311  -26.0287    2.8162 C   0  0  2  0  0  0  0  0  0  0  0  0
   17.2139  -25.7108    2.7519 N   0  0  0  0  0  0  0  0  0  0  0  0
   19.2200  -25.7128    4.1097 C   0  0  0  0  0  0  0  0  0  0  0  0
   20.4217  -26.0130    4.3173 O   0  0  0  0  0  0  0  0  0  0  0  0
   21.6934  -21.3787    6.0987 C   0  0  0  0  0  0  0  0  0  0  0  0
   20.2240  -21.4731    7.0730 S   0  0  0  0  0  0  0  0  0  0  0  0
   18.8604  -22.3299    6.3218 C   0  0  0  0  0  0  0  0  0  0  0  0
   18.5073  -23.5812    7.0212 C   0  0  0  0  0  0  0  0  0  0  0  0
   19.0893  -24.8506    6.4848 C   0  0  2  0  0  0  0  0  0  0  0  0
   18.4982  -25.0796    5.1489 N   0  0  0  0  0  0  0  0  0  0  0  0
   18.7004  -25.9741    7.3423 C   0  0  0  0  0  0  0  0  0  0  0  0
   17.7471  -26.8739    6.8985 O   0  0  0  0  0  0  0  0  0  0  0  0
   19.1907  -26.1571    8.4569 O   0  0  0  0  0  0  0  0  0  0  0  0
  2  3  1  0
  2  1  1  1
  4  3  1  0
  5  4  2  0
  6  5  1  0
  6  7  1  0
  7  8  2  0
  8  4  1  0
  9 16  1  0
  9  2  1  0
 10  9  2  0
 12 11  1  6
 12 13  1  0
 14 12  1  0
 15 14  1  6
 15 16  1  0
 17 15  1  0
 18 17  2  0
 19 20  1  0
 20 21  1  0
 22 21  1  0
 23 22  1  1
 23 25  1  0
 23 24  1  0
 24 17  1  0
 25 26  1  0
 27 25  2  0
M  END
$$$$
