HLM.pdb
     RDKit          3D

 27 27  0  0  1  0  0  0  0  0999 V2000
   15.6518  -17.9463    4.6336 N   0  0  0  0  0  0  0  0  0  0  0  0
   15.5113  -16.7173    5.4725 C   0  0  1  0  0  0  0  0  0  0  0  0
   14.6969  -17.1430    6.6428 C   0  0  0  0  0  0  0  0  0  0  0  0
   13.2840  -17.4313    6.4059 C   0  0  0  0  0  0  0  0  0  0  0  0
   12.2496  -16.6712    5.9372 C   0  0  0  0  0  0  0  0  0  0  0  0
   11.1448  -17.4729    5.8591 N   0  0  0  0  0  0  0  0  0  0  0  0
   11.5001  -18.6798    6.2663 C   0  0  0  0  0  0  0  0  0  0  0  0
   12.7763  -18.6845    6.5999 N   0  0  0  0  0  0  0  0  0  0  0  0
   16.9047  -16.4183    5.9897 C   0  0  0  0  0  0  0  0  0  0  0  0
   17.7885  -17.2586    5.8785 O   0  0  0  0  0  0  0  0  0  0  0  0
   20.3107  -13.3697    5.2018 C   0  0  0  0  0  0  0  0  0  0  0  0
   18.9756  -12.7619    5.6740 C   0  0  2  0  0  0  0  0  0  0  0  0
   19.1522  -11.2865    5.6054 C   0  0  0  0  0  0  0  0  0  0  0  0
   18.6982  -13.3367    7.0170 C   0  0  0  0  0  0  0  0  0  0  0  0
   18.5122  -14.8010    7.1023 C   0  0  2  0  0  0  0  0  0  0  0  0
   17.1931  -15.1597    6.6073 N   0  0  0  0  0  0  0  0  0  0  0  0
   18.8401  -15.4606    8.3581 C   0  0  0  0  0  0  0  0  0  0  0  0
   17.9565  -15.5444    9.2466 O   0  0  0  0  0  0  0  0  0  0  0  0
   20.7289  -22.1186    8.8187 C   0  0  0  0  0  0  0  0  0  0  0  0
   21.5446  -20.5686    9.0416 S   0  0  0  0  0  0  0  0  0  0  0  0
   20.4830  -19.1883    9.3957 C   0  0  0  0  0  0  0  0  0  0  0  0
   21.2202  -17.9213    9.5708 C   0  0  0  0  0  0  0  0  0  0  0  0
   20.4160  -16.7033    9.8988 C   0  0  2  0  0  0  0  0  0  0  0  0
   20.1140  -16.0152    8.6253 N   0  0  0  0  0  0  0  0  0  0  0  0
   21.2152  -15.7892   10.7201 C   0  0  0  0  0  0  0  0  0  0  0  0
   21.4222  -16.0770   12.0579 O   0  0  0  0  0  0  0  0  0  0  0  0
   21.7190  -14.7609   10.2673 O   0  0  0  0  0  0  0  0  0  0  0  0
  2  3  1  0
  2  1  1  6
  4  3  1  0
  5  4  2  0
  6  5  1  0
  6  7  1  0
  7  8  2  0
  8  4  1  0
  9 16  1  0
  9  2  1  0
 10  9  2  0
 12 11  1  1
 12 13  1  0
 14 12  1  0
 15 14  1  1
 15 16  1  0
 17 15  1  0
 18 17  2  0
 19 20  1  0
 20 21  1  0
 22 21  1  0
 23 22  1  6
 23 25  1  0
 23 24  1  0
 24 17  1  0
 25 26  1  0
 27 25  2  0
M  END
$$$$
