HLM.pdb
     RDKit          3D

 27 27  0  0  1  0  0  0  0  0999 V2000
   22.1858  -20.3348  -15.0862 N   0  0  0  0  0  0  0  0  0  0  0  0
   22.8800  -19.7108  -13.9188 C   0  0  1  0  0  0  0  0  0  0  0  0
   21.9999  -19.9943  -12.7530 C   0  0  0  0  0  0  0  0  0  0  0  0
   20.7151  -19.3000  -12.6998 C   0  0  0  0  0  0  0  0  0  0  0  0
   20.0764  -18.4655  -13.5734 C   0  0  0  0  0  0  0  0  0  0  0  0
   18.8586  -18.1525  -13.0365 N   0  0  0  0  0  0  0  0  0  0  0  0
   18.7633  -18.7787  -11.8757 C   0  0  0  0  0  0  0  0  0  0  0  0
   19.8609  -19.4741  -11.6482 N   0  0  0  0  0  0  0  0  0  0  0  0
   24.1475  -20.5190  -13.7219 C   0  0  0  0  0  0  0  0  0  0  0  0
   24.0907  -21.7418  -13.6897 O   0  0  0  0  0  0  0  0  0  0  0  0
   27.8004  -20.4401  -16.0130 C   0  0  0  0  0  0  0  0  0  0  0  0
   27.7809  -19.2257  -15.0646 C   0  0  2  0  0  0  0  0  0  0  0  0
   28.9334  -18.3756  -15.4665 C   0  0  0  0  0  0  0  0  0  0  0  0
   27.8049  -19.7672  -13.6799 C   0  0  0  0  0  0  0  0  0  0  0  0
   26.6388  -20.5645  -13.2436 C   0  0  2  0  0  0  0  0  0  0  0  0
   25.4099  -19.8612  -13.5732 N   0  0  0  0  0  0  0  0  0  0  0  0
   26.6387  -21.0908  -11.8861 C   0  0  0  0  0  0  0  0  0  0  0  0
   27.0479  -22.2619  -11.6908 O   0  0  0  0  0  0  0  0  0  0  0  0
   27.4636  -18.5704   -4.9168 C   0  0  0  0  0  0  0  0  0  0  0  0
   28.1663  -19.6490   -6.1251 S   0  0  0  0  0  0  0  0  0  0  0  0
   27.0009  -20.5774   -7.0935 C   0  0  0  0  0  0  0  0  0  0  0  0
   27.0514  -20.2483   -8.5317 C   0  0  0  0  0  0  0  0  0  0  0  0
   26.0709  -20.9400   -9.4251 C   0  0  2  0  0  0  0  0  0  0  0  0
   26.1976  -20.3402  -10.7708 N   0  0  0  0  0  0  0  0  0  0  0  0
   24.7067  -20.6875   -8.9517 C   0  0  0  0  0  0  0  0  0  0  0  0
   24.2554  -21.3141   -7.8033 O   0  0  0  0  0  0  0  0  0  0  0  0
   23.9316  -19.9315   -9.5382 O   0  0  0  0  0  0  0  0  0  0  0  0
  2  3  1  0
  2  1  1  6
  4  3  1  0
  5  4  2  0
  6  5  1  0
  6  7  1  0
  7  8  2  0
  8  4  1  0
  9 16  1  0
  9  2  1  0
 10  9  2  0
 12 11  1  6
 12 13  1  0
 14 12  1  0
 15 14  1  1
 15 16  1  0
 17 15  1  0
 18 17  2  0
 19 20  1  0
 20 21  1  0
 22 21  1  0
 23 22  1  1
 23 25  1  0
 23 24  1  0
 24 17  1  0
 25 26  1  0
 27 25  2  0
M  END
$$$$
