HLM.pdb
     RDKit          3D

 27 27  0  0  1  0  0  0  0  0999 V2000
   22.4138  -13.1410  -17.4549 N   0  0  0  0  0  0  0  0  0  0  0  0
   22.6925  -12.3637  -16.2090 C   0  0  1  0  0  0  0  0  0  0  0  0
   24.1518  -12.0767  -16.2546 C   0  0  0  0  0  0  0  0  0  0  0  0
   25.0619  -13.1980  -16.0313 C   0  0  0  0  0  0  0  0  0  0  0  0
   24.8596  -14.5434  -15.9020 C   0  0  0  0  0  0  0  0  0  0  0  0
   26.0834  -15.1382  -15.7684 N   0  0  0  0  0  0  0  0  0  0  0  0
   26.9967  -14.1831  -15.8166 C   0  0  0  0  0  0  0  0  0  0  0  0
   26.4136  -13.0104  -15.9738 N   0  0  0  0  0  0  0  0  0  0  0  0
   21.9764  -11.0396  -16.3890 C   0  0  0  0  0  0  0  0  0  0  0  0
   22.0083  -10.4729  -17.4740 O   0  0  0  0  0  0  0  0  0  0  0  0
   17.9673   -9.3869  -16.9948 C   0  0  0  0  0  0  0  0  0  0  0  0
   18.1980  -10.1784  -15.6928 C   0  0  2  0  0  0  0  0  0  0  0  0
   16.8491  -10.4019  -15.1070 C   0  0  0  0  0  0  0  0  0  0  0  0
   19.1543   -9.3846  -14.8765 C   0  0  0  0  0  0  0  0  0  0  0  0
   20.5192   -9.2046  -15.4158 C   0  0  2  0  0  0  0  0  0  0  0  0
   21.2634  -10.4480  -15.2980 N   0  0  0  0  0  0  0  0  0  0  0  0
   21.2834   -8.0476  -14.9719 C   0  0  0  0  0  0  0  0  0  0  0  0
   21.9617   -8.1379  -13.9189 O   0  0  0  0  0  0  0  0  0  0  0  0
   23.7730   -0.8295  -17.3178 C   0  0  0  0  0  0  0  0  0  0  0  0
   22.8656   -2.3313  -17.5139 S   0  0  0  0  0  0  0  0  0  0  0  0
   22.8350   -3.3988  -16.0936 C   0  0  0  0  0  0  0  0  0  0  0  0
   22.1366   -4.6751  -16.3439 C   0  0  0  0  0  0  0  0  0  0  0  0
   22.1167   -5.6725  -15.2291 C   0  0  2  0  0  0  0  0  0  0  0  0
   21.2983   -6.8203  -15.6757 N   0  0  0  0  0  0  0  0  0  0  0  0
   21.4616   -5.0888  -14.0548 C   0  0  0  0  0  0  0  0  0  0  0  0
   22.2075   -4.3488  -13.1541 O   0  0  0  0  0  0  0  0  0  0  0  0
   20.2592   -5.2287  -13.8294 O   0  0  0  0  0  0  0  0  0  0  0  0
  2  3  1  0
  2  1  1  6
  4  3  1  0
  5  4  2  0
  6  5  1  0
  6  7  1  0
  7  8  2  0
  8  4  1  0
  9 16  1  0
  9  2  1  0
 10  9  2  0
 12 11  1  6
 12 13  1  0
 14 12  1  0
 15 14  1  1
 15 16  1  0
 17 15  1  0
 18 17  2  0
 19 20  1  0
 20 21  1  0
 22 21  1  0
 23 22  1  6
 23 25  1  0
 23 24  1  0
 24 17  1  0
 25 26  1  0
 27 25  2  0
M  END
$$$$
