HLM.pdb
     RDKit          3D

 27 27  0  0  1  0  0  0  0  0999 V2000
   23.1346  -19.1487  -18.1992 N   0  0  0  0  0  0  0  0  0  0  0  0
   23.9259  -18.2885  -17.2676 C   0  0  1  0  0  0  0  0  0  0  0  0
   22.9197  -17.4170  -16.6026 C   0  0  0  0  0  0  0  0  0  0  0  0
   22.4224  -16.2704  -17.3599 C   0  0  0  0  0  0  0  0  0  0  0  0
   21.1629  -15.8457  -17.6771 C   0  0  0  0  0  0  0  0  0  0  0  0
   21.2796  -14.6664  -18.3589 N   0  0  0  0  0  0  0  0  0  0  0  0
   22.5687  -14.3861  -18.4501 C   0  0  0  0  0  0  0  0  0  0  0  0
   23.2771  -15.3296  -17.8602 N   0  0  0  0  0  0  0  0  0  0  0  0
   24.4650  -19.2287  -16.2075 C   0  0  0  0  0  0  0  0  0  0  0  0
   23.7229  -20.0561  -15.6935 O   0  0  0  0  0  0  0  0  0  0  0  0
   27.6786  -22.3689  -16.2199 C   0  0  0  0  0  0  0  0  0  0  0  0
   28.2388  -20.9391  -16.3494 C   0  0  2  0  0  0  0  0  0  0  0  0
   29.6934  -21.0938  -16.6195 C   0  0  0  0  0  0  0  0  0  0  0  0
   27.8668  -20.2220  -15.1010 C   0  0  0  0  0  0  0  0  0  0  0  0
   26.4251  -20.0506  -14.8218 C   0  0  2  0  0  0  0  0  0  0  0  0
   25.8362  -19.1547  -15.8037 N   0  0  0  0  0  0  0  0  0  0  0  0
   26.0251  -19.7319  -13.4586 C   0  0  0  0  0  0  0  0  0  0  0  0
   26.3396  -18.6138  -12.9811 O   0  0  0  0  0  0  0  0  0  0  0  0
   20.5123  -21.8929  -10.8164 C   0  0  0  0  0  0  0  0  0  0  0  0
   21.0489  -20.5341   -9.8248 S   0  0  0  0  0  0  0  0  0  0  0  0
   22.7972  -20.2164   -9.8421 C   0  0  0  0  0  0  0  0  0  0  0  0
   23.4180  -20.4682  -11.1576 C   0  0  0  0  0  0  0  0  0  0  0  0
   24.8987  -20.2813  -11.2606 C   0  0  2  0  0  0  0  0  0  0  0  0
   25.2941  -20.6275  -12.6428 N   0  0  0  0  0  0  0  0  0  0  0  0
   25.5789  -21.2131  -10.3563 C   0  0  0  0  0  0  0  0  0  0  0  0
   25.7567  -20.8684   -9.0279 O   0  0  0  0  0  0  0  0  0  0  0  0
   26.0062  -22.3058  -10.7303 O   0  0  0  0  0  0  0  0  0  0  0  0
  2  3  1  0
  2  1  1  6
  4  3  1  0
  5  4  2  0
  6  5  1  0
  6  7  1  0
  7  8  2  0
  8  4  1  0
  9 16  1  0
  9  2  1  0
 10  9  2  0
 12 11  1  1
 12 13  1  0
 14 12  1  0
 15 14  1  1
 15 16  1  0
 17 15  1  0
 18 17  2  0
 19 20  1  0
 20 21  1  0
 22 21  1  0
 23 22  1  6
 23 25  1  0
 23 24  1  0
 24 17  1  0
 25 26  1  0
 27 25  2  0
M  END
$$$$
