HLM.pdb
     RDKit          3D

 27 27  0  0  1  0  0  0  0  0999 V2000
   26.9748  -20.2184  -16.7258 N   0  0  0  0  0  0  0  0  0  0  0  0
   26.2154  -19.2808  -15.8435 C   0  0  1  0  0  0  0  0  0  0  0  0
   25.4468  -18.4138  -16.7771 C   0  0  0  0  0  0  0  0  0  0  0  0
   26.2011  -17.4310  -17.5522 C   0  0  0  0  0  0  0  0  0  0  0  0
   27.2453  -16.6074  -17.2380 C   0  0  0  0  0  0  0  0  0  0  0  0
   27.6020  -15.9344  -18.3733 N   0  0  0  0  0  0  0  0  0  0  0  0
   26.7998  -16.3389  -19.3436 C   0  0  0  0  0  0  0  0  0  0  0  0
   25.9505  -17.2358  -18.8807 N   0  0  0  0  0  0  0  0  0  0  0  0
   25.2066  -20.1425  -15.1098 C   0  0  0  0  0  0  0  0  0  0  0  0
   24.7993  -21.1757  -15.6256 O   0  0  0  0  0  0  0  0  0  0  0  0
   25.6294  -22.3515  -11.2979 C   0  0  0  0  0  0  0  0  0  0  0  0
   25.5416  -20.8201  -11.1503 C   0  0  2  0  0  0  0  0  0  0  0  0
   25.9026  -20.5251   -9.7378 C   0  0  0  0  0  0  0  0  0  0  0  0
   24.1737  -20.4290  -11.5827 C   0  0  0  0  0  0  0  0  0  0  0  0
   23.8448  -20.5863  -13.0155 C   0  0  2  0  0  0  0  0  0  0  0  0
   24.7276  -19.7553  -13.8178 N   0  0  0  0  0  0  0  0  0  0  0  0
   22.4491  -20.4721  -13.4140 C   0  0  0  0  0  0  0  0  0  0  0  0
   21.8724  -19.3637  -13.2881 O   0  0  0  0  0  0  0  0  0  0  0  0
   16.4951  -24.4216  -16.9885 C   0  0  0  0  0  0  0  0  0  0  0  0
   18.1664  -24.2127  -16.4590 S   0  0  0  0  0  0  0  0  0  0  0  0
   18.5073  -22.7101  -15.5736 C   0  0  0  0  0  0  0  0  0  0  0  0
   19.9155  -22.5978  -15.1449 C   0  0  0  0  0  0  0  0  0  0  0  0
   20.2733  -21.4355  -14.2738 C   0  0  2  0  0  0  0  0  0  0  0  0
   21.7087  -21.5571  -13.9399 N   0  0  0  0  0  0  0  0  0  0  0  0
   19.5170  -21.5057  -13.0201 C   0  0  0  0  0  0  0  0  0  0  0  0
   18.3006  -20.8535  -12.9188 O   0  0  0  0  0  0  0  0  0  0  0  0
   19.9205  -22.1282  -12.0373 O   0  0  0  0  0  0  0  0  0  0  0  0
  2  3  1  0
  2  1  1  6
  4  3  1  0
  5  4  2  0
  6  5  1  0
  6  7  1  0
  7  8  2  0
  8  4  1  0
  9 16  1  0
  9  2  1  0
 10  9  2  0
 12 11  1  1
 12 13  1  0
 14 12  1  0
 15 14  1  1
 15 16  1  0
 17 15  1  0
 18 17  2  0
 19 20  1  0
 20 21  1  0
 22 21  1  0
 23 22  1  6
 23 25  1  0
 23 24  1  0
 24 17  1  0
 25 26  1  0
 27 25  2  0
M  END
$$$$
