HLM.pdb
     RDKit          3D

 27 27  0  0  1  0  0  0  0  0999 V2000
   27.5317  -21.3053  -15.4574 N   0  0  0  0  0  0  0  0  0  0  0  0
   27.2906  -20.3220  -14.3578 C   0  0  1  0  0  0  0  0  0  0  0  0
   26.7364  -19.1183  -15.0347 C   0  0  0  0  0  0  0  0  0  0  0  0
   27.6580  -18.3191  -15.8395 C   0  0  0  0  0  0  0  0  0  0  0  0
   28.9762  -18.4733  -16.1648 C   0  0  0  0  0  0  0  0  0  0  0  0
   29.3210  -17.4509  -17.0044 N   0  0  0  0  0  0  0  0  0  0  0  0
   28.2452  -16.7028  -17.1822 C   0  0  0  0  0  0  0  0  0  0  0  0
   27.2336  -17.1993  -16.4965 N   0  0  0  0  0  0  0  0  0  0  0  0
   26.1715  -20.9136  -13.5235 C   0  0  0  0  0  0  0  0  0  0  0  0
   25.3178  -21.6108  -14.0569 O   0  0  0  0  0  0  0  0  0  0  0  0
   27.8806  -21.2378   -9.5198 C   0  0  0  0  0  0  0  0  0  0  0  0
   26.6268  -20.3426   -9.4799 C   0  0  2  0  0  0  0  0  0  0  0  0
   26.5890  -19.7542   -8.1143 C   0  0  0  0  0  0  0  0  0  0  0  0
   25.4773  -21.2037   -9.8651 C   0  0  0  0  0  0  0  0  0  0  0  0
   25.0252  -21.1416  -11.2714 C   0  0  2  0  0  0  0  0  0  0  0  0
   26.1070  -20.6618  -12.1159 N   0  0  0  0  0  0  0  0  0  0  0  0
   23.7572  -20.4846  -11.5544 C   0  0  0  0  0  0  0  0  0  0  0  0
   23.6130  -19.2807  -11.2276 O   0  0  0  0  0  0  0  0  0  0  0  0
   22.4210  -18.7413  -16.7939 C   0  0  0  0  0  0  0  0  0  0  0  0
   20.7245  -18.9392  -16.3466 S   0  0  0  0  0  0  0  0  0  0  0  0
   20.4258  -19.3834  -14.6522 C   0  0  0  0  0  0  0  0  0  0  0  0
   21.5839  -20.0391  -14.0131 C   0  0  0  0  0  0  0  0  0  0  0  0
   21.4425  -20.4235  -12.5744 C   0  0  2  0  0  0  0  0  0  0  0  0
   22.6745  -21.1424  -12.1844 N   0  0  0  0  0  0  0  0  0  0  0  0
   20.3177  -21.3504  -12.4182 C   0  0  0  0  0  0  0  0  0  0  0  0
   19.0426  -20.8500  -12.2209 O   0  0  0  0  0  0  0  0  0  0  0  0
   20.4574  -22.5733  -12.4552 O   0  0  0  0  0  0  0  0  0  0  0  0
  2  3  1  0
  2  1  1  6
  4  3  1  0
  5  4  2  0
  6  5  1  0
  6  7  1  0
  7  8  2  0
  8  4  1  0
  9 16  1  0
  9  2  1  0
 10  9  2  0
 12 11  1  1
 12 13  1  0
 14 12  1  0
 15 14  1  1
 15 16  1  0
 17 15  1  0
 18 17  2  0
 19 20  1  0
 20 21  1  0
 22 21  1  0
 23 22  1  6
 23 25  1  0
 23 24  1  0
 24 17  1  0
 25 26  1  0
 27 25  2  0
M  END
$$$$
