HLM.pdb
     RDKit          3D

 27 27  0  0  1  0  0  0  0  0999 V2000
   27.5570  -20.4467  -15.8485 N   0  0  0  0  0  0  0  0  0  0  0  0
   26.7996  -19.4904  -14.9848 C   0  0  1  0  0  0  0  0  0  0  0  0
   26.1039  -18.5826  -15.9366 C   0  0  0  0  0  0  0  0  0  0  0  0
   26.9353  -17.6791  -16.7290 C   0  0  0  0  0  0  0  0  0  0  0  0
   27.2661  -17.6483  -18.0546 C   0  0  0  0  0  0  0  0  0  0  0  0
   28.0324  -16.5362  -18.2674 N   0  0  0  0  0  0  0  0  0  0  0  0
   28.1599  -15.9136  -17.1078 C   0  0  0  0  0  0  0  0  0  0  0  0
   27.5126  -16.5756  -16.1682 N   0  0  0  0  0  0  0  0  0  0  0  0
   25.7291  -20.3203  -14.3037 C   0  0  0  0  0  0  0  0  0  0  0  0
   25.1447  -21.1939  -14.9319 O   0  0  0  0  0  0  0  0  0  0  0  0
   26.5166  -22.1483  -10.5802 C   0  0  0  0  0  0  0  0  0  0  0  0
   25.9604  -20.7373  -10.3071 C   0  0  2  0  0  0  0  0  0  0  0  0
   26.1741  -20.4883   -8.8562 C   0  0  0  0  0  0  0  0  0  0  0  0
   24.5511  -20.7366  -10.7814 C   0  0  0  0  0  0  0  0  0  0  0  0
   24.3274  -20.7912  -12.2419 C   0  0  2  0  0  0  0  0  0  0  0  0
   25.3975  -20.0884  -12.9307 N   0  0  0  0  0  0  0  0  0  0  0  0
   23.0077  -20.4389  -12.7459 C   0  0  0  0  0  0  0  0  0  0  0  0
   22.7847  -19.2488  -13.0790 O   0  0  0  0  0  0  0  0  0  0  0  0
   18.4132  -21.9058  -18.5163 C   0  0  0  0  0  0  0  0  0  0  0  0
   19.8553  -21.8397  -17.4998 S   0  0  0  0  0  0  0  0  0  0  0  0
   19.5759  -21.3983  -15.8014 C   0  0  0  0  0  0  0  0  0  0  0  0
   20.7941  -21.4878  -14.9723 C   0  0  0  0  0  0  0  0  0  0  0  0
   20.6851  -21.0415  -13.5486 C   0  0  2  0  0  0  0  0  0  0  0  0
   21.9595  -21.3799  -12.8792 N   0  0  0  0  0  0  0  0  0  0  0  0
   19.6173  -21.7877  -12.8766 C   0  0  0  0  0  0  0  0  0  0  0  0
   19.8873  -23.0364  -12.3446 O   0  0  0  0  0  0  0  0  0  0  0  0
   18.4730  -21.3476  -12.7617 O   0  0  0  0  0  0  0  0  0  0  0  0
  2  3  1  0
  2  1  1  6
  4  3  1  0
  5  4  2  0
  6  5  1  0
  6  7  1  0
  7  8  2  0
  8  4  1  0
  9 16  1  0
  9  2  1  0
 10  9  2  0
 12 11  1  1
 12 13  1  0
 14 12  1  0
 15 14  1  1
 15 16  1  0
 17 15  1  0
 18 17  2  0
 19 20  1  0
 20 21  1  0
 22 21  1  0
 23 22  1  6
 23 25  1  0
 23 24  1  0
 24 17  1  0
 25 26  1  0
 27 25  2  0
M  END
$$$$
