HLM.pdb
     RDKit          3D

 27 27  0  0  1  0  0  0  0  0999 V2000
   20.9692  -13.6858  -17.5476 N   0  0  0  0  0  0  0  0  0  0  0  0
   21.7424  -12.6796  -18.3375 C   0  0  1  0  0  0  0  0  0  0  0  0
   20.8360  -12.2874  -19.4504 C   0  0  0  0  0  0  0  0  0  0  0  0
   20.5735  -13.2868  -20.4838 C   0  0  0  0  0  0  0  0  0  0  0  0
   19.6117  -14.2480  -20.6196 C   0  0  0  0  0  0  0  0  0  0  0  0
   19.8070  -14.8664  -21.8232 N   0  0  0  0  0  0  0  0  0  0  0  0
   20.8529  -14.2965  -22.3976 C   0  0  0  0  0  0  0  0  0  0  0  0
   21.3323  -13.3466  -21.6180 N   0  0  0  0  0  0  0  0  0  0  0  0
   21.8782  -11.4713  -17.4320 C   0  0  0  0  0  0  0  0  0  0  0  0
   20.9787  -11.1934  -16.6489 O   0  0  0  0  0  0  0  0  0  0  0  0
   24.8281  -10.6232  -14.3203 C   0  0  0  0  0  0  0  0  0  0  0  0
   25.4182  -10.4549  -15.7339 C   0  0  2  0  0  0  0  0  0  0  0  0
   26.8847  -10.2909  -15.5468 C   0  0  0  0  0  0  0  0  0  0  0  0
   24.6967   -9.3171  -16.3630 C   0  0  0  0  0  0  0  0  0  0  0  0
   23.2538   -9.4950  -16.6323 C   0  0  2  0  0  0  0  0  0  0  0  0
   23.0514  -10.6533  -17.4873 N   0  0  0  0  0  0  0  0  0  0  0  0
   22.4905   -8.3343  -17.0679 C   0  0  0  0  0  0  0  0  0  0  0  0
   22.6280   -7.9275  -18.2481 O   0  0  0  0  0  0  0  0  0  0  0  0
   16.4376   -7.2328  -15.5352 C   0  0  0  0  0  0  0  0  0  0  0  0
   16.9862   -5.5562  -15.6083 S   0  0  0  0  0  0  0  0  0  0  0  0
   18.6319   -5.3153  -16.2338 C   0  0  0  0  0  0  0  0  0  0  0  0
   19.4794   -6.5179  -16.1113 C   0  0  0  0  0  0  0  0  0  0  0  0
   20.8642   -6.4370  -16.6712 C   0  0  2  0  0  0  0  0  0  0  0  0
   21.5960   -7.6401  -16.2196 N   0  0  0  0  0  0  0  0  0  0  0  0
   21.5523   -5.2651  -16.1219 C   0  0  0  0  0  0  0  0  0  0  0  0
   22.2887   -5.3893  -14.9568 O   0  0  0  0  0  0  0  0  0  0  0  0
   21.5045   -4.1575  -16.6580 O   0  0  0  0  0  0  0  0  0  0  0  0
  2  3  1  0
  2  1  1  1
  4  3  1  0
  5  4  2  0
  6  5  1  0
  6  7  1  0
  7  8  2  0
  8  4  1  0
  9 16  1  0
  9  2  1  0
 10  9  2  0
 12 11  1  1
 12 13  1  0
 14 12  1  0
 15 14  1  6
 15 16  1  0
 17 15  1  0
 18 17  2  0
 19 20  1  0
 20 21  1  0
 22 21  1  0
 23 22  1  1
 23 25  1  0
 23 24  1  0
 24 17  1  0
 25 26  1  0
 27 25  2  0
M  END
$$$$
