HLM.pdb
     RDKit          3D

 27 27  0  0  1  0  0  0  0  0999 V2000
   19.3827  -10.6708  -15.6650 N   0  0  0  0  0  0  0  0  0  0  0  0
   18.2838   -9.7784  -15.1851 C   0  0  1  0  0  0  0  0  0  0  0  0
   17.0666  -10.6343  -15.1869 C   0  0  0  0  0  0  0  0  0  0  0  0
   16.4995  -10.9886  -16.4863 C   0  0  0  0  0  0  0  0  0  0  0  0
   15.7353  -10.2964  -17.3832 C   0  0  0  0  0  0  0  0  0  0  0  0
   15.5386  -11.1002  -18.4715 N   0  0  0  0  0  0  0  0  0  0  0  0
   16.1649  -12.2418  -18.2407 C   0  0  0  0  0  0  0  0  0  0  0  0
   16.7496  -12.2032  -17.0589 N   0  0  0  0  0  0  0  0  0  0  0  0
   18.6100   -9.4780  -13.7353 C   0  0  0  0  0  0  0  0  0  0  0  0
   19.4114  -10.1814  -13.1333 O   0  0  0  0  0  0  0  0  0  0  0  0
   20.8895   -6.3067  -10.9402 C   0  0  0  0  0  0  0  0  0  0  0  0
   20.8029   -5.9400  -12.4345 C   0  0  2  0  0  0  0  0  0  0  0  0
   20.3427   -4.5263  -12.4815 C   0  0  0  0  0  0  0  0  0  0  0  0
   19.9152   -6.9498  -13.0694 C   0  0  0  0  0  0  0  0  0  0  0  0
   18.7290   -7.3872  -12.3028 C   0  0  2  0  0  0  0  0  0  0  0  0
   17.9866   -8.3770  -13.0661 N   0  0  0  0  0  0  0  0  0  0  0  0
   17.8708   -6.3624  -11.7258 C   0  0  0  0  0  0  0  0  0  0  0  0
   17.4191   -5.4599  -12.4732 O   0  0  0  0  0  0  0  0  0  0  0  0
   12.4062   -6.8052   -6.0715 C   0  0  0  0  0  0  0  0  0  0  0  0
   13.9204   -7.2483   -6.8641 S   0  0  0  0  0  0  0  0  0  0  0  0
   14.4685   -6.1418   -8.1420 C   0  0  0  0  0  0  0  0  0  0  0  0
   15.7076   -6.5928   -8.8057 C   0  0  0  0  0  0  0  0  0  0  0  0
   16.2640   -5.7150   -9.8817 C   0  0  2  0  0  0  0  0  0  0  0  0
   17.5196   -6.3361  -10.3555 N   0  0  0  0  0  0  0  0  0  0  0  0
   16.5998   -4.4015   -9.3243 C   0  0  0  0  0  0  0  0  0  0  0  0
   15.6046   -3.4535   -9.1626 O   0  0  0  0  0  0  0  0  0  0  0  0
   17.7448   -4.0979   -8.9879 O   0  0  0  0  0  0  0  0  0  0  0  0
  2  3  1  0
  2  1  1  1
  4  3  1  0
  5  4  2  0
  6  5  1  0
  6  7  1  0
  7  8  2  0
  8  4  1  0
  9 16  1  0
  9  2  1  0
 10  9  2  0
 12 11  1  1
 12 13  1  0
 14 12  1  0
 15 14  1  6
 15 16  1  0
 17 15  1  0
 18 17  2  0
 19 20  1  0
 20 21  1  0
 22 21  1  0
 23 22  1  1
 23 25  1  0
 23 24  1  0
 24 17  1  0
 25 26  1  0
 27 25  2  0
M  END
$$$$
