HLM.pdb
     RDKit          3D

 27 27  0  0  1  0  0  0  0  0999 V2000
   22.1383  -29.6973  -10.5509 N   0  0  0  0  0  0  0  0  0  0  0  0
   20.9798  -29.1808  -11.3416 C   0  0  1  0  0  0  0  0  0  0  0  0
   19.9496  -30.2511  -11.2559 C   0  0  0  0  0  0  0  0  0  0  0  0
   20.1700  -31.4575  -12.0506 C   0  0  0  0  0  0  0  0  0  0  0  0
   20.1765  -31.6913  -13.3970 C   0  0  0  0  0  0  0  0  0  0  0  0
   20.5018  -33.0050  -13.5907 N   0  0  0  0  0  0  0  0  0  0  0  0
   20.6873  -33.5482  -12.3994 C   0  0  0  0  0  0  0  0  0  0  0  0
   20.4955  -32.6444  -11.4580 N   0  0  0  0  0  0  0  0  0  0  0  0
   20.4510  -27.9955  -10.5582 C   0  0  0  0  0  0  0  0  0  0  0  0
   20.8334  -27.8048   -9.4107 O   0  0  0  0  0  0  0  0  0  0  0  0
   17.2322  -23.0768  -12.1682 C   0  0  0  0  0  0  0  0  0  0  0  0
   18.2633  -23.5322  -11.1173 C   0  0  2  0  0  0  0  0  0  0  0  0
   19.2557  -22.4290  -11.0148 C   0  0  0  0  0  0  0  0  0  0  0  0
   18.7793  -24.8508  -11.5716 C   0  0  0  0  0  0  0  0  0  0  0  0
   19.0964  -25.8503  -10.5293 C   0  0  2  0  0  0  0  0  0  0  0  0
   19.5072  -27.0980  -11.1521 N   0  0  0  0  0  0  0  0  0  0  0  0
   18.1338  -26.0481   -9.4551 C   0  0  0  0  0  0  0  0  0  0  0  0
   17.0872  -26.7003   -9.6927 O   0  0  0  0  0  0  0  0  0  0  0  0
   19.3810  -26.9630   -3.3114 C   0  0  0  0  0  0  0  0  0  0  0  0
   17.6475  -26.6337   -3.3743 S   0  0  0  0  0  0  0  0  0  0  0  0
   17.1413  -25.4192   -4.5686 C   0  0  0  0  0  0  0  0  0  0  0  0
   17.9875  -25.4094   -5.7782 C   0  0  0  0  0  0  0  0  0  0  0  0
   17.3242  -25.7384   -7.0781 C   0  0  2  0  0  0  0  0  0  0  0  0
   18.3237  -25.5378   -8.1492 N   0  0  0  0  0  0  0  0  0  0  0  0
   16.2194  -24.8059   -7.3196 C   0  0  0  0  0  0  0  0  0  0  0  0
   14.9209  -25.2002   -7.0480 O   0  0  0  0  0  0  0  0  0  0  0  0
   16.3962  -23.6697   -7.7602 O   0  0  0  0  0  0  0  0  0  0  0  0
  2  3  1  0
  2  1  1  1
  4  3  1  0
  5  4  2  0
  6  5  1  0
  6  7  1  0
  7  8  2  0
  8  4  1  0
  9 16  1  0
  9  2  1  0
 10  9  2  0
 12 11  1  6
 12 13  1  0
 14 12  1  0
 15 14  1  6
 15 16  1  0
 17 15  1  0
 18 17  2  0
 19 20  1  0
 20 21  1  0
 22 21  1  0
 23 22  1  1
 23 25  1  0
 23 24  1  0
 24 17  1  0
 25 26  1  0
 27 25  2  0
M  END
$$$$
