FGY.pdb
     RDKit          3D

 28 29  0  0  1  0  0  0  0  0999 V2000
    6.1317  -16.4553   24.9476 N   0  0  0  0  0  0  0  0  0  0  0  0
    7.0211  -16.2727   23.8427 C   0  0  1  0  0  0  0  0  0  0  0  0
    7.1566  -14.8512   23.4038 C   0  0  0  0  0  0  0  0  0  0  0  0
    6.5308  -13.9744   24.4152 C   0  0  0  0  0  0  0  0  0  0  0  0
    7.2878  -13.3133   25.3479 C   0  0  0  0  0  0  0  0  0  0  0  0
    6.7134  -12.4906   26.2985 C   0  0  0  0  0  0  0  0  0  0  0  0
    5.3257  -12.3512   26.2811 C   0  0  0  0  0  0  0  0  0  0  0  0
    4.5376  -12.9985   25.3614 C   0  0  0  0  0  0  0  0  0  0  0  0
    5.1677  -13.8010   24.4436 C   0  0  0  0  0  0  0  0  0  0  0  0
    8.3378  -16.8954   24.1224 C   0  0  0  0  0  0  0  0  0  0  0  0
    8.6191  -17.3890   25.2463 O   0  0  0  0  0  0  0  0  0  0  0  0
    9.3288  -16.9477   23.1045 N   0  0  0  0  0  0  0  0  0  0  0  0
   10.6013  -16.3110   23.2169 C   0  0  0  0  0  0  0  0  0  0  0  0
   11.2432  -16.5274   24.5389 C   0  0  0  0  0  0  0  0  0  0  0  0
   11.9955  -15.6389   25.0119 O   0  0  0  0  0  0  0  0  0  0  0  0
   11.4214  -12.4957   29.4218 O   0  0  0  0  0  0  0  0  0  0  0  0
   11.3624  -13.8239   29.0142 C   0  0  0  0  0  0  0  0  0  0  0  0
   12.4892  -14.6088   28.9056 C   0  0  0  0  0  0  0  0  0  0  0  0
   12.4704  -15.9176   28.5086 C   0  0  0  0  0  0  0  0  0  0  0  0
   11.2418  -16.5107   28.1900 C   0  0  0  0  0  0  0  0  0  0  0  0
   11.2134  -17.9175   27.7364 C   0  0  0  0  0  0  0  0  0  0  0  0
   11.8904  -18.0888   26.4245 C   0  0  2  0  0  0  0  0  0  0  0  0
   11.0531  -17.6936   25.3068 N   0  0  0  0  0  0  0  0  0  0  0  0
   12.2712  -19.4957   26.2268 C   0  0  0  0  0  0  0  0  0  0  0  0
   11.7828  -20.1731   25.1182 O   0  0  0  0  0  0  0  0  0  0  0  0
   10.0850  -15.7357   28.2919 C   0  0  0  0  0  0  0  0  0  0  0  0
   10.1506  -14.4207   28.6962 C   0  0  0  0  0  0  0  0  0  0  0  0
   13.0200  -20.1663   26.9886 O   0  0  0  0  0  0  0  0  0  0  0  0
  2  1  1  1
  2 10  1  0
  2  3  1  0
  3  4  1  0
  4  5  2  0
  4  9  1  0
  5  6  1  0
  6  7  2  0
  8  7  1  0
  9  8  2  0
 10 11  2  0
 12 13  1  0
 12 10  1  0
 14 15  2  0
 14 13  1  0
 16 17  1  0
 17 27  2  0
 18 17  1  0
 18 19  2  0
 19 20  1  0
 20 26  2  0
 20 21  1  0
 22 21  1  1
 22 23  1  0
 22 24  1  0
 23 14  1  0
 24 25  1  0
 27 26  1  0
 28 24  2  0
M  END
$$$$
