FGY.pdb
     RDKit          3D

 28 29  0  0  1  0  0  0  0  0999 V2000
    7.0048  -16.8938   23.3621 N   0  0  0  0  0  0  0  0  0  0  0  0
    7.1550  -15.8723   22.3725 C   0  0  1  0  0  0  0  0  0  0  0  0
    6.2365  -14.7091   22.5598 C   0  0  0  0  0  0  0  0  0  0  0  0
    6.3458  -14.2302   23.9533 C   0  0  0  0  0  0  0  0  0  0  0  0
    5.5200  -14.7115   24.9364 C   0  0  0  0  0  0  0  0  0  0  0  0
    5.6131  -14.2709   26.2432 C   0  0  0  0  0  0  0  0  0  0  0  0
    6.5824  -13.3116   26.5358 C   0  0  0  0  0  0  0  0  0  0  0  0
    7.4256  -12.8082   25.5758 C   0  0  0  0  0  0  0  0  0  0  0  0
    7.2833  -13.2858   24.2971 C   0  0  0  0  0  0  0  0  0  0  0  0
    8.5727  -15.4493   22.2681 C   0  0  0  0  0  0  0  0  0  0  0  0
    8.9476  -14.5604   21.4587 O   0  0  0  0  0  0  0  0  0  0  0  0
    9.5563  -16.0528   23.0982 N   0  0  0  0  0  0  0  0  0  0  0  0
   10.9400  -15.7054   23.0523 C   0  0  0  0  0  0  0  0  0  0  0  0
   11.7401  -16.3696   24.1131 C   0  0  0  0  0  0  0  0  0  0  0  0
   12.9931  -16.2772   24.0892 O   0  0  0  0  0  0  0  0  0  0  0  0
   10.6157  -12.5983   29.4650 O   0  0  0  0  0  0  0  0  0  0  0  0
   10.7936  -13.8892   28.9799 C   0  0  0  0  0  0  0  0  0  0  0  0
    9.9738  -14.4294   28.0136 C   0  0  0  0  0  0  0  0  0  0  0  0
   10.1179  -15.6939   27.5124 C   0  0  0  0  0  0  0  0  0  0  0  0
   11.1546  -16.5008   27.9989 C   0  0  0  0  0  0  0  0  0  0  0  0
   11.3039  -17.8776   27.4814 C   0  0  0  0  0  0  0  0  0  0  0  0
   11.9146  -17.8952   26.1265 C   0  0  2  0  0  0  0  0  0  0  0  0
   11.1635  -17.1108   25.1637 N   0  0  0  0  0  0  0  0  0  0  0  0
   11.9936  -19.2741   25.6206 C   0  0  0  0  0  0  0  0  0  0  0  0
   12.7501  -20.2030   26.3213 O   0  0  0  0  0  0  0  0  0  0  0  0
   11.9991  -15.9761   28.9792 C   0  0  0  0  0  0  0  0  0  0  0  0
   11.8172  -14.6967   29.4553 C   0  0  0  0  0  0  0  0  0  0  0  0
   11.4245  -19.7074   24.5818 O   0  0  0  0  0  0  0  0  0  0  0  0
  2  1  1  1
  2 10  1  0
  2  3  1  0
  3  4  1  0
  4  5  2  0
  4  9  1  0
  5  6  1  0
  6  7  2  0
  8  7  1  0
  9  8  2  0
 10 11  2  0
 12 13  1  0
 12 10  1  0
 14 15  2  0
 14 13  1  0
 16 17  1  0
 17 27  2  0
 18 17  1  0
 18 19  2  0
 19 20  1  0
 20 26  2  0
 20 21  1  0
 22 21  1  1
 22 23  1  0
 22 24  1  0
 23 14  1  0
 24 25  1  0
 27 26  1  0
 28 24  2  0
M  END
$$$$
