FGY.pdb
     RDKit          3D

 28 29  0  0  1  0  0  0  0  0999 V2000
    7.0284  -16.9520   19.9867 N   0  0  0  0  0  0  0  0  0  0  0  0
    8.3300  -16.3651   19.9044 C   0  0  1  0  0  0  0  0  0  0  0  0
    8.3145  -14.8893   19.6730 C   0  0  0  0  0  0  0  0  0  0  0  0
    7.9643  -14.2086   20.9368 C   0  0  0  0  0  0  0  0  0  0  0  0
    6.7627  -14.4366   21.5569 C   0  0  0  0  0  0  0  0  0  0  0  0
    6.4244  -13.8056   22.7392 C   0  0  0  0  0  0  0  0  0  0  0  0
    7.3514  -12.9203   23.2892 C   0  0  0  0  0  0  0  0  0  0  0  0
    8.5635  -12.6688   22.6947 C   0  0  0  0  0  0  0  0  0  0  0  0
    8.8404  -13.3264   21.5224 C   0  0  0  0  0  0  0  0  0  0  0  0
    9.1458  -16.7333   21.0870 C   0  0  0  0  0  0  0  0  0  0  0  0
    8.8254  -17.6811   21.8518 O   0  0  0  0  0  0  0  0  0  0  0  0
   10.3307  -16.0070   21.3857 N   0  0  0  0  0  0  0  0  0  0  0  0
   11.4138  -16.5512   22.1394 C   0  0  0  0  0  0  0  0  0  0  0  0
   11.2542  -16.3610   23.6040 C   0  0  0  0  0  0  0  0  0  0  0  0
   12.2566  -16.0600   24.2995 O   0  0  0  0  0  0  0  0  0  0  0  0
    6.0122  -11.1864   25.2519 O   0  0  0  0  0  0  0  0  0  0  0  0
    6.6038  -12.4287   25.4530 C   0  0  0  0  0  0  0  0  0  0  0  0
    5.9888  -13.6033   25.0793 C   0  0  0  0  0  0  0  0  0  0  0  0
    6.5391  -14.8424   25.2606 C   0  0  0  0  0  0  0  0  0  0  0  0
    7.8016  -14.9412   25.8598 C   0  0  0  0  0  0  0  0  0  0  0  0
    8.3944  -16.2772   26.0824 C   0  0  0  0  0  0  0  0  0  0  0  0
    9.8292  -16.3161   25.6966 C   0  0  2  0  0  0  0  0  0  0  0  0
   10.0203  -16.5016   24.2700 N   0  0  0  0  0  0  0  0  0  0  0  0
   10.5141  -17.4177   26.3900 C   0  0  0  0  0  0  0  0  0  0  0  0
   10.7486  -17.3088   27.7536 O   0  0  0  0  0  0  0  0  0  0  0  0
    8.4455  -13.7647   26.2479 C   0  0  0  0  0  0  0  0  0  0  0  0
    7.8538  -12.5376   26.0458 C   0  0  0  0  0  0  0  0  0  0  0  0
   10.9210  -18.4827   25.8506 O   0  0  0  0  0  0  0  0  0  0  0  0
  2  1  1  1
  2 10  1  0
  2  3  1  0
  3  4  1  0
  4  5  2  0
  4  9  1  0
  5  6  1  0
  6  7  2  0
  8  7  1  0
  9  8  2  0
 10 11  2  0
 12 13  1  0
 12 10  1  0
 14 15  2  0
 14 13  1  0
 16 17  1  0
 17 27  2  0
 18 17  1  0
 18 19  2  0
 19 20  1  0
 20 26  2  0
 20 21  1  0
 22 21  1  6
 22 23  1  0
 22 24  1  0
 23 14  1  0
 24 25  1  0
 27 26  1  0
 28 24  2  0
M  END
$$$$
