FGY.pdb
     RDKit          3D

 28 29  0  0  1  0  0  0  0  0999 V2000
    5.5812  -18.7657   22.5461 N   0  0  0  0  0  0  0  0  0  0  0  0
    6.3555  -17.6196   22.1825 C   0  0  1  0  0  0  0  0  0  0  0  0
    5.7579  -16.3223   22.6201 C   0  0  0  0  0  0  0  0  0  0  0  0
    6.5172  -15.2127   22.0074 C   0  0  0  0  0  0  0  0  0  0  0  0
    6.4798  -14.9882   20.6552 C   0  0  0  0  0  0  0  0  0  0  0  0
    7.1859  -13.9534   20.0711 C   0  0  0  0  0  0  0  0  0  0  0  0
    7.9460  -13.1351   20.9068 C   0  0  0  0  0  0  0  0  0  0  0  0
    8.0058  -13.3316   22.2646 C   0  0  0  0  0  0  0  0  0  0  0  0
    7.2824  -14.3758   22.7840 C   0  0  0  0  0  0  0  0  0  0  0  0
    7.7578  -17.7682   22.6423 C   0  0  0  0  0  0  0  0  0  0  0  0
    8.0550  -17.8657   23.8621 O   0  0  0  0  0  0  0  0  0  0  0  0
    8.8157  -17.8043   21.6933 N   0  0  0  0  0  0  0  0  0  0  0  0
   10.1757  -18.0557   22.0460 C   0  0  0  0  0  0  0  0  0  0  0  0
   10.9000  -16.8311   22.4730 C   0  0  0  0  0  0  0  0  0  0  0  0
   11.4480  -16.1050   21.6061 O   0  0  0  0  0  0  0  0  0  0  0  0
    9.9690  -16.9933   30.1771 O   0  0  0  0  0  0  0  0  0  0  0  0
   10.1983  -16.3707   28.9551 C   0  0  0  0  0  0  0  0  0  0  0  0
   11.1984  -15.4393   28.7824 C   0  0  0  0  0  0  0  0  0  0  0  0
   11.4537  -14.8068   27.5967 C   0  0  0  0  0  0  0  0  0  0  0  0
   10.6615  -15.1120   26.4824 C   0  0  0  0  0  0  0  0  0  0  0  0
   10.9136  -14.4159   25.2026 C   0  0  0  0  0  0  0  0  0  0  0  0
   11.7194  -15.2475   24.2710 C   0  0  2  0  0  0  0  0  0  0  0  0
   11.0095  -16.4301   23.8195 N   0  0  0  0  0  0  0  0  0  0  0  0
   12.9605  -15.6894   24.9252 C   0  0  0  0  0  0  0  0  0  0  0  0
   13.1705  -17.0479   25.1166 O   0  0  0  0  0  0  0  0  0  0  0  0
    9.6407  -16.0528   26.6320 C   0  0  0  0  0  0  0  0  0  0  0  0
    9.4191  -16.6657   27.8453 C   0  0  0  0  0  0  0  0  0  0  0  0
   13.8793  -14.9322   25.3414 O   0  0  0  0  0  0  0  0  0  0  0  0
  2  1  1  1
  2 10  1  0
  2  3  1  0
  3  4  1  0
  4  5  2  0
  4  9  1  0
  5  6  1  0
  6  7  2  0
  8  7  1  0
  9  8  2  0
 10 11  2  0
 12 13  1  0
 12 10  1  0
 14 15  2  0
 14 13  1  0
 16 17  1  0
 17 27  2  0
 18 17  1  0
 18 19  2  0
 19 20  1  0
 20 26  2  0
 20 21  1  0
 22 21  1  1
 22 23  1  0
 22 24  1  0
 23 14  1  0
 24 25  1  0
 27 26  1  0
 28 24  2  0
M  END
$$$$
