FGY.pdb
     RDKit          3D

 28 29  0  0  1  0  0  0  0  0999 V2000
    7.1848  -16.2399   24.3337 N   0  0  0  0  0  0  0  0  0  0  0  0
    7.2845  -16.9241   23.0818 C   0  0  1  0  0  0  0  0  0  0  0  0
    6.4539  -16.3221   21.9957 C   0  0  0  0  0  0  0  0  0  0  0  0
    6.9678  -14.9708   21.6909 C   0  0  0  0  0  0  0  0  0  0  0  0
    6.7479  -13.9187   22.5423 C   0  0  0  0  0  0  0  0  0  0  0  0
    7.2238  -12.6504   22.2675 C   0  0  0  0  0  0  0  0  0  0  0  0
    7.9422  -12.4701   21.0856 C   0  0  0  0  0  0  0  0  0  0  0  0
    8.1806  -13.5015   20.2107 C   0  0  0  0  0  0  0  0  0  0  0  0
    7.6820  -14.7369   20.5401 C   0  0  0  0  0  0  0  0  0  0  0  0
    8.7039  -17.0723   22.6780 C   0  0  0  0  0  0  0  0  0  0  0  0
    9.0777  -17.9516   21.8577 O   0  0  0  0  0  0  0  0  0  0  0  0
    9.6906  -16.2052   23.2217 N   0  0  0  0  0  0  0  0  0  0  0  0
   11.0608  -16.5753   23.3728 C   0  0  0  0  0  0  0  0  0  0  0  0
   11.5547  -16.4150   24.7646 C   0  0  0  0  0  0  0  0  0  0  0  0
   12.7908  -16.4490   24.9879 O   0  0  0  0  0  0  0  0  0  0  0  0
    5.8829  -12.3792   26.2735 O   0  0  0  0  0  0  0  0  0  0  0  0
    7.1398  -12.8932   26.5729 C   0  0  0  0  0  0  0  0  0  0  0  0
    7.5542  -13.1102   27.8686 C   0  0  0  0  0  0  0  0  0  0  0  0
    8.7815  -13.6140   28.2014 C   0  0  0  0  0  0  0  0  0  0  0  0
    9.6825  -13.9335   27.1773 C   0  0  0  0  0  0  0  0  0  0  0  0
   11.0206  -14.4557   27.5274 C   0  0  0  0  0  0  0  0  0  0  0  0
   11.1493  -15.9021   27.2109 C   0  0  2  0  0  0  0  0  0  0  0  0
   10.7003  -16.2235   25.8687 N   0  0  0  0  0  0  0  0  0  0  0  0
   10.3560  -16.7035   28.1553 C   0  0  0  0  0  0  0  0  0  0  0  0
    9.3854  -17.5610   27.6565 O   0  0  0  0  0  0  0  0  0  0  0  0
    9.2860  -13.7223   25.8553 C   0  0  0  0  0  0  0  0  0  0  0  0
    8.0396  -13.2128   25.5660 C   0  0  0  0  0  0  0  0  0  0  0  0
   10.4750  -16.6870   29.4108 O   0  0  0  0  0  0  0  0  0  0  0  0
  2  1  1  1
  2 10  1  0
  2  3  1  0
  3  4  1  0
  4  5  2  0
  4  9  1  0
  5  6  1  0
  6  7  2  0
  8  7  1  0
  9  8  2  0
 10 11  2  0
 12 13  1  0
 12 10  1  0
 14 15  2  0
 14 13  1  0
 16 17  1  0
 17 27  2  0
 18 17  1  0
 18 19  2  0
 19 20  1  0
 20 26  2  0
 20 21  1  0
 22 21  1  1
 22 23  1  0
 22 24  1  0
 23 14  1  0
 24 25  1  0
 27 26  1  0
 28 24  2  0
M  END
$$$$
