FGY.pdb
     RDKit          3D

 28 29  0  0  1  0  0  0  0  0999 V2000
    6.8329  -17.2411   22.7523 N   0  0  0  0  0  0  0  0  0  0  0  0
    7.4683  -17.1688   21.4731 C   0  0  1  0  0  0  0  0  0  0  0  0
    6.7504  -16.3040   20.4890 C   0  0  0  0  0  0  0  0  0  0  0  0
    7.1442  -14.8970   20.7090 C   0  0  0  0  0  0  0  0  0  0  0  0
    7.8693  -14.2077   19.7713 C   0  0  0  0  0  0  0  0  0  0  0  0
    8.2432  -12.8913   19.9663 C   0  0  0  0  0  0  0  0  0  0  0  0
    7.8570  -12.2779   21.1579 C   0  0  0  0  0  0  0  0  0  0  0  0
    7.1306  -12.9387   22.1181 C   0  0  0  0  0  0  0  0  0  0  0  0
    6.7902  -14.2439   21.8653 C   0  0  0  0  0  0  0  0  0  0  0  0
    8.8927  -16.7813   21.6175 C   0  0  0  0  0  0  0  0  0  0  0  0
    9.7580  -17.0790   20.7524 O   0  0  0  0  0  0  0  0  0  0  0  0
    9.3169  -16.0504   22.7606 N   0  0  0  0  0  0  0  0  0  0  0  0
   10.6789  -15.7008   23.0056 C   0  0  0  0  0  0  0  0  0  0  0  0
   11.0662  -15.8420   24.4327 C   0  0  0  0  0  0  0  0  0  0  0  0
   12.2421  -15.5701   24.7823 O   0  0  0  0  0  0  0  0  0  0  0  0
    6.6072  -11.2112   26.0002 O   0  0  0  0  0  0  0  0  0  0  0  0
    7.2660  -12.3652   26.4098 C   0  0  0  0  0  0  0  0  0  0  0  0
    6.7819  -13.6244   26.1313 C   0  0  0  0  0  0  0  0  0  0  0  0
    7.4017  -14.7812   26.5172 C   0  0  0  0  0  0  0  0  0  0  0  0
    8.5998  -14.6991   27.2385 C   0  0  0  0  0  0  0  0  0  0  0  0
    9.2647  -15.9431   27.6813 C   0  0  0  0  0  0  0  0  0  0  0  0
   10.4622  -16.2528   26.8573 C   0  0  2  0  0  0  0  0  0  0  0  0
   10.1735  -16.2714   25.4351 N   0  0  0  0  0  0  0  0  0  0  0  0
   11.0069  -17.5691   27.2236 C   0  0  0  0  0  0  0  0  0  0  0  0
   11.4146  -17.7853   28.5325 O   0  0  0  0  0  0  0  0  0  0  0  0
    9.1110  -13.4337   27.5336 C   0  0  0  0  0  0  0  0  0  0  0  0
    8.4532  -12.2948   27.1248 C   0  0  0  0  0  0  0  0  0  0  0  0
   11.1437  -18.5491   26.4416 O   0  0  0  0  0  0  0  0  0  0  0  0
  2  1  1  1
  2 10  1  0
  2  3  1  0
  3  4  1  0
  4  5  2  0
  4  9  1  0
  5  6  1  0
  6  7  2  0
  8  7  1  0
  9  8  2  0
 10 11  2  0
 12 13  1  0
 12 10  1  0
 14 15  2  0
 14 13  1  0
 16 17  1  0
 17 27  2  0
 18 17  1  0
 18 19  2  0
 19 20  1  0
 20 26  2  0
 20 21  1  0
 22 21  1  1
 22 23  1  0
 22 24  1  0
 23 14  1  0
 24 25  1  0
 27 26  1  0
 28 24  2  0
M  END
$$$$
