FGY.pdb
     RDKit          3D

 28 29  0  0  1  0  0  0  0  0999 V2000
    7.3416  -17.2409   22.7022 N   0  0  0  0  0  0  0  0  0  0  0  0
    7.8010  -16.2051   21.8296 C   0  0  1  0  0  0  0  0  0  0  0  0
    7.0219  -14.9349   21.9360 C   0  0  0  0  0  0  0  0  0  0  0  0
    7.0176  -14.4905   23.3452 C   0  0  0  0  0  0  0  0  0  0  0  0
    7.4569  -13.2401   23.6968 C   0  0  0  0  0  0  0  0  0  0  0  0
    7.4575  -12.8137   25.0116 C   0  0  0  0  0  0  0  0  0  0  0  0
    6.9929  -13.7025   25.9810 C   0  0  0  0  0  0  0  0  0  0  0  0
    6.5459  -14.9617   25.6638 C   0  0  0  0  0  0  0  0  0  0  0  0
    6.5704  -15.3258   24.3408 C   0  0  0  0  0  0  0  0  0  0  0  0
    9.2564  -15.9802   22.0052 C   0  0  0  0  0  0  0  0  0  0  0  0
    9.8702  -15.0648   21.3959 O   0  0  0  0  0  0  0  0  0  0  0  0
   10.0022  -16.8123   22.8840 N   0  0  0  0  0  0  0  0  0  0  0  0
   11.4153  -16.7047   23.0535 C   0  0  0  0  0  0  0  0  0  0  0  0
   11.8318  -16.7291   24.4792 C   0  0  0  0  0  0  0  0  0  0  0  0
   13.0106  -16.4169   24.7826 O   0  0  0  0  0  0  0  0  0  0  0  0
    8.8339  -11.4292   27.4474 O   0  0  0  0  0  0  0  0  0  0  0  0
    9.2070  -12.7646   27.5525 C   0  0  0  0  0  0  0  0  0  0  0  0
    8.4674  -13.7798   26.9867 C   0  0  0  0  0  0  0  0  0  0  0  0
    8.8027  -15.1034   27.0689 C   0  0  0  0  0  0  0  0  0  0  0  0
    9.9629  -15.4658   27.7655 C   0  0  0  0  0  0  0  0  0  0  0  0
   10.3209  -16.8955   27.8809 C   0  0  0  0  0  0  0  0  0  0  0  0
   11.3765  -17.2809   26.9082 C   0  0  2  0  0  0  0  0  0  0  0  0
   10.9645  -17.0892   25.5299 N   0  0  0  0  0  0  0  0  0  0  0  0
   11.7344  -18.6974   27.0786 C   0  0  0  0  0  0  0  0  0  0  0  0
   11.4083  -19.5969   26.0732 O   0  0  0  0  0  0  0  0  0  0  0  0
   10.7296  -14.4549   28.3484 C   0  0  0  0  0  0  0  0  0  0  0  0
   10.3542  -13.1342   28.2404 C   0  0  0  0  0  0  0  0  0  0  0  0
   12.3260  -19.1887   28.0782 O   0  0  0  0  0  0  0  0  0  0  0  0
  2  1  1  1
  2 10  1  0
  2  3  1  0
  3  4  1  0
  4  5  2  0
  4  9  1  0
  5  6  1  0
  6  7  2  0
  8  7  1  0
  9  8  2  0
 10 11  2  0
 12 13  1  0
 12 10  1  0
 14 15  2  0
 14 13  1  0
 16 17  1  0
 17 27  2  0
 18 17  1  0
 18 19  2  0
 19 20  1  0
 20 26  2  0
 20 21  1  0
 22 21  1  1
 22 23  1  0
 22 24  1  0
 23 14  1  0
 24 25  1  0
 27 26  1  0
 28 24  2  0
M  END
$$$$
