FGY.pdb
     RDKit          3D

 28 29  0  0  1  0  0  0  0  0999 V2000
    8.3603  -16.4286   20.0857 N   0  0  0  0  0  0  0  0  0  0  0  0
    8.9101  -16.5911   21.3959 C   0  0  1  0  0  0  0  0  0  0  0  0
    8.5453  -15.4966   22.3449 C   0  0  0  0  0  0  0  0  0  0  0  0
    8.1476  -14.3024   21.5711 C   0  0  0  0  0  0  0  0  0  0  0  0
    7.9648  -14.3644   20.2136 C   0  0  0  0  0  0  0  0  0  0  0  0
    7.5928  -13.2539   19.4796 C   0  0  0  0  0  0  0  0  0  0  0  0
    7.4067  -12.0551   20.1678 C   0  0  0  0  0  0  0  0  0  0  0  0
    7.5811  -11.9577   21.5265 C   0  0  0  0  0  0  0  0  0  0  0  0
    7.9507  -13.0957   22.1988 C   0  0  0  0  0  0  0  0  0  0  0  0
    8.5796  -17.9308   21.9396 C   0  0  0  0  0  0  0  0  0  0  0  0
    7.8280  -18.7345   21.3271 O   0  0  0  0  0  0  0  0  0  0  0  0
    9.1169  -18.3415   23.1900 N   0  0  0  0  0  0  0  0  0  0  0  0
   10.2238  -17.6945   23.8172 C   0  0  0  0  0  0  0  0  0  0  0  0
    9.9766  -17.3788   25.2475 C   0  0  0  0  0  0  0  0  0  0  0  0
    9.2321  -18.1309   25.9252 O   0  0  0  0  0  0  0  0  0  0  0  0
    5.9600  -11.7097   25.4915 O   0  0  0  0  0  0  0  0  0  0  0  0
    6.7034  -12.7491   26.0397 C   0  0  0  0  0  0  0  0  0  0  0  0
    6.2260  -14.0399   26.1005 C   0  0  0  0  0  0  0  0  0  0  0  0
    6.9276  -15.0871   26.6317 C   0  0  0  0  0  0  0  0  0  0  0  0
    8.2081  -14.8513   27.1487 C   0  0  0  0  0  0  0  0  0  0  0  0
    8.9646  -15.9717   27.7471 C   0  0  0  0  0  0  0  0  0  0  0  0
   10.3861  -15.9725   27.3131 C   0  0  2  0  0  0  0  0  0  0  0  0
   10.5396  -16.2636   25.8996 N   0  0  0  0  0  0  0  0  0  0  0  0
   11.1487  -16.9800   28.0660 C   0  0  0  0  0  0  0  0  0  0  0  0
   11.4171  -16.7524   29.4085 O   0  0  0  0  0  0  0  0  0  0  0  0
    8.7142  -13.5510   27.0990 C   0  0  0  0  0  0  0  0  0  0  0  0
    7.9726  -12.5261   26.5546 C   0  0  0  0  0  0  0  0  0  0  0  0
   11.5956  -18.0622   27.5970 O   0  0  0  0  0  0  0  0  0  0  0  0
  2  1  1  6
  2 10  1  0
  2  3  1  0
  3  4  1  0
  4  5  2  0
  4  9  1  0
  5  6  1  0
  6  7  2  0
  8  7  1  0
  9  8  2  0
 10 11  2  0
 12 13  1  0
 12 10  1  0
 14 15  2  0
 14 13  1  0
 16 17  1  0
 17 27  2  0
 18 17  1  0
 18 19  2  0
 19 20  1  0
 20 26  2  0
 20 21  1  0
 22 21  1  1
 22 23  1  0
 22 24  1  0
 23 14  1  0
 24 25  1  0
 27 26  1  0
 28 24  2  0
M  END
$$$$
