FGY.pdb
     RDKit          3D

 28 29  0  0  1  0  0  0  0  0999 V2000
    6.9444  -17.3124   25.2371 N   0  0  0  0  0  0  0  0  0  0  0  0
    6.3813  -16.8130   24.0210 C   0  0  1  0  0  0  0  0  0  0  0  0
    5.6933  -15.4953   24.1694 C   0  0  0  0  0  0  0  0  0  0  0  0
    6.5463  -14.5958   24.9735 C   0  0  0  0  0  0  0  0  0  0  0  0
    7.5748  -13.8928   24.4008 C   0  0  0  0  0  0  0  0  0  0  0  0
    8.3791  -13.0486   25.1431 C   0  0  0  0  0  0  0  0  0  0  0  0
    8.1108  -12.9315   26.5068 C   0  0  0  0  0  0  0  0  0  0  0  0
    7.0891  -13.6208   27.1125 C   0  0  0  0  0  0  0  0  0  0  0  0
    6.3263  -14.4430   26.3215 C   0  0  0  0  0  0  0  0  0  0  0  0
    7.4003  -16.7892   22.9436 C   0  0  0  0  0  0  0  0  0  0  0  0
    7.2172  -16.1684   21.8633 O   0  0  0  0  0  0  0  0  0  0  0  0
    8.6298  -17.4820   23.1142 N   0  0  0  0  0  0  0  0  0  0  0  0
    9.7182  -17.3835   22.1961 C   0  0  0  0  0  0  0  0  0  0  0  0
   10.8988  -16.6871   22.7688 C   0  0  0  0  0  0  0  0  0  0  0  0
   11.9175  -16.5114   22.0544 O   0  0  0  0  0  0  0  0  0  0  0  0
    9.7232  -16.8282   30.4363 O   0  0  0  0  0  0  0  0  0  0  0  0
   10.1947  -16.2398   29.2679 C   0  0  0  0  0  0  0  0  0  0  0  0
    9.9982  -16.8088   28.0288 C   0  0  0  0  0  0  0  0  0  0  0  0
   10.4466  -16.2599   26.8589 C   0  0  0  0  0  0  0  0  0  0  0  0
   11.1486  -15.0484   26.9049 C   0  0  0  0  0  0  0  0  0  0  0  0
   11.6586  -14.4594   25.6485 C   0  0  0  0  0  0  0  0  0  0  0  0
   12.0718  -15.5047   24.6761 C   0  0  2  0  0  0  0  0  0  0  0  0
   10.9420  -16.2034   24.0917 N   0  0  0  0  0  0  0  0  0  0  0  0
   12.9280  -16.5035   25.3340 C   0  0  0  0  0  0  0  0  0  0  0  0
   12.5310  -17.8334   25.3304 O   0  0  0  0  0  0  0  0  0  0  0  0
   11.3611  -14.4518   28.1493 C   0  0  0  0  0  0  0  0  0  0  0  0
   10.8914  -15.0401   29.3026 C   0  0  0  0  0  0  0  0  0  0  0  0
   14.0194  -16.2625   25.9182 O   0  0  0  0  0  0  0  0  0  0  0  0
  2  1  1  1
  2 10  1  0
  2  3  1  0
  3  4  1  0
  4  5  2  0
  4  9  1  0
  5  6  1  0
  6  7  2  0
  8  7  1  0
  9  8  2  0
 10 11  2  0
 12 13  1  0
 12 10  1  0
 14 15  2  0
 14 13  1  0
 16 17  1  0
 17 27  2  0
 18 17  1  0
 18 19  2  0
 19 20  1  0
 20 26  2  0
 20 21  1  0
 22 21  1  1
 22 23  1  0
 22 24  1  0
 23 14  1  0
 24 25  1  0
 27 26  1  0
 28 24  2  0
M  END
$$$$
