FGY.pdb
     RDKit          3D

 28 29  0  0  1  0  0  0  0  0999 V2000
    8.8116  -15.2283   24.7732 N   0  0  0  0  0  0  0  0  0  0  0  0
    7.8403  -15.2985   23.7258 C   0  0  1  0  0  0  0  0  0  0  0  0
    7.1435  -14.0042   23.4595 C   0  0  0  0  0  0  0  0  0  0  0  0
    7.0903  -13.2207   24.7110 C   0  0  0  0  0  0  0  0  0  0  0  0
    6.2503  -13.5748   25.7353 C   0  0  0  0  0  0  0  0  0  0  0  0
    6.1922  -12.8494   26.9104 C   0  0  0  0  0  0  0  0  0  0  0  0
    7.0223  -11.7344   27.0252 C   0  0  0  0  0  0  0  0  0  0  0  0
    7.8753  -11.3518   26.0192 C   0  0  0  0  0  0  0  0  0  0  0  0
    7.8867  -12.1130   24.8774 C   0  0  0  0  0  0  0  0  0  0  0  0
    8.4384  -15.8707   22.4951 C   0  0  0  0  0  0  0  0  0  0  0  0
    9.0724  -15.1635   21.6682 O   0  0  0  0  0  0  0  0  0  0  0  0
    8.3039  -17.2589   22.2200 N   0  0  0  0  0  0  0  0  0  0  0  0
    9.4145  -18.1515   22.1347 C   0  0  0  0  0  0  0  0  0  0  0  0
   10.6902  -17.5341   22.5795 C   0  0  0  0  0  0  0  0  0  0  0  0
   11.5989  -17.3218   21.7379 O   0  0  0  0  0  0  0  0  0  0  0  0
    9.9670  -15.9912   30.3334 O   0  0  0  0  0  0  0  0  0  0  0  0
   10.5087  -15.8468   29.0609 C   0  0  0  0  0  0  0  0  0  0  0  0
    9.8166  -15.2458   28.0326 C   0  0  0  0  0  0  0  0  0  0  0  0
   10.3162  -15.0859   26.7694 C   0  0  0  0  0  0  0  0  0  0  0  0
   11.6058  -15.5548   26.4872 C   0  0  0  0  0  0  0  0  0  0  0  0
   12.1457  -15.4087   25.1186 C   0  0  0  0  0  0  0  0  0  0  0  0
   12.2299  -16.7154   24.4156 C   0  0  2  0  0  0  0  0  0  0  0  0
   10.9440  -17.1661   23.9160 N   0  0  0  0  0  0  0  0  0  0  0  0
   12.7486  -17.7503   25.3230 C   0  0  0  0  0  0  0  0  0  0  0  0
   14.0537  -17.6454   25.7834 O   0  0  0  0  0  0  0  0  0  0  0  0
   12.3278  -16.1682   27.5128 C   0  0  0  0  0  0  0  0  0  0  0  0
   11.7851  -16.3080   28.7709 C   0  0  0  0  0  0  0  0  0  0  0  0
   12.1044  -18.7531   25.7356 O   0  0  0  0  0  0  0  0  0  0  0  0
  2  1  1  1
  2 10  1  0
  2  3  1  0
  3  4  1  0
  4  5  2  0
  4  9  1  0
  5  6  1  0
  6  7  2  0
  8  7  1  0
  9  8  2  0
 10 11  2  0
 12 13  1  0
 12 10  1  0
 14 15  2  0
 14 13  1  0
 16 17  1  0
 17 27  2  0
 18 17  1  0
 18 19  2  0
 19 20  1  0
 20 26  2  0
 20 21  1  0
 22 21  1  1
 22 23  1  0
 22 24  1  0
 23 14  1  0
 24 25  1  0
 27 26  1  0
 28 24  2  0
M  END
$$$$
