FGY.pdb
     RDKit          3D

 28 29  0  0  1  0  0  0  0  0999 V2000
    7.4408  -16.9810   25.7551 N   0  0  0  0  0  0  0  0  0  0  0  0
    6.6302  -16.6867   24.6142 C   0  0  1  0  0  0  0  0  0  0  0  0
    5.6830  -15.5503   24.8220 C   0  0  0  0  0  0  0  0  0  0  0  0
    6.4581  -14.3241   25.1025 C   0  0  0  0  0  0  0  0  0  0  0  0
    6.6026  -13.8525   26.3819 C   0  0  0  0  0  0  0  0  0  0  0  0
    7.3253  -12.7066   26.6561 C   0  0  0  0  0  0  0  0  0  0  0  0
    7.9097  -12.0366   25.5814 C   0  0  0  0  0  0  0  0  0  0  0  0
    7.7850  -12.4811   24.2880 C   0  0  0  0  0  0  0  0  0  0  0  0
    7.0550  -13.6247   24.0810 C   0  0  0  0  0  0  0  0  0  0  0  0
    7.4731  -16.4938   23.4091 C   0  0  0  0  0  0  0  0  0  0  0  0
    7.0306  -15.9490   22.3635 O   0  0  0  0  0  0  0  0  0  0  0  0
    8.8261  -16.9301   23.4122 N   0  0  0  0  0  0  0  0  0  0  0  0
    9.7495  -16.6253   22.3674 C   0  0  0  0  0  0  0  0  0  0  0  0
   11.0992  -16.2656   22.8731 C   0  0  0  0  0  0  0  0  0  0  0  0
   11.9925  -15.9248   22.0576 O   0  0  0  0  0  0  0  0  0  0  0  0
    9.7187  -16.5439   30.3807 O   0  0  0  0  0  0  0  0  0  0  0  0
   10.4119  -16.1152   29.2540 C   0  0  0  0  0  0  0  0  0  0  0  0
   11.7342  -16.4364   29.0399 C   0  0  0  0  0  0  0  0  0  0  0  0
   12.4481  -16.0336   27.9448 C   0  0  0  0  0  0  0  0  0  0  0  0
   11.8131  -15.2479   26.9743 C   0  0  0  0  0  0  0  0  0  0  0  0
   12.5827  -14.7870   25.7991 C   0  0  0  0  0  0  0  0  0  0  0  0
   12.7198  -15.8553   24.7750 C   0  0  2  0  0  0  0  0  0  0  0  0
   11.4410  -16.2852   24.2401 N   0  0  0  0  0  0  0  0  0  0  0  0
   13.3855  -17.0330   25.3523 C   0  0  0  0  0  0  0  0  0  0  0  0
   14.6927  -16.9108   25.8023 O   0  0  0  0  0  0  0  0  0  0  0  0
   10.4727  -14.9085   27.1687 C   0  0  0  0  0  0  0  0  0  0  0  0
    9.7922  -15.3365   28.2869 C   0  0  0  0  0  0  0  0  0  0  0  0
   12.8695  -18.1765   25.4821 O   0  0  0  0  0  0  0  0  0  0  0  0
  2  1  1  1
  2 10  1  0
  2  3  1  0
  3  4  1  0
  4  5  2  0
  4  9  1  0
  5  6  1  0
  6  7  2  0
  8  7  1  0
  9  8  2  0
 10 11  2  0
 12 13  1  0
 12 10  1  0
 14 15  2  0
 14 13  1  0
 16 17  1  0
 17 27  2  0
 18 17  1  0
 18 19  2  0
 19 20  1  0
 20 26  2  0
 20 21  1  0
 22 21  1  1
 22 23  1  0
 22 24  1  0
 23 14  1  0
 24 25  1  0
 27 26  1  0
 28 24  2  0
M  END
$$$$
