AAT.pdb
     RDKit          3D

 18 17  0  0  1  0  0  0  0  0999 V2000
    7.3371  -12.7473   18.6141 C   0  0  0  0  0  0  0  0  0  0  0  0
    8.4885  -13.4456   19.3063 C   0  0  2  0  0  0  0  0  0  0  0  0
    8.9718  -14.5310   18.4896 N   0  0  0  0  0  0  0  0  0  0  0  0
    8.1052  -13.9001   20.6711 C   0  0  0  0  0  0  0  0  0  0  0  0
    7.7602  -13.0361   21.5140 O   0  0  0  0  0  0  0  0  0  0  0  0
    7.6046  -17.2864   22.3495 C   0  0  0  0  0  0  0  0  0  0  0  0
    7.5849  -15.7720   22.2956 C   0  0  2  0  0  0  0  0  0  0  0  0
    8.1130  -15.2666   21.0599 N   0  0  0  0  0  0  0  0  0  0  0  0
    8.2395  -15.2059   23.4848 C   0  0  0  0  0  0  0  0  0  0  0  0
    9.4794  -15.0194   23.5950 O   0  0  0  0  0  0  0  0  0  0  0  0
    6.8549  -12.0450   25.6851 C   0  0  0  0  0  0  0  0  0  0  0  0
    7.0030  -13.3417   26.4102 C   0  0  1  0  0  0  0  0  0  0  0  0
    5.7898  -13.9862   26.5230 O   0  0  0  0  0  0  0  0  0  0  0  0
    8.0414  -14.2480   25.7931 C   0  0  2  0  0  0  0  0  0  0  0  0
    7.4288  -14.8395   24.5936 N   0  0  0  0  0  0  0  0  0  0  0  0
    8.3524  -15.3225   26.7571 C   0  0  0  0  0  0  0  0  0  0  0  0
    7.9887  -16.4854   26.5181 O   0  0  0  0  0  0  0  0  0  0  0  0
    9.0523  -15.0825   27.9509 O   0  0  0  0  0  0  0  0  0  0  0  0
  2  1  1  6
  2  3  1  0
  4  2  1  0
  5  4  2  0
  7  6  1  6
  7  8  1  0
  8  4  1  0
  9  7  1  0
  9 15  1  0
 10  9  2  0
 12 11  1  6
 12 14  1  0
 12 13  1  0
 14 15  1  6
 14 16  1  0
 16 18  1  0
 17 16  2  0
M  END
$$$$
