AAT.pdb
     RDKit          3D

 18 17  0  0  1  0  0  0  0  0999 V2000
    7.3242  -14.3259   14.4387 C   0  0  0  0  0  0  0  0  0  0  0  0
    8.6566  -14.6056   15.1014 C   0  0  2  0  0  0  0  0  0  0  0  0
    9.4103  -15.5519   14.3172 N   0  0  0  0  0  0  0  0  0  0  0  0
    8.4776  -15.0609   16.5075 C   0  0  0  0  0  0  0  0  0  0  0  0
    7.9672  -14.2649   17.3333 O   0  0  0  0  0  0  0  0  0  0  0  0
    9.0241  -18.3255   18.3996 C   0  0  0  0  0  0  0  0  0  0  0  0
    8.6359  -16.8657   18.2770 C   0  0  2  0  0  0  0  0  0  0  0  0
    8.8588  -16.3547   16.9540 N   0  0  0  0  0  0  0  0  0  0  0  0
    9.2884  -16.0696   19.3275 C   0  0  0  0  0  0  0  0  0  0  0  0
   10.4282  -15.5462   19.2209 O   0  0  0  0  0  0  0  0  0  0  0  0
    8.0397  -12.9301   21.1447 C   0  0  0  0  0  0  0  0  0  0  0  0
    8.1880  -14.0787   22.0870 C   0  0  1  0  0  0  0  0  0  0  0  0
    6.9729  -14.6858   22.3213 O   0  0  0  0  0  0  0  0  0  0  0  0
    9.2172  -15.0861   21.6325 C   0  0  2  0  0  0  0  0  0  0  0  0
    8.5962  -15.8688   20.5529 N   0  0  0  0  0  0  0  0  0  0  0  0
    9.5222  -15.9824   22.7657 C   0  0  0  0  0  0  0  0  0  0  0  0
    9.1395  -17.1631   22.7344 O   0  0  0  0  0  0  0  0  0  0  0  0
   10.2374  -15.5506   23.8947 O   0  0  0  0  0  0  0  0  0  0  0  0
  2  1  1  6
  2  3  1  0
  4  2  1  0
  5  4  2  0
  7  6  1  6
  7  8  1  0
  8  4  1  0
  9  7  1  0
  9 15  1  0
 10  9  2  0
 12 11  1  6
 12 14  1  0
 12 13  1  0
 14 15  1  6
 14 16  1  0
 16 18  1  0
 17 16  2  0
M  END
$$$$
