AAT.pdb
     RDKit          3D

 18 17  0  0  1  0  0  0  0  0999 V2000
    8.2816  -12.3877   19.3763 C   0  0  0  0  0  0  0  0  0  0  0  0
    8.3594  -13.8995   19.4114 C   0  0  2  0  0  0  0  0  0  0  0  0
    7.5785  -14.4601   18.3369 N   0  0  0  0  0  0  0  0  0  0  0  0
    7.9483  -14.4327   20.7391 C   0  0  0  0  0  0  0  0  0  0  0  0
    6.7231  -14.4917   21.0064 O   0  0  0  0  0  0  0  0  0  0  0  0
    9.1711  -16.8341   23.1589 C   0  0  0  0  0  0  0  0  0  0  0  0
    8.5318  -15.4726   22.9733 C   0  0  2  0  0  0  0  0  0  0  0  0
    8.8809  -14.8767   21.7146 N   0  0  0  0  0  0  0  0  0  0  0  0
    8.8183  -14.6077   24.1278 C   0  0  0  0  0  0  0  0  0  0  0  0
    9.9066  -14.0029   24.3126 O   0  0  0  0  0  0  0  0  0  0  0  0
    6.5666  -11.7025   25.8163 C   0  0  0  0  0  0  0  0  0  0  0  0
    6.7958  -12.9139   26.6585 C   0  0  1  0  0  0  0  0  0  0  0  0
    5.7162  -13.7687   26.5989 O   0  0  0  0  0  0  0  0  0  0  0  0
    8.0772  -13.6366   26.3170 C   0  0  2  0  0  0  0  0  0  0  0  0
    7.8060  -14.4332   25.1105 N   0  0  0  0  0  0  0  0  0  0  0  0
    8.4093  -14.5457   27.4323 C   0  0  0  0  0  0  0  0  0  0  0  0
    8.3341  -15.7738   27.2659 O   0  0  0  0  0  0  0  0  0  0  0  0
    8.8129  -14.0743   28.6922 O   0  0  0  0  0  0  0  0  0  0  0  0
  2  1  1  1
  2  3  1  0
  4  2  1  0
  5  4  2  0
  7  6  1  1
  7  8  1  0
  8  4  1  0
  9  7  1  0
  9 15  1  0
 10  9  2  0
 12 11  1  6
 12 14  1  0
 12 13  1  0
 14 15  1  6
 14 16  1  0
 16 18  1  0
 17 16  2  0
M  END
$$$$
