AAT.pdb
     RDKit          3D

 18 17  0  0  1  0  0  0  0  0999 V2000
    9.9844  -17.1214   17.5721 C   0  0  0  0  0  0  0  0  0  0  0  0
    9.3528  -17.2270   18.9442 C   0  0  2  0  0  0  0  0  0  0  0  0
    8.0370  -17.8070   18.8397 N   0  0  0  0  0  0  0  0  0  0  0  0
    9.3296  -15.9076   19.6333 C   0  0  0  0  0  0  0  0  0  0  0  0
   10.4201  -15.4053   19.9999 O   0  0  0  0  0  0  0  0  0  0  0  0
    6.7406  -13.2146   20.2884 C   0  0  0  0  0  0  0  0  0  0  0  0
    8.0568  -13.9190   20.5494 C   0  0  2  0  0  0  0  0  0  0  0  0
    8.1289  -15.1940   19.8933 N   0  0  0  0  0  0  0  0  0  0  0  0
    8.3253  -13.9899   21.9936 C   0  0  0  0  0  0  0  0  0  0  0  0
    8.3919  -12.9907   22.7562 O   0  0  0  0  0  0  0  0  0  0  0  0
    6.3446  -15.9624   24.5089 C   0  0  0  0  0  0  0  0  0  0  0  0
    7.7623  -16.4303   24.5302 C   0  0  1  0  0  0  0  0  0  0  0  0
    7.9038  -17.6101   23.8316 O   0  0  0  0  0  0  0  0  0  0  0  0
    8.7356  -15.3878   24.0339 C   0  0  2  0  0  0  0  0  0  0  0  0
    8.5252  -15.2681   22.5829 N   0  0  0  0  0  0  0  0  0  0  0  0
   10.1067  -15.8753   24.2850 C   0  0  0  0  0  0  0  0  0  0  0  0
   10.8425  -16.1585   23.3259 O   0  0  0  0  0  0  0  0  0  0  0  0
   10.6225  -16.0348   25.5816 O   0  0  0  0  0  0  0  0  0  0  0  0
  2  1  1  6
  2  3  1  0
  4  2  1  0
  5  4  2  0
  7  6  1  1
  7  8  1  0
  8  4  1  0
  9  7  1  0
  9 15  1  0
 10  9  2  0
 12 11  1  6
 12 14  1  0
 12 13  1  0
 14 15  1  6
 14 16  1  0
 16 18  1  0
 17 16  2  0
M  END
$$$$
