AAT.pdb
     RDKit          3D

 18 17  0  0  1  0  0  0  0  0999 V2000
    8.3104  -12.4349   19.5372 C   0  0  0  0  0  0  0  0  0  0  0  0
    8.2161  -13.9459   19.5632 C   0  0  2  0  0  0  0  0  0  0  0  0
    7.2656  -14.3993   18.5785 N   0  0  0  0  0  0  0  0  0  0  0  0
    7.8899  -14.4453   20.9272 C   0  0  0  0  0  0  0  0  0  0  0  0
    6.7058  -14.3470   21.3325 O   0  0  0  0  0  0  0  0  0  0  0  0
    9.3226  -16.8787   23.3236 C   0  0  0  0  0  0  0  0  0  0  0  0
    8.5806  -15.5792   23.0837 C   0  0  2  0  0  0  0  0  0  0  0  0
    8.8589  -15.0271   21.7880 N   0  0  0  0  0  0  0  0  0  0  0  0
    8.8257  -14.6357   24.1849 C   0  0  0  0  0  0  0  0  0  0  0  0
    9.8506  -13.9125   24.2891 O   0  0  0  0  0  0  0  0  0  0  0  0
    6.5547  -11.7917   25.6667 C   0  0  0  0  0  0  0  0  0  0  0  0
    6.7950  -12.9080   26.6287 C   0  0  1  0  0  0  0  0  0  0  0  0
    5.7259  -13.7776   26.6536 O   0  0  0  0  0  0  0  0  0  0  0  0
    8.0863  -13.6458   26.3664 C   0  0  2  0  0  0  0  0  0  0  0  0
    7.8465  -14.5217   25.2092 N   0  0  0  0  0  0  0  0  0  0  0  0
    8.3943  -14.4776   27.5469 C   0  0  0  0  0  0  0  0  0  0  0  0
    8.3486  -15.7150   27.4544 O   0  0  0  0  0  0  0  0  0  0  0  0
    8.7420  -13.9215   28.7888 O   0  0  0  0  0  0  0  0  0  0  0  0
  2  1  1  1
  2  3  1  0
  4  2  1  0
  5  4  2  0
  7  6  1  1
  7  8  1  0
  8  4  1  0
  9  7  1  0
  9 15  1  0
 10  9  2  0
 12 11  1  6
 12 14  1  0
 12 13  1  0
 14 15  1  6
 14 16  1  0
 16 18  1  0
 17 16  2  0
M  END
$$$$
