AAT.pdb
     RDKit          3D

 18 17  0  0  1  0  0  0  0  0999 V2000
    9.4667  -16.8294   15.8177 C   0  0  0  0  0  0  0  0  0  0  0  0
    8.7311  -17.1344   17.1056 C   0  0  2  0  0  0  0  0  0  0  0  0
    7.3082  -17.1397   16.8732 N   0  0  0  0  0  0  0  0  0  0  0  0
    9.1178  -16.1881   18.1879 C   0  0  0  0  0  0  0  0  0  0  0  0
   10.2796  -16.2601   18.6580 O   0  0  0  0  0  0  0  0  0  0  0  0
    7.5511  -13.1564   19.8617 C   0  0  0  0  0  0  0  0  0  0  0  0
    8.5495  -14.2928   19.7685 C   0  0  2  0  0  0  0  0  0  0  0  0
    8.2305  -15.2093   18.7104 N   0  0  0  0  0  0  0  0  0  0  0  0
    8.7105  -14.9452   21.0767 C   0  0  0  0  0  0  0  0  0  0  0  0
    7.7930  -15.0682   21.9296 O   0  0  0  0  0  0  0  0  0  0  0  0
    9.0655  -18.3245   21.7619 C   0  0  0  0  0  0  0  0  0  0  0  0
   10.3313  -17.6959   22.2433 C   0  0  1  0  0  0  0  0  0  0  0  0
   11.3341  -17.8238   21.3063 O   0  0  0  0  0  0  0  0  0  0  0  0
   10.1554  -16.2532   22.6536 C   0  0  2  0  0  0  0  0  0  0  0  0
    9.9842  -15.4782   21.4151 N   0  0  0  0  0  0  0  0  0  0  0  0
   11.3883  -15.8101   23.3348 C   0  0  0  0  0  0  0  0  0  0  0  0
   12.1988  -15.0902   22.7295 O   0  0  0  0  0  0  0  0  0  0  0  0
   11.6885  -16.1732   24.6579 O   0  0  0  0  0  0  0  0  0  0  0  0
  2  1  1  6
  2  3  1  0
  4  2  1  0
  5  4  2  0
  7  6  1  1
  7  8  1  0
  8  4  1  0
  9  7  1  0
  9 15  1  0
 10  9  2  0
 12 11  1  6
 12 14  1  0
 12 13  1  0
 14 15  1  6
 14 16  1  0
 16 18  1  0
 17 16  2  0
M  END
$$$$
