AAT.pdb
     RDKit          3D

 18 17  0  0  1  0  0  0  0  0999 V2000
    9.7476  -12.7492   19.6596 C   0  0  0  0  0  0  0  0  0  0  0  0
    8.5895  -13.7177   19.5437 C   0  0  2  0  0  0  0  0  0  0  0  0
    7.5913  -13.1901   18.6471 N   0  0  0  0  0  0  0  0  0  0  0  0
    8.0229  -14.0476   20.8802 C   0  0  0  0  0  0  0  0  0  0  0  0
    7.2186  -13.2388   21.4048 O   0  0  0  0  0  0  0  0  0  0  0  0
    7.9913  -17.0815   23.1559 C   0  0  0  0  0  0  0  0  0  0  0  0
    7.8217  -15.6032   22.8685 C   0  0  2  0  0  0  0  0  0  0  0  0
    8.3524  -15.2357   21.5861 N   0  0  0  0  0  0  0  0  0  0  0  0
    8.3607  -14.7985   23.9753 C   0  0  0  0  0  0  0  0  0  0  0  0
    9.5480  -14.3863   24.0446 O   0  0  0  0  0  0  0  0  0  0  0  0
    6.8082  -11.5539   25.8890 C   0  0  0  0  0  0  0  0  0  0  0  0
    6.9061  -12.8128   26.6858 C   0  0  1  0  0  0  0  0  0  0  0  0
    5.6978  -13.4755   26.7132 O   0  0  0  0  0  0  0  0  0  0  0  0
    8.0129  -13.7255   26.2143 C   0  0  2  0  0  0  0  0  0  0  0  0
    7.4928  -14.4548   25.0475 N   0  0  0  0  0  0  0  0  0  0  0  0
    8.3120  -14.6889   27.2927 C   0  0  0  0  0  0  0  0  0  0  0  0
    8.0162  -15.8858   27.1457 O   0  0  0  0  0  0  0  0  0  0  0  0
    8.9259  -14.3042   28.4959 O   0  0  0  0  0  0  0  0  0  0  0  0
  2  1  1  1
  2  3  1  0
  4  2  1  0
  5  4  2  0
  7  6  1  1
  7  8  1  0
  8  4  1  0
  9  7  1  0
  9 15  1  0
 10  9  2  0
 12 11  1  6
 12 14  1  0
 12 13  1  0
 14 15  1  6
 14 16  1  0
 16 18  1  0
 17 16  2  0
M  END
$$$$
