AAT.pdb
     RDKit          3D

 18 17  0  0  1  0  0  0  0  0999 V2000
    8.1962  -12.3956   19.6465 C   0  0  0  0  0  0  0  0  0  0  0  0
    7.9241  -13.8848   19.6758 C   0  0  2  0  0  0  0  0  0  0  0  0
    6.7626  -14.1912   18.8785 N   0  0  0  0  0  0  0  0  0  0  0  0
    7.7919  -14.3843   21.0720 C   0  0  0  0  0  0  0  0  0  0  0  0
    6.7490  -14.1025   21.7116 O   0  0  0  0  0  0  0  0  0  0  0  0
    9.5886  -16.9256   23.2160 C   0  0  0  0  0  0  0  0  0  0  0  0
    8.6812  -15.7266   23.0267 C   0  0  2  0  0  0  0  0  0  0  0  0
    8.7930  -15.1645   21.7104 N   0  0  0  0  0  0  0  0  0  0  0  0
    8.8948  -14.7447   24.1006 C   0  0  0  0  0  0  0  0  0  0  0  0
    9.8117  -13.8824   24.1059 O   0  0  0  0  0  0  0  0  0  0  0  0
    6.5767  -12.0515   25.5184 C   0  0  0  0  0  0  0  0  0  0  0  0
    6.8565  -13.1210   26.5219 C   0  0  1  0  0  0  0  0  0  0  0  0
    5.8368  -14.0479   26.5536 O   0  0  0  0  0  0  0  0  0  0  0  0
    8.1922  -13.7935   26.3112 C   0  0  2  0  0  0  0  0  0  0  0  0
    8.0128  -14.7584   25.2155 N   0  0  0  0  0  0  0  0  0  0  0  0
    8.5448  -14.5235   27.5455 C   0  0  0  0  0  0  0  0  0  0  0  0
    8.8200  -13.8885   28.5764 O   0  0  0  0  0  0  0  0  0  0  0  0
    8.5830  -15.9262   27.6048 O   0  0  0  0  0  0  0  0  0  0  0  0
  2  1  1  1
  2  3  1  0
  4  2  1  0
  5  4  2  0
  7  6  1  6
  7  8  1  0
  8  4  1  0
  9  7  1  0
  9 15  1  0
 10  9  2  0
 12 11  1  6
 12 14  1  0
 12 13  1  0
 14 15  1  6
 14 16  1  0
 16 18  1  0
 17 16  2  0
M  END
$$$$
