AAT.pdb
     RDKit          3D

 18 17  0  0  1  0  0  0  0  0999 V2000
    8.1014  -12.5408   18.7574 C   0  0  0  0  0  0  0  0  0  0  0  0
    8.3731  -13.9985   19.0636 C   0  0  2  0  0  0  0  0  0  0  0  0
    7.2024  -14.7904   18.7789 N   0  0  0  0  0  0  0  0  0  0  0  0
    8.8441  -14.1796   20.4642 C   0  0  0  0  0  0  0  0  0  0  0  0
   10.0790  -14.2632   20.6735 O   0  0  0  0  0  0  0  0  0  0  0  0
    7.3172  -13.9835   23.9197 C   0  0  0  0  0  0  0  0  0  0  0  0
    8.3625  -14.4656   22.9339 C   0  0  2  0  0  0  0  0  0  0  0  0
    7.9579  -14.2619   21.5716 N   0  0  0  0  0  0  0  0  0  0  0  0
    8.7449  -15.8551   23.2275 C   0  0  0  0  0  0  0  0  0  0  0  0
    7.9474  -16.8290   23.2274 O   0  0  0  0  0  0  0  0  0  0  0  0
   10.9178  -17.9908   21.3644 C   0  0  0  0  0  0  0  0  0  0  0  0
   11.5361  -17.8676   22.7178 C   0  0  1  0  0  0  0  0  0  0  0  0
   12.5829  -16.9710   22.7032 O   0  0  0  0  0  0  0  0  0  0  0  0
   10.5367  -17.5146   23.7936 C   0  0  2  0  0  0  0  0  0  0  0  0
   10.1050  -16.1325   23.5340 N   0  0  0  0  0  0  0  0  0  0  0  0
   11.2219  -17.5698   25.1006 C   0  0  0  0  0  0  0  0  0  0  0  0
   11.5844  -18.6659   25.5574 O   0  0  0  0  0  0  0  0  0  0  0  0
   11.4854  -16.4186   25.8608 O   0  0  0  0  0  0  0  0  0  0  0  0
  2  1  1  1
  2  3  1  0
  4  2  1  0
  5  4  2  0
  7  6  1  1
  7  8  1  0
  8  4  1  0
  9  7  1  0
  9 15  1  0
 10  9  2  0
 12 11  1  6
 12 14  1  0
 12 13  1  0
 14 15  1  6
 14 16  1  0
 16 18  1  0
 17 16  2  0
M  END
$$$$
