AAT.pdb
     RDKit          3D

 18 17  0  0  1  0  0  0  0  0999 V2000
    8.0957  -13.2181   18.6063 C   0  0  0  0  0  0  0  0  0  0  0  0
    8.0933  -14.5476   19.3309 C   0  0  2  0  0  0  0  0  0  0  0  0
    6.7704  -15.1205   19.3092 N   0  0  0  0  0  0  0  0  0  0  0  0
    8.6212  -14.4109   20.7162 C   0  0  0  0  0  0  0  0  0  0  0  0
    9.8602  -14.2856   20.8742 O   0  0  0  0  0  0  0  0  0  0  0  0
    7.2820  -13.7210   24.1593 C   0  0  0  0  0  0  0  0  0  0  0  0
    8.2530  -14.4103   23.2218 C   0  0  2  0  0  0  0  0  0  0  0  0
    7.7847  -14.4163   21.8646 N   0  0  0  0  0  0  0  0  0  0  0  0
    8.5944  -15.7486   23.7271 C   0  0  0  0  0  0  0  0  0  0  0  0
    7.7595  -16.6691   23.9278 O   0  0  0  0  0  0  0  0  0  0  0  0
   10.7607  -18.2575   22.2324 C   0  0  0  0  0  0  0  0  0  0  0  0
   11.3485  -17.9311   23.5655 C   0  0  1  0  0  0  0  0  0  0  0  0
   12.4356  -17.0939   23.4347 O   0  0  0  0  0  0  0  0  0  0  0  0
   10.3388  -17.3593   24.5320 C   0  0  2  0  0  0  0  0  0  0  0  0
    9.9568  -16.0370   24.0129 N   0  0  0  0  0  0  0  0  0  0  0  0
   10.9945  -17.1925   25.8445 C   0  0  0  0  0  0  0  0  0  0  0  0
   11.2348  -16.0510   26.2697 O   0  0  0  0  0  0  0  0  0  0  0  0
   11.3638  -18.2858   26.6451 O   0  0  0  0  0  0  0  0  0  0  0  0
  2  1  1  1
  2  3  1  0
  4  2  1  0
  5  4  2  0
  7  6  1  1
  7  8  1  0
  8  4  1  0
  9  7  1  0
  9 15  1  0
 10  9  2  0
 12 11  1  6
 12 14  1  0
 12 13  1  0
 14 15  1  6
 14 16  1  0
 16 18  1  0
 17 16  2  0
M  END
$$$$
