AAT.pdb
     RDKit          3D

 18 17  0  0  1  0  0  0  0  0999 V2000
    7.5695  -12.7175   18.8380 C   0  0  0  0  0  0  0  0  0  0  0  0
    8.5893  -13.4108   19.7166 C   0  0  2  0  0  0  0  0  0  0  0  0
    9.1114  -14.5748   19.0448 N   0  0  0  0  0  0  0  0  0  0  0  0
    8.0184  -13.7438   21.0506 C   0  0  0  0  0  0  0  0  0  0  0  0
    7.5335  -12.8150   21.7422 O   0  0  0  0  0  0  0  0  0  0  0  0
    7.4801  -16.9304   23.0741 C   0  0  0  0  0  0  0  0  0  0  0  0
    7.4873  -15.4294   22.8645 C   0  0  2  0  0  0  0  0  0  0  0  0
    7.9989  -15.0647   21.5736 N   0  0  0  0  0  0  0  0  0  0  0  0
    8.1767  -14.7576   23.9765 C   0  0  0  0  0  0  0  0  0  0  0  0
    9.4115  -14.5156   24.0075 O   0  0  0  0  0  0  0  0  0  0  0  0
    6.7667  -11.5097   26.0312 C   0  0  0  0  0  0  0  0  0  0  0  0
    7.0099  -12.7459   26.8323 C   0  0  1  0  0  0  0  0  0  0  0  0
    5.8342  -13.4306   27.0536 O   0  0  0  0  0  0  0  0  0  0  0  0
    8.0550  -13.6491   26.2218 C   0  0  2  0  0  0  0  0  0  0  0  0
    7.4085  -14.3478   25.1003 N   0  0  0  0  0  0  0  0  0  0  0  0
    8.4637  -14.6398   27.2377 C   0  0  0  0  0  0  0  0  0  0  0  0
    8.1868  -15.8387   27.0716 O   0  0  0  0  0  0  0  0  0  0  0  0
    9.1628  -14.2793   28.4012 O   0  0  0  0  0  0  0  0  0  0  0  0
  2  1  1  6
  2  3  1  0
  4  2  1  0
  5  4  2  0
  7  6  1  1
  7  8  1  0
  8  4  1  0
  9  7  1  0
  9 15  1  0
 10  9  2  0
 12 11  1  6
 12 14  1  0
 12 13  1  0
 14 15  1  6
 14 16  1  0
 16 18  1  0
 17 16  2  0
M  END
$$$$
