AAT.pdb
     RDKit          3D

 18 17  0  0  1  0  0  0  0  0999 V2000
   13.1088  -18.1050   15.4290 C   0  0  0  0  0  0  0  0  0  0  0  0
   11.7827  -18.2040   14.7049 C   0  0  2  0  0  0  0  0  0  0  0  0
   11.9261  -17.7461   13.3453 N   0  0  0  0  0  0  0  0  0  0  0  0
   10.7115  -17.4696   15.4326 C   0  0  0  0  0  0  0  0  0  0  0  0
   10.5336  -16.2553   15.1682 O   0  0  0  0  0  0  0  0  0  0  0  0
    8.0109  -18.3666   17.9646 C   0  0  0  0  0  0  0  0  0  0  0  0
    8.8765  -17.4039   17.1767 C   0  0  2  0  0  0  0  0  0  0  0  0
    9.8839  -18.0825   16.4112 N   0  0  0  0  0  0  0  0  0  0  0  0
    9.4189  -16.3593   18.0586 C   0  0  0  0  0  0  0  0  0  0  0  0
   10.5684  -16.3849   18.5707 O   0  0  0  0  0  0  0  0  0  0  0  0
    6.8088  -13.1783   19.1090 C   0  0  0  0  0  0  0  0  0  0  0  0
    8.2748  -12.9421   18.9535 C   0  0  1  0  0  0  0  0  0  0  0  0
    8.6881  -11.8764   19.7238 O   0  0  0  0  0  0  0  0  0  0  0  0
    9.1046  -14.1708   19.2405 C   0  0  2  0  0  0  0  0  0  0  0  0
    8.6000  -15.2376   18.3624 N   0  0  0  0  0  0  0  0  0  0  0  0
    8.8870  -14.5600   20.6483 C   0  0  0  0  0  0  0  0  0  0  0  0
    9.4550  -13.9288   21.5541 O   0  0  0  0  0  0  0  0  0  0  0  0
    8.0527  -15.6295   21.0127 O   0  0  0  0  0  0  0  0  0  0  0  0
  2  1  1  1
  2  3  1  0
  4  2  1  0
  5  4  2  0
  7  6  1  1
  7  8  1  0
  8  4  1  0
  9  7  1  0
  9 15  1  0
 10  9  2  0
 12 11  1  1
 12 14  1  0
 12 13  1  0
 14 15  1  6
 14 16  1  0
 16 18  1  0
 17 16  2  0
M  END
$$$$
