AAT.pdb
     RDKit          3D

 18 17  0  0  1  0  0  0  0  0999 V2000
    6.8329  -18.5523   20.7570 C   0  0  0  0  0  0  0  0  0  0  0  0
    7.0975  -17.7053   19.5302 C   0  0  2  0  0  0  0  0  0  0  0  0
    7.6906  -18.5104   18.4916 N   0  0  0  0  0  0  0  0  0  0  0  0
    7.9308  -16.5169   19.8615 C   0  0  0  0  0  0  0  0  0  0  0  0
    9.1568  -16.6863   20.0719 O   0  0  0  0  0  0  0  0  0  0  0  0
    7.4094  -12.7531   19.8942 C   0  0  0  0  0  0  0  0  0  0  0  0
    8.1689  -14.0221   20.2256 C   0  0  2  0  0  0  0  0  0  0  0  0
    7.3993  -15.2023   19.9496 N   0  0  0  0  0  0  0  0  0  0  0  0
    8.6831  -13.9695   21.6025 C   0  0  0  0  0  0  0  0  0  0  0  0
    9.5103  -13.1188   22.0224 O   0  0  0  0  0  0  0  0  0  0  0  0
    6.7964  -13.6758   24.8960 C   0  0  0  0  0  0  0  0  0  0  0  0
    7.5191  -14.9801   24.8206 C   0  0  1  0  0  0  0  0  0  0  0  0
    6.6653  -15.9976   24.4522 O   0  0  0  0  0  0  0  0  0  0  0  0
    8.7276  -14.9342   23.9161 C   0  0  2  0  0  0  0  0  0  0  0  0
    8.2232  -14.9397   22.5343 N   0  0  0  0  0  0  0  0  0  0  0  0
    9.5257  -16.1554   24.1445 C   0  0  0  0  0  0  0  0  0  0  0  0
   10.1029  -16.3166   25.2319 O   0  0  0  0  0  0  0  0  0  0  0  0
    9.6623  -17.1578   23.1703 O   0  0  0  0  0  0  0  0  0  0  0  0
  2  1  1  1
  2  3  1  0
  4  2  1  0
  5  4  2  0
  7  6  1  1
  7  8  1  0
  8  4  1  0
  9  7  1  0
  9 15  1  0
 10  9  2  0
 12 11  1  6
 12 14  1  0
 12 13  1  0
 14 15  1  6
 14 16  1  0
 16 18  1  0
 17 16  2  0
M  END
$$$$
