EKW.pdb
     RDKit          3D

 33 34  0  0  1  0  0  0  0  0999 V2000
   26.4848  -24.5975  -17.3924 N   0  0  0  0  0  0  0  0  0  0  0  0
   27.5725  -23.6752  -17.0560 C   0  0  1  0  0  0  0  0  0  0  0  0
   28.2454  -23.3128  -18.3375 C   0  0  0  0  0  0  0  0  0  0  0  0
   29.5028  -24.1099  -18.5168 C   0  0  0  0  0  0  0  0  0  0  0  0
   30.6475  -23.4847  -17.8612 C   0  0  0  0  0  0  0  0  0  0  0  0
   31.1744  -23.9084  -16.8334 O   0  0  0  0  0  0  0  0  0  0  0  0
   26.9754  -22.4839  -16.3966 C   0  0  0  0  0  0  0  0  0  0  0  0
   27.3680  -21.3425  -16.7065 O   0  0  0  0  0  0  0  0  0  0  0  0
   31.2136  -22.3158  -18.4156 O   0  0  0  0  0  0  0  0  0  0  0  0
   25.9734  -22.6738  -15.4313 N   0  0  0  0  0  0  0  0  0  0  0  0
   25.3277  -21.5474  -14.8012 C   0  0  1  0  0  0  0  0  0  0  0  0
   23.9171  -21.4056  -15.3375 C   0  0  0  0  0  0  0  0  0  0  0  0
   23.8183  -20.6084  -16.5901 C   0  0  0  0  0  0  0  0  0  0  0  0
   22.3654  -20.6104  -17.0349 C   0  0  0  0  0  0  0  0  0  0  0  0
   22.2675  -19.8334  -18.3254 C   0  0  0  0  0  0  0  0  0  0  0  0
   20.9067  -19.7737  -18.8195 N   0  0  0  0  0  0  0  0  0  0  0  0
   25.3989  -21.7444  -13.3450 C   0  0  0  0  0  0  0  0  0  0  0  0
   25.1018  -22.8604  -12.8658 O   0  0  0  0  0  0  0  0  0  0  0  0
   25.7894  -20.7368  -12.4296 N   0  0  0  0  0  0  0  0  0  0  0  0
   25.7689  -20.9972  -11.0286 C   0  0  1  0  0  0  0  0  0  0  0  0
   27.0534  -20.5960  -10.3393 C   0  0  0  0  0  0  0  0  0  0  0  0
   26.7733  -20.3440   -8.9119 C   0  0  0  0  0  0  0  0  0  0  0  0
   25.5441  -20.3412   -8.2654 C   0  0  0  0  0  0  0  0  0  0  0  0
   25.7148  -20.0633   -6.9666 N   0  0  0  0  0  0  0  0  0  0  0  0
   27.0142  -19.8787   -6.7126 C   0  0  0  0  0  0  0  0  0  0  0  0
   27.6953  -19.5767   -5.5396 C   0  0  0  0  0  0  0  0  0  0  0  0
   29.0637  -19.4559   -5.6243 C   0  0  0  0  0  0  0  0  0  0  0  0
   29.7542  -19.6211   -6.8031 C   0  0  0  0  0  0  0  0  0  0  0  0
   29.0683  -19.9198   -7.9573 C   0  0  0  0  0  0  0  0  0  0  0  0
   27.6874  -20.0519   -7.9228 C   0  0  0  0  0  0  0  0  0  0  0  0
   24.6053  -20.3146  -10.4361 C   0  0  0  0  0  0  0  0  0  0  0  0
   24.1238  -19.3147  -10.9972 O   0  0  0  0  0  0  0  0  0  0  0  0
   24.0515  -20.7764   -9.2704 O   0  0  0  0  0  0  0  0  0  0  0  0
  2  1  1  6
  2  3  1  0
  3  4  1  0
  5  4  1  0
  5  6  2  0
  7  8  2  0
  7  2  1  0
  9  5  1  0
 10  7  1  0
 11 12  1  6
 11 10  1  0
 13 12  1  0
 14 13  1  0
 15 14  1  0
 16 15  1  0
 17 11  1  0
 18 17  2  0
 19 17  1  0
 20 21  1  1
 20 19  1  0
 21 22  1  0
 22 30  1  0
 23 22  2  0
 23 24  1  0
 24 25  1  0
 25 26  2  0
 26 27  1  0
 28 27  2  0
 29 28  1  0
 30 29  2  0
 30 25  1  0
 31 33  1  0
 31 20  1  0
 32 31  2  0
M  END
$$$$
