EKW.pdb
     RDKit          3D

 33 34  0  0  1  0  0  0  0  0999 V2000
   30.8914  -23.4276  -17.0619 N   0  0  0  0  0  0  0  0  0  0  0  0
   29.4817  -23.0278  -17.0517 C   0  0  1  0  0  0  0  0  0  0  0  0
   28.6752  -24.2827  -17.0831 C   0  0  0  0  0  0  0  0  0  0  0  0
   28.7280  -24.9098  -18.4443 C   0  0  0  0  0  0  0  0  0  0  0  0
   27.8447  -24.2382  -19.3929 C   0  0  0  0  0  0  0  0  0  0  0  0
   26.9810  -23.4211  -19.0771 O   0  0  0  0  0  0  0  0  0  0  0  0
   29.2349  -22.2508  -15.8084 C   0  0  0  0  0  0  0  0  0  0  0  0
   29.9329  -22.4611  -14.7977 O   0  0  0  0  0  0  0  0  0  0  0  0
   27.9615  -24.5202  -20.7717 O   0  0  0  0  0  0  0  0  0  0  0  0
   28.2122  -21.2887  -15.8015 N   0  0  0  0  0  0  0  0  0  0  0  0
   27.9461  -20.4976  -14.6241 C   0  0  1  0  0  0  0  0  0  0  0  0
   28.0323  -19.0249  -14.9720 C   0  0  0  0  0  0  0  0  0  0  0  0
   27.0290  -18.5755  -15.9748 C   0  0  0  0  0  0  0  0  0  0  0  0
   27.3249  -17.1254  -16.3184 C   0  0  0  0  0  0  0  0  0  0  0  0
   26.1423  -16.2899  -15.8913 C   0  0  0  0  0  0  0  0  0  0  0  0
   26.3400  -14.8840  -16.1803 N   0  0  0  0  0  0  0  0  0  0  0  0
   26.6401  -20.9122  -14.0888 C   0  0  0  0  0  0  0  0  0  0  0  0
   25.9495  -21.7315  -14.7334 O   0  0  0  0  0  0  0  0  0  0  0  0
   26.0999  -20.4384  -12.8684 N   0  0  0  0  0  0  0  0  0  0  0  0
   25.5483  -21.3554  -11.9272 C   0  0  1  0  0  0  0  0  0  0  0  0
   26.5533  -21.8079  -10.8921 C   0  0  0  0  0  0  0  0  0  0  0  0
   26.4949  -20.8930   -9.7350 C   0  0  0  0  0  0  0  0  0  0  0  0
   25.4613  -20.0430   -9.3635 C   0  0  0  0  0  0  0  0  0  0  0  0
   25.7998  -19.3744   -8.2538 N   0  0  0  0  0  0  0  0  0  0  0  0
   27.0239  -19.7422   -7.8622 C   0  0  0  0  0  0  0  0  0  0  0  0
   27.8100  -19.3482   -6.7862 C   0  0  0  0  0  0  0  0  0  0  0  0
   29.0481  -19.9374   -6.6673 C   0  0  0  0  0  0  0  0  0  0  0  0
   29.5142  -20.8771   -7.5580 C   0  0  0  0  0  0  0  0  0  0  0  0
   28.7264  -21.2584   -8.6190 C   0  0  0  0  0  0  0  0  0  0  0  0
   27.4697  -20.6927   -8.7817 C   0  0  0  0  0  0  0  0  0  0  0  0
   24.3692  -20.7365  -11.2967 C   0  0  0  0  0  0  0  0  0  0  0  0
   24.2430  -19.4994  -11.3032 O   0  0  0  0  0  0  0  0  0  0  0  0
   23.4115  -21.5174  -10.7037 O   0  0  0  0  0  0  0  0  0  0  0  0
  2  1  1  1
  2  3  1  0
  3  4  1  0
  5  4  1  0
  5  6  2  0
  7  8  2  0
  7  2  1  0
  9  5  1  0
 10  7  1  0
 11 12  1  6
 11 10  1  0
 13 12  1  0
 14 13  1  0
 15 14  1  0
 16 15  1  0
 17 11  1  0
 18 17  2  0
 19 17  1  0
 20 21  1  1
 20 19  1  0
 21 22  1  0
 22 30  1  0
 23 22  2  0
 23 24  1  0
 24 25  1  0
 25 26  2  0
 26 27  1  0
 28 27  2  0
 29 28  1  0
 30 29  2  0
 30 25  1  0
 31 33  1  0
 31 20  1  0
 32 31  2  0
M  END
$$$$
