EKW.pdb
     RDKit          3D

 33 34  0  0  1  0  0  0  0  0999 V2000
   27.2881  -21.4981  -17.5457 N   0  0  0  0  0  0  0  0  0  0  0  0
   27.8398  -21.8974  -16.2483 C   0  0  1  0  0  0  0  0  0  0  0  0
   29.3253  -21.8918  -16.3889 C   0  0  0  0  0  0  0  0  0  0  0  0
   29.7885  -23.1035  -17.1413 C   0  0  0  0  0  0  0  0  0  0  0  0
   30.0623  -22.8072  -18.5443 C   0  0  0  0  0  0  0  0  0  0  0  0
   30.3308  -21.6872  -18.9767 O   0  0  0  0  0  0  0  0  0  0  0  0
   27.3835  -20.9114  -15.2334 C   0  0  0  0  0  0  0  0  0  0  0  0
   27.3947  -19.6948  -15.5030 O   0  0  0  0  0  0  0  0  0  0  0  0
   30.0258  -23.8503  -19.4954 O   0  0  0  0  0  0  0  0  0  0  0  0
   26.9458  -21.3777  -13.9833 N   0  0  0  0  0  0  0  0  0  0  0  0
   26.5034  -20.4587  -12.9624 C   0  0  1  0  0  0  0  0  0  0  0  0
   25.2227  -19.7821  -13.4089 C   0  0  0  0  0  0  0  0  0  0  0  0
   24.1766  -20.7199  -13.8994 C   0  0  0  0  0  0  0  0  0  0  0  0
   23.5085  -20.0877  -15.1087 C   0  0  0  0  0  0  0  0  0  0  0  0
   22.4057  -21.0088  -15.5720 C   0  0  0  0  0  0  0  0  0  0  0  0
   21.6525  -20.4411  -16.6719 N   0  0  0  0  0  0  0  0  0  0  0  0
   26.3776  -21.2103  -11.7039 C   0  0  0  0  0  0  0  0  0  0  0  0
   26.3143  -22.4584  -11.7433 O   0  0  0  0  0  0  0  0  0  0  0  0
   26.3229  -20.6055  -10.4245 N   0  0  0  0  0  0  0  0  0  0  0  0
   26.1784  -21.4119   -9.2584 C   0  0  1  0  0  0  0  0  0  0  0  0
   27.4644  -21.5438   -8.4743 C   0  0  0  0  0  0  0  0  0  0  0  0
   27.6909  -20.3003   -7.7117 C   0  0  0  0  0  0  0  0  0  0  0  0
   27.1854  -19.0321   -7.9669 C   0  0  0  0  0  0  0  0  0  0  0  0
   27.6311  -18.1712   -7.0432 N   0  0  0  0  0  0  0  0  0  0  0  0
   28.4187  -18.8118   -6.1734 C   0  0  0  0  0  0  0  0  0  0  0  0
   29.1100  -18.3718   -5.0512 C   0  0  0  0  0  0  0  0  0  0  0  0
   29.8414  -19.3103   -4.3594 C   0  0  0  0  0  0  0  0  0  0  0  0
   29.9047  -20.6319   -4.7377 C   0  0  0  0  0  0  0  0  0  0  0  0
   29.2158  -21.0547   -5.8506 C   0  0  0  0  0  0  0  0  0  0  0  0
   28.4639  -20.1457   -6.5813 C   0  0  0  0  0  0  0  0  0  0  0  0
   25.0970  -20.8545   -8.4272 C   0  0  0  0  0  0  0  0  0  0  0  0
   24.7646  -21.4320   -7.3771 O   0  0  0  0  0  0  0  0  0  0  0  0
   24.4565  -19.7033   -8.8055 O   0  0  0  0  0  0  0  0  0  0  0  0
  2  1  1  6
  2  3  1  0
  3  4  1  0
  5  4  1  0
  5  6  2  0
  7  8  2  0
  7  2  1  0
  9  5  1  0
 10  7  1  0
 11 12  1  6
 11 10  1  0
 13 12  1  0
 14 13  1  0
 15 14  1  0
 16 15  1  0
 17 11  1  0
 18 17  2  0
 19 17  1  0
 20 21  1  1
 20 19  1  0
 21 22  1  0
 22 30  1  0
 23 22  2  0
 23 24  1  0
 24 25  1  0
 25 26  2  0
 26 27  1  0
 28 27  2  0
 29 28  1  0
 30 29  2  0
 30 25  1  0
 31 33  1  0
 31 20  1  0
 32 31  2  0
M  END
$$$$
