EKW.pdb
     RDKit          3D

 33 34  0  0  1  0  0  0  0  0999 V2000
   23.8174  -16.3810  -16.3149 N   0  0  0  0  0  0  0  0  0  0  0  0
   24.8218  -16.4485  -15.2501 C   0  0  1  0  0  0  0  0  0  0  0  0
   24.6346  -15.2364  -14.4004 C   0  0  0  0  0  0  0  0  0  0  0  0
   24.7568  -13.9900  -15.2251 C   0  0  0  0  0  0  0  0  0  0  0  0
   26.0434  -13.9089  -15.9103 C   0  0  0  0  0  0  0  0  0  0  0  0
   27.1335  -13.9068  -15.3401 O   0  0  0  0  0  0  0  0  0  0  0  0
   24.5882  -17.6978  -14.4787 C   0  0  0  0  0  0  0  0  0  0  0  0
   23.4932  -17.8808  -13.9127 O   0  0  0  0  0  0  0  0  0  0  0  0
   26.0768  -13.8268  -17.3196 O   0  0  0  0  0  0  0  0  0  0  0  0
   25.6159  -18.6519  -14.4054 N   0  0  0  0  0  0  0  0  0  0  0  0
   25.3961  -19.9317  -13.7756 C   0  0  1  0  0  0  0  0  0  0  0  0
   26.0333  -21.0244  -14.6105 C   0  0  0  0  0  0  0  0  0  0  0  0
   25.8756  -22.3927  -14.0472 C   0  0  0  0  0  0  0  0  0  0  0  0
   26.6071  -23.3634  -14.9589 C   0  0  0  0  0  0  0  0  0  0  0  0
   25.5861  -24.0411  -15.8405 C   0  0  0  0  0  0  0  0  0  0  0  0
   26.2097  -24.8226  -16.8891 N   0  0  0  0  0  0  0  0  0  0  0  0
   25.9108  -19.8507  -12.3997 C   0  0  0  0  0  0  0  0  0  0  0  0
   26.8718  -19.0899  -12.1524 O   0  0  0  0  0  0  0  0  0  0  0  0
   25.3817  -20.5894  -11.3135 N   0  0  0  0  0  0  0  0  0  0  0  0
   26.1821  -20.8376  -10.1607 C   0  0  1  0  0  0  0  0  0  0  0  0
   26.4523  -19.5871   -9.3548 C   0  0  0  0  0  0  0  0  0  0  0  0
   26.4859  -19.9383   -7.9213 C   0  0  0  0  0  0  0  0  0  0  0  0
   25.5948  -20.7317   -7.2103 C   0  0  0  0  0  0  0  0  0  0  0  0
   25.9730  -20.8018   -5.9277 N   0  0  0  0  0  0  0  0  0  0  0  0
   27.0868  -20.0851   -5.7468 C   0  0  0  0  0  0  0  0  0  0  0  0
   27.8625  -19.8470   -4.6186 C   0  0  0  0  0  0  0  0  0  0  0  0
   28.9723  -19.0491   -4.7797 C   0  0  0  0  0  0  0  0  0  0  0  0
   29.3235  -18.4976   -5.9906 C   0  0  0  0  0  0  0  0  0  0  0  0
   28.5473  -18.7409   -7.0997 C   0  0  0  0  0  0  0  0  0  0  0  0
   27.4180  -19.5395   -6.9879 C   0  0  0  0  0  0  0  0  0  0  0  0
   25.5272  -21.8732   -9.3424 C   0  0  0  0  0  0  0  0  0  0  0  0
   24.2891  -21.9872   -9.3650 O   0  0  0  0  0  0  0  0  0  0  0  0
   26.2758  -22.7109   -8.5572 O   0  0  0  0  0  0  0  0  0  0  0  0
  2  1  1  6
  2  3  1  0
  3  4  1  0
  5  4  1  0
  5  6  2  0
  7  8  2  0
  7  2  1  0
  9  5  1  0
 10  7  1  0
 11 12  1  6
 11 10  1  0
 13 12  1  0
 14 13  1  0
 15 14  1  0
 16 15  1  0
 17 11  1  0
 18 17  2  0
 19 17  1  0
 20 21  1  1
 20 19  1  0
 21 22  1  0
 22 30  1  0
 23 22  2  0
 23 24  1  0
 24 25  1  0
 25 26  2  0
 26 27  1  0
 28 27  2  0
 29 28  1  0
 30 29  2  0
 30 25  1  0
 31 33  1  0
 31 20  1  0
 32 31  2  0
M  END
$$$$
