EKW.pdb
     RDKit          3D

 33 34  0  0  1  0  0  0  0  0999 V2000
   23.3186  -18.7260  -14.9143 N   0  0  0  0  0  0  0  0  0  0  0  0
   23.2419  -20.1858  -15.0160 C   0  0  1  0  0  0  0  0  0  0  0  0
   23.1273  -20.5136  -16.4671 C   0  0  0  0  0  0  0  0  0  0  0  0
   21.8772  -19.9201  -17.0449 C   0  0  0  0  0  0  0  0  0  0  0  0
   22.1561  -19.0642  -18.1942 C   0  0  0  0  0  0  0  0  0  0  0  0
   21.5169  -18.0514  -18.4756 O   0  0  0  0  0  0  0  0  0  0  0  0
   24.4829  -20.7520  -14.4244 C   0  0  0  0  0  0  0  0  0  0  0  0
   24.6369  -21.9875  -14.3732 O   0  0  0  0  0  0  0  0  0  0  0  0
   23.2224  -19.3893  -19.0610 O   0  0  0  0  0  0  0  0  0  0  0  0
   25.4620  -19.8737  -13.9329 N   0  0  0  0  0  0  0  0  0  0  0  0
   26.6983  -20.3746  -13.3820 C   0  0  1  0  0  0  0  0  0  0  0  0
   27.8633  -19.5934  -13.9563 C   0  0  0  0  0  0  0  0  0  0  0  0
   28.0635  -19.7836  -15.4185 C   0  0  0  0  0  0  0  0  0  0  0  0
   28.7657  -21.1147  -15.6273 C   0  0  0  0  0  0  0  0  0  0  0  0
   29.0974  -21.2465  -17.0942 C   0  0  0  0  0  0  0  0  0  0  0  0
   29.7055  -22.5259  -17.3989 N   0  0  0  0  0  0  0  0  0  0  0  0
   26.5968  -20.3094  -11.9158 C   0  0  0  0  0  0  0  0  0  0  0  0
   26.7851  -19.2156  -11.3399 O   0  0  0  0  0  0  0  0  0  0  0  0
   26.2938  -21.4227  -11.0945 N   0  0  0  0  0  0  0  0  0  0  0  0
   26.4056  -21.3170   -9.6777 C   0  0  1  0  0  0  0  0  0  0  0  0
   27.6469  -20.5718   -9.2419 C   0  0  0  0  0  0  0  0  0  0  0  0
   27.4830  -20.1468   -7.8377 C   0  0  0  0  0  0  0  0  0  0  0  0
   26.3504  -19.6272   -7.2243 C   0  0  0  0  0  0  0  0  0  0  0  0
   26.6120  -19.3616   -5.9381 N   0  0  0  0  0  0  0  0  0  0  0  0
   27.8795  -19.6832   -5.6607 C   0  0  0  0  0  0  0  0  0  0  0  0
   28.6208  -19.6017   -4.4882 C   0  0  0  0  0  0  0  0  0  0  0  0
   29.9280  -20.0288   -4.5437 C   0  0  0  0  0  0  0  0  0  0  0  0
   30.5029  -20.5192   -5.6938 C   0  0  0  0  0  0  0  0  0  0  0  0
   29.7584  -20.5947   -6.8478 C   0  0  0  0  0  0  0  0  0  0  0  0
   28.4354  -20.1760   -6.8422 C   0  0  0  0  0  0  0  0  0  0  0  0
   25.1848  -20.6815   -9.1515 C   0  0  0  0  0  0  0  0  0  0  0  0
   25.1174  -20.3748   -7.9482 O   0  0  0  0  0  0  0  0  0  0  0  0
   24.1242  -20.4268   -9.9815 O   0  0  0  0  0  0  0  0  0  0  0  0
  2  1  1  6
  2  3  1  0
  3  4  1  0
  5  4  1  0
  5  6  2  0
  7  8  2  0
  7  2  1  0
  9  5  1  0
 10  7  1  0
 11 12  1  6
 11 10  1  0
 13 12  1  0
 14 13  1  0
 15 14  1  0
 16 15  1  0
 17 11  1  0
 18 17  2  0
 19 17  1  0
 20 21  1  6
 20 19  1  0
 21 22  1  0
 22 30  1  0
 23 22  2  0
 23 24  1  0
 24 25  1  0
 25 26  2  0
 26 27  1  0
 28 27  2  0
 29 28  1  0
 30 29  2  0
 30 25  1  0
 31 33  1  0
 31 20  1  0
 32 31  2  0
M  END
$$$$
