EKW.pdb
     RDKit          3D

 33 34  0  0  1  0  0  0  0  0999 V2000
   14.2091  -17.1452    3.7723 N   0  0  0  0  0  0  0  0  0  0  0  0
   14.5802  -18.3320    4.5475 C   0  0  1  0  0  0  0  0  0  0  0  0
   15.4088  -19.1921    3.6532 C   0  0  0  0  0  0  0  0  0  0  0  0
   14.5848  -19.7195    2.5168 C   0  0  0  0  0  0  0  0  0  0  0  0
   15.3405  -20.6384    1.6707 C   0  0  0  0  0  0  0  0  0  0  0  0
   16.5100  -20.9630    1.8717 O   0  0  0  0  0  0  0  0  0  0  0  0
   15.3493  -17.8800    5.7369 C   0  0  0  0  0  0  0  0  0  0  0  0
   15.8161  -16.7251    5.7705 O   0  0  0  0  0  0  0  0  0  0  0  0
   14.7200  -21.2117    0.5391 O   0  0  0  0  0  0  0  0  0  0  0  0
   15.5334  -18.7728    6.8051 N   0  0  0  0  0  0  0  0  0  0  0  0
   16.2483  -18.3710    7.9926 C   0  0  1  0  0  0  0  0  0  0  0  0
   15.9288  -19.3265    9.1250 C   0  0  0  0  0  0  0  0  0  0  0  0
   15.6123  -18.6578   10.4161 C   0  0  0  0  0  0  0  0  0  0  0  0
   15.3292  -19.7372   11.4473 C   0  0  0  0  0  0  0  0  0  0  0  0
   15.0084  -19.0622   12.7589 C   0  0  0  0  0  0  0  0  0  0  0  0
   14.8129  -20.0209   13.8276 N   0  0  0  0  0  0  0  0  0  0  0  0
   17.6781  -18.2982    7.6543 C   0  0  0  0  0  0  0  0  0  0  0  0
   18.1188  -18.9979    6.7164 O   0  0  0  0  0  0  0  0  0  0  0  0
   18.6092  -17.4730    8.3310 N   0  0  0  0  0  0  0  0  0  0  0  0
   19.9656  -17.4208    7.8968 C   0  0  1  0  0  0  0  0  0  0  0  0
   20.1092  -16.8972    6.4857 C   0  0  0  0  0  0  0  0  0  0  0  0
   20.4113  -15.4531    6.5384 C   0  0  0  0  0  0  0  0  0  0  0  0
   21.3420  -14.7989    7.3352 C   0  0  0  0  0  0  0  0  0  0  0  0
   21.3063  -13.4833    7.0882 N   0  0  0  0  0  0  0  0  0  0  0  0
   20.3859  -13.2254    6.1536 C   0  0  0  0  0  0  0  0  0  0  0  0
   19.9758  -12.0379    5.5598 C   0  0  0  0  0  0  0  0  0  0  0  0
   18.9850  -12.1240    4.6084 C   0  0  0  0  0  0  0  0  0  0  0  0
   18.4073  -13.3177    4.2408 C   0  0  0  0  0  0  0  0  0  0  0  0
   18.8222  -14.4860    4.8362 C   0  0  0  0  0  0  0  0  0  0  0  0
   19.8186  -14.4509    5.8014 C   0  0  0  0  0  0  0  0  0  0  0  0
   20.7388  -16.6087    8.8526 C   0  0  0  0  0  0  0  0  0  0  0  0
   20.1448  -15.9265    9.7060 O   0  0  0  0  0  0  0  0  0  0  0  0
   22.1086  -16.6019    8.8057 O   0  0  0  0  0  0  0  0  0  0  0  0
  2  1  1  6
  2  3  1  0
  3  4  1  0
  5  4  1  0
  5  6  2  0
  7  8  2  0
  7  2  1  0
  9  5  1  0
 10  7  1  0
 11 12  1  1
 11 10  1  0
 13 12  1  0
 14 13  1  0
 15 14  1  0
 16 15  1  0
 17 11  1  0
 18 17  2  0
 19 17  1  0
 20 21  1  6
 20 19  1  0
 21 22  1  0
 22 30  1  0
 23 22  2  0
 23 24  1  0
 24 25  1  0
 25 26  2  0
 26 27  1  0
 28 27  2  0
 29 28  1  0
 30 29  2  0
 30 25  1  0
 31 33  1  0
 31 20  1  0
 32 31  2  0
M  END
$$$$
