EKW.pdb
     RDKit          3D

 33 34  0  0  1  0  0  0  0  0999 V2000
   28.9566  -21.8653  -17.0623 N   0  0  0  0  0  0  0  0  0  0  0  0
   27.7581  -22.2122  -16.2940 C   0  0  1  0  0  0  0  0  0  0  0  0
   27.8437  -23.6710  -15.9927 C   0  0  0  0  0  0  0  0  0  0  0  0
   26.6624  -24.3976  -16.5631 C   0  0  0  0  0  0  0  0  0  0  0  0
   26.7740  -24.5784  -18.0074 C   0  0  0  0  0  0  0  0  0  0  0  0
   27.3988  -25.4914  -18.5456 O   0  0  0  0  0  0  0  0  0  0  0  0
   27.7590  -21.3967  -15.0508 C   0  0  0  0  0  0  0  0  0  0  0  0
   28.7356  -21.4459  -14.2784 O   0  0  0  0  0  0  0  0  0  0  0  0
   26.1352  -23.6648  -18.8741 O   0  0  0  0  0  0  0  0  0  0  0  0
   26.6496  -20.5818  -14.7732 N   0  0  0  0  0  0  0  0  0  0  0  0
   26.6190  -19.7461  -13.5971 C   0  0  1  0  0  0  0  0  0  0  0  0
   25.7145  -18.5552  -13.8440 C   0  0  0  0  0  0  0  0  0  0  0  0
   26.4332  -17.3181  -14.2530 C   0  0  0  0  0  0  0  0  0  0  0  0
   25.6945  -16.7148  -15.4357 C   0  0  0  0  0  0  0  0  0  0  0  0
   26.4609  -15.4993  -15.8987 C   0  0  0  0  0  0  0  0  0  0  0  0
   27.7909  -15.8414  -16.3605 N   0  0  0  0  0  0  0  0  0  0  0  0
   26.2099  -20.5846  -12.4595 C   0  0  0  0  0  0  0  0  0  0  0  0
   25.2203  -21.3387  -12.5833 O   0  0  0  0  0  0  0  0  0  0  0  0
   26.8735  -20.5974  -11.2085 N   0  0  0  0  0  0  0  0  0  0  0  0
   26.4041  -21.4398  -10.1591 C   0  0  1  0  0  0  0  0  0  0  0  0
   27.4407  -21.6667   -9.0820 C   0  0  0  0  0  0  0  0  0  0  0  0
   27.4104  -20.5303   -8.1402 C   0  0  0  0  0  0  0  0  0  0  0  0
   26.7449  -19.3189   -8.2770 C   0  0  0  0  0  0  0  0  0  0  0  0
   26.9737  -18.5513   -7.2039 N   0  0  0  0  0  0  0  0  0  0  0  0
   27.7690  -19.2003   -6.3475 C   0  0  0  0  0  0  0  0  0  0  0  0
   28.2854  -18.8410   -5.1084 C   0  0  0  0  0  0  0  0  0  0  0  0
   29.0856  -19.7631   -4.4731 C   0  0  0  0  0  0  0  0  0  0  0  0
   29.3792  -20.9933   -5.0153 C   0  0  0  0  0  0  0  0  0  0  0  0
   28.8618  -21.3368   -6.2426 C   0  0  0  0  0  0  0  0  0  0  0  0
   28.0493  -20.4407   -6.9225 C   0  0  0  0  0  0  0  0  0  0  0  0
   25.1688  -20.8608   -9.6026 C   0  0  0  0  0  0  0  0  0  0  0  0
   24.8551  -19.6900   -9.8808 O   0  0  0  0  0  0  0  0  0  0  0  0
   24.3643  -21.6061   -8.7804 O   0  0  0  0  0  0  0  0  0  0  0  0
  2  1  1  6
  2  3  1  0
  3  4  1  0
  5  4  1  0
  5  6  2  0
  7  8  2  0
  7  2  1  0
  9  5  1  0
 10  7  1  0
 11 12  1  6
 11 10  1  0
 13 12  1  0
 14 13  1  0
 15 14  1  0
 16 15  1  0
 17 11  1  0
 18 17  2  0
 19 17  1  0
 20 21  1  1
 20 19  1  0
 21 22  1  0
 22 30  1  0
 23 22  2  0
 23 24  1  0
 24 25  1  0
 25 26  2  0
 26 27  1  0
 28 27  2  0
 29 28  1  0
 30 29  2  0
 30 25  1  0
 31 33  1  0
 31 20  1  0
 32 31  2  0
M  END
$$$$
