EKW.pdb
     RDKit          3D

 33 34  0  0  1  0  0  0  0  0999 V2000
   30.0100  -19.7660  -18.1173 N   0  0  0  0  0  0  0  0  0  0  0  0
   28.5461  -19.8287  -18.1315 C   0  0  1  0  0  0  0  0  0  0  0  0
   28.1754  -21.1991  -18.5905 C   0  0  0  0  0  0  0  0  0  0  0  0
   28.8853  -22.2385  -17.7753 C   0  0  0  0  0  0  0  0  0  0  0  0
   28.0458  -22.7622  -16.7020 C   0  0  0  0  0  0  0  0  0  0  0  0
   28.0160  -22.3061  -15.5598 O   0  0  0  0  0  0  0  0  0  0  0  0
   28.0630  -19.5659  -16.7502 C   0  0  0  0  0  0  0  0  0  0  0  0
   28.8842  -19.4000  -15.8278 O   0  0  0  0  0  0  0  0  0  0  0  0
   27.1992  -23.8636  -16.9555 O   0  0  0  0  0  0  0  0  0  0  0  0
   26.6798  -19.5098  -16.5145 N   0  0  0  0  0  0  0  0  0  0  0  0
   26.1601  -19.0040  -15.2668 C   0  0  1  0  0  0  0  0  0  0  0  0
   25.3066  -17.7797  -15.5315 C   0  0  0  0  0  0  0  0  0  0  0  0
   26.0679  -16.6014  -16.0278 C   0  0  0  0  0  0  0  0  0  0  0  0
   25.6616  -15.3957  -15.1973 C   0  0  0  0  0  0  0  0  0  0  0  0
   26.3553  -14.1798  -15.7624 C   0  0  0  0  0  0  0  0  0  0  0  0
   25.9965  -12.9711  -15.0486 N   0  0  0  0  0  0  0  0  0  0  0  0
   25.4435  -20.1019  -14.5995 C   0  0  0  0  0  0  0  0  0  0  0  0
   24.7639  -20.8936  -15.2884 O   0  0  0  0  0  0  0  0  0  0  0  0
   25.4714  -20.3294  -13.2019 N   0  0  0  0  0  0  0  0  0  0  0  0
   24.7552  -21.4269  -12.6420 C   0  0  1  0  0  0  0  0  0  0  0  0
   25.5872  -22.2360  -11.6727 C   0  0  0  0  0  0  0  0  0  0  0  0
   26.1176  -21.3365  -10.6292 C   0  0  0  0  0  0  0  0  0  0  0  0
   25.4076  -20.5603   -9.7224 C   0  0  0  0  0  0  0  0  0  0  0  0
   26.2582  -19.8798   -8.9435 N   0  0  0  0  0  0  0  0  0  0  0  0
   27.5163  -20.1684   -9.2911 C   0  0  0  0  0  0  0  0  0  0  0  0
   28.7383  -19.7318   -8.7940 C   0  0  0  0  0  0  0  0  0  0  0  0
   29.8720  -20.2382   -9.3878 C   0  0  0  0  0  0  0  0  0  0  0  0
   29.8291  -21.1375  -10.4286 C   0  0  0  0  0  0  0  0  0  0  0  0
   28.6132  -21.5617  -10.9115 C   0  0  0  0  0  0  0  0  0  0  0  0
   27.4415  -21.0796  -10.3455 C   0  0  0  0  0  0  0  0  0  0  0  0
   23.5295  -20.9171  -12.0027 C   0  0  0  0  0  0  0  0  0  0  0  0
   23.3788  -19.6930  -11.8438 O   0  0  0  0  0  0  0  0  0  0  0  0
   22.5555  -21.7852  -11.5827 O   0  0  0  0  0  0  0  0  0  0  0  0
  2  1  1  1
  2  3  1  0
  3  4  1  0
  5  4  1  0
  5  6  2  0
  7  8  2  0
  7  2  1  0
  9  5  1  0
 10  7  1  0
 11 12  1  6
 11 10  1  0
 13 12  1  0
 14 13  1  0
 15 14  1  0
 16 15  1  0
 17 11  1  0
 18 17  2  0
 19 17  1  0
 20 21  1  1
 20 19  1  0
 21 22  1  0
 22 30  1  0
 23 22  2  0
 23 24  1  0
 24 25  1  0
 25 26  2  0
 26 27  1  0
 28 27  2  0
 29 28  1  0
 30 29  2  0
 30 25  1  0
 31 33  1  0
 31 20  1  0
 32 31  2  0
M  END
$$$$
