EKW.pdb
     RDKit          3D

 33 34  0  0  1  0  0  0  0  0999 V2000
   27.3237  -18.2360  -20.0782 N   0  0  0  0  0  0  0  0  0  0  0  0
   27.4507  -18.1783  -18.6195 C   0  0  1  0  0  0  0  0  0  0  0  0
   26.6502  -17.0056  -18.1609 C   0  0  0  0  0  0  0  0  0  0  0  0
   25.3612  -16.9167  -18.9220 C   0  0  0  0  0  0  0  0  0  0  0  0
   24.9497  -15.5339  -19.1453 C   0  0  0  0  0  0  0  0  0  0  0  0
   25.6268  -14.5518  -18.8442 O   0  0  0  0  0  0  0  0  0  0  0  0
   26.9222  -19.4517  -18.0631 C   0  0  0  0  0  0  0  0  0  0  0  0
   26.0609  -20.0935  -18.6948 O   0  0  0  0  0  0  0  0  0  0  0  0
   23.6989  -15.2686  -19.7445 O   0  0  0  0  0  0  0  0  0  0  0  0
   27.4104  -19.9064  -16.8275 N   0  0  0  0  0  0  0  0  0  0  0  0
   27.1079  -21.2359  -16.3544 C   0  0  1  0  0  0  0  0  0  0  0  0
   28.3530  -22.0969  -16.4294 C   0  0  0  0  0  0  0  0  0  0  0  0
   28.6436  -22.6320  -17.7872 C   0  0  0  0  0  0  0  0  0  0  0  0
   29.9187  -23.4541  -17.7053 C   0  0  0  0  0  0  0  0  0  0  0  0
   30.3185  -23.8432  -19.1081 C   0  0  0  0  0  0  0  0  0  0  0  0
   31.4914  -24.6936  -19.1205 N   0  0  0  0  0  0  0  0  0  0  0  0
   26.5429  -21.1146  -15.0015 C   0  0  0  0  0  0  0  0  0  0  0  0
   27.1815  -20.4874  -14.1284 O   0  0  0  0  0  0  0  0  0  0  0  0
   25.2999  -21.6699  -14.6116 N   0  0  0  0  0  0  0  0  0  0  0  0
   24.8668  -21.5723  -13.2574 C   0  0  1  0  0  0  0  0  0  0  0  0
   24.8751  -20.1514  -12.7406 C   0  0  0  0  0  0  0  0  0  0  0  0
   24.4984  -20.1580  -11.3132 C   0  0  0  0  0  0  0  0  0  0  0  0
   25.3323  -20.2360  -10.2053 C   0  0  0  0  0  0  0  0  0  0  0  0
   24.6004  -20.2184   -9.0840 N   0  0  0  0  0  0  0  0  0  0  0  0
   23.3031  -20.1310   -9.3944 C   0  0  0  0  0  0  0  0  0  0  0  0
   22.1625  -20.0772   -8.6025 C   0  0  0  0  0  0  0  0  0  0  0  0
   20.9532  -19.9839   -9.2531 C   0  0  0  0  0  0  0  0  0  0  0  0
   20.8467  -19.9440  -10.6246 C   0  0  0  0  0  0  0  0  0  0  0  0
   21.9833  -19.9980  -11.3971 C   0  0  0  0  0  0  0  0  0  0  0  0
   23.2263  -20.0924  -10.7874 C   0  0  0  0  0  0  0  0  0  0  0  0
   23.5286  -22.1781  -13.1424 C   0  0  0  0  0  0  0  0  0  0  0  0
   23.3375  -23.1061  -12.3370 O   0  0  0  0  0  0  0  0  0  0  0  0
   22.4941  -21.7236  -13.9183 O   0  0  0  0  0  0  0  0  0  0  0  0
  2  1  1  6
  2  3  1  0
  3  4  1  0
  5  4  1  0
  5  6  2  0
  7  8  2  0
  7  2  1  0
  9  5  1  0
 10  7  1  0
 11 12  1  1
 11 10  1  0
 13 12  1  0
 14 13  1  0
 15 14  1  0
 16 15  1  0
 17 11  1  0
 18 17  2  0
 19 17  1  0
 20 21  1  6
 20 19  1  0
 21 22  1  0
 22 30  1  0
 23 22  2  0
 23 24  1  0
 24 25  1  0
 25 26  2  0
 26 27  1  0
 28 27  2  0
 29 28  1  0
 30 29  2  0
 30 25  1  0
 31 33  1  0
 31 20  1  0
 32 31  2  0
M  END
$$$$
