EKW.pdb
     RDKit          3D

 33 34  0  0  1  0  0  0  0  0999 V2000
   22.6740  -21.2571  -15.6006 N   0  0  0  0  0  0  0  0  0  0  0  0
   23.2463  -21.8811  -14.4047 C   0  0  1  0  0  0  0  0  0  0  0  0
   24.6933  -22.1116  -14.6865 C   0  0  0  0  0  0  0  0  0  0  0  0
   24.8713  -23.2802  -15.6092 C   0  0  0  0  0  0  0  0  0  0  0  0
   24.7086  -24.5556  -14.9176 C   0  0  0  0  0  0  0  0  0  0  0  0
   25.1940  -24.8144  -13.8172 O   0  0  0  0  0  0  0  0  0  0  0  0
   23.0540  -20.9469  -13.2641 C   0  0  0  0  0  0  0  0  0  0  0  0
   22.8637  -19.7348  -13.4815 O   0  0  0  0  0  0  0  0  0  0  0  0
   23.9500  -25.5823  -15.5213 O   0  0  0  0  0  0  0  0  0  0  0  0
   23.0911  -21.4566  -11.9562 N   0  0  0  0  0  0  0  0  0  0  0  0
   22.8310  -20.6048  -10.8207 C   0  0  1  0  0  0  0  0  0  0  0  0
   22.0144  -21.3634   -9.7935 C   0  0  0  0  0  0  0  0  0  0  0  0
   20.8592  -22.1089  -10.3627 C   0  0  0  0  0  0  0  0  0  0  0  0
   20.1647  -22.8390   -9.2255 C   0  0  0  0  0  0  0  0  0  0  0  0
   18.6764  -22.6350   -9.3748 C   0  0  0  0  0  0  0  0  0  0  0  0
   17.9292  -23.3242   -8.3424 N   0  0  0  0  0  0  0  0  0  0  0  0
   24.1248  -20.1176  -10.3176 C   0  0  0  0  0  0  0  0  0  0  0  0
   24.1519  -19.4221   -9.2789 O   0  0  0  0  0  0  0  0  0  0  0  0
   25.3674  -20.3880  -10.9408 N   0  0  0  0  0  0  0  0  0  0  0  0
   26.5773  -20.2926  -10.1938 C   0  0  1  0  0  0  0  0  0  0  0  0
   26.4792  -20.9458   -8.8337 C   0  0  0  0  0  0  0  0  0  0  0  0
   26.8711  -19.9657   -7.8016 C   0  0  0  0  0  0  0  0  0  0  0  0
   26.7182  -18.5855   -7.8257 C   0  0  0  0  0  0  0  0  0  0  0  0
   27.2077  -18.0547   -6.6980 N   0  0  0  0  0  0  0  0  0  0  0  0
   27.6851  -19.0260   -5.9133 C   0  0  0  0  0  0  0  0  0  0  0  0
   28.2831  -18.9943   -4.6593 C   0  0  0  0  0  0  0  0  0  0  0  0
   28.6641  -20.2008   -4.1175 C   0  0  0  0  0  0  0  0  0  0  0  0
   28.4748  -21.4006   -4.7643 C   0  0  0  0  0  0  0  0  0  0  0  0
   27.8817  -21.4183   -6.0052 C   0  0  0  0  0  0  0  0  0  0  0  0
   27.4800  -20.2273   -6.5933 C   0  0  0  0  0  0  0  0  0  0  0  0
   27.6735  -20.8715  -10.9901 C   0  0  0  0  0  0  0  0  0  0  0  0
   27.4321  -21.3693  -12.1039 O   0  0  0  0  0  0  0  0  0  0  0  0
   28.9571  -20.8639  -10.5094 O   0  0  0  0  0  0  0  0  0  0  0  0
  2  1  1  6
  2  3  1  0
  3  4  1  0
  5  4  1  0
  5  6  2  0
  7  8  2  0
  7  2  1  0
  9  5  1  0
 10  7  1  0
 11 12  1  1
 11 10  1  0
 13 12  1  0
 14 13  1  0
 15 14  1  0
 16 15  1  0
 17 11  1  0
 18 17  2  0
 19 17  1  0
 20 21  1  1
 20 19  1  0
 21 22  1  0
 22 30  1  0
 23 22  2  0
 23 24  1  0
 24 25  1  0
 25 26  2  0
 26 27  1  0
 28 27  2  0
 29 28  1  0
 30 29  2  0
 30 25  1  0
 31 33  1  0
 31 20  1  0
 32 31  2  0
M  END
$$$$
