EKW.pdb
     RDKit          3D

 33 34  0  0  1  0  0  0  0  0999 V2000
   29.6624  -22.6860  -16.5715 N   0  0  0  0  0  0  0  0  0  0  0  0
   28.7977  -21.6344  -17.1133 C   0  0  1  0  0  0  0  0  0  0  0  0
   27.8999  -22.2836  -18.1127 C   0  0  0  0  0  0  0  0  0  0  0  0
   27.7567  -23.7475  -17.8206 C   0  0  0  0  0  0  0  0  0  0  0  0
   26.8786  -24.4149  -18.7771 C   0  0  0  0  0  0  0  0  0  0  0  0
   27.1044  -24.4993  -19.9835 O   0  0  0  0  0  0  0  0  0  0  0  0
   28.0263  -21.0492  -15.9850 C   0  0  0  0  0  0  0  0  0  0  0  0
   28.4453  -21.1731  -14.8180 O   0  0  0  0  0  0  0  0  0  0  0  0
   25.6835  -25.0145  -18.3231 O   0  0  0  0  0  0  0  0  0  0  0  0
   26.8327  -20.3635  -16.2628 N   0  0  0  0  0  0  0  0  0  0  0  0
   26.1392  -19.6333  -15.2291 C   0  0  1  0  0  0  0  0  0  0  0  0
   25.0902  -18.7375  -15.8571 C   0  0  0  0  0  0  0  0  0  0  0  0
   24.2452  -18.0063  -14.8744 C   0  0  0  0  0  0  0  0  0  0  0  0
   23.1846  -17.2390  -15.6458 C   0  0  0  0  0  0  0  0  0  0  0  0
   23.0014  -15.8948  -14.9834 C   0  0  0  0  0  0  0  0  0  0  0  0
   22.0562  -15.0626  -15.6998 N   0  0  0  0  0  0  0  0  0  0  0  0
   25.5982  -20.6113  -14.2725 C   0  0  0  0  0  0  0  0  0  0  0  0
   25.0258  -21.6351  -14.7058 O   0  0  0  0  0  0  0  0  0  0  0  0
   25.6833  -20.4711  -12.8658 N   0  0  0  0  0  0  0  0  0  0  0  0
   25.1778  -21.4954  -12.0136 C   0  0  1  0  0  0  0  0  0  0  0  0
   26.1781  -21.9343  -10.9682 C   0  0  0  0  0  0  0  0  0  0  0  0
   26.2301  -20.9188   -9.8979 C   0  0  0  0  0  0  0  0  0  0  0  0
   25.2532  -19.9995   -9.5381 C   0  0  0  0  0  0  0  0  0  0  0  0
   25.6895  -19.2489   -8.5187 N   0  0  0  0  0  0  0  0  0  0  0  0
   26.9250  -19.6281   -8.1768 C   0  0  0  0  0  0  0  0  0  0  0  0
   27.7962  -19.1713   -7.1953 C   0  0  0  0  0  0  0  0  0  0  0  0
   29.0195  -19.7956   -7.1050 C   0  0  0  0  0  0  0  0  0  0  0  0
   29.3916  -20.8280   -7.9353 C   0  0  0  0  0  0  0  0  0  0  0  0
   28.5201  -21.2708   -8.9028 C   0  0  0  0  0  0  0  0  0  0  0  0
   27.2746  -20.6731   -9.0332 C   0  0  0  0  0  0  0  0  0  0  0  0
   23.9264  -21.0234  -11.3952 C   0  0  0  0  0  0  0  0  0  0  0  0
   23.6445  -19.8125  -11.4177 O   0  0  0  0  0  0  0  0  0  0  0  0
   23.0723  -21.9124  -10.7960 O   0  0  0  0  0  0  0  0  0  0  0  0
  2  1  1  1
  2  3  1  0
  3  4  1  0
  5  4  1  0
  5  6  2  0
  7  8  2  0
  7  2  1  0
  9  5  1  0
 10  7  1  0
 11 12  1  6
 11 10  1  0
 13 12  1  0
 14 13  1  0
 15 14  1  0
 16 15  1  0
 17 11  1  0
 18 17  2  0
 19 17  1  0
 20 21  1  1
 20 19  1  0
 21 22  1  0
 22 30  1  0
 23 22  2  0
 23 24  1  0
 24 25  1  0
 25 26  2  0
 26 27  1  0
 28 27  2  0
 29 28  1  0
 30 29  2  0
 30 25  1  0
 31 33  1  0
 31 20  1  0
 32 31  2  0
M  END
$$$$
