EKW.pdb
     RDKit          3D

 33 34  0  0  1  0  0  0  0  0999 V2000
   28.3184  -20.3683  -17.0789 N   0  0  0  0  0  0  0  0  0  0  0  0
   28.5498  -19.7340  -15.7784 C   0  0  1  0  0  0  0  0  0  0  0  0
   28.8686  -18.3011  -16.0457 C   0  0  0  0  0  0  0  0  0  0  0  0
   28.0014  -17.7639  -17.1448 C   0  0  0  0  0  0  0  0  0  0  0  0
   28.4205  -16.4331  -17.5743 C   0  0  0  0  0  0  0  0  0  0  0  0
   29.4432  -15.8696  -17.1867 O   0  0  0  0  0  0  0  0  0  0  0  0
   27.3088  -19.8762  -14.9721 C   0  0  0  0  0  0  0  0  0  0  0  0
   26.3980  -19.0330  -15.0830 O   0  0  0  0  0  0  0  0  0  0  0  0
   27.6247  -15.7164  -18.4947 O   0  0  0  0  0  0  0  0  0  0  0  0
   27.1901  -20.9675  -14.0965 N   0  0  0  0  0  0  0  0  0  0  0  0
   26.0026  -21.1513  -13.2973 C   0  0  1  0  0  0  0  0  0  0  0  0
   25.3627  -22.4825  -13.6377 C   0  0  0  0  0  0  0  0  0  0  0  0
   25.3147  -22.7812  -15.0947 C   0  0  0  0  0  0  0  0  0  0  0  0
   24.6829  -24.1515  -15.2729 C   0  0  0  0  0  0  0  0  0  0  0  0
   24.5785  -24.4325  -16.7524 C   0  0  0  0  0  0  0  0  0  0  0  0
   25.7998  -25.0041  -17.2825 N   0  0  0  0  0  0  0  0  0  0  0  0
   26.3856  -21.0139  -11.8835 C   0  0  0  0  0  0  0  0  0  0  0  0
   27.4879  -21.4659  -11.5041 O   0  0  0  0  0  0  0  0  0  0  0  0
   25.5757  -20.3916  -10.9025 N   0  0  0  0  0  0  0  0  0  0  0  0
   25.7488  -20.7120   -9.5246 C   0  0  1  0  0  0  0  0  0  0  0  0
   26.8046  -19.8626   -8.8538 C   0  0  0  0  0  0  0  0  0  0  0  0
   26.8256  -20.1745   -7.4110 C   0  0  0  0  0  0  0  0  0  0  0  0
   26.0192  -21.0639   -6.7128 C   0  0  0  0  0  0  0  0  0  0  0  0
   26.3503  -21.0547   -5.4153 N   0  0  0  0  0  0  0  0  0  0  0  0
   27.3510  -20.1919   -5.2122 C   0  0  0  0  0  0  0  0  0  0  0  0
   28.0414  -19.8276   -4.0625 C   0  0  0  0  0  0  0  0  0  0  0  0
   29.0413  -18.8924   -4.2032 C   0  0  0  0  0  0  0  0  0  0  0  0
   29.3657  -18.3257   -5.4146 C   0  0  0  0  0  0  0  0  0  0  0  0
   28.6747  -18.6949   -6.5451 C   0  0  0  0  0  0  0  0  0  0  0  0
   27.6576  -19.6344   -6.4543 C   0  0  0  0  0  0  0  0  0  0  0  0
   24.4485  -20.5911   -8.8424 C   0  0  0  0  0  0  0  0  0  0  0  0
   23.4970  -20.0364   -9.4198 O   0  0  0  0  0  0  0  0  0  0  0  0
   24.2829  -21.0871   -7.5754 O   0  0  0  0  0  0  0  0  0  0  0  0
  2  1  1  6
  2  3  1  0
  3  4  1  0
  5  4  1  0
  5  6  2  0
  7  8  2  0
  7  2  1  0
  9  5  1  0
 10  7  1  0
 11 12  1  1
 11 10  1  0
 13 12  1  0
 14 13  1  0
 15 14  1  0
 16 15  1  0
 17 11  1  0
 18 17  2  0
 19 17  1  0
 20 21  1  1
 20 19  1  0
 21 22  1  0
 22 30  1  0
 23 22  2  0
 23 24  1  0
 24 25  1  0
 25 26  2  0
 26 27  1  0
 28 27  2  0
 29 28  1  0
 30 29  2  0
 30 25  1  0
 31 33  1  0
 31 20  1  0
 32 31  2  0
M  END
$$$$
