EKW.pdb
     RDKit          3D

 33 34  0  0  1  0  0  0  0  0999 V2000
   28.2719  -22.6094  -18.1393 N   0  0  0  0  0  0  0  0  0  0  0  0
   28.6218  -22.0393  -16.8356 C   0  0  1  0  0  0  0  0  0  0  0  0
   29.6093  -20.9501  -17.0898 C   0  0  0  0  0  0  0  0  0  0  0  0
   29.7856  -20.7311  -18.5628 C   0  0  0  0  0  0  0  0  0  0  0  0
   29.2584  -19.4395  -18.9929 C   0  0  0  0  0  0  0  0  0  0  0  0
   29.0345  -18.4954  -18.2366 O   0  0  0  0  0  0  0  0  0  0  0  0
   27.3763  -21.5139  -16.2164 C   0  0  0  0  0  0  0  0  0  0  0  0
   26.5627  -20.8730  -16.9093 O   0  0  0  0  0  0  0  0  0  0  0  0
   28.9758  -19.2238  -20.3596 O   0  0  0  0  0  0  0  0  0  0  0  0
   27.1430  -21.7544  -14.8528 N   0  0  0  0  0  0  0  0  0  0  0  0
   25.8870  -21.3937  -14.2403 C   0  0  1  0  0  0  0  0  0  0  0  0
   24.7595  -22.1557  -14.9077 C   0  0  0  0  0  0  0  0  0  0  0  0
   24.8093  -23.6278  -14.6959 C   0  0  0  0  0  0  0  0  0  0  0  0
   23.5687  -24.2357  -15.3284 C   0  0  0  0  0  0  0  0  0  0  0  0
   23.6216  -25.7307  -15.1252 C   0  0  0  0  0  0  0  0  0  0  0  0
   22.5221  -26.4058  -15.7844 N   0  0  0  0  0  0  0  0  0  0  0  0
   26.0040  -21.6397  -12.7946 C   0  0  0  0  0  0  0  0  0  0  0  0
   26.8610  -22.4513  -12.3819 O   0  0  0  0  0  0  0  0  0  0  0  0
   25.1970  -21.0072  -11.8177 N   0  0  0  0  0  0  0  0  0  0  0  0
   25.6435  -20.9235  -10.4669 C   0  0  1  0  0  0  0  0  0  0  0  0
   26.5566  -19.7431  -10.2238 C   0  0  0  0  0  0  0  0  0  0  0  0
   27.7582  -20.2068   -9.5023 C   0  0  0  0  0  0  0  0  0  0  0  0
   28.8039  -20.9827   -9.9853 C   0  0  0  0  0  0  0  0  0  0  0  0
   29.7015  -21.1906   -9.0136 N   0  0  0  0  0  0  0  0  0  0  0  0
   29.3003  -20.5831   -7.8924 C   0  0  0  0  0  0  0  0  0  0  0  0
   29.8721  -20.4986   -6.6287 C   0  0  0  0  0  0  0  0  0  0  0  0
   29.1862  -19.7763   -5.6789 C   0  0  0  0  0  0  0  0  0  0  0  0
   27.9862  -19.1549   -5.9390 C   0  0  0  0  0  0  0  0  0  0  0  0
   27.4308  -19.2462   -7.1940 C   0  0  0  0  0  0  0  0  0  0  0  0
   28.0846  -19.9635   -8.1857 C   0  0  0  0  0  0  0  0  0  0  0  0
   24.4676  -20.8849   -9.5800 C   0  0  0  0  0  0  0  0  0  0  0  0
   23.4362  -20.2949   -9.9467 O   0  0  0  0  0  0  0  0  0  0  0  0
   24.5053  -21.4959   -8.3536 O   0  0  0  0  0  0  0  0  0  0  0  0
  2  1  1  6
  2  3  1  0
  3  4  1  0
  5  4  1  0
  5  6  2  0
  7  8  2  0
  7  2  1  0
  9  5  1  0
 10  7  1  0
 11 12  1  6
 11 10  1  0
 13 12  1  0
 14 13  1  0
 15 14  1  0
 16 15  1  0
 17 11  1  0
 18 17  2  0
 19 17  1  0
 20 21  1  6
 20 19  1  0
 21 22  1  0
 22 30  1  0
 23 22  2  0
 23 24  1  0
 24 25  1  0
 25 26  2  0
 26 27  1  0
 28 27  2  0
 29 28  1  0
 30 29  2  0
 30 25  1  0
 31 33  1  0
 31 20  1  0
 32 31  2  0
M  END
$$$$
