EKW.pdb
     RDKit          3D

 33 34  0  0  1  0  0  0  0  0999 V2000
   24.7143  -26.7858  -16.4892 N   0  0  0  0  0  0  0  0  0  0  0  0
   24.2100  -25.4176  -16.6334 C   0  0  1  0  0  0  0  0  0  0  0  0
   22.8450  -25.3931  -16.0314 C   0  0  0  0  0  0  0  0  0  0  0  0
   21.7984  -25.2960  -17.1009 C   0  0  0  0  0  0  0  0  0  0  0  0
   21.0153  -26.5227  -17.2159 C   0  0  0  0  0  0  0  0  0  0  0  0
   20.6519  -27.2055  -16.2592 O   0  0  0  0  0  0  0  0  0  0  0  0
   25.1406  -24.5082  -15.9141 C   0  0  0  0  0  0  0  0  0  0  0  0
   25.7893  -24.9314  -14.9379 O   0  0  0  0  0  0  0  0  0  0  0  0
   20.6315  -26.9857  -18.4936 O   0  0  0  0  0  0  0  0  0  0  0  0
   25.2690  -23.1813  -16.3555 N   0  0  0  0  0  0  0  0  0  0  0  0
   26.2575  -22.3009  -15.7808 C   0  0  1  0  0  0  0  0  0  0  0  0
   26.5155  -21.1429  -16.7240 C   0  0  0  0  0  0  0  0  0  0  0  0
   27.4531  -20.1183  -16.1896 C   0  0  0  0  0  0  0  0  0  0  0  0
   27.6861  -19.0823  -17.2762 C   0  0  0  0  0  0  0  0  0  0  0  0
   28.6237  -18.0319  -16.7315 C   0  0  0  0  0  0  0  0  0  0  0  0
   27.9459  -17.1093  -15.8435 N   0  0  0  0  0  0  0  0  0  0  0  0
   25.7798  -21.8955  -14.4497 C   0  0  0  0  0  0  0  0  0  0  0  0
   24.5561  -21.7100  -14.2718 O   0  0  0  0  0  0  0  0  0  0  0  0
   26.6274  -21.6974  -13.3326 N   0  0  0  0  0  0  0  0  0  0  0  0
   26.0712  -21.3619  -12.0640 C   0  0  1  0  0  0  0  0  0  0  0  0
   26.8916  -21.8867  -10.9074 C   0  0  0  0  0  0  0  0  0  0  0  0
   26.5508  -21.1217   -9.6917 C   0  0  0  0  0  0  0  0  0  0  0  0
   25.2934  -20.7427   -9.2396 C   0  0  0  0  0  0  0  0  0  0  0  0
   25.4101  -20.0540   -8.0972 N   0  0  0  0  0  0  0  0  0  0  0  0
   26.7002  -19.9544   -7.7612 C   0  0  0  0  0  0  0  0  0  0  0  0
   27.3325  -19.3499   -6.6815 C   0  0  0  0  0  0  0  0  0  0  0  0
   28.7052  -19.4359   -6.6323 C   0  0  0  0  0  0  0  0  0  0  0  0
   29.4456  -20.0844   -7.5941 C   0  0  0  0  0  0  0  0  0  0  0  0
   28.8077  -20.6787   -8.6579 C   0  0  0  0  0  0  0  0  0  0  0  0
   27.4245  -20.6191   -8.7518 C   0  0  0  0  0  0  0  0  0  0  0  0
   25.9099  -19.8993  -11.9885 C   0  0  0  0  0  0  0  0  0  0  0  0
   24.8281  -19.4156  -11.6112 O   0  0  0  0  0  0  0  0  0  0  0  0
   26.9459  -19.0701  -12.3316 O   0  0  0  0  0  0  0  0  0  0  0  0
  2  1  1  1
  2  3  1  0
  3  4  1  0
  5  4  1  0
  5  6  2  0
  7  8  2  0
  7  2  1  0
  9  5  1  0
 10  7  1  0
 11 12  1  6
 11 10  1  0
 13 12  1  0
 14 13  1  0
 15 14  1  0
 16 15  1  0
 17 11  1  0
 18 17  2  0
 19 17  1  0
 20 21  1  1
 20 19  1  0
 21 22  1  0
 22 30  1  0
 23 22  2  0
 23 24  1  0
 24 25  1  0
 25 26  2  0
 26 27  1  0
 28 27  2  0
 29 28  1  0
 30 29  2  0
 30 25  1  0
 31 33  1  0
 31 20  1  0
 32 31  2  0
M  END
$$$$
