EKW.pdb
     RDKit          3D

 33 34  0  0  1  0  0  0  0  0999 V2000
   27.7014  -21.0376  -19.7992 N   0  0  0  0  0  0  0  0  0  0  0  0
   27.2384  -19.7858  -19.1945 C   0  0  1  0  0  0  0  0  0  0  0  0
   27.3936  -18.7215  -20.2287 C   0  0  0  0  0  0  0  0  0  0  0  0
   28.7828  -18.7333  -20.7933 C   0  0  0  0  0  0  0  0  0  0  0  0
   29.7120  -17.9531  -19.9815 C   0  0  0  0  0  0  0  0  0  0  0  0
   30.7611  -18.3929  -19.5129 O   0  0  0  0  0  0  0  0  0  0  0  0
   25.8149  -19.9648  -18.8042 C   0  0  0  0  0  0  0  0  0  0  0  0
   25.1220  -18.9701  -18.5156 O   0  0  0  0  0  0  0  0  0  0  0  0
   29.4202  -16.6013  -19.6958 O   0  0  0  0  0  0  0  0  0  0  0  0
   25.2789  -21.2622  -18.7699 N   0  0  0  0  0  0  0  0  0  0  0  0
   23.8950  -21.4840  -18.4258 C   0  0  1  0  0  0  0  0  0  0  0  0
   23.4214  -22.7858  -19.0409 C   0  0  0  0  0  0  0  0  0  0  0  0
   21.9784  -23.0749  -18.8207 C   0  0  0  0  0  0  0  0  0  0  0  0
   21.6683  -24.4235  -19.4480 C   0  0  0  0  0  0  0  0  0  0  0  0
   20.1953  -24.6994  -19.2660 C   0  0  0  0  0  0  0  0  0  0  0  0
   19.7927  -25.9351  -19.9067 N   0  0  0  0  0  0  0  0  0  0  0  0
   23.7826  -21.4373  -16.9597 C   0  0  0  0  0  0  0  0  0  0  0  0
   24.5808  -22.1042  -16.2658 O   0  0  0  0  0  0  0  0  0  0  0  0
   22.8132  -20.6730  -16.2656 N   0  0  0  0  0  0  0  0  0  0  0  0
   22.7875  -20.6755  -14.8406 C   0  0  1  0  0  0  0  0  0  0  0  0
   24.0530  -20.1162  -14.2309 C   0  0  0  0  0  0  0  0  0  0  0  0
   24.2069  -18.7095  -14.6515 C   0  0  0  0  0  0  0  0  0  0  0  0
   23.2448  -17.7081  -14.6688 C   0  0  0  0  0  0  0  0  0  0  0  0
   23.7827  -16.5694  -15.1239 N   0  0  0  0  0  0  0  0  0  0  0  0
   25.0729  -16.7653  -15.4140 C   0  0  0  0  0  0  0  0  0  0  0  0
   26.0521  -15.9107  -15.9057 C   0  0  0  0  0  0  0  0  0  0  0  0
   27.3085  -16.4408  -16.0923 C   0  0  0  0  0  0  0  0  0  0  0  0
   27.6116  -17.7539  -15.8137 C   0  0  0  0  0  0  0  0  0  0  0  0
   26.6332  -18.5895  -15.3275 C   0  0  0  0  0  0  0  0  0  0  0  0
   25.3505  -18.1015  -15.1225 C   0  0  0  0  0  0  0  0  0  0  0  0
   21.5986  -19.9333  -14.3862 C   0  0  0  0  0  0  0  0  0  0  0  0
   20.8925  -19.3310  -15.2140 O   0  0  0  0  0  0  0  0  0  0  0  0
   21.2674  -19.9039  -13.0565 O   0  0  0  0  0  0  0  0  0  0  0  0
  2  1  1  6
  2  3  1  0
  3  4  1  0
  5  4  1  0
  5  6  2  0
  7  8  2  0
  7  2  1  0
  9  5  1  0
 10  7  1  0
 11 12  1  1
 11 10  1  0
 13 12  1  0
 14 13  1  0
 15 14  1  0
 16 15  1  0
 17 11  1  0
 18 17  2  0
 19 17  1  0
 20 21  1  1
 20 19  1  0
 21 22  1  0
 22 30  1  0
 23 22  2  0
 23 24  1  0
 24 25  1  0
 25 26  2  0
 26 27  1  0
 28 27  2  0
 29 28  1  0
 30 29  2  0
 30 25  1  0
 31 33  1  0
 31 20  1  0
 32 31  2  0
M  END
$$$$
