EKW.pdb
     RDKit          3D

 33 34  0  0  1  0  0  0  0  0999 V2000
   18.2560  -18.1577  -15.1717 N   0  0  0  0  0  0  0  0  0  0  0  0
   19.3561  -18.5973  -16.0340 C   0  0  1  0  0  0  0  0  0  0  0  0
   20.0688  -17.3676  -16.4881 C   0  0  0  0  0  0  0  0  0  0  0  0
   19.7531  -16.2116  -15.5865 C   0  0  0  0  0  0  0  0  0  0  0  0
   20.3182  -14.9596  -16.0806 C   0  0  0  0  0  0  0  0  0  0  0  0
   20.8989  -14.1352  -15.3759 O   0  0  0  0  0  0  0  0  0  0  0  0
   20.2443  -19.4779  -15.2301 C   0  0  0  0  0  0  0  0  0  0  0  0
   20.0181  -19.6436  -14.0160 O   0  0  0  0  0  0  0  0  0  0  0  0
   20.2104  -14.6412  -17.4522 O   0  0  0  0  0  0  0  0  0  0  0  0
   21.3273  -20.1089  -15.8633 N   0  0  0  0  0  0  0  0  0  0  0  0
   22.1112  -21.1054  -15.1740 C   0  0  1  0  0  0  0  0  0  0  0  0
   21.7447  -22.4837  -15.6869 C   0  0  0  0  0  0  0  0  0  0  0  0
   22.4640  -23.5972  -15.0109 C   0  0  0  0  0  0  0  0  0  0  0  0
   21.8928  -24.9073  -15.5266 C   0  0  0  0  0  0  0  0  0  0  0  0
   22.5962  -26.0389  -14.8169 C   0  0  0  0  0  0  0  0  0  0  0  0
   22.0637  -27.3313  -15.1983 N   0  0  0  0  0  0  0  0  0  0  0  0
   23.5308  -20.7593  -15.3456 C   0  0  0  0  0  0  0  0  0  0  0  0
   23.8344  -19.6180  -15.7562 O   0  0  0  0  0  0  0  0  0  0  0  0
   24.5993  -21.6475  -15.0716 N   0  0  0  0  0  0  0  0  0  0  0  0
   25.7341  -21.1953  -14.3376 C   0  0  1  0  0  0  0  0  0  0  0  0
   25.3600  -20.5226  -13.0362 C   0  0  0  0  0  0  0  0  0  0  0  0
   26.5871  -20.2773  -12.2531 C   0  0  0  0  0  0  0  0  0  0  0  0
   27.8360  -19.8819  -12.7147 C   0  0  0  0  0  0  0  0  0  0  0  0
   28.6868  -19.7737  -11.6864 N   0  0  0  0  0  0  0  0  0  0  0  0
   28.0581  -20.0811  -10.5474 C   0  0  0  0  0  0  0  0  0  0  0  0
   28.4946  -20.1172   -9.2287 C   0  0  0  0  0  0  0  0  0  0  0  0
   27.5717  -20.4795   -8.2741 C   0  0  0  0  0  0  0  0  0  0  0  0
   26.2684  -20.7973   -8.5811 C   0  0  0  0  0  0  0  0  0  0  0  0
   25.8489  -20.7577   -9.8904 C   0  0  0  0  0  0  0  0  0  0  0  0
   26.7426  -20.3982  -10.8891 C   0  0  0  0  0  0  0  0  0  0  0  0
   26.6386  -22.3364  -14.1120 C   0  0  0  0  0  0  0  0  0  0  0  0
   26.1717  -23.4363  -13.7676 O   0  0  0  0  0  0  0  0  0  0  0  0
   27.9912  -22.1912  -14.2800 O   0  0  0  0  0  0  0  0  0  0  0  0
  2  1  1  1
  2  3  1  0
  3  4  1  0
  5  4  1  0
  5  6  2  0
  7  8  2  0
  7  2  1  0
  9  5  1  0
 10  7  1  0
 11 12  1  6
 11 10  1  0
 13 12  1  0
 14 13  1  0
 15 14  1  0
 16 15  1  0
 17 11  1  0
 18 17  2  0
 19 17  1  0
 20 21  1  1
 20 19  1  0
 21 22  1  0
 22 30  1  0
 23 22  2  0
 23 24  1  0
 24 25  1  0
 25 26  2  0
 26 27  1  0
 28 27  2  0
 29 28  1  0
 30 29  2  0
 30 25  1  0
 31 33  1  0
 31 20  1  0
 32 31  2  0
M  END
$$$$
