WET.pdb
     RDKit          3D

 31 32  0  0  1  0  0  0  0  0999 V2000
    9.5031  -15.6903   22.2475 N   0  0  0  0  0  0  0  0  0  0  0  0
    8.9375  -15.6243   23.5510 C   0  0  1  0  0  0  0  0  0  0  0  0
    7.4527  -15.6247   23.5058 C   0  0  0  0  0  0  0  0  0  0  0  0
    6.9741  -14.3249   22.9739 C   0  0  0  0  0  0  0  0  0  0  0  0
    6.5071  -14.0770   21.6834 C   0  0  0  0  0  0  0  0  0  0  0  0
    6.1271  -12.8009   21.5722 N   0  0  0  0  0  0  0  0  0  0  0  0
    6.3351  -12.2119   22.7555 C   0  0  0  0  0  0  0  0  0  0  0  0
    6.1186  -10.9064   23.1671 C   0  0  0  0  0  0  0  0  0  0  0  0
    6.4309  -10.5400   24.4591 C   0  0  0  0  0  0  0  0  0  0  0  0
    6.9553  -11.4232   25.3716 C   0  0  0  0  0  0  0  0  0  0  0  0
    7.1676  -12.7309   24.9459 C   0  0  0  0  0  0  0  0  0  0  0  0
    6.8644  -13.1346   23.6551 C   0  0  0  0  0  0  0  0  0  0  0  0
    9.4986  -16.7095   24.3949 C   0  0  0  0  0  0  0  0  0  0  0  0
    8.9427  -17.0551   25.4678 O   0  0  0  0  0  0  0  0  0  0  0  0
   10.6888  -17.4153   24.0408 N   0  0  0  0  0  0  0  0  0  0  0  0
   11.3720  -18.3397   24.9189 C   0  0  1  0  0  0  0  0  0  0  0  0
   12.5733  -18.8779   24.1879 C   0  0  0  0  0  0  0  0  0  0  0  0
   13.2504  -19.9510   24.9922 C   0  0  0  0  0  0  0  0  0  0  0  0
   14.4526  -20.4891   24.2827 C   0  0  0  0  0  0  0  0  0  0  0  0
   14.2577  -21.3265   23.3612 O   0  0  0  0  0  0  0  0  0  0  0  0
   11.7999  -17.7399   26.1973 C   0  0  0  0  0  0  0  0  0  0  0  0
   12.7434  -16.9190   26.1629 O   0  0  0  0  0  0  0  0  0  0  0  0
   15.7153  -20.0708   24.6397 O   0  0  0  0  0  0  0  0  0  0  0  0
   10.1831  -15.4748   28.2684 C   0  0  0  0  0  0  0  0  0  0  0  0
   10.4321  -16.6486   29.2221 C   0  0  1  0  0  0  0  0  0  0  0  0
    9.3074  -17.4759   29.2450 O   0  0  0  0  0  0  0  0  0  0  0  0
   11.5856  -17.4944   28.7261 C   0  0  2  0  0  0  0  0  0  0  0  0
   11.2152  -18.0360   27.4448 N   0  0  0  0  0  0  0  0  0  0  0  0
   11.9662  -18.5681   29.6509 C   0  0  0  0  0  0  0  0  0  0  0  0
   12.4479  -18.3021   30.9471 O   0  0  0  0  0  0  0  0  0  0  0  0
   11.8795  -19.7688   29.3284 O   0  0  0  0  0  0  0  0  0  0  0  0
  2  1  1  6
  2  3  1  0
  3  4  1  0
  4  5  2  0
  5  6  1  0
  7  6  1  0
  8  7  2  0
  9  8  1  0
 10 11  1  0
 10  9  2  0
 11 12  2  0
 12  4  1  0
 12  7  1  0
 13 14  2  0
 13  2  1  0
 15 13  1  0
 16 15  1  0
 16 17  1  6
 17 18  1  0
 18 19  1  0
 19 23  1  0
 20 19  2  0
 21 16  1  0
 22 21  2  0
 25 24  1  6
 25 27  1  0
 25 26  1  0
 27 28  1  6
 28 21  1  0
 29 27  1  0
 29 30  1  0
 31 29  2  0
M  END
$$$$
