WET.pdb
     RDKit          3D

 31 32  0  0  1  0  0  0  0  0999 V2000
    6.5637  -17.2902   24.5915 N   0  0  0  0  0  0  0  0  0  0  0  0
    7.7442  -16.4971   24.5626 C   0  0  1  0  0  0  0  0  0  0  0  0
    7.8929  -15.6885   25.7999 C   0  0  0  0  0  0  0  0  0  0  0  0
    6.8468  -14.6368   25.8316 C   0  0  0  0  0  0  0  0  0  0  0  0
    5.5097  -14.8060   26.1902 C   0  0  0  0  0  0  0  0  0  0  0  0
    4.8707  -13.6337   26.1373 N   0  0  0  0  0  0  0  0  0  0  0  0
    5.7560  -12.7068   25.7533 C   0  0  0  0  0  0  0  0  0  0  0  0
    5.6056  -11.3462   25.5376 C   0  0  0  0  0  0  0  0  0  0  0  0
    6.6891  -10.5988   25.1270 C   0  0  0  0  0  0  0  0  0  0  0  0
    7.9305  -11.1496   24.9183 C   0  0  0  0  0  0  0  0  0  0  0  0
    8.0682  -12.5166   25.1386 C   0  0  0  0  0  0  0  0  0  0  0  0
    7.0013  -13.2984   25.5527 C   0  0  0  0  0  0  0  0  0  0  0  0
    8.9194  -17.3600   24.2815 C   0  0  0  0  0  0  0  0  0  0  0  0
    9.0448  -18.4878   24.8217 O   0  0  0  0  0  0  0  0  0  0  0  0
    9.9636  -16.9630   23.3915 N   0  0  0  0  0  0  0  0  0  0  0  0
   11.3558  -17.3124   23.5717 C   0  0  1  0  0  0  0  0  0  0  0  0
   12.1396  -16.7107   22.4356 C   0  0  0  0  0  0  0  0  0  0  0  0
   13.5876  -17.1018   22.5208 C   0  0  0  0  0  0  0  0  0  0  0  0
   14.3006  -16.8412   21.2316 C   0  0  0  0  0  0  0  0  0  0  0  0
   15.2895  -16.0605   21.2613 O   0  0  0  0  0  0  0  0  0  0  0  0
   11.9215  -16.8587   24.8566 C   0  0  0  0  0  0  0  0  0  0  0  0
   12.9191  -16.1048   24.8144 O   0  0  0  0  0  0  0  0  0  0  0  0
   13.8748  -17.4428   20.0681 O   0  0  0  0  0  0  0  0  0  0  0  0
   10.6540  -14.7208   27.4095 C   0  0  0  0  0  0  0  0  0  0  0  0
   10.8930  -16.0511   28.1323 C   0  0  1  0  0  0  0  0  0  0  0  0
    9.7186  -16.8064   28.1165 O   0  0  0  0  0  0  0  0  0  0  0  0
   11.9440  -16.8636   27.4062 C   0  0  2  0  0  0  0  0  0  0  0  0
   11.4104  -17.2228   26.1184 N   0  0  0  0  0  0  0  0  0  0  0  0
   12.3722  -18.0595   28.1406 C   0  0  0  0  0  0  0  0  0  0  0  0
   12.9928  -17.9796   29.4020 O   0  0  0  0  0  0  0  0  0  0  0  0
   12.2046  -19.2045   27.6779 O   0  0  0  0  0  0  0  0  0  0  0  0
  2  1  1  1
  2  3  1  0
  3  4  1  0
  4  5  2  0
  5  6  1  0
  7  6  1  0
  8  7  2  0
  9  8  1  0
 10 11  1  0
 10  9  2  0
 11 12  2  0
 12  4  1  0
 12  7  1  0
 13 14  2  0
 13  2  1  0
 15 13  1  0
 16 15  1  0
 16 17  1  6
 17 18  1  0
 18 19  1  0
 19 23  1  0
 20 19  2  0
 21 16  1  0
 22 21  2  0
 25 24  1  6
 25 27  1  0
 25 26  1  0
 27 28  1  6
 28 21  1  0
 29 27  1  0
 29 30  1  0
 31 29  2  0
M  END
$$$$
