WET.pdb
     RDKit          3D

 31 32  0  0  1  0  0  0  0  0999 V2000
    6.4458  -18.0284   24.4333 N   0  0  0  0  0  0  0  0  0  0  0  0
    7.4403  -17.0312   24.6332 C   0  0  1  0  0  0  0  0  0  0  0  0
    7.2804  -16.3515   25.9445 C   0  0  0  0  0  0  0  0  0  0  0  0
    6.5567  -15.0705   25.7521 C   0  0  0  0  0  0  0  0  0  0  0  0
    5.3755  -14.6812   26.3830 C   0  0  0  0  0  0  0  0  0  0  0  0
    5.0342  -13.4493   25.9938 N   0  0  0  0  0  0  0  0  0  0  0  0
    5.9614  -13.0273   25.1262 C   0  0  0  0  0  0  0  0  0  0  0  0
    6.0719  -11.8351   24.4285 C   0  0  0  0  0  0  0  0  0  0  0  0
    7.1347  -11.6447   23.5711 C   0  0  0  0  0  0  0  0  0  0  0  0
    8.1046  -12.5977   23.3733 C   0  0  0  0  0  0  0  0  0  0  0  0
    7.9822  -13.7901   24.0800 C   0  0  0  0  0  0  0  0  0  0  0  0
    6.9278  -14.0154   24.9509 C   0  0  0  0  0  0  0  0  0  0  0  0
    8.7881  -17.6236   24.4406 C   0  0  0  0  0  0  0  0  0  0  0  0
    9.0226  -18.8219   24.7381 O   0  0  0  0  0  0  0  0  0  0  0  0
    9.8837  -16.8747   23.9125 N   0  0  0  0  0  0  0  0  0  0  0  0
   11.2727  -17.2330   24.0996 C   0  0  1  0  0  0  0  0  0  0  0  0
   12.0958  -16.4429   23.1171 C   0  0  0  0  0  0  0  0  0  0  0  0
   11.8076  -16.8781   21.7084 C   0  0  0  0  0  0  0  0  0  0  0  0
   12.5804  -16.0667   20.7170 C   0  0  0  0  0  0  0  0  0  0  0  0
   11.9237  -15.3656   19.9013 O   0  0  0  0  0  0  0  0  0  0  0  0
   11.7703  -16.9913   25.4674 C   0  0  0  0  0  0  0  0  0  0  0  0
   13.0098  -16.9405   25.6304 O   0  0  0  0  0  0  0  0  0  0  0  0
   13.9573  -16.1000   20.7144 O   0  0  0  0  0  0  0  0  0  0  0  0
   10.8798  -14.1406   27.7405 C   0  0  0  0  0  0  0  0  0  0  0  0
   10.5428  -15.4319   28.4944 C   0  0  1  0  0  0  0  0  0  0  0  0
    9.1997  -15.7536   28.2884 O   0  0  0  0  0  0  0  0  0  0  0  0
   11.3564  -16.5869   27.9505 C   0  0  2  0  0  0  0  0  0  0  0  0
   10.9394  -16.8179   26.5922 N   0  0  0  0  0  0  0  0  0  0  0  0
   11.2358  -17.8149   28.7445 C   0  0  0  0  0  0  0  0  0  0  0  0
   10.7058  -19.0035   28.2067 O   0  0  0  0  0  0  0  0  0  0  0  0
   11.5990  -17.8603   29.9358 O   0  0  0  0  0  0  0  0  0  0  0  0
  2  1  1  1
  2  3  1  0
  3  4  1  0
  4  5  2  0
  5  6  1  0
  7  6  1  0
  8  7  2  0
  9  8  1  0
 10 11  1  0
 10  9  2  0
 11 12  2  0
 12  4  1  0
 12  7  1  0
 13 14  2  0
 13  2  1  0
 15 13  1  0
 16 15  1  0
 16 17  1  6
 17 18  1  0
 18 19  1  0
 19 23  1  0
 20 19  2  0
 21 16  1  0
 22 21  2  0
 25 24  1  6
 25 27  1  0
 25 26  1  0
 27 28  1  6
 28 21  1  0
 29 27  1  0
 29 30  1  0
 31 29  2  0
M  END
$$$$
