WET.pdb
     RDKit          3D

 31 32  0  0  1  0  0  0  0  0999 V2000
    6.5834  -17.1053   24.2034 N   0  0  0  0  0  0  0  0  0  0  0  0
    7.7529  -16.3340   24.4498 C   0  0  1  0  0  0  0  0  0  0  0  0
    7.7128  -15.6876   25.7867 C   0  0  0  0  0  0  0  0  0  0  0  0
    6.7573  -14.5528   25.7585 C   0  0  0  0  0  0  0  0  0  0  0  0
    5.3813  -14.6201   25.9756 C   0  0  0  0  0  0  0  0  0  0  0  0
    4.8478  -13.3969   25.9086 N   0  0  0  0  0  0  0  0  0  0  0  0
    5.8397  -12.5359   25.6530 C   0  0  0  0  0  0  0  0  0  0  0  0
    5.8227  -11.1610   25.4804 C   0  0  0  0  0  0  0  0  0  0  0  0
    6.9992  -10.4947   25.2105 C   0  0  0  0  0  0  0  0  0  0  0  0
    8.2068  -11.1413   25.1030 C   0  0  0  0  0  0  0  0  0  0  0  0
    8.2104  -12.5216   25.2787 C   0  0  0  0  0  0  0  0  0  0  0  0
    7.0471  -13.2238   25.5522 C   0  0  0  0  0  0  0  0  0  0  0  0
    8.9591  -17.1742   24.2408 C   0  0  0  0  0  0  0  0  0  0  0  0
    9.0663  -18.3061   24.7764 O   0  0  0  0  0  0  0  0  0  0  0  0
   10.0549  -16.7498   23.4290 N   0  0  0  0  0  0  0  0  0  0  0  0
   11.4053  -17.2495   23.5683 C   0  0  1  0  0  0  0  0  0  0  0  0
   12.2193  -16.7245   22.4155 C   0  0  0  0  0  0  0  0  0  0  0  0
   13.6145  -17.2805   22.4509 C   0  0  0  0  0  0  0  0  0  0  0  0
   14.4062  -16.8458   21.2583 C   0  0  0  0  0  0  0  0  0  0  0  0
   13.9840  -17.1914   20.1223 O   0  0  0  0  0  0  0  0  0  0  0  0
   12.0507  -16.8726   24.8405 C   0  0  0  0  0  0  0  0  0  0  0  0
   13.0957  -16.1876   24.7772 O   0  0  0  0  0  0  0  0  0  0  0  0
   15.5505  -16.0963   21.4194 O   0  0  0  0  0  0  0  0  0  0  0  0
   10.9645  -14.6451   27.3801 C   0  0  0  0  0  0  0  0  0  0  0  0
   11.0989  -15.9940   28.0955 C   0  0  1  0  0  0  0  0  0  0  0  0
    9.8800  -16.6729   28.0410 O   0  0  0  0  0  0  0  0  0  0  0  0
   12.1156  -16.8656   27.3893 C   0  0  2  0  0  0  0  0  0  0  0  0
   11.5652  -17.2372   26.1121 N   0  0  0  0  0  0  0  0  0  0  0  0
   12.4986  -18.0578   28.1541 C   0  0  0  0  0  0  0  0  0  0  0  0
   13.1099  -17.9695   29.4195 O   0  0  0  0  0  0  0  0  0  0  0  0
   12.2986  -19.2070   27.7151 O   0  0  0  0  0  0  0  0  0  0  0  0
  2  1  1  1
  2  3  1  0
  3  4  1  0
  4  5  2  0
  5  6  1  0
  7  6  1  0
  8  7  2  0
  9  8  1  0
 10 11  1  0
 10  9  2  0
 11 12  2  0
 12  4  1  0
 12  7  1  0
 13 14  2  0
 13  2  1  0
 15 13  1  0
 16 15  1  0
 16 17  1  6
 17 18  1  0
 18 19  1  0
 19 23  1  0
 20 19  2  0
 21 16  1  0
 22 21  2  0
 25 24  1  6
 25 27  1  0
 25 26  1  0
 27 28  1  6
 28 21  1  0
 29 27  1  0
 29 30  1  0
 31 29  2  0
M  END
$$$$
