WET.pdb
     RDKit          3D

 31 32  0  0  1  0  0  0  0  0999 V2000
    6.3072  -17.9324   24.7388 N   0  0  0  0  0  0  0  0  0  0  0  0
    7.1318  -17.3308   23.7481 C   0  0  1  0  0  0  0  0  0  0  0  0
    6.6280  -15.9898   23.3547 C   0  0  0  0  0  0  0  0  0  0  0  0
    6.4769  -15.1442   24.5645 C   0  0  0  0  0  0  0  0  0  0  0  0
    5.9947  -15.5521   25.8079 C   0  0  0  0  0  0  0  0  0  0  0  0
    6.0339  -14.5322   26.6701 N   0  0  0  0  0  0  0  0  0  0  0  0
    6.5279  -13.4716   26.0208 C   0  0  0  0  0  0  0  0  0  0  0  0
    6.7635  -12.1757   26.4516 C   0  0  0  0  0  0  0  0  0  0  0  0
    7.2772  -11.2486   25.5698 C   0  0  0  0  0  0  0  0  0  0  0  0
    7.5707  -11.5550   24.2629 C   0  0  0  0  0  0  0  0  0  0  0  0
    7.3298  -12.8596   23.8430 C   0  0  0  0  0  0  0  0  0  0  0  0
    6.8153  -13.8178   24.7022 C   0  0  0  0  0  0  0  0  0  0  0  0
    8.5415  -17.3137   24.2141 C   0  0  0  0  0  0  0  0  0  0  0  0
    8.8602  -17.7603   25.3448 O   0  0  0  0  0  0  0  0  0  0  0  0
    9.6047  -16.7947   23.4140 N   0  0  0  0  0  0  0  0  0  0  0  0
   11.0005  -16.8494   23.7901 C   0  0  1  0  0  0  0  0  0  0  0  0
   11.7964  -16.1193   22.7410 C   0  0  0  0  0  0  0  0  0  0  0  0
   13.2696  -16.2387   23.0101 C   0  0  0  0  0  0  0  0  0  0  0  0
   14.0697  -16.0601   21.7587 C   0  0  0  0  0  0  0  0  0  0  0  0
   15.2617  -16.4693   21.7671 O   0  0  0  0  0  0  0  0  0  0  0  0
   11.2823  -16.2685   25.1168 C   0  0  0  0  0  0  0  0  0  0  0  0
   11.2340  -15.0229   25.2238 O   0  0  0  0  0  0  0  0  0  0  0  0
   13.5044  -15.4682   20.6510 O   0  0  0  0  0  0  0  0  0  0  0  0
   10.1696  -14.7429   27.0069 C   0  0  0  0  0  0  0  0  0  0  0  0
   10.5514  -15.8182   28.0303 C   0  0  1  0  0  0  0  0  0  0  0  0
    9.5428  -16.7820   28.0904 O   0  0  0  0  0  0  0  0  0  0  0  0
   11.8131  -16.5337   27.5964 C   0  0  2  0  0  0  0  0  0  0  0  0
   11.6022  -17.0269   26.2606 N   0  0  0  0  0  0  0  0  0  0  0  0
   12.2072  -17.6251   28.4945 C   0  0  0  0  0  0  0  0  0  0  0  0
   12.5926  -17.3928   29.8288 O   0  0  0  0  0  0  0  0  0  0  0  0
   12.2181  -18.8119   28.1139 O   0  0  0  0  0  0  0  0  0  0  0  0
  2  1  1  1
  2  3  1  0
  3  4  1  0
  4  5  2  0
  5  6  1  0
  7  6  1  0
  8  7  2  0
  9  8  1  0
 10 11  1  0
 10  9  2  0
 11 12  2  0
 12  4  1  0
 12  7  1  0
 13 14  2  0
 13  2  1  0
 15 13  1  0
 16 15  1  0
 16 17  1  6
 17 18  1  0
 18 19  1  0
 19 23  1  0
 20 19  2  0
 21 16  1  0
 22 21  2  0
 25 24  1  6
 25 27  1  0
 25 26  1  0
 27 28  1  6
 28 21  1  0
 29 27  1  0
 29 30  1  0
 31 29  2  0
M  END
$$$$
