WET.pdb
     RDKit          3D

 31 32  0  0  1  0  0  0  0  0999 V2000
    6.7489  -17.3456   24.4188 N   0  0  0  0  0  0  0  0  0  0  0  0
    7.8276  -16.4194   24.3751 C   0  0  1  0  0  0  0  0  0  0  0  0
    7.9839  -15.6973   25.6639 C   0  0  0  0  0  0  0  0  0  0  0  0
    6.8617  -14.7418   25.8343 C   0  0  0  0  0  0  0  0  0  0  0  0
    5.5526  -15.0548   26.1991 C   0  0  0  0  0  0  0  0  0  0  0  0
    4.8243  -13.9383   26.2905 N   0  0  0  0  0  0  0  0  0  0  0  0
    5.6244  -12.9075   25.9942 C   0  0  0  0  0  0  0  0  0  0  0  0
    5.3641  -11.5477   25.9349 C   0  0  0  0  0  0  0  0  0  0  0  0
    6.3747  -10.6762   25.5882 C   0  0  0  0  0  0  0  0  0  0  0  0
    7.6480  -11.1005   25.2939 C   0  0  0  0  0  0  0  0  0  0  0  0
    7.8964  -12.4681   25.3574 C   0  0  0  0  0  0  0  0  0  0  0  0
    6.9050  -13.3729   25.7034 C   0  0  0  0  0  0  0  0  0  0  0  0
    9.0653  -17.1136   23.9383 C   0  0  0  0  0  0  0  0  0  0  0  0
    9.2332  -18.3414   24.1480 O   0  0  0  0  0  0  0  0  0  0  0  0
   10.1247  -16.4345   23.2627 N   0  0  0  0  0  0  0  0  0  0  0  0
   11.5059  -16.8637   23.2881 C   0  0  1  0  0  0  0  0  0  0  0  0
   12.2936  -15.9585   22.3785 C   0  0  0  0  0  0  0  0  0  0  0  0
   13.7366  -16.3738   22.3321 C   0  0  0  0  0  0  0  0  0  0  0  0
   14.4156  -15.8535   21.1047 C   0  0  0  0  0  0  0  0  0  0  0  0
   14.0129  -16.2835   19.9907 O   0  0  0  0  0  0  0  0  0  0  0  0
   12.1071  -16.8540   24.6356 C   0  0  0  0  0  0  0  0  0  0  0  0
   13.2897  -17.2479   24.7431 O   0  0  0  0  0  0  0  0  0  0  0  0
   15.4401  -14.9393   21.2120 O   0  0  0  0  0  0  0  0  0  0  0  0
   11.8926  -13.9734   27.1861 C   0  0  0  0  0  0  0  0  0  0  0  0
   11.4020  -15.2525   27.8735 C   0  0  1  0  0  0  0  0  0  0  0  0
   10.0087  -15.3129   27.8037 O   0  0  0  0  0  0  0  0  0  0  0  0
   11.9282  -16.4740   27.1504 C   0  0  2  0  0  0  0  0  0  0  0  0
   11.4332  -16.4329   25.7993 N   0  0  0  0  0  0  0  0  0  0  0  0
   11.5645  -17.7404   27.7962 C   0  0  0  0  0  0  0  0  0  0  0  0
   11.9630  -18.0504   29.1107 O   0  0  0  0  0  0  0  0  0  0  0  0
   10.8834  -18.6017   27.2068 O   0  0  0  0  0  0  0  0  0  0  0  0
  2  1  1  1
  2  3  1  0
  3  4  1  0
  4  5  2  0
  5  6  1  0
  7  6  1  0
  8  7  2  0
  9  8  1  0
 10 11  1  0
 10  9  2  0
 11 12  2  0
 12  4  1  0
 12  7  1  0
 13 14  2  0
 13  2  1  0
 15 13  1  0
 16 15  1  0
 16 17  1  6
 17 18  1  0
 18 19  1  0
 19 23  1  0
 20 19  2  0
 21 16  1  0
 22 21  2  0
 25 24  1  6
 25 27  1  0
 25 26  1  0
 27 28  1  6
 28 21  1  0
 29 27  1  0
 29 30  1  0
 31 29  2  0
M  END
$$$$
