WET.pdb
     RDKit          3D

 31 32  0  0  1  0  0  0  0  0999 V2000
    8.3549  -17.3466   25.7367 N   0  0  0  0  0  0  0  0  0  0  0  0
    7.5418  -16.8506   24.6802 C   0  0  1  0  0  0  0  0  0  0  0  0
    6.6532  -15.7527   25.1403 C   0  0  0  0  0  0  0  0  0  0  0  0
    7.3638  -14.9332   26.1527 C   0  0  0  0  0  0  0  0  0  0  0  0
    8.5268  -15.2842   26.8375 C   0  0  0  0  0  0  0  0  0  0  0  0
    8.9008  -14.2868   27.6442 N   0  0  0  0  0  0  0  0  0  0  0  0
    8.0117  -13.2968   27.5030 C   0  0  0  0  0  0  0  0  0  0  0  0
    7.9353  -12.0551   28.1135 C   0  0  0  0  0  0  0  0  0  0  0  0
    6.8962  -11.2052   27.7990 C   0  0  0  0  0  0  0  0  0  0  0  0
    5.9173  -11.5380   26.8941 C   0  0  0  0  0  0  0  0  0  0  0  0
    6.0057  -12.7873   26.2878 C   0  0  0  0  0  0  0  0  0  0  0  0
    7.0368  -13.6666   26.5790 C   0  0  0  0  0  0  0  0  0  0  0  0
    8.3971  -16.4687   23.5281 C   0  0  0  0  0  0  0  0  0  0  0  0
    8.6762  -15.2660   23.2932 O   0  0  0  0  0  0  0  0  0  0  0  0
    8.9458  -17.4345   22.6303 N   0  0  0  0  0  0  0  0  0  0  0  0
    9.6680  -17.0974   21.4230 C   0  0  1  0  0  0  0  0  0  0  0  0
   10.3614  -18.3400   20.9307 C   0  0  0  0  0  0  0  0  0  0  0  0
   11.1350  -18.0567   19.6744 C   0  0  0  0  0  0  0  0  0  0  0  0
   11.8130  -19.2876   19.1611 C   0  0  0  0  0  0  0  0  0  0  0  0
   11.1320  -20.0722   18.4477 O   0  0  0  0  0  0  0  0  0  0  0  0
    8.8134  -16.5515   20.3514 C   0  0  0  0  0  0  0  0  0  0  0  0
    7.7932  -17.2042   20.0374 O   0  0  0  0  0  0  0  0  0  0  0  0
   13.1326  -19.5338   19.4691 O   0  0  0  0  0  0  0  0  0  0  0  0
    7.2634  -13.2276   20.2975 C   0  0  0  0  0  0  0  0  0  0  0  0
    8.0344  -13.3160   18.9757 C   0  0  1  0  0  0  0  0  0  0  0  0
    9.2842  -12.7114   19.1250 O   0  0  0  0  0  0  0  0  0  0  0  0
    8.2905  -14.7629   18.6112 C   0  0  2  0  0  0  0  0  0  0  0  0
    9.0769  -15.3495   19.6646 N   0  0  0  0  0  0  0  0  0  0  0  0
    8.9549  -14.9325   17.3140 C   0  0  0  0  0  0  0  0  0  0  0  0
   10.2201  -15.5393   17.1960 O   0  0  0  0  0  0  0  0  0  0  0  0
    8.4261  -14.5450   16.2540 O   0  0  0  0  0  0  0  0  0  0  0  0
  2  1  1  1
  2  3  1  0
  3  4  1  0
  4  5  2  0
  5  6  1  0
  7  6  1  0
  8  7  2  0
  9  8  1  0
 10 11  1  0
 10  9  2  0
 11 12  2  0
 12  4  1  0
 12  7  1  0
 13 14  2  0
 13  2  1  0
 15 13  1  0
 16 15  1  0
 16 17  1  6
 17 18  1  0
 18 19  1  0
 19 23  1  0
 20 19  2  0
 21 16  1  0
 22 21  2  0
 25 24  1  1
 25 27  1  0
 25 26  1  0
 27 28  1  1
 28 21  1  0
 29 27  1  0
 29 30  1  0
 31 29  2  0
M  END
$$$$
