WET.pdb
     RDKit          3D

 31 32  0  0  1  0  0  0  0  0999 V2000
    8.3335  -16.6879   21.8505 N   0  0  0  0  0  0  0  0  0  0  0  0
    8.6001  -16.1009   23.1184 C   0  0  1  0  0  0  0  0  0  0  0  0
    7.3521  -15.8725   23.8911 C   0  0  0  0  0  0  0  0  0  0  0  0
    6.8060  -14.5325   23.5629 C   0  0  0  0  0  0  0  0  0  0  0  0
    6.1470  -14.1691   22.3887 C   0  0  0  0  0  0  0  0  0  0  0  0
    5.7632  -12.8911   22.4570 N   0  0  0  0  0  0  0  0  0  0  0  0
    6.1553  -12.4133   23.6437 C   0  0  0  0  0  0  0  0  0  0  0  0
    6.0138  -11.1536   24.2037 C   0  0  0  0  0  0  0  0  0  0  0  0
    6.5243  -10.9067   25.4605 C   0  0  0  0  0  0  0  0  0  0  0  0
    7.1773  -11.8670   26.1947 C   0  0  0  0  0  0  0  0  0  0  0  0
    7.3125  -13.1276   25.6213 C   0  0  0  0  0  0  0  0  0  0  0  0
    6.8109  -13.4117   24.3609 C   0  0  0  0  0  0  0  0  0  0  0  0
    9.5998  -16.9209   23.8486 C   0  0  0  0  0  0  0  0  0  0  0  0
    9.2449  -17.8399   24.6289 O   0  0  0  0  0  0  0  0  0  0  0  0
   11.0062  -16.7151   23.7083 N   0  0  0  0  0  0  0  0  0  0  0  0
   12.0064  -17.4064   24.4921 C   0  0  1  0  0  0  0  0  0  0  0  0
   13.3213  -17.3062   23.7653 C   0  0  0  0  0  0  0  0  0  0  0  0
   13.2434  -17.9829   22.4263 C   0  0  0  0  0  0  0  0  0  0  0  0
   14.5456  -17.8978   21.6946 C   0  0  0  0  0  0  0  0  0  0  0  0
   14.9777  -18.9499   21.1519 O   0  0  0  0  0  0  0  0  0  0  0  0
   12.1580  -16.8790   25.8617 C   0  0  0  0  0  0  0  0  0  0  0  0
   13.0237  -15.9951   26.0477 O   0  0  0  0  0  0  0  0  0  0  0  0
   15.2292  -16.7039   21.6293 O   0  0  0  0  0  0  0  0  0  0  0  0
   10.1379  -14.9598   28.0709 C   0  0  0  0  0  0  0  0  0  0  0  0
   10.3540  -16.2665   28.8425 C   0  0  1  0  0  0  0  0  0  0  0  0
    9.2828  -17.1299   28.6043 O   0  0  0  0  0  0  0  0  0  0  0  0
   11.5998  -16.9702   28.3479 C   0  0  2  0  0  0  0  0  0  0  0  0
   11.3935  -17.3098   26.9643 N   0  0  0  0  0  0  0  0  0  0  0  0
   11.9481  -18.1638   29.1270 C   0  0  0  0  0  0  0  0  0  0  0  0
   12.2793  -18.0937   30.4939 O   0  0  0  0  0  0  0  0  0  0  0  0
   11.9661  -19.2980   28.6107 O   0  0  0  0  0  0  0  0  0  0  0  0
  2  1  1  6
  2  3  1  0
  3  4  1  0
  4  5  2  0
  5  6  1  0
  7  6  1  0
  8  7  2  0
  9  8  1  0
 10 11  1  0
 10  9  2  0
 11 12  2  0
 12  4  1  0
 12  7  1  0
 13 14  2  0
 13  2  1  0
 15 13  1  0
 16 15  1  0
 16 17  1  6
 17 18  1  0
 18 19  1  0
 19 23  1  0
 20 19  2  0
 21 16  1  0
 22 21  2  0
 25 24  1  6
 25 27  1  0
 25 26  1  0
 27 28  1  6
 28 21  1  0
 29 27  1  0
 29 30  1  0
 31 29  2  0
M  END
$$$$
