WET.pdb
     RDKit          3D

 31 32  0  0  1  0  0  0  0  0999 V2000
    6.3747  -17.2620   24.0487 N   0  0  0  0  0  0  0  0  0  0  0  0
    7.5445  -16.5361   23.6912 C   0  0  1  0  0  0  0  0  0  0  0  0
    8.1621  -15.8750   24.8695 C   0  0  0  0  0  0  0  0  0  0  0  0
    7.2265  -14.8599   25.4134 C   0  0  0  0  0  0  0  0  0  0  0  0
    6.0126  -15.1079   26.0535 C   0  0  0  0  0  0  0  0  0  0  0  0
    5.4571  -13.9563   26.4416 N   0  0  0  0  0  0  0  0  0  0  0  0
    6.2768  -12.9660   26.0705 C   0  0  0  0  0  0  0  0  0  0  0  0
    6.1653  -11.5932   26.2245 C   0  0  0  0  0  0  0  0  0  0  0  0
    7.1584  -10.7711   25.7357 C   0  0  0  0  0  0  0  0  0  0  0  0
    8.2709  -11.2577   25.0926 C   0  0  0  0  0  0  0  0  0  0  0  0
    8.3709  -12.6377   24.9448 C   0  0  0  0  0  0  0  0  0  0  0  0
    7.3925  -13.4942   25.4246 C   0  0  0  0  0  0  0  0  0  0  0  0
    8.4816  -17.4265   22.9606 C   0  0  0  0  0  0  0  0  0  0  0  0
    8.3280  -18.6739   22.9582 O   0  0  0  0  0  0  0  0  0  0  0  0
    9.5990  -16.9232   22.2270 N   0  0  0  0  0  0  0  0  0  0  0  0
   10.9055  -17.5440   22.2174 C   0  0  1  0  0  0  0  0  0  0  0  0
   11.7797  -16.7786   21.2597 C   0  0  0  0  0  0  0  0  0  0  0  0
   13.1569  -17.3759   21.2009 C   0  0  0  0  0  0  0  0  0  0  0  0
   14.0124  -16.6781   20.1913 C   0  0  0  0  0  0  0  0  0  0  0  0
   13.6012  -16.6500   19.0004 O   0  0  0  0  0  0  0  0  0  0  0  0
   11.5507  -17.5929   23.5434 C   0  0  0  0  0  0  0  0  0  0  0  0
   11.9587  -16.5136   24.0272 O   0  0  0  0  0  0  0  0  0  0  0  0
   15.2010  -16.0953   20.5716 O   0  0  0  0  0  0  0  0  0  0  0  0
   12.0689  -20.2457   27.7063 C   0  0  0  0  0  0  0  0  0  0  0  0
   11.3757  -19.8058   26.4120 C   0  0  1  0  0  0  0  0  0  0  0  0
   10.2269  -19.0762   26.7245 O   0  0  0  0  0  0  0  0  0  0  0  0
   12.2766  -18.8827   25.6195 C   0  0  2  0  0  0  0  0  0  0  0  0
   11.7351  -18.7735   24.2902 N   0  0  0  0  0  0  0  0  0  0  0  0
   13.6751  -19.3244   25.5737 C   0  0  0  0  0  0  0  0  0  0  0  0
   14.6040  -18.9695   26.5707 O   0  0  0  0  0  0  0  0  0  0  0  0
   14.1045  -20.0369   24.6456 O   0  0  0  0  0  0  0  0  0  0  0  0
  2  1  1  1
  2  3  1  0
  3  4  1  0
  4  5  2  0
  5  6  1  0
  7  6  1  0
  8  7  2  0
  9  8  1  0
 10 11  1  0
 10  9  2  0
 11 12  2  0
 12  4  1  0
 12  7  1  0
 13 14  2  0
 13  2  1  0
 15 13  1  0
 16 15  1  0
 16 17  1  6
 17 18  1  0
 18 19  1  0
 19 23  1  0
 20 19  2  0
 21 16  1  0
 22 21  2  0
 25 24  1  1
 25 27  1  0
 25 26  1  0
 27 28  1  6
 28 21  1  0
 29 27  1  0
 29 30  1  0
 31 29  2  0
M  END
$$$$
