WET.pdb
     RDKit          3D

 31 32  0  0  1  0  0  0  0  0999 V2000
   10.1639  -15.7755   24.9040 N   0  0  0  0  0  0  0  0  0  0  0  0
    9.1521  -15.4859   23.9470 C   0  0  1  0  0  0  0  0  0  0  0  0
    8.5463  -14.1490   24.1760 C   0  0  0  0  0  0  0  0  0  0  0  0
    8.2548  -13.9794   25.6209 C   0  0  0  0  0  0  0  0  0  0  0  0
    8.7330  -14.7730   26.6632 C   0  0  0  0  0  0  0  0  0  0  0  0
    8.2934  -14.3028   27.8342 N   0  0  0  0  0  0  0  0  0  0  0  0
    7.5416  -13.2252   27.5813 C   0  0  0  0  0  0  0  0  0  0  0  0
    6.8513  -12.3822   28.4376 C   0  0  0  0  0  0  0  0  0  0  0  0
    6.1284  -11.3290   27.9187 C   0  0  0  0  0  0  0  0  0  0  0  0
    6.0595  -11.0729   26.5706 C   0  0  0  0  0  0  0  0  0  0  0  0
    6.7572  -11.9265   25.7216 C   0  0  0  0  0  0  0  0  0  0  0  0
    7.4950  -12.9942   26.2082 C   0  0  0  0  0  0  0  0  0  0  0  0
    9.6973  -15.6555   22.5764 C   0  0  0  0  0  0  0  0  0  0  0  0
   10.2939  -14.7169   21.9909 O   0  0  0  0  0  0  0  0  0  0  0  0
    9.5767  -16.8805   21.8520 N   0  0  0  0  0  0  0  0  0  0  0  0
    9.9640  -17.0426   20.4677 C   0  0  1  0  0  0  0  0  0  0  0  0
   10.3671  -18.4784   20.2600 C   0  0  0  0  0  0  0  0  0  0  0  0
   10.9077  -18.6854   18.8737 C   0  0  0  0  0  0  0  0  0  0  0  0
   11.3230  -20.1060   18.6557 C   0  0  0  0  0  0  0  0  0  0  0  0
   12.4857  -20.4337   19.0149 O   0  0  0  0  0  0  0  0  0  0  0  0
    8.9029  -16.6839   19.5072 C   0  0  0  0  0  0  0  0  0  0  0  0
    7.8071  -17.2792   19.6084 O   0  0  0  0  0  0  0  0  0  0  0  0
   10.4510  -21.0048   18.0824 O   0  0  0  0  0  0  0  0  0  0  0  0
    8.1174  -13.0277   18.5703 C   0  0  0  0  0  0  0  0  0  0  0  0
    8.2541  -13.8288   17.2707 C   0  0  1  0  0  0  0  0  0  0  0  0
    9.5493  -13.6841   16.7693 O   0  0  0  0  0  0  0  0  0  0  0  0
    8.0524  -15.3051   17.5384 C   0  0  2  0  0  0  0  0  0  0  0  0
    9.0499  -15.7202   18.4897 N   0  0  0  0  0  0  0  0  0  0  0  0
    8.1137  -16.1344   16.3295 C   0  0  0  0  0  0  0  0  0  0  0  0
    7.2240  -15.9535   15.2531 O   0  0  0  0  0  0  0  0  0  0  0  0
    8.9602  -17.0401   16.2015 O   0  0  0  0  0  0  0  0  0  0  0  0
  2  1  1  1
  2  3  1  0
  3  4  1  0
  4  5  2  0
  5  6  1  0
  7  6  1  0
  8  7  2  0
  9  8  1  0
 10 11  1  0
 10  9  2  0
 11 12  2  0
 12  4  1  0
 12  7  1  0
 13 14  2  0
 13  2  1  0
 15 13  1  0
 16 15  1  0
 16 17  1  1
 17 18  1  0
 18 19  1  0
 19 23  1  0
 20 19  2  0
 21 16  1  0
 22 21  2  0
 25 24  1  1
 25 27  1  0
 25 26  1  0
 27 28  1  1
 28 21  1  0
 29 27  1  0
 29 30  1  0
 31 29  2  0
M  END
$$$$
