WET.pdb
     RDKit          3D

 31 32  0  0  1  0  0  0  0  0999 V2000
    6.7964  -17.4524   25.0014 N   0  0  0  0  0  0  0  0  0  0  0  0
    7.8128  -16.5335   24.6195 C   0  0  1  0  0  0  0  0  0  0  0  0
    8.1162  -15.5674   25.7064 C   0  0  0  0  0  0  0  0  0  0  0  0
    6.9454  -14.6818   25.9215 C   0  0  0  0  0  0  0  0  0  0  0  0
    5.6535  -15.0814   26.2626 C   0  0  0  0  0  0  0  0  0  0  0  0
    4.8678  -14.0106   26.4094 N   0  0  0  0  0  0  0  0  0  0  0  0
    5.6138  -12.9254   26.1722 C   0  0  0  0  0  0  0  0  0  0  0  0
    5.2831  -11.5797   26.1838 C   0  0  0  0  0  0  0  0  0  0  0  0
    6.2477  -10.6397   25.8889 C   0  0  0  0  0  0  0  0  0  0  0  0
    7.5420  -10.9810   25.5789 C   0  0  0  0  0  0  0  0  0  0  0  0
    7.8612  -12.3354   25.5711 C   0  0  0  0  0  0  0  0  0  0  0  0
    6.9175  -13.3075   25.8636 C   0  0  0  0  0  0  0  0  0  0  0  0
    9.0074  -17.2777   24.1463 C   0  0  0  0  0  0  0  0  0  0  0  0
    9.1607  -18.4979   24.4054 O   0  0  0  0  0  0  0  0  0  0  0  0
   10.0397  -16.6574   23.3786 N   0  0  0  0  0  0  0  0  0  0  0  0
   11.4293  -17.0572   23.4202 C   0  0  1  0  0  0  0  0  0  0  0  0
   12.2030  -16.1559   22.4949 C   0  0  0  0  0  0  0  0  0  0  0  0
   13.6533  -16.5464   22.4594 C   0  0  0  0  0  0  0  0  0  0  0  0
   14.3117  -16.0878   21.1967 C   0  0  0  0  0  0  0  0  0  0  0  0
   13.9803  -16.6634   20.1257 O   0  0  0  0  0  0  0  0  0  0  0  0
   12.0230  -17.0058   24.7700 C   0  0  0  0  0  0  0  0  0  0  0  0
   13.1731  -17.4771   24.9134 O   0  0  0  0  0  0  0  0  0  0  0  0
   15.2423  -15.0729   21.2272 O   0  0  0  0  0  0  0  0  0  0  0  0
   11.6443  -13.9608   27.3318 C   0  0  0  0  0  0  0  0  0  0  0  0
   11.2106  -15.2862   27.9678 C   0  0  1  0  0  0  0  0  0  0  0  0
    9.8312  -15.4438   27.8195 O   0  0  0  0  0  0  0  0  0  0  0  0
   11.8620  -16.4511   27.2534 C   0  0  2  0  0  0  0  0  0  0  0  0
   11.3760  -16.4638   25.8984 N   0  0  0  0  0  0  0  0  0  0  0  0
   11.6216  -17.7455   27.9012 C   0  0  0  0  0  0  0  0  0  0  0  0
   12.0346  -18.0086   29.2215 O   0  0  0  0  0  0  0  0  0  0  0  0
   11.0383  -18.6738   27.3085 O   0  0  0  0  0  0  0  0  0  0  0  0
  2  1  1  1
  2  3  1  0
  3  4  1  0
  4  5  2  0
  5  6  1  0
  7  6  1  0
  8  7  2  0
  9  8  1  0
 10 11  1  0
 10  9  2  0
 11 12  2  0
 12  4  1  0
 12  7  1  0
 13 14  2  0
 13  2  1  0
 15 13  1  0
 16 15  1  0
 16 17  1  6
 17 18  1  0
 18 19  1  0
 19 23  1  0
 20 19  2  0
 21 16  1  0
 22 21  2  0
 25 24  1  6
 25 27  1  0
 25 26  1  0
 27 28  1  6
 28 21  1  0
 29 27  1  0
 29 30  1  0
 31 29  2  0
M  END
$$$$
