WET.pdb
     RDKit          3D

 31 32  0  0  1  0  0  0  0  0999 V2000
    8.1946  -17.4604   23.8571 N   0  0  0  0  0  0  0  0  0  0  0  0
    8.2022  -16.0453   23.7120 C   0  0  1  0  0  0  0  0  0  0  0  0
    8.7543  -15.3729   24.9161 C   0  0  0  0  0  0  0  0  0  0  0  0
    7.6398  -14.8564   25.7483 C   0  0  0  0  0  0  0  0  0  0  0  0
    6.6310  -15.6111   26.3463 C   0  0  0  0  0  0  0  0  0  0  0  0
    5.8209  -14.8150   27.0501 N   0  0  0  0  0  0  0  0  0  0  0  0
    6.2754  -13.5627   26.9254 C   0  0  0  0  0  0  0  0  0  0  0  0
    5.7972  -12.3704   27.4454 C   0  0  0  0  0  0  0  0  0  0  0  0
    6.4506  -11.1914   27.1555 C   0  0  0  0  0  0  0  0  0  0  0  0
    7.5714  -11.1432   26.3622 C   0  0  0  0  0  0  0  0  0  0  0  0
    8.0415  -12.3471   25.8467 C   0  0  0  0  0  0  0  0  0  0  0  0
    7.4107  -13.5511   26.1180 C   0  0  0  0  0  0  0  0  0  0  0  0
    8.9072  -15.6751   22.4588 C   0  0  0  0  0  0  0  0  0  0  0  0
    9.0328  -14.4738   22.1114 O   0  0  0  0  0  0  0  0  0  0  0  0
    9.4767  -16.6512   21.5853 N   0  0  0  0  0  0  0  0  0  0  0  0
   10.0406  -16.3449   20.2888 C   0  0  1  0  0  0  0  0  0  0  0  0
   11.3292  -17.1106   20.1468 C   0  0  0  0  0  0  0  0  0  0  0  0
   12.3622  -16.5997   21.1105 C   0  0  0  0  0  0  0  0  0  0  0  0
   13.6960  -16.4456   20.4508 C   0  0  0  0  0  0  0  0  0  0  0  0
   14.5313  -17.3770   20.6030 O   0  0  0  0  0  0  0  0  0  0  0  0
    9.1471  -16.6684   19.1601 C   0  0  0  0  0  0  0  0  0  0  0  0
    9.2942  -17.7814   18.6077 O   0  0  0  0  0  0  0  0  0  0  0  0
   13.9787  -15.3198   19.7095 O   0  0  0  0  0  0  0  0  0  0  0  0
    9.3443  -13.2842   17.9885 C   0  0  0  0  0  0  0  0  0  0  0  0
    8.0220  -13.7880   17.3994 C   0  0  1  0  0  0  0  0  0  0  0  0
    7.8893  -13.3229   16.0895 O   0  0  0  0  0  0  0  0  0  0  0  0
    8.0197  -15.3002   17.3277 C   0  0  2  0  0  0  0  0  0  0  0  0
    8.1475  -15.8046   18.6699 N   0  0  0  0  0  0  0  0  0  0  0  0
    9.0736  -15.8485   16.4666 C   0  0  0  0  0  0  0  0  0  0  0  0
   10.4210  -15.8965   16.8728 O   0  0  0  0  0  0  0  0  0  0  0  0
    8.8214  -16.2982   15.3319 O   0  0  0  0  0  0  0  0  0  0  0  0
  2  1  1  1
  2  3  1  0
  3  4  1  0
  4  5  2  0
  5  6  1  0
  7  6  1  0
  8  7  2  0
  9  8  1  0
 10 11  1  0
 10  9  2  0
 11 12  2  0
 12  4  1  0
 12  7  1  0
 13 14  2  0
 13  2  1  0
 15 13  1  0
 16 15  1  0
 16 17  1  6
 17 18  1  0
 18 19  1  0
 19 23  1  0
 20 19  2  0
 21 16  1  0
 22 21  2  0
 25 24  1  6
 25 27  1  0
 25 26  1  0
 27 28  1  1
 28 21  1  0
 29 27  1  0
 29 30  1  0
 31 29  2  0
M  END
$$$$
