WET.pdb
     RDKit          3D

 31 32  0  0  1  0  0  0  0  0999 V2000
    6.2817  -17.8246   24.5892 N   0  0  0  0  0  0  0  0  0  0  0  0
    7.2025  -17.3178   23.6307 C   0  0  1  0  0  0  0  0  0  0  0  0
    6.8720  -15.9246   23.2349 C   0  0  0  0  0  0  0  0  0  0  0  0
    6.5217  -15.1376   24.4430 C   0  0  0  0  0  0  0  0  0  0  0  0
    5.8484  -15.6041   25.5716 C   0  0  0  0  0  0  0  0  0  0  0  0
    5.7406  -14.6265   26.4760 N   0  0  0  0  0  0  0  0  0  0  0  0
    6.3251  -13.5364   25.9656 C   0  0  0  0  0  0  0  0  0  0  0  0
    6.4788  -12.2626   26.4894 C   0  0  0  0  0  0  0  0  0  0  0  0
    7.1213  -11.2947   25.7468 C   0  0  0  0  0  0  0  0  0  0  0  0
    7.6238  -11.5386   24.4915 C   0  0  0  0  0  0  0  0  0  0  0  0
    7.4632  -12.8216   23.9772 C   0  0  0  0  0  0  0  0  0  0  0  0
    6.8239  -13.8194   24.6959 C   0  0  0  0  0  0  0  0  0  0  0  0
    8.5888  -17.4691   24.1407 C   0  0  0  0  0  0  0  0  0  0  0  0
    8.8314  -18.1219   25.1869 O   0  0  0  0  0  0  0  0  0  0  0  0
    9.7139  -16.8881   23.4799 N   0  0  0  0  0  0  0  0  0  0  0  0
   11.0846  -17.0734   23.9034 C   0  0  1  0  0  0  0  0  0  0  0  0
   11.9847  -16.5387   22.8212 C   0  0  0  0  0  0  0  0  0  0  0  0
   11.8809  -17.3769   21.5788 C   0  0  0  0  0  0  0  0  0  0  0  0
   12.7706  -16.8578   20.4938 C   0  0  0  0  0  0  0  0  0  0  0  0
   13.9710  -16.6159   20.7918 O   0  0  0  0  0  0  0  0  0  0  0  0
   11.4060  -16.4139   25.1835 C   0  0  0  0  0  0  0  0  0  0  0  0
   12.0561  -15.3459   25.1357 O   0  0  0  0  0  0  0  0  0  0  0  0
   12.2750  -16.6595   19.2241 O   0  0  0  0  0  0  0  0  0  0  0  0
    9.7675  -14.4417   27.4158 C   0  0  0  0  0  0  0  0  0  0  0  0
   10.1098  -15.6705   28.2657 C   0  0  1  0  0  0  0  0  0  0  0  0
    9.0726  -16.6011   28.1767 O   0  0  0  0  0  0  0  0  0  0  0  0
   11.3527  -16.3504   27.7318 C   0  0  2  0  0  0  0  0  0  0  0  0
   11.0293  -16.9123   26.4466 N   0  0  0  0  0  0  0  0  0  0  0  0
   11.8879  -17.3820   28.6275 C   0  0  0  0  0  0  0  0  0  0  0  0
   12.3009  -17.0897   29.9417 O   0  0  0  0  0  0  0  0  0  0  0  0
   12.0012  -18.5683   28.2628 O   0  0  0  0  0  0  0  0  0  0  0  0
  2  1  1  1
  2  3  1  0
  3  4  1  0
  4  5  2  0
  5  6  1  0
  7  6  1  0
  8  7  2  0
  9  8  1  0
 10 11  1  0
 10  9  2  0
 11 12  2  0
 12  4  1  0
 12  7  1  0
 13 14  2  0
 13  2  1  0
 15 13  1  0
 16 15  1  0
 16 17  1  6
 17 18  1  0
 18 19  1  0
 19 23  1  0
 20 19  2  0
 21 16  1  0
 22 21  2  0
 25 24  1  6
 25 27  1  0
 25 26  1  0
 27 28  1  6
 28 21  1  0
 29 27  1  0
 29 30  1  0
 31 29  2  0
M  END
$$$$
