WET.pdb
     RDKit          3D

 31 32  0  0  1  0  0  0  0  0999 V2000
    6.4947  -17.8241   25.0526 N   0  0  0  0  0  0  0  0  0  0  0  0
    7.4096  -16.9510   24.4014 C   0  0  1  0  0  0  0  0  0  0  0  0
    8.0417  -16.0059   25.3573 C   0  0  0  0  0  0  0  0  0  0  0  0
    7.0315  -15.0237   25.8222 C   0  0  0  0  0  0  0  0  0  0  0  0
    5.7719  -15.3129   26.3464 C   0  0  0  0  0  0  0  0  0  0  0  0
    5.1502  -14.1819   26.6922 N   0  0  0  0  0  0  0  0  0  0  0  0
    5.9713  -13.1647   26.4064 C   0  0  0  0  0  0  0  0  0  0  0  0
    5.8066  -11.7975   26.5616 C   0  0  0  0  0  0  0  0  0  0  0  0
    6.8158  -10.9423   26.1730 C   0  0  0  0  0  0  0  0  0  0  0  0
    7.9959  -11.3902   25.6301 C   0  0  0  0  0  0  0  0  0  0  0  0
    8.1490  -12.7651   25.4799 C   0  0  0  0  0  0  0  0  0  0  0  0
    7.1561  -13.6541   25.8606 C   0  0  0  0  0  0  0  0  0  0  0  0
    8.3945  -17.7470   23.6262 C   0  0  0  0  0  0  0  0  0  0  0  0
    8.8813  -18.8102   24.0868 O   0  0  0  0  0  0  0  0  0  0  0  0
    8.8411  -17.3551   22.3273 N   0  0  0  0  0  0  0  0  0  0  0  0
   10.0925  -17.7814   21.7399 C   0  0  1  0  0  0  0  0  0  0  0  0
   10.1528  -17.2509   20.3321 C   0  0  0  0  0  0  0  0  0  0  0  0
   11.4282  -17.6709   19.6582 C   0  0  0  0  0  0  0  0  0  0  0  0
   11.4708  -17.2117   18.2350 C   0  0  0  0  0  0  0  0  0  0  0  0
   12.5318  -17.4210   17.5879 O   0  0  0  0  0  0  0  0  0  0  0  0
   11.2833  -17.3342   22.4875 C   0  0  0  0  0  0  0  0  0  0  0  0
   11.3537  -16.1223   22.7902 O   0  0  0  0  0  0  0  0  0  0  0  0
   10.3798  -16.5860   17.6737 O   0  0  0  0  0  0  0  0  0  0  0  0
   12.5811  -18.1820   25.9006 C   0  0  0  0  0  0  0  0  0  0  0  0
   13.5804  -18.6830   24.8519 C   0  0  1  0  0  0  0  0  0  0  0  0
   13.2312  -19.9761   24.4572 O   0  0  0  0  0  0  0  0  0  0  0  0
   13.5204  -17.8173   23.6114 C   0  0  2  0  0  0  0  0  0  0  0  0
   12.3386  -18.1837   22.8757 N   0  0  0  0  0  0  0  0  0  0  0  0
   14.7123  -17.9249   22.7624 C   0  0  0  0  0  0  0  0  0  0  0  0
   15.9839  -17.5112   23.2036 O   0  0  0  0  0  0  0  0  0  0  0  0
   14.6513  -18.3897   21.6076 O   0  0  0  0  0  0  0  0  0  0  0  0
  2  1  1  1
  2  3  1  0
  3  4  1  0
  4  5  2  0
  5  6  1  0
  7  6  1  0
  8  7  2  0
  9  8  1  0
 10 11  1  0
 10  9  2  0
 11 12  2  0
 12  4  1  0
 12  7  1  0
 13 14  2  0
 13  2  1  0
 15 13  1  0
 16 15  1  0
 16 17  1  6
 17 18  1  0
 18 19  1  0
 19 23  1  0
 20 19  2  0
 21 16  1  0
 22 21  2  0
 25 24  1  1
 25 27  1  0
 25 26  1  0
 27 28  1  6
 28 21  1  0
 29 27  1  0
 29 30  1  0
 31 29  2  0
M  END
$$$$
