VIE.pdb
     RDKit          3D

 25 24  0  0  1  0  0  0  0  0999 V2000
   18.9819  -14.3237  -18.0365 C   0  0  0  0  0  0  0  0  0  0  0  0
   18.9561  -14.2218  -16.4988 C   0  0  2  0  0  0  0  0  0  0  0  0
   17.7344  -15.0098  -16.0853 C   0  0  0  0  0  0  0  0  0  0  0  0
   18.7396  -12.7619  -16.1990 C   0  0  2  0  0  0  0  0  0  0  0  0
   17.4821  -12.4002  -16.8946 N   0  0  0  0  0  0  0  0  0  0  0  0
   19.7774  -11.8636  -16.7340 C   0  0  0  0  0  0  0  0  0  0  0  0
   20.9460  -11.9095  -16.2334 O   0  0  0  0  0  0  0  0  0  0  0  0
   20.5879  -11.7028  -21.2625 C   0  0  0  0  0  0  0  0  0  0  0  0
   21.4658  -11.0153  -20.2385 C   0  0  0  0  0  0  0  0  0  0  0  0
   20.6565   -9.8758  -19.6685 C   0  0  2  0  0  0  0  0  0  0  0  0
   21.2622   -8.5436  -20.0279 C   0  0  0  0  0  0  0  0  0  0  0  0
   20.6008   -9.9428  -18.1331 C   0  0  2  0  0  0  0  0  0  0  0  0
   19.6109  -10.9203  -17.7860 N   0  0  0  0  0  0  0  0  0  0  0  0
   20.3330   -8.5760  -17.6570 C   0  0  0  0  0  0  0  0  0  0  0  0
   19.1628   -8.0607  -17.7557 O   0  0  0  0  0  0  0  0  0  0  0  0
   21.2815   -7.7009  -17.0609 N   0  0  0  0  0  0  0  0  0  0  0  0
   20.9356   -6.4321  -16.4591 C   0  0  1  0  0  0  0  0  0  0  0  0
   21.6794   -6.1609  -15.1777 C   0  0  0  0  0  0  0  0  0  0  0  0
   21.4372   -4.8167  -14.5901 C   0  0  0  0  0  0  0  0  0  0  0  0
   22.2012   -4.7438  -13.3096 C   0  0  0  0  0  0  0  0  0  0  0  0
   22.7915   -5.7794  -12.9126 O   0  0  0  0  0  0  0  0  0  0  0  0
   21.3274   -5.3606  -17.4021 C   0  0  0  0  0  0  0  0  0  0  0  0
   20.6339   -4.1675  -17.3789 O   0  0  0  0  0  0  0  0  0  0  0  0
   22.2983   -3.6146  -12.5392 O   0  0  0  0  0  0  0  0  0  0  0  0
   22.2681   -5.4984  -18.2222 O   0  0  0  0  0  0  0  0  0  0  0  0
  2  3  1  6
  2  1  1  0
  4  2  1  0
  4  5  1  6
  6  4  1  0
  7  6  2  0
  9  8  1  0
 10  9  1  0
 10 11  1  1
 12 10  1  0
 12 13  1  6
 13  6  1  0
 14 12  1  0
 15 14  2  0
 16 14  1  0
 17 16  1  0
 18 19  1  0
 17 18  1  1
 19 20  1  0
 20 21  2  0
 20 24  1  0
 22 17  1  0
 22 23  1  0
 25 22  2  0
M  END
$$$$
