VIE.pdb
     RDKit          3D

 25 24  0  0  1  0  0  0  0  0999 V2000
   19.7556  -12.1221  -17.5960 C   0  0  0  0  0  0  0  0  0  0  0  0
   20.7723  -12.7032  -18.5981 C   0  0  2  0  0  0  0  0  0  0  0  0
   19.9749  -13.6879  -19.4220 C   0  0  0  0  0  0  0  0  0  0  0  0
   21.7791  -13.4461  -17.7598 C   0  0  2  0  0  0  0  0  0  0  0  0
   20.9892  -14.4149  -16.9638 N   0  0  0  0  0  0  0  0  0  0  0  0
   22.5053  -12.6114  -16.7872 C   0  0  0  0  0  0  0  0  0  0  0  0
   21.9400  -12.3211  -15.6852 O   0  0  0  0  0  0  0  0  0  0  0  0
   27.7610  -12.8268  -15.7175 C   0  0  0  0  0  0  0  0  0  0  0  0
   26.2570  -12.6994  -15.6007 C   0  0  0  0  0  0  0  0  0  0  0  0
   25.9019  -11.3086  -16.0678 C   0  0  2  0  0  0  0  0  0  0  0  0
   26.4894  -10.2612  -15.1576 C   0  0  0  0  0  0  0  0  0  0  0  0
   24.3793  -11.0930  -16.0748 C   0  0  2  0  0  0  0  0  0  0  0  0
   23.8145  -12.0784  -16.9498 N   0  0  0  0  0  0  0  0  0  0  0  0
   24.1496   -9.6933  -16.4679 C   0  0  0  0  0  0  0  0  0  0  0  0
   24.4678   -9.2763  -17.6382 O   0  0  0  0  0  0  0  0  0  0  0  0
   23.5788   -8.6811  -15.6491 N   0  0  0  0  0  0  0  0  0  0  0  0
   23.2068   -7.3706  -16.1349 C   0  0  1  0  0  0  0  0  0  0  0  0
   22.5325   -6.5203  -15.0904 C   0  0  0  0  0  0  0  0  0  0  0  0
   22.1298   -5.1664  -15.5552 C   0  0  0  0  0  0  0  0  0  0  0  0
   21.5557   -4.4431  -14.3823 C   0  0  0  0  0  0  0  0  0  0  0  0
   20.3619   -4.0573  -14.4510 O   0  0  0  0  0  0  0  0  0  0  0  0
   24.4474   -6.6579  -16.5139 C   0  0  0  0  0  0  0  0  0  0  0  0
   24.4849   -5.9805  -17.7158 O   0  0  0  0  0  0  0  0  0  0  0  0
   22.2521   -4.1735  -13.2332 O   0  0  0  0  0  0  0  0  0  0  0  0
   25.4669   -6.6477  -15.7809 O   0  0  0  0  0  0  0  0  0  0  0  0
  2  3  1  6
  2  1  1  0
  4  2  1  0
  4  5  1  1
  6  4  1  0
  7  6  2  0
  9  8  1  0
 10  9  1  0
 10 11  1  1
 12 10  1  0
 12 13  1  6
 13  6  1  0
 14 12  1  0
 15 14  2  0
 16 14  1  0
 17 16  1  0
 18 19  1  0
 17 18  1  1
 19 20  1  0
 20 21  2  0
 20 24  1  0
 22 17  1  0
 22 23  1  0
 25 22  2  0
M  END
$$$$
