VIE.pdb
     RDKit          3D

 25 24  0  0  1  0  0  0  0  0999 V2000
   26.9593  -19.7307   -3.9635 C   0  0  0  0  0  0  0  0  0  0  0  0
   26.4447  -19.7098   -5.4162 C   0  0  2  0  0  0  0  0  0  0  0  0
   25.8411  -21.0794   -5.6262 C   0  0  0  0  0  0  0  0  0  0  0  0
   27.6745  -19.5640   -6.2733 C   0  0  2  0  0  0  0  0  0  0  0  0
   28.2557  -18.2511   -5.9065 N   0  0  0  0  0  0  0  0  0  0  0  0
   27.4115  -19.5061   -7.7216 C   0  0  0  0  0  0  0  0  0  0  0  0
   26.9204  -18.4408   -8.2138 O   0  0  0  0  0  0  0  0  0  0  0  0
   30.9064  -21.5155  -11.0257 C   0  0  0  0  0  0  0  0  0  0  0  0
   29.8694  -20.5798  -10.4415 C   0  0  0  0  0  0  0  0  0  0  0  0
   28.5190  -21.1424  -10.8134 C   0  0  2  0  0  0  0  0  0  0  0  0
   28.2465  -20.9776  -12.2862 C   0  0  0  0  0  0  0  0  0  0  0  0
   27.3868  -20.4196  -10.0647 C   0  0  2  0  0  0  0  0  0  0  0  0
   27.6569  -20.5452   -8.6622 N   0  0  0  0  0  0  0  0  0  0  0  0
   26.1232  -21.0210  -10.5210 C   0  0  0  0  0  0  0  0  0  0  0  0
   25.8526  -22.2507  -10.2780 O   0  0  0  0  0  0  0  0  0  0  0  0
   25.0988  -20.3554  -11.2479 N   0  0  0  0  0  0  0  0  0  0  0  0
   23.8256  -20.9584  -11.5753 C   0  0  1  0  0  0  0  0  0  0  0  0
   22.7283  -19.9487  -11.7879 C   0  0  0  0  0  0  0  0  0  0  0  0
   21.4485  -20.5166  -12.2885 C   0  0  0  0  0  0  0  0  0  0  0  0
   20.4889  -19.3844  -12.4488 C   0  0  0  0  0  0  0  0  0  0  0  0
   20.1622  -19.0456  -13.6137 O   0  0  0  0  0  0  0  0  0  0  0  0
   23.9814  -21.6796  -12.8584 C   0  0  0  0  0  0  0  0  0  0  0  0
   24.9524  -21.2590  -13.7445 O   0  0  0  0  0  0  0  0  0  0  0  0
   19.9415  -18.6906  -11.4014 O   0  0  0  0  0  0  0  0  0  0  0  0
   23.2616  -22.6603  -13.1694 O   0  0  0  0  0  0  0  0  0  0  0  0
  2  3  1  6
  2  1  1  0
  4  2  1  0
  4  5  1  1
  6  4  1  0
  7  6  2  0
  9  8  1  0
 10  9  1  0
 10 11  1  6
 12 10  1  0
 12 13  1  1
 13  6  1  0
 14 12  1  0
 15 14  2  0
 16 14  1  0
 17 16  1  0
 18 19  1  0
 17 18  1  6
 19 20  1  0
 20 21  2  0
 20 24  1  0
 22 17  1  0
 22 23  1  0
 25 22  2  0
M  END
$$$$
