VIE.pdb
     RDKit          3D

 25 24  0  0  1  0  0  0  0  0999 V2000
   17.5641  -10.5431  -18.0800 C   0  0  0  0  0  0  0  0  0  0  0  0
   18.5626  -10.8752  -19.2061 C   0  0  2  0  0  0  0  0  0  0  0  0
   17.7460  -11.6320  -20.2284 C   0  0  0  0  0  0  0  0  0  0  0  0
   19.5736  -11.8013  -18.5828 C   0  0  2  0  0  0  0  0  0  0  0  0
   18.7929  -12.9596  -18.0881 N   0  0  0  0  0  0  0  0  0  0  0  0
   20.2742  -11.2480  -17.4109 C   0  0  0  0  0  0  0  0  0  0  0  0
   19.7300  -11.3514  -16.2657 O   0  0  0  0  0  0  0  0  0  0  0  0
   25.6063  -10.4702  -14.8460 C   0  0  0  0  0  0  0  0  0  0  0  0
   24.2250   -9.8554  -14.9216 C   0  0  0  0  0  0  0  0  0  0  0  0
   23.5379  -10.4773  -16.1131 C   0  0  2  0  0  0  0  0  0  0  0  0
   24.2638  -10.1510  -17.3926 C   0  0  0  0  0  0  0  0  0  0  0  0
   22.1008   -9.9521  -16.2669 C   0  0  2  0  0  0  0  0  0  0  0  0
   21.5360  -10.5907  -17.4197 N   0  0  0  0  0  0  0  0  0  0  0  0
   22.1894   -8.4846  -16.3376 C   0  0  0  0  0  0  0  0  0  0  0  0
   22.6660   -7.9019  -17.3759 O   0  0  0  0  0  0  0  0  0  0  0  0
   21.7823   -7.5757  -15.3232 N   0  0  0  0  0  0  0  0  0  0  0  0
   21.7303   -6.1417  -15.5040 C   0  0  1  0  0  0  0  0  0  0  0  0
   20.3265   -5.5959  -15.5165 C   0  0  0  0  0  0  0  0  0  0  0  0
   20.2342   -4.1195  -15.6666 C   0  0  0  0  0  0  0  0  0  0  0  0
   18.7855   -3.7592  -15.6646 C   0  0  0  0  0  0  0  0  0  0  0  0
   17.9451   -4.6858  -15.5471 O   0  0  0  0  0  0  0  0  0  0  0  0
   22.4104   -5.5136  -14.3491 C   0  0  0  0  0  0  0  0  0  0  0  0
   22.8583   -4.2135  -14.4673 O   0  0  0  0  0  0  0  0  0  0  0  0
   18.3152   -2.4775  -15.7832 O   0  0  0  0  0  0  0  0  0  0  0  0
   22.5944   -6.1215  -13.2659 O   0  0  0  0  0  0  0  0  0  0  0  0
  2  3  1  6
  2  1  1  0
  4  2  1  0
  4  5  1  1
  6  4  1  0
  7  6  2  0
  9  8  1  0
 10  9  1  0
 10 11  1  6
 12 10  1  0
 12 13  1  6
 13  6  1  0
 14 12  1  0
 15 14  2  0
 16 14  1  0
 17 16  1  0
 18 19  1  0
 17 18  1  1
 19 20  1  0
 20 21  2  0
 20 24  1  0
 22 17  1  0
 22 23  1  0
 25 22  2  0
M  END
$$$$
