VIE.pdb
     RDKit          3D

 25 24  0  0  1  0  0  0  0  0999 V2000
   14.5266   -9.3032  -12.2010 C   0  0  0  0  0  0  0  0  0  0  0  0
   15.7329   -8.3453  -12.2539 C   0  0  2  0  0  0  0  0  0  0  0  0
   15.7979   -7.8938  -13.6948 C   0  0  0  0  0  0  0  0  0  0  0  0
   16.9337   -9.1978  -11.9381 C   0  0  2  0  0  0  0  0  0  0  0  0
   16.8139   -9.5272  -10.4982 N   0  0  0  0  0  0  0  0  0  0  0  0
   18.2303   -8.5167  -12.0967 C   0  0  0  0  0  0  0  0  0  0  0  0
   18.6052   -7.6950  -11.2009 O   0  0  0  0  0  0  0  0  0  0  0  0
   22.8069  -10.7579  -13.9391 C   0  0  0  0  0  0  0  0  0  0  0  0
   21.8063   -9.9457  -13.1448 C   0  0  0  0  0  0  0  0  0  0  0  0
   21.3731   -8.8036  -14.0316 C   0  0  2  0  0  0  0  0  0  0  0  0
   22.5400   -7.9215  -14.3936 C   0  0  0  0  0  0  0  0  0  0  0  0
   20.3380   -7.9104  -13.3274 C   0  0  2  0  0  0  0  0  0  0  0  0
   19.1407   -8.6848  -13.1771 N   0  0  0  0  0  0  0  0  0  0  0  0
   20.2040   -6.6914  -14.1413 C   0  0  0  0  0  0  0  0  0  0  0  0
   19.8800   -6.7581  -15.3804 O   0  0  0  0  0  0  0  0  0  0  0  0
   20.4047   -5.3598  -13.6862 N   0  0  0  0  0  0  0  0  0  0  0  0
   20.1757   -4.1890  -14.5038 C   0  0  1  0  0  0  0  0  0  0  0  0
   19.4052   -3.1089  -13.7908 C   0  0  0  0  0  0  0  0  0  0  0  0
   19.2161   -1.8590  -14.5737 C   0  0  0  0  0  0  0  0  0  0  0  0
   18.4775   -0.8948  -13.7058 C   0  0  0  0  0  0  0  0  0  0  0  0
   18.1893   -1.2517  -12.5361 O   0  0  0  0  0  0  0  0  0  0  0  0
   21.4937   -3.6059  -14.8410 C   0  0  0  0  0  0  0  0  0  0  0  0
   21.6286   -2.9047  -16.0222 O   0  0  0  0  0  0  0  0  0  0  0  0
   18.0938    0.3581  -14.1074 O   0  0  0  0  0  0  0  0  0  0  0  0
   22.4934   -3.7265  -14.0909 O   0  0  0  0  0  0  0  0  0  0  0  0
  2  3  1  6
  2  1  1  0
  4  2  1  0
  4  5  1  1
  6  4  1  0
  7  6  2  0
  9  8  1  0
 10  9  1  0
 10 11  1  1
 12 10  1  0
 12 13  1  6
 13  6  1  0
 14 12  1  0
 15 14  2  0
 16 14  1  0
 17 16  1  0
 18 19  1  0
 17 18  1  1
 19 20  1  0
 20 21  2  0
 20 24  1  0
 22 17  1  0
 22 23  1  0
 25 22  2  0
M  END
$$$$
