VIE.pdb
     RDKit          3D

 25 24  0  0  1  0  0  0  0  0999 V2000
   16.1848  -11.2388  -18.7389 C   0  0  0  0  0  0  0  0  0  0  0  0
   16.8487  -10.3496  -17.6693 C   0  0  2  0  0  0  0  0  0  0  0  0
   17.4348   -9.1929  -18.4459 C   0  0  0  0  0  0  0  0  0  0  0  0
   17.9612  -11.1839  -17.0910 C   0  0  2  0  0  0  0  0  0  0  0  0
   17.2884  -12.2778  -16.3516 N   0  0  0  0  0  0  0  0  0  0  0  0
   18.8075  -10.4846  -16.1087 C   0  0  0  0  0  0  0  0  0  0  0  0
   18.3285  -10.2283  -14.9585 O   0  0  0  0  0  0  0  0  0  0  0  0
   23.6741  -11.9613  -14.8183 C   0  0  0  0  0  0  0  0  0  0  0  0
   22.2481  -11.4544  -14.8590 C   0  0  0  0  0  0  0  0  0  0  0  0
   22.3133  -10.0103  -15.2935 C   0  0  2  0  0  0  0  0  0  0  0  0
   23.1583   -9.1945  -14.3494 C   0  0  0  0  0  0  0  0  0  0  0  0
   20.9159   -9.3685  -15.3124 C   0  0  2  0  0  0  0  0  0  0  0  0
   20.1478  -10.0521  -16.3116 N   0  0  0  0  0  0  0  0  0  0  0  0
   21.1123   -7.9280  -15.5424 C   0  0  0  0  0  0  0  0  0  0  0  0
   21.7275   -7.5046  -16.5848 O   0  0  0  0  0  0  0  0  0  0  0  0
   20.6715   -6.8806  -14.6885 N   0  0  0  0  0  0  0  0  0  0  0  0
   20.8731   -5.4765  -14.9706 C   0  0  1  0  0  0  0  0  0  0  0  0
   19.6586   -4.6333  -14.6832 C   0  0  0  0  0  0  0  0  0  0  0  0
   19.8373   -3.1786  -14.9342 C   0  0  0  0  0  0  0  0  0  0  0  0
   18.5674   -2.4978  -14.5437 C   0  0  0  0  0  0  0  0  0  0  0  0
   17.5845   -3.2139  -14.2281 O   0  0  0  0  0  0  0  0  0  0  0  0
   21.9434   -4.9827  -14.0753 C   0  0  0  0  0  0  0  0  0  0  0  0
   22.6506   -3.8557  -14.4423 O   0  0  0  0  0  0  0  0  0  0  0  0
   18.4078   -1.1372  -14.5083 O   0  0  0  0  0  0  0  0  0  0  0  0
   22.2308   -5.5526  -12.9940 O   0  0  0  0  0  0  0  0  0  0  0  0
  2  3  1  6
  2  1  1  0
  4  2  1  0
  4  5  1  1
  6  4  1  0
  7  6  2  0
  9  8  1  0
 10  9  1  0
 10 11  1  1
 12 10  1  0
 12 13  1  6
 13  6  1  0
 14 12  1  0
 15 14  2  0
 16 14  1  0
 17 16  1  0
 18 19  1  0
 17 18  1  1
 19 20  1  0
 20 21  2  0
 20 24  1  0
 22 17  1  0
 22 23  1  0
 25 22  2  0
M  END
$$$$
