VIE.pdb
     RDKit          3D

 25 24  0  0  1  0  0  0  0  0999 V2000
   20.6005  -11.7262  -20.1384 C   0  0  0  0  0  0  0  0  0  0  0  0
   21.9838  -12.0174  -20.7526 C   0  0  2  0  0  0  0  0  0  0  0  0
   21.6987  -12.9466  -21.9101 C   0  0  0  0  0  0  0  0  0  0  0  0
   22.7458  -12.7595  -19.6863 C   0  0  2  0  0  0  0  0  0  0  0  0
   21.9099  -13.9372  -19.3537 N   0  0  0  0  0  0  0  0  0  0  0  0
   22.9252  -12.0152  -18.4278 C   0  0  0  0  0  0  0  0  0  0  0  0
   22.0422  -12.1253  -17.5187 O   0  0  0  0  0  0  0  0  0  0  0  0
   27.7088  -11.5020  -16.1371 C   0  0  0  0  0  0  0  0  0  0  0  0
   26.2337  -11.7165  -16.4018 C   0  0  0  0  0  0  0  0  0  0  0  0
   25.6099  -10.3468  -16.5169 C   0  0  2  0  0  0  0  0  0  0  0  0
   25.7072   -9.5924  -15.2161 C   0  0  0  0  0  0  0  0  0  0  0  0
   24.1160  -10.4407  -16.8696 C   0  0  2  0  0  0  0  0  0  0  0  0
   24.0157  -11.1597  -18.1060 N   0  0  0  0  0  0  0  0  0  0  0  0
   23.5977   -9.0633  -16.8961 C   0  0  0  0  0  0  0  0  0  0  0  0
   24.1193   -8.1771  -17.6623 O   0  0  0  0  0  0  0  0  0  0  0  0
   22.5151   -8.5658  -16.1207 N   0  0  0  0  0  0  0  0  0  0  0  0
   21.9673   -7.2353  -16.2678 C   0  0  1  0  0  0  0  0  0  0  0  0
   20.4643   -7.2201  -16.3647 C   0  0  0  0  0  0  0  0  0  0  0  0
   19.8649   -5.8692  -16.5283 C   0  0  0  0  0  0  0  0  0  0  0  0
   18.3873   -6.0464  -16.6451 C   0  0  0  0  0  0  0  0  0  0  0  0
   17.9236   -7.2121  -16.5771 O   0  0  0  0  0  0  0  0  0  0  0  0
   22.3135   -6.4649  -15.0523 C   0  0  0  0  0  0  0  0  0  0  0  0
   22.4644   -5.0966  -15.1523 O   0  0  0  0  0  0  0  0  0  0  0  0
   17.5040   -5.0137  -16.8224 O   0  0  0  0  0  0  0  0  0  0  0  0
   22.4749   -7.0118  -13.9336 O   0  0  0  0  0  0  0  0  0  0  0  0
  2  3  1  6
  2  1  1  0
  4  2  1  0
  4  5  1  1
  6  4  1  0
  7  6  2  0
  9  8  1  0
 10  9  1  0
 10 11  1  1
 12 10  1  0
 12 13  1  6
 13  6  1  0
 14 12  1  0
 15 14  2  0
 16 14  1  0
 17 16  1  0
 18 19  1  0
 17 18  1  1
 19 20  1  0
 20 21  2  0
 20 24  1  0
 22 17  1  0
 22 23  1  0
 25 22  2  0
M  END
$$$$
