VIE.pdb
     RDKit          3D

 25 24  0  0  1  0  0  0  0  0999 V2000
   20.9926  -11.3535  -20.3660 C   0  0  0  0  0  0  0  0  0  0  0  0
   22.4005  -11.4755  -20.9811 C   0  0  2  0  0  0  0  0  0  0  0  0
   22.2010  -12.3074  -22.2271 C   0  0  0  0  0  0  0  0  0  0  0  0
   23.2083  -12.2560  -19.9777 C   0  0  2  0  0  0  0  0  0  0  0  0
   22.4601  -13.5178  -19.7673 N   0  0  0  0  0  0  0  0  0  0  0  0
   23.3231  -11.6213  -18.6533 C   0  0  0  0  0  0  0  0  0  0  0  0
   22.4192  -11.8433  -17.7862 O   0  0  0  0  0  0  0  0  0  0  0  0
   27.8267  -11.3249  -15.9008 C   0  0  0  0  0  0  0  0  0  0  0  0
   26.3762  -11.4691  -16.3100 C   0  0  0  0  0  0  0  0  0  0  0  0
   25.8241  -10.0713  -16.4503 C   0  0  2  0  0  0  0  0  0  0  0  0
   25.8195   -9.3515  -15.1264 C   0  0  0  0  0  0  0  0  0  0  0  0
   24.3712  -10.0920  -16.9539 C   0  0  2  0  0  0  0  0  0  0  0  0
   24.3707  -10.7601  -18.2225 N   0  0  0  0  0  0  0  0  0  0  0  0
   23.9084   -8.6950  -16.9756 C   0  0  0  0  0  0  0  0  0  0  0  0
   24.5527   -7.7968  -17.6259 O   0  0  0  0  0  0  0  0  0  0  0  0
   22.7546   -8.1895  -16.3167 N   0  0  0  0  0  0  0  0  0  0  0  0
   22.3161   -6.8143  -16.4081 C   0  0  1  0  0  0  0  0  0  0  0  0
   20.8385   -6.6789  -16.6669 C   0  0  0  0  0  0  0  0  0  0  0  0
   20.3154   -5.2900  -16.5757 C   0  0  0  0  0  0  0  0  0  0  0  0
   18.8499   -5.3445  -16.8549 C   0  0  0  0  0  0  0  0  0  0  0  0
   18.3463   -6.4542  -17.1606 O   0  0  0  0  0  0  0  0  0  0  0  0
   22.5700   -6.1690  -15.1005 C   0  0  0  0  0  0  0  0  0  0  0  0
   22.7670   -4.8035  -15.0594 O   0  0  0  0  0  0  0  0  0  0  0  0
   18.0187   -4.2563  -16.7981 O   0  0  0  0  0  0  0  0  0  0  0  0
   22.6127   -6.8196  -14.0274 O   0  0  0  0  0  0  0  0  0  0  0  0
  2  3  1  6
  2  1  1  0
  4  2  1  0
  4  5  1  1
  6  4  1  0
  7  6  2  0
  9  8  1  0
 10  9  1  0
 10 11  1  1
 12 10  1  0
 12 13  1  6
 13  6  1  0
 14 12  1  0
 15 14  2  0
 16 14  1  0
 17 16  1  0
 18 19  1  0
 17 18  1  1
 19 20  1  0
 20 21  2  0
 20 24  1  0
 22 17  1  0
 22 23  1  0
 25 22  2  0
M  END
$$$$
