VIE.pdb
     RDKit          3D

 25 24  0  0  1  0  0  0  0  0999 V2000
   20.6690  -15.7669  -18.3879 C   0  0  0  0  0  0  0  0  0  0  0  0
   20.6689  -14.2618  -18.7199 C   0  0  2  0  0  0  0  0  0  0  0  0
   22.0599  -13.9872  -19.2436 C   0  0  0  0  0  0  0  0  0  0  0  0
   20.4800  -13.5618  -17.3998 C   0  0  2  0  0  0  0  0  0  0  0  0
   19.2148  -14.1003  -16.8471 N   0  0  0  0  0  0  0  0  0  0  0  0
   20.2972  -12.1033  -17.4976 C   0  0  0  0  0  0  0  0  0  0  0  0
   21.2848  -11.3836  -17.8509 O   0  0  0  0  0  0  0  0  0  0  0  0
   16.0326  -10.6146  -19.5671 C   0  0  0  0  0  0  0  0  0  0  0  0
   17.4149  -10.0275  -19.3762 C   0  0  0  0  0  0  0  0  0  0  0  0
   17.5459   -9.6943  -17.9098 C   0  0  2  0  0  0  0  0  0  0  0  0
   17.2618   -8.2367  -17.6543 C   0  0  0  0  0  0  0  0  0  0  0  0
   18.9703   -9.9692  -17.3992 C   0  0  2  0  0  0  0  0  0  0  0  0
   19.0960  -11.3878  -17.2336 N   0  0  0  0  0  0  0  0  0  0  0  0
   19.1442   -9.1724  -16.1739 C   0  0  0  0  0  0  0  0  0  0  0  0
   18.5723   -9.5143  -15.0782 O   0  0  0  0  0  0  0  0  0  0  0  0
   19.9230   -7.9893  -16.0533 N   0  0  0  0  0  0  0  0  0  0  0  0
   20.1486   -7.3009  -14.8015 C   0  0  1  0  0  0  0  0  0  0  0  0
   21.2647   -6.2920  -14.8721 C   0  0  0  0  0  0  0  0  0  0  0  0
   21.4679   -5.5008  -13.6296 C   0  0  0  0  0  0  0  0  0  0  0  0
   22.5182   -4.4794  -13.9163 C   0  0  0  0  0  0  0  0  0  0  0  0
   23.5608   -4.8528  -14.5096 O   0  0  0  0  0  0  0  0  0  0  0  0
   18.9213   -6.5412  -14.4737 C   0  0  0  0  0  0  0  0  0  0  0  0
   18.5571   -6.4048  -13.1494 O   0  0  0  0  0  0  0  0  0  0  0  0
   22.4147   -3.1572  -13.5713 O   0  0  0  0  0  0  0  0  0  0  0  0
   18.1999   -6.0166  -15.3573 O   0  0  0  0  0  0  0  0  0  0  0  0
  2  3  1  1
  2  1  1  0
  4  2  1  0
  4  5  1  6
  6  4  1  0
  7  6  2  0
  9  8  1  0
 10  9  1  0
 10 11  1  6
 12 10  1  0
 12 13  1  1
 13  6  1  0
 14 12  1  0
 15 14  2  0
 16 14  1  0
 17 16  1  0
 18 19  1  0
 17 18  1  6
 19 20  1  0
 20 21  2  0
 20 24  1  0
 22 17  1  0
 22 23  1  0
 25 22  2  0
M  END
$$$$
