VIE.pdb
     RDKit          3D

 25 24  0  0  1  0  0  0  0  0999 V2000
   18.2163  -10.3367  -19.0050 C   0  0  0  0  0  0  0  0  0  0  0  0
   19.5043  -10.8918  -19.6441 C   0  0  2  0  0  0  0  0  0  0  0  0
   19.0195  -11.8050  -20.7465 C   0  0  0  0  0  0  0  0  0  0  0  0
   20.1645  -11.7099  -18.5656 C   0  0  2  0  0  0  0  0  0  0  0  0
   19.1822  -12.7624  -18.2140 N   0  0  0  0  0  0  0  0  0  0  0  0
   20.4423  -10.9752  -17.3194 C   0  0  0  0  0  0  0  0  0  0  0  0
   19.5173  -10.8647  -16.4531 O   0  0  0  0  0  0  0  0  0  0  0  0
   25.5150  -10.4763  -15.1775 C   0  0  0  0  0  0  0  0  0  0  0  0
   24.3148  -10.0523  -15.9971 C   0  0  0  0  0  0  0  0  0  0  0  0
   23.1203  -10.1038  -15.0757 C   0  0  2  0  0  0  0  0  0  0  0  0
   22.8296  -11.5162  -14.6383 C   0  0  0  0  0  0  0  0  0  0  0  0
   21.8533   -9.5811  -15.7731 C   0  0  2  0  0  0  0  0  0  0  0  0
   21.6740  -10.3567  -16.9656 N   0  0  0  0  0  0  0  0  0  0  0  0
   22.0475   -8.1372  -15.9820 C   0  0  0  0  0  0  0  0  0  0  0  0
   22.6679   -7.6978  -17.0149 O   0  0  0  0  0  0  0  0  0  0  0  0
   21.5991   -7.1026  -15.1163 N   0  0  0  0  0  0  0  0  0  0  0  0
   21.7985   -5.6943  -15.3780 C   0  0  1  0  0  0  0  0  0  0  0  0
   20.5650   -5.0081  -15.9037 C   0  0  0  0  0  0  0  0  0  0  0  0
   20.7400   -3.5643  -16.2129 C   0  0  0  0  0  0  0  0  0  0  0  0
   19.5042   -3.1033  -16.9120 C   0  0  0  0  0  0  0  0  0  0  0  0
   19.6048   -2.7282  -18.1068 O   0  0  0  0  0  0  0  0  0  0  0  0
   22.1252   -5.0356  -14.0934 C   0  0  0  0  0  0  0  0  0  0  0  0
   22.7178   -3.7893  -14.1165 O   0  0  0  0  0  0  0  0  0  0  0  0
   18.2644   -3.0642  -16.3293 O   0  0  0  0  0  0  0  0  0  0  0  0
   21.8826   -5.5704  -12.9836 O   0  0  0  0  0  0  0  0  0  0  0  0
  2  3  1  6
  2  1  1  0
  4  2  1  0
  4  5  1  1
  6  4  1  0
  7  6  2  0
  9  8  1  0
 10  9  1  0
 10 11  1  6
 12 10  1  0
 12 13  1  6
 13  6  1  0
 14 12  1  0
 15 14  2  0
 16 14  1  0
 17 16  1  0
 18 19  1  0
 17 18  1  1
 19 20  1  0
 20 21  2  0
 20 24  1  0
 22 17  1  0
 22 23  1  0
 25 22  2  0
M  END
$$$$
