VIE.pdb
     RDKit          3D

 25 24  0  0  1  0  0  0  0  0999 V2000
   23.2624  -14.4084  -18.8708 C   0  0  0  0  0  0  0  0  0  0  0  0
   21.8206  -13.9716  -19.1963 C   0  0  2  0  0  0  0  0  0  0  0  0
   21.5580  -14.5244  -20.5783 C   0  0  0  0  0  0  0  0  0  0  0  0
   21.8628  -12.4672  -19.2548 C   0  0  2  0  0  0  0  0  0  0  0  0
   22.8723  -12.1425  -20.2900 N   0  0  0  0  0  0  0  0  0  0  0  0
   22.3218  -11.8162  -18.0156 C   0  0  0  0  0  0  0  0  0  0  0  0
   21.5878  -11.8840  -16.9788 O   0  0  0  0  0  0  0  0  0  0  0  0
   27.3335  -11.8327  -16.1314 C   0  0  0  0  0  0  0  0  0  0  0  0
   25.8237  -11.8616  -16.2392 C   0  0  0  0  0  0  0  0  0  0  0  0
   25.3775  -10.4372  -16.4638 C   0  0  2  0  0  0  0  0  0  0  0  0
   25.7154   -9.5670  -15.2809 C   0  0  0  0  0  0  0  0  0  0  0  0
   23.8547  -10.3528  -16.6615 C   0  0  2  0  0  0  0  0  0  0  0  0
   23.5380  -11.0977  -17.8450 N   0  0  0  0  0  0  0  0  0  0  0  0
   23.5098   -8.9226  -16.7041 C   0  0  0  0  0  0  0  0  0  0  0  0
   23.9486   -8.1660  -17.6421 O   0  0  0  0  0  0  0  0  0  0  0  0
   22.6934   -8.2344  -15.7657 N   0  0  0  0  0  0  0  0  0  0  0  0
   22.2660   -6.8623  -15.9279 C   0  0  1  0  0  0  0  0  0  0  0  0
   20.9054   -6.7357  -16.5613 C   0  0  0  0  0  0  0  0  0  0  0  0
   20.3970   -5.3426  -16.6707 C   0  0  0  0  0  0  0  0  0  0  0  0
   19.0645   -5.4039  -17.3409 C   0  0  0  0  0  0  0  0  0  0  0  0
   18.6283   -6.5293  -17.6897 O   0  0  0  0  0  0  0  0  0  0  0  0
   22.1553   -6.2591  -14.5808 C   0  0  0  0  0  0  0  0  0  0  0  0
   22.1712   -4.8839  -14.4642 O   0  0  0  0  0  0  0  0  0  0  0  0
   18.2863   -4.3058  -17.5994 O   0  0  0  0  0  0  0  0  0  0  0  0
   22.0475   -6.9538  -13.5405 O   0  0  0  0  0  0  0  0  0  0  0  0
  2  3  1  6
  2  1  1  0
  4  2  1  0
  4  5  1  6
  6  4  1  0
  7  6  2  0
  9  8  1  0
 10  9  1  0
 10 11  1  1
 12 10  1  0
 12 13  1  6
 13  6  1  0
 14 12  1  0
 15 14  2  0
 16 14  1  0
 17 16  1  0
 18 19  1  0
 17 18  1  1
 19 20  1  0
 20 21  2  0
 20 24  1  0
 22 17  1  0
 22 23  1  0
 25 22  2  0
M  END
$$$$
