VIE.pdb
     RDKit          3D

 25 24  0  0  1  0  0  0  0  0999 V2000
   34.4705  -33.4926  -17.6839 C   0  0  0  0  0  0  0  0  0  0  0  0
   33.8213  -32.6921  -16.5379 C   0  0  2  0  0  0  0  0  0  0  0  0
   33.2391  -33.7433  -15.6211 C   0  0  0  0  0  0  0  0  0  0  0  0
   32.7060  -31.9094  -17.1797 C   0  0  2  0  0  0  0  0  0  0  0  0
   31.8029  -32.9248  -17.7708 N   0  0  0  0  0  0  0  0  0  0  0  0
   33.1263  -31.0377  -18.2904 C   0  0  0  0  0  0  0  0  0  0  0  0
   32.9685  -31.4467  -19.4846 O   0  0  0  0  0  0  0  0  0  0  0  0
   33.9078  -25.2053  -19.7624 C   0  0  0  0  0  0  0  0  0  0  0  0
   34.2087  -26.6299  -20.1771 C   0  0  0  0  0  0  0  0  0  0  0  0
   33.9074  -27.5023  -18.9827 C   0  0  2  0  0  0  0  0  0  0  0  0
   34.7719  -27.1321  -17.8053 C   0  0  0  0  0  0  0  0  0  0  0  0
   34.1796  -28.9843  -19.2899 C   0  0  2  0  0  0  0  0  0  0  0  0
   33.7069  -29.7443  -18.1698 N   0  0  0  0  0  0  0  0  0  0  0  0
   35.6195  -29.1030  -19.5713 C   0  0  0  0  0  0  0  0  0  0  0  0
   36.1550  -28.4679  -20.5483 O   0  0  0  0  0  0  0  0  0  0  0  0
   36.5490  -29.8911  -18.8394 N   0  0  0  0  0  0  0  0  0  0  0  0
   37.9505  -30.0011  -19.1789 C   0  0  1  0  0  0  0  0  0  0  0  0
   38.8170  -30.3789  -18.0062 C   0  0  0  0  0  0  0  0  0  0  0  0
   40.2630  -30.5224  -18.3215 C   0  0  0  0  0  0  0  0  0  0  0  0
   40.9441  -31.0107  -17.0861 C   0  0  0  0  0  0  0  0  0  0  0  0
   40.2330  -31.2868  -16.0877 O   0  0  0  0  0  0  0  0  0  0  0  0
   38.0935  -31.0911  -20.1698 C   0  0  0  0  0  0  0  0  0  0  0  0
   37.1150  -32.0622  -20.2367 O   0  0  0  0  0  0  0  0  0  0  0  0
   42.2998  -31.1767  -16.9739 O   0  0  0  0  0  0  0  0  0  0  0  0
   39.0732  -31.1639  -20.9518 O   0  0  0  0  0  0  0  0  0  0  0  0
  2  3  1  1
  2  1  1  0
  4  2  1  0
  4  5  1  6
  6  4  1  0
  7  6  2  0
  9  8  1  0
 10  9  1  0
 10 11  1  1
 12 10  1  0
 12 13  1  1
 13  6  1  0
 14 12  1  0
 15 14  2  0
 16 14  1  0
 17 16  1  0
 18 19  1  0
 17 18  1  1
 19 20  1  0
 20 21  2  0
 20 24  1  0
 22 17  1  0
 22 23  1  0
 25 22  2  0
M  END
$$$$
