VIE.pdb
     RDKit          3D

 25 24  0  0  1  0  0  0  0  0999 V2000
   16.7770  -10.4929  -18.2695 C   0  0  0  0  0  0  0  0  0  0  0  0
   17.9429  -11.0485  -19.1108 C   0  0  2  0  0  0  0  0  0  0  0  0
   17.2856  -11.9746  -20.1080 C   0  0  0  0  0  0  0  0  0  0  0  0
   18.7797  -11.8529  -18.1512 C   0  0  2  0  0  0  0  0  0  0  0  0
   17.8569  -12.8574  -17.5719 N   0  0  0  0  0  0  0  0  0  0  0  0
   19.3188  -11.0872  -17.0140 C   0  0  0  0  0  0  0  0  0  0  0  0
   18.5778  -10.8937  -15.9983 O   0  0  0  0  0  0  0  0  0  0  0  0
   23.9672  -11.8928  -14.8171 C   0  0  0  0  0  0  0  0  0  0  0  0
   22.5078  -11.5365  -15.0045 C   0  0  0  0  0  0  0  0  0  0  0  0
   22.4675  -10.0980  -15.4602 C   0  0  2  0  0  0  0  0  0  0  0  0
   22.9209   -9.1666  -14.3658 C   0  0  0  0  0  0  0  0  0  0  0  0
   21.0408   -9.6738  -15.8469 C   0  0  2  0  0  0  0  0  0  0  0  0
   20.6220  -10.5232  -16.9234 N   0  0  0  0  0  0  0  0  0  0  0  0
   21.0945   -8.2367  -16.1605 C   0  0  0  0  0  0  0  0  0  0  0  0
   21.8047   -7.8005  -17.1351 O   0  0  0  0  0  0  0  0  0  0  0  0
   20.4064   -7.2060  -15.4641 N   0  0  0  0  0  0  0  0  0  0  0  0
   20.4518   -5.8115  -15.8448 C   0  0  1  0  0  0  0  0  0  0  0  0
   19.1478   -5.0922  -15.6193 C   0  0  0  0  0  0  0  0  0  0  0  0
   19.1572   -3.6538  -15.9958 C   0  0  0  0  0  0  0  0  0  0  0  0
   17.7993   -3.1061  -15.7048 C   0  0  0  0  0  0  0  0  0  0  0  0
   17.6288   -1.8649  -15.7991 O   0  0  0  0  0  0  0  0  0  0  0  0
   21.4517   -5.1387  -14.9855 C   0  0  0  0  0  0  0  0  0  0  0  0
   22.1707   -4.0808  -15.5042 O   0  0  0  0  0  0  0  0  0  0  0  0
   16.7254   -3.8756  -15.3406 O   0  0  0  0  0  0  0  0  0  0  0  0
   21.6692   -5.4961  -13.8016 O   0  0  0  0  0  0  0  0  0  0  0  0
  2  3  1  6
  2  1  1  0
  4  2  1  0
  4  5  1  1
  6  4  1  0
  7  6  2  0
  9  8  1  0
 10  9  1  0
 10 11  1  1
 12 10  1  0
 12 13  1  6
 13  6  1  0
 14 12  1  0
 15 14  2  0
 16 14  1  0
 17 16  1  0
 18 19  1  0
 17 18  1  1
 19 20  1  0
 20 21  2  0
 20 24  1  0
 22 17  1  0
 22 23  1  0
 25 22  2  0
M  END
$$$$
