SSC.pdb
     RDKit          3D

 19 18  0  0  1  0  0  0  0  0999 V2000
   18.1158  -13.3938  -14.5688 O   0  0  0  0  0  0  0  0  0  0  0  0
   18.7765  -12.1542  -14.7077 C   0  0  0  0  0  0  0  0  0  0  0  0
   18.5111  -11.6585  -16.1009 C   0  0  2  0  0  0  0  0  0  0  0  0
   19.3177  -12.3656  -17.0620 N   0  0  0  0  0  0  0  0  0  0  0  0
   18.8209  -10.2115  -16.1925 C   0  0  0  0  0  0  0  0  0  0  0  0
   20.0091   -9.8169  -16.3431 O   0  0  0  0  0  0  0  0  0  0  0  0
   16.0174   -7.3122  -15.2578 O   0  0  0  0  0  0  0  0  0  0  0  0
   16.7225   -7.1376  -16.4469 C   0  0  0  0  0  0  0  0  0  0  0  0
   18.0759   -7.8442  -16.3483 C   0  0  2  0  0  0  0  0  0  0  0  0
   17.8148   -9.2296  -16.1163 N   0  0  0  0  0  0  0  0  0  0  0  0
   18.9365   -7.2256  -15.3331 C   0  0  0  0  0  0  0  0  0  0  0  0
   18.9530   -7.7210  -14.1768 O   0  0  0  0  0  0  0  0  0  0  0  0
   19.7592   -6.0980  -15.5638 N   0  0  0  0  0  0  0  0  0  0  0  0
   20.4839   -5.4514  -14.5266 C   0  0  1  0  0  0  0  0  0  0  0  0
   21.9387   -5.8314  -14.4592 C   0  0  0  0  0  0  0  0  0  0  0  0
   22.8730   -4.8487  -13.2903 S   0  0  0  0  0  0  0  0  0  0  0  0
   20.3660   -3.9733  -14.6496 C   0  0  0  0  0  0  0  0  0  0  0  0
   20.4312   -3.1367  -13.5478 O   0  0  0  0  0  0  0  0  0  0  0  0
   20.2018   -3.4580  -15.7857 O   0  0  0  0  0  0  0  0  0  0  0  0
  2  1  1  0
  3  4  1  6
  3  2  1  0
  5  3  1  0
  6  5  2  0
  7  8  1  0
  9  8  1  1
  9 11  1  0
  9 10  1  0
 10  5  1  0
 11 12  2  0
 13 14  1  0
 13 11  1  0
 14 15  1  6
 15 16  1  0
 17 14  1  0
 18 17  1  0
 19 17  2  0
M  END
$$$$
