SSC.pdb
     RDKit          3D

 19 18  0  0  1  0  0  0  0  0999 V2000
   17.5460  -11.9618  -18.4933 O   0  0  0  0  0  0  0  0  0  0  0  0
   18.0390  -11.0896  -17.4991 C   0  0  0  0  0  0  0  0  0  0  0  0
   19.2179  -11.7633  -16.8563 C   0  0  2  0  0  0  0  0  0  0  0  0
   18.7942  -12.8578  -16.0214 N   0  0  0  0  0  0  0  0  0  0  0  0
   19.9662  -10.7914  -16.0233 C   0  0  0  0  0  0  0  0  0  0  0  0
   19.5393  -10.4584  -14.8845 O   0  0  0  0  0  0  0  0  0  0  0  0
   23.7984   -9.7082  -17.0699 O   0  0  0  0  0  0  0  0  0  0  0  0
   23.3847   -9.7099  -15.7394 C   0  0  0  0  0  0  0  0  0  0  0  0
   21.9154   -9.2910  -15.6593 C   0  0  2  0  0  0  0  0  0  0  0  0
   21.1692  -10.2069  -16.4628 N   0  0  0  0  0  0  0  0  0  0  0  0
   21.7322   -7.8851  -16.0385 C   0  0  0  0  0  0  0  0  0  0  0  0
   21.4618   -7.6166  -17.2374 O   0  0  0  0  0  0  0  0  0  0  0  0
   21.8392   -6.7962  -15.1416 N   0  0  0  0  0  0  0  0  0  0  0  0
   21.7240   -5.4431  -15.5599 C   0  0  1  0  0  0  0  0  0  0  0  0
   21.2750   -4.4977  -14.4782 C   0  0  0  0  0  0  0  0  0  0  0  0
   19.7366   -4.9875  -13.7046 S   0  0  0  0  0  0  0  0  0  0  0  0
   23.0102   -4.9616  -16.1323 C   0  0  0  0  0  0  0  0  0  0  0  0
   23.1240   -3.7263  -16.7478 O   0  0  0  0  0  0  0  0  0  0  0  0
   24.0319   -5.6925  -16.0597 O   0  0  0  0  0  0  0  0  0  0  0  0
  2  1  1  0
  3  4  1  1
  3  2  1  0
  5  3  1  0
  6  5  2  0
  7  8  1  0
  9  8  1  6
  9 11  1  0
  9 10  1  0
 10  5  1  0
 11 12  2  0
 13 14  1  0
 13 11  1  0
 14 15  1  1
 15 16  1  0
 17 14  1  0
 18 17  1  0
 19 17  2  0
M  END
$$$$
