SSC.pdb
     RDKit          3D

 19 18  0  0  1  0  0  0  0  0999 V2000
   18.7600  -13.0561  -14.7958 O   0  0  0  0  0  0  0  0  0  0  0  0
   19.5298  -11.9371  -15.1799 C   0  0  0  0  0  0  0  0  0  0  0  0
   18.9705  -11.4332  -16.4799 C   0  0  2  0  0  0  0  0  0  0  0  0
   19.4103  -12.2501  -17.5816 N   0  0  0  0  0  0  0  0  0  0  0  0
   19.4128  -10.0379  -16.7160 C   0  0  0  0  0  0  0  0  0  0  0  0
   20.4521   -9.7983  -17.3887 O   0  0  0  0  0  0  0  0  0  0  0  0
   18.1900   -5.3686  -16.4048 O   0  0  0  0  0  0  0  0  0  0  0  0
   17.8648   -6.7043  -16.1779 C   0  0  0  0  0  0  0  0  0  0  0  0
   19.0792   -7.5853  -16.4776 C   0  0  2  0  0  0  0  0  0  0  0  0
   18.7004   -8.9358  -16.2059 N   0  0  0  0  0  0  0  0  0  0  0  0
   20.2653   -7.1421  -15.7355 C   0  0  0  0  0  0  0  0  0  0  0  0
   20.4470   -7.5864  -14.5726 O   0  0  0  0  0  0  0  0  0  0  0  0
   21.2313   -6.2400  -16.2400 N   0  0  0  0  0  0  0  0  0  0  0  0
   22.3767   -5.8470  -15.4964 C   0  0  1  0  0  0  0  0  0  0  0  0
   23.5381   -5.3974  -16.3417 C   0  0  0  0  0  0  0  0  0  0  0  0
   24.9494   -4.8637  -15.3783 S   0  0  0  0  0  0  0  0  0  0  0  0
   22.0278   -4.7732  -14.5275 C   0  0  0  0  0  0  0  0  0  0  0  0
   22.5111   -4.7689  -13.2297 O   0  0  0  0  0  0  0  0  0  0  0  0
   21.2707   -3.8354  -14.8891 O   0  0  0  0  0  0  0  0  0  0  0  0
  2  1  1  0
  3  4  1  6
  3  2  1  0
  5  3  1  0
  6  5  2  0
  7  8  1  0
  9  8  1  1
  9 11  1  0
  9 10  1  0
 10  5  1  0
 11 12  2  0
 13 14  1  0
 13 11  1  0
 14 15  1  6
 15 16  1  0
 17 14  1  0
 18 17  1  0
 19 17  2  0
M  END
$$$$
