SSC.pdb
     RDKit          3D

 19 18  0  0  1  0  0  0  0  0999 V2000
   20.4285  -13.7269  -16.2873 O   0  0  0  0  0  0  0  0  0  0  0  0
   20.5823  -12.3403  -16.5016 C   0  0  0  0  0  0  0  0  0  0  0  0
   19.2058  -11.7473  -16.6042 C   0  0  2  0  0  0  0  0  0  0  0  0
   18.7867  -11.6518  -17.9789 N   0  0  0  0  0  0  0  0  0  0  0  0
   19.1918  -10.3902  -16.0072 C   0  0  0  0  0  0  0  0  0  0  0  0
   19.3742   -9.3701  -16.7257 O   0  0  0  0  0  0  0  0  0  0  0  0
   17.0560   -9.6029  -12.7189 O   0  0  0  0  0  0  0  0  0  0  0  0
   18.3296   -9.0431  -12.6425 C   0  0  0  0  0  0  0  0  0  0  0  0
   18.9037   -8.8819  -14.0514 C   0  0  2  0  0  0  0  0  0  0  0  0
   18.9771  -10.1857  -14.6309 N   0  0  0  0  0  0  0  0  0  0  0  0
   20.1859   -8.1680  -14.0347 C   0  0  0  0  0  0  0  0  0  0  0  0
   21.2400   -8.8306  -13.8538 O   0  0  0  0  0  0  0  0  0  0  0  0
   20.3238   -6.7709  -14.2095 N   0  0  0  0  0  0  0  0  0  0  0  0
   21.5886   -6.1258  -14.2675 C   0  0  1  0  0  0  0  0  0  0  0  0
   22.0466   -5.7873  -15.6607 C   0  0  0  0  0  0  0  0  0  0  0  0
   23.5406   -4.8015  -15.6942 S   0  0  0  0  0  0  0  0  0  0  0  0
   21.5843   -4.8914  -13.4369 C   0  0  0  0  0  0  0  0  0  0  0  0
   22.7284   -4.4202  -12.8148 O   0  0  0  0  0  0  0  0  0  0  0  0
   20.5127   -4.2486  -13.2891 O   0  0  0  0  0  0  0  0  0  0  0  0
  2  1  1  0
  3  4  1  6
  3  2  1  0
  5  3  1  0
  6  5  2  0
  7  8  1  0
  9  8  1  1
  9 11  1  0
  9 10  1  0
 10  5  1  0
 11 12  2  0
 13 14  1  0
 13 11  1  0
 14 15  1  6
 15 16  1  0
 17 14  1  0
 18 17  1  0
 19 17  2  0
M  END
$$$$
