SSC.pdb
     RDKit          3D

 19 18  0  0  1  0  0  0  0  0999 V2000
   14.7251  -10.6798  -15.9413 O   0  0  0  0  0  0  0  0  0  0  0  0
   15.2641  -11.3987  -14.8528 C   0  0  0  0  0  0  0  0  0  0  0  0
   16.7489  -11.4851  -15.0639 C   0  0  2  0  0  0  0  0  0  0  0  0
   17.2080  -12.8454  -14.9473 N   0  0  0  0  0  0  0  0  0  0  0  0
   17.4541  -10.6571  -14.0562 C   0  0  0  0  0  0  0  0  0  0  0  0
   17.5084  -11.0205  -12.8500 O   0  0  0  0  0  0  0  0  0  0  0  0
   20.9303   -7.5452  -13.2555 O   0  0  0  0  0  0  0  0  0  0  0  0
   20.1189   -8.2283  -14.1591 C   0  0  0  0  0  0  0  0  0  0  0  0
   18.8367   -8.6791  -13.4568 C   0  0  2  0  0  0  0  0  0  0  0  0
   18.0846   -9.4458  -14.3990 N   0  0  0  0  0  0  0  0  0  0  0  0
   18.0987   -7.5414  -12.8954 C   0  0  0  0  0  0  0  0  0  0  0  0
   17.2752   -6.9379  -13.6305 O   0  0  0  0  0  0  0  0  0  0  0  0
   18.2486   -7.0685  -11.5705 N   0  0  0  0  0  0  0  0  0  0  0  0
   17.5153   -5.9622  -11.0628 C   0  0  1  0  0  0  0  0  0  0  0  0
   17.5130   -5.8589   -9.5612 C   0  0  0  0  0  0  0  0  0  0  0  0
   16.9096   -7.3371   -8.7514 S   0  0  0  0  0  0  0  0  0  0  0  0
   18.0209   -4.6891  -11.6435 C   0  0  0  0  0  0  0  0  0  0  0  0
   17.4077   -3.4728  -11.3936 O   0  0  0  0  0  0  0  0  0  0  0  0
   19.0366   -4.7079  -12.3860 O   0  0  0  0  0  0  0  0  0  0  0  0
  2  1  1  0
  3  4  1  1
  3  2  1  0
  5  3  1  0
  6  5  2  0
  7  8  1  0
  9  8  1  6
  9 11  1  0
  9 10  1  0
 10  5  1  0
 11 12  2  0
 13 14  1  0
 13 11  1  0
 14 15  1  1
 15 16  1  0
 17 14  1  0
 18 17  1  0
 19 17  2  0
M  END
$$$$
