SSC.pdb
     RDKit          3D

 19 18  0  0  1  0  0  0  0  0999 V2000
   16.0270  -14.0432  -14.8292 O   0  0  0  0  0  0  0  0  0  0  0  0
   15.5316  -12.7563  -14.5279 C   0  0  0  0  0  0  0  0  0  0  0  0
   16.2506  -12.2755  -13.2996 C   0  0  2  0  0  0  0  0  0  0  0  0
   16.2035  -13.2649  -12.2541 N   0  0  0  0  0  0  0  0  0  0  0  0
   15.6253  -11.0268  -12.8015 C   0  0  0  0  0  0  0  0  0  0  0  0
   15.4881  -10.0295  -13.5608 O   0  0  0  0  0  0  0  0  0  0  0  0
   13.6528  -11.1314   -9.2967 O   0  0  0  0  0  0  0  0  0  0  0  0
   13.3236  -10.1116  -10.1872 C   0  0  0  0  0  0  0  0  0  0  0  0
   14.5661   -9.7042  -10.9815 C   0  0  2  0  0  0  0  0  0  0  0  0
   15.1643  -10.9034  -11.4769 N   0  0  0  0  0  0  0  0  0  0  0  0
   15.4744   -8.8772  -10.1785 C   0  0  0  0  0  0  0  0  0  0  0  0
   16.3005   -9.4517   -9.4233 O   0  0  0  0  0  0  0  0  0  0  0  0
   15.4883   -7.4625  -10.1927 N   0  0  0  0  0  0  0  0  0  0  0  0
   16.3894   -6.6959   -9.4056 C   0  0  1  0  0  0  0  0  0  0  0  0
   17.6774   -6.3485  -10.1027 C   0  0  0  0  0  0  0  0  0  0  0  0
   17.4353   -5.4233  -11.6161 S   0  0  0  0  0  0  0  0  0  0  0  0
   15.7352   -5.4476   -8.9287 C   0  0  0  0  0  0  0  0  0  0  0  0
   14.5032   -5.0344   -9.4078 O   0  0  0  0  0  0  0  0  0  0  0  0
   16.3112   -4.7386   -8.0634 O   0  0  0  0  0  0  0  0  0  0  0  0
  2  1  1  0
  3  4  1  1
  3  2  1  0
  5  3  1  0
  6  5  2  0
  7  8  1  0
  9  8  1  1
  9 11  1  0
  9 10  1  0
 10  5  1  0
 11 12  2  0
 13 14  1  0
 13 11  1  0
 14 15  1  6
 15 16  1  0
 17 14  1  0
 18 17  1  0
 19 17  2  0
M  END
$$$$
