SSC.pdb
     RDKit          3D

 19 18  0  0  1  0  0  0  0  0999 V2000
   14.0221   -6.0427   -7.3776 O   0  0  0  0  0  0  0  0  0  0  0  0
   15.1042   -6.5232   -8.1460 C   0  0  0  0  0  0  0  0  0  0  0  0
   14.5523   -7.5254   -9.1196 C   0  0  2  0  0  0  0  0  0  0  0  0
   14.1906   -8.7488   -8.4509 N   0  0  0  0  0  0  0  0  0  0  0  0
   15.5632   -7.8328  -10.1597 C   0  0  0  0  0  0  0  0  0  0  0  0
   16.4446   -8.7120   -9.9593 O   0  0  0  0  0  0  0  0  0  0  0  0
   16.6318   -7.8032  -14.7916 O   0  0  0  0  0  0  0  0  0  0  0  0
   15.7725   -7.4332  -13.7590 C   0  0  0  0  0  0  0  0  0  0  0  0
   16.5227   -7.4803  -12.4265 C   0  0  2  0  0  0  0  0  0  0  0  0
   15.5816   -7.1648  -11.3989 N   0  0  0  0  0  0  0  0  0  0  0  0
   17.7018   -6.6065  -12.4384 C   0  0  0  0  0  0  0  0  0  0  0  0
   17.5519   -5.3913  -12.1496 O   0  0  0  0  0  0  0  0  0  0  0  0
   19.0115   -7.0377  -12.7553 N   0  0  0  0  0  0  0  0  0  0  0  0
   20.1084   -6.1415  -12.8683 C   0  0  1  0  0  0  0  0  0  0  0  0
   21.4521   -6.8155  -12.9437 C   0  0  0  0  0  0  0  0  0  0  0  0
   22.8227   -5.6640  -12.9298 S   0  0  0  0  0  0  0  0  0  0  0  0
   19.9368   -5.2515  -14.0482 C   0  0  0  0  0  0  0  0  0  0  0  0
   20.1746   -3.8888  -13.9815 O   0  0  0  0  0  0  0  0  0  0  0  0
   19.5644   -5.7428  -15.1451 O   0  0  0  0  0  0  0  0  0  0  0  0
  2  1  1  0
  3  4  1  1
  3  2  1  0
  5  3  1  0
  6  5  2  0
  7  8  1  0
  9  8  1  6
  9 11  1  0
  9 10  1  0
 10  5  1  0
 11 12  2  0
 13 14  1  0
 13 11  1  0
 14 15  1  6
 15 16  1  0
 17 14  1  0
 18 17  1  0
 19 17  2  0
M  END
$$$$
