SSC.pdb
     RDKit          3D

 19 18  0  0  1  0  0  0  0  0999 V2000
   15.3623  -11.3861  -15.6019 O   0  0  0  0  0  0  0  0  0  0  0  0
   16.7009  -11.1214  -15.2409 C   0  0  0  0  0  0  0  0  0  0  0  0
   17.5439  -11.3203  -16.4684 C   0  0  2  0  0  0  0  0  0  0  0  0
   18.0015  -12.6826  -16.5644 N   0  0  0  0  0  0  0  0  0  0  0  0
   18.7241  -10.4240  -16.4244 C   0  0  0  0  0  0  0  0  0  0  0  0
   19.7388  -10.7304  -15.7413 O   0  0  0  0  0  0  0  0  0  0  0  0
   21.1246   -8.0440  -19.2797 O   0  0  0  0  0  0  0  0  0  0  0  0
   19.9339   -7.7564  -18.6156 C   0  0  0  0  0  0  0  0  0  0  0  0
   19.9453   -8.4152  -17.2349 C   0  0  2  0  0  0  0  0  0  0  0  0
   18.7614   -9.2086  -17.1341 N   0  0  0  0  0  0  0  0  0  0  0  0
   20.0861   -7.4226  -16.1630 C   0  0  0  0  0  0  0  0  0  0  0  0
   19.0498   -6.8571  -15.7281 O   0  0  0  0  0  0  0  0  0  0  0  0
   21.3186   -7.0511  -15.5762 N   0  0  0  0  0  0  0  0  0  0  0  0
   21.4156   -6.0771  -14.5460 C   0  0  1  0  0  0  0  0  0  0  0  0
   22.2841   -6.4874  -13.3872 C   0  0  0  0  0  0  0  0  0  0  0  0
   21.7241   -7.9832  -12.5786 S   0  0  0  0  0  0  0  0  0  0  0  0
   21.9047   -4.7834  -15.0943 C   0  0  0  0  0  0  0  0  0  0  0  0
   21.9039   -3.6197  -14.3434 O   0  0  0  0  0  0  0  0  0  0  0  0
   22.3344   -4.7348  -16.2760 O   0  0  0  0  0  0  0  0  0  0  0  0
  2  1  1  0
  3  4  1  1
  3  2  1  0
  5  3  1  0
  6  5  2  0
  7  8  1  0
  9  8  1  6
  9 11  1  0
  9 10  1  0
 10  5  1  0
 11 12  2  0
 13 14  1  0
 13 11  1  0
 14 15  1  1
 15 16  1  0
 17 14  1  0
 18 17  1  0
 19 17  2  0
M  END
$$$$
