SSC.pdb
     RDKit          3D

 19 18  0  0  1  0  0  0  0  0999 V2000
   10.6683  -11.0133  -12.0829 O   0  0  0  0  0  0  0  0  0  0  0  0
   11.5956  -10.1935  -11.4044 C   0  0  0  0  0  0  0  0  0  0  0  0
   12.6392  -11.0951  -10.8087 C   0  0  2  0  0  0  0  0  0  0  0  0
   12.0758  -11.9213   -9.7721 N   0  0  0  0  0  0  0  0  0  0  0  0
   13.7376  -10.2861  -10.2280 C   0  0  0  0  0  0  0  0  0  0  0  0
   13.5983   -9.7228   -9.1085 O   0  0  0  0  0  0  0  0  0  0  0  0
   17.0368   -9.4342  -12.5438 O   0  0  0  0  0  0  0  0  0  0  0  0
   17.2686   -9.5679  -11.1763 C   0  0  0  0  0  0  0  0  0  0  0  0
   15.9877   -9.2427  -10.4055 C   0  0  2  0  0  0  0  0  0  0  0  0
   14.9665  -10.1147  -10.8933 N   0  0  0  0  0  0  0  0  0  0  0  0
   15.6458   -7.8186  -10.5009 C   0  0  0  0  0  0  0  0  0  0  0  0
   14.9107   -7.4395  -11.4488 O   0  0  0  0  0  0  0  0  0  0  0  0
   16.0890   -6.8289   -9.5922 N   0  0  0  0  0  0  0  0  0  0  0  0
   15.7841   -5.4500   -9.7503 C   0  0  1  0  0  0  0  0  0  0  0  0
   15.8199   -4.6584   -8.4706 C   0  0  0  0  0  0  0  0  0  0  0  0
   14.7694   -5.3369   -7.1896 S   0  0  0  0  0  0  0  0  0  0  0  0
   16.6977   -4.8231  -10.7431 C   0  0  0  0  0  0  0  0  0  0  0  0
   16.5146   -3.5266  -11.1942 O   0  0  0  0  0  0  0  0  0  0  0  0
   17.6699   -5.4833  -11.1928 O   0  0  0  0  0  0  0  0  0  0  0  0
  2  1  1  0
  3  4  1  1
  3  2  1  0
  5  3  1  0
  6  5  2  0
  7  8  1  0
  9  8  1  6
  9 11  1  0
  9 10  1  0
 10  5  1  0
 11 12  2  0
 13 14  1  0
 13 11  1  0
 14 15  1  1
 15 16  1  0
 17 14  1  0
 18 17  1  0
 19 17  2  0
M  END
$$$$
