SSC.pdb
     RDKit          3D

 19 18  0  0  1  0  0  0  0  0999 V2000
   22.5480  -10.1006  -22.1202 O   0  0  0  0  0  0  0  0  0  0  0  0
   21.9240   -9.6782  -20.9267 C   0  0  0  0  0  0  0  0  0  0  0  0
   22.2186  -10.7116  -19.8768 C   0  0  2  0  0  0  0  0  0  0  0  0
   21.3678  -11.8631  -20.0336 N   0  0  0  0  0  0  0  0  0  0  0  0
   22.0011  -10.1397  -18.5263 C   0  0  0  0  0  0  0  0  0  0  0  0
   20.8338   -9.9379  -18.0943 O   0  0  0  0  0  0  0  0  0  0  0  0
   23.9334   -9.0991  -14.2460 O   0  0  0  0  0  0  0  0  0  0  0  0
   24.0770   -9.6331  -15.5250 C   0  0  0  0  0  0  0  0  0  0  0  0
   22.8804   -9.2264  -16.3872 C   0  0  2  0  0  0  0  0  0  0  0  0
   23.0746   -9.8022  -17.6802 N   0  0  0  0  0  0  0  0  0  0  0  0
   22.6990   -7.7701  -16.4084 C   0  0  0  0  0  0  0  0  0  0  0  0
   23.4244   -7.0856  -17.1752 O   0  0  0  0  0  0  0  0  0  0  0  0
   21.7553   -7.0719  -15.6188 N   0  0  0  0  0  0  0  0  0  0  0  0
   21.6328   -5.6563  -15.6417 C   0  0  1  0  0  0  0  0  0  0  0  0
   20.2178   -5.1604  -15.7728 C   0  0  0  0  0  0  0  0  0  0  0  0
   20.0705   -3.3858  -15.5884 S   0  0  0  0  0  0  0  0  0  0  0  0
   22.2542   -5.0583  -14.4293 C   0  0  0  0  0  0  0  0  0  0  0  0
   22.4993   -5.8012  -13.2866 O   0  0  0  0  0  0  0  0  0  0  0  0
   22.5704   -3.8403  -14.4327 O   0  0  0  0  0  0  0  0  0  0  0  0
  2  1  1  0
  3  4  1  6
  3  2  1  0
  5  3  1  0
  6  5  2  0
  7  8  1  0
  9  8  1  1
  9 11  1  0
  9 10  1  0
 10  5  1  0
 11 12  2  0
 13 14  1  0
 13 11  1  0
 14 15  1  1
 15 16  1  0
 17 14  1  0
 18 17  1  0
 19 17  2  0
M  END
$$$$
