SSC.pdb
     RDKit          3D

 19 18  0  0  1  0  0  0  0  0999 V2000
   13.7875  -12.8538  -13.3066 O   0  0  0  0  0  0  0  0  0  0  0  0
   14.1654  -11.7471  -12.5162 C   0  0  0  0  0  0  0  0  0  0  0  0
   15.5890  -11.9662  -12.0895 C   0  0  2  0  0  0  0  0  0  0  0  0
   15.7384  -13.2347  -11.4239 N   0  0  0  0  0  0  0  0  0  0  0  0
   16.0126  -10.8897  -11.1623 C   0  0  0  0  0  0  0  0  0  0  0  0
   15.6814  -10.9219   -9.9460 O   0  0  0  0  0  0  0  0  0  0  0  0
   18.1773   -7.6487  -12.5901 O   0  0  0  0  0  0  0  0  0  0  0  0
   18.5003   -8.1589  -11.3344 C   0  0  0  0  0  0  0  0  0  0  0  0
   17.2571   -8.7868  -10.7013 C   0  0  2  0  0  0  0  0  0  0  0  0
   16.7923   -9.8001  -11.5948 N   0  0  0  0  0  0  0  0  0  0  0  0
   16.2455   -7.7743  -10.3763 C   0  0  0  0  0  0  0  0  0  0  0  0
   15.3857   -7.4830  -11.2473 O   0  0  0  0  0  0  0  0  0  0  0  0
   16.1665   -7.0937   -9.1385 N   0  0  0  0  0  0  0  0  0  0  0  0
   15.1562   -6.1364   -8.8521 C   0  0  1  0  0  0  0  0  0  0  0  0
   14.6788   -6.1498   -7.4247 C   0  0  0  0  0  0  0  0  0  0  0  0
   14.1495   -7.7680   -6.8712 S   0  0  0  0  0  0  0  0  0  0  0  0
   15.6190   -4.7668   -9.2039 C   0  0  0  0  0  0  0  0  0  0  0  0
   14.7706   -3.6728   -9.1685 O   0  0  0  0  0  0  0  0  0  0  0  0
   16.8166   -4.5869   -9.5453 O   0  0  0  0  0  0  0  0  0  0  0  0
  2  1  1  0
  3  4  1  1
  3  2  1  0
  5  3  1  0
  6  5  2  0
  7  8  1  0
  9  8  1  6
  9 11  1  0
  9 10  1  0
 10  5  1  0
 11 12  2  0
 13 14  1  0
 13 11  1  0
 14 15  1  1
 15 16  1  0
 17 14  1  0
 18 17  1  0
 19 17  2  0
M  END
$$$$
