SSC.pdb
     RDKit          3D

 19 18  0  0  1  0  0  0  0  0999 V2000
   23.3781  -13.8060  -14.9829 O   0  0  0  0  0  0  0  0  0  0  0  0
   23.0401  -12.4393  -15.0830 C   0  0  0  0  0  0  0  0  0  0  0  0
   22.5733  -12.1950  -16.4899 C   0  0  2  0  0  0  0  0  0  0  0  0
   23.6581  -12.3422  -17.4259 N   0  0  0  0  0  0  0  0  0  0  0  0
   22.0230  -10.8236  -16.6113 C   0  0  0  0  0  0  0  0  0  0  0  0
   22.7004   -9.9043  -17.1462 O   0  0  0  0  0  0  0  0  0  0  0  0
   18.1089  -10.1764  -17.1519 O   0  0  0  0  0  0  0  0  0  0  0  0
   18.6386   -9.3660  -16.1499 C   0  0  0  0  0  0  0  0  0  0  0  0
   20.1463   -9.2119  -16.3591 C   0  0  2  0  0  0  0  0  0  0  0  0
   20.7376  -10.4941  -16.1408 N   0  0  0  0  0  0  0  0  0  0  0  0
   20.7042   -8.1505  -15.5128 C   0  0  0  0  0  0  0  0  0  0  0  0
   20.9755   -8.4184  -14.3139 O   0  0  0  0  0  0  0  0  0  0  0  0
   20.9621   -6.8311  -15.9536 N   0  0  0  0  0  0  0  0  0  0  0  0
   21.5744   -5.8514  -15.1263 C   0  0  1  0  0  0  0  0  0  0  0  0
   22.7448   -5.1499  -15.7615 C   0  0  0  0  0  0  0  0  0  0  0  0
   23.4323   -3.8522  -14.7377 S   0  0  0  0  0  0  0  0  0  0  0  0
   20.5750   -4.8413  -14.6851 C   0  0  0  0  0  0  0  0  0  0  0  0
   20.6308   -4.2502  -13.4339 O   0  0  0  0  0  0  0  0  0  0  0  0
   19.6465   -4.5073  -15.4659 O   0  0  0  0  0  0  0  0  0  0  0  0
  2  1  1  0
  3  4  1  6
  3  2  1  0
  5  3  1  0
  6  5  2  0
  7  8  1  0
  9  8  1  1
  9 11  1  0
  9 10  1  0
 10  5  1  0
 11 12  2  0
 13 14  1  0
 13 11  1  0
 14 15  1  6
 15 16  1  0
 17 14  1  0
 18 17  1  0
 19 17  2  0
M  END
$$$$
