SSC.pdb
     RDKit          3D

 19 18  0  0  1  0  0  0  0  0999 V2000
   18.3426  -12.5037  -14.6961 O   0  0  0  0  0  0  0  0  0  0  0  0
   17.5413  -12.1926  -15.8157 C   0  0  0  0  0  0  0  0  0  0  0  0
   18.4456  -12.1438  -17.0143 C   0  0  2  0  0  0  0  0  0  0  0  0
   19.4823  -13.1391  -16.9190 N   0  0  0  0  0  0  0  0  0  0  0  0
   19.0778  -10.8069  -17.1193 C   0  0  0  0  0  0  0  0  0  0  0  0
   20.3258  -10.6748  -16.9967 O   0  0  0  0  0  0  0  0  0  0  0  0
   16.7209   -7.4398  -17.4467 O   0  0  0  0  0  0  0  0  0  0  0  0
   17.8844   -7.4628  -18.2129 C   0  0  0  0  0  0  0  0  0  0  0  0
   18.9239   -8.3608  -17.5393 C   0  0  2  0  0  0  0  0  0  0  0  0
   18.3214   -9.6435  -17.3572 N   0  0  0  0  0  0  0  0  0  0  0  0
   19.4319   -7.7636  -16.2986 C   0  0  0  0  0  0  0  0  0  0  0  0
   18.9183   -8.1190  -15.2066 O   0  0  0  0  0  0  0  0  0  0  0  0
   20.4708   -6.8049  -16.2415 N   0  0  0  0  0  0  0  0  0  0  0  0
   20.8917   -6.2008  -15.0261 C   0  0  1  0  0  0  0  0  0  0  0  0
   22.3188   -5.7223  -15.0355 C   0  0  0  0  0  0  0  0  0  0  0  0
   22.7918   -4.8787  -13.5290 S   0  0  0  0  0  0  0  0  0  0  0  0
   19.9951   -5.0692  -14.6669 C   0  0  0  0  0  0  0  0  0  0  0  0
   19.6556   -4.0828  -15.5779 O   0  0  0  0  0  0  0  0  0  0  0  0
   19.5255   -4.9974  -13.5017 O   0  0  0  0  0  0  0  0  0  0  0  0
  2  1  1  0
  3  4  1  1
  3  2  1  0
  5  3  1  0
  6  5  2  0
  7  8  1  0
  9  8  1  1
  9 11  1  0
  9 10  1  0
 10  5  1  0
 11 12  2  0
 13 14  1  0
 13 11  1  0
 14 15  1  6
 15 16  1  0
 17 14  1  0
 18 17  1  0
 19 17  2  0
M  END
$$$$
