SSC.pdb
     RDKit          3D

 19 18  0  0  1  0  0  0  0  0999 V2000
   15.7441  -14.0036  -13.6062 O   0  0  0  0  0  0  0  0  0  0  0  0
   16.7499  -13.1008  -14.0133 C   0  0  0  0  0  0  0  0  0  0  0  0
   16.6478  -12.9591  -15.5054 C   0  0  2  0  0  0  0  0  0  0  0  0
   17.0845  -14.1608  -16.1685 N   0  0  0  0  0  0  0  0  0  0  0  0
   17.4889  -11.8286  -15.9668 C   0  0  0  0  0  0  0  0  0  0  0  0
   18.7064  -12.0048  -16.2440 O   0  0  0  0  0  0  0  0  0  0  0  0
   15.9112   -7.9990  -16.1489 O   0  0  0  0  0  0  0  0  0  0  0  0
   16.7539   -8.4083  -17.1804 C   0  0  0  0  0  0  0  0  0  0  0  0
   17.7404   -9.4517  -16.6525 C   0  0  2  0  0  0  0  0  0  0  0  0
   16.9707  -10.5278  -16.1130 N   0  0  0  0  0  0  0  0  0  0  0  0
   18.6888   -8.8653  -15.6983 C   0  0  0  0  0  0  0  0  0  0  0  0
   18.3388   -8.7535  -14.4951 O   0  0  0  0  0  0  0  0  0  0  0  0
   19.9849   -8.4110  -16.0382 N   0  0  0  0  0  0  0  0  0  0  0  0
   20.8788   -7.8562  -15.0831 C   0  0  1  0  0  0  0  0  0  0  0  0
   22.3336   -8.0953  -15.3861 C   0  0  0  0  0  0  0  0  0  0  0  0
   22.8128   -9.8141  -15.2422 S   0  0  0  0  0  0  0  0  0  0  0  0
   20.6408   -6.3954  -14.9313 C   0  0  0  0  0  0  0  0  0  0  0  0
   19.7376   -5.7113  -15.7278 O   0  0  0  0  0  0  0  0  0  0  0  0
   21.2751   -5.7527  -14.0550 O   0  0  0  0  0  0  0  0  0  0  0  0
  2  1  1  0
  3  4  1  6
  3  2  1  0
  5  3  1  0
  6  5  2  0
  7  8  1  0
  9  8  1  1
  9 11  1  0
  9 10  1  0
 10  5  1  0
 11 12  2  0
 13 14  1  0
 13 11  1  0
 14 15  1  6
 15 16  1  0
 17 14  1  0
 18 17  1  0
 19 17  2  0
M  END
$$$$
