SSC.pdb
     RDKit          3D

 19 18  0  0  1  0  0  0  0  0999 V2000
   15.0140  -12.7149  -10.1182 O   0  0  0  0  0  0  0  0  0  0  0  0
   15.4260  -11.5318  -10.7684 C   0  0  0  0  0  0  0  0  0  0  0  0
   14.7979  -10.3779  -10.0399 C   0  0  2  0  0  0  0  0  0  0  0  0
   13.3741  -10.3454  -10.2555 N   0  0  0  0  0  0  0  0  0  0  0  0
   15.3802   -9.0998  -10.5150 C   0  0  0  0  0  0  0  0  0  0  0  0
   15.1439   -8.6799  -11.6803 O   0  0  0  0  0  0  0  0  0  0  0  0
   17.2738   -4.8765   -9.3849 O   0  0  0  0  0  0  0  0  0  0  0  0
   16.6886   -6.0820   -9.0031 C   0  0  0  0  0  0  0  0  0  0  0  0
   16.7979   -7.0900  -10.1487 C   0  0  2  0  0  0  0  0  0  0  0  0
   16.2107   -8.3114   -9.6961 N   0  0  0  0  0  0  0  0  0  0  0  0
   18.1831   -7.2347  -10.6116 C   0  0  0  0  0  0  0  0  0  0  0  0
   18.9404   -8.0322  -10.0008 O   0  0  0  0  0  0  0  0  0  0  0  0
   18.7351   -6.5331  -11.7092 N   0  0  0  0  0  0  0  0  0  0  0  0
   20.0881   -6.6859  -12.1158 C   0  0  1  0  0  0  0  0  0  0  0  0
   20.3515   -7.9202  -12.9359 C   0  0  0  0  0  0  0  0  0  0  0  0
   22.0288   -8.0138  -13.5544 S   0  0  0  0  0  0  0  0  0  0  0  0
   20.5462   -5.4872  -12.8687 C   0  0  0  0  0  0  0  0  0  0  0  0
   21.8862   -5.1542  -12.9754 O   0  0  0  0  0  0  0  0  0  0  0  0
   19.6973   -4.7467  -13.4293 O   0  0  0  0  0  0  0  0  0  0  0  0
  2  1  1  0
  3  4  1  6
  3  2  1  0
  5  3  1  0
  6  5  2  0
  7  8  1  0
  9  8  1  1
  9 11  1  0
  9 10  1  0
 10  5  1  0
 11 12  2  0
 13 14  1  0
 13 11  1  0
 14 15  1  6
 15 16  1  0
 17 14  1  0
 18 17  1  0
 19 17  2  0
M  END
$$$$
