SSC.pdb
     RDKit          3D

 19 18  0  0  1  0  0  0  0  0999 V2000
   26.8365  -24.3961  -17.6380 O   0  0  0  0  0  0  0  0  0  0  0  0
   27.1025  -23.1859  -18.3140 C   0  0  0  0  0  0  0  0  0  0  0  0
   28.2943  -22.5551  -17.6515 C   0  0  2  0  0  0  0  0  0  0  0  0
   29.2838  -23.5471  -17.3179 N   0  0  0  0  0  0  0  0  0  0  0  0
   27.8769  -21.8627  -16.4087 C   0  0  0  0  0  0  0  0  0  0  0  0
   28.5027  -22.0465  -15.3295 O   0  0  0  0  0  0  0  0  0  0  0  0
   24.8105  -18.9838  -16.4671 O   0  0  0  0  0  0  0  0  0  0  0  0
   25.9753  -18.8395  -15.7163 C   0  0  0  0  0  0  0  0  0  0  0  0
   26.4422  -20.2115  -15.2262 C   0  0  2  0  0  0  0  0  0  0  0  0
   26.7787  -20.9822  -16.3812 N   0  0  0  0  0  0  0  0  0  0  0  0
   25.4406  -20.8466  -14.3615 C   0  0  0  0  0  0  0  0  0  0  0  0
   24.6876  -21.7234  -14.8583 O   0  0  0  0  0  0  0  0  0  0  0  0
   25.2587  -20.5399  -12.9924 N   0  0  0  0  0  0  0  0  0  0  0  0
   24.2788  -21.1795  -12.1863 C   0  0  1  0  0  0  0  0  0  0  0  0
   24.5329  -21.0767  -10.7063 C   0  0  0  0  0  0  0  0  0  0  0  0
   26.1905  -21.5642  -10.2378 S   0  0  0  0  0  0  0  0  0  0  0  0
   22.9230  -20.6482  -12.4914 C   0  0  0  0  0  0  0  0  0  0  0  0
   21.7734  -21.2360  -11.9904 O   0  0  0  0  0  0  0  0  0  0  0  0
   22.8069  -19.6337  -13.2267 O   0  0  0  0  0  0  0  0  0  0  0  0
  2  1  1  0
  3  4  1  1
  3  2  1  0
  5  3  1  0
  6  5  2  0
  7  8  1  0
  9  8  1  6
  9 11  1  0
  9 10  1  0
 10  5  1  0
 11 12  2  0
 13 14  1  0
 13 11  1  0
 14 15  1  1
 15 16  1  0
 17 14  1  0
 18 17  1  0
 19 17  2  0
M  END
$$$$
