FHR.pdb
     RDKit          3D

 33 34  0  0  1  0  0  0  0  0999 V2000
    8.9061  -14.2856   24.8582 N   0  0  0  0  0  0  0  0  0  0  0  0
    7.7383  -15.1161   24.9249 C   0  0  1  0  0  0  0  0  0  0  0  0
    6.5235  -14.3225   24.5017 C   0  0  0  0  0  0  0  0  0  0  0  0
    6.4098  -13.0509   25.2397 C   0  0  0  0  0  0  0  0  0  0  0  0
    5.7843  -12.9627   26.4466 C   0  0  0  0  0  0  0  0  0  0  0  0
    5.7031  -11.7378   27.1042 C   0  0  0  0  0  0  0  0  0  0  0  0
    6.2441  -10.5915   26.5648 C   0  0  0  0  0  0  0  0  0  0  0  0
    6.8751  -10.6886   25.3438 C   0  0  0  0  0  0  0  0  0  0  0  0
    6.9617  -11.9007   24.6815 C   0  0  0  0  0  0  0  0  0  0  0  0
    7.9105  -16.2465   23.9424 C   0  0  0  0  0  0  0  0  0  0  0  0
    6.9437  -16.9949   23.6542 O   0  0  0  0  0  0  0  0  0  0  0  0
    9.1652  -16.4882   23.3237 N   0  0  0  0  0  0  0  0  0  0  0  0
    9.9472  -17.6898   23.4440 C   0  0  1  0  0  0  0  0  0  0  0  0
   10.9853  -17.8582   22.3933 C   0  0  0  0  0  0  0  0  0  0  0  0
   11.7193  -19.1359   22.4906 C   0  0  0  0  0  0  0  0  0  0  0  0
   12.9479  -19.3904   23.0506 C   0  0  0  0  0  0  0  0  0  0  0  0
   13.2353  -20.7189   22.9139 N   0  0  0  0  0  0  0  0  0  0  0  0
   12.1778  -21.2806   22.2670 C   0  0  0  0  0  0  0  0  0  0  0  0
   11.2746  -20.3095   22.0208 N   0  0  0  0  0  0  0  0  0  0  0  0
   10.3895  -18.0060   24.8235 C   0  0  0  0  0  0  0  0  0  0  0  0
   11.1029  -17.1900   25.4448 O   0  0  0  0  0  0  0  0  0  0  0  0
    4.7211  -23.0087   28.6944 N   0  0  0  0  0  0  0  0  0  0  0  0
    5.7001  -23.6569   27.9036 C   0  0  0  0  0  0  0  0  0  0  0  0
    5.5291  -24.8798   27.5387 N   0  0  0  0  0  0  0  0  0  0  0  0
    6.8881  -22.9986   27.4867 N   0  0  0  0  0  0  0  0  0  0  0  0
    7.1892  -21.6300   27.8387 C   0  0  0  0  0  0  0  0  0  0  0  0
    8.5203  -21.1968   27.2797 C   0  0  0  0  0  0  0  0  0  0  0  0
    8.8173  -19.7578   27.4873 C   0  0  0  0  0  0  0  0  0  0  0  0
   10.1570  -19.3084   26.9513 C   0  0  2  0  0  0  0  0  0  0  0  0
   10.0498  -19.1972   25.4987 N   0  0  0  0  0  0  0  0  0  0  0  0
   11.1996  -20.3082   27.2242 C   0  0  0  0  0  0  0  0  0  0  0  0
   11.7397  -21.1024   26.2360 O   0  0  0  0  0  0  0  0  0  0  0  0
   11.6190  -20.4518   28.3905 O   0  0  0  0  0  0  0  0  0  0  0  0
  2  1  1  6
  2 10  1  0
  2  3  1  0
  4  3  1  0
  4  5  2  0
  6  5  1  0
  7  6  2  0
  8  9  2  0
  8  7  1  0
  9  4  1  0
 10 11  2  0
 12 13  1  0
 12 10  1  0
 13 14  1  6
 15 14  1  0
 16 15  2  0
 17 16  1  0
 18 17  1  0
 18 19  2  0
 19 15  1  0
 20 30  1  0
 20 13  1  0
 21 20  2  0
 23 24  2  0
 23 22  1  0
 25 23  1  0
 26 25  1  0
 26 27  1  0
 27 28  1  0
 29 30  1  0
 29 28  1  6
 31 32  1  0
 31 29  1  0
 33 31  2  0
M  END
$$$$
