FHR.pdb
     RDKit          3D

 33 34  0  0  1  0  0  0  0  0999 V2000
    5.2189  -17.3105   24.2217 N   0  0  0  0  0  0  0  0  0  0  0  0
    5.8822  -16.0627   24.4683 C   0  0  1  0  0  0  0  0  0  0  0  0
    6.0214  -15.8450   25.9576 C   0  0  0  0  0  0  0  0  0  0  0  0
    6.6357  -14.5414   26.2703 C   0  0  0  0  0  0  0  0  0  0  0  0
    7.9680  -14.4053   26.5195 C   0  0  0  0  0  0  0  0  0  0  0  0
    8.5004  -13.1518   26.8104 C   0  0  0  0  0  0  0  0  0  0  0  0
    7.7101  -12.0245   26.8554 C   0  0  0  0  0  0  0  0  0  0  0  0
    6.3636  -12.1701   26.6023 C   0  0  0  0  0  0  0  0  0  0  0  0
    5.8237  -13.4109   26.3121 C   0  0  0  0  0  0  0  0  0  0  0  0
    7.2707  -16.1473   23.8873 C   0  0  0  0  0  0  0  0  0  0  0  0
    7.9878  -17.1582   24.0913 O   0  0  0  0  0  0  0  0  0  0  0  0
    7.7957  -15.0894   23.0995 N   0  0  0  0  0  0  0  0  0  0  0  0
    9.1227  -15.0274   22.5472 C   0  0  1  0  0  0  0  0  0  0  0  0
    9.3551  -13.8839   21.6263 C   0  0  0  0  0  0  0  0  0  0  0  0
    8.6747  -14.0294   20.3238 C   0  0  0  0  0  0  0  0  0  0  0  0
    7.9855  -15.1062   19.8204 C   0  0  0  0  0  0  0  0  0  0  0  0
    7.5215  -14.7970   18.5732 N   0  0  0  0  0  0  0  0  0  0  0  0
    7.9285  -13.5249   18.3117 C   0  0  0  0  0  0  0  0  0  0  0  0
    8.6222  -13.0800   19.3796 N   0  0  0  0  0  0  0  0  0  0  0  0
   10.2116  -15.2846   23.5202 C   0  0  0  0  0  0  0  0  0  0  0  0
   10.4429  -14.4510   24.4216 O   0  0  0  0  0  0  0  0  0  0  0  0
   11.5981  -21.7807   29.0624 N   0  0  0  0  0  0  0  0  0  0  0  0
   12.5562  -20.7666   29.3026 C   0  0  0  0  0  0  0  0  0  0  0  0
   13.2051  -20.7421   30.4145 N   0  0  0  0  0  0  0  0  0  0  0  0
   12.8375  -19.7545   28.3462 N   0  0  0  0  0  0  0  0  0  0  0  0
   11.9855  -19.4942   27.2087 C   0  0  0  0  0  0  0  0  0  0  0  0
   12.4851  -18.3230   26.4020 C   0  0  0  0  0  0  0  0  0  0  0  0
   11.5128  -17.8314   25.3945 C   0  0  0  0  0  0  0  0  0  0  0  0
   12.0168  -16.6937   24.5368 C   0  0  2  0  0  0  0  0  0  0  0  0
   11.0249  -16.4371   23.4956 N   0  0  0  0  0  0  0  0  0  0  0  0
   13.2653  -17.0589   23.8520 C   0  0  0  0  0  0  0  0  0  0  0  0
   14.4855  -17.0659   24.4923 O   0  0  0  0  0  0  0  0  0  0  0  0
   13.2311  -17.3764   22.6458 O   0  0  0  0  0  0  0  0  0  0  0  0
  2  1  1  1
  2 10  1  0
  2  3  1  0
  4  3  1  0
  4  5  2  0
  6  5  1  0
  7  6  2  0
  8  9  2  0
  8  7  1  0
  9  4  1  0
 10 11  2  0
 12 13  1  0
 12 10  1  0
 13 14  1  1
 15 14  1  0
 16 15  2  0
 17 16  1  0
 18 17  1  0
 18 19  2  0
 19 15  1  0
 20 30  1  0
 20 13  1  0
 21 20  2  0
 23 24  2  0
 23 22  1  0
 25 23  1  0
 26 25  1  0
 26 27  1  0
 27 28  1  0
 29 30  1  0
 29 28  1  1
 31 32  1  0
 31 29  1  0
 33 31  2  0
M  END
$$$$
