FHR.pdb
     RDKit          3D

 33 34  0  0  1  0  0  0  0  0999 V2000
    5.7679  -17.2554   25.8358 N   0  0  0  0  0  0  0  0  0  0  0  0
    6.4672  -16.1224   25.3021 C   0  0  1  0  0  0  0  0  0  0  0  0
    7.4253  -15.5804   26.3380 C   0  0  0  0  0  0  0  0  0  0  0  0
    7.2133  -14.1427   26.5879 C   0  0  0  0  0  0  0  0  0  0  0  0
    6.4549  -13.6877   27.6240 C   0  0  0  0  0  0  0  0  0  0  0  0
    6.2847  -12.3192   27.8178 C   0  0  0  0  0  0  0  0  0  0  0  0
    6.8684  -11.3935   26.9812 C   0  0  0  0  0  0  0  0  0  0  0  0
    7.6340  -11.8613   25.9355 C   0  0  0  0  0  0  0  0  0  0  0  0
    7.8099  -13.2190   25.7335 C   0  0  0  0  0  0  0  0  0  0  0  0
    7.2841  -16.5884   24.1239 C   0  0  0  0  0  0  0  0  0  0  0  0
    7.9506  -17.6511   24.1892 O   0  0  0  0  0  0  0  0  0  0  0  0
    7.3172  -15.8384   22.9189 N   0  0  0  0  0  0  0  0  0  0  0  0
    8.1949  -16.0729   21.8034 C   0  0  1  0  0  0  0  0  0  0  0  0
    7.8071  -15.3670   20.5540 C   0  0  0  0  0  0  0  0  0  0  0  0
    8.6435  -15.7262   19.3911 C   0  0  0  0  0  0  0  0  0  0  0  0
    9.7054  -16.5954   19.3215 C   0  0  0  0  0  0  0  0  0  0  0  0
   10.1816  -16.6181   18.0412 N   0  0  0  0  0  0  0  0  0  0  0  0
    9.4078  -15.7588   17.3236 C   0  0  0  0  0  0  0  0  0  0  0  0
    8.4864  -15.2315   18.1557 N   0  0  0  0  0  0  0  0  0  0  0  0
    9.6403  -16.0259   22.1314 C   0  0  0  0  0  0  0  0  0  0  0  0
   10.2071  -14.9203   22.2633 O   0  0  0  0  0  0  0  0  0  0  0  0
   10.1029  -17.8084   28.7689 N   0  0  0  0  0  0  0  0  0  0  0  0
   11.1469  -16.8827   28.5296 C   0  0  0  0  0  0  0  0  0  0  0  0
   11.3968  -15.9556   29.3876 N   0  0  0  0  0  0  0  0  0  0  0  0
   11.9475  -16.9370   27.3573 N   0  0  0  0  0  0  0  0  0  0  0  0
   11.5734  -17.7002   26.1888 C   0  0  0  0  0  0  0  0  0  0  0  0
   12.5569  -17.5036   25.0636 C   0  0  0  0  0  0  0  0  0  0  0  0
   12.1151  -18.0881   23.7731 C   0  0  0  0  0  0  0  0  0  0  0  0
   11.8471  -17.0761   22.6832 C   0  0  2  0  0  0  0  0  0  0  0  0
   10.4386  -17.1754   22.3089 N   0  0  0  0  0  0  0  0  0  0  0  0
   12.6289  -17.3780   21.4755 C   0  0  0  0  0  0  0  0  0  0  0  0
   13.7106  -16.6186   21.0854 O   0  0  0  0  0  0  0  0  0  0  0  0
   12.3106  -18.3563   20.7695 O   0  0  0  0  0  0  0  0  0  0  0  0
  2  1  1  1
  2 10  1  0
  2  3  1  0
  4  3  1  0
  4  5  2  0
  6  5  1  0
  7  6  2  0
  8  9  2  0
  8  7  1  0
  9  4  1  0
 10 11  2  0
 12 13  1  0
 12 10  1  0
 13 14  1  6
 15 14  1  0
 16 15  2  0
 17 16  1  0
 18 17  1  0
 18 19  2  0
 19 15  1  0
 20 30  1  0
 20 13  1  0
 21 20  2  0
 23 24  2  0
 23 22  1  0
 25 23  1  0
 26 25  1  0
 26 27  1  0
 27 28  1  0
 29 30  1  0
 29 28  1  1
 31 32  1  0
 31 29  1  0
 33 31  2  0
M  END
$$$$
