FHR.pdb
     RDKit          3D

 33 34  0  0  1  0  0  0  0  0999 V2000
    8.0077  -17.1051   21.0348 N   0  0  0  0  0  0  0  0  0  0  0  0
    9.3406  -16.5850   21.1381 C   0  0  1  0  0  0  0  0  0  0  0  0
    9.3495  -15.3839   22.0557 C   0  0  0  0  0  0  0  0  0  0  0  0
    8.6874  -14.2168   21.4442 C   0  0  0  0  0  0  0  0  0  0  0  0
    8.8741  -13.8745   20.1389 C   0  0  0  0  0  0  0  0  0  0  0  0
    8.2258  -12.7622   19.6081 C   0  0  0  0  0  0  0  0  0  0  0  0
    7.3867  -11.9823   20.3730 C   0  0  0  0  0  0  0  0  0  0  0  0
    7.2028  -12.3347   21.6923 C   0  0  0  0  0  0  0  0  0  0  0  0
    7.8420  -13.4380   22.2303 C   0  0  0  0  0  0  0  0  0  0  0  0
   10.2099  -17.6452   21.7650 C   0  0  0  0  0  0  0  0  0  0  0  0
    9.7081  -18.5261   22.5066 O   0  0  0  0  0  0  0  0  0  0  0  0
   11.6099  -17.6705   21.5310 N   0  0  0  0  0  0  0  0  0  0  0  0
   12.5461  -18.5931   22.1159 C   0  0  1  0  0  0  0  0  0  0  0  0
   13.7580  -18.8472   21.2933 C   0  0  0  0  0  0  0  0  0  0  0  0
   13.4750  -19.5657   20.0346 C   0  0  0  0  0  0  0  0  0  0  0  0
   12.6051  -20.6042   19.8050 C   0  0  0  0  0  0  0  0  0  0  0  0
   12.6685  -20.9578   18.4869 N   0  0  0  0  0  0  0  0  0  0  0  0
   13.5815  -20.1319   17.9067 C   0  0  0  0  0  0  0  0  0  0  0  0
   14.0560  -19.3001   18.8566 N   0  0  0  0  0  0  0  0  0  0  0  0
   12.7981  -18.3870   23.5625 C   0  0  0  0  0  0  0  0  0  0  0  0
   13.1484  -17.2603   23.9732 O   0  0  0  0  0  0  0  0  0  0  0  0
   13.6350  -21.1864   32.4021 N   0  0  0  0  0  0  0  0  0  0  0  0
   13.3105  -21.5480   31.0724 C   0  0  0  0  0  0  0  0  0  0  0  0
   14.0927  -22.3233   30.4052 N   0  0  0  0  0  0  0  0  0  0  0  0
   12.1318  -21.0812   30.4313 N   0  0  0  0  0  0  0  0  0  0  0  0
   11.8931  -21.2463   29.0159 C   0  0  0  0  0  0  0  0  0  0  0  0
   12.4468  -20.0892   28.2244 C   0  0  0  0  0  0  0  0  0  0  0  0
   12.2938  -20.2400   26.7562 C   0  0  0  0  0  0  0  0  0  0  0  0
   12.9669  -19.1611   25.9395 C   0  0  2  0  0  0  0  0  0  0  0  0
   12.6653  -19.4042   24.5310 N   0  0  0  0  0  0  0  0  0  0  0  0
   14.4290  -19.2264   26.0773 C   0  0  0  0  0  0  0  0  0  0  0  0
   15.1034  -18.6067   27.1069 O   0  0  0  0  0  0  0  0  0  0  0  0
   15.0947  -19.8640   25.2365 O   0  0  0  0  0  0  0  0  0  0  0  0
  2  1  1  1
  2 10  1  0
  2  3  1  0
  4  3  1  0
  4  5  2  0
  6  5  1  0
  7  6  2  0
  8  9  2  0
  8  7  1  0
  9  4  1  0
 10 11  2  0
 12 13  1  0
 12 10  1  0
 13 14  1  6
 15 14  1  0
 16 15  2  0
 17 16  1  0
 18 17  1  0
 18 19  2  0
 19 15  1  0
 20 30  1  0
 20 13  1  0
 21 20  2  0
 23 24  2  0
 23 22  1  0
 25 23  1  0
 26 25  1  0
 26 27  1  0
 27 28  1  0
 29 30  1  0
 29 28  1  1
 31 32  1  0
 31 29  1  0
 33 31  2  0
M  END
$$$$
