FHR.pdb
     RDKit          3D

 33 34  0  0  1  0  0  0  0  0999 V2000
    6.9568  -15.9887   25.8209 N   0  0  0  0  0  0  0  0  0  0  0  0
    7.4050  -15.3726   24.6054 C   0  0  1  0  0  0  0  0  0  0  0  0
    8.1490  -14.0962   24.9252 C   0  0  0  0  0  0  0  0  0  0  0  0
    7.2669  -13.0783   25.5254 C   0  0  0  0  0  0  0  0  0  0  0  0
    6.1688  -12.5946   24.8805 C   0  0  0  0  0  0  0  0  0  0  0  0
    5.3670  -11.6329   25.4902 C   0  0  0  0  0  0  0  0  0  0  0  0
    5.6526  -11.1458   26.7466 C   0  0  0  0  0  0  0  0  0  0  0  0
    6.7649  -11.6398   27.3926 C   0  0  0  0  0  0  0  0  0  0  0  0
    7.5688  -12.5955   26.7962 C   0  0  0  0  0  0  0  0  0  0  0  0
    8.3754  -16.3111   23.9345 C   0  0  0  0  0  0  0  0  0  0  0  0
    8.6555  -17.4194   24.4552 O   0  0  0  0  0  0  0  0  0  0  0  0
    8.9913  -15.9634   22.7036 N   0  0  0  0  0  0  0  0  0  0  0  0
    9.8852  -16.7956   21.9432 C   0  0  1  0  0  0  0  0  0  0  0  0
    9.4389  -17.0708   20.5522 C   0  0  0  0  0  0  0  0  0  0  0  0
   10.2726  -18.0694   19.8532 C   0  0  0  0  0  0  0  0  0  0  0  0
   10.6180  -19.3397   20.2469 C   0  0  0  0  0  0  0  0  0  0  0  0
   11.4062  -19.9070   19.2859 N   0  0  0  0  0  0  0  0  0  0  0  0
   11.5440  -18.9796   18.2993 C   0  0  0  0  0  0  0  0  0  0  0  0
   10.8530  -17.8790   18.6605 N   0  0  0  0  0  0  0  0  0  0  0  0
   11.3216  -16.4576   22.0890 C   0  0  0  0  0  0  0  0  0  0  0  0
   12.0929  -16.6109   21.1183 O   0  0  0  0  0  0  0  0  0  0  0  0
   12.2789  -20.7965   30.1694 N   0  0  0  0  0  0  0  0  0  0  0  0
   11.7160  -19.8136   29.3203 C   0  0  0  0  0  0  0  0  0  0  0  0
   10.8551  -18.9760   29.7844 N   0  0  0  0  0  0  0  0  0  0  0  0
   12.0706  -19.7109   27.9484 N   0  0  0  0  0  0  0  0  0  0  0  0
   11.5890  -18.6509   27.0928 C   0  0  0  0  0  0  0  0  0  0  0  0
   11.9862  -18.8779   25.6566 C   0  0  0  0  0  0  0  0  0  0  0  0
   11.4770  -17.8424   24.7235 C   0  0  0  0  0  0  0  0  0  0  0  0
   12.5175  -16.8514   24.2552 C   0  0  2  0  0  0  0  0  0  0  0  0
   11.8900  -15.9617   23.2812 N   0  0  0  0  0  0  0  0  0  0  0  0
   13.6210  -17.5298   23.5604 C   0  0  0  0  0  0  0  0  0  0  0  0
   13.4535  -18.1641   22.3485 O   0  0  0  0  0  0  0  0  0  0  0  0
   14.7564  -17.5381   24.0777 O   0  0  0  0  0  0  0  0  0  0  0  0
  2  1  1  1
  2 10  1  0
  2  3  1  0
  4  3  1  0
  4  5  2  0
  6  5  1  0
  7  6  2  0
  8  9  2  0
  8  7  1  0
  9  4  1  0
 10 11  2  0
 12 13  1  0
 12 10  1  0
 13 14  1  6
 15 14  1  0
 16 15  2  0
 17 16  1  0
 18 17  1  0
 18 19  2  0
 19 15  1  0
 20 30  1  0
 20 13  1  0
 21 20  2  0
 23 24  2  0
 23 22  1  0
 25 23  1  0
 26 25  1  0
 26 27  1  0
 27 28  1  0
 29 30  1  0
 29 28  1  6
 31 32  1  0
 31 29  1  0
 33 31  2  0
M  END
$$$$
