FHR.pdb
     RDKit          3D

 33 34  0  0  1  0  0  0  0  0999 V2000
    6.5373  -16.6998   25.7832 N   0  0  0  0  0  0  0  0  0  0  0  0
    7.4424  -15.9977   24.9197 C   0  0  1  0  0  0  0  0  0  0  0  0
    8.3544  -15.1181   25.7439 C   0  0  0  0  0  0  0  0  0  0  0  0
    7.6456  -13.9464   26.2908 C   0  0  0  0  0  0  0  0  0  0  0  0
    7.4662  -13.7629   27.6287 C   0  0  0  0  0  0  0  0  0  0  0  0
    6.7892  -12.6391   28.0958 C   0  0  0  0  0  0  0  0  0  0  0  0
    6.2859  -11.6896   27.2341 C   0  0  0  0  0  0  0  0  0  0  0  0
    6.4712  -11.8820   25.8824 C   0  0  0  0  0  0  0  0  0  0  0  0
    7.1424  -12.9951   25.4071 C   0  0  0  0  0  0  0  0  0  0  0  0
    8.3031  -17.0156   24.2158 C   0  0  0  0  0  0  0  0  0  0  0  0
    8.5845  -18.1069   24.7705 O   0  0  0  0  0  0  0  0  0  0  0  0
    8.8123  -16.7633   22.9148 N   0  0  0  0  0  0  0  0  0  0  0  0
   10.1149  -17.1371   22.4318 C   0  0  1  0  0  0  0  0  0  0  0  0
   10.4195  -16.6703   21.0537 C   0  0  0  0  0  0  0  0  0  0  0  0
   11.6509  -17.2601   20.4912 C   0  0  0  0  0  0  0  0  0  0  0  0
   12.5790  -18.0725   21.0967 C   0  0  0  0  0  0  0  0  0  0  0  0
   13.5593  -18.3802   20.1964 N   0  0  0  0  0  0  0  0  0  0  0  0
   13.2300  -17.7533   19.0341 C   0  0  0  0  0  0  0  0  0  0  0  0
   12.0762  -17.0835   19.2327 N   0  0  0  0  0  0  0  0  0  0  0  0
   11.2130  -16.9641   23.4131 C   0  0  0  0  0  0  0  0  0  0  0  0
   11.3837  -15.8529   23.9581 O   0  0  0  0  0  0  0  0  0  0  0  0
   10.9045  -21.2412   29.9801 N   0  0  0  0  0  0  0  0  0  0  0  0
   12.1379  -20.5725   30.1685 C   0  0  0  0  0  0  0  0  0  0  0  0
   12.6972  -20.5646   31.3283 N   0  0  0  0  0  0  0  0  0  0  0  0
   12.7979  -19.8967   29.1075 N   0  0  0  0  0  0  0  0  0  0  0  0
   12.2095  -19.7327   27.7980 C   0  0  0  0  0  0  0  0  0  0  0  0
   13.1911  -19.1343   26.8232 C   0  0  0  0  0  0  0  0  0  0  0  0
   12.6777  -17.9347   26.1166 C   0  0  0  0  0  0  0  0  0  0  0  0
   13.2033  -17.7600   24.7104 C   0  0  2  0  0  0  0  0  0  0  0  0
   12.1008  -17.9966   23.7818 N   0  0  0  0  0  0  0  0  0  0  0  0
   14.2378  -18.7582   24.4033 C   0  0  0  0  0  0  0  0  0  0  0  0
   15.4779  -18.7473   25.0042 O   0  0  0  0  0  0  0  0  0  0  0  0
   13.9953  -19.6537   23.5691 O   0  0  0  0  0  0  0  0  0  0  0  0
  2  1  1  1
  2 10  1  0
  2  3  1  0
  4  3  1  0
  4  5  2  0
  6  5  1  0
  7  6  2  0
  8  9  2  0
  8  7  1  0
  9  4  1  0
 10 11  2  0
 12 13  1  0
 12 10  1  0
 13 14  1  6
 15 14  1  0
 16 15  2  0
 17 16  1  0
 18 17  1  0
 18 19  2  0
 19 15  1  0
 20 30  1  0
 20 13  1  0
 21 20  2  0
 23 24  2  0
 23 22  1  0
 25 23  1  0
 26 25  1  0
 26 27  1  0
 27 28  1  0
 29 30  1  0
 29 28  1  1
 31 32  1  0
 31 29  1  0
 33 31  2  0
M  END
$$$$
