FHR.pdb
     RDKit          3D

 33 34  0  0  1  0  0  0  0  0999 V2000
    7.5089  -14.4568   21.5485 N   0  0  0  0  0  0  0  0  0  0  0  0
    8.2222  -14.6624   22.7760 C   0  0  1  0  0  0  0  0  0  0  0  0
    7.2421  -14.7979   23.9186 C   0  0  0  0  0  0  0  0  0  0  0  0
    7.0120  -13.5129   24.6044 C   0  0  0  0  0  0  0  0  0  0  0  0
    7.1279  -12.3154   23.9653 C   0  0  0  0  0  0  0  0  0  0  0  0
    6.9004  -11.1286   24.6575 C   0  0  0  0  0  0  0  0  0  0  0  0
    6.5557  -11.1253   25.9911 C   0  0  0  0  0  0  0  0  0  0  0  0
    6.4404  -12.3403   26.6306 C   0  0  0  0  0  0  0  0  0  0  0  0
    6.6642  -13.5259   25.9527 C   0  0  0  0  0  0  0  0  0  0  0  0
    8.9786  -15.9619   22.6664 C   0  0  0  0  0  0  0  0  0  0  0  0
    9.4282  -16.5277   23.6938 O   0  0  0  0  0  0  0  0  0  0  0  0
    9.1978  -16.5720   21.4034 N   0  0  0  0  0  0  0  0  0  0  0  0
   10.0801  -17.6782   21.1430 C   0  0  1  0  0  0  0  0  0  0  0  0
   10.2216  -18.0295   19.7055 C   0  0  0  0  0  0  0  0  0  0  0  0
   11.0505  -19.2291   19.4717 C   0  0  0  0  0  0  0  0  0  0  0  0
   12.1450  -19.6774   20.1710 C   0  0  0  0  0  0  0  0  0  0  0  0
   12.5983  -20.8327   19.5998 N   0  0  0  0  0  0  0  0  0  0  0  0
   11.7776  -21.0930   18.5458 C   0  0  0  0  0  0  0  0  0  0  0  0
   10.8511  -20.1145   18.4857 N   0  0  0  0  0  0  0  0  0  0  0  0
   11.3464  -17.6560   21.9142 C   0  0  0  0  0  0  0  0  0  0  0  0
   12.1109  -16.6727   21.8163 O   0  0  0  0  0  0  0  0  0  0  0  0
   10.4956  -16.7138   30.1055 N   0  0  0  0  0  0  0  0  0  0  0  0
   10.6055  -15.7678   29.0582 C   0  0  0  0  0  0  0  0  0  0  0  0
   10.0194  -14.6255   29.1561 N   0  0  0  0  0  0  0  0  0  0  0  0
   11.3527  -16.0328   27.8793 N   0  0  0  0  0  0  0  0  0  0  0  0
   11.2813  -17.2919   27.1741 C   0  0  0  0  0  0  0  0  0  0  0  0
   12.0393  -17.2386   25.8723 C   0  0  0  0  0  0  0  0  0  0  0  0
   12.0825  -18.5346   25.1509 C   0  0  0  0  0  0  0  0  0  0  0  0
   12.7676  -18.4827   23.8048 C   0  0  2  0  0  0  0  0  0  0  0  0
   11.7562  -18.6976   22.7729 N   0  0  0  0  0  0  0  0  0  0  0  0
   13.7501  -19.5676   23.6678 C   0  0  0  0  0  0  0  0  0  0  0  0
   15.0746  -19.4144   24.0159 O   0  0  0  0  0  0  0  0  0  0  0  0
   13.3824  -20.6729   23.2208 O   0  0  0  0  0  0  0  0  0  0  0  0
  2  1  1  6
  2 10  1  0
  2  3  1  0
  4  3  1  0
  4  5  2  0
  6  5  1  0
  7  6  2  0
  8  9  2  0
  8  7  1  0
  9  4  1  0
 10 11  2  0
 12 13  1  0
 12 10  1  0
 13 14  1  6
 15 14  1  0
 16 15  2  0
 17 16  1  0
 18 17  1  0
 18 19  2  0
 19 15  1  0
 20 30  1  0
 20 13  1  0
 21 20  2  0
 23 24  2  0
 23 22  1  0
 25 23  1  0
 26 25  1  0
 26 27  1  0
 27 28  1  0
 29 30  1  0
 29 28  1  1
 31 32  1  0
 31 29  1  0
 33 31  2  0
M  END
$$$$
