FHR.pdb
     RDKit          3D

 33 34  0  0  1  0  0  0  0  0999 V2000
    7.3548  -15.2877   25.8748 N   0  0  0  0  0  0  0  0  0  0  0  0
    6.4966  -15.5493   24.7555 C   0  0  1  0  0  0  0  0  0  0  0  0
    5.5407  -14.3939   24.5651 C   0  0  0  0  0  0  0  0  0  0  0  0
    5.9923  -13.1812   25.2721 C   0  0  0  0  0  0  0  0  0  0  0  0
    6.7701  -12.2364   24.6736 C   0  0  0  0  0  0  0  0  0  0  0  0
    7.1709  -11.1079   25.3845 C   0  0  0  0  0  0  0  0  0  0  0  0
    6.8001  -10.9118   26.6966 C   0  0  0  0  0  0  0  0  0  0  0  0
    6.0134  -11.8717   27.2950 C   0  0  0  0  0  0  0  0  0  0  0  0
    5.6093  -12.9970   26.5982 C   0  0  0  0  0  0  0  0  0  0  0  0
    7.3541  -15.6414   23.5190 C   0  0  0  0  0  0  0  0  0  0  0  0
    6.8925  -16.1270   22.4565 O   0  0  0  0  0  0  0  0  0  0  0  0
    8.6974  -15.1823   23.5291 N   0  0  0  0  0  0  0  0  0  0  0  0
    9.6977  -15.4798   22.5389 C   0  0  1  0  0  0  0  0  0  0  0  0
    9.9899  -14.3632   21.6020 C   0  0  0  0  0  0  0  0  0  0  0  0
    8.9794  -14.2094   20.5361 C   0  0  0  0  0  0  0  0  0  0  0  0
    8.2848  -13.0870   20.1544 C   0  0  0  0  0  0  0  0  0  0  0  0
    7.4509  -13.4071   19.1207 N   0  0  0  0  0  0  0  0  0  0  0  0
    7.6358  -14.7317   18.8683 C   0  0  0  0  0  0  0  0  0  0  0  0
    8.5613  -15.1967   19.7324 N   0  0  0  0  0  0  0  0  0  0  0  0
   10.8883  -16.1964   23.0562 C   0  0  0  0  0  0  0  0  0  0  0  0
   11.7206  -15.5832   23.7577 O   0  0  0  0  0  0  0  0  0  0  0  0
    8.5173  -22.8318   27.3297 N   0  0  0  0  0  0  0  0  0  0  0  0
    8.6320  -21.4225   27.3979 C   0  0  0  0  0  0  0  0  0  0  0  0
    7.7969  -20.7402   28.1016 N   0  0  0  0  0  0  0  0  0  0  0  0
    9.6531  -20.7157   26.7079 N   0  0  0  0  0  0  0  0  0  0  0  0
   10.6139  -21.3692   25.8492 C   0  0  0  0  0  0  0  0  0  0  0  0
   11.5823  -20.3804   25.2521 C   0  0  0  0  0  0  0  0  0  0  0  0
   10.9435  -19.3787   24.3630 C   0  0  0  0  0  0  0  0  0  0  0  0
   11.8994  -18.3813   23.7502 C   0  0  2  0  0  0  0  0  0  0  0  0
   11.1508  -17.5591   22.8028 N   0  0  0  0  0  0  0  0  0  0  0  0
   12.9532  -19.0599   22.9822 C   0  0  0  0  0  0  0  0  0  0  0  0
   14.0165  -19.6950   23.5863 O   0  0  0  0  0  0  0  0  0  0  0  0
   12.8931  -19.0677   21.7359 O   0  0  0  0  0  0  0  0  0  0  0  0
  2  1  1  1
  2 10  1  0
  2  3  1  0
  4  3  1  0
  4  5  2  0
  6  5  1  0
  7  6  2  0
  8  9  2  0
  8  7  1  0
  9  4  1  0
 10 11  2  0
 12 13  1  0
 12 10  1  0
 13 14  1  1
 15 14  1  0
 16 15  2  0
 17 16  1  0
 18 17  1  0
 18 19  2  0
 19 15  1  0
 20 30  1  0
 20 13  1  0
 21 20  2  0
 23 24  2  0
 23 22  1  0
 25 23  1  0
 26 25  1  0
 26 27  1  0
 27 28  1  0
 29 30  1  0
 29 28  1  6
 31 32  1  0
 31 29  1  0
 33 31  2  0
M  END
$$$$
