FHR.pdb
     RDKit          3D

 33 34  0  0  1  0  0  0  0  0999 V2000
    8.2074  -17.3492   19.2030 N   0  0  0  0  0  0  0  0  0  0  0  0
    8.9936  -16.5963   20.1373 C   0  0  1  0  0  0  0  0  0  0  0  0
    8.0930  -15.9892   21.1886 C   0  0  0  0  0  0  0  0  0  0  0  0
    7.7848  -14.5758   20.9025 C   0  0  0  0  0  0  0  0  0  0  0  0
    8.2710  -13.5560   21.6636 C   0  0  0  0  0  0  0  0  0  0  0  0
    7.9506  -12.2369   21.3523 C   0  0  0  0  0  0  0  0  0  0  0  0
    7.1437  -11.9236   20.2808 C   0  0  0  0  0  0  0  0  0  0  0  0
    6.6558  -12.9604   19.5157 C   0  0  0  0  0  0  0  0  0  0  0  0
    6.9677  -14.2749   19.8159 C   0  0  0  0  0  0  0  0  0  0  0  0
    9.9320  -17.5483   20.8342 C   0  0  0  0  0  0  0  0  0  0  0  0
    9.6176  -18.0629   21.9361 O   0  0  0  0  0  0  0  0  0  0  0  0
   11.1872  -17.8828   20.2615 N   0  0  0  0  0  0  0  0  0  0  0  0
   12.2796  -18.5267   20.9411 C   0  0  1  0  0  0  0  0  0  0  0  0
   13.4871  -18.7431   20.1015 C   0  0  0  0  0  0  0  0  0  0  0  0
   13.2134  -19.4925   18.8588 C   0  0  0  0  0  0  0  0  0  0  0  0
   12.7118  -20.7623   18.7039 C   0  0  0  0  0  0  0  0  0  0  0  0
   12.6239  -21.0490   17.3711 N   0  0  0  0  0  0  0  0  0  0  0  0
   13.0737  -19.9496   16.7068 C   0  0  0  0  0  0  0  0  0  0  0  0
   13.4243  -19.0226   17.6218 N   0  0  0  0  0  0  0  0  0  0  0  0
   12.5454  -18.0178   22.3083 C   0  0  0  0  0  0  0  0  0  0  0  0
   12.9939  -16.8617   22.4596 O   0  0  0  0  0  0  0  0  0  0  0  0
    8.8047  -14.0974   28.1109 N   0  0  0  0  0  0  0  0  0  0  0  0
    9.9735  -14.4768   28.8137 C   0  0  0  0  0  0  0  0  0  0  0  0
   10.1980  -14.0100   29.9925 N   0  0  0  0  0  0  0  0  0  0  0  0
   10.9281  -15.3714   28.2599 N   0  0  0  0  0  0  0  0  0  0  0  0
   10.9425  -15.7329   26.8611 C   0  0  0  0  0  0  0  0  0  0  0  0
   11.1037  -17.2203   26.6774 C   0  0  0  0  0  0  0  0  0  0  0  0
   11.1520  -17.6466   25.2569 C   0  0  0  0  0  0  0  0  0  0  0  0
   12.4900  -18.1869   24.8075 C   0  0  2  0  0  0  0  0  0  0  0  0
   12.3199  -18.7712   23.4795 N   0  0  0  0  0  0  0  0  0  0  0  0
   12.9488  -19.2685   25.6909 C   0  0  0  0  0  0  0  0  0  0  0  0
   13.2486  -20.5294   25.2226 O   0  0  0  0  0  0  0  0  0  0  0  0
   13.0754  -19.0483   26.9125 O   0  0  0  0  0  0  0  0  0  0  0  0
  2  1  1  6
  2 10  1  0
  2  3  1  0
  4  3  1  0
  4  5  2  0
  6  5  1  0
  7  6  2  0
  8  9  2  0
  8  7  1  0
  9  4  1  0
 10 11  2  0
 12 13  1  0
 12 10  1  0
 13 14  1  6
 15 14  1  0
 16 15  2  0
 17 16  1  0
 18 17  1  0
 18 19  2  0
 19 15  1  0
 20 30  1  0
 20 13  1  0
 21 20  2  0
 23 24  2  0
 23 22  1  0
 25 23  1  0
 26 25  1  0
 26 27  1  0
 27 28  1  0
 29 30  1  0
 29 28  1  1
 31 32  1  0
 31 29  1  0
 33 31  2  0
M  END
$$$$
