FHR.pdb
     RDKit          3D

 33 34  0  0  1  0  0  0  0  0999 V2000
    8.3697  -13.2280   24.0466 N   0  0  0  0  0  0  0  0  0  0  0  0
    8.1415  -14.5322   24.5987 C   0  0  1  0  0  0  0  0  0  0  0  0
    6.8287  -14.5462   25.3477 C   0  0  0  0  0  0  0  0  0  0  0  0
    6.6395  -13.3259   26.1537 C   0  0  0  0  0  0  0  0  0  0  0  0
    5.7615  -12.3470   25.7980 C   0  0  0  0  0  0  0  0  0  0  0  0
    5.6192  -11.2126   26.5932 C   0  0  0  0  0  0  0  0  0  0  0  0
    6.3502  -11.0446   27.7486 C   0  0  0  0  0  0  0  0  0  0  0  0
    7.2361  -12.0390   28.1019 C   0  0  0  0  0  0  0  0  0  0  0  0
    7.3857  -13.1704   27.3191 C   0  0  0  0  0  0  0  0  0  0  0  0
    8.0269  -15.5106   23.4576 C   0  0  0  0  0  0  0  0  0  0  0  0
    7.5521  -16.6582   23.6456 O   0  0  0  0  0  0  0  0  0  0  0  0
    8.4517  -15.1566   22.1500 N   0  0  0  0  0  0  0  0  0  0  0  0
    8.7137  -16.0722   21.0717 C   0  0  1  0  0  0  0  0  0  0  0  0
    8.3336  -15.5663   19.7265 C   0  0  0  0  0  0  0  0  0  0  0  0
    8.4292  -16.5881   18.6647 C   0  0  0  0  0  0  0  0  0  0  0  0
    7.6930  -17.7360   18.4964 C   0  0  0  0  0  0  0  0  0  0  0  0
    8.1244  -18.3835   17.3734 N   0  0  0  0  0  0  0  0  0  0  0  0
    9.1295  -17.6286   16.8517 C   0  0  0  0  0  0  0  0  0  0  0  0
    9.2977  -16.5506   17.6449 N   0  0  0  0  0  0  0  0  0  0  0  0
   10.0300  -16.7512   21.1409 C   0  0  0  0  0  0  0  0  0  0  0  0
   11.0539  -16.1534   20.7469 O   0  0  0  0  0  0  0  0  0  0  0  0
   11.2971  -23.1147   24.5674 N   0  0  0  0  0  0  0  0  0  0  0  0
   10.9573  -22.4032   25.7430 C   0  0  0  0  0  0  0  0  0  0  0  0
   11.2666  -22.8801   26.8984 N   0  0  0  0  0  0  0  0  0  0  0  0
   10.2755  -21.1576   25.6989 N   0  0  0  0  0  0  0  0  0  0  0  0
    9.9754  -20.4731   24.4623 C   0  0  0  0  0  0  0  0  0  0  0  0
   11.1825  -19.7457   23.9276 C   0  0  0  0  0  0  0  0  0  0  0  0
   11.4183  -19.9611   22.4784 C   0  0  0  0  0  0  0  0  0  0  0  0
   11.5248  -18.6930   21.6632 C   0  0  2  0  0  0  0  0  0  0  0  0
   10.2083  -18.0606   21.6347 N   0  0  0  0  0  0  0  0  0  0  0  0
   11.8837  -18.9880   20.2685 C   0  0  0  0  0  0  0  0  0  0  0  0
   10.9372  -19.2182   19.2938 O   0  0  0  0  0  0  0  0  0  0  0  0
   13.0874  -19.0340   19.9433 O   0  0  0  0  0  0  0  0  0  0  0  0
  2  1  1  6
  2 10  1  0
  2  3  1  0
  4  3  1  0
  4  5  2  0
  6  5  1  0
  7  6  2  0
  8  9  2  0
  8  7  1  0
  9  4  1  0
 10 11  2  0
 12 13  1  0
 12 10  1  0
 13 14  1  6
 15 14  1  0
 16 15  2  0
 17 16  1  0
 18 17  1  0
 18 19  2  0
 19 15  1  0
 20 30  1  0
 20 13  1  0
 21 20  2  0
 23 24  2  0
 23 22  1  0
 25 23  1  0
 26 25  1  0
 26 27  1  0
 27 28  1  0
 29 30  1  0
 29 28  1  1
 31 32  1  0
 31 29  1  0
 33 31  2  0
M  END
$$$$
