FHR.pdb
     RDKit          3D

 33 34  0  0  1  0  0  0  0  0999 V2000
   11.4421  -13.2474   18.7227 N   0  0  0  0  0  0  0  0  0  0  0  0
   11.2313  -14.2938   19.6811 C   0  0  1  0  0  0  0  0  0  0  0  0
    9.8289  -14.8396   19.5397 C   0  0  0  0  0  0  0  0  0  0  0  0
    8.8064  -13.8129   19.8131 C   0  0  0  0  0  0  0  0  0  0  0  0
    8.5928  -13.3122   21.0619 C   0  0  0  0  0  0  0  0  0  0  0  0
    7.6142  -12.3432   21.2687 C   0  0  0  0  0  0  0  0  0  0  0  0
    6.8410  -11.8655   20.2336 C   0  0  0  0  0  0  0  0  0  0  0  0
    7.0629  -12.3766   18.9735 C   0  0  0  0  0  0  0  0  0  0  0  0
    8.0326  -13.3399   18.7564 C   0  0  0  0  0  0  0  0  0  0  0  0
   12.1911  -15.4140   19.3703 C   0  0  0  0  0  0  0  0  0  0  0  0
   12.0501  -16.5422   19.9043 O   0  0  0  0  0  0  0  0  0  0  0  0
   13.2712  -15.2183   18.4700 N   0  0  0  0  0  0  0  0  0  0  0  0
   14.2889  -16.1840   18.1513 C   0  0  1  0  0  0  0  0  0  0  0  0
   15.0320  -15.9052   16.8944 C   0  0  0  0  0  0  0  0  0  0  0  0
   14.2058  -16.0457   15.6785 C   0  0  0  0  0  0  0  0  0  0  0  0
   13.0886  -16.8189   15.4732 C   0  0  0  0  0  0  0  0  0  0  0  0
   12.6482  -16.6375   14.1927 N   0  0  0  0  0  0  0  0  0  0  0  0
   13.4997  -15.7491   13.6113 C   0  0  0  0  0  0  0  0  0  0  0  0
   14.4315  -15.4045   14.5237 N   0  0  0  0  0  0  0  0  0  0  0  0
   15.1279  -16.6025   19.3001 C   0  0  0  0  0  0  0  0  0  0  0  0
   15.6361  -15.7345   20.0412 O   0  0  0  0  0  0  0  0  0  0  0  0
   14.7913  -24.0411   24.0641 N   0  0  0  0  0  0  0  0  0  0  0  0
   16.0901  -23.4971   24.2093 C   0  0  0  0  0  0  0  0  0  0  0  0
   17.0161  -24.1820   24.7850 N   0  0  0  0  0  0  0  0  0  0  0  0
   16.4205  -22.1995   23.7346 N   0  0  0  0  0  0  0  0  0  0  0  0
   15.4307  -21.2742   23.2328 C   0  0  0  0  0  0  0  0  0  0  0  0
   16.0712  -20.0236   22.6870 C   0  0  0  0  0  0  0  0  0  0  0  0
   15.4812  -19.5580   21.4075 C   0  0  0  0  0  0  0  0  0  0  0  0
   16.1225  -18.3151   20.8347 C   0  0  2  0  0  0  0  0  0  0  0  0
   15.3976  -17.9497   19.6203 N   0  0  0  0  0  0  0  0  0  0  0  0
   17.5141  -18.5720   20.4366 C   0  0  0  0  0  0  0  0  0  0  0  0
   17.8544  -19.0038   19.1730 O   0  0  0  0  0  0  0  0  0  0  0  0
   18.4299  -18.3957   21.2655 O   0  0  0  0  0  0  0  0  0  0  0  0
  2  1  1  6
  2 10  1  0
  2  3  1  0
  4  3  1  0
  4  5  2  0
  6  5  1  0
  7  6  2  0
  8  9  2  0
  8  7  1  0
  9  4  1  0
 10 11  2  0
 12 13  1  0
 12 10  1  0
 13 14  1  6
 15 14  1  0
 16 15  2  0
 17 16  1  0
 18 17  1  0
 18 19  2  0
 19 15  1  0
 20 30  1  0
 20 13  1  0
 21 20  2  0
 23 24  2  0
 23 22  1  0
 25 23  1  0
 26 25  1  0
 26 27  1  0
 27 28  1  0
 29 30  1  0
 29 28  1  6
 31 32  1  0
 31 29  1  0
 33 31  2  0
M  END
$$$$
