FHR.pdb
     RDKit          3D

 33 34  0  0  1  0  0  0  0  0999 V2000
    5.7727  -15.8885   25.2335 N   0  0  0  0  0  0  0  0  0  0  0  0
    6.7144  -14.9921   24.6276 C   0  0  1  0  0  0  0  0  0  0  0  0
    7.4317  -14.2049   25.7002 C   0  0  0  0  0  0  0  0  0  0  0  0
    6.7371  -12.9434   26.0174 C   0  0  0  0  0  0  0  0  0  0  0  0
    6.8732  -11.8247   25.2519 C   0  0  0  0  0  0  0  0  0  0  0  0
    6.1957  -10.6570   25.5937 C   0  0  0  0  0  0  0  0  0  0  0  0
    5.3779  -10.5943   26.7003 C   0  0  0  0  0  0  0  0  0  0  0  0
    5.2453  -11.7297   27.4696 C   0  0  0  0  0  0  0  0  0  0  0  0
    5.9137  -12.8956   27.1394 C   0  0  0  0  0  0  0  0  0  0  0  0
    7.7452  -15.8170   23.8999 C   0  0  0  0  0  0  0  0  0  0  0  0
    7.9899  -16.9954   24.2596 O   0  0  0  0  0  0  0  0  0  0  0  0
    8.4590  -15.2813   22.7959 N   0  0  0  0  0  0  0  0  0  0  0  0
    9.5272  -15.9330   22.0858 C   0  0  1  0  0  0  0  0  0  0  0  0
   10.0206  -15.1905   20.8963 C   0  0  0  0  0  0  0  0  0  0  0  0
    8.9432  -14.7595   19.9829 C   0  0  0  0  0  0  0  0  0  0  0  0
    7.5954  -15.0190   20.0473 C   0  0  0  0  0  0  0  0  0  0  0  0
    6.9734  -14.4192   18.9892 N   0  0  0  0  0  0  0  0  0  0  0  0
    7.9448  -13.7896   18.2734 C   0  0  0  0  0  0  0  0  0  0  0  0
    9.1251  -14.0069   18.8892 N   0  0  0  0  0  0  0  0  0  0  0  0
   10.5836  -16.5119   22.9504 C   0  0  0  0  0  0  0  0  0  0  0  0
   11.4533  -15.7644   23.4460 O   0  0  0  0  0  0  0  0  0  0  0  0
   11.6723  -23.4165   24.1020 N   0  0  0  0  0  0  0  0  0  0  0  0
   12.2244  -23.5796   25.3952 C   0  0  0  0  0  0  0  0  0  0  0  0
   13.0339  -24.5522   25.6336 N   0  0  0  0  0  0  0  0  0  0  0  0
   11.9160  -22.6944   26.4628 N   0  0  0  0  0  0  0  0  0  0  0  0
   10.9012  -21.6708   26.3624 C   0  0  0  0  0  0  0  0  0  0  0  0
   11.4970  -20.3385   25.9859 C   0  0  0  0  0  0  0  0  0  0  0  0
   10.7593  -19.6360   24.9069 C   0  0  0  0  0  0  0  0  0  0  0  0
   11.4096  -18.3581   24.4293 C   0  0  2  0  0  0  0  0  0  0  0  0
   10.6747  -17.8856   23.2586 N   0  0  0  0  0  0  0  0  0  0  0  0
   12.7928  -18.5980   23.9931 C   0  0  0  0  0  0  0  0  0  0  0  0
   13.8609  -18.5540   24.8626 O   0  0  0  0  0  0  0  0  0  0  0  0
   13.0203  -18.8520   22.7929 O   0  0  0  0  0  0  0  0  0  0  0  0
  2  1  1  1
  2 10  1  0
  2  3  1  0
  4  3  1  0
  4  5  2  0
  6  5  1  0
  7  6  2  0
  8  9  2  0
  8  7  1  0
  9  4  1  0
 10 11  2  0
 12 13  1  0
 12 10  1  0
 13 14  1  6
 15 14  1  0
 16 15  2  0
 17 16  1  0
 18 17  1  0
 18 19  2  0
 19 15  1  0
 20 30  1  0
 20 13  1  0
 21 20  2  0
 23 24  2  0
 23 22  1  0
 25 23  1  0
 26 25  1  0
 26 27  1  0
 27 28  1  0
 29 30  1  0
 29 28  1  6
 31 32  1  0
 31 29  1  0
 33 31  2  0
M  END
$$$$
