FHR.pdb
     RDKit          3D

 33 34  0  0  1  0  0  0  0  0999 V2000
    5.8223  -17.6797   25.8251 N   0  0  0  0  0  0  0  0  0  0  0  0
    6.0253  -16.2894   25.5362 C   0  0  1  0  0  0  0  0  0  0  0  0
    6.7016  -15.6183   26.7096 C   0  0  0  0  0  0  0  0  0  0  0  0
    6.5646  -14.1509   26.6609 C   0  0  0  0  0  0  0  0  0  0  0  0
    5.3659  -13.5255   26.8273 C   0  0  0  0  0  0  0  0  0  0  0  0
    5.2886  -12.1361   26.7724 C   0  0  0  0  0  0  0  0  0  0  0  0
    6.4043  -11.3591   26.5513 C   0  0  0  0  0  0  0  0  0  0  0  0
    7.6131  -11.9988   26.3839 C   0  0  0  0  0  0  0  0  0  0  0  0
    7.7016  -13.3789   26.4365 C   0  0  0  0  0  0  0  0  0  0  0  0
    6.9548  -16.1874   24.3537 C   0  0  0  0  0  0  0  0  0  0  0  0
    7.9472  -16.9509   24.2538 O   0  0  0  0  0  0  0  0  0  0  0  0
    6.7287  -15.2293   23.3308 N   0  0  0  0  0  0  0  0  0  0  0  0
    7.5377  -15.0434   22.1557 C   0  0  1  0  0  0  0  0  0  0  0  0
    7.1049  -13.9232   21.2795 C   0  0  0  0  0  0  0  0  0  0  0  0
    7.7038  -13.9661   19.9303 C   0  0  0  0  0  0  0  0  0  0  0  0
    8.6835  -14.7964   19.4418 C   0  0  0  0  0  0  0  0  0  0  0  0
    8.9280  -14.4797   18.1356 N   0  0  0  0  0  0  0  0  0  0  0  0
    8.0942  -13.4505   17.8228 C   0  0  0  0  0  0  0  0  0  0  0  0
    7.3645  -13.1559   18.9183 N   0  0  0  0  0  0  0  0  0  0  0  0
    8.9993  -15.1329   22.3889 C   0  0  0  0  0  0  0  0  0  0  0  0
    9.5529  -14.3154   23.1545 O   0  0  0  0  0  0  0  0  0  0  0  0
   11.0055  -20.5491   26.2046 N   0  0  0  0  0  0  0  0  0  0  0  0
   12.3650  -20.7384   25.8583 C   0  0  0  0  0  0  0  0  0  0  0  0
   12.9525  -21.8506   26.1339 N   0  0  0  0  0  0  0  0  0  0  0  0
   13.1230  -19.7303   25.2045 N   0  0  0  0  0  0  0  0  0  0  0  0
   12.6164  -18.3972   24.9724 C   0  0  0  0  0  0  0  0  0  0  0  0
   12.5235  -18.0912   23.4993 C   0  0  0  0  0  0  0  0  0  0  0  0
   11.1818  -17.6270   23.0676 C   0  0  0  0  0  0  0  0  0  0  0  0
   11.1875  -16.3469   22.2643 C   0  0  2  0  0  0  0  0  0  0  0  0
    9.8278  -16.1042   21.7886 N   0  0  0  0  0  0  0  0  0  0  0  0
   12.0376  -16.4733   21.0716 C   0  0  0  0  0  0  0  0  0  0  0  0
   13.4099  -16.3609   21.1260 O   0  0  0  0  0  0  0  0  0  0  0  0
   11.5077  -16.6905   19.9631 O   0  0  0  0  0  0  0  0  0  0  0  0
  2  1  1  1
  2 10  1  0
  2  3  1  0
  4  3  1  0
  4  5  2  0
  6  5  1  0
  7  6  2  0
  8  9  2  0
  8  7  1  0
  9  4  1  0
 10 11  2  0
 12 13  1  0
 12 10  1  0
 13 14  1  1
 15 14  1  0
 16 15  2  0
 17 16  1  0
 18 17  1  0
 18 19  2  0
 19 15  1  0
 20 30  1  0
 20 13  1  0
 21 20  2  0
 23 24  2  0
 23 22  1  0
 25 23  1  0
 26 25  1  0
 26 27  1  0
 27 28  1  0
 29 30  1  0
 29 28  1  6
 31 32  1  0
 31 29  1  0
 33 31  2  0
M  END
$$$$
