FHR.pdb
     RDKit          3D

 33 34  0  0  1  0  0  0  0  0999 V2000
    6.0550  -16.5313   25.4442 N   0  0  0  0  0  0  0  0  0  0  0  0
    6.9855  -15.5435   24.9791 C   0  0  1  0  0  0  0  0  0  0  0  0
    7.5203  -14.7546   26.1523 C   0  0  0  0  0  0  0  0  0  0  0  0
    6.9512  -13.3954   26.2094 C   0  0  0  0  0  0  0  0  0  0  0  0
    7.4612  -12.3613   25.4839 C   0  0  0  0  0  0  0  0  0  0  0  0
    6.8878  -11.0953   25.5727 C   0  0  0  0  0  0  0  0  0  0  0  0
    5.8025  -10.8495   26.3845 C   0  0  0  0  0  0  0  0  0  0  0  0
    5.2923  -11.9004   27.1151 C   0  0  0  0  0  0  0  0  0  0  0  0
    5.8541  -13.1626   27.0347 C   0  0  0  0  0  0  0  0  0  0  0  0
    8.1490  -16.2593   24.3415 C   0  0  0  0  0  0  0  0  0  0  0  0
    8.3639  -17.4725   24.5859 O   0  0  0  0  0  0  0  0  0  0  0  0
    9.0236  -15.5795   23.4537 N   0  0  0  0  0  0  0  0  0  0  0  0
   10.1383  -16.1634   22.7563 C   0  0  1  0  0  0  0  0  0  0  0  0
   10.4173  -15.5621   21.4257 C   0  0  0  0  0  0  0  0  0  0  0  0
    9.2118  -15.4013   20.5880 C   0  0  0  0  0  0  0  0  0  0  0  0
    8.1316  -16.2396   20.4519 C   0  0  0  0  0  0  0  0  0  0  0  0
    7.2475  -15.6898   19.5673 N   0  0  0  0  0  0  0  0  0  0  0  0
    7.7888  -14.5095   19.1599 C   0  0  0  0  0  0  0  0  0  0  0  0
    8.9730  -14.3541   19.7868 N   0  0  0  0  0  0  0  0  0  0  0  0
   11.3333  -16.4144   23.5976 C   0  0  0  0  0  0  0  0  0  0  0  0
   11.9457  -15.4496   24.1026 O   0  0  0  0  0  0  0  0  0  0  0  0
   11.7403  -22.2712   28.8912 N   0  0  0  0  0  0  0  0  0  0  0  0
   12.3608  -21.0614   29.2851 C   0  0  0  0  0  0  0  0  0  0  0  0
   12.4852  -20.7768   30.5348 N   0  0  0  0  0  0  0  0  0  0  0  0
   12.8633  -20.1295   28.3379 N   0  0  0  0  0  0  0  0  0  0  0  0
   12.0348  -19.1229   27.7150 C   0  0  0  0  0  0  0  0  0  0  0  0
   11.7273  -19.4715   26.2811 C   0  0  0  0  0  0  0  0  0  0  0  0
   12.8753  -19.2842   25.3597 C   0  0  0  0  0  0  0  0  0  0  0  0
   12.9814  -17.9011   24.7600 C   0  0  2  0  0  0  0  0  0  0  0  0
   11.8378  -17.7028   23.8730 N   0  0  0  0  0  0  0  0  0  0  0  0
   14.1883  -17.7741   23.9305 C   0  0  0  0  0  0  0  0  0  0  0  0
   15.4329  -17.5274   24.4681 O   0  0  0  0  0  0  0  0  0  0  0  0
   14.0944  -17.8923   22.6919 O   0  0  0  0  0  0  0  0  0  0  0  0
  2  1  1  1
  2 10  1  0
  2  3  1  0
  4  3  1  0
  4  5  2  0
  6  5  1  0
  7  6  2  0
  8  9  2  0
  8  7  1  0
  9  4  1  0
 10 11  2  0
 12 13  1  0
 12 10  1  0
 13 14  1  6
 15 14  1  0
 16 15  2  0
 17 16  1  0
 18 17  1  0
 18 19  2  0
 19 15  1  0
 20 30  1  0
 20 13  1  0
 21 20  2  0
 23 24  2  0
 23 22  1  0
 25 23  1  0
 26 25  1  0
 26 27  1  0
 27 28  1  0
 29 30  1  0
 29 28  1  6
 31 32  1  0
 31 29  1  0
 33 31  2  0
M  END
$$$$
