FHR.pdb
     RDKit          3D

 33 34  0  0  1  0  0  0  0  0999 V2000
    6.0934  -18.4685   20.0380 N   0  0  0  0  0  0  0  0  0  0  0  0
    6.8476  -17.2630   20.2269 C   0  0  1  0  0  0  0  0  0  0  0  0
    6.0116  -16.2508   20.9761 C   0  0  0  0  0  0  0  0  0  0  0  0
    6.7556  -15.0048   21.2375 C   0  0  0  0  0  0  0  0  0  0  0  0
    7.1182  -14.1503   20.2404 C   0  0  0  0  0  0  0  0  0  0  0  0
    7.8208  -12.9855   20.5388 C   0  0  0  0  0  0  0  0  0  0  0  0
    8.1676  -12.6629   21.8322 C   0  0  0  0  0  0  0  0  0  0  0  0
    7.7974  -13.5319   22.8353 C   0  0  0  0  0  0  0  0  0  0  0  0
    7.0991  -14.6923   22.5503 C   0  0  0  0  0  0  0  0  0  0  0  0
    8.0455  -17.5888   21.0822 C   0  0  0  0  0  0  0  0  0  0  0  0
    7.9721  -18.4696   21.9748 O   0  0  0  0  0  0  0  0  0  0  0  0
    9.2782  -16.9094   20.8974 N   0  0  0  0  0  0  0  0  0  0  0  0
   10.5440  -17.2892   21.4660 C   0  0  1  0  0  0  0  0  0  0  0  0
   11.6877  -17.2341   20.5181 C   0  0  0  0  0  0  0  0  0  0  0  0
   12.9699  -17.6555   21.1175 C   0  0  0  0  0  0  0  0  0  0  0  0
   14.0135  -16.8825   21.5662 C   0  0  0  0  0  0  0  0  0  0  0  0
   15.0002  -17.6973   22.0446 N   0  0  0  0  0  0  0  0  0  0  0  0
   14.5587  -18.9751   21.8881 C   0  0  0  0  0  0  0  0  0  0  0  0
   13.3327  -18.9282   21.3276 N   0  0  0  0  0  0  0  0  0  0  0  0
   10.8128  -16.7270   22.8116 C   0  0  0  0  0  0  0  0  0  0  0  0
   11.9811  -16.4185   23.1289 O   0  0  0  0  0  0  0  0  0  0  0  0
    5.4878  -21.6303   27.4074 N   0  0  0  0  0  0  0  0  0  0  0  0
    6.8565  -21.7190   27.7576 C   0  0  0  0  0  0  0  0  0  0  0  0
    7.1964  -21.9897   28.9697 N   0  0  0  0  0  0  0  0  0  0  0  0
    7.8919  -21.5182   26.8058 N   0  0  0  0  0  0  0  0  0  0  0  0
    7.8031  -20.5383   25.7477 C   0  0  0  0  0  0  0  0  0  0  0  0
    8.8531  -19.4673   25.8982 C   0  0  0  0  0  0  0  0  0  0  0  0
    8.8661  -18.4813   24.7893 C   0  0  0  0  0  0  0  0  0  0  0  0
    9.7671  -17.2897   25.0178 C   0  0  2  0  0  0  0  0  0  0  0  0
    9.8119  -16.5118   23.7822 N   0  0  0  0  0  0  0  0  0  0  0  0
   11.1456  -17.7140   25.3018 C   0  0  0  0  0  0  0  0  0  0  0  0
   11.9418  -17.0723   26.2255 O   0  0  0  0  0  0  0  0  0  0  0  0
   11.6233  -18.6907   24.6897 O   0  0  0  0  0  0  0  0  0  0  0  0
  2  1  1  1
  2 10  1  0
  2  3  1  0
  4  3  1  0
  4  5  2  0
  6  5  1  0
  7  6  2  0
  8  9  2  0
  8  7  1  0
  9  4  1  0
 10 11  2  0
 12 13  1  0
 12 10  1  0
 13 14  1  6
 15 14  1  0
 16 15  2  0
 17 16  1  0
 18 17  1  0
 18 19  2  0
 19 15  1  0
 20 30  1  0
 20 13  1  0
 21 20  2  0
 23 24  2  0
 23 22  1  0
 25 23  1  0
 26 25  1  0
 26 27  1  0
 27 28  1  0
 29 30  1  0
 29 28  1  6
 31 32  1  0
 31 29  1  0
 33 31  2  0
M  END
$$$$
