FHR.pdb
     RDKit          3D

 33 34  0  0  1  0  0  0  0  0999 V2000
    5.5211  -17.1796   24.0771 N   0  0  0  0  0  0  0  0  0  0  0  0
    6.2526  -15.9593   24.2602 C   0  0  1  0  0  0  0  0  0  0  0  0
    6.4138  -15.6782   25.7366 C   0  0  0  0  0  0  0  0  0  0  0  0
    6.5495  -14.2360   26.0126 C   0  0  0  0  0  0  0  0  0  0  0  0
    5.4758  -13.3987   26.0560 C   0  0  0  0  0  0  0  0  0  0  0  0
    5.6563  -12.0434   26.3206 C   0  0  0  0  0  0  0  0  0  0  0  0
    6.9073  -11.5117   26.5440 C   0  0  0  0  0  0  0  0  0  0  0  0
    7.9883  -12.3648   26.4984 C   0  0  0  0  0  0  0  0  0  0  0  0
    7.8206  -13.7133   26.2363 C   0  0  0  0  0  0  0  0  0  0  0  0
    7.6304  -16.1471   23.6778 C   0  0  0  0  0  0  0  0  0  0  0  0
    8.2964  -17.1809   23.9338 O   0  0  0  0  0  0  0  0  0  0  0  0
    8.2025  -15.1626   22.8300 N   0  0  0  0  0  0  0  0  0  0  0  0
    9.5278  -15.1978   22.2714 C   0  0  1  0  0  0  0  0  0  0  0  0
    9.7678  -14.2074   21.1890 C   0  0  0  0  0  0  0  0  0  0  0  0
    8.7128  -14.1975   20.1558 C   0  0  0  0  0  0  0  0  0  0  0  0
    8.0768  -15.2569   19.5549 C   0  0  0  0  0  0  0  0  0  0  0  0
    7.1671  -14.7800   18.6541 N   0  0  0  0  0  0  0  0  0  0  0  0
    7.2466  -13.4223   18.7035 C   0  0  0  0  0  0  0  0  0  0  0  0
    8.1842  -13.0913   19.6150 N   0  0  0  0  0  0  0  0  0  0  0  0
   10.6182  -15.3177   23.2691 C   0  0  0  0  0  0  0  0  0  0  0  0
   10.6807  -14.5041   24.2151 O   0  0  0  0  0  0  0  0  0  0  0  0
   13.7655  -21.2721   28.3478 N   0  0  0  0  0  0  0  0  0  0  0  0
   12.5024  -20.6336   28.3752 C   0  0  0  0  0  0  0  0  0  0  0  0
   11.5124  -21.1872   28.9847 N   0  0  0  0  0  0  0  0  0  0  0  0
   12.2784  -19.3801   27.7453 N   0  0  0  0  0  0  0  0  0  0  0  0
   11.6701  -19.2576   26.4404 C   0  0  0  0  0  0  0  0  0  0  0  0
   12.5499  -18.4838   25.4922 C   0  0  0  0  0  0  0  0  0  0  0  0
   12.2351  -17.0349   25.4304 C   0  0  0  0  0  0  0  0  0  0  0  0
   12.7175  -16.3393   24.1785 C   0  0  2  0  0  0  0  0  0  0  0  0
   11.6151  -16.3147   23.2203 N   0  0  0  0  0  0  0  0  0  0  0  0
   13.8131  -17.0872   23.5451 C   0  0  0  0  0  0  0  0  0  0  0  0
   15.0701  -17.1726   24.1033 O   0  0  0  0  0  0  0  0  0  0  0  0
   13.6089  -17.6708   22.4613 O   0  0  0  0  0  0  0  0  0  0  0  0
  2  1  1  1
  2 10  1  0
  2  3  1  0
  4  3  1  0
  4  5  2  0
  6  5  1  0
  7  6  2  0
  8  9  2  0
  8  7  1  0
  9  4  1  0
 10 11  2  0
 12 13  1  0
 12 10  1  0
 13 14  1  1
 15 14  1  0
 16 15  2  0
 17 16  1  0
 18 17  1  0
 18 19  2  0
 19 15  1  0
 20 30  1  0
 20 13  1  0
 21 20  2  0
 23 24  2  0
 23 22  1  0
 25 23  1  0
 26 25  1  0
 26 27  1  0
 27 28  1  0
 29 30  1  0
 29 28  1  1
 31 32  1  0
 31 29  1  0
 33 31  2  0
M  END
$$$$
