MIS.pdb
     RDKit          3D

 23 22  0  0  1  0  0  0  0  0999 V2000
   24.8998  -25.4647  -18.1794 C   0  0  0  0  0  0  0  0  0  0  0  0
   25.9844  -25.3636  -19.6216 S   0  0  0  0  0  0  0  0  0  0  0  0
   27.3877  -24.2862  -19.1606 C   0  0  0  0  0  0  0  0  0  0  0  0
   27.1572  -23.6929  -17.7766 C   0  0  0  0  0  0  0  0  0  0  0  0
   28.3278  -22.7883  -17.4562 C   0  0  2  0  0  0  0  0  0  0  0  0
   29.5297  -23.5765  -17.2627 N   0  0  0  0  0  0  0  0  0  0  0  0
   28.0846  -21.9889  -16.2304 C   0  0  0  0  0  0  0  0  0  0  0  0
   28.6353  -22.3103  -15.1491 O   0  0  0  0  0  0  0  0  0  0  0  0
   27.7915  -16.6127  -16.5548 C   0  0  0  0  0  0  0  0  0  0  0  0
   28.2334  -17.9990  -16.0264 C   0  0  0  0  0  0  0  0  0  0  0  0
   26.9829  -18.5615  -15.4025 C   0  0  2  0  0  0  0  0  0  0  0  0
   26.7195  -17.7065  -14.1704 C   0  0  0  0  0  0  0  0  0  0  0  0
   27.0630  -20.0114  -15.0084 C   0  0  2  0  0  0  0  0  0  0  0  0
   27.2437  -20.8493  -16.1995 N   0  0  0  0  0  0  0  0  0  0  0  0
   25.9038  -20.5231  -14.2711 C   0  0  0  0  0  0  0  0  0  0  0  0
   24.8203  -20.8280  -14.8808 O   0  0  0  0  0  0  0  0  0  0  0  0
   25.5105  -20.2498  -10.2449 O   0  0  0  0  0  0  0  0  0  0  0  0
   25.2019  -21.5190  -10.7431 C   0  0  0  0  0  0  0  0  0  0  0  0
   24.7268  -21.2923  -12.1868 C   0  0  2  0  0  0  0  0  0  0  0  0
   25.8936  -20.7179  -12.8747 N   0  0  0  0  0  0  0  0  0  0  0  0
   23.5769  -20.3949  -12.2413 C   0  0  0  0  0  0  0  0  0  0  0  0
   22.3153  -20.8674  -11.9521 O   0  0  0  0  0  0  0  0  0  0  0  0
   23.7237  -19.1922  -12.5498 O   0  0  0  0  0  0  0  0  0  0  0  0
  1  2  1  0
  2  3  1  0
  4  3  1  0
  5  4  1  0
  5  6  1  1
  7  5  1  0
  7  8  2  0
  9 10  1  0
 10 11  1  0
 11 13  1  0
 11 12  1  1
 13 14  1  6
 14  7  1  0
 15 13  1  0
 16 15  2  0
 18 17  1  0
 19 18  1  1
 19 20  1  0
 20 15  1  0
 21 19  1  0
 22 21  1  0
 23 21  2  0
M  END
$$$$
