MIS.pdb
     RDKit          3D

 23 22  0  0  1  0  0  0  0  0999 V2000
   22.6377  -12.4042  -21.6466 C   0  0  0  0  0  0  0  0  0  0  0  0
   22.2510  -10.9142  -20.6996 S   0  0  0  0  0  0  0  0  0  0  0  0
   21.2583  -11.4403  -19.2572 C   0  0  0  0  0  0  0  0  0  0  0  0
   20.8344  -10.2240  -18.4440 C   0  0  0  0  0  0  0  0  0  0  0  0
   20.0111  -10.7113  -17.2709 C   0  0  2  0  0  0  0  0  0  0  0  0
   18.8686  -11.4694  -17.7431 N   0  0  0  0  0  0  0  0  0  0  0  0
   19.5199   -9.5852  -16.4394 C   0  0  0  0  0  0  0  0  0  0  0  0
   18.3826   -9.0969  -16.6484 O   0  0  0  0  0  0  0  0  0  0  0  0
   18.2836   -9.4095  -11.4946 C   0  0  0  0  0  0  0  0  0  0  0  0
   18.3590   -9.1855  -13.0244 C   0  0  0  0  0  0  0  0  0  0  0  0
   19.5321   -8.2559  -13.1946 C   0  0  2  0  0  0  0  0  0  0  0  0
   19.2038   -7.0252  -12.3603 C   0  0  0  0  0  0  0  0  0  0  0  0
   19.8217   -7.8468  -14.6133 C   0  0  2  0  0  0  0  0  0  0  0  0
   20.2756   -9.0059  -15.3905 N   0  0  0  0  0  0  0  0  0  0  0  0
   20.8209   -6.7849  -14.7654 C   0  0  0  0  0  0  0  0  0  0  0  0
   22.0708   -7.0594  -14.7986 O   0  0  0  0  0  0  0  0  0  0  0  0
   22.8994   -3.9517  -17.1101 O   0  0  0  0  0  0  0  0  0  0  0  0
   21.9942   -4.9199  -16.6658 C   0  0  0  0  0  0  0  0  0  0  0  0
   21.4926   -4.4221  -15.3014 C   0  0  2  0  0  0  0  0  0  0  0  0
   20.4928   -5.4192  -14.8882 N   0  0  0  0  0  0  0  0  0  0  0  0
   20.9109   -3.0867  -15.3954 C   0  0  0  0  0  0  0  0  0  0  0  0
   21.6785   -1.9759  -15.1209 O   0  0  0  0  0  0  0  0  0  0  0  0
   19.7140   -2.9368  -15.7247 O   0  0  0  0  0  0  0  0  0  0  0  0
  1  2  1  0
  2  3  1  0
  4  3  1  0
  5  4  1  0
  5  6  1  6
  7  5  1  0
  7  8  2  0
  9 10  1  0
 10 11  1  0
 11 13  1  0
 11 12  1  1
 13 14  1  6
 14  7  1  0
 15 13  1  0
 16 15  2  0
 18 17  1  0
 19 18  1  6
 19 20  1  0
 20 15  1  0
 21 19  1  0
 22 21  1  0
 23 21  2  0
M  END
$$$$
