MIS.pdb
     RDKit          3D

 23 22  0  0  1  0  0  0  0  0999 V2000
   27.9418  -11.5341  -15.0083 C   0  0  0  0  0  0  0  0  0  0  0  0
   26.6435  -10.6362  -15.8885 S   0  0  0  0  0  0  0  0  0  0  0  0
   25.1571  -11.7008  -15.8794 C   0  0  0  0  0  0  0  0  0  0  0  0
   24.0797  -11.1000  -16.7732 C   0  0  0  0  0  0  0  0  0  0  0  0
   23.7752   -9.7071  -16.2646 C   0  0  2  0  0  0  0  0  0  0  0  0
   23.1878   -9.7762  -14.9405 N   0  0  0  0  0  0  0  0  0  0  0  0
   22.8368   -8.9883  -17.1609 C   0  0  0  0  0  0  0  0  0  0  0  0
   23.0832   -8.8967  -18.3883 O   0  0  0  0  0  0  0  0  0  0  0  0
   18.1194  -10.4211  -17.5174 C   0  0  0  0  0  0  0  0  0  0  0  0
   19.2581   -9.6766  -18.2559 C   0  0  0  0  0  0  0  0  0  0  0  0
   19.3505   -8.3562  -17.5365 C   0  0  2  0  0  0  0  0  0  0  0  0
   18.3043   -7.4613  -18.1870 C   0  0  0  0  0  0  0  0  0  0  0  0
   20.6983   -7.6901  -17.5959 C   0  0  2  0  0  0  0  0  0  0  0  0
   21.6414   -8.3784  -16.7070 N   0  0  0  0  0  0  0  0  0  0  0  0
   20.7074   -6.2667  -17.2449 C   0  0  0  0  0  0  0  0  0  0  0  0
   20.5164   -5.8871  -16.0373 O   0  0  0  0  0  0  0  0  0  0  0  0
   22.9206   -3.4826  -19.0146 O   0  0  0  0  0  0  0  0  0  0  0  0
   21.5793   -3.0903  -18.9778 C   0  0  0  0  0  0  0  0  0  0  0  0
   20.9670   -3.8225  -17.7735 C   0  0  2  0  0  0  0  0  0  0  0  0
   20.9253   -5.2355  -18.1813 N   0  0  0  0  0  0  0  0  0  0  0  0
   19.6353   -3.3168  -17.4553 C   0  0  0  0  0  0  0  0  0  0  0  0
   19.4696   -2.3830  -16.4558 O   0  0  0  0  0  0  0  0  0  0  0  0
   18.6341   -3.7241  -18.0838 O   0  0  0  0  0  0  0  0  0  0  0  0
  1  2  1  0
  2  3  1  0
  4  3  1  0
  5  4  1  0
  5  6  1  1
  7  5  1  0
  7  8  2  0
  9 10  1  0
 10 11  1  0
 11 13  1  0
 11 12  1  6
 13 14  1  1
 14  7  1  0
 15 13  1  0
 16 15  2  0
 18 17  1  0
 19 18  1  6
 19 20  1  0
 20 15  1  0
 21 19  1  0
 22 21  1  0
 23 21  2  0
M  END
$$$$
