MIS.pdb
     RDKit          3D

 23 22  0  0  1  0  0  0  0  0999 V2000
   16.4823  -17.1887  -18.2024 C   0  0  0  0  0  0  0  0  0  0  0  0
   18.1551  -17.8286  -18.4442 S   0  0  0  0  0  0  0  0  0  0  0  0
   19.3101  -16.5493  -17.8342 C   0  0  0  0  0  0  0  0  0  0  0  0
   18.6193  -15.1918  -17.8096 C   0  0  0  0  0  0  0  0  0  0  0  0
   19.5848  -14.1880  -17.2166 C   0  0  2  0  0  0  0  0  0  0  0  0
   20.0376  -14.6392  -15.9149 N   0  0  0  0  0  0  0  0  0  0  0  0
   18.9609  -12.8510  -17.0625 C   0  0  0  0  0  0  0  0  0  0  0  0
   18.5570  -12.2240  -18.0721 O   0  0  0  0  0  0  0  0  0  0  0  0
   15.1508  -12.5855  -14.6514 C   0  0  0  0  0  0  0  0  0  0  0  0
   15.7362  -11.5261  -15.6164 C   0  0  0  0  0  0  0  0  0  0  0  0
   16.9168  -10.9683  -14.8651 C   0  0  2  0  0  0  0  0  0  0  0  0
   16.4944   -9.5770  -14.4131 C   0  0  0  0  0  0  0  0  0  0  0  0
   18.1934  -10.8807  -15.6565 C   0  0  2  0  0  0  0  0  0  0  0  0
   18.7857  -12.2146  -15.8090 N   0  0  0  0  0  0  0  0  0  0  0  0
   19.2179   -9.9962  -15.0933 C   0  0  0  0  0  0  0  0  0  0  0  0
   19.7254  -10.2293  -13.9414 O   0  0  0  0  0  0  0  0  0  0  0  0
   21.3585   -7.5919  -17.3657 O   0  0  0  0  0  0  0  0  0  0  0  0
   21.9019   -8.0060  -16.1461 C   0  0  0  0  0  0  0  0  0  0  0  0
   20.7346   -7.9916  -15.1469 C   0  0  2  0  0  0  0  0  0  0  0  0
   19.7130   -8.8559  -15.7585 N   0  0  0  0  0  0  0  0  0  0  0  0
   20.2307   -6.6396  -14.9260 C   0  0  0  0  0  0  0  0  0  0  0  0
   20.9655   -5.7388  -14.1864 O   0  0  0  0  0  0  0  0  0  0  0  0
   19.1308   -6.2856  -15.4038 O   0  0  0  0  0  0  0  0  0  0  0  0
  1  2  1  0
  2  3  1  0
  4  3  1  0
  5  4  1  0
  5  6  1  1
  7  5  1  0
  7  8  2  0
  9 10  1  0
 10 11  1  0
 11 13  1  0
 11 12  1  6
 13 14  1  1
 14  7  1  0
 15 13  1  0
 16 15  2  0
 18 17  1  0
 19 18  1  6
 19 20  1  0
 20 15  1  0
 21 19  1  0
 22 21  1  0
 23 21  2  0
M  END
$$$$
