MIS.pdb
     RDKit          3D

 23 22  0  0  1  0  0  0  0  0999 V2000
   23.2164  -12.6464  -15.5278 C   0  0  0  0  0  0  0  0  0  0  0  0
   23.1103  -14.3187  -14.8507 S   0  0  0  0  0  0  0  0  0  0  0  0
   21.3363  -14.7552  -14.7803 C   0  0  0  0  0  0  0  0  0  0  0  0
   20.5059  -13.6756  -15.4626 C   0  0  0  0  0  0  0  0  0  0  0  0
   19.0474  -14.0612  -15.3387 C   0  0  2  0  0  0  0  0  0  0  0  0
   18.7962  -15.3003  -16.0492 N   0  0  0  0  0  0  0  0  0  0  0  0
   18.1535  -13.0123  -15.8877 C   0  0  0  0  0  0  0  0  0  0  0  0
   17.7493  -13.0864  -17.0737 O   0  0  0  0  0  0  0  0  0  0  0  0
   13.3741  -11.9700  -14.6805 C   0  0  0  0  0  0  0  0  0  0  0  0
   14.6137  -12.0096  -15.6068 C   0  0  0  0  0  0  0  0  0  0  0  0
   15.4887  -10.9001  -15.0846 C   0  0  2  0  0  0  0  0  0  0  0  0
   14.7338   -9.6106  -15.3777 C   0  0  0  0  0  0  0  0  0  0  0  0
   16.8644  -10.8335  -15.6902 C   0  0  2  0  0  0  0  0  0  0  0  0
   17.7121  -11.8955  -15.1361 N   0  0  0  0  0  0  0  0  0  0  0  0
   17.5655   -9.5588  -15.5089 C   0  0  0  0  0  0  0  0  0  0  0  0
   18.0112   -9.2122  -14.3600 O   0  0  0  0  0  0  0  0  0  0  0  0
   19.5276   -5.6664  -17.5721 O   0  0  0  0  0  0  0  0  0  0  0  0
   18.7372   -6.8066  -17.7434 C   0  0  0  0  0  0  0  0  0  0  0  0
   18.5711   -7.4094  -16.3398 C   0  0  2  0  0  0  0  0  0  0  0  0
   17.8008   -8.6441  -16.5558 N   0  0  0  0  0  0  0  0  0  0  0  0
   17.8764   -6.4948  -15.4389 C   0  0  0  0  0  0  0  0  0  0  0  0
   18.5841   -5.7772  -14.4994 O   0  0  0  0  0  0  0  0  0  0  0  0
   16.6362   -6.3531  -15.5098 O   0  0  0  0  0  0  0  0  0  0  0  0
  1  2  1  0
  2  3  1  0
  4  3  1  0
  5  4  1  0
  5  6  1  6
  7  5  1  0
  7  8  2  0
  9 10  1  0
 10 11  1  0
 11 13  1  0
 11 12  1  6
 13 14  1  1
 14  7  1  0
 15 13  1  0
 16 15  2  0
 18 17  1  0
 19 18  1  6
 19 20  1  0
 20 15  1  0
 21 19  1  0
 22 21  1  0
 23 21  2  0
M  END
$$$$
