MIS.pdb
     RDKit          3D

 23 22  0  0  1  0  0  0  0  0999 V2000
   15.4601  -14.3552  -17.5594 C   0  0  0  0  0  0  0  0  0  0  0  0
   16.7713  -14.7819  -18.7279 S   0  0  0  0  0  0  0  0  0  0  0  0
   17.5632  -13.2150  -19.2381 C   0  0  0  0  0  0  0  0  0  0  0  0
   18.0558  -12.4562  -18.0125 C   0  0  0  0  0  0  0  0  0  0  0  0
   18.7428  -11.1947  -18.4901 C   0  0  2  0  0  0  0  0  0  0  0  0
   20.0158  -11.5209  -19.1035 N   0  0  0  0  0  0  0  0  0  0  0  0
   18.9847  -10.2457  -17.3759 C   0  0  0  0  0  0  0  0  0  0  0  0
   18.0605   -9.9675  -16.5733 O   0  0  0  0  0  0  0  0  0  0  0  0
   23.5908  -10.3102  -14.5393 C   0  0  0  0  0  0  0  0  0  0  0  0
   22.0738  -10.2820  -14.8465 C   0  0  0  0  0  0  0  0  0  0  0  0
   21.8583   -8.9282  -15.4709 C   0  0  2  0  0  0  0  0  0  0  0  0
   22.1416   -7.9182  -14.3672 C   0  0  0  0  0  0  0  0  0  0  0  0
   20.4818   -8.6961  -16.0323 C   0  0  2  0  0  0  0  0  0  0  0  0
   20.2316   -9.6120  -17.1512 N   0  0  0  0  0  0  0  0  0  0  0  0
   20.2205   -7.3320  -16.5015 C   0  0  0  0  0  0  0  0  0  0  0  0
   20.8520   -6.8508  -17.5056 O   0  0  0  0  0  0  0  0  0  0  0  0
   17.6421   -5.7331  -18.1531 O   0  0  0  0  0  0  0  0  0  0  0  0
   17.6086   -5.1018  -16.9063 C   0  0  0  0  0  0  0  0  0  0  0  0
   19.0604   -5.1036  -16.4027 C   0  0  2  0  0  0  0  0  0  0  0  0
   19.2777   -6.4705  -15.9039 N   0  0  0  0  0  0  0  0  0  0  0  0
   19.2682   -4.1106  -15.3532 C   0  0  0  0  0  0  0  0  0  0  0  0
   19.4771   -2.7889  -15.6818 O   0  0  0  0  0  0  0  0  0  0  0  0
   19.2589   -4.4474  -14.1491 O   0  0  0  0  0  0  0  0  0  0  0  0
  1  2  1  0
  2  3  1  0
  4  3  1  0
  5  4  1  0
  5  6  1  1
  7  5  1  0
  7  8  2  0
  9 10  1  0
 10 11  1  0
 11 13  1  0
 11 12  1  1
 13 14  1  6
 14  7  1  0
 15 13  1  0
 16 15  2  0
 18 17  1  0
 19 18  1  1
 19 20  1  0
 20 15  1  0
 21 19  1  0
 22 21  1  0
 23 21  2  0
M  END
$$$$
