MIS.pdb
     RDKit          3D

 23 22  0  0  1  0  0  0  0  0999 V2000
   20.7947  -16.7655  -22.1503 C   0  0  0  0  0  0  0  0  0  0  0  0
   21.5614  -16.1702  -20.6258 S   0  0  0  0  0  0  0  0  0  0  0  0
   21.4518  -14.3453  -20.6496 C   0  0  0  0  0  0  0  0  0  0  0  0
   22.2635  -13.7589  -19.5017 C   0  0  0  0  0  0  0  0  0  0  0  0
   22.0919  -12.2552  -19.5297 C   0  0  2  0  0  0  0  0  0  0  0  0
   23.0086  -11.6656  -20.4864 N   0  0  0  0  0  0  0  0  0  0  0  0
   22.3430  -11.6489  -18.1993 C   0  0  0  0  0  0  0  0  0  0  0  0
   21.6925  -12.0356  -17.1978 O   0  0  0  0  0  0  0  0  0  0  0  0
   27.0304  -11.1726  -15.8006 C   0  0  0  0  0  0  0  0  0  0  0  0
   25.5188  -11.4138  -16.0310 C   0  0  0  0  0  0  0  0  0  0  0  0
   24.9728  -10.0373  -16.3075 C   0  0  2  0  0  0  0  0  0  0  0  0
   25.2095   -9.2390  -15.0327 C   0  0  0  0  0  0  0  0  0  0  0  0
   23.5142   -9.9911  -16.6737 C   0  0  2  0  0  0  0  0  0  0  0  0
   23.3004  -10.6285  -17.9781 N   0  0  0  0  0  0  0  0  0  0  0  0
   22.9262   -8.6492  -16.7279 C   0  0  0  0  0  0  0  0  0  0  0  0
   23.3328   -7.7883  -17.5836 O   0  0  0  0  0  0  0  0  0  0  0  0
   19.4294   -5.6089  -15.8470 O   0  0  0  0  0  0  0  0  0  0  0  0
   19.8996   -6.9210  -15.9546 C   0  0  0  0  0  0  0  0  0  0  0  0
   21.4305   -6.8201  -15.8685 C   0  0  2  0  0  0  0  0  0  0  0  0
   21.8942   -8.2163  -15.8701 N   0  0  0  0  0  0  0  0  0  0  0  0
   21.8574   -6.1148  -14.6639 C   0  0  0  0  0  0  0  0  0  0  0  0
   22.2301   -6.8228  -13.5421 O   0  0  0  0  0  0  0  0  0  0  0  0
   21.8893   -4.8652  -14.6370 O   0  0  0  0  0  0  0  0  0  0  0  0
  1  2  1  0
  2  3  1  0
  4  3  1  0
  5  4  1  0
  5  6  1  6
  7  5  1  0
  7  8  2  0
  9 10  1  0
 10 11  1  0
 11 13  1  0
 11 12  1  1
 13 14  1  6
 14  7  1  0
 15 13  1  0
 16 15  2  0
 18 17  1  0
 19 18  1  1
 19 20  1  0
 20 15  1  0
 21 19  1  0
 22 21  1  0
 23 21  2  0
M  END
$$$$
