MIS.pdb
     RDKit          3D

 23 22  0  0  1  0  0  0  0  0999 V2000
   12.1097  -11.2644  -13.9654 C   0  0  0  0  0  0  0  0  0  0  0  0
   13.1630   -9.7981  -13.8822 S   0  0  0  0  0  0  0  0  0  0  0  0
   14.6660  -10.2716  -12.9549 C   0  0  0  0  0  0  0  0  0  0  0  0
   15.5686   -9.0585  -12.7699 C   0  0  0  0  0  0  0  0  0  0  0  0
   16.8462   -9.5251  -12.1055 C   0  0  2  0  0  0  0  0  0  0  0  0
   16.6068   -9.8029  -10.7024 N   0  0  0  0  0  0  0  0  0  0  0  0
   17.9218   -8.5086  -12.2089 C   0  0  0  0  0  0  0  0  0  0  0  0
   18.1259   -7.7088  -11.2633 O   0  0  0  0  0  0  0  0  0  0  0  0
   22.8667   -9.7248  -13.1115 C   0  0  0  0  0  0  0  0  0  0  0  0
   21.5819   -9.0605  -12.5600 C   0  0  0  0  0  0  0  0  0  0  0  0
   21.1631   -8.1194  -13.6592 C   0  0  2  0  0  0  0  0  0  0  0  0
   22.2907   -7.1033  -13.7802 C   0  0  0  0  0  0  0  0  0  0  0  0
   19.8585   -7.4068  -13.4267 C   0  0  2  0  0  0  0  0  0  0  0  0
   18.7609   -8.3773  -13.3427 N   0  0  0  0  0  0  0  0  0  0  0  0
   19.5010   -6.4114  -14.4419 C   0  0  0  0  0  0  0  0  0  0  0  0
   19.4841   -6.7179  -15.6847 O   0  0  0  0  0  0  0  0  0  0  0  0
   17.6697   -3.1369  -13.4022 O   0  0  0  0  0  0  0  0  0  0  0  0
   17.4831   -3.4952  -14.7405 C   0  0  0  0  0  0  0  0  0  0  0  0
   18.8157   -4.1120  -15.1932 C   0  0  2  0  0  0  0  0  0  0  0  0
   19.1537   -5.0792  -14.1374 N   0  0  0  0  0  0  0  0  0  0  0  0
   19.8551   -3.0984  -15.3444 C   0  0  0  0  0  0  0  0  0  0  0  0
   19.7289   -2.1141  -16.3003 O   0  0  0  0  0  0  0  0  0  0  0  0
   20.8675   -3.1123  -14.6109 O   0  0  0  0  0  0  0  0  0  0  0  0
  1  2  1  0
  2  3  1  0
  4  3  1  0
  5  4  1  0
  5  6  1  1
  7  5  1  0
  7  8  2  0
  9 10  1  0
 10 11  1  0
 11 13  1  0
 11 12  1  1
 13 14  1  6
 14  7  1  0
 15 13  1  0
 16 15  2  0
 18 17  1  0
 19 18  1  1
 19 20  1  0
 20 15  1  0
 21 19  1  0
 22 21  1  0
 23 21  2  0
M  END
$$$$
