MIS.pdb
     RDKit          3D

 23 22  0  0  1  0  0  0  0  0999 V2000
   26.4599  -21.3165  -20.3378 C   0  0  0  0  0  0  0  0  0  0  0  0
   27.3489  -20.0556  -19.3963 S   0  0  0  0  0  0  0  0  0  0  0  0
   27.9115  -20.8441  -17.8457 C   0  0  0  0  0  0  0  0  0  0  0  0
   26.7122  -21.2005  -16.9767 C   0  0  0  0  0  0  0  0  0  0  0  0
   27.2330  -21.7614  -15.6707 C   0  0  2  0  0  0  0  0  0  0  0  0
   27.9043  -23.0258  -15.9025 N   0  0  0  0  0  0  0  0  0  0  0  0
   26.1397  -21.9794  -14.6920 C   0  0  0  0  0  0  0  0  0  0  0  0
   25.4927  -23.0551  -14.6993 O   0  0  0  0  0  0  0  0  0  0  0  0
   26.5719  -20.4817   -9.5172 C   0  0  0  0  0  0  0  0  0  0  0  0
   26.2663  -21.3668  -10.7498 C   0  0  0  0  0  0  0  0  0  0  0  0
   25.0916  -20.6841  -11.4006 C   0  0  2  0  0  0  0  0  0  0  0  0
   23.9374  -20.8299  -10.4183 C   0  0  0  0  0  0  0  0  0  0  0  0
   24.6928  -21.2398  -12.7408 C   0  0  2  0  0  0  0  0  0  0  0  0
   25.7658  -21.0214  -13.7177 N   0  0  0  0  0  0  0  0  0  0  0  0
   23.4555  -20.6889  -13.3020 C   0  0  0  0  0  0  0  0  0  0  0  0
   23.3122  -19.4270  -13.4625 O   0  0  0  0  0  0  0  0  0  0  0  0
   19.2627  -21.4285  -15.5140 O   0  0  0  0  0  0  0  0  0  0  0  0
   20.4605  -21.9768  -15.0462 C   0  0  0  0  0  0  0  0  0  0  0  0
   21.1106  -20.8798  -14.1888 C   0  0  2  0  0  0  0  0  0  0  0  0
   22.3610  -21.4829  -13.7015 N   0  0  0  0  0  0  0  0  0  0  0  0
   20.2454  -20.4742  -13.0854 C   0  0  0  0  0  0  0  0  0  0  0  0
   19.3744  -19.4178  -13.2404 O   0  0  0  0  0  0  0  0  0  0  0  0
   20.2850  -21.0787  -11.9917 O   0  0  0  0  0  0  0  0  0  0  0  0
  1  2  1  0
  2  3  1  0
  4  3  1  0
  5  4  1  0
  5  6  1  6
  7  5  1  0
  7  8  2  0
  9 10  1  0
 10 11  1  0
 11 13  1  0
 11 12  1  1
 13 14  1  6
 14  7  1  0
 15 13  1  0
 16 15  2  0
 18 17  1  0
 19 18  1  6
 19 20  1  0
 20 15  1  0
 21 19  1  0
 22 21  1  0
 23 21  2  0
M  END
$$$$
