MIS.pdb
     RDKit          3D

 23 22  0  0  1  0  0  0  0  0999 V2000
   18.6313  -19.7284  -14.6016 C   0  0  0  0  0  0  0  0  0  0  0  0
   19.7747  -18.7061  -15.5577 S   0  0  0  0  0  0  0  0  0  0  0  0
   21.4452  -18.9858  -14.8691 C   0  0  0  0  0  0  0  0  0  0  0  0
   21.3784  -19.9984  -13.7331 C   0  0  0  0  0  0  0  0  0  0  0  0
   22.7416  -20.0540  -13.0773 C   0  0  2  0  0  0  0  0  0  0  0  0
   23.7351  -20.5132  -14.0287 N   0  0  0  0  0  0  0  0  0  0  0  0
   22.7512  -20.9658  -11.9071 C   0  0  0  0  0  0  0  0  0  0  0  0
   22.9059  -22.2005  -12.0717 O   0  0  0  0  0  0  0  0  0  0  0  0
   25.7185  -20.0481   -7.6801 C   0  0  0  0  0  0  0  0  0  0  0  0
   25.0232  -20.8600   -8.7997 C   0  0  0  0  0  0  0  0  0  0  0  0
   23.5780  -20.8930   -8.3757 C   0  0  2  0  0  0  0  0  0  0  0  0
   23.5343  -21.7797   -7.1387 C   0  0  0  0  0  0  0  0  0  0  0  0
   22.6208  -21.4168   -9.4117 C   0  0  2  0  0  0  0  0  0  0  0  0
   22.5918  -20.5192  -10.5722 N   0  0  0  0  0  0  0  0  0  0  0  0
   21.2412  -21.6002   -8.9511 C   0  0  0  0  0  0  0  0  0  0  0  0
   20.5105  -20.5934   -8.6491 O   0  0  0  0  0  0  0  0  0  0  0  0
   19.3898  -25.3367   -8.1244 O   0  0  0  0  0  0  0  0  0  0  0  0
   18.7465  -24.3196   -8.8357 C   0  0  0  0  0  0  0  0  0  0  0  0
   19.2775  -23.0034   -8.2467 C   0  0  2  0  0  0  0  0  0  0  0  0
   20.6278  -22.8623   -8.8134 N   0  0  0  0  0  0  0  0  0  0  0  0
   19.3094  -23.0397   -6.7878 C   0  0  0  0  0  0  0  0  0  0  0  0
   18.1381  -22.9559   -6.0671 O   0  0  0  0  0  0  0  0  0  0  0  0
   20.3960  -23.1468   -6.1787 O   0  0  0  0  0  0  0  0  0  0  0  0
  1  2  1  0
  2  3  1  0
  4  3  1  0
  5  4  1  0
  5  6  1  6
  7  5  1  0
  7  8  2  0
  9 10  1  0
 10 11  1  0
 11 13  1  0
 11 12  1  1
 13 14  1  6
 14  7  1  0
 15 13  1  0
 16 15  2  0
 18 17  1  0
 19 18  1  6
 19 20  1  0
 20 15  1  0
 21 19  1  0
 22 21  1  0
 23 21  2  0
M  END
$$$$
