MIS.pdb
     RDKit          3D

 23 22  0  0  1  0  0  0  0  0999 V2000
   18.1516  -14.4368  -19.0204 C   0  0  0  0  0  0  0  0  0  0  0  0
   18.9722  -15.7633  -19.9333 S   0  0  0  0  0  0  0  0  0  0  0  0
   20.7083  -15.8109  -19.3617 C   0  0  0  0  0  0  0  0  0  0  0  0
   20.8901  -14.8824  -18.1679 C   0  0  0  0  0  0  0  0  0  0  0  0
   22.3324  -14.9777  -17.7185 C   0  0  2  0  0  0  0  0  0  0  0  0
   22.6204  -16.3177  -17.2446 N   0  0  0  0  0  0  0  0  0  0  0  0
   22.6327  -14.0166  -16.6291 C   0  0  0  0  0  0  0  0  0  0  0  0
   22.1056  -14.1603  -15.4990 O   0  0  0  0  0  0  0  0  0  0  0  0
   27.4304  -12.5974  -15.0670 C   0  0  0  0  0  0  0  0  0  0  0  0
   25.9325  -12.9832  -15.0045 C   0  0  0  0  0  0  0  0  0  0  0  0
   25.2227  -11.7523  -15.5049 C   0  0  2  0  0  0  0  0  0  0  0  0
   25.4647  -10.6823  -14.4491 C   0  0  0  0  0  0  0  0  0  0  0  0
   23.7448  -11.9167  -15.7339 C   0  0  2  0  0  0  0  0  0  0  0  0
   23.5041  -12.9108  -16.7862 N   0  0  0  0  0  0  0  0  0  0  0  0
   23.0298  -10.6909  -16.1021 C   0  0  0  0  0  0  0  0  0  0  0  0
   23.2627  -10.1044  -17.2159 O   0  0  0  0  0  0  0  0  0  0  0  0
   19.3881  -10.0687  -15.6001 O   0  0  0  0  0  0  0  0  0  0  0  0
   19.9854   -8.9330  -15.0453 C   0  0  0  0  0  0  0  0  0  0  0  0
   21.3775   -8.8413  -15.6894 C   0  0  2  0  0  0  0  0  0  0  0  0
   22.0553  -10.0828  -15.2845 N   0  0  0  0  0  0  0  0  0  0  0  0
   22.1051   -7.6604  -15.2349 C   0  0  0  0  0  0  0  0  0  0  0  0
   21.8050   -6.4197  -15.7537 O   0  0  0  0  0  0  0  0  0  0  0  0
   23.0053   -7.7616  -14.3731 O   0  0  0  0  0  0  0  0  0  0  0  0
  1  2  1  0
  2  3  1  0
  4  3  1  0
  5  4  1  0
  5  6  1  1
  7  5  1  0
  7  8  2  0
  9 10  1  0
 10 11  1  0
 11 13  1  0
 11 12  1  1
 13 14  1  6
 14  7  1  0
 15 13  1  0
 16 15  2  0
 18 17  1  0
 19 18  1  1
 19 20  1  0
 20 15  1  0
 21 19  1  0
 22 21  1  0
 23 21  2  0
M  END
$$$$
