MIS.pdb
     RDKit          3D

 23 22  0  0  1  0  0  0  0  0999 V2000
   17.6004   -9.8008  -21.6072 C   0  0  0  0  0  0  0  0  0  0  0  0
   17.3447  -11.5556  -21.9562 S   0  0  0  0  0  0  0  0  0  0  0  0
   18.6177  -12.4773  -21.0220 C   0  0  0  0  0  0  0  0  0  0  0  0
   18.7717  -11.8855  -19.6269 C   0  0  0  0  0  0  0  0  0  0  0  0
   19.8485  -12.6671  -18.9050 C   0  0  2  0  0  0  0  0  0  0  0  0
   19.3784  -14.0061  -18.6064 N   0  0  0  0  0  0  0  0  0  0  0  0
   20.2450  -12.0113  -17.6348 C   0  0  0  0  0  0  0  0  0  0  0  0
   19.6116  -12.2504  -16.5779 O   0  0  0  0  0  0  0  0  0  0  0  0
   24.7700  -12.2322  -15.1078 C   0  0  0  0  0  0  0  0  0  0  0  0
   23.2632  -12.1586  -15.4548 C   0  0  0  0  0  0  0  0  0  0  0  0
   23.0571  -10.7225  -15.8603 C   0  0  2  0  0  0  0  0  0  0  0  0
   23.4299   -9.8943  -14.6382 C   0  0  0  0  0  0  0  0  0  0  0  0
   21.6606  -10.3782  -16.3019 C   0  0  2  0  0  0  0  0  0  0  0  0
   21.3273  -11.1030  -17.5337 N   0  0  0  0  0  0  0  0  0  0  0  0
   21.4142   -8.9526  -16.5391 C   0  0  0  0  0  0  0  0  0  0  0  0
   22.0684   -8.3134  -17.4347 O   0  0  0  0  0  0  0  0  0  0  0  0
   18.0410   -7.2617  -15.5284 O   0  0  0  0  0  0  0  0  0  0  0  0
   18.7915   -6.6646  -16.5455 C   0  0  0  0  0  0  0  0  0  0  0  0
   20.2564   -6.7660  -16.0926 C   0  0  2  0  0  0  0  0  0  0  0  0
   20.4624   -8.1977  -15.8235 N   0  0  0  0  0  0  0  0  0  0  0  0
   20.5111   -5.9553  -14.9059 C   0  0  0  0  0  0  0  0  0  0  0  0
   20.8607   -6.5580  -13.7172 O   0  0  0  0  0  0  0  0  0  0  0  0
   20.4151   -4.7096  -14.9549 O   0  0  0  0  0  0  0  0  0  0  0  0
  1  2  1  0
  2  3  1  0
  4  3  1  0
  5  4  1  0
  5  6  1  1
  7  5  1  0
  7  8  2  0
  9 10  1  0
 10 11  1  0
 11 13  1  0
 11 12  1  1
 13 14  1  6
 14  7  1  0
 15 13  1  0
 16 15  2  0
 18 17  1  0
 19 18  1  1
 19 20  1  0
 20 15  1  0
 21 19  1  0
 22 21  1  0
 23 21  2  0
M  END
$$$$
