MIS.pdb
     RDKit          3D

 23 22  0  0  1  0  0  0  0  0999 V2000
   18.8532  -28.6902  -10.5586 C   0  0  0  0  0  0  0  0  0  0  0  0
   18.4065  -28.9822   -8.8318 S   0  0  0  0  0  0  0  0  0  0  0  0
   18.9076  -27.4964   -7.8916 C   0  0  0  0  0  0  0  0  0  0  0  0
   18.3845  -26.2423   -8.5801 C   0  0  0  0  0  0  0  0  0  0  0  0
   18.8807  -25.0420   -7.8024 C   0  0  2  0  0  0  0  0  0  0  0  0
   18.2221  -24.9760   -6.5121 N   0  0  0  0  0  0  0  0  0  0  0  0
   18.6257  -23.7737   -8.5285 C   0  0  0  0  0  0  0  0  0  0  0  0
   17.5804  -23.1169   -8.3014 O   0  0  0  0  0  0  0  0  0  0  0  0
   22.4001  -20.0317   -9.5764 C   0  0  0  0  0  0  0  0  0  0  0  0
   21.0686  -20.6874   -9.1365 C   0  0  0  0  0  0  0  0  0  0  0  0
   20.4792  -21.2033  -10.4233 C   0  0  2  0  0  0  0  0  0  0  0  0
   20.1831  -19.9677  -11.2625 C   0  0  0  0  0  0  0  0  0  0  0  0
   19.2285  -22.0251  -10.2681 C   0  0  2  0  0  0  0  0  0  0  0  0
   19.5141  -23.2380   -9.4932 N   0  0  0  0  0  0  0  0  0  0  0  0
   18.5901  -22.4338  -11.5230 C   0  0  0  0  0  0  0  0  0  0  0  0
   19.1959  -23.2029  -12.3477 O   0  0  0  0  0  0  0  0  0  0  0  0
   14.6560  -22.6784  -14.2491 O   0  0  0  0  0  0  0  0  0  0  0  0
   15.2142  -22.2684  -13.0347 C   0  0  0  0  0  0  0  0  0  0  0  0
   16.7354  -22.3815  -13.2197 C   0  0  2  0  0  0  0  0  0  0  0  0
   17.2954  -22.0274  -11.9060 N   0  0  0  0  0  0  0  0  0  0  0  0
   17.2191  -21.4875  -14.2673 C   0  0  0  0  0  0  0  0  0  0  0  0
   17.4500  -21.9696  -15.5372 O   0  0  0  0  0  0  0  0  0  0  0  0
   17.4284  -20.2789  -14.0245 O   0  0  0  0  0  0  0  0  0  0  0  0
  1  2  1  0
  2  3  1  0
  4  3  1  0
  5  4  1  0
  5  6  1  1
  7  5  1  0
  7  8  2  0
  9 10  1  0
 10 11  1  0
 11 13  1  0
 11 12  1  6
 13 14  1  6
 14  7  1  0
 15 13  1  0
 16 15  2  0
 18 17  1  0
 19 18  1  1
 19 20  1  0
 20 15  1  0
 21 19  1  0
 22 21  1  0
 23 21  2  0
M  END
$$$$
