MIS.pdb
     RDKit          3D

 23 22  0  0  1  0  0  0  0  0999 V2000
   13.3175  -14.1528    7.1486 C   0  0  0  0  0  0  0  0  0  0  0  0
   13.5051  -12.4812    7.8097 S   0  0  0  0  0  0  0  0  0  0  0  0
   15.0246  -11.7819    7.0715 C   0  0  0  0  0  0  0  0  0  0  0  0
   16.1315  -12.8284    7.0666 C   0  0  0  0  0  0  0  0  0  0  0  0
   17.3322  -12.2338    6.3622 C   0  0  2  0  0  0  0  0  0  0  0  0
   17.1181  -12.2292    4.9279 N   0  0  0  0  0  0  0  0  0  0  0  0
   18.5718  -12.9953    6.6524 C   0  0  0  0  0  0  0  0  0  0  0  0
   19.0766  -13.7359    5.7735 O   0  0  0  0  0  0  0  0  0  0  0  0
   22.9679  -10.7508    8.4154 C   0  0  0  0  0  0  0  0  0  0  0  0
   21.9859  -11.6547    7.6313 C   0  0  0  0  0  0  0  0  0  0  0  0
   21.5484  -12.6771    8.6475 C   0  0  2  0  0  0  0  0  0  0  0  0
   22.8112  -13.4332    9.0376 C   0  0  0  0  0  0  0  0  0  0  0  0
   20.5023  -13.6464    8.1680 C   0  0  2  0  0  0  0  0  0  0  0  0
   19.2450  -12.9396    7.8976 N   0  0  0  0  0  0  0  0  0  0  0  0
   20.2079  -14.7517    9.0850 C   0  0  0  0  0  0  0  0  0  0  0  0
   19.7439  -14.5268   10.2567 O   0  0  0  0  0  0  0  0  0  0  0  0
   20.4402  -18.5593    7.8714 O   0  0  0  0  0  0  0  0  0  0  0  0
   19.5606  -18.3277    8.9330 C   0  0  0  0  0  0  0  0  0  0  0  0
   20.1820  -17.1784    9.7418 C   0  0  2  0  0  0  0  0  0  0  0  0
   20.4026  -16.1088    8.7560 N   0  0  0  0  0  0  0  0  0  0  0  0
   21.4298  -17.5830   10.3822 C   0  0  0  0  0  0  0  0  0  0  0  0
   21.4095  -18.4508   11.4523 O   0  0  0  0  0  0  0  0  0  0  0  0
   22.5265  -17.1480    9.9682 O   0  0  0  0  0  0  0  0  0  0  0  0
  1  2  1  0
  2  3  1  0
  4  3  1  0
  5  4  1  0
  5  6  1  6
  7  5  1  0
  7  8  2  0
  9 10  1  0
 10 11  1  0
 11 13  1  0
 11 12  1  6
 13 14  1  1
 14  7  1  0
 15 13  1  0
 16 15  2  0
 18 17  1  0
 19 18  1  6
 19 20  1  0
 20 15  1  0
 21 19  1  0
 22 21  1  0
 23 21  2  0
M  END
$$$$
