CAK.pdb
     RDKit          3D

 21 20  0  0  1  0  0  0  0  0999 V2000
   21.4434  -13.7315  -18.7131 N   0  0  0  0  0  0  0  0  0  0  0  0
   20.2104  -13.1642  -18.2206 C   0  0  1  0  0  0  0  0  0  0  0  0
   19.3666  -14.3397  -17.7188 C   0  0  0  0  0  0  0  0  0  0  0  0
   18.9659  -15.4691  -19.0564 S   0  0  0  0  0  0  0  0  0  0  0  0
   20.4396  -12.2836  -17.0454 C   0  0  0  0  0  0  0  0  0  0  0  0
   19.4317  -11.7449  -16.5201 O   0  0  0  0  0  0  0  0  0  0  0  0
   23.3969  -11.2046  -15.0148 C   0  0  0  0  0  0  0  0  0  0  0  0
   21.9274  -11.0896  -15.3998 C   0  0  2  0  0  0  0  0  0  0  0  0
   21.6994  -12.0142  -16.4853 N   0  0  0  0  0  0  0  0  0  0  0  0
   21.6097   -9.6888  -15.7882 C   0  0  0  0  0  0  0  0  0  0  0  0
   22.0215   -9.3208  -16.9258 O   0  0  0  0  0  0  0  0  0  0  0  0
   20.8974   -8.7871  -14.9761 N   0  0  0  0  0  0  0  0  0  0  0  0
   20.5544   -7.4292  -15.4270 C   0  0  1  0  0  0  0  0  0  0  0  0
   19.0684   -7.2877  -15.5306 C   0  0  0  0  0  0  0  0  0  0  0  0
   18.6636   -5.9304  -15.9817 C   0  0  0  0  0  0  0  0  0  0  0  0
   17.1411   -5.7907  -16.0482 C   0  0  0  0  0  0  0  0  0  0  0  0
   16.7433   -4.4259  -16.5506 C   0  0  0  0  0  0  0  0  0  0  0  0
   15.3235   -4.3032  -16.7583 N   0  0  0  0  0  0  0  0  0  0  0  0
   21.1050   -6.4952  -14.4443 C   0  0  0  0  0  0  0  0  0  0  0  0
   21.2459   -5.2829  -14.7264 O   0  0  0  0  0  0  0  0  0  0  0  0
   21.4780   -6.9121  -13.1924 O   0  0  0  0  0  0  0  0  0  0  0  0
  2  1  1  1
  2  5  1  0
  3  2  1  0
  4  3  1  0
  5  9  1  0
  5  6  2  0
  8  7  1  6
  9  8  1  0
 10  8  1  0
 10 11  2  0
 12 13  1  0
 12 10  1  0
 14 15  1  0
 13 14  1  1
 16 17  1  0
 16 15  1  0
 17 18  1  0
 19 13  1  0
 20 19  2  0
 21 19  1  0
M  END
$$$$
