CAK.pdb
     RDKit          3D

 21 20  0  0  1  0  0  0  0  0999 V2000
   26.3576  -15.0736  -18.4978 N   0  0  0  0  0  0  0  0  0  0  0  0
   26.6204  -13.6627  -18.6562 C   0  0  1  0  0  0  0  0  0  0  0  0
   25.9059  -13.2339  -19.9411 C   0  0  0  0  0  0  0  0  0  0  0  0
   26.7402  -13.8798  -21.3945 S   0  0  0  0  0  0  0  0  0  0  0  0
   26.0184  -12.8631  -17.5574 C   0  0  0  0  0  0  0  0  0  0  0  0
   24.9003  -13.2340  -17.1168 O   0  0  0  0  0  0  0  0  0  0  0  0
   27.0552   -9.9957  -15.3989 C   0  0  0  0  0  0  0  0  0  0  0  0
   25.9730  -10.8861  -15.9965 C   0  0  2  0  0  0  0  0  0  0  0  0
   26.6113  -11.7273  -16.9814 N   0  0  0  0  0  0  0  0  0  0  0  0
   24.8970  -10.0501  -16.5943 C   0  0  0  0  0  0  0  0  0  0  0  0
   25.1102   -9.6250  -17.7661 O   0  0  0  0  0  0  0  0  0  0  0  0
   23.6959   -9.7228  -15.9384 N   0  0  0  0  0  0  0  0  0  0  0  0
   22.6856   -8.8429  -16.5467 C   0  0  1  0  0  0  0  0  0  0  0  0
   21.3256   -9.2002  -16.0352 C   0  0  0  0  0  0  0  0  0  0  0  0
   20.2648   -8.3271  -16.6028 C   0  0  0  0  0  0  0  0  0  0  0  0
   18.8935   -8.6461  -16.0033 C   0  0  0  0  0  0  0  0  0  0  0  0
   17.8503   -7.6706  -16.4865 C   0  0  0  0  0  0  0  0  0  0  0  0
   16.5863   -7.8323  -15.8156 N   0  0  0  0  0  0  0  0  0  0  0  0
   23.0380   -7.4683  -16.1898 C   0  0  0  0  0  0  0  0  0  0  0  0
   22.5309   -6.5007  -16.8029 O   0  0  0  0  0  0  0  0  0  0  0  0
   23.9240   -7.1968  -15.1792 O   0  0  0  0  0  0  0  0  0  0  0  0
  2  1  1  1
  2  5  1  0
  3  2  1  0
  4  3  1  0
  5  9  1  0
  5  6  2  0
  8  7  1  6
  9  8  1  0
 10  8  1  0
 10 11  2  0
 12 13  1  0
 12 10  1  0
 14 15  1  0
 13 14  1  1
 16 17  1  0
 16 15  1  0
 17 18  1  0
 19 13  1  0
 20 19  2  0
 21 19  1  0
M  END
$$$$
