CAK.pdb
     RDKit          3D

 21 20  0  0  1  0  0  0  0  0999 V2000
   16.3700  -14.3734  -16.5810 N   0  0  0  0  0  0  0  0  0  0  0  0
   16.4967  -13.3557  -15.5646 C   0  0  1  0  0  0  0  0  0  0  0  0
   17.2125  -14.0155  -14.3824 C   0  0  0  0  0  0  0  0  0  0  0  0
   16.1402  -15.1895  -13.5473 S   0  0  0  0  0  0  0  0  0  0  0  0
   17.3695  -12.2380  -16.0096 C   0  0  0  0  0  0  0  0  0  0  0  0
   18.4605  -12.5384  -16.5586 O   0  0  0  0  0  0  0  0  0  0  0  0
   17.0348   -8.5263  -16.2799 C   0  0  0  0  0  0  0  0  0  0  0  0
   17.8752   -9.7947  -16.3585 C   0  0  2  0  0  0  0  0  0  0  0  0
   17.0592  -10.8762  -15.8588 N   0  0  0  0  0  0  0  0  0  0  0  0
   19.1236   -9.6295  -15.5660 C   0  0  0  0  0  0  0  0  0  0  0  0
   19.0342   -9.8811  -14.3299 O   0  0  0  0  0  0  0  0  0  0  0  0
   20.3552   -9.2207  -16.1101 N   0  0  0  0  0  0  0  0  0  0  0  0
   21.5941   -9.2004  -15.3166 C   0  0  1  0  0  0  0  0  0  0  0  0
   22.7220   -9.7675  -16.1199 C   0  0  0  0  0  0  0  0  0  0  0  0
   24.0135   -9.7213  -15.3853 C   0  0  0  0  0  0  0  0  0  0  0  0
   25.1724  -10.2154  -16.2539 C   0  0  0  0  0  0  0  0  0  0  0  0
   26.4592  -10.2560  -15.4691 C   0  0  0  0  0  0  0  0  0  0  0  0
   27.5992  -10.5764  -16.2888 N   0  0  0  0  0  0  0  0  0  0  0  0
   21.8537   -7.8063  -14.9556 C   0  0  0  0  0  0  0  0  0  0  0  0
   21.5460   -6.8774  -15.7379 O   0  0  0  0  0  0  0  0  0  0  0  0
   22.4336   -7.4738  -13.7584 O   0  0  0  0  0  0  0  0  0  0  0  0
  2  1  1  6
  2  5  1  0
  3  2  1  0
  4  3  1  0
  5  9  1  0
  5  6  2  0
  8  7  1  1
  9  8  1  0
 10  8  1  0
 10 11  2  0
 12 13  1  0
 12 10  1  0
 14 15  1  0
 13 14  1  6
 16 17  1  0
 16 15  1  0
 17 18  1  0
 19 13  1  0
 20 19  2  0
 21 19  1  0
M  END
$$$$
