CAK.pdb
     RDKit          3D

 21 20  0  0  1  0  0  0  0  0999 V2000
   19.3730  -11.0509  -14.9583 N   0  0  0  0  0  0  0  0  0  0  0  0
   18.1508  -10.3623  -15.3000 C   0  0  1  0  0  0  0  0  0  0  0  0
   17.0566  -11.4322  -15.3589 C   0  0  0  0  0  0  0  0  0  0  0  0
   15.4833  -10.7250  -15.8589 S   0  0  0  0  0  0  0  0  0  0  0  0
   17.7420   -9.4054  -14.2388 C   0  0  0  0  0  0  0  0  0  0  0  0
   17.5360   -9.8700  -13.0882 O   0  0  0  0  0  0  0  0  0  0  0  0
   17.4576   -5.7018  -13.8946 C   0  0  0  0  0  0  0  0  0  0  0  0
   17.1216   -7.1076  -13.4130 C   0  0  2  0  0  0  0  0  0  0  0  0
   17.5714   -8.0247  -14.4336 N   0  0  0  0  0  0  0  0  0  0  0  0
   15.6592   -7.2263  -13.1657 C   0  0  0  0  0  0  0  0  0  0  0  0
   14.9495   -7.5315  -14.1669 O   0  0  0  0  0  0  0  0  0  0  0  0
   15.0517   -7.0218  -11.9131 N   0  0  0  0  0  0  0  0  0  0  0  0
   13.6060   -7.1993  -11.7051 C   0  0  1  0  0  0  0  0  0  0  0  0
   13.3666   -8.0614  -10.5058 C   0  0  0  0  0  0  0  0  0  0  0  0
   11.9226   -8.1661  -10.1685 C   0  0  0  0  0  0  0  0  0  0  0  0
   11.7040   -8.9395   -8.8663 C   0  0  0  0  0  0  0  0  0  0  0  0
   10.2341   -9.1068   -8.5753 C   0  0  0  0  0  0  0  0  0  0  0  0
    9.9883   -9.8867   -7.3898 N   0  0  0  0  0  0  0  0  0  0  0  0
   13.0289   -5.8674  -11.5198 C   0  0  0  0  0  0  0  0  0  0  0  0
   13.7311   -4.9225  -11.0917 O   0  0  0  0  0  0  0  0  0  0  0  0
   11.7134   -5.6116  -11.8096 O   0  0  0  0  0  0  0  0  0  0  0  0
  2  1  1  1
  2  5  1  0
  3  2  1  0
  4  3  1  0
  5  9  1  0
  5  6  2  0
  8  7  1  6
  9  8  1  0
 10  8  1  0
 10 11  2  0
 12 13  1  0
 12 10  1  0
 14 15  1  0
 13 14  1  1
 16 17  1  0
 16 15  1  0
 17 18  1  0
 19 13  1  0
 20 19  2  0
 21 19  1  0
M  END
$$$$
