CAK.pdb
     RDKit          3D

 21 20  0  0  1  0  0  0  0  0999 V2000
   20.5796  -14.1920  -18.3033 N   0  0  0  0  0  0  0  0  0  0  0  0
   19.7478  -13.0137  -18.2369 C   0  0  1  0  0  0  0  0  0  0  0  0
   18.4622  -13.4350  -17.5191 C   0  0  0  0  0  0  0  0  0  0  0  0
   17.5639  -14.6682  -18.4665 S   0  0  0  0  0  0  0  0  0  0  0  0
   20.3636  -11.9508  -17.4002 C   0  0  0  0  0  0  0  0  0  0  0  0
   19.8138  -11.6888  -16.2997 O   0  0  0  0  0  0  0  0  0  0  0  0
   23.3848   -9.7475  -17.6349 C   0  0  0  0  0  0  0  0  0  0  0  0
   22.0975  -10.1807  -16.9447 C   0  0  2  0  0  0  0  0  0  0  0  0
   21.5120  -11.2233  -17.7542 N   0  0  0  0  0  0  0  0  0  0  0  0
   21.1832   -9.0166  -16.7930 C   0  0  0  0  0  0  0  0  0  0  0  0
   20.5397   -8.6772  -17.8273 O   0  0  0  0  0  0  0  0  0  0  0  0
   21.0083   -8.3019  -15.5936 N   0  0  0  0  0  0  0  0  0  0  0  0
   20.0902   -7.1567  -15.4907 C   0  0  1  0  0  0  0  0  0  0  0  0
   18.7993   -7.5936  -14.8729 C   0  0  0  0  0  0  0  0  0  0  0  0
   17.7838   -7.9615  -15.8943 C   0  0  0  0  0  0  0  0  0  0  0  0
   16.4482   -8.3380  -15.2493 C   0  0  0  0  0  0  0  0  0  0  0  0
   15.4381   -8.7446  -16.2921 C   0  0  0  0  0  0  0  0  0  0  0  0
   14.2423   -9.3050  -15.7176 N   0  0  0  0  0  0  0  0  0  0  0  0
   20.7521   -6.1444  -14.6671 C   0  0  0  0  0  0  0  0  0  0  0  0
   21.8264   -6.4049  -14.0779 O   0  0  0  0  0  0  0  0  0  0  0  0
   20.2246   -4.8876  -14.5179 O   0  0  0  0  0  0  0  0  0  0  0  0
  2  1  1  1
  2  5  1  0
  3  2  1  0
  4  3  1  0
  5  9  1  0
  5  6  2  0
  8  7  1  6
  9  8  1  0
 10  8  1  0
 10 11  2  0
 12 13  1  0
 12 10  1  0
 14 15  1  0
 13 14  1  1
 16 17  1  0
 16 15  1  0
 17 18  1  0
 19 13  1  0
 20 19  2  0
 21 19  1  0
M  END
$$$$
