CAK.pdb
     RDKit          3D

 21 20  0  0  1  0  0  0  0  0999 V2000
   20.0119  -13.1130  -18.2208 N   0  0  0  0  0  0  0  0  0  0  0  0
   21.0188  -12.0917  -18.3882 C   0  0  1  0  0  0  0  0  0  0  0  0
   20.4395  -11.0747  -19.3758 C   0  0  0  0  0  0  0  0  0  0  0  0
   20.4813  -11.7055  -21.0568 S   0  0  0  0  0  0  0  0  0  0  0  0
   21.2676  -11.3506  -17.1241 C   0  0  0  0  0  0  0  0  0  0  0  0
   20.2679  -10.8833  -16.5204 O   0  0  0  0  0  0  0  0  0  0  0  0
   24.2069  -10.6189  -14.9362 C   0  0  0  0  0  0  0  0  0  0  0  0
   22.7863  -10.3199  -15.3983 C   0  0  2  0  0  0  0  0  0  0  0  0
   22.5372  -11.1384  -16.5615 N   0  0  0  0  0  0  0  0  0  0  0  0
   22.6421   -8.8698  -15.6990 C   0  0  0  0  0  0  0  0  0  0  0  0
   23.0249   -8.4996  -16.8460 O   0  0  0  0  0  0  0  0  0  0  0  0
   22.1178   -7.9254  -14.7972 N   0  0  0  0  0  0  0  0  0  0  0  0
   21.9738   -6.5036  -15.1474 C   0  0  1  0  0  0  0  0  0  0  0  0
   20.6010   -6.2486  -15.6852 C   0  0  0  0  0  0  0  0  0  0  0  0
   20.3714   -4.8097  -15.9796 C   0  0  0  0  0  0  0  0  0  0  0  0
   18.9590   -4.5635  -16.5146 C   0  0  0  0  0  0  0  0  0  0  0  0
   18.7287   -3.0979  -16.7831 C   0  0  0  0  0  0  0  0  0  0  0  0
   17.4094   -2.8278  -17.2934 N   0  0  0  0  0  0  0  0  0  0  0  0
   22.2133   -5.7314  -13.9277 C   0  0  0  0  0  0  0  0  0  0  0  0
   22.0278   -6.2462  -12.8008 O   0  0  0  0  0  0  0  0  0  0  0  0
   22.6481   -4.4320  -13.9780 O   0  0  0  0  0  0  0  0  0  0  0  0
  2  1  1  1
  2  5  1  0
  3  2  1  0
  4  3  1  0
  5  9  1  0
  5  6  2  0
  8  7  1  6
  9  8  1  0
 10  8  1  0
 10 11  2  0
 12 13  1  0
 12 10  1  0
 14 15  1  0
 13 14  1  1
 16 17  1  0
 16 15  1  0
 17 18  1  0
 19 13  1  0
 20 19  2  0
 21 19  1  0
M  END
$$$$
