CAK.pdb
     RDKit          3D

 21 20  0  0  1  0  0  0  0  0999 V2000
   16.6524  -10.9978  -16.0450 N   0  0  0  0  0  0  0  0  0  0  0  0
   16.2346  -11.5947  -14.7984 C   0  0  1  0  0  0  0  0  0  0  0  0
   16.9275  -12.9583  -14.7212 C   0  0  0  0  0  0  0  0  0  0  0  0
   16.1023  -14.1658  -15.7634 S   0  0  0  0  0  0  0  0  0  0  0  0
   16.7141  -10.8162  -13.6266 C   0  0  0  0  0  0  0  0  0  0  0  0
   16.3123  -11.1743  -12.4898 O   0  0  0  0  0  0  0  0  0  0  0  0
   19.0659   -7.9544  -13.0705 C   0  0  0  0  0  0  0  0  0  0  0  0
   18.0284   -8.9482  -12.5634 C   0  0  2  0  0  0  0  0  0  0  0  0
   17.5810   -9.7135  -13.7033 N   0  0  0  0  0  0  0  0  0  0  0  0
   16.9068   -8.2242  -11.9064 C   0  0  0  0  0  0  0  0  0  0  0  0
   16.1214   -7.6003  -12.6767 O   0  0  0  0  0  0  0  0  0  0  0  0
   16.6880   -8.2029  -10.5166 N   0  0  0  0  0  0  0  0  0  0  0  0
   15.5536   -7.4863   -9.9129 C   0  0  1  0  0  0  0  0  0  0  0  0
   14.5435   -8.4674   -9.4067 C   0  0  0  0  0  0  0  0  0  0  0  0
   13.3529   -7.7964   -8.8216 C   0  0  0  0  0  0  0  0  0  0  0  0
   12.2860   -8.8098   -8.4017 C   0  0  0  0  0  0  0  0  0  0  0  0
   11.0794   -8.1173   -7.8205 C   0  0  0  0  0  0  0  0  0  0  0  0
   10.0598   -9.0417   -7.3964 N   0  0  0  0  0  0  0  0  0  0  0  0
   16.0883   -6.6709   -8.8219 C   0  0  0  0  0  0  0  0  0  0  0  0
   15.3405   -5.9008   -8.1761 O   0  0  0  0  0  0  0  0  0  0  0  0
   17.4128   -6.7253   -8.4715 O   0  0  0  0  0  0  0  0  0  0  0  0
  2  1  1  6
  2  5  1  0
  3  2  1  0
  4  3  1  0
  5  9  1  0
  5  6  2  0
  8  7  1  6
  9  8  1  0
 10  8  1  0
 10 11  2  0
 12 13  1  0
 12 10  1  0
 14 15  1  0
 13 14  1  1
 16 17  1  0
 16 15  1  0
 17 18  1  0
 19 13  1  0
 20 19  2  0
 21 19  1  0
M  END
$$$$
