CAK.pdb
     RDKit          3D

 21 20  0  0  1  0  0  0  0  0999 V2000
   25.7246  -22.2096  -14.2946 N   0  0  0  0  0  0  0  0  0  0  0  0
   24.3942  -22.5792  -14.7164 C   0  0  1  0  0  0  0  0  0  0  0  0
   24.2862  -24.0942  -14.5199 C   0  0  0  0  0  0  0  0  0  0  0  0
   25.2111  -24.9798  -15.7792 S   0  0  0  0  0  0  0  0  0  0  0  0
   23.3519  -21.9708  -13.8489 C   0  0  0  0  0  0  0  0  0  0  0  0
   23.5511  -21.9854  -12.6071 O   0  0  0  0  0  0  0  0  0  0  0  0
   20.8442  -19.4160  -14.0365 C   0  0  0  0  0  0  0  0  0  0  0  0
   21.1546  -20.7971  -13.4731 C   0  0  2  0  0  0  0  0  0  0  0  0
   22.1659  -21.3838  -14.3204 N   0  0  0  0  0  0  0  0  0  0  0  0
   19.9169  -21.6220  -13.4335 C   0  0  0  0  0  0  0  0  0  0  0  0
   19.6064  -22.2096  -14.5094 O   0  0  0  0  0  0  0  0  0  0  0  0
   19.1052  -21.7725  -12.2941 N   0  0  0  0  0  0  0  0  0  0  0  0
   17.8692  -22.5706  -12.3125 C   0  0  1  0  0  0  0  0  0  0  0  0
   17.3888  -22.7968  -10.9135 C   0  0  0  0  0  0  0  0  0  0  0  0
   18.2974  -23.6875  -10.1448 C   0  0  0  0  0  0  0  0  0  0  0  0
   17.8080  -23.8856   -8.7085 C   0  0  0  0  0  0  0  0  0  0  0  0
   18.7238  -24.8095   -7.9463 C   0  0  0  0  0  0  0  0  0  0  0  0
   18.3173  -24.9876   -6.5762 N   0  0  0  0  0  0  0  0  0  0  0  0
   16.8831  -21.8229  -13.0934 C   0  0  0  0  0  0  0  0  0  0  0  0
   16.8503  -20.5714  -13.0479 O   0  0  0  0  0  0  0  0  0  0  0  0
   15.9734  -22.4618  -13.8960 O   0  0  0  0  0  0  0  0  0  0  0  0
  2  1  1  1
  2  5  1  0
  3  2  1  0
  4  3  1  0
  5  9  1  0
  5  6  2  0
  8  7  1  6
  9  8  1  0
 10  8  1  0
 10 11  2  0
 12 13  1  0
 12 10  1  0
 14 15  1  0
 13 14  1  1
 16 17  1  0
 16 15  1  0
 17 18  1  0
 19 13  1  0
 20 19  2  0
 21 19  1  0
M  END
$$$$
