CAK.pdb
     RDKit          3D

 21 20  0  0  1  0  0  0  0  0999 V2000
   18.9389  -13.4712  -16.3973 N   0  0  0  0  0  0  0  0  0  0  0  0
   19.7697  -12.4641  -17.0138 C   0  0  1  0  0  0  0  0  0  0  0  0
   19.1029  -12.1140  -18.3474 C   0  0  0  0  0  0  0  0  0  0  0  0
   19.3442  -13.4198  -19.5565 S   0  0  0  0  0  0  0  0  0  0  0  0
   19.7961  -11.2088  -16.2185 C   0  0  0  0  0  0  0  0  0  0  0  0
   18.6988  -10.7777  -15.7802 O   0  0  0  0  0  0  0  0  0  0  0  0
   22.4490   -8.9621  -14.8363 C   0  0  0  0  0  0  0  0  0  0  0  0
   20.9852   -9.2842  -15.1100 C   0  0  2  0  0  0  0  0  0  0  0  0
   20.9580  -10.4758  -15.9251 N   0  0  0  0  0  0  0  0  0  0  0  0
   20.3276   -8.1338  -15.7867 C   0  0  0  0  0  0  0  0  0  0  0  0
   20.4548   -8.0822  -17.0439 O   0  0  0  0  0  0  0  0  0  0  0  0
   19.5966   -7.1363  -15.1154 N   0  0  0  0  0  0  0  0  0  0  0  0
   18.9841   -6.0022  -15.8251 C   0  0  1  0  0  0  0  0  0  0  0  0
   17.5782   -5.8056  -15.3522 C   0  0  0  0  0  0  0  0  0  0  0  0
   16.9312   -4.6279  -15.9881 C   0  0  0  0  0  0  0  0  0  0  0  0
   15.4946   -4.4412  -15.4952 C   0  0  0  0  0  0  0  0  0  0  0  0
   14.8228   -3.2931  -16.2051 C   0  0  0  0  0  0  0  0  0  0  0  0
   13.4364   -3.1511  -15.8420 N   0  0  0  0  0  0  0  0  0  0  0  0
   19.8038   -4.8229  -15.5446 C   0  0  0  0  0  0  0  0  0  0  0  0
   20.3907   -4.7016  -14.4446 O   0  0  0  0  0  0  0  0  0  0  0  0
   19.9578   -3.8228  -16.4699 O   0  0  0  0  0  0  0  0  0  0  0  0
  2  1  1  1
  2  5  1  0
  3  2  1  0
  4  3  1  0
  5  9  1  0
  5  6  2  0
  8  7  1  6
  9  8  1  0
 10  8  1  0
 10 11  2  0
 12 13  1  0
 12 10  1  0
 14 15  1  0
 13 14  1  1
 16 17  1  0
 16 15  1  0
 17 18  1  0
 19 13  1  0
 20 19  2  0
 21 19  1  0
M  END
$$$$
