CAK.pdb
     RDKit          3D

 21 20  0  0  1  0  0  0  0  0999 V2000
   17.7035  -14.7091  -17.7352 N   0  0  0  0  0  0  0  0  0  0  0  0
   17.5231  -13.6350  -16.7873 C   0  0  1  0  0  0  0  0  0  0  0  0
   17.9583  -14.1853  -15.4260 C   0  0  0  0  0  0  0  0  0  0  0  0
   16.8534  -15.4867  -14.8683 S   0  0  0  0  0  0  0  0  0  0  0  0
   18.4198  -12.4861  -17.0789 C   0  0  0  0  0  0  0  0  0  0  0  0
   19.6133  -12.7449  -17.3797 O   0  0  0  0  0  0  0  0  0  0  0  0
   18.0093   -8.7751  -17.3799 C   0  0  0  0  0  0  0  0  0  0  0  0
   18.8691  -10.0319  -17.4280 C   0  0  2  0  0  0  0  0  0  0  0  0
   18.0257  -11.1383  -17.0411 N   0  0  0  0  0  0  0  0  0  0  0  0
   20.0403   -9.8838  -16.5223 C   0  0  0  0  0  0  0  0  0  0  0  0
   19.8408  -10.1658  -15.3057 O   0  0  0  0  0  0  0  0  0  0  0  0
   21.3142   -9.4595  -16.9428 N   0  0  0  0  0  0  0  0  0  0  0  0
   22.4557   -9.3723  -16.0186 C   0  0  1  0  0  0  0  0  0  0  0  0
   23.6702   -9.9749  -16.6518 C   0  0  0  0  0  0  0  0  0  0  0  0
   24.8463   -9.9545  -15.7429 C   0  0  0  0  0  0  0  0  0  0  0  0
   26.0631  -10.6266  -16.3826 C   0  0  0  0  0  0  0  0  0  0  0  0
   27.2342  -10.6446  -15.4331 C   0  0  0  0  0  0  0  0  0  0  0  0
   28.3769  -11.3341  -15.9744 N   0  0  0  0  0  0  0  0  0  0  0  0
   22.6649   -7.9547  -15.7221 C   0  0  0  0  0  0  0  0  0  0  0  0
   22.4900   -7.0859  -16.6074 O   0  0  0  0  0  0  0  0  0  0  0  0
   23.0523   -7.5346  -14.4757 O   0  0  0  0  0  0  0  0  0  0  0  0
  2  1  1  6
  2  5  1  0
  3  2  1  0
  4  3  1  0
  5  9  1  0
  5  6  2  0
  8  7  1  1
  9  8  1  0
 10  8  1  0
 10 11  2  0
 12 13  1  0
 12 10  1  0
 14 15  1  0
 13 14  1  6
 16 17  1  0
 16 15  1  0
 17 18  1  0
 19 13  1  0
 20 19  2  0
 21 19  1  0
M  END
$$$$
