CAK.pdb
     RDKit          3D

 21 20  0  0  1  0  0  0  0  0999 V2000
   20.8866  -15.3847  -16.6756 N   0  0  0  0  0  0  0  0  0  0  0  0
   21.7159  -14.3523  -17.2511 C   0  0  1  0  0  0  0  0  0  0  0  0
   20.9488  -13.8090  -18.4602 C   0  0  0  0  0  0  0  0  0  0  0  0
   20.6581  -15.0973  -19.6772 S   0  0  0  0  0  0  0  0  0  0  0  0
   21.8946  -13.2067  -16.3213 C   0  0  0  0  0  0  0  0  0  0  0  0
   20.8672  -12.7575  -15.7516 O   0  0  0  0  0  0  0  0  0  0  0  0
   24.7830  -11.1690  -15.0769 C   0  0  0  0  0  0  0  0  0  0  0  0
   23.2887  -11.4493  -15.1745 C   0  0  2  0  0  0  0  0  0  0  0  0
   23.1273  -12.5954  -16.0378 N   0  0  0  0  0  0  0  0  0  0  0  0
   22.5785  -10.2529  -15.7019 C   0  0  0  0  0  0  0  0  0  0  0  0
   22.3317  -10.2553  -16.9422 O   0  0  0  0  0  0  0  0  0  0  0  0
   22.1832   -9.1579  -14.9115 N   0  0  0  0  0  0  0  0  0  0  0  0
   21.4458   -8.0139  -15.4703 C   0  0  1  0  0  0  0  0  0  0  0  0
   20.1325   -8.4746  -16.0200 C   0  0  0  0  0  0  0  0  0  0  0  0
   19.3099   -7.3462  -16.5295 C   0  0  0  0  0  0  0  0  0  0  0  0
   17.9509   -7.8277  -17.0424 C   0  0  0  0  0  0  0  0  0  0  0  0
   17.0982   -6.6675  -17.4896 C   0  0  0  0  0  0  0  0  0  0  0  0
   15.9180   -7.0877  -18.2002 N   0  0  0  0  0  0  0  0  0  0  0  0
   21.2537   -7.0513  -14.3851 C   0  0  0  0  0  0  0  0  0  0  0  0
   21.2179   -7.4339  -13.1927 O   0  0  0  0  0  0  0  0  0  0  0  0
   21.1116   -5.7107  -14.6353 O   0  0  0  0  0  0  0  0  0  0  0  0
  2  1  1  1
  2  5  1  0
  3  2  1  0
  4  3  1  0
  5  9  1  0
  5  6  2  0
  8  7  1  6
  9  8  1  0
 10  8  1  0
 10 11  2  0
 12 13  1  0
 12 10  1  0
 14 15  1  0
 13 14  1  1
 16 17  1  0
 16 15  1  0
 17 18  1  0
 19 13  1  0
 20 19  2  0
 21 19  1  0
M  END
$$$$
