CAK.pdb
     RDKit          3D

 21 20  0  0  1  0  0  0  0  0999 V2000
   18.4548  -11.8576  -15.0685 N   0  0  0  0  0  0  0  0  0  0  0  0
   17.7447  -10.6103  -15.2258 C   0  0  1  0  0  0  0  0  0  0  0  0
   16.2541  -10.9618  -15.2302 C   0  0  0  0  0  0  0  0  0  0  0  0
   15.7532  -11.6468  -16.8130 S   0  0  0  0  0  0  0  0  0  0  0  0
   17.9565   -9.7054  -14.0659 C   0  0  0  0  0  0  0  0  0  0  0  0
   17.9460  -10.2217  -12.9190 O   0  0  0  0  0  0  0  0  0  0  0  0
   18.7858   -6.0904  -13.5764 C   0  0  0  0  0  0  0  0  0  0  0  0
   18.3297   -7.4384  -13.0323 C   0  0  2  0  0  0  0  0  0  0  0  0
   18.1664   -8.3198  -14.1642 N   0  0  0  0  0  0  0  0  0  0  0  0
   17.0638   -7.2778  -12.2669 C   0  0  0  0  0  0  0  0  0  0  0  0
   15.9998   -7.2615  -12.9502 O   0  0  0  0  0  0  0  0  0  0  0  0
   16.9991   -7.1479  -10.8673 N   0  0  0  0  0  0  0  0  0  0  0  0
   15.7370   -6.8711  -10.1636 C   0  0  1  0  0  0  0  0  0  0  0  0
   15.6779   -7.6621   -8.8948 C   0  0  0  0  0  0  0  0  0  0  0  0
   14.4496   -7.3725   -8.1091 C   0  0  0  0  0  0  0  0  0  0  0  0
   13.4500   -8.5289   -8.1817 C   0  0  0  0  0  0  0  0  0  0  0  0
   12.1627   -8.1777   -7.4797 C   0  0  0  0  0  0  0  0  0  0  0  0
   11.1994   -9.2475   -7.5190 N   0  0  0  0  0  0  0  0  0  0  0  0
   15.7003   -5.4340   -9.8904 C   0  0  0  0  0  0  0  0  0  0  0  0
   16.7621   -4.7763   -9.7939 O   0  0  0  0  0  0  0  0  0  0  0  0
   14.5131   -4.7657   -9.7361 O   0  0  0  0  0  0  0  0  0  0  0  0
  2  1  1  1
  2  5  1  0
  3  2  1  0
  4  3  1  0
  5  9  1  0
  5  6  2  0
  8  7  1  6
  9  8  1  0
 10  8  1  0
 10 11  2  0
 12 13  1  0
 12 10  1  0
 14 15  1  0
 13 14  1  1
 16 17  1  0
 16 15  1  0
 17 18  1  0
 19 13  1  0
 20 19  2  0
 21 19  1  0
M  END
$$$$
