CAK.pdb
     RDKit          3D

 21 20  0  0  1  0  0  0  0  0999 V2000
   28.3754  -21.0650  -15.7186 N   0  0  0  0  0  0  0  0  0  0  0  0
   27.8922  -20.2619  -14.6204 C   0  0  1  0  0  0  0  0  0  0  0  0
   27.3964  -18.9490  -15.2334 C   0  0  0  0  0  0  0  0  0  0  0  0
   28.7649  -17.9620  -15.8485 S   0  0  0  0  0  0  0  0  0  0  0  0
   26.7156  -20.8838  -13.9586 C   0  0  0  0  0  0  0  0  0  0  0  0
   26.0774  -21.7515  -14.6081 O   0  0  0  0  0  0  0  0  0  0  0  0
   25.1677  -20.7617  -10.5553 C   0  0  0  0  0  0  0  0  0  0  0  0
   25.1413  -21.1932  -12.0162 C   0  0  2  0  0  0  0  0  0  0  0  0
   26.2711  -20.5692  -12.6637 N   0  0  0  0  0  0  0  0  0  0  0  0
   23.8523  -20.7938  -12.6430 C   0  0  0  0  0  0  0  0  0  0  0  0
   23.6880  -19.5545  -12.8340 O   0  0  0  0  0  0  0  0  0  0  0  0
   22.8437  -21.6999  -13.0194 N   0  0  0  0  0  0  0  0  0  0  0  0
   21.5669  -21.2546  -13.5993 C   0  0  1  0  0  0  0  0  0  0  0  0
   20.7720  -22.4396  -14.0497 C   0  0  0  0  0  0  0  0  0  0  0  0
   19.4728  -22.0469  -14.6560 C   0  0  0  0  0  0  0  0  0  0  0  0
   18.6784  -23.2683  -15.1238 C   0  0  0  0  0  0  0  0  0  0  0  0
   17.3956  -22.8545  -15.7994 C   0  0  0  0  0  0  0  0  0  0  0  0
   16.5968  -23.9801  -16.2103 N   0  0  0  0  0  0  0  0  0  0  0  0
   20.8568  -20.5084  -12.5601 C   0  0  0  0  0  0  0  0  0  0  0  0
   20.2007  -19.4810  -12.8487 O   0  0  0  0  0  0  0  0  0  0  0  0
   20.8830  -20.9078  -11.2487 O   0  0  0  0  0  0  0  0  0  0  0  0
  2  1  1  6
  2  5  1  0
  3  2  1  0
  4  3  1  0
  5  9  1  0
  5  6  2  0
  8  7  1  1
  9  8  1  0
 10  8  1  0
 10 11  2  0
 12 13  1  0
 12 10  1  0
 14 15  1  0
 13 14  1  1
 16 17  1  0
 16 15  1  0
 17 18  1  0
 19 13  1  0
 20 19  2  0
 21 19  1  0
M  END
$$$$
