CAK.pdb
     RDKit          3D

 21 20  0  0  1  0  0  0  0  0999 V2000
   17.5825  -13.8401  -15.2108 N   0  0  0  0  0  0  0  0  0  0  0  0
   17.4721  -12.7600  -16.1625 C   0  0  1  0  0  0  0  0  0  0  0  0
   16.0006  -12.7066  -16.5835 C   0  0  0  0  0  0  0  0  0  0  0  0
   15.5965  -14.0511  -17.7035 S   0  0  0  0  0  0  0  0  0  0  0  0
   17.7762  -11.4445  -15.5411 C   0  0  0  0  0  0  0  0  0  0  0  0
   17.1472  -11.1387  -14.4957 O   0  0  0  0  0  0  0  0  0  0  0  0
   20.3073   -8.7475  -16.0574 C   0  0  0  0  0  0  0  0  0  0  0  0
   19.0197   -9.2567  -15.4218 C   0  0  2  0  0  0  0  0  0  0  0  0
   18.7137  -10.5251  -16.0403 N   0  0  0  0  0  0  0  0  0  0  0  0
   17.9272   -8.2658  -15.6180 C   0  0  0  0  0  0  0  0  0  0  0  0
   17.2999   -8.3402  -16.7136 O   0  0  0  0  0  0  0  0  0  0  0  0
   17.5730   -7.2846  -14.6736 N   0  0  0  0  0  0  0  0  0  0  0  0
   16.5187   -6.2917  -14.9332 C   0  0  1  0  0  0  0  0  0  0  0  0
   15.4467   -6.4048  -13.8954 C   0  0  0  0  0  0  0  0  0  0  0  0
   14.4186   -5.3397  -14.0315 C   0  0  0  0  0  0  0  0  0  0  0  0
   13.4064   -5.3854  -12.8847 C   0  0  0  0  0  0  0  0  0  0  0  0
   12.3837   -4.2859  -13.0203 C   0  0  0  0  0  0  0  0  0  0  0  0
   11.3439   -4.3697  -12.0272 N   0  0  0  0  0  0  0  0  0  0  0  0
   17.1493   -4.9718  -14.8972 C   0  0  0  0  0  0  0  0  0  0  0  0
   18.1999   -4.7851  -14.2409 O   0  0  0  0  0  0  0  0  0  0  0  0
   16.6177   -3.9066  -15.5775 O   0  0  0  0  0  0  0  0  0  0  0  0
  2  1  1  1
  2  5  1  0
  3  2  1  0
  4  3  1  0
  5  9  1  0
  5  6  2  0
  8  7  1  6
  9  8  1  0
 10  8  1  0
 10 11  2  0
 12 13  1  0
 12 10  1  0
 14 15  1  0
 13 14  1  1
 16 17  1  0
 16 15  1  0
 17 18  1  0
 19 13  1  0
 20 19  2  0
 21 19  1  0
M  END
$$$$
