IML.pdb
     RDKit          3D

 25 24  0  0  1  0  0  0  0  0999 V2000
   16.9849  -11.1326  -22.9459 C   0  0  0  0  0  0  0  0  0  0  0  0
   18.0165  -10.9576  -21.8756 C   0  0  0  0  0  0  0  0  0  0  0  0
   17.4729  -10.3556  -20.6054 C   0  0  2  0  0  0  0  0  0  0  0  0
   16.9531   -8.9697  -20.7633 C   0  0  0  0  0  0  0  0  0  0  0  0
   18.6143  -10.3177  -19.5996 C   0  0  2  0  0  0  0  0  0  0  0  0
   19.2532  -11.6094  -19.4782 N   0  0  0  0  0  0  0  0  0  0  0  0
   18.1571   -9.8774  -18.2589 C   0  0  0  0  0  0  0  0  0  0  0  0
   17.5719   -8.7790  -18.0623 O   0  0  0  0  0  0  0  0  0  0  0  0
   17.1596  -14.6861  -14.3942 C   0  0  0  0  0  0  0  0  0  0  0  0
   16.2075  -14.0221  -15.7866 S   0  0  0  0  0  0  0  0  0  0  0  0
   16.1479  -12.1949  -15.6993 C   0  0  0  0  0  0  0  0  0  0  0  0
   17.4085  -11.6431  -15.1124 C   0  0  0  0  0  0  0  0  0  0  0  0
   17.8127  -10.3926  -15.7939 C   0  0  2  0  0  0  0  0  0  0  0  0
   18.3626  -10.6875  -17.1223 N   0  0  0  0  0  0  0  0  0  0  0  0
   18.8615   -9.6859  -15.0678 C   0  0  0  0  0  0  0  0  0  0  0  0
   18.7001   -9.4600  -13.8190 O   0  0  0  0  0  0  0  0  0  0  0  0
   22.5967  -10.7568  -13.5520 C   0  0  0  0  0  0  0  0  0  0  0  0
   22.7780  -10.3734  -15.0026 C   0  0  2  0  0  0  0  0  0  0  0  0
   24.0509  -10.8282  -15.6132 C   0  0  0  0  0  0  0  0  0  0  0  0
   22.3641   -8.9980  -15.3470 C   0  0  0  0  0  0  0  0  0  0  0  0
   21.0552   -8.4992  -14.8321 C   0  0  2  0  0  0  0  0  0  0  0  0
   20.0476   -9.2405  -15.6418 N   0  0  0  0  0  0  0  0  0  0  0  0
   20.8122   -7.0666  -14.9247 C   0  0  0  0  0  0  0  0  0  0  0  0
   21.2198   -6.1159  -13.9791 O   0  0  0  0  0  0  0  0  0  0  0  0
   20.1869   -6.5932  -15.9112 O   0  0  0  0  0  0  0  0  0  0  0  0
  1  2  1  0
  3  4  1  6
  3  2  1  0
  5  3  1  0
  5  6  1  1
  7  5  1  0
  8  7  2  0
 10 11  1  0
 10  9  1  0
 11 12  1  0
 13 12  1  1
 13 14  1  0
 14  7  1  0
 15 22  1  0
 15 13  1  0
 16 15  2  0
 18 19  1  1
 18 17  1  0
 20 18  1  0
 21 20  1  6
 21 22  1  0
 23 24  1  0
 23 21  1  0
 25 23  2  0
M  END
$$$$
