IML.pdb
     RDKit          3D

 25 24  0  0  1  0  0  0  0  0999 V2000
   19.1728  -16.8181  -16.4858 C   0  0  0  0  0  0  0  0  0  0  0  0
   18.0515  -15.9186  -16.9027 C   0  0  0  0  0  0  0  0  0  0  0  0
   18.4798  -14.4952  -17.1519 C   0  0  2  0  0  0  0  0  0  0  0  0
   18.9760  -13.7884  -15.9395 C   0  0  0  0  0  0  0  0  0  0  0  0
   17.2630  -13.7421  -17.6699 C   0  0  2  0  0  0  0  0  0  0  0  0
   16.7255  -14.3637  -18.8600 N   0  0  0  0  0  0  0  0  0  0  0  0
   17.5746  -12.3223  -17.9657 C   0  0  0  0  0  0  0  0  0  0  0  0
   18.2053  -11.9604  -18.9947 O   0  0  0  0  0  0  0  0  0  0  0  0
   15.8129   -4.7427  -16.8989 C   0  0  0  0  0  0  0  0  0  0  0  0
   15.3030   -6.4768  -17.0357 S   0  0  0  0  0  0  0  0  0  0  0  0
   16.7725   -7.5639  -17.1280 C   0  0  0  0  0  0  0  0  0  0  0  0
   16.3772   -9.0064  -17.0964 C   0  0  0  0  0  0  0  0  0  0  0  0
   17.5586   -9.8874  -17.2367 C   0  0  2  0  0  0  0  0  0  0  0  0
   17.1690  -11.2946  -17.0883 N   0  0  0  0  0  0  0  0  0  0  0  0
   18.5593   -9.6322  -16.2071 C   0  0  0  0  0  0  0  0  0  0  0  0
   18.3513  -10.0732  -15.0243 O   0  0  0  0  0  0  0  0  0  0  0  0
   23.9318  -10.9998  -15.0635 C   0  0  0  0  0  0  0  0  0  0  0  0
   22.8016  -10.1072  -14.6052 C   0  0  2  0  0  0  0  0  0  0  0  0
   22.2960  -10.3929  -13.2403 C   0  0  0  0  0  0  0  0  0  0  0  0
   21.7659   -9.8305  -15.6212 C   0  0  0  0  0  0  0  0  0  0  0  0
   20.7459   -8.7809  -15.3295 C   0  0  2  0  0  0  0  0  0  0  0  0
   19.7467   -8.9409  -16.4233 N   0  0  0  0  0  0  0  0  0  0  0  0
   21.2128   -7.4027  -15.2791 C   0  0  0  0  0  0  0  0  0  0  0  0
   21.6076   -6.7261  -14.1170 O   0  0  0  0  0  0  0  0  0  0  0  0
   21.2824   -6.7190  -16.3355 O   0  0  0  0  0  0  0  0  0  0  0  0
  1  2  1  0
  3  4  1  1
  3  2  1  0
  5  3  1  0
  5  6  1  6
  7  5  1  0
  8  7  2  0
 10 11  1  0
 10  9  1  0
 11 12  1  0
 13 12  1  1
 13 14  1  0
 14  7  1  0
 15 22  1  0
 15 13  1  0
 16 15  2  0
 18 19  1  1
 18 17  1  0
 20 18  1  0
 21 20  1  6
 21 22  1  0
 23 24  1  0
 23 21  1  0
 25 23  2  0
M  END
$$$$
