IML.pdb
     RDKit          3D

 25 24  0  0  1  0  0  0  0  0999 V2000
   23.6830  -18.7423  -12.8543 C   0  0  0  0  0  0  0  0  0  0  0  0
   23.3660  -20.1604  -12.4954 C   0  0  0  0  0  0  0  0  0  0  0  0
   24.2799  -20.7360  -11.4442 C   0  0  2  0  0  0  0  0  0  0  0  0
   24.3755  -19.9153  -10.2061 C   0  0  0  0  0  0  0  0  0  0  0  0
   25.6703  -20.8272  -12.0561 C   0  0  2  0  0  0  0  0  0  0  0  0
   25.6526  -21.5701  -13.2969 N   0  0  0  0  0  0  0  0  0  0  0  0
   26.6430  -21.4571  -11.1303 C   0  0  0  0  0  0  0  0  0  0  0  0
   26.5630  -22.6620  -10.7700 O   0  0  0  0  0  0  0  0  0  0  0  0
   32.4425  -22.5089  -11.7320 C   0  0  0  0  0  0  0  0  0  0  0  0
   32.6527  -22.1127   -9.9756 S   0  0  0  0  0  0  0  0  0  0  0  0
   31.0247  -21.8153   -9.1941 C   0  0  0  0  0  0  0  0  0  0  0  0
   30.0395  -21.2867  -10.1881 C   0  0  0  0  0  0  0  0  0  0  0  0
   28.6742  -21.2450   -9.6171 C   0  0  2  0  0  0  0  0  0  0  0  0
   27.7225  -20.7180  -10.6023 N   0  0  0  0  0  0  0  0  0  0  0  0
   28.5901  -20.3629   -8.4589 C   0  0  0  0  0  0  0  0  0  0  0  0
   27.7699  -19.3816   -8.4912 O   0  0  0  0  0  0  0  0  0  0  0  0
   27.3112  -17.6989   -4.6174 C   0  0  0  0  0  0  0  0  0  0  0  0
   27.0283  -19.1826   -4.6704 C   0  0  2  0  0  0  0  0  0  0  0  0
   27.1052  -19.8789   -3.3631 C   0  0  0  0  0  0  0  0  0  0  0  0
   27.6378  -19.8997   -5.8089 C   0  0  0  0  0  0  0  0  0  0  0  0
   29.0830  -19.6706   -6.1022 C   0  0  2  0  0  0  0  0  0  0  0  0
   29.3426  -20.5188   -7.2995 N   0  0  0  0  0  0  0  0  0  0  0  0
   30.0306  -19.9966   -5.0459 C   0  0  0  0  0  0  0  0  0  0  0  0
   30.5197  -19.0927   -4.0930 O   0  0  0  0  0  0  0  0  0  0  0  0
   30.4802  -21.1690   -4.9387 O   0  0  0  0  0  0  0  0  0  0  0  0
  1  2  1  0
  3  4  1  1
  3  2  1  0
  5  3  1  0
  5  6  1  6
  7  5  1  0
  8  7  2  0
 10 11  1  0
 10  9  1  0
 11 12  1  0
 13 12  1  6
 13 14  1  0
 14  7  1  0
 15 22  1  0
 15 13  1  0
 16 15  2  0
 18 19  1  1
 18 17  1  0
 20 18  1  0
 21 20  1  1
 21 22  1  0
 23 24  1  0
 23 21  1  0
 25 23  2  0
M  END
$$$$
