IML.pdb
     RDKit          3D

 25 24  0  0  1  0  0  0  0  0999 V2000
   22.9080  -32.3236   -8.4921 C   0  0  0  0  0  0  0  0  0  0  0  0
   24.3430  -32.1123   -8.8614 C   0  0  0  0  0  0  0  0  0  0  0  0
   25.2792  -33.1222   -8.2490 C   0  0  2  0  0  0  0  0  0  0  0  0
   25.2669  -33.1386   -6.7606 C   0  0  0  0  0  0  0  0  0  0  0  0
   26.6872  -32.7658   -8.7035 C   0  0  2  0  0  0  0  0  0  0  0  0
   26.7937  -32.7741  -10.1458 N   0  0  0  0  0  0  0  0  0  0  0  0
   27.7020  -33.6888   -8.1393 C   0  0  0  0  0  0  0  0  0  0  0  0
   28.0272  -34.7712   -8.6965 O   0  0  0  0  0  0  0  0  0  0  0  0
   33.7902  -32.6551   -7.1373 C   0  0  0  0  0  0  0  0  0  0  0  0
   33.3267  -33.3016   -5.5084 S   0  0  0  0  0  0  0  0  0  0  0  0
   31.7711  -34.2586   -5.6259 C   0  0  0  0  0  0  0  0  0  0  0  0
   30.6907  -33.4514   -6.2733 C   0  0  0  0  0  0  0  0  0  0  0  0
   29.4237  -34.2139   -6.3447 C   0  0  2  0  0  0  0  0  0  0  0  0
   28.3605  -33.3876   -6.9285 N   0  0  0  0  0  0  0  0  0  0  0  0
   28.9489  -34.6144   -5.0254 C   0  0  0  0  0  0  0  0  0  0  0  0
   28.3049  -33.7641   -4.3190 O   0  0  0  0  0  0  0  0  0  0  0  0
   26.4850  -38.2681   -3.2568 C   0  0  0  0  0  0  0  0  0  0  0  0
   27.9344  -38.5930   -3.5359 C   0  0  2  0  0  0  0  0  0  0  0  0
   28.2843  -40.0298   -3.4214 C   0  0  0  0  0  0  0  0  0  0  0  0
   28.9138  -37.6524   -2.9548 C   0  0  0  0  0  0  0  0  0  0  0  0
   28.6643  -36.1879   -3.0969 C   0  0  2  0  0  0  0  0  0  0  0  0
   29.1404  -35.8771   -4.4742 N   0  0  0  0  0  0  0  0  0  0  0  0
   29.3163  -35.3109   -2.1347 C   0  0  0  0  0  0  0  0  0  0  0  0
   28.7286  -34.8230   -0.9596 O   0  0  0  0  0  0  0  0  0  0  0  0
   30.5011  -34.9279   -2.3289 O   0  0  0  0  0  0  0  0  0  0  0  0
  1  2  1  0
  3  4  1  1
  3  2  1  0
  5  3  1  0
  5  6  1  6
  7  5  1  0
  8  7  2  0
 10 11  1  0
 10  9  1  0
 11 12  1  0
 13 12  1  1
 13 14  1  0
 14  7  1  0
 15 22  1  0
 15 13  1  0
 16 15  2  0
 18 19  1  1
 18 17  1  0
 20 18  1  0
 21 20  1  1
 21 22  1  0
 23 24  1  0
 23 21  1  0
 25 23  2  0
M  END
$$$$
