IML.pdb
     RDKit          3D

 25 24  0  0  1  0  0  0  0  0999 V2000
   18.4331  -13.5804  -21.6409 C   0  0  0  0  0  0  0  0  0  0  0  0
   19.6777  -13.9590  -20.9007 C   0  0  0  0  0  0  0  0  0  0  0  0
   19.9957  -13.0440  -19.7461 C   0  0  2  0  0  0  0  0  0  0  0  0
   20.2916  -11.6410  -20.1456 C   0  0  0  0  0  0  0  0  0  0  0  0
   21.2285  -13.6050  -19.0522 C   0  0  2  0  0  0  0  0  0  0  0  0
   21.0608  -15.0048  -18.7295 N   0  0  0  0  0  0  0  0  0  0  0  0
   21.5537  -12.8594  -17.8118 C   0  0  0  0  0  0  0  0  0  0  0  0
   20.8361  -12.9067  -16.7771 O   0  0  0  0  0  0  0  0  0  0  0  0
   27.5217  -11.2407  -16.2600 C   0  0  0  0  0  0  0  0  0  0  0  0
   26.7003  -10.1626  -15.0564 S   0  0  0  0  0  0  0  0  0  0  0  0
   24.8842  -10.2450  -15.2678 C   0  0  0  0  0  0  0  0  0  0  0  0
   24.5171  -11.1083  -16.4332 C   0  0  0  0  0  0  0  0  0  0  0  0
   23.0476  -11.2145  -16.5777 C   0  0  2  0  0  0  0  0  0  0  0  0
   22.7054  -12.0481  -17.7362 N   0  0  0  0  0  0  0  0  0  0  0  0
   22.4238   -9.9174  -16.8123 C   0  0  0  0  0  0  0  0  0  0  0  0
   22.5066   -9.3966  -17.9779 O   0  0  0  0  0  0  0  0  0  0  0  0
   19.5193   -6.2359  -18.0672 C   0  0  0  0  0  0  0  0  0  0  0  0
   19.1099   -7.6348  -17.6677 C   0  0  2  0  0  0  0  0  0  0  0  0
   17.6692   -7.9380  -17.8480 C   0  0  0  0  0  0  0  0  0  0  0  0
   19.7121   -8.1336  -16.4145 C   0  0  0  0  0  0  0  0  0  0  0  0
   21.1563   -7.8571  -16.1603 C   0  0  2  0  0  0  0  0  0  0  0  0
   21.7264   -9.1979  -15.8475 N   0  0  0  0  0  0  0  0  0  0  0  0
   21.4707   -6.9205  -15.0907 C   0  0  0  0  0  0  0  0  0  0  0  0
   21.5973   -5.5332  -15.2439 O   0  0  0  0  0  0  0  0  0  0  0  0
   21.6569   -7.3395  -13.9169 O   0  0  0  0  0  0  0  0  0  0  0  0
  1  2  1  0
  3  4  1  6
  3  2  1  0
  5  3  1  0
  5  6  1  1
  7  5  1  0
  8  7  2  0
 10 11  1  0
 10  9  1  0
 11 12  1  0
 13 12  1  6
 13 14  1  0
 14  7  1  0
 15 22  1  0
 15 13  1  0
 16 15  2  0
 18 19  1  1
 18 17  1  0
 20 18  1  0
 21 20  1  1
 21 22  1  0
 23 24  1  0
 23 21  1  0
 25 23  2  0
M  END
$$$$
