IML.pdb
     RDKit          3D

 25 24  0  0  1  0  0  0  0  0999 V2000
   22.4443  -27.5963  -14.1177 C   0  0  0  0  0  0  0  0  0  0  0  0
   23.3165  -26.4106  -14.3888 C   0  0  0  0  0  0  0  0  0  0  0  0
   22.6724  -25.0941  -14.0373 C   0  0  2  0  0  0  0  0  0  0  0  0
   21.4155  -24.8135  -14.7838 C   0  0  0  0  0  0  0  0  0  0  0  0
   23.6733  -23.9981  -14.3736 C   0  0  2  0  0  0  0  0  0  0  0  0
   24.9806  -24.2930  -13.8298 N   0  0  0  0  0  0  0  0  0  0  0  0
   23.2315  -22.6724  -13.8761 C   0  0  0  0  0  0  0  0  0  0  0  0
   22.1152  -22.1681  -14.1717 O   0  0  0  0  0  0  0  0  0  0  0  0
   25.9827  -20.0163   -8.3213 C   0  0  0  0  0  0  0  0  0  0  0  0
   25.2776  -21.5495   -8.9832 S   0  0  0  0  0  0  0  0  0  0  0  0
   23.9341  -21.1698  -10.1667 C   0  0  0  0  0  0  0  0  0  0  0  0
   24.4228  -20.2841  -11.2689 C   0  0  0  0  0  0  0  0  0  0  0  0
   23.7120  -20.5665  -12.5364 C   0  0  2  0  0  0  0  0  0  0  0  0
   24.0603  -21.9032  -13.0324 N   0  0  0  0  0  0  0  0  0  0  0  0
   24.0815  -19.6321  -13.5931 C   0  0  0  0  0  0  0  0  0  0  0  0
   23.8474  -18.3860  -13.4221 O   0  0  0  0  0  0  0  0  0  0  0  0
   27.3758  -17.5160  -14.4835 C   0  0  0  0  0  0  0  0  0  0  0  0
   27.5063  -18.9087  -15.0559 C   0  0  2  0  0  0  0  0  0  0  0  0
   28.8967  -19.3348  -15.3478 C   0  0  0  0  0  0  0  0  0  0  0  0
   26.5043  -19.2647  -16.0809 C   0  0  0  0  0  0  0  0  0  0  0  0
   25.0671  -18.9763  -15.8010 C   0  0  2  0  0  0  0  0  0  0  0  0
   24.6880  -20.0021  -14.7890 N   0  0  0  0  0  0  0  0  0  0  0  0
   24.1509  -19.0295  -16.9314 C   0  0  0  0  0  0  0  0  0  0  0  0
   24.0776  -18.0768  -17.9566 O   0  0  0  0  0  0  0  0  0  0  0  0
   23.3364  -19.9848  -17.0415 O   0  0  0  0  0  0  0  0  0  0  0  0
  1  2  1  0
  3  4  1  6
  3  2  1  0
  5  3  1  0
  5  6  1  1
  7  5  1  0
  8  7  2  0
 10 11  1  0
 10  9  1  0
 11 12  1  0
 13 12  1  1
 13 14  1  0
 14  7  1  0
 15 22  1  0
 15 13  1  0
 16 15  2  0
 18 19  1  6
 18 17  1  0
 20 18  1  0
 21 20  1  6
 21 22  1  0
 23 24  1  0
 23 21  1  0
 25 23  2  0
M  END
$$$$
