IML.pdb
     RDKit          3D

 25 24  0  0  1  0  0  0  0  0999 V2000
   28.7564  -15.4962  -18.1242 C   0  0  0  0  0  0  0  0  0  0  0  0
   27.5635  -16.3992  -18.1700 C   0  0  0  0  0  0  0  0  0  0  0  0
   26.9530  -16.6624  -16.8174 C   0  0  2  0  0  0  0  0  0  0  0  0
   27.8750  -17.3201  -15.8516 C   0  0  0  0  0  0  0  0  0  0  0  0
   25.7614  -17.5844  -17.0320 C   0  0  2  0  0  0  0  0  0  0  0  0
   24.8580  -17.0549  -18.0296 N   0  0  0  0  0  0  0  0  0  0  0  0
   25.0089  -17.8192  -15.7755 C   0  0  0  0  0  0  0  0  0  0  0  0
   24.3571  -16.9141  -15.1892 O   0  0  0  0  0  0  0  0  0  0  0  0
   20.4535  -21.6879  -14.6632 C   0  0  0  0  0  0  0  0  0  0  0  0
   20.3500  -19.9269  -15.0807 S   0  0  0  0  0  0  0  0  0  0  0  0
   21.9625  -19.1112  -14.7905 C   0  0  0  0  0  0  0  0  0  0  0  0
   22.9726  -20.0855  -14.2725 C   0  0  0  0  0  0  0  0  0  0  0  0
   24.2481  -19.4094  -13.9445 C   0  0  2  0  0  0  0  0  0  0  0  0
   24.9907  -19.0934  -15.1703 N   0  0  0  0  0  0  0  0  0  0  0  0
   25.1268  -20.2535  -13.1434 C   0  0  0  0  0  0  0  0  0  0  0  0
   25.7737  -21.1929  -13.7229 O   0  0  0  0  0  0  0  0  0  0  0  0
   28.6343  -19.5843  -10.8757 C   0  0  0  0  0  0  0  0  0  0  0  0
   27.4574  -19.2961   -9.9723 C   0  0  2  0  0  0  0  0  0  0  0  0
   27.7849  -18.5231   -8.7495 C   0  0  0  0  0  0  0  0  0  0  0  0
   26.5203  -20.4216   -9.7804 C   0  0  0  0  0  0  0  0  0  0  0  0
   26.0294  -21.1517  -10.9859 C   0  0  2  0  0  0  0  0  0  0  0  0
   25.3227  -20.1033  -11.7745 N   0  0  0  0  0  0  0  0  0  0  0  0
   25.1435  -22.2841  -10.7563 C   0  0  0  0  0  0  0  0  0  0  0  0
   25.5595  -23.5781  -10.4147 O   0  0  0  0  0  0  0  0  0  0  0  0
   23.8959  -22.1437  -10.8644 O   0  0  0  0  0  0  0  0  0  0  0  0
  1  2  1  0
  3  4  1  1
  3  2  1  0
  5  3  1  0
  5  6  1  6
  7  5  1  0
  8  7  2  0
 10 11  1  0
 10  9  1  0
 11 12  1  0
 13 12  1  6
 13 14  1  0
 14  7  1  0
 15 22  1  0
 15 13  1  0
 16 15  2  0
 18 19  1  1
 18 17  1  0
 20 18  1  0
 21 20  1  1
 21 22  1  0
 23 24  1  0
 23 21  1  0
 25 23  2  0
M  END
$$$$
