IML.pdb
     RDKit          3D

 25 24  0  0  1  0  0  0  0  0999 V2000
   19.7278  -20.9723  -11.8456 C   0  0  0  0  0  0  0  0  0  0  0  0
   20.8749  -21.3092  -10.9451 C   0  0  0  0  0  0  0  0  0  0  0  0
   22.1679  -20.6423  -11.3389 C   0  0  2  0  0  0  0  0  0  0  0  0
   22.6022  -20.9330  -12.7326 C   0  0  0  0  0  0  0  0  0  0  0  0
   23.2456  -21.1546  -10.3942 C   0  0  2  0  0  0  0  0  0  0  0  0
   22.8892  -20.9220   -9.0120 N   0  0  0  0  0  0  0  0  0  0  0  0
   24.5629  -20.5287  -10.6649 C   0  0  0  0  0  0  0  0  0  0  0  0
   24.9523  -19.4779  -10.0887 O   0  0  0  0  0  0  0  0  0  0  0  0
   32.1252  -21.6461  -11.3069 C   0  0  0  0  0  0  0  0  0  0  0  0
   30.4506  -22.2798  -11.0241 S   0  0  0  0  0  0  0  0  0  0  0  0
   29.2086  -21.0861  -11.6422 C   0  0  0  0  0  0  0  0  0  0  0  0
   27.8184  -21.5868  -11.4084 C   0  0  0  0  0  0  0  0  0  0  0  0
   26.8118  -20.5940  -11.8474 C   0  0  2  0  0  0  0  0  0  0  0  0
   25.4551  -21.0956  -11.5992 N   0  0  0  0  0  0  0  0  0  0  0  0
   26.8910  -20.3279  -13.2789 C   0  0  0  0  0  0  0  0  0  0  0  0
   26.3736  -21.1704  -14.0909 O   0  0  0  0  0  0  0  0  0  0  0  0
   25.0081  -17.2381  -16.0849 C   0  0  0  0  0  0  0  0  0  0  0  0
   26.1534  -16.6644  -15.2828 C   0  0  2  0  0  0  0  0  0  0  0  0
   26.2867  -15.1889  -15.3540 C   0  0  0  0  0  0  0  0  0  0  0  0
   27.4194  -17.4212  -15.3625 C   0  0  0  0  0  0  0  0  0  0  0  0
   27.3633  -18.9107  -15.2901 C   0  0  2  0  0  0  0  0  0  0  0  0
   27.4900  -19.2020  -13.8343 N   0  0  0  0  0  0  0  0  0  0  0  0
   28.3752  -19.6462  -16.0351 C   0  0  0  0  0  0  0  0  0  0  0  0
   28.2117  -20.1583  -17.3294 O   0  0  0  0  0  0  0  0  0  0  0  0
   29.5028  -19.8705  -15.5190 O   0  0  0  0  0  0  0  0  0  0  0  0
  1  2  1  0
  3  4  1  6
  3  2  1  0
  5  3  1  0
  5  6  1  1
  7  5  1  0
  8  7  2  0
 10 11  1  0
 10  9  1  0
 11 12  1  0
 13 12  1  6
 13 14  1  0
 14  7  1  0
 15 22  1  0
 15 13  1  0
 16 15  2  0
 18 19  1  6
 18 17  1  0
 20 18  1  0
 21 20  1  1
 21 22  1  0
 23 24  1  0
 23 21  1  0
 25 23  2  0
M  END
$$$$
