HWR.pdb
     RDKit          3D

 36 38  0  0  1  0  0  0  0  0999 V2000
   26.8276  -21.2946  -15.2487 N   0  0  0  0  0  0  0  0  0  0  0  0
   26.0128  -20.2635  -14.6304 C   0  0  1  0  0  0  0  0  0  0  0  0
   25.0308  -19.7276  -15.5999 C   0  0  0  0  0  0  0  0  0  0  0  0
   25.7840  -18.9467  -16.6297 C   0  0  0  0  0  0  0  0  0  0  0  0
   26.3470  -17.7004  -16.4473 C   0  0  0  0  0  0  0  0  0  0  0  0
   26.9483  -17.3069  -17.5985 N   0  0  0  0  0  0  0  0  0  0  0  0
   26.7655  -18.2940  -18.4938 C   0  0  0  0  0  0  0  0  0  0  0  0
   26.0666  -19.2727  -17.9041 N   0  0  0  0  0  0  0  0  0  0  0  0
   25.4883  -20.7670  -13.3740 C   0  0  0  0  0  0  0  0  0  0  0  0
   24.8258  -21.8525  -13.4055 O   0  0  0  0  0  0  0  0  0  0  0  0
   25.6404  -20.1661  -12.1034 N   0  0  0  0  0  0  0  0  0  0  0  0
   24.9659  -20.6317  -10.9340 C   0  0  1  0  0  0  0  0  0  0  0  0
   25.5715  -20.0941   -9.6546 C   0  0  0  0  0  0  0  0  0  0  0  0
   26.9576  -20.5958   -9.4490 C   0  0  0  0  0  0  0  0  0  0  0  0
   27.8089  -21.2534  -10.2808 C   0  0  0  0  0  0  0  0  0  0  0  0
   28.9516  -21.4913   -9.6251 N   0  0  0  0  0  0  0  0  0  0  0  0
   28.8920  -21.0066   -8.3609 C   0  0  0  0  0  0  0  0  0  0  0  0
   29.7770  -20.9932   -7.3107 C   0  0  0  0  0  0  0  0  0  0  0  0
   29.4545  -20.4230   -6.1142 C   0  0  0  0  0  0  0  0  0  0  0  0
   28.2080  -19.8526   -5.9752 C   0  0  0  0  0  0  0  0  0  0  0  0
   27.3284  -19.8674   -7.0230 C   0  0  0  0  0  0  0  0  0  0  0  0
   27.6433  -20.4445   -8.2470 C   0  0  0  0  0  0  0  0  0  0  0  0
   23.5207  -20.2737  -10.9246 C   0  0  0  0  0  0  0  0  0  0  0  0
   23.1066  -19.3269  -11.6392 O   0  0  0  0  0  0  0  0  0  0  0  0
   18.5787  -21.9097  -16.4303 N   0  0  0  0  0  0  0  0  0  0  0  0
   17.7542  -22.4692  -15.4051 C   0  0  0  0  0  0  0  0  0  0  0  0
   16.5854  -22.8954  -15.7230 N   0  0  0  0  0  0  0  0  0  0  0  0
   18.1872  -22.5644  -14.0664 N   0  0  0  0  0  0  0  0  0  0  0  0
   19.5371  -22.2462  -13.6852 C   0  0  0  0  0  0  0  0  0  0  0  0
   19.7478  -22.3940  -12.1931 C   0  0  0  0  0  0  0  0  0  0  0  0
   21.1849  -22.1170  -11.8028 C   0  0  0  0  0  0  0  0  0  0  0  0
   21.2114  -21.2312  -10.5689 C   0  0  2  0  0  0  0  0  0  0  0  0
   22.5571  -20.9581  -10.1343 N   0  0  0  0  0  0  0  0  0  0  0  0
   20.4714  -21.8354   -9.4463 C   0  0  0  0  0  0  0  0  0  0  0  0
   21.0390  -22.6617   -8.6999 O   0  0  0  0  0  0  0  0  0  0  0  0
   19.1557  -21.5104   -9.1943 O   0  0  0  0  0  0  0  0  0  0  0  0
  2  3  1  0
  2  1  1  6
  4  8  1  0
  4  3  1  0
  5  4  2  0
  6  5  1  0
  6  7  1  0
  7  8  2  0
  9  2  1  0
 10  9  2  0
 11  9  1  0
 12 11  1  0
 12 13  1  1
 13 14  1  0
 14 15  2  0
 15 16  1  0
 17 18  2  0
 17 16  1  0
 19 18  1  0
 20 19  2  0
 21 20  1  0
 21 22  2  0
 22 14  1  0
 22 17  1  0
 23 24  2  0
 23 12  1  0
 25 26  1  0
 26 28  1  0
 26 27  2  0
 28 29  1  0
 30 29  1  0
 30 31  1  0
 32 31  1  6
 32 33  1  0
 33 23  1  0
 34 32  1  0
 35 34  2  0
 36 34  1  0
M  END
$$$$
