HWR.pdb
     RDKit          3D

 36 38  0  0  1  0  0  0  0  0999 V2000
   27.9855  -20.9468  -15.2880 N   0  0  0  0  0  0  0  0  0  0  0  0
   27.5119  -19.8263  -14.4945 C   0  0  1  0  0  0  0  0  0  0  0  0
   26.6537  -18.9386  -15.3111 C   0  0  0  0  0  0  0  0  0  0  0  0
   27.5428  -18.1589  -16.2272 C   0  0  0  0  0  0  0  0  0  0  0  0
   27.6023  -18.2880  -17.5996 C   0  0  0  0  0  0  0  0  0  0  0  0
   28.5208  -17.4190  -18.0924 N   0  0  0  0  0  0  0  0  0  0  0  0
   29.0325  -16.7518  -17.0426 C   0  0  0  0  0  0  0  0  0  0  0  0
   28.4403  -17.2020  -15.9288 N   0  0  0  0  0  0  0  0  0  0  0  0
   26.9458  -20.3307  -13.2567 C   0  0  0  0  0  0  0  0  0  0  0  0
   26.1781  -21.3424  -13.3297 O   0  0  0  0  0  0  0  0  0  0  0  0
   27.1634  -19.8053  -11.9624 N   0  0  0  0  0  0  0  0  0  0  0  0
   26.5709  -20.3574  -10.7861 C   0  0  1  0  0  0  0  0  0  0  0  0
   27.0995  -19.7300   -9.5135 C   0  0  0  0  0  0  0  0  0  0  0  0
   26.5297  -20.3801   -8.3019 C   0  0  0  0  0  0  0  0  0  0  0  0
   25.4822  -21.2333   -8.1473 C   0  0  0  0  0  0  0  0  0  0  0  0
   25.3649  -21.5384   -6.8491 N   0  0  0  0  0  0  0  0  0  0  0  0
   26.3151  -20.9069   -6.1177 C   0  0  0  0  0  0  0  0  0  0  0  0
   26.6190  -20.8863   -4.7784 C   0  0  0  0  0  0  0  0  0  0  0  0
   27.6573  -20.1454   -4.2946 C   0  0  0  0  0  0  0  0  0  0  0  0
   28.4065  -19.4077   -5.1850 C   0  0  0  0  0  0  0  0  0  0  0  0
   28.1015  -19.4302   -6.5186 C   0  0  0  0  0  0  0  0  0  0  0  0
   27.0472  -20.1800   -7.0253 C   0  0  0  0  0  0  0  0  0  0  0  0
   25.0891  -20.2135  -10.7686 C   0  0  0  0  0  0  0  0  0  0  0  0
   24.5730  -19.0728  -10.6646 O   0  0  0  0  0  0  0  0  0  0  0  0
   17.0565  -23.3137  -10.1016 N   0  0  0  0  0  0  0  0  0  0  0  0
   18.0170  -24.3106  -10.4588 C   0  0  0  0  0  0  0  0  0  0  0  0
   17.6068  -25.5086  -10.6716 N   0  0  0  0  0  0  0  0  0  0  0  0
   19.3904  -24.0151  -10.5825 N   0  0  0  0  0  0  0  0  0  0  0  0
   19.8802  -22.6641  -10.5229 C   0  0  0  0  0  0  0  0  0  0  0  0
   20.6754  -22.3011  -11.7593 C   0  0  0  0  0  0  0  0  0  0  0  0
   22.1617  -22.4985  -11.5441 C   0  0  0  0  0  0  0  0  0  0  0  0
   22.7822  -21.1929  -11.0772 C   0  0  2  0  0  0  0  0  0  0  0  0
   24.2011  -21.3197  -10.8651 N   0  0  0  0  0  0  0  0  0  0  0  0
   22.1646  -20.7096   -9.8290 C   0  0  0  0  0  0  0  0  0  0  0  0
   22.3255  -21.3489   -8.7672 O   0  0  0  0  0  0  0  0  0  0  0  0
   21.4060  -19.5590   -9.8005 O   0  0  0  0  0  0  0  0  0  0  0  0
  2  3  1  0
  2  1  1  6
  4  8  1  0
  4  3  1  0
  5  4  2  0
  6  5  1  0
  6  7  1  0
  7  8  2  0
  9  2  1  0
 10  9  2  0
 11  9  1  0
 12 11  1  0
 12 13  1  1
 13 14  1  0
 14 15  2  0
 15 16  1  0
 17 18  2  0
 17 16  1  0
 19 18  1  0
 20 19  2  0
 21 20  1  0
 21 22  2  0
 22 14  1  0
 22 17  1  0
 23 24  2  0
 23 12  1  0
 25 26  1  0
 26 28  1  0
 26 27  2  0
 28 29  1  0
 30 29  1  0
 30 31  1  0
 32 31  1  1
 32 33  1  0
 33 23  1  0
 34 32  1  0
 35 34  2  0
 36 34  1  0
M  END
$$$$
