HWR.pdb
     RDKit          3D

 36 38  0  0  1  0  0  0  0  0999 V2000
   28.7179  -20.7608  -18.3377 N   0  0  0  0  0  0  0  0  0  0  0  0
   28.2054  -19.6963  -17.4929 C   0  0  1  0  0  0  0  0  0  0  0  0
   27.4535  -18.7097  -18.3007 C   0  0  0  0  0  0  0  0  0  0  0  0
   28.4294  -17.6974  -18.8111 C   0  0  0  0  0  0  0  0  0  0  0  0
   28.9622  -17.6577  -20.0832 C   0  0  0  0  0  0  0  0  0  0  0  0
   29.8086  -16.6015  -20.1822 N   0  0  0  0  0  0  0  0  0  0  0  0
   29.8079  -15.9847  -18.9869 C   0  0  0  0  0  0  0  0  0  0  0  0
   28.9783  -16.6487  -18.1714 N   0  0  0  0  0  0  0  0  0  0  0  0
   27.5119  -20.2845  -16.3615 C   0  0  0  0  0  0  0  0  0  0  0  0
   26.9767  -21.4265  -16.5280 O   0  0  0  0  0  0  0  0  0  0  0  0
   27.3686  -19.7100  -15.0777 N   0  0  0  0  0  0  0  0  0  0  0  0
   26.7695  -20.3963  -13.9780 C   0  0  1  0  0  0  0  0  0  0  0  0
   27.2892  -19.9217  -12.6373 C   0  0  0  0  0  0  0  0  0  0  0  0
   26.7457  -20.7368  -11.5169 C   0  0  0  0  0  0  0  0  0  0  0  0
   26.4325  -22.0576  -11.4347 C   0  0  0  0  0  0  0  0  0  0  0  0
   25.9724  -22.3140  -10.2040 N   0  0  0  0  0  0  0  0  0  0  0  0
   25.9673  -21.1897   -9.4473 C   0  0  0  0  0  0  0  0  0  0  0  0
   25.5991  -20.9241   -8.1510 C   0  0  0  0  0  0  0  0  0  0  0  0
   25.6983  -19.6695   -7.6247 C   0  0  0  0  0  0  0  0  0  0  0  0
   26.1812  -18.6589   -8.4272 C   0  0  0  0  0  0  0  0  0  0  0  0
   26.5472  -18.9263   -9.7181 C   0  0  0  0  0  0  0  0  0  0  0  0
   26.4514  -20.1990  -10.2671 C   0  0  0  0  0  0  0  0  0  0  0  0
   25.2874  -20.2563  -13.9533 C   0  0  0  0  0  0  0  0  0  0  0  0
   24.7591  -19.1514  -14.2337 O   0  0  0  0  0  0  0  0  0  0  0  0
   18.0619  -25.6099  -11.8634 N   0  0  0  0  0  0  0  0  0  0  0  0
   17.8452  -24.6396  -12.8908 C   0  0  0  0  0  0  0  0  0  0  0  0
   16.8419  -24.7934  -13.6773 N   0  0  0  0  0  0  0  0  0  0  0  0
   18.6967  -23.5285  -13.0612 N   0  0  0  0  0  0  0  0  0  0  0  0
   20.0970  -23.5942  -12.7395 C   0  0  0  0  0  0  0  0  0  0  0  0
   20.8140  -22.3078  -13.0913 C   0  0  0  0  0  0  0  0  0  0  0  0
   22.3097  -22.5170  -13.2075 C   0  0  0  0  0  0  0  0  0  0  0  0
   22.9832  -21.1894  -13.5105 C   0  0  2  0  0  0  0  0  0  0  0  0
   24.4125  -21.3271  -13.6226 N   0  0  0  0  0  0  0  0  0  0  0  0
   22.6907  -20.1796  -12.4773 C   0  0  0  0  0  0  0  0  0  0  0  0
   23.1948  -20.2902  -11.3390 O   0  0  0  0  0  0  0  0  0  0  0  0
   21.8671  -19.1047  -12.7350 O   0  0  0  0  0  0  0  0  0  0  0  0
  2  3  1  0
  2  1  1  6
  4  8  1  0
  4  3  1  0
  5  4  2  0
  6  5  1  0
  6  7  1  0
  7  8  2  0
  9  2  1  0
 10  9  2  0
 11  9  1  0
 12 11  1  0
 12 13  1  1
 13 14  1  0
 14 15  2  0
 15 16  1  0
 17 18  2  0
 17 16  1  0
 19 18  1  0
 20 19  2  0
 21 20  1  0
 21 22  2  0
 22 14  1  0
 22 17  1  0
 23 24  2  0
 23 12  1  0
 25 26  1  0
 26 28  1  0
 26 27  2  0
 28 29  1  0
 30 29  1  0
 30 31  1  0
 32 31  1  1
 32 33  1  0
 33 23  1  0
 34 32  1  0
 35 34  2  0
 36 34  1  0
M  END
$$$$
