HWR.pdb
     RDKit          3D

 36 38  0  0  1  0  0  0  0  0999 V2000
   28.0322  -22.2830  -16.1457 N   0  0  0  0  0  0  0  0  0  0  0  0
   27.6883  -20.9882  -15.5846 C   0  0  1  0  0  0  0  0  0  0  0  0
   27.0301  -20.1398  -16.6036 C   0  0  0  0  0  0  0  0  0  0  0  0
   28.0905  -19.3277  -17.2771 C   0  0  0  0  0  0  0  0  0  0  0  0
   28.3732  -18.0005  -17.0276 C   0  0  0  0  0  0  0  0  0  0  0  0
   29.3962  -17.6021  -17.8255 N   0  0  0  0  0  0  0  0  0  0  0  0
   29.7522  -18.6660  -18.5675 C   0  0  0  0  0  0  0  0  0  0  0  0
   28.9641  -19.6957  -18.2319 N   0  0  0  0  0  0  0  0  0  0  0  0
   26.9749  -21.1893  -14.3366 C   0  0  0  0  0  0  0  0  0  0  0  0
   25.7886  -21.6438  -14.4033 O   0  0  0  0  0  0  0  0  0  0  0  0
   27.4704  -20.9280  -13.0386 N   0  0  0  0  0  0  0  0  0  0  0  0
   26.6944  -21.1157  -11.8545 C   0  0  1  0  0  0  0  0  0  0  0  0
   27.4877  -20.8696  -10.5884 C   0  0  0  0  0  0  0  0  0  0  0  0
   26.6103  -20.8410   -9.3865 C   0  0  0  0  0  0  0  0  0  0  0  0
   25.3645  -21.3411   -9.1701 C   0  0  0  0  0  0  0  0  0  0  0  0
   24.9986  -21.0539   -7.9148 N   0  0  0  0  0  0  0  0  0  0  0  0
   25.9747  -20.3666   -7.2734 C   0  0  0  0  0  0  0  0  0  0  0  0
   26.0914  -19.8509   -6.0057 C   0  0  0  0  0  0  0  0  0  0  0  0
   27.2135  -19.1849   -5.6078 C   0  0  0  0  0  0  0  0  0  0  0  0
   28.2423  -19.0363   -6.5120 C   0  0  0  0  0  0  0  0  0  0  0  0
   28.1234  -19.5510   -7.7741 C   0  0  0  0  0  0  0  0  0  0  0  0
   26.9867  -20.2313   -8.1930 C   0  0  0  0  0  0  0  0  0  0  0  0
   25.4979  -20.2308  -11.8066 C   0  0  0  0  0  0  0  0  0  0  0  0
   25.6119  -19.0100  -12.0807 O   0  0  0  0  0  0  0  0  0  0  0  0
   21.0451  -22.0029  -17.8235 N   0  0  0  0  0  0  0  0  0  0  0  0
   21.1095  -23.0169  -16.8176 C   0  0  0  0  0  0  0  0  0  0  0  0
   20.8689  -24.2320  -17.1559 N   0  0  0  0  0  0  0  0  0  0  0  0
   21.4276  -22.7200  -15.4762 N   0  0  0  0  0  0  0  0  0  0  0  0
   21.7796  -21.3888  -15.0607 C   0  0  0  0  0  0  0  0  0  0  0  0
   22.1882  -21.3460  -13.6034 C   0  0  0  0  0  0  0  0  0  0  0  0
   22.6278  -19.9572  -13.1881 C   0  0  0  0  0  0  0  0  0  0  0  0
   22.9889  -19.9620  -11.7125 C   0  0  2  0  0  0  0  0  0  0  0  0
   24.2007  -20.6983  -11.4599 N   0  0  0  0  0  0  0  0  0  0  0  0
   21.9115  -20.5383  -10.8879 C   0  0  0  0  0  0  0  0  0  0  0  0
   22.0309  -21.6941  -10.4276 O   0  0  0  0  0  0  0  0  0  0  0  0
   20.7631  -19.8294  -10.6074 O   0  0  0  0  0  0  0  0  0  0  0  0
  2  3  1  0
  2  1  1  6
  4  8  1  0
  4  3  1  0
  5  4  2  0
  6  5  1  0
  6  7  1  0
  7  8  2  0
  9  2  1  0
 10  9  2  0
 11  9  1  0
 12 11  1  0
 12 13  1  1
 13 14  1  0
 14 15  2  0
 15 16  1  0
 17 18  2  0
 17 16  1  0
 19 18  1  0
 20 19  2  0
 21 20  1  0
 21 22  2  0
 22 14  1  0
 22 17  1  0
 23 24  2  0
 23 12  1  0
 25 26  1  0
 26 28  1  0
 26 27  2  0
 28 29  1  0
 30 29  1  0
 30 31  1  0
 32 31  1  6
 32 33  1  0
 33 23  1  0
 34 32  1  0
 35 34  2  0
 36 34  1  0
M  END
$$$$
