HWR.pdb
     RDKit          3D

 36 38  0  0  1  0  0  0  0  0999 V2000
   28.3046  -22.8528  -16.1726 N   0  0  0  0  0  0  0  0  0  0  0  0
   27.6465  -21.5812  -15.9289 C   0  0  1  0  0  0  0  0  0  0  0  0
   27.0262  -21.0715  -17.1725 C   0  0  0  0  0  0  0  0  0  0  0  0
   28.1207  -20.5536  -18.0508 C   0  0  0  0  0  0  0  0  0  0  0  0
   28.5257  -21.1057  -19.2486 C   0  0  0  0  0  0  0  0  0  0  0  0
   29.5418  -20.3670  -19.7622 N   0  0  0  0  0  0  0  0  0  0  0  0
   29.7727  -19.3627  -18.8976 C   0  0  0  0  0  0  0  0  0  0  0  0
   28.9161  -19.4828  -17.8750 N   0  0  0  0  0  0  0  0  0  0  0  0
   26.7830  -21.7116  -14.7694 C   0  0  0  0  0  0  0  0  0  0  0  0
   26.0938  -22.7758  -14.6655 O   0  0  0  0  0  0  0  0  0  0  0  0
   26.6279  -20.7645  -13.7314 N   0  0  0  0  0  0  0  0  0  0  0  0
   25.7046  -20.9308  -12.6547 C   0  0  1  0  0  0  0  0  0  0  0  0
   26.0891  -20.1360  -11.4245 C   0  0  0  0  0  0  0  0  0  0  0  0
   27.3425  -20.6494  -10.8077 C   0  0  0  0  0  0  0  0  0  0  0  0
   28.4240  -21.2696  -11.3507 C   0  0  0  0  0  0  0  0  0  0  0  0
   29.2992  -21.5397  -10.3745 N   0  0  0  0  0  0  0  0  0  0  0  0
   28.8313  -21.1137   -9.1760 C   0  0  0  0  0  0  0  0  0  0  0  0
   29.3328  -21.1506   -7.8979 C   0  0  0  0  0  0  0  0  0  0  0  0
   28.6365  -20.6355   -6.8440 C   0  0  0  0  0  0  0  0  0  0  0  0
   27.4040  -20.0697   -7.0870 C   0  0  0  0  0  0  0  0  0  0  0  0
   26.9068  -20.0343   -8.3612 C   0  0  0  0  0  0  0  0  0  0  0  0
   27.6049  -20.5550   -9.4438 C   0  0  0  0  0  0  0  0  0  0  0  0
   24.3173  -20.5344  -13.0224 C   0  0  0  0  0  0  0  0  0  0  0  0
   24.0994  -19.3939  -13.5022 O   0  0  0  0  0  0  0  0  0  0  0  0
   16.6527  -23.0635  -11.0827 N   0  0  0  0  0  0  0  0  0  0  0  0
   17.5884  -24.1282  -10.8960 C   0  0  0  0  0  0  0  0  0  0  0  0
   17.2037  -25.1788  -10.2659 N   0  0  0  0  0  0  0  0  0  0  0  0
   18.9105  -24.0552  -11.3814 N   0  0  0  0  0  0  0  0  0  0  0  0
   19.3192  -23.0337  -12.3077 C   0  0  0  0  0  0  0  0  0  0  0  0
   20.7615  -23.2081  -12.7341 C   0  0  0  0  0  0  0  0  0  0  0  0
   21.1303  -22.2585  -13.8551 C   0  0  0  0  0  0  0  0  0  0  0  0
   21.8602  -21.0570  -13.2794 C   0  0  2  0  0  0  0  0  0  0  0  0
   23.1959  -21.3930  -12.8581 N   0  0  0  0  0  0  0  0  0  0  0  0
   21.1398  -20.4783  -12.1310 C   0  0  0  0  0  0  0  0  0  0  0  0
   21.6550  -20.5110  -10.9928 O   0  0  0  0  0  0  0  0  0  0  0  0
   19.8994  -19.8956  -12.2797 O   0  0  0  0  0  0  0  0  0  0  0  0
  2  3  1  0
  2  1  1  6
  4  8  1  0
  4  3  1  0
  5  4  2  0
  6  5  1  0
  6  7  1  0
  7  8  2  0
  9  2  1  0
 10  9  2  0
 11  9  1  0
 12 11  1  0
 12 13  1  1
 13 14  1  0
 14 15  2  0
 15 16  1  0
 17 18  2  0
 17 16  1  0
 19 18  1  0
 20 19  2  0
 21 20  1  0
 21 22  2  0
 22 14  1  0
 22 17  1  0
 23 24  2  0
 23 12  1  0
 25 26  1  0
 26 28  1  0
 26 27  2  0
 28 29  1  0
 30 29  1  0
 30 31  1  0
 32 31  1  1
 32 33  1  0
 33 23  1  0
 34 32  1  0
 35 34  2  0
 36 34  1  0
M  END
$$$$
