HWR.pdb
     RDKit          3D

 36 38  0  0  1  0  0  0  0  0999 V2000
   25.0271  -16.7111  -19.7571 N   0  0  0  0  0  0  0  0  0  0  0  0
   23.7034  -16.8162  -19.1686 C   0  0  1  0  0  0  0  0  0  0  0  0
   22.6885  -17.0675  -20.2165 C   0  0  0  0  0  0  0  0  0  0  0  0
   22.5381  -15.8134  -21.0179 C   0  0  0  0  0  0  0  0  0  0  0  0
   22.7486  -15.6916  -22.3761 C   0  0  0  0  0  0  0  0  0  0  0  0
   22.5163  -14.4087  -22.7527 N   0  0  0  0  0  0  0  0  0  0  0  0
   22.1641  -13.7322  -21.6448 C   0  0  0  0  0  0  0  0  0  0  0  0
   22.1799  -14.5824  -20.6099 N   0  0  0  0  0  0  0  0  0  0  0  0
   23.7522  -17.7549  -18.0625 C   0  0  0  0  0  0  0  0  0  0  0  0
   24.1656  -18.9327  -18.3076 O   0  0  0  0  0  0  0  0  0  0  0  0
   23.3820  -17.4900  -16.7240 N   0  0  0  0  0  0  0  0  0  0  0  0
   23.5839  -18.4205  -15.6597 C   0  0  1  0  0  0  0  0  0  0  0  0
   24.5458  -17.9088  -14.6080 C   0  0  0  0  0  0  0  0  0  0  0  0
   25.9550  -17.9499  -15.0851 C   0  0  0  0  0  0  0  0  0  0  0  0
   26.8305  -16.9555  -15.3913 C   0  0  0  0  0  0  0  0  0  0  0  0
   27.9873  -17.5063  -15.7794 N   0  0  0  0  0  0  0  0  0  0  0  0
   27.9136  -18.8590  -15.7423 C   0  0  0  0  0  0  0  0  0  0  0  0
   28.8040  -19.8628  -16.0355 C   0  0  0  0  0  0  0  0  0  0  0  0
   28.4632  -21.1775  -15.9076 C   0  0  0  0  0  0  0  0  0  0  0  0
   27.1926  -21.4856  -15.4731 C   0  0  0  0  0  0  0  0  0  0  0  0
   26.3076  -20.4836  -15.1818 C   0  0  0  0  0  0  0  0  0  0  0  0
   26.6409  -19.1407  -15.3074 C   0  0  0  0  0  0  0  0  0  0  0  0
   22.3175  -18.7801  -14.9642 C   0  0  0  0  0  0  0  0  0  0  0  0
   21.5937  -17.8763  -14.4767 O   0  0  0  0  0  0  0  0  0  0  0  0
   22.7191  -25.5864  -16.3976 N   0  0  0  0  0  0  0  0  0  0  0  0
   22.6171  -25.3377  -14.9934 C   0  0  0  0  0  0  0  0  0  0  0  0
   23.5625  -25.7488  -14.2279 N   0  0  0  0  0  0  0  0  0  0  0  0
   21.5155  -24.6590  -14.4326 N   0  0  0  0  0  0  0  0  0  0  0  0
   20.4634  -24.1208  -15.2524 C   0  0  0  0  0  0  0  0  0  0  0  0
   20.5063  -22.6079  -15.2976 C   0  0  0  0  0  0  0  0  0  0  0  0
   20.5973  -22.0109  -13.9085 C   0  0  0  0  0  0  0  0  0  0  0  0
   20.7325  -20.5016  -14.0153 C   0  0  2  0  0  0  0  0  0  0  0  0
   21.8677  -20.1207  -14.8156 N   0  0  0  0  0  0  0  0  0  0  0  0
   20.8618  -19.8691  -12.6901 C   0  0  0  0  0  0  0  0  0  0  0  0
   21.9960  -19.6291  -12.2233 O   0  0  0  0  0  0  0  0  0  0  0  0
   19.7535  -19.5313  -11.9432 O   0  0  0  0  0  0  0  0  0  0  0  0
  2  3  1  0
  2  1  1  6
  4  8  1  0
  4  3  1  0
  5  4  2  0
  6  5  1  0
  6  7  1  0
  7  8  2  0
  9  2  1  0
 10  9  2  0
 11  9  1  0
 12 11  1  0
 12 13  1  1
 13 14  1  0
 14 15  2  0
 15 16  1  0
 17 18  2  0
 17 16  1  0
 19 18  1  0
 20 19  2  0
 21 20  1  0
 21 22  2  0
 22 14  1  0
 22 17  1  0
 23 24  2  0
 23 12  1  0
 25 26  1  0
 26 28  1  0
 26 27  2  0
 28 29  1  0
 30 29  1  0
 30 31  1  0
 32 31  1  1
 32 33  1  0
 33 23  1  0
 34 32  1  0
 35 34  2  0
 36 34  1  0
M  END
$$$$
