HWR.pdb
     RDKit          3D

 36 38  0  0  1  0  0  0  0  0999 V2000
   27.8844  -22.9701  -15.8602 N   0  0  0  0  0  0  0  0  0  0  0  0
   27.3373  -21.6638  -15.5377 C   0  0  1  0  0  0  0  0  0  0  0  0
   26.7720  -21.0253  -16.7477 C   0  0  0  0  0  0  0  0  0  0  0  0
   27.9115  -20.6443  -17.6387 C   0  0  0  0  0  0  0  0  0  0  0  0
   28.3498  -21.3526  -18.7386 C   0  0  0  0  0  0  0  0  0  0  0  0
   29.4019  -20.7044  -19.2996 N   0  0  0  0  0  0  0  0  0  0  0  0
   29.6224  -19.6020  -18.5612 C   0  0  0  0  0  0  0  0  0  0  0  0
   28.7243  -19.5744  -17.5679 N   0  0  0  0  0  0  0  0  0  0  0  0
   26.4577  -21.7912  -14.3901 C   0  0  0  0  0  0  0  0  0  0  0  0
   25.6674  -22.7876  -14.3618 O   0  0  0  0  0  0  0  0  0  0  0  0
   26.3890  -20.9094  -13.2872 N   0  0  0  0  0  0  0  0  0  0  0  0
   25.4235  -21.0393  -12.2430 C   0  0  1  0  0  0  0  0  0  0  0  0
   25.7820  -20.2372  -11.0098 C   0  0  0  0  0  0  0  0  0  0  0  0
   27.0866  -20.6653  -10.4353 C   0  0  0  0  0  0  0  0  0  0  0  0
   28.1380  -21.3284  -10.9866 C   0  0  0  0  0  0  0  0  0  0  0  0
   29.0867  -21.4799  -10.0542 N   0  0  0  0  0  0  0  0  0  0  0  0
   28.6982  -20.9310   -8.8776 C   0  0  0  0  0  0  0  0  0  0  0  0
   29.2913  -20.8221   -7.6436 C   0  0  0  0  0  0  0  0  0  0  0  0
   28.6628  -20.2031   -6.6030 C   0  0  0  0  0  0  0  0  0  0  0  0
   27.4050  -19.6818   -6.8140 C   0  0  0  0  0  0  0  0  0  0  0  0
   26.8166  -19.7918   -8.0442 C   0  0  0  0  0  0  0  0  0  0  0  0
   27.4448  -20.4194   -9.1128 C   0  0  0  0  0  0  0  0  0  0  0  0
   24.0603  -20.6155  -12.6662 C   0  0  0  0  0  0  0  0  0  0  0  0
   23.9107  -19.5520  -13.3182 O   0  0  0  0  0  0  0  0  0  0  0  0
   18.8701  -24.4843   -8.7237 N   0  0  0  0  0  0  0  0  0  0  0  0
   18.1707  -24.8062   -9.9284 C   0  0  0  0  0  0  0  0  0  0  0  0
   17.0074  -25.3421   -9.8372 N   0  0  0  0  0  0  0  0  0  0  0  0
   18.7201  -24.5527  -11.2022 N   0  0  0  0  0  0  0  0  0  0  0  0
   20.0406  -24.0047  -11.3593 C   0  0  0  0  0  0  0  0  0  0  0  0
   20.0009  -22.5156  -11.6304 C   0  0  0  0  0  0  0  0  0  0  0  0
   20.6499  -22.1726  -12.9554 C   0  0  0  0  0  0  0  0  0  0  0  0
   21.5629  -20.9719  -12.7746 C   0  0  2  0  0  0  0  0  0  0  0  0
   22.8881  -21.3629  -12.3682 N   0  0  0  0  0  0  0  0  0  0  0  0
   21.0294  -20.0244  -11.7793 C   0  0  0  0  0  0  0  0  0  0  0  0
   21.6300  -19.8562  -10.6962 O   0  0  0  0  0  0  0  0  0  0  0  0
   19.8734  -19.3109  -12.0130 O   0  0  0  0  0  0  0  0  0  0  0  0
  2  3  1  0
  2  1  1  6
  4  8  1  0
  4  3  1  0
  5  4  2  0
  6  5  1  0
  6  7  1  0
  7  8  2  0
  9  2  1  0
 10  9  2  0
 11  9  1  0
 12 11  1  0
 12 13  1  1
 13 14  1  0
 14 15  2  0
 15 16  1  0
 17 18  2  0
 17 16  1  0
 19 18  1  0
 20 19  2  0
 21 20  1  0
 21 22  2  0
 22 14  1  0
 22 17  1  0
 23 24  2  0
 23 12  1  0
 25 26  1  0
 26 28  1  0
 26 27  2  0
 28 29  1  0
 30 29  1  0
 30 31  1  0
 32 31  1  1
 32 33  1  0
 33 23  1  0
 34 32  1  0
 35 34  2  0
 36 34  1  0
M  END
$$$$
