HWR.pdb
     RDKit          3D

 36 38  0  0  1  0  0  0  0  0999 V2000
   26.2530  -23.7055  -17.9646 N   0  0  0  0  0  0  0  0  0  0  0  0
   24.9922  -22.9846  -17.9498 C   0  0  1  0  0  0  0  0  0  0  0  0
   24.0580  -23.5532  -18.9474 C   0  0  0  0  0  0  0  0  0  0  0  0
   24.4908  -23.0829  -20.2998 C   0  0  0  0  0  0  0  0  0  0  0  0
   23.9600  -22.0142  -20.9924 C   0  0  0  0  0  0  0  0  0  0  0  0
   24.6016  -21.8870  -22.1815 N   0  0  0  0  0  0  0  0  0  0  0  0
   25.5245  -22.8640  -22.2358 C   0  0  0  0  0  0  0  0  0  0  0  0
   25.4507  -23.5758  -21.1035 N   0  0  0  0  0  0  0  0  0  0  0  0
   24.5168  -22.8936  -16.5813 C   0  0  0  0  0  0  0  0  0  0  0  0
   24.7142  -23.8948  -15.8218 O   0  0  0  0  0  0  0  0  0  0  0  0
   23.8483  -21.7920  -15.9997 N   0  0  0  0  0  0  0  0  0  0  0  0
   23.4275  -21.7661  -14.6354 C   0  0  1  0  0  0  0  0  0  0  0  0
   23.6849  -20.4317  -13.9676 C   0  0  0  0  0  0  0  0  0  0  0  0
   24.0616  -20.5962  -12.5371 C   0  0  0  0  0  0  0  0  0  0  0  0
   25.2273  -20.9814  -11.9524 C   0  0  0  0  0  0  0  0  0  0  0  0
   25.0641  -20.9744  -10.6237 N   0  0  0  0  0  0  0  0  0  0  0  0
   23.8066  -20.5908  -10.2945 C   0  0  0  0  0  0  0  0  0  0  0  0
   23.1513  -20.4246   -9.0989 C   0  0  0  0  0  0  0  0  0  0  0  0
   21.8502  -20.0176   -9.0500 C   0  0  0  0  0  0  0  0  0  0  0  0
   21.1954  -19.7725  -10.2372 C   0  0  0  0  0  0  0  0  0  0  0  0
   21.8507  -19.9389  -11.4267 C   0  0  0  0  0  0  0  0  0  0  0  0
   23.1754  -20.3529  -11.4916 C   0  0  0  0  0  0  0  0  0  0  0  0
   21.9783  -22.0688  -14.4763 C   0  0  0  0  0  0  0  0  0  0  0  0
   21.1582  -21.6719  -15.3413 O   0  0  0  0  0  0  0  0  0  0  0  0
   17.1330  -25.6399   -7.7614 N   0  0  0  0  0  0  0  0  0  0  0  0
   17.3587  -26.3069   -9.0057 C   0  0  0  0  0  0  0  0  0  0  0  0
   17.1502  -27.5722   -9.0694 N   0  0  0  0  0  0  0  0  0  0  0  0
   17.8003  -25.6175  -10.1539 N   0  0  0  0  0  0  0  0  0  0  0  0
   17.9431  -24.1864  -10.1669 C   0  0  0  0  0  0  0  0  0  0  0  0
   18.2753  -23.6688  -11.5506 C   0  0  0  0  0  0  0  0  0  0  0  0
   19.7674  -23.4819  -11.7325 C   0  0  0  0  0  0  0  0  0  0  0  0
   20.0485  -23.0140  -13.1502 C   0  0  2  0  0  0  0  0  0  0  0  0
   21.4549  -22.7995  -13.3746 N   0  0  0  0  0  0  0  0  0  0  0  0
   19.3292  -21.7670  -13.4672 C   0  0  0  0  0  0  0  0  0  0  0  0
   19.3834  -20.7997  -12.6776 O   0  0  0  0  0  0  0  0  0  0  0  0
   18.5902  -21.6370  -14.6235 O   0  0  0  0  0  0  0  0  0  0  0  0
  2  3  1  0
  2  1  1  1
  4  8  1  0
  4  3  1  0
  5  4  2  0
  6  5  1  0
  6  7  1  0
  7  8  2  0
  9  2  1  0
 10  9  2  0
 11  9  1  0
 12 11  1  0
 12 13  1  6
 13 14  1  0
 14 15  2  0
 15 16  1  0
 17 18  2  0
 17 16  1  0
 19 18  1  0
 20 19  2  0
 21 20  1  0
 21 22  2  0
 22 14  1  0
 22 17  1  0
 23 24  2  0
 23 12  1  0
 25 26  1  0
 26 28  1  0
 26 27  2  0
 28 29  1  0
 30 29  1  0
 30 31  1  0
 32 31  1  1
 32 33  1  0
 33 23  1  0
 34 32  1  0
 35 34  2  0
 36 34  1  0
M  END
$$$$
