HWR.pdb
     RDKit          3D

 36 38  0  0  1  0  0  0  0  0999 V2000
   28.7482  -21.1962  -14.4172 N   0  0  0  0  0  0  0  0  0  0  0  0
   28.0652  -20.1729  -13.6452 C   0  0  1  0  0  0  0  0  0  0  0  0
   27.3097  -19.2667  -14.5393 C   0  0  0  0  0  0  0  0  0  0  0  0
   28.2994  -18.5209  -15.3771 C   0  0  0  0  0  0  0  0  0  0  0  0
   28.7610  -18.9066  -16.6188 C   0  0  0  0  0  0  0  0  0  0  0  0
   29.6465  -17.9847  -17.0744 N   0  0  0  0  0  0  0  0  0  0  0  0
   29.7405  -17.0310  -16.1306 C   0  0  0  0  0  0  0  0  0  0  0  0
   28.9295  -17.3609  -15.1170 N   0  0  0  0  0  0  0  0  0  0  0  0
   27.3214  -20.8087  -12.5731 C   0  0  0  0  0  0  0  0  0  0  0  0
   26.7199  -21.8976  -12.8392 O   0  0  0  0  0  0  0  0  0  0  0  0
   27.1956  -20.3349  -11.2471 N   0  0  0  0  0  0  0  0  0  0  0  0
   26.0371  -20.5620  -10.4437 C   0  0  1  0  0  0  0  0  0  0  0  0
   26.1742  -19.9993   -9.0446 C   0  0  0  0  0  0  0  0  0  0  0  0
   27.4551  -20.4119   -8.4090 C   0  0  0  0  0  0  0  0  0  0  0  0
   28.4395  -21.2500   -8.8304 C   0  0  0  0  0  0  0  0  0  0  0  0
   29.3952  -21.2951   -7.8941 N   0  0  0  0  0  0  0  0  0  0  0  0
   29.0774  -20.5017   -6.8423 C   0  0  0  0  0  0  0  0  0  0  0  0
   29.7057  -20.2059   -5.6573 C   0  0  0  0  0  0  0  0  0  0  0  0
   29.1508  -19.3509   -4.7506 C   0  0  0  0  0  0  0  0  0  0  0  0
   27.9322  -18.7811   -5.0480 C   0  0  0  0  0  0  0  0  0  0  0  0
   27.3086  -19.0776   -6.2292 C   0  0  0  0  0  0  0  0  0  0  0  0
   27.8618  -19.9464   -7.1617 C   0  0  0  0  0  0  0  0  0  0  0  0
   24.8035  -19.9767  -11.0376 C   0  0  0  0  0  0  0  0  0  0  0  0
   24.8960  -19.1058  -11.9383 O   0  0  0  0  0  0  0  0  0  0  0  0
   23.2513  -25.9852  -15.5643 N   0  0  0  0  0  0  0  0  0  0  0  0
   22.8279  -24.7030  -16.0343 C   0  0  0  0  0  0  0  0  0  0  0  0
   22.6760  -24.5329  -17.2979 N   0  0  0  0  0  0  0  0  0  0  0  0
   22.5750  -23.6305  -15.1543 N   0  0  0  0  0  0  0  0  0  0  0  0
   22.0394  -23.8452  -13.8368 C   0  0  0  0  0  0  0  0  0  0  0  0
   21.7205  -22.5384  -13.1416 C   0  0  0  0  0  0  0  0  0  0  0  0
   22.8468  -22.1045  -12.2264 C   0  0  0  0  0  0  0  0  0  0  0  0
   22.4709  -20.7987  -11.5472 C   0  0  2  0  0  0  0  0  0  0  0  0
   23.4936  -20.3556  -10.6349 N   0  0  0  0  0  0  0  0  0  0  0  0
   21.2017  -20.9133  -10.8063 C   0  0  0  0  0  0  0  0  0  0  0  0
   21.1770  -21.4963   -9.7011 O   0  0  0  0  0  0  0  0  0  0  0  0
   20.0282  -20.3893  -11.3047 O   0  0  0  0  0  0  0  0  0  0  0  0
  2  3  1  0
  2  1  1  6
  4  8  1  0
  4  3  1  0
  5  4  2  0
  6  5  1  0
  6  7  1  0
  7  8  2  0
  9  2  1  0
 10  9  2  0
 11  9  1  0
 12 11  1  0
 12 13  1  1
 13 14  1  0
 14 15  2  0
 15 16  1  0
 17 18  2  0
 17 16  1  0
 19 18  1  0
 20 19  2  0
 21 20  1  0
 21 22  2  0
 22 14  1  0
 22 17  1  0
 23 24  2  0
 23 12  1  0
 25 26  1  0
 26 28  1  0
 26 27  2  0
 28 29  1  0
 30 29  1  0
 30 31  1  0
 32 31  1  1
 32 33  1  0
 33 23  1  0
 34 32  1  0
 35 34  2  0
 36 34  1  0
M  END
$$$$
