HWR.pdb
     RDKit          3D

 36 38  0  0  1  0  0  0  0  0999 V2000
   13.5187  -18.7211    2.9176 N   0  0  0  0  0  0  0  0  0  0  0  0
   14.2021  -19.8169    2.2530 C   0  0  1  0  0  0  0  0  0  0  0  0
   13.9429  -19.7822    0.7960 C   0  0  0  0  0  0  0  0  0  0  0  0
   12.4877  -20.0562    0.5835 C   0  0  0  0  0  0  0  0  0  0  0  0
   11.5430  -19.1369    0.1761 C   0  0  0  0  0  0  0  0  0  0  0  0
   10.3325  -19.7448    0.0923 N   0  0  0  0  0  0  0  0  0  0  0  0
   10.5142  -21.0307    0.4427 C   0  0  0  0  0  0  0  0  0  0  0  0
   11.8091  -21.2080    0.7355 N   0  0  0  0  0  0  0  0  0  0  0  0
   15.5915  -19.8304    2.6731 C   0  0  0  0  0  0  0  0  0  0  0  0
   16.3794  -20.6306    2.0755 O   0  0  0  0  0  0  0  0  0  0  0  0
   16.1650  -19.0352    3.6916 N   0  0  0  0  0  0  0  0  0  0  0  0
   17.5165  -19.1823    4.1288 C   0  0  1  0  0  0  0  0  0  0  0  0
   18.0692  -17.9216    4.7595 C   0  0  0  0  0  0  0  0  0  0  0  0
   18.1607  -16.8088    3.7754 C   0  0  0  0  0  0  0  0  0  0  0  0
   17.3265  -15.7669    3.5154 C   0  0  0  0  0  0  0  0  0  0  0  0
   17.8525  -15.0316    2.5282 N   0  0  0  0  0  0  0  0  0  0  0  0
   19.0309  -15.5558    2.1119 C   0  0  0  0  0  0  0  0  0  0  0  0
   19.9424  -15.1892    1.1521 C   0  0  0  0  0  0  0  0  0  0  0  0
   21.0773  -15.9137    0.9333 C   0  0  0  0  0  0  0  0  0  0  0  0
   21.2969  -17.0354    1.7027 C   0  0  0  0  0  0  0  0  0  0  0  0
   20.3873  -17.3983    2.6581 C   0  0  0  0  0  0  0  0  0  0  0  0
   19.2273  -16.6700    2.8917 C   0  0  0  0  0  0  0  0  0  0  0  0
   17.6827  -20.2823    5.1184 C   0  0  0  0  0  0  0  0  0  0  0  0
   16.8891  -20.3760    6.0879 O   0  0  0  0  0  0  0  0  0  0  0  0
   20.4593  -28.7900    4.7460 N   0  0  0  0  0  0  0  0  0  0  0  0
   20.0726  -28.4799    6.0871 C   0  0  0  0  0  0  0  0  0  0  0  0
   20.0108  -29.4346    6.9435 N   0  0  0  0  0  0  0  0  0  0  0  0
   19.7603  -27.1650    6.4899 N   0  0  0  0  0  0  0  0  0  0  0  0
   19.7654  -26.0689    5.5586 C   0  0  0  0  0  0  0  0  0  0  0  0
   19.3942  -24.7626    6.2283 C   0  0  0  0  0  0  0  0  0  0  0  0
   19.1898  -23.6551    5.2154 C   0  0  0  0  0  0  0  0  0  0  0  0
   18.8526  -22.3635    5.9405 C   0  0  2  0  0  0  0  0  0  0  0  0
   18.7131  -21.2577    5.0282 N   0  0  0  0  0  0  0  0  0  0  0  0
   19.8761  -22.0161    6.9428 C   0  0  0  0  0  0  0  0  0  0  0  0
   20.9002  -21.3898    6.5949 O   0  0  0  0  0  0  0  0  0  0  0  0
   19.7329  -22.3668    8.2682 O   0  0  0  0  0  0  0  0  0  0  0  0
  2  3  1  0
  2  1  1  1
  4  8  1  0
  4  3  1  0
  5  4  2  0
  6  5  1  0
  6  7  1  0
  7  8  2  0
  9  2  1  0
 10  9  2  0
 11  9  1  0
 12 11  1  0
 12 13  1  1
 13 14  1  0
 14 15  2  0
 15 16  1  0
 17 18  2  0
 17 16  1  0
 19 18  1  0
 20 19  2  0
 21 20  1  0
 21 22  2  0
 22 14  1  0
 22 17  1  0
 23 24  2  0
 23 12  1  0
 25 26  1  0
 26 28  1  0
 26 27  2  0
 28 29  1  0
 30 29  1  0
 30 31  1  0
 32 31  1  6
 32 33  1  0
 33 23  1  0
 34 32  1  0
 35 34  2  0
 36 34  1  0
M  END
$$$$
