HWR.pdb
     RDKit          3D

 36 38  0  0  1  0  0  0  0  0999 V2000
   28.7053  -21.6098  -15.2843 N   0  0  0  0  0  0  0  0  0  0  0  0
   28.1715  -20.4045  -14.6744 C   0  0  1  0  0  0  0  0  0  0  0  0
   27.3824  -19.6308  -15.6593 C   0  0  0  0  0  0  0  0  0  0  0  0
   28.3349  -19.0594  -16.6613 C   0  0  0  0  0  0  0  0  0  0  0  0
   28.4603  -19.4577  -17.9763 C   0  0  0  0  0  0  0  0  0  0  0  0
   29.4231  -18.7157  -18.5798 N   0  0  0  0  0  0  0  0  0  0  0  0
   29.8972  -17.8613  -17.6554 C   0  0  0  0  0  0  0  0  0  0  0  0
   29.2390  -18.0748  -16.5086 N   0  0  0  0  0  0  0  0  0  0  0  0
   27.5079  -20.7581  -13.4328 C   0  0  0  0  0  0  0  0  0  0  0  0
   26.6548  -21.7011  -13.4692 O   0  0  0  0  0  0  0  0  0  0  0  0
   27.7156  -20.1536  -12.1719 N   0  0  0  0  0  0  0  0  0  0  0  0
   26.9486  -20.4821  -11.0130 C   0  0  1  0  0  0  0  0  0  0  0  0
   27.3653  -19.6916   -9.7906 C   0  0  0  0  0  0  0  0  0  0  0  0
   26.6455  -20.1465   -8.5698 C   0  0  0  0  0  0  0  0  0  0  0  0
   25.4142  -20.6996   -8.4051 C   0  0  0  0  0  0  0  0  0  0  0  0
   25.2200  -20.9347   -7.1016 N   0  0  0  0  0  0  0  0  0  0  0  0
   26.2987  -20.5508   -6.3765 C   0  0  0  0  0  0  0  0  0  0  0  0
   26.5949  -20.5779   -5.0356 C   0  0  0  0  0  0  0  0  0  0  0  0
   27.7871  -20.1163   -4.5597 C   0  0  0  0  0  0  0  0  0  0  0  0
   28.7020  -19.6154   -5.4599 C   0  0  0  0  0  0  0  0  0  0  0  0
   28.4043  -19.5896   -6.7950 C   0  0  0  0  0  0  0  0  0  0  0  0
   27.1943  -20.0562   -7.2937 C   0  0  0  0  0  0  0  0  0  0  0  0
   25.4895  -20.2589  -11.2086 C   0  0  0  0  0  0  0  0  0  0  0  0
   25.0678  -19.1164  -11.5171 O   0  0  0  0  0  0  0  0  0  0  0  0
   22.5518  -26.4719  -13.7299 N   0  0  0  0  0  0  0  0  0  0  0  0
   21.4777  -25.6300  -14.1559 C   0  0  0  0  0  0  0  0  0  0  0  0
   20.2778  -26.0805  -14.0779 N   0  0  0  0  0  0  0  0  0  0  0  0
   21.6997  -24.3297  -14.6546 N   0  0  0  0  0  0  0  0  0  0  0  0
   22.8530  -23.5607  -14.2708 C   0  0  0  0  0  0  0  0  0  0  0  0
   22.4632  -22.2892  -13.5469 C   0  0  0  0  0  0  0  0  0  0  0  0
   22.5922  -22.4407  -12.0453 C   0  0  0  0  0  0  0  0  0  0  0  0
   23.1410  -21.1538  -11.4532 C   0  0  2  0  0  0  0  0  0  0  0  0
   24.5208  -21.2894  -11.0630 N   0  0  0  0  0  0  0  0  0  0  0  0
   22.3642  -20.7174  -10.2789 C   0  0  0  0  0  0  0  0  0  0  0  0
   22.6285  -21.1835   -9.1498 O   0  0  0  0  0  0  0  0  0  0  0  0
   21.3426  -19.7990  -10.3934 O   0  0  0  0  0  0  0  0  0  0  0  0
  2  3  1  0
  2  1  1  6
  4  8  1  0
  4  3  1  0
  5  4  2  0
  6  5  1  0
  6  7  1  0
  7  8  2  0
  9  2  1  0
 10  9  2  0
 11  9  1  0
 12 11  1  0
 12 13  1  1
 13 14  1  0
 14 15  2  0
 15 16  1  0
 17 18  2  0
 17 16  1  0
 19 18  1  0
 20 19  2  0
 21 20  1  0
 21 22  2  0
 22 14  1  0
 22 17  1  0
 23 24  2  0
 23 12  1  0
 25 26  1  0
 26 28  1  0
 26 27  2  0
 28 29  1  0
 30 29  1  0
 30 31  1  0
 32 31  1  1
 32 33  1  0
 33 23  1  0
 34 32  1  0
 35 34  2  0
 36 34  1  0
M  END
$$$$
