HWR.pdb
     RDKit          3D

 36 38  0  0  1  0  0  0  0  0999 V2000
   28.1973  -22.7050  -16.2533 N   0  0  0  0  0  0  0  0  0  0  0  0
   27.1233  -21.7427  -16.0804 C   0  0  1  0  0  0  0  0  0  0  0  0
   26.1652  -21.8270  -17.2057 C   0  0  0  0  0  0  0  0  0  0  0  0
   26.8817  -21.4046  -18.4491 C   0  0  0  0  0  0  0  0  0  0  0  0
   27.1160  -22.1951  -19.5554 C   0  0  0  0  0  0  0  0  0  0  0  0
   27.7915  -21.4749  -20.4864 N   0  0  0  0  0  0  0  0  0  0  0  0
   27.9795  -20.2465  -19.9715 C   0  0  0  0  0  0  0  0  0  0  0  0
   27.4308  -20.2138  -18.7501 N   0  0  0  0  0  0  0  0  0  0  0  0
   26.5784  -21.8794  -14.7419 C   0  0  0  0  0  0  0  0  0  0  0  0
   26.2025  -23.0379  -14.3748 O   0  0  0  0  0  0  0  0  0  0  0  0
   26.4209  -20.8430  -13.7933 N   0  0  0  0  0  0  0  0  0  0  0  0
   25.8133  -21.0399  -12.5160 C   0  0  1  0  0  0  0  0  0  0  0  0
   26.2995  -20.0517  -11.4768 C   0  0  0  0  0  0  0  0  0  0  0  0
   27.4731  -20.5758  -10.7263 C   0  0  0  0  0  0  0  0  0  0  0  0
   28.5787  -21.2498  -11.1417 C   0  0  0  0  0  0  0  0  0  0  0  0
   29.3509  -21.5048  -10.0783 N   0  0  0  0  0  0  0  0  0  0  0  0
   28.7891  -21.0157   -8.9461 C   0  0  0  0  0  0  0  0  0  0  0  0
   29.1693  -21.0141   -7.6263 C   0  0  0  0  0  0  0  0  0  0  0  0
   28.3964  -20.4353   -6.6627 C   0  0  0  0  0  0  0  0  0  0  0  0
   27.2111  -19.8439   -7.0414 C   0  0  0  0  0  0  0  0  0  0  0  0
   26.8348  -19.8469   -8.3568 C   0  0  0  0  0  0  0  0  0  0  0  0
   27.6118  -20.4326   -9.3486 C   0  0  0  0  0  0  0  0  0  0  0  0
   24.3287  -20.9366  -12.5650 C   0  0  0  0  0  0  0  0  0  0  0  0
   23.7820  -20.1861  -13.4114 O   0  0  0  0  0  0  0  0  0  0  0  0
   17.4314  -25.1704   -8.3838 N   0  0  0  0  0  0  0  0  0  0  0  0
   16.9278  -24.3223   -9.4188 C   0  0  0  0  0  0  0  0  0  0  0  0
   15.6680  -24.3392   -9.6663 N   0  0  0  0  0  0  0  0  0  0  0  0
   17.7709  -23.4756  -10.1678 N   0  0  0  0  0  0  0  0  0  0  0  0
   19.1916  -23.4374   -9.9468 C   0  0  0  0  0  0  0  0  0  0  0  0
   19.8869  -22.5160  -10.9268 C   0  0  0  0  0  0  0  0  0  0  0  0
   21.3886  -22.5225  -10.7289 C   0  0  0  0  0  0  0  0  0  0  0  0
   22.0340  -21.5809  -11.7312 C   0  0  2  0  0  0  0  0  0  0  0  0
   23.4717  -21.6559  -11.6878 N   0  0  0  0  0  0  0  0  0  0  0  0
   21.6321  -20.1810  -11.5036 C   0  0  0  0  0  0  0  0  0  0  0  0
   22.2462  -19.4858  -10.6660 O   0  0  0  0  0  0  0  0  0  0  0  0
   20.5858  -19.6115  -12.1971 O   0  0  0  0  0  0  0  0  0  0  0  0
  2  3  1  0
  2  1  1  6
  4  8  1  0
  4  3  1  0
  5  4  2  0
  6  5  1  0
  6  7  1  0
  7  8  2  0
  9  2  1  0
 10  9  2  0
 11  9  1  0
 12 11  1  0
 12 13  1  1
 13 14  1  0
 14 15  2  0
 15 16  1  0
 17 18  2  0
 17 16  1  0
 19 18  1  0
 20 19  2  0
 21 20  1  0
 21 22  2  0
 22 14  1  0
 22 17  1  0
 23 24  2  0
 23 12  1  0
 25 26  1  0
 26 28  1  0
 26 27  2  0
 28 29  1  0
 30 29  1  0
 30 31  1  0
 32 31  1  1
 32 33  1  0
 33 23  1  0
 34 32  1  0
 35 34  2  0
 36 34  1  0
M  END
$$$$
