HWR.pdb
     RDKit          3D

 36 38  0  0  1  0  0  0  0  0999 V2000
   28.7170  -20.8698  -15.5705 N   0  0  0  0  0  0  0  0  0  0  0  0
   28.4611  -19.9110  -14.5099 C   0  0  1  0  0  0  0  0  0  0  0  0
   27.8037  -18.7008  -15.0525 C   0  0  0  0  0  0  0  0  0  0  0  0
   28.8088  -17.9674  -15.8828 C   0  0  0  0  0  0  0  0  0  0  0  0
   30.1054  -18.3712  -16.1265 C   0  0  0  0  0  0  0  0  0  0  0  0
   30.7185  -17.4567  -16.9200 N   0  0  0  0  0  0  0  0  0  0  0  0
   29.8181  -16.4896  -17.1719 C   0  0  0  0  0  0  0  0  0  0  0  0
   28.6765  -16.8043  -16.5461 N   0  0  0  0  0  0  0  0  0  0  0  0
   27.7912  -20.5874  -13.4141 C   0  0  0  0  0  0  0  0  0  0  0  0
   26.8045  -21.3376  -13.7006 O   0  0  0  0  0  0  0  0  0  0  0  0
   28.1278  -20.4960  -12.0441 N   0  0  0  0  0  0  0  0  0  0  0  0
   27.3644  -21.1177  -11.0097 C   0  0  1  0  0  0  0  0  0  0  0  0
   28.0887  -21.1418   -9.6801 C   0  0  0  0  0  0  0  0  0  0  0  0
   27.2549  -20.5676   -8.5891 C   0  0  0  0  0  0  0  0  0  0  0  0
   25.9241  -20.2965   -8.5216 C   0  0  0  0  0  0  0  0  0  0  0  0
   25.6516  -19.7802   -7.3169 N   0  0  0  0  0  0  0  0  0  0  0  0
   26.7750  -19.6954   -6.5635 C   0  0  0  0  0  0  0  0  0  0  0  0
   27.0274  -19.2492   -5.2892 C   0  0  0  0  0  0  0  0  0  0  0  0
   28.2846  -19.2765   -4.7606 C   0  0  0  0  0  0  0  0  0  0  0  0
   29.3115  -19.7663   -5.5377 C   0  0  0  0  0  0  0  0  0  0  0  0
   29.0572  -20.2101   -6.8066 C   0  0  0  0  0  0  0  0  0  0  0  0
   27.7820  -20.1882   -7.3579 C   0  0  0  0  0  0  0  0  0  0  0  0
   26.0514  -20.4519  -10.7867 C   0  0  0  0  0  0  0  0  0  0  0  0
   26.0096  -19.2234  -10.5272 O   0  0  0  0  0  0  0  0  0  0  0  0
   22.4628  -24.6459  -16.6354 N   0  0  0  0  0  0  0  0  0  0  0  0
   22.7067  -25.2933  -15.3842 C   0  0  0  0  0  0  0  0  0  0  0  0
   22.6988  -26.5768  -15.3464 N   0  0  0  0  0  0  0  0  0  0  0  0
   22.9536  -24.5657  -14.2017 N   0  0  0  0  0  0  0  0  0  0  0  0
   23.0088  -23.1285  -14.1973 C   0  0  0  0  0  0  0  0  0  0  0  0
   23.3045  -22.5830  -12.8161 C   0  0  0  0  0  0  0  0  0  0  0  0
   23.3367  -21.0687  -12.8098 C   0  0  0  0  0  0  0  0  0  0  0  0
   23.6045  -20.5752  -11.3983 C   0  0  2  0  0  0  0  0  0  0  0  0
   24.8104  -21.1427  -10.8521 N   0  0  0  0  0  0  0  0  0  0  0  0
   22.4874  -20.8876  -10.4887 C   0  0  0  0  0  0  0  0  0  0  0  0
   22.6642  -21.6740   -9.5335 O   0  0  0  0  0  0  0  0  0  0  0  0
   21.2392  -20.3300  -10.6648 O   0  0  0  0  0  0  0  0  0  0  0  0
  2  3  1  0
  2  1  1  6
  4  8  1  0
  4  3  1  0
  5  4  2  0
  6  5  1  0
  6  7  1  0
  7  8  2  0
  9  2  1  0
 10  9  2  0
 11  9  1  0
 12 11  1  0
 12 13  1  1
 13 14  1  0
 14 15  2  0
 15 16  1  0
 17 18  2  0
 17 16  1  0
 19 18  1  0
 20 19  2  0
 21 20  1  0
 21 22  2  0
 22 14  1  0
 22 17  1  0
 23 24  2  0
 23 12  1  0
 25 26  1  0
 26 28  1  0
 26 27  2  0
 28 29  1  0
 30 29  1  0
 30 31  1  0
 32 31  1  6
 32 33  1  0
 33 23  1  0
 34 32  1  0
 35 34  2  0
 36 34  1  0
M  END
$$$$
