HWR.pdb
     RDKit          3D

 36 38  0  0  1  0  0  0  0  0999 V2000
   26.7843  -19.0177  -18.9030 N   0  0  0  0  0  0  0  0  0  0  0  0
   26.3094  -18.2259  -17.7819 C   0  0  1  0  0  0  0  0  0  0  0  0
   25.1619  -17.3846  -18.1903 C   0  0  0  0  0  0  0  0  0  0  0  0
   25.7052  -16.0941  -18.7165 C   0  0  0  0  0  0  0  0  0  0  0  0
   26.9816  -15.6114  -18.5133 C   0  0  0  0  0  0  0  0  0  0  0  0
   27.1138  -14.4150  -19.1401 N   0  0  0  0  0  0  0  0  0  0  0  0
   25.9348  -14.1488  -19.7302 C   0  0  0  0  0  0  0  0  0  0  0  0
   25.0966  -15.1608  -19.4708 N   0  0  0  0  0  0  0  0  0  0  0  0
   26.1106  -19.0983  -16.6389 C   0  0  0  0  0  0  0  0  0  0  0  0
   25.2903  -20.0619  -16.7694 O   0  0  0  0  0  0  0  0  0  0  0  0
   26.7435  -18.9845  -15.3798 N   0  0  0  0  0  0  0  0  0  0  0  0
   26.4477  -19.8424  -14.2772 C   0  0  1  0  0  0  0  0  0  0  0  0
   27.4448  -19.7079  -13.1456 C   0  0  0  0  0  0  0  0  0  0  0  0
   27.1509  -20.6573  -12.0378 C   0  0  0  0  0  0  0  0  0  0  0  0
   27.1106  -22.0162  -12.0045 C   0  0  0  0  0  0  0  0  0  0  0  0
   26.7957  -22.4061  -10.7631 N   0  0  0  0  0  0  0  0  0  0  0  0
   26.6210  -21.3352   -9.9511 C   0  0  0  0  0  0  0  0  0  0  0  0
   26.2976  -21.1983   -8.6233 C   0  0  0  0  0  0  0  0  0  0  0  0
   26.1836  -19.9701   -8.0407 C   0  0  0  0  0  0  0  0  0  0  0  0
   26.4015  -18.8535   -8.8179 C   0  0  0  0  0  0  0  0  0  0  0  0
   26.7235  -18.9929  -10.1403 C   0  0  0  0  0  0  0  0  0  0  0  0
   26.8430  -20.2372  -10.7469 C   0  0  0  0  0  0  0  0  0  0  0  0
   25.0944  -19.5973  -13.7066 C   0  0  0  0  0  0  0  0  0  0  0  0
   24.6358  -18.4284  -13.6655 O   0  0  0  0  0  0  0  0  0  0  0  0
   21.6957  -25.6828  -14.9101 N   0  0  0  0  0  0  0  0  0  0  0  0
   20.4854  -25.1244  -14.3931 C   0  0  0  0  0  0  0  0  0  0  0  0
   19.6656  -25.8995  -13.7802 N   0  0  0  0  0  0  0  0  0  0  0  0
   20.1717  -23.7571  -14.5374 N   0  0  0  0  0  0  0  0  0  0  0  0
   21.1207  -22.8170  -15.0707 C   0  0  0  0  0  0  0  0  0  0  0  0
   22.0917  -22.3390  -14.0117 C   0  0  0  0  0  0  0  0  0  0  0  0
   21.8794  -20.8764  -13.6800 C   0  0  0  0  0  0  0  0  0  0  0  0
   22.9373  -20.4248  -12.6878 C   0  0  2  0  0  0  0  0  0  0  0  0
   24.2697  -20.6351  -13.1925 N   0  0  0  0  0  0  0  0  0  0  0  0
   22.8107  -21.1254  -11.3970 C   0  0  0  0  0  0  0  0  0  0  0  0
   21.8552  -20.8601  -10.6363 O   0  0  0  0  0  0  0  0  0  0  0  0
   23.7275  -22.0757  -11.0016 O   0  0  0  0  0  0  0  0  0  0  0  0
  2  3  1  0
  2  1  1  6
  4  8  1  0
  4  3  1  0
  5  4  2  0
  6  5  1  0
  6  7  1  0
  7  8  2  0
  9  2  1  0
 10  9  2  0
 11  9  1  0
 12 11  1  0
 12 13  1  1
 13 14  1  0
 14 15  2  0
 15 16  1  0
 17 18  2  0
 17 16  1  0
 19 18  1  0
 20 19  2  0
 21 20  1  0
 21 22  2  0
 22 14  1  0
 22 17  1  0
 23 24  2  0
 23 12  1  0
 25 26  1  0
 26 28  1  0
 26 27  2  0
 28 29  1  0
 30 29  1  0
 30 31  1  0
 32 31  1  6
 32 33  1  0
 33 23  1  0
 34 32  1  0
 35 34  2  0
 36 34  1  0
M  END
$$$$
