HWR.pdb
     RDKit          3D

 36 38  0  0  1  0  0  0  0  0999 V2000
   15.3150  -24.2607  -13.4901 N   0  0  0  0  0  0  0  0  0  0  0  0
   15.7260  -24.5650  -14.8495 C   0  0  1  0  0  0  0  0  0  0  0  0
   14.7013  -25.3896  -15.5288 C   0  0  0  0  0  0  0  0  0  0  0  0
   14.6131  -26.6964  -14.8063 C   0  0  0  0  0  0  0  0  0  0  0  0
   14.9742  -27.9272  -15.3145 C   0  0  0  0  0  0  0  0  0  0  0  0
   14.7563  -28.8820  -14.3749 N   0  0  0  0  0  0  0  0  0  0  0  0
   14.2642  -28.2588  -13.2892 C   0  0  0  0  0  0  0  0  0  0  0  0
   14.1818  -26.9491  -13.5572 N   0  0  0  0  0  0  0  0  0  0  0  0
   16.1222  -23.3342  -15.5092 C   0  0  0  0  0  0  0  0  0  0  0  0
   15.3264  -22.3445  -15.4359 O   0  0  0  0  0  0  0  0  0  0  0  0
   17.3172  -23.1210  -16.2339 N   0  0  0  0  0  0  0  0  0  0  0  0
   17.6264  -21.8876  -16.8837 C   0  0  1  0  0  0  0  0  0  0  0  0
   19.0843  -21.7826  -17.2792 C   0  0  0  0  0  0  0  0  0  0  0  0
   19.4538  -20.3901  -17.6530 C   0  0  0  0  0  0  0  0  0  0  0  0
   19.3687  -19.2210  -16.9638 C   0  0  0  0  0  0  0  0  0  0  0  0
   19.8303  -18.2314  -17.7382 N   0  0  0  0  0  0  0  0  0  0  0  0
   20.2280  -18.7076  -18.9430 C   0  0  0  0  0  0  0  0  0  0  0  0
   20.7620  -18.1187  -20.0631 C   0  0  0  0  0  0  0  0  0  0  0  0
   21.0810  -18.8502  -21.1695 C   0  0  0  0  0  0  0  0  0  0  0  0
   20.8552  -20.2090  -21.1439 C   0  0  0  0  0  0  0  0  0  0  0  0
   20.3231  -20.7931  -20.0269 C   0  0  0  0  0  0  0  0  0  0  0  0
   19.9935  -20.0606  -18.8931 C   0  0  0  0  0  0  0  0  0  0  0  0
   16.8168  -21.6687  -18.1140 C   0  0  0  0  0  0  0  0  0  0  0  0
   16.5921  -22.6283  -18.8933 O   0  0  0  0  0  0  0  0  0  0  0  0
   11.2950  -15.1365  -20.4303 N   0  0  0  0  0  0  0  0  0  0  0  0
   11.8704  -15.8705  -19.3467 C   0  0  0  0  0  0  0  0  0  0  0  0
   11.6674  -15.4551  -18.1488 N   0  0  0  0  0  0  0  0  0  0  0  0
   12.6477  -17.0281  -19.5575 N   0  0  0  0  0  0  0  0  0  0  0  0
   13.1787  -17.3552  -20.8536 C   0  0  0  0  0  0  0  0  0  0  0  0
   13.9055  -18.6835  -20.8427 C   0  0  0  0  0  0  0  0  0  0  0  0
   14.7405  -18.8518  -19.5901 C   0  0  0  0  0  0  0  0  0  0  0  0
   15.4844  -20.1749  -19.6532 C   0  0  2  0  0  0  0  0  0  0  0  0
   16.2691  -20.4052  -18.4676 N   0  0  0  0  0  0  0  0  0  0  0  0
   16.3762  -20.2453  -20.8248 C   0  0  0  0  0  0  0  0  0  0  0  0
   17.5786  -19.9239  -20.7115 O   0  0  0  0  0  0  0  0  0  0  0  0
   15.9151  -20.6608  -22.0556 O   0  0  0  0  0  0  0  0  0  0  0  0
  2  3  1  0
  2  1  1  1
  4  8  1  0
  4  3  1  0
  5  4  2  0
  6  5  1  0
  6  7  1  0
  7  8  2  0
  9  2  1  0
 10  9  2  0
 11  9  1  0
 12 11  1  0
 12 13  1  6
 13 14  1  0
 14 15  2  0
 15 16  1  0
 17 18  2  0
 17 16  1  0
 19 18  1  0
 20 19  2  0
 21 20  1  0
 21 22  2  0
 22 14  1  0
 22 17  1  0
 23 24  2  0
 23 12  1  0
 25 26  1  0
 26 28  1  0
 26 27  2  0
 28 29  1  0
 30 29  1  0
 30 31  1  0
 32 31  1  1
 32 33  1  0
 33 23  1  0
 34 32  1  0
 35 34  2  0
 36 34  1  0
M  END
$$$$
