RNW.pdb
     RDKit          3D

 34 35  0  0  1  0  0  0  0  0999 V2000
    8.0897  -14.2181   17.0679 N   0  0  0  0  0  0  0  0  0  0  0  0
    8.2934  -13.4827   18.2800 C   0  0  0  0  0  0  0  0  0  0  0  0
    8.5706  -12.2160   18.2429 N   0  0  0  0  0  0  0  0  0  0  0  0
    8.1939  -14.1425   19.5303 N   0  0  0  0  0  0  0  0  0  0  0  0
    7.0103  -14.9461   19.8873 C   0  0  0  0  0  0  0  0  0  0  0  0
    7.0546  -16.1541   19.0029 C   0  0  0  0  0  0  0  0  0  0  0  0
    8.1737  -17.0544   19.3534 C   0  0  0  0  0  0  0  0  0  0  0  0
    8.0774  -17.8319   20.6129 C   0  0  2  0  0  0  0  0  0  0  0  0
    7.2550  -17.3097   21.6502 N   0  0  0  0  0  0  0  0  0  0  0  0
    9.4693  -17.9871   21.1634 C   0  0  0  0  0  0  0  0  0  0  0  0
   10.0396  -19.0786   20.8616 O   0  0  0  0  0  0  0  0  0  0  0  0
    8.7446  -11.6568   19.0748 N   0  0  0  0  0  0  0  0  0  0  0  0
   10.9873  -15.0865   20.4122 C   0  0  0  0  0  0  0  0  0  0  0  0
   12.1522  -15.3364   21.2097 O   0  0  0  0  0  0  0  0  0  0  0  0
   12.9110  -14.3577   21.4187 C   0  0  0  0  0  0  0  0  0  0  0  0
   12.4739  -16.6426   21.7668 C   0  0  1  0  0  0  0  0  0  0  0  0
   11.3844  -17.3127   22.5556 N   0  0  0  0  0  0  0  0  0  0  0  0
   10.1094  -17.0082   21.9567 C   0  0  0  0  0  0  0  0  0  0  0  0
   11.4608  -16.7927   23.9609 O   0  0  0  0  0  0  0  0  0  0  0  0
   12.3077  -15.9112   24.2142 N   0  0  0  0  0  0  0  0  0  0  0  0
   10.6239  -17.2565   25.0000 C   0  0  1  0  0  0  0  0  0  0  0  0
   10.6594  -16.8124   26.3791 C   0  0  0  0  0  0  0  0  0  0  0  0
   10.3190  -15.3841   26.5276 C   0  0  0  0  0  0  0  0  0  0  0  0
    8.8740  -15.1360   26.4298 C   0  0  0  0  0  0  0  0  0  0  0  0
    7.8395  -16.0415   26.3153 N   0  0  0  0  0  0  0  0  0  0  0  0
    6.6698  -15.3667   26.2215 C   0  0  0  0  0  0  0  0  0  0  0  0
    6.9158  -14.0513   26.2725 C   0  0  0  0  0  0  0  0  0  0  0  0
    6.1119  -12.9077   26.2383 C   0  0  0  0  0  0  0  0  0  0  0  0
    6.6357  -11.6357   26.3301 C   0  0  0  0  0  0  0  0  0  0  0  0
    7.9991  -11.4957   26.4598 C   0  0  0  0  0  0  0  0  0  0  0  0
    8.8103  -12.6211   26.4945 C   0  0  0  0  0  0  0  0  0  0  0  0
    8.2682  -13.8801   26.4009 C   0  0  0  0  0  0  0  0  0  0  0  0
   10.1357  -17.7467   27.3658 O   0  0  0  0  0  0  0  0  0  0  0  0
   10.3448  -17.7011   28.7336 O   0  0  0  0  0  0  0  0  0  0  0  0
  1  2  1  0
  2  3  2  0
  4  2  1  0
  5  4  1  0
  6  5  1  0
  7  6  1  0
  8  9  1  1
  8  7  1  0
 10  8  1  0
 11 10  2  0
 13 15  1  0
 13 12  1  0
 14 13  2  0
 16 15  1  6
 16 17  1  0
 17 10  1  0
 18 16  1  0
 18 19  2  0
 20 18  1  0
 21 20  1  0
 21 22  1  1
 23 22  1  0
 23 31  1  0
 24 25  1  0
 24 23  2  0
 25 26  1  0
 26 31  2  0
 26 27  1  0
 27 28  2  0
 28 29  1  0
 30 29  2  0
 31 30  1  0
 32 21  1  0
 33 32  1  0
 34 32  2  0
M  END
$$$$
