RNW.pdb
     RDKit          3D

 34 35  0  0  1  0  0  0  0  0999 V2000
    8.5923  -13.9986   16.9162 N   0  0  0  0  0  0  0  0  0  0  0  0
    8.2155  -13.5016   18.2057 C   0  0  0  0  0  0  0  0  0  0  0  0
    8.7909  -12.4490   18.6995 N   0  0  0  0  0  0  0  0  0  0  0  0
    7.2082  -14.1645   18.9501 N   0  0  0  0  0  0  0  0  0  0  0  0
    6.7044  -15.4930   18.5556 C   0  0  0  0  0  0  0  0  0  0  0  0
    7.9171  -16.3540   18.3791 C   0  0  0  0  0  0  0  0  0  0  0  0
    7.9616  -17.4543   19.3655 C   0  0  0  0  0  0  0  0  0  0  0  0
    7.6357  -17.1406   20.7781 C   0  0  2  0  0  0  0  0  0  0  0  0
    7.1706  -15.8285   21.0729 N   0  0  0  0  0  0  0  0  0  0  0  0
    8.8725  -17.3858   21.5993 C   0  0  0  0  0  0  0  0  0  0  0  0
    9.3060  -18.5768   21.5614 O   0  0  0  0  0  0  0  0  0  0  0  0
    8.5816  -12.0786   19.6236 N   0  0  0  0  0  0  0  0  0  0  0  0
   13.8235  -17.5411   23.2887 C   0  0  0  0  0  0  0  0  0  0  0  0
   13.1139  -16.2982   23.3721 O   0  0  0  0  0  0  0  0  0  0  0  0
   13.6165  -15.4120   24.1067 C   0  0  0  0  0  0  0  0  0  0  0  0
   11.8723  -16.0374   22.6578 C   0  0  1  0  0  0  0  0  0  0  0  0
   10.6497  -16.7408   23.1762 N   0  0  0  0  0  0  0  0  0  0  0  0
    9.5159  -16.3842   22.3610 C   0  0  0  0  0  0  0  0  0  0  0  0
   10.4510  -16.3089   24.5993 O   0  0  0  0  0  0  0  0  0  0  0  0
   10.8461  -15.1708   24.9267 N   0  0  0  0  0  0  0  0  0  0  0  0
    9.8434  -17.1295   25.5752 C   0  0  1  0  0  0  0  0  0  0  0  0
    9.7912  -16.8579   26.9979 C   0  0  0  0  0  0  0  0  0  0  0  0
    8.4157  -16.6444   27.4880 C   0  0  0  0  0  0  0  0  0  0  0  0
    7.6268  -15.7836   26.5958 C   0  0  0  0  0  0  0  0  0  0  0  0
    6.7554  -16.1391   25.5871 N   0  0  0  0  0  0  0  0  0  0  0  0
    6.2747  -15.0168   25.0023 C   0  0  0  0  0  0  0  0  0  0  0  0
    6.8083  -13.9452   25.6027 C   0  0  0  0  0  0  0  0  0  0  0  0
    6.6688  -12.5641   25.4347 C   0  0  0  0  0  0  0  0  0  0  0  0
    7.3400  -11.6543   26.2237 C   0  0  0  0  0  0  0  0  0  0  0  0
    8.1749  -12.1309   27.2091 C   0  0  0  0  0  0  0  0  0  0  0  0
    8.3245  -13.4991   27.3876 C   0  0  0  0  0  0  0  0  0  0  0  0
    7.6466  -14.3891   26.5900 C   0  0  0  0  0  0  0  0  0  0  0  0
   10.7019  -17.6312   27.8307 O   0  0  0  0  0  0  0  0  0  0  0  0
   11.5450  -18.6439   27.4062 O   0  0  0  0  0  0  0  0  0  0  0  0
  1  2  1  0
  2  3  2  0
  4  2  1  0
  5  4  1  0
  6  5  1  0
  7  6  1  0
  8  9  1  6
  8  7  1  0
 10  8  1  0
 11 10  2  0
 13 15  1  0
 13 12  1  0
 14 13  2  0
 16 15  1  6
 16 17  1  0
 17 10  1  0
 18 16  1  0
 18 19  2  0
 20 18  1  0
 21 20  1  0
 21 22  1  1
 23 22  1  0
 23 31  1  0
 24 25  1  0
 24 23  2  0
 25 26  1  0
 26 31  2  0
 26 27  1  0
 27 28  2  0
 28 29  1  0
 30 29  2  0
 31 30  1  0
 32 21  1  0
 33 32  1  0
 34 32  2  0
M  END
$$$$
