RNW.pdb
     RDKit          3D

 34 35  0  0  1  0  0  0  0  0999 V2000
    8.0888  -12.9753   17.0882 N   0  0  0  0  0  0  0  0  0  0  0  0
    8.4794  -13.4796   18.3707 C   0  0  0  0  0  0  0  0  0  0  0  0
    9.5119  -12.9896   18.9843 N   0  0  0  0  0  0  0  0  0  0  0  0
    7.7346  -14.5232   18.9747 N   0  0  0  0  0  0  0  0  0  0  0  0
    7.6450  -15.8619   18.3631 C   0  0  0  0  0  0  0  0  0  0  0  0
    6.8159  -16.6846   19.3006 C   0  0  0  0  0  0  0  0  0  0  0  0
    7.5346  -17.8929   19.7583 C   0  0  0  0  0  0  0  0  0  0  0  0
    7.7035  -18.0951   21.2179 C   0  0  2  0  0  0  0  0  0  0  0  0
    6.8906  -17.3190   22.0907 N   0  0  0  0  0  0  0  0  0  0  0  0
    9.1423  -17.8125   21.5565 C   0  0  0  0  0  0  0  0  0  0  0  0
    9.9678  -18.0913   20.6353 O   0  0  0  0  0  0  0  0  0  0  0  0
    9.8825  -13.3738   19.8503 N   0  0  0  0  0  0  0  0  0  0  0  0
   13.7692  -16.0408   22.6710 C   0  0  0  0  0  0  0  0  0  0  0  0
   12.6649  -15.3098   22.1219 O   0  0  0  0  0  0  0  0  0  0  0  0
   12.8994  -14.1341   21.7475 C   0  0  0  0  0  0  0  0  0  0  0  0
   11.3259  -15.8659   21.9881 C   0  0  1  0  0  0  0  0  0  0  0  0
   10.9502  -16.9330   22.9773 N   0  0  0  0  0  0  0  0  0  0  0  0
    9.5632  -17.2803   22.7962 C   0  0  0  0  0  0  0  0  0  0  0  0
   11.1954  -16.3807   24.3506 O   0  0  0  0  0  0  0  0  0  0  0  0
   12.3569  -16.0268   24.6409 N   0  0  0  0  0  0  0  0  0  0  0  0
   10.1770  -16.2482   25.3203 C   0  0  1  0  0  0  0  0  0  0  0  0
   10.3373  -16.4336   26.7487 C   0  0  0  0  0  0  0  0  0  0  0  0
    9.2181  -15.8679   27.5267 C   0  0  0  0  0  0  0  0  0  0  0  0
    8.1047  -15.4283   26.6744 C   0  0  0  0  0  0  0  0  0  0  0  0
    7.2231  -16.1863   25.9318 N   0  0  0  0  0  0  0  0  0  0  0  0
    6.3776  -15.3606   25.2715 C   0  0  0  0  0  0  0  0  0  0  0  0
    6.6851  -14.0906   25.5649 C   0  0  0  0  0  0  0  0  0  0  0  0
    6.1558  -12.8500   25.1962 C   0  0  0  0  0  0  0  0  0  0  0  0
    6.6654  -11.6606   25.6721 C   0  0  0  0  0  0  0  0  0  0  0  0
    7.7329  -11.7051   26.5404 C   0  0  0  0  0  0  0  0  0  0  0  0
    8.2698  -12.9288   26.9150 C   0  0  0  0  0  0  0  0  0  0  0  0
    7.7473  -14.1029   26.4287 C   0  0  0  0  0  0  0  0  0  0  0  0
   10.8841  -17.7159   27.1701 O   0  0  0  0  0  0  0  0  0  0  0  0
   11.5883  -17.9665   28.3354 O   0  0  0  0  0  0  0  0  0  0  0  0
  1  2  1  0
  2  3  2  0
  4  2  1  0
  5  4  1  0
  6  5  1  0
  7  6  1  0
  8  9  1  1
  8  7  1  0
 10  8  1  0
 11 10  2  0
 13 15  1  0
 13 12  1  0
 14 13  2  0
 16 15  1  6
 16 17  1  0
 17 10  1  0
 18 16  1  0
 18 19  2  0
 20 18  1  0
 21 20  1  0
 21 22  1  1
 23 22  1  0
 23 31  1  0
 24 25  1  0
 24 23  2  0
 25 26  1  0
 26 31  2  0
 26 27  1  0
 27 28  2  0
 28 29  1  0
 30 29  2  0
 31 30  1  0
 32 21  1  0
 33 32  1  0
 34 32  2  0
M  END
$$$$
