RNW.pdb
     RDKit          3D

 34 35  0  0  1  0  0  0  0  0999 V2000
    8.1683  -13.0232   18.3557 N   0  0  0  0  0  0  0  0  0  0  0  0
    7.8769  -13.6364   17.0945 C   0  0  0  0  0  0  0  0  0  0  0  0
    7.5240  -12.9135   16.0768 N   0  0  0  0  0  0  0  0  0  0  0  0
    7.9724  -15.0435   16.9558 N   0  0  0  0  0  0  0  0  0  0  0  0
    8.6675  -15.8729   17.9573 C   0  0  0  0  0  0  0  0  0  0  0  0
    7.7878  -17.0639   18.1830 C   0  0  0  0  0  0  0  0  0  0  0  0
    8.3645  -17.9964   19.1748 C   0  0  0  0  0  0  0  0  0  0  0  0
    8.3857  -17.5785   20.5978 C   0  0  2  0  0  0  0  0  0  0  0  0
    7.7899  -16.3293   20.9282 N   0  0  0  0  0  0  0  0  0  0  0  0
    9.8230  -17.5345   21.0413 C   0  0  0  0  0  0  0  0  0  0  0  0
   10.4441  -18.6348   20.9347 O   0  0  0  0  0  0  0  0  0  0  0  0
    7.2744  -13.3054   15.1718 N   0  0  0  0  0  0  0  0  0  0  0  0
   11.9098  -16.0529   19.2556 C   0  0  0  0  0  0  0  0  0  0  0  0
   12.6430  -15.2071   20.1513 O   0  0  0  0  0  0  0  0  0  0  0  0
   13.3150  -14.2835   19.6289 C   0  0  0  0  0  0  0  0  0  0  0  0
   12.6348  -15.3769   21.5973 C   0  0  2  0  0  0  0  0  0  0  0  0
   11.7623  -16.4785   22.1298 N   0  0  0  0  0  0  0  0  0  0  0  0
   10.4510  -16.3714   21.5414 C   0  0  0  0  0  0  0  0  0  0  0  0
   11.7011  -16.3239   23.6209 O   0  0  0  0  0  0  0  0  0  0  0  0
   12.7600  -16.0575   24.2262 N   0  0  0  0  0  0  0  0  0  0  0  0
   10.5072  -16.4682   24.3616 C   0  0  1  0  0  0  0  0  0  0  0  0
   10.3927  -16.4096   25.8052 C   0  0  0  0  0  0  0  0  0  0  0  0
    9.9152  -15.0990   26.2871 C   0  0  0  0  0  0  0  0  0  0  0  0
    8.4817  -14.8947   26.0369 C   0  0  0  0  0  0  0  0  0  0  0  0
    7.4938  -15.8309   25.8111 N   0  0  0  0  0  0  0  0  0  0  0  0
    6.3202  -15.1917   25.5952 C   0  0  0  0  0  0  0  0  0  0  0  0
    6.5185  -13.8697   25.6751 C   0  0  0  0  0  0  0  0  0  0  0  0
    5.6876  -12.7511   25.5583 C   0  0  0  0  0  0  0  0  0  0  0  0
    6.1590  -11.4642   25.7082 C   0  0  0  0  0  0  0  0  0  0  0  0
    7.4959  -11.2832   25.9823 C   0  0  0  0  0  0  0  0  0  0  0  0
    8.3335  -12.3834   26.1003 C   0  0  0  0  0  0  0  0  0  0  0  0
    7.8436  -13.6579   25.9467 C   0  0  0  0  0  0  0  0  0  0  0  0
    9.8777  -17.6067   26.4552 O   0  0  0  0  0  0  0  0  0  0  0  0
    9.9861  -17.9241   27.7984 O   0  0  0  0  0  0  0  0  0  0  0  0
  1  2  1  0
  2  3  2  0
  4  2  1  0
  5  4  1  0
  6  5  1  0
  7  6  1  0
  8  9  1  6
  8  7  1  0
 10  8  1  0
 11 10  2  0
 13 15  1  0
 13 12  1  0
 14 13  2  0
 16 15  1  6
 16 17  1  0
 17 10  1  0
 18 16  1  0
 18 19  2  0
 20 18  1  0
 21 20  1  0
 21 22  1  1
 23 22  1  0
 23 31  1  0
 24 25  1  0
 24 23  2  0
 25 26  1  0
 26 31  2  0
 26 27  1  0
 27 28  2  0
 28 29  1  0
 30 29  2  0
 31 30  1  0
 32 21  1  0
 33 32  1  0
 34 32  2  0
M  END
$$$$
