RNW.pdb
     RDKit          3D

 34 35  0  0  1  0  0  0  0  0999 V2000
    6.7387  -20.3816   16.3734 N   0  0  0  0  0  0  0  0  0  0  0  0
    5.5262  -19.6199   16.4091 C   0  0  0  0  0  0  0  0  0  0  0  0
    4.9454  -19.2547   15.3081 N   0  0  0  0  0  0  0  0  0  0  0  0
    4.9562  -19.2598   17.6556 N   0  0  0  0  0  0  0  0  0  0  0  0
    5.7939  -18.8591   18.8009 C   0  0  0  0  0  0  0  0  0  0  0  0
    7.0492  -18.2939   18.2110 C   0  0  0  0  0  0  0  0  0  0  0  0
    7.5340  -17.1189   18.9662 C   0  0  0  0  0  0  0  0  0  0  0  0
    8.9896  -17.0087   19.2292 C   0  0  2  0  0  0  0  0  0  0  0  0
    9.8755  -17.6523   18.3205 N   0  0  0  0  0  0  0  0  0  0  0  0
    9.2512  -17.5683   20.6013 C   0  0  0  0  0  0  0  0  0  0  0  0
    9.4273  -18.8234   20.6368 O   0  0  0  0  0  0  0  0  0  0  0  0
    4.1001  -18.6893   15.2824 N   0  0  0  0  0  0  0  0  0  0  0  0
   13.5336  -18.2553   22.9846 C   0  0  0  0  0  0  0  0  0  0  0  0
   12.8556  -16.9947   22.9046 O   0  0  0  0  0  0  0  0  0  0  0  0
   13.3250  -16.0588   23.5983 C   0  0  0  0  0  0  0  0  0  0  0  0
   11.6809  -16.7706   22.0740 C   0  0  1  0  0  0  0  0  0  0  0  0
   10.3503  -17.0063   22.7314 N   0  0  0  0  0  0  0  0  0  0  0  0
    9.2999  -16.7772   21.7715 C   0  0  0  0  0  0  0  0  0  0  0  0
   10.2443  -16.0558   23.8874 O   0  0  0  0  0  0  0  0  0  0  0  0
    9.9597  -14.8652   23.6428 N   0  0  0  0  0  0  0  0  0  0  0  0
   10.4536  -16.4478   25.2281 C   0  0  2  0  0  0  0  0  0  0  0  0
    9.4744  -16.3785   26.2944 C   0  0  0  0  0  0  0  0  0  0  0  0
    8.0997  -16.6378   25.8244 C   0  0  0  0  0  0  0  0  0  0  0  0
    7.4716  -15.4472   25.2351 C   0  0  0  0  0  0  0  0  0  0  0  0
    6.8665  -15.2994   24.0042 N   0  0  0  0  0  0  0  0  0  0  0  0
    6.4544  -14.0174   23.8653 C   0  0  0  0  0  0  0  0  0  0  0  0
    6.7741  -13.3308   24.9698 C   0  0  0  0  0  0  0  0  0  0  0  0
    6.5866  -12.0083   25.3832 C   0  0  0  0  0  0  0  0  0  0  0  0
    7.0094  -11.5541   26.6144 C   0  0  0  0  0  0  0  0  0  0  0  0
    7.6372  -12.4405   27.4602 C   0  0  0  0  0  0  0  0  0  0  0  0
    7.8315  -13.7563   27.0638 C   0  0  0  0  0  0  0  0  0  0  0  0
    7.4029  -14.1886   25.8320 C   0  0  0  0  0  0  0  0  0  0  0  0
    9.8790  -16.9469   27.5726 O   0  0  0  0  0  0  0  0  0  0  0  0
    9.3535  -16.6343   28.8147 O   0  0  0  0  0  0  0  0  0  0  0  0
  1  2  1  0
  2  3  2  0
  4  2  1  0
  5  4  1  0
  6  5  1  0
  7  6  1  0
  8  9  1  6
  8  7  1  0
 10  8  1  0
 11 10  2  0
 13 15  1  0
 13 12  1  0
 14 13  2  0
 16 15  1  6
 16 17  1  0
 17 10  1  0
 18 16  1  0
 18 19  2  0
 20 18  1  0
 21 20  1  0
 21 22  1  1
 23 22  1  0
 23 31  1  0
 24 25  1  0
 24 23  2  0
 25 26  1  0
 26 31  2  0
 26 27  1  0
 27 28  2  0
 28 29  1  0
 30 29  2  0
 31 30  1  0
 32 21  1  0
 33 32  1  0
 34 32  2  0
M  END
$$$$
