RNW.pdb
     RDKit          3D

 34 35  0  0  1  0  0  0  0  0999 V2000
    8.5593  -15.3863   16.9952 N   0  0  0  0  0  0  0  0  0  0  0  0
    8.3420  -13.9906   16.7583 C   0  0  0  0  0  0  0  0  0  0  0  0
    8.1473  -13.5497   15.5539 N   0  0  0  0  0  0  0  0  0  0  0  0
    8.3413  -13.0824   17.8462 N   0  0  0  0  0  0  0  0  0  0  0  0
    8.9710  -13.4215   19.1356 C   0  0  0  0  0  0  0  0  0  0  0  0
    7.8777  -13.3463   20.1566 C   0  0  0  0  0  0  0  0  0  0  0  0
    7.5287  -14.6798   20.6912 C   0  0  0  0  0  0  0  0  0  0  0  0
    8.6060  -15.6936   20.7995 C   0  0  2  0  0  0  0  0  0  0  0  0
    8.8807  -16.4905   19.6530 N   0  0  0  0  0  0  0  0  0  0  0  0
    8.2509  -16.6209   21.9302 C   0  0  0  0  0  0  0  0  0  0  0  0
    7.3735  -17.4910   21.6460 O   0  0  0  0  0  0  0  0  0  0  0  0
    7.9436  -12.5760   15.3406 N   0  0  0  0  0  0  0  0  0  0  0  0
   13.4866  -17.7803   22.5159 C   0  0  0  0  0  0  0  0  0  0  0  0
   12.1374  -18.2236   22.7121 O   0  0  0  0  0  0  0  0  0  0  0  0
   11.9847  -19.4161   23.0756 C   0  0  0  0  0  0  0  0  0  0  0  0
   10.9776  -17.3667   22.5111 C   0  0  2  0  0  0  0  0  0  0  0  0
    9.9013  -17.4530   23.5564 N   0  0  0  0  0  0  0  0  0  0  0  0
    8.8348  -16.5457   23.2150 C   0  0  0  0  0  0  0  0  0  0  0  0
   10.5218  -17.0887   24.8730 O   0  0  0  0  0  0  0  0  0  0  0  0
   11.5080  -17.7498   25.2588 N   0  0  0  0  0  0  0  0  0  0  0  0
   10.0397  -16.0403   25.6875 C   0  0  2  0  0  0  0  0  0  0  0  0
    9.9917  -16.0456   27.1360 C   0  0  0  0  0  0  0  0  0  0  0  0
    8.6154  -16.1337   27.6611 C   0  0  0  0  0  0  0  0  0  0  0  0
    7.6341  -15.4825   26.7823 C   0  0  0  0  0  0  0  0  0  0  0  0
    6.6772  -16.0540   25.9692 N   0  0  0  0  0  0  0  0  0  0  0  0
    6.0143  -15.0743   25.3109 C   0  0  0  0  0  0  0  0  0  0  0  0
    6.5129  -13.8855   25.6739 C   0  0  0  0  0  0  0  0  0  0  0  0
    6.2156  -12.5610   25.3387 C   0  0  0  0  0  0  0  0  0  0  0  0
    6.8909  -11.4924   25.8889 C   0  0  0  0  0  0  0  0  0  0  0  0
    7.8916  -11.7473   26.7994 C   0  0  0  0  0  0  0  0  0  0  0  0
    8.1989  -13.0567   27.1416 C   0  0  0  0  0  0  0  0  0  0  0  0
    7.5140  -14.1077   26.5811 C   0  0  0  0  0  0  0  0  0  0  0  0
   11.0308  -16.8137   27.8077 O   0  0  0  0  0  0  0  0  0  0  0  0
   11.9894  -17.6068   27.2005 O   0  0  0  0  0  0  0  0  0  0  0  0
  1  2  1  0
  2  3  2  0
  4  2  1  0
  5  4  1  0
  6  5  1  0
  7  6  1  0
  8  9  1  6
  8  7  1  0
 10  8  1  0
 11 10  2  0
 13 15  1  0
 13 12  1  0
 14 13  2  0
 16 15  1  6
 16 17  1  0
 17 10  1  0
 18 16  1  0
 18 19  2  0
 20 18  1  0
 21 20  1  0
 21 22  1  6
 23 22  1  0
 23 31  1  0
 24 25  1  0
 24 23  2  0
 25 26  1  0
 26 31  2  0
 26 27  1  0
 27 28  2  0
 28 29  1  0
 30 29  2  0
 31 30  1  0
 32 21  1  0
 33 32  1  0
 34 32  2  0
M  END
$$$$
