RNW.pdb
     RDKit          3D

 34 35  0  0  1  0  0  0  0  0999 V2000
    7.7430  -15.4230   14.3893 N   0  0  0  0  0  0  0  0  0  0  0  0
    7.8694  -14.1332   14.9992 C   0  0  0  0  0  0  0  0  0  0  0  0
    8.2338  -13.1055   14.2964 N   0  0  0  0  0  0  0  0  0  0  0  0
    7.5966  -13.9768   16.3810 N   0  0  0  0  0  0  0  0  0  0  0  0
    8.4207  -14.6367   17.4104 C   0  0  0  0  0  0  0  0  0  0  0  0
    8.1120  -16.0986   17.3055 C   0  0  0  0  0  0  0  0  0  0  0  0
    8.9854  -16.9116   18.1784 C   0  0  0  0  0  0  0  0  0  0  0  0
    8.5202  -17.2036   19.5562 C   0  0  2  0  0  0  0  0  0  0  0  0
    7.5185  -16.3572   20.1084 N   0  0  0  0  0  0  0  0  0  0  0  0
    9.7184  -17.1524   20.4651 C   0  0  0  0  0  0  0  0  0  0  0  0
   10.5130  -18.1337   20.3499 O   0  0  0  0  0  0  0  0  0  0  0  0
    8.2997  -12.1636   14.6752 N   0  0  0  0  0  0  0  0  0  0  0  0
   11.9172  -13.2573   20.4214 C   0  0  0  0  0  0  0  0  0  0  0  0
   12.3864  -14.4033   21.1438 O   0  0  0  0  0  0  0  0  0  0  0  0
   13.3810  -15.0018   20.6640 C   0  0  0  0  0  0  0  0  0  0  0  0
   11.7697  -14.8803   22.3734 C   0  0  2  0  0  0  0  0  0  0  0  0
   11.0718  -16.2087   22.2923 N   0  0  0  0  0  0  0  0  0  0  0  0
    9.9586  -16.1048   21.3828 C   0  0  0  0  0  0  0  0  0  0  0  0
   10.6100  -16.5602   23.6758 O   0  0  0  0  0  0  0  0  0  0  0  0
   11.4157  -16.4119   24.6178 N   0  0  0  0  0  0  0  0  0  0  0  0
    9.3145  -17.0496   23.9540 C   0  0  1  0  0  0  0  0  0  0  0  0
    8.8360  -17.4941   25.2477 C   0  0  0  0  0  0  0  0  0  0  0  0
    7.5544  -16.8687   25.6278 C   0  0  0  0  0  0  0  0  0  0  0  0
    7.5845  -15.4045   25.5081 C   0  0  0  0  0  0  0  0  0  0  0  0
    7.1719  -14.6065   24.4611 N   0  0  0  0  0  0  0  0  0  0  0  0
    7.4165  -13.3112   24.7695 C   0  0  0  0  0  0  0  0  0  0  0  0
    7.9746  -13.2466   25.9852 C   0  0  0  0  0  0  0  0  0  0  0  0
    8.4131  -12.1994   26.8015 C   0  0  0  0  0  0  0  0  0  0  0  0
    8.9476  -12.4156   28.0538 C   0  0  0  0  0  0  0  0  0  0  0  0
    9.0495  -13.7109   28.5088 C   0  0  0  0  0  0  0  0  0  0  0  0
    8.6194  -14.7611   27.7099 C   0  0  0  0  0  0  0  0  0  0  0  0
    8.0900  -14.5240   26.4643 C   0  0  0  0  0  0  0  0  0  0  0  0
    9.0238  -18.9066   25.5486 O   0  0  0  0  0  0  0  0  0  0  0  0
    8.7785  -19.5287   26.7608 O   0  0  0  0  0  0  0  0  0  0  0  0
  1  2  1  0
  2  3  2  0
  4  2  1  0
  5  4  1  0
  6  5  1  0
  7  6  1  0
  8  9  1  1
  8  7  1  0
 10  8  1  0
 11 10  2  0
 13 15  1  0
 13 12  1  0
 14 13  2  0
 16 15  1  6
 16 17  1  0
 17 10  1  0
 18 16  1  0
 18 19  2  0
 20 18  1  0
 21 20  1  0
 21 22  1  1
 23 22  1  0
 23 31  1  0
 24 25  1  0
 24 23  2  0
 25 26  1  0
 26 31  2  0
 26 27  1  0
 27 28  2  0
 28 29  1  0
 30 29  2  0
 31 30  1  0
 32 21  1  0
 33 32  1  0
 34 32  2  0
M  END
$$$$
