RNW.pdb
     RDKit          3D

 34 35  0  0  1  0  0  0  0  0999 V2000
   11.5723  -20.5343   14.2680 N   0  0  0  0  0  0  0  0  0  0  0  0
   10.9757  -19.2956   14.6693 C   0  0  0  0  0  0  0  0  0  0  0  0
    9.7956  -18.9649   14.2441 N   0  0  0  0  0  0  0  0  0  0  0  0
   11.6791  -18.4221   15.5358 N   0  0  0  0  0  0  0  0  0  0  0  0
   11.0918  -17.1490   15.9923 C   0  0  0  0  0  0  0  0  0  0  0  0
   10.4404  -17.4479   17.3075 C   0  0  0  0  0  0  0  0  0  0  0  0
   11.3433  -17.1739   18.4458 C   0  0  0  0  0  0  0  0  0  0  0  0
   10.8893  -17.5545   19.8056 C   0  0  2  0  0  0  0  0  0  0  0  0
    9.7881  -18.4499   19.9078 N   0  0  0  0  0  0  0  0  0  0  0  0
   10.5247  -16.2912   20.5374 C   0  0  0  0  0  0  0  0  0  0  0  0
   11.4629  -15.4433   20.6304 O   0  0  0  0  0  0  0  0  0  0  0  0
    9.3017  -18.1319   14.5557 N   0  0  0  0  0  0  0  0  0  0  0  0
    7.9224  -12.9068   19.1720 C   0  0  0  0  0  0  0  0  0  0  0  0
    7.4215  -14.0669   19.8493 O   0  0  0  0  0  0  0  0  0  0  0  0
    6.7956  -14.9005   19.1487 C   0  0  0  0  0  0  0  0  0  0  0  0
    7.6080  -14.3032   21.2739 C   0  0  2  0  0  0  0  0  0  0  0  0
    8.9731  -14.7699   21.6946 N   0  0  0  0  0  0  0  0  0  0  0  0
    9.2455  -16.0480   21.0868 C   0  0  0  0  0  0  0  0  0  0  0  0
    8.9730  -14.8710   23.1916 O   0  0  0  0  0  0  0  0  0  0  0  0
    8.3559  -13.9990   23.8376 N   0  0  0  0  0  0  0  0  0  0  0  0
    9.6379  -15.9005   23.8937 C   0  0  1  0  0  0  0  0  0  0  0  0
    9.7256  -16.0239   25.3351 C   0  0  0  0  0  0  0  0  0  0  0  0
    8.4391  -16.3955   25.9554 C   0  0  0  0  0  0  0  0  0  0  0  0
    7.4206  -15.3459   25.8126 C   0  0  0  0  0  0  0  0  0  0  0  0
    6.1878  -15.4052   25.1963 N   0  0  0  0  0  0  0  0  0  0  0  0
    5.5952  -14.1906   25.2753 C   0  0  0  0  0  0  0  0  0  0  0  0
    6.4073  -13.3468   25.9250 C   0  0  0  0  0  0  0  0  0  0  0  0
    6.3154  -12.0040   26.3040 C   0  0  0  0  0  0  0  0  0  0  0  0
    7.3179  -11.3653   27.0026 C   0  0  0  0  0  0  0  0  0  0  0  0
    8.4453  -12.0822   27.3345 C   0  0  0  0  0  0  0  0  0  0  0  0
    8.5516  -13.4156   26.9646 C   0  0  0  0  0  0  0  0  0  0  0  0
    7.5412  -14.0333   26.2681 C   0  0  0  0  0  0  0  0  0  0  0  0
   10.9383  -16.6430   25.8517 O   0  0  0  0  0  0  0  0  0  0  0  0
   11.3076  -16.7436   27.1821 O   0  0  0  0  0  0  0  0  0  0  0  0
  1  2  1  0
  2  3  2  0
  4  2  1  0
  5  4  1  0
  6  5  1  0
  7  6  1  0
  8  9  1  6
  8  7  1  0
 10  8  1  0
 11 10  2  0
 13 15  1  0
 13 12  1  0
 14 13  2  0
 16 15  1  6
 16 17  1  0
 17 10  1  0
 18 16  1  0
 18 19  2  0
 20 18  1  0
 21 20  1  0
 21 22  1  1
 23 22  1  0
 23 31  1  0
 24 25  1  0
 24 23  2  0
 25 26  1  0
 26 31  2  0
 26 27  1  0
 27 28  2  0
 28 29  1  0
 30 29  2  0
 31 30  1  0
 32 21  1  0
 33 32  1  0
 34 32  2  0
M  END
$$$$
