RNW.pdb
     RDKit          3D

 34 35  0  0  1  0  0  0  0  0999 V2000
    7.2637  -11.8525   17.8636 N   0  0  0  0  0  0  0  0  0  0  0  0
    8.1638  -12.9532   18.0358 C   0  0  0  0  0  0  0  0  0  0  0  0
    8.7439  -13.4960   17.0102 N   0  0  0  0  0  0  0  0  0  0  0  0
    8.4225  -13.4560   19.3353 N   0  0  0  0  0  0  0  0  0  0  0  0
    7.3501  -13.5930   20.3379 C   0  0  0  0  0  0  0  0  0  0  0  0
    7.0754  -15.0616   20.4442 C   0  0  0  0  0  0  0  0  0  0  0  0
    7.9780  -15.7238   21.4099 C   0  0  0  0  0  0  0  0  0  0  0  0
    7.8172  -17.1816   21.6309 C   0  0  2  0  0  0  0  0  0  0  0  0
    6.5314  -17.6533   22.0169 N   0  0  0  0  0  0  0  0  0  0  0  0
    8.7976  -17.5948   22.6952 C   0  0  0  0  0  0  0  0  0  0  0  0
    8.2861  -18.2200   23.6725 O   0  0  0  0  0  0  0  0  0  0  0  0
    9.4229  -14.2498   17.0855 N   0  0  0  0  0  0  0  0  0  0  0  0
   13.6697  -19.6520   24.4616 C   0  0  0  0  0  0  0  0  0  0  0  0
   13.4345  -18.2598   24.2133 O   0  0  0  0  0  0  0  0  0  0  0  0
   14.1246  -17.4461   24.8759 C   0  0  0  0  0  0  0  0  0  0  0  0
   12.4557  -17.7740   23.2510 C   0  0  1  0  0  0  0  0  0  0  0  0
   11.0303  -17.7235   23.7244 N   0  0  0  0  0  0  0  0  0  0  0  0
   10.1820  -17.3177   22.6322 C   0  0  0  0  0  0  0  0  0  0  0  0
   10.9657  -16.7393   24.8550 O   0  0  0  0  0  0  0  0  0  0  0  0
   11.8036  -15.8141   24.8749 N   0  0  0  0  0  0  0  0  0  0  0  0
   10.0069  -16.8168   25.8893 C   0  0  1  0  0  0  0  0  0  0  0  0
   10.1954  -16.3700   27.2551 C   0  0  0  0  0  0  0  0  0  0  0  0
    8.9328  -15.9628   27.9016 C   0  0  0  0  0  0  0  0  0  0  0  0
    7.9336  -15.4851   26.9359 C   0  0  0  0  0  0  0  0  0  0  0  0
    6.9351  -16.1884   26.2943 N   0  0  0  0  0  0  0  0  0  0  0  0
    6.2692  -15.3523   25.4637 C   0  0  0  0  0  0  0  0  0  0  0  0
    6.8062  -14.1283   25.5488 C   0  0  0  0  0  0  0  0  0  0  0  0
    6.5249  -12.8972   24.9486 C   0  0  0  0  0  0  0  0  0  0  0  0
    7.2429  -11.7560   25.2365 C   0  0  0  0  0  0  0  0  0  0  0  0
    8.2711  -11.8404   26.1480 C   0  0  0  0  0  0  0  0  0  0  0  0
    8.5630  -13.0556   26.7515 C   0  0  0  0  0  0  0  0  0  0  0  0
    7.8354  -14.1815   26.4502 C   0  0  0  0  0  0  0  0  0  0  0  0
   11.1580  -17.1225   28.0474 O   0  0  0  0  0  0  0  0  0  0  0  0
   11.1518  -18.4893   28.2681 O   0  0  0  0  0  0  0  0  0  0  0  0
  1  2  1  0
  2  3  2  0
  4  2  1  0
  5  4  1  0
  6  5  1  0
  7  6  1  0
  8  9  1  1
  8  7  1  0
 10  8  1  0
 11 10  2  0
 13 15  1  0
 13 12  1  0
 14 13  2  0
 16 15  1  6
 16 17  1  0
 17 10  1  0
 18 16  1  0
 18 19  2  0
 20 18  1  0
 21 20  1  0
 21 22  1  1
 23 22  1  0
 23 31  1  0
 24 25  1  0
 24 23  2  0
 25 26  1  0
 26 31  2  0
 26 27  1  0
 27 28  2  0
 28 29  1  0
 30 29  2  0
 31 30  1  0
 32 21  1  0
 33 32  1  0
 34 32  2  0
M  END
$$$$
