RNW.pdb
     RDKit          3D

 34 35  0  0  1  0  0  0  0  0999 V2000
    8.4692  -14.9558   14.8982 N   0  0  0  0  0  0  0  0  0  0  0  0
    7.9324  -13.7266   15.4003 C   0  0  0  0  0  0  0  0  0  0  0  0
    6.8159  -13.2571   14.9356 N   0  0  0  0  0  0  0  0  0  0  0  0
    8.6256  -13.0151   16.4111 N   0  0  0  0  0  0  0  0  0  0  0  0
    8.9680  -13.6427   17.7007 C   0  0  0  0  0  0  0  0  0  0  0  0
    7.6625  -14.0154   18.3331 C   0  0  0  0  0  0  0  0  0  0  0  0
    7.8529  -14.7235   19.6169 C   0  0  0  0  0  0  0  0  0  0  0  0
    9.2116  -14.7396   20.2118 C   0  0  2  0  0  0  0  0  0  0  0  0
   10.3082  -15.0112   19.3466 N   0  0  0  0  0  0  0  0  0  0  0  0
    9.2211  -15.7733   21.3052 C   0  0  0  0  0  0  0  0  0  0  0  0
    8.1741  -15.7978   22.0201 O   0  0  0  0  0  0  0  0  0  0  0  0
    6.3692  -12.4170   15.2956 N   0  0  0  0  0  0  0  0  0  0  0  0
   12.1535  -19.3580   20.1087 C   0  0  0  0  0  0  0  0  0  0  0  0
   11.0627  -19.3444   21.0389 O   0  0  0  0  0  0  0  0  0  0  0  0
    9.9946  -19.8864   20.6609 C   0  0  0  0  0  0  0  0  0  0  0  0
   11.1487  -18.7438   22.3625 C   0  0  2  0  0  0  0  0  0  0  0  0
   10.2203  -17.5927   22.6290 N   0  0  0  0  0  0  0  0  0  0  0  0
   10.3002  -16.6561   21.5365 C   0  0  0  0  0  0  0  0  0  0  0  0
   10.6487  -16.9578   23.9192 O   0  0  0  0  0  0  0  0  0  0  0  0
   11.7828  -16.4383   23.9682 N   0  0  0  0  0  0  0  0  0  0  0  0
    9.8310  -16.9259   25.0704 C   0  0  1  0  0  0  0  0  0  0  0  0
   10.2395  -16.4824   26.3883 C   0  0  0  0  0  0  0  0  0  0  0  0
    9.8632  -15.0817   26.6612 C   0  0  0  0  0  0  0  0  0  0  0  0
    8.4284  -14.8347   26.4623 C   0  0  0  0  0  0  0  0  0  0  0  0
    7.4096  -15.7393   26.2457 N   0  0  0  0  0  0  0  0  0  0  0  0
    6.2470  -15.0651   26.0832 C   0  0  0  0  0  0  0  0  0  0  0  0
    6.4825  -13.7509   26.1887 C   0  0  0  0  0  0  0  0  0  0  0  0
    5.6781  -12.6089   26.1259 C   0  0  0  0  0  0  0  0  0  0  0  0
    6.1877  -11.3387   26.2918 C   0  0  0  0  0  0  0  0  0  0  0  0
    7.5369  -11.1988   26.5271 C   0  0  0  0  0  0  0  0  0  0  0  0
    8.3485  -12.3228   26.5913 C   0  0  0  0  0  0  0  0  0  0  0  0
    7.8206  -13.5801   26.4227 C   0  0  0  0  0  0  0  0  0  0  0  0
   10.0915  -17.4526   27.4642 O   0  0  0  0  0  0  0  0  0  0  0  0
   10.6444  -17.3668   28.7306 O   0  0  0  0  0  0  0  0  0  0  0  0
  1  2  1  0
  2  3  2  0
  4  2  1  0
  5  4  1  0
  6  5  1  0
  7  6  1  0
  8  9  1  6
  8  7  1  0
 10  8  1  0
 11 10  2  0
 13 15  1  0
 13 12  1  0
 14 13  2  0
 16 15  1  6
 16 17  1  0
 17 10  1  0
 18 16  1  0
 18 19  2  0
 20 18  1  0
 21 20  1  0
 21 22  1  1
 23 22  1  0
 23 31  1  0
 24 25  1  0
 24 23  2  0
 25 26  1  0
 26 31  2  0
 26 27  1  0
 27 28  2  0
 28 29  1  0
 30 29  2  0
 31 30  1  0
 32 21  1  0
 33 32  1  0
 34 32  2  0
M  END
$$$$
