RNW.pdb
     RDKit          3D

 34 35  0  0  1  0  0  0  0  0999 V2000
    7.4150  -12.5477   19.0469 N   0  0  0  0  0  0  0  0  0  0  0  0
    8.1636  -13.2449   18.0443 C   0  0  0  0  0  0  0  0  0  0  0  0
    8.4285  -12.6785   16.9077 N   0  0  0  0  0  0  0  0  0  0  0  0
    8.6174  -14.5641   18.2932 N   0  0  0  0  0  0  0  0  0  0  0  0
    7.7503  -15.7349   18.0660 C   0  0  0  0  0  0  0  0  0  0  0  0
    8.5649  -16.9289   18.4582 C   0  0  0  0  0  0  0  0  0  0  0  0
    8.4964  -17.1910   19.9116 C   0  0  0  0  0  0  0  0  0  0  0  0
    7.5387  -18.2162   20.3929 C   0  0  2  0  0  0  0  0  0  0  0  0
    6.2063  -18.1601   19.8964 N   0  0  0  0  0  0  0  0  0  0  0  0
    7.4753  -18.1160   21.8931 C   0  0  0  0  0  0  0  0  0  0  0  0
    6.4231  -17.5704   22.3436 O   0  0  0  0  0  0  0  0  0  0  0  0
    8.9877  -13.1181   16.1805 N   0  0  0  0  0  0  0  0  0  0  0  0
    7.3425  -21.4122   23.4531 C   0  0  0  0  0  0  0  0  0  0  0  0
    7.4499  -20.6402   24.6564 O   0  0  0  0  0  0  0  0  0  0  0  0
    6.5691  -20.8355   25.5301 C   0  0  0  0  0  0  0  0  0  0  0  0
    8.5101  -19.6704   24.8916 C   0  0  2  0  0  0  0  0  0  0  0  0
    8.3799  -18.3587   24.1699 N   0  0  0  0  0  0  0  0  0  0  0  0
    8.4959  -18.5845   22.7511 C   0  0  0  0  0  0  0  0  0  0  0  0
    9.4742  -17.4606   24.6667 O   0  0  0  0  0  0  0  0  0  0  0  0
   10.6554  -17.7980   24.4442 N   0  0  0  0  0  0  0  0  0  0  0  0
    9.2260  -16.2618   25.3712 C   0  0  1  0  0  0  0  0  0  0  0  0
    9.8315  -15.8779   26.6308 C   0  0  0  0  0  0  0  0  0  0  0  0
    8.8721  -15.2430   27.5551 C   0  0  0  0  0  0  0  0  0  0  0  0
    7.7371  -14.6273   26.8539 C   0  0  0  0  0  0  0  0  0  0  0  0
    6.5412  -15.1942   26.4644 N   0  0  0  0  0  0  0  0  0  0  0  0
    5.8012  -14.2640   25.8167 C   0  0  0  0  0  0  0  0  0  0  0  0
    6.4819  -13.1114   25.7757 C   0  0  0  0  0  0  0  0  0  0  0  0
    6.2132  -11.8389   25.2620 C   0  0  0  0  0  0  0  0  0  0  0  0
    7.1065  -10.7949   25.3750 C   0  0  0  0  0  0  0  0  0  0  0  0
    8.3025  -11.0218   26.0178 C   0  0  0  0  0  0  0  0  0  0  0  0
    8.5842  -12.2796   26.5322 C   0  0  0  0  0  0  0  0  0  0  0  0
    7.6803  -13.3069   26.4083 C   0  0  0  0  0  0  0  0  0  0  0  0
   10.8005  -16.8125   27.1861 O   0  0  0  0  0  0  0  0  0  0  0  0
   11.0964  -18.0750   26.7010 O   0  0  0  0  0  0  0  0  0  0  0  0
  1  2  1  0
  2  3  2  0
  4  2  1  0
  5  4  1  0
  6  5  1  0
  7  6  1  0
  8  9  1  6
  8  7  1  0
 10  8  1  0
 11 10  2  0
 13 15  1  0
 13 12  1  0
 14 13  2  0
 16 15  1  6
 16 17  1  0
 17 10  1  0
 18 16  1  0
 18 19  2  0
 20 18  1  0
 21 20  1  0
 21 22  1  1
 23 22  1  0
 23 31  1  0
 24 25  1  0
 24 23  2  0
 25 26  1  0
 26 31  2  0
 26 27  1  0
 27 28  2  0
 28 29  1  0
 30 29  2  0
 31 30  1  0
 32 21  1  0
 33 32  1  0
 34 32  2  0
M  END
$$$$
