RNW.pdb
     RDKit          3D

 34 35  0  0  1  0  0  0  0  0999 V2000
    9.6474  -14.4756   16.2682 N   0  0  0  0  0  0  0  0  0  0  0  0
    8.4627  -13.7625   15.8949 C   0  0  0  0  0  0  0  0  0  0  0  0
    8.4670  -12.9712   14.8669 N   0  0  0  0  0  0  0  0  0  0  0  0
    7.2764  -13.9194   16.6541 N   0  0  0  0  0  0  0  0  0  0  0  0
    7.3135  -14.3411   18.0665 C   0  0  0  0  0  0  0  0  0  0  0  0
    8.1939  -15.5521   18.1084 C   0  0  0  0  0  0  0  0  0  0  0  0
    7.6125  -16.6292   18.9377 C   0  0  0  0  0  0  0  0  0  0  0  0
    7.4863  -16.3971   20.3972 C   0  0  2  0  0  0  0  0  0  0  0  0
    7.1070  -15.0952   20.8286 N   0  0  0  0  0  0  0  0  0  0  0  0
    8.8122  -16.7233   21.0296 C   0  0  0  0  0  0  0  0  0  0  0  0
    9.2390  -17.8933   20.7916 O   0  0  0  0  0  0  0  0  0  0  0  0
    7.6856  -12.3675   14.6223 N   0  0  0  0  0  0  0  0  0  0  0  0
   11.8974  -14.0283   19.9656 C   0  0  0  0  0  0  0  0  0  0  0  0
   12.0131  -15.3086   20.6001 O   0  0  0  0  0  0  0  0  0  0  0  0
   12.2126  -16.2935   19.8467 C   0  0  0  0  0  0  0  0  0  0  0  0
   11.9109  -15.4990   22.0400 C   0  0  2  0  0  0  0  0  0  0  0  0
   10.7179  -16.2749   22.5224 N   0  0  0  0  0  0  0  0  0  0  0  0
    9.5409  -15.8143   21.8297 C   0  0  0  0  0  0  0  0  0  0  0  0
   10.6002  -16.0474   24.0007 O   0  0  0  0  0  0  0  0  0  0  0  0
   11.2326  -15.0932   24.4988 N   0  0  0  0  0  0  0  0  0  0  0  0
    9.8131  -16.8616   24.8448 C   0  0  1  0  0  0  0  0  0  0  0  0
    9.7318  -16.7575   26.2880 C   0  0  0  0  0  0  0  0  0  0  0  0
    8.3425  -16.6568   26.7755 C   0  0  0  0  0  0  0  0  0  0  0  0
    7.5015  -15.8170   25.9115 C   0  0  0  0  0  0  0  0  0  0  0  0
    6.6670  -16.1900   24.8781 N   0  0  0  0  0  0  0  0  0  0  0  0
    6.1117  -15.0809   24.3360 C   0  0  0  0  0  0  0  0  0  0  0  0
    6.5612  -14.0007   24.9878 C   0  0  0  0  0  0  0  0  0  0  0  0
    6.3238  -12.6272   24.8771 C   0  0  0  0  0  0  0  0  0  0  0  0
    6.9206  -11.7067   25.7121 C   0  0  0  0  0  0  0  0  0  0  0  0
    7.7789  -12.1644   26.6863 C   0  0  0  0  0  0  0  0  0  0  0  0
    8.0253  -13.5247   26.8081 C   0  0  0  0  0  0  0  0  0  0  0  0
    7.4206  -14.4257   25.9652 C   0  0  0  0  0  0  0  0  0  0  0  0
   10.6634  -17.5842   27.0427 O   0  0  0  0  0  0  0  0  0  0  0  0
   10.9393  -17.4864   28.3958 O   0  0  0  0  0  0  0  0  0  0  0  0
  1  2  1  0
  2  3  2  0
  4  2  1  0
  5  4  1  0
  6  5  1  0
  7  6  1  0
  8  9  1  6
  8  7  1  0
 10  8  1  0
 11 10  2  0
 13 15  1  0
 13 12  1  0
 14 13  2  0
 16 15  1  6
 16 17  1  0
 17 10  1  0
 18 16  1  0
 18 19  2  0
 20 18  1  0
 21 20  1  0
 21 22  1  1
 23 22  1  0
 23 31  1  0
 24 25  1  0
 24 23  2  0
 25 26  1  0
 26 31  2  0
 26 27  1  0
 27 28  2  0
 28 29  1  0
 30 29  2  0
 31 30  1  0
 32 21  1  0
 33 32  1  0
 34 32  2  0
M  END
$$$$
