AEK.pdb
     RDKit          3D

 24 23  0  0  1  0  0  0  0  0999 V2000
    7.9918  -12.5176   19.9171 C   0  0  0  0  0  0  0  0  0  0  0  0
    7.8418  -13.8716   19.2893 C   0  0  2  0  0  0  0  0  0  0  0  0
    6.4671  -14.1900   18.9802 N   0  0  0  0  0  0  0  0  0  0  0  0
    8.4590  -14.9421   20.1013 C   0  0  0  0  0  0  0  0  0  0  0  0
    7.8161  -15.6018   20.9420 O   0  0  0  0  0  0  0  0  0  0  0  0
    9.8342  -15.2303   19.9179 N   0  0  0  0  0  0  0  0  0  0  0  0
   10.4640  -16.3614   20.5704 C   0  0  1  0  0  0  0  0  0  0  0  0
   11.4112  -17.0848   19.6362 C   0  0  0  0  0  0  0  0  0  0  0  0
   12.0724  -18.2392   20.3263 C   0  0  0  0  0  0  0  0  0  0  0  0
   13.0148  -18.9169   19.4130 C   0  0  0  0  0  0  0  0  0  0  0  0
   12.5839  -19.7729   18.6107 O   0  0  0  0  0  0  0  0  0  0  0  0
   11.1565  -15.9517   21.8034 C   0  0  0  0  0  0  0  0  0  0  0  0
   11.8820  -14.9410   21.8022 O   0  0  0  0  0  0  0  0  0  0  0  0
   14.3641  -18.6274   19.4236 O   0  0  0  0  0  0  0  0  0  0  0  0
   10.9986  -16.7021   22.9834 N   0  0  0  0  0  0  0  0  0  0  0  0
   11.6423  -16.2720   24.1988 C   0  0  1  0  0  0  0  0  0  0  0  0
   11.0036  -16.8990   25.4213 C   0  0  0  0  0  0  0  0  0  0  0  0
   11.7332  -16.5100   26.7007 C   0  0  0  0  0  0  0  0  0  0  0  0
   10.9680  -17.1493   27.8408 C   0  0  0  0  0  0  0  0  0  0  0  0
   11.5665  -16.7878   29.1849 C   0  0  0  0  0  0  0  0  0  0  0  0
   10.8937  -17.5740   30.1911 N   0  0  0  0  0  0  0  0  0  0  0  0
   13.0878  -16.5821   24.1154 C   0  0  0  0  0  0  0  0  0  0  0  0
   13.9662  -15.8144   24.5747 O   0  0  0  0  0  0  0  0  0  0  0  0
   13.5106  -17.7583   23.5121 O   0  0  0  0  0  0  0  0  0  0  0  0
  2  3  1  0
  2  1  1  1
  4  2  1  0
  4  5  2  0
  6  4  1  0
  7  6  1  0
  7 12  1  0
  7  8  1  6
  9  8  1  0
  9 10  1  0
 10 11  2  0
 12 13  2  0
 12 15  1  0
 14 10  1  0
 15 16  1  0
 16 22  1  0
 16 17  1  1
 18 17  1  0
 19 18  1  0
 20 19  1  0
 21 20  1  0
 22 23  2  0
 22 24  1  0
M  END
$$$$
