AEK.pdb
     RDKit          3D

 24 23  0  0  1  0  0  0  0  0999 V2000
    8.3077  -12.3982   19.6443 C   0  0  0  0  0  0  0  0  0  0  0  0
    8.3215  -13.8197   19.1660 C   0  0  2  0  0  0  0  0  0  0  0  0
    7.2139  -14.1201   18.2885 N   0  0  0  0  0  0  0  0  0  0  0  0
    8.3871  -14.7898   20.2799 C   0  0  0  0  0  0  0  0  0  0  0  0
    7.3703  -15.1938   20.8784 O   0  0  0  0  0  0  0  0  0  0  0  0
    9.6538  -15.2800   20.6837 N   0  0  0  0  0  0  0  0  0  0  0  0
    9.7800  -16.2953   21.7108 C   0  0  1  0  0  0  0  0  0  0  0  0
   10.9935  -17.1713   21.4796 C   0  0  0  0  0  0  0  0  0  0  0  0
   10.8393  -17.9881   20.2326 C   0  0  0  0  0  0  0  0  0  0  0  0
   12.0425  -18.8133   20.0027 C   0  0  0  0  0  0  0  0  0  0  0  0
   13.1691  -18.2722   20.0121 O   0  0  0  0  0  0  0  0  0  0  0  0
    9.8155  -15.6965   23.0552 C   0  0  0  0  0  0  0  0  0  0  0  0
   10.6540  -14.8167   23.3218 O   0  0  0  0  0  0  0  0  0  0  0  0
   11.9534  -20.1718   19.7770 O   0  0  0  0  0  0  0  0  0  0  0  0
    8.9020  -16.1179   24.0393 N   0  0  0  0  0  0  0  0  0  0  0  0
    8.9746  -15.5669   25.3689 C   0  0  1  0  0  0  0  0  0  0  0  0
    7.6834  -14.8770   25.7589 C   0  0  0  0  0  0  0  0  0  0  0  0
    7.9077  -13.4076   26.0923 C   0  0  0  0  0  0  0  0  0  0  0  0
    6.5993  -12.8918   26.6544 C   0  0  0  0  0  0  0  0  0  0  0  0
    6.6873  -11.4220   27.0110 C   0  0  0  0  0  0  0  0  0  0  0  0
    5.4195  -11.0310   27.5791 N   0  0  0  0  0  0  0  0  0  0  0  0
    9.3289  -16.6453   26.3197 C   0  0  0  0  0  0  0  0  0  0  0  0
    9.3680  -17.8520   25.9813 O   0  0  0  0  0  0  0  0  0  0  0  0
    9.6327  -16.3350   27.6378 O   0  0  0  0  0  0  0  0  0  0  0  0
  2  3  1  0
  2  1  1  1
  4  2  1  0
  4  5  2  0
  6  4  1  0
  7  6  1  0
  7 12  1  0
  7  8  1  6
  9  8  1  0
  9 10  1  0
 10 11  2  0
 12 13  2  0
 12 15  1  0
 14 10  1  0
 15 16  1  0
 16 22  1  0
 16 17  1  1
 18 17  1  0
 19 18  1  0
 20 19  1  0
 21 20  1  0
 22 23  2  0
 22 24  1  0
M  END
$$$$
