AEK.pdb
     RDKit          3D

 24 23  0  0  1  0  0  0  0  0999 V2000
    7.9891  -12.3872   19.7854 C   0  0  0  0  0  0  0  0  0  0  0  0
    8.1754  -13.6739   19.0375 C   0  0  2  0  0  0  0  0  0  0  0  0
    7.0485  -13.9914   18.1912 N   0  0  0  0  0  0  0  0  0  0  0  0
    8.4952  -14.8063   19.9329 C   0  0  0  0  0  0  0  0  0  0  0  0
    7.6165  -15.5451   20.4202 O   0  0  0  0  0  0  0  0  0  0  0  0
    9.8522  -15.0627   20.2502 N   0  0  0  0  0  0  0  0  0  0  0  0
   10.2326  -16.1641   21.1128 C   0  0  1  0  0  0  0  0  0  0  0  0
   11.0497  -17.1976   20.3662 C   0  0  0  0  0  0  0  0  0  0  0  0
   10.2143  -17.9124   19.3477 C   0  0  0  0  0  0  0  0  0  0  0  0
   11.0059  -18.9612   18.6734 C   0  0  0  0  0  0  0  0  0  0  0  0
   12.2189  -19.0866   18.9475 O   0  0  0  0  0  0  0  0  0  0  0  0
   10.9544  -15.6874   22.3041 C   0  0  0  0  0  0  0  0  0  0  0  0
   11.9232  -14.9171   22.1770 O   0  0  0  0  0  0  0  0  0  0  0  0
   10.4376  -19.8093   17.7448 O   0  0  0  0  0  0  0  0  0  0  0  0
   10.5499  -16.1021   23.5866 N   0  0  0  0  0  0  0  0  0  0  0  0
   11.2968  -15.6825   24.7453 C   0  0  1  0  0  0  0  0  0  0  0  0
   10.4383  -15.6828   25.9936 C   0  0  0  0  0  0  0  0  0  0  0  0
   11.2540  -15.3603   27.2391 C   0  0  0  0  0  0  0  0  0  0  0  0
   10.2932  -15.4239   28.4082 C   0  0  0  0  0  0  0  0  0  0  0  0
   10.9910  -15.1246   29.7192 C   0  0  0  0  0  0  0  0  0  0  0  0
    9.9985  -15.1726   30.7660 N   0  0  0  0  0  0  0  0  0  0  0  0
   12.4840  -16.5545   24.8962 C   0  0  0  0  0  0  0  0  0  0  0  0
   12.4324  -17.7946   24.7192 O   0  0  0  0  0  0  0  0  0  0  0  0
   13.7089  -16.0033   25.2454 O   0  0  0  0  0  0  0  0  0  0  0  0
  2  3  1  0
  2  1  1  1
  4  2  1  0
  4  5  2  0
  6  4  1  0
  7  6  1  0
  7 12  1  0
  7  8  1  6
  9  8  1  0
  9 10  1  0
 10 11  2  0
 12 13  2  0
 12 15  1  0
 14 10  1  0
 15 16  1  0
 16 22  1  0
 16 17  1  1
 18 17  1  0
 19 18  1  0
 20 19  1  0
 21 20  1  0
 22 23  2  0
 22 24  1  0
M  END
$$$$
