AEK.pdb
     RDKit          3D

 24 23  0  0  1  0  0  0  0  0999 V2000
    8.6880  -12.4685   19.0208 C   0  0  0  0  0  0  0  0  0  0  0  0
    8.4874  -13.9164   18.6846 C   0  0  2  0  0  0  0  0  0  0  0  0
    7.2897  -14.1448   17.9097 N   0  0  0  0  0  0  0  0  0  0  0  0
    8.5110  -14.7828   19.8825 C   0  0  0  0  0  0  0  0  0  0  0  0
    7.4754  -15.1036   20.4990 O   0  0  0  0  0  0  0  0  0  0  0  0
    9.7580  -15.2678   20.3490 N   0  0  0  0  0  0  0  0  0  0  0  0
    9.8378  -16.2590   21.4039 C   0  0  1  0  0  0  0  0  0  0  0  0
   10.9922  -17.2139   21.1827 C   0  0  0  0  0  0  0  0  0  0  0  0
   10.7140  -18.1401   20.0377 C   0  0  0  0  0  0  0  0  0  0  0  0
   11.8524  -19.0569   19.8258 C   0  0  0  0  0  0  0  0  0  0  0  0
   12.0527  -19.9851   20.6384 O   0  0  0  0  0  0  0  0  0  0  0  0
    9.9300  -15.6250   22.7294 C   0  0  0  0  0  0  0  0  0  0  0  0
   10.8618  -14.8391   22.9790 O   0  0  0  0  0  0  0  0  0  0  0  0
   12.7036  -18.9136   18.7490 O   0  0  0  0  0  0  0  0  0  0  0  0
    8.9655  -15.9068   23.7146 N   0  0  0  0  0  0  0  0  0  0  0  0
    8.9373  -15.1369   24.9324 C   0  0  1  0  0  0  0  0  0  0  0  0
    7.7012  -14.2646   25.0134 C   0  0  0  0  0  0  0  0  0  0  0  0
    7.6899  -13.4189   26.2804 C   0  0  0  0  0  0  0  0  0  0  0  0
    6.4373  -12.5699   26.2171 C   0  0  0  0  0  0  0  0  0  0  0  0
    6.3434  -11.6269   27.3991 C   0  0  0  0  0  0  0  0  0  0  0  0
    5.0723  -10.9478   27.3194 N   0  0  0  0  0  0  0  0  0  0  0  0
    9.0354  -16.0575   26.0879 C   0  0  0  0  0  0  0  0  0  0  0  0
    8.8036  -17.2857   25.9888 O   0  0  0  0  0  0  0  0  0  0  0  0
    9.3948  -15.5677   27.3358 O   0  0  0  0  0  0  0  0  0  0  0  0
  2  3  1  0
  2  1  1  1
  4  2  1  0
  4  5  2  0
  6  4  1  0
  7  6  1  0
  7 12  1  0
  7  8  1  6
  9  8  1  0
  9 10  1  0
 10 11  2  0
 12 13  2  0
 12 15  1  0
 14 10  1  0
 15 16  1  0
 16 22  1  0
 16 17  1  1
 18 17  1  0
 19 18  1  0
 20 19  1  0
 21 20  1  0
 22 23  2  0
 22 24  1  0
M  END
$$$$
