AEK.pdb
     RDKit          3D

 24 23  0  0  1  0  0  0  0  0999 V2000
    8.6669  -16.2050   19.2043 C   0  0  0  0  0  0  0  0  0  0  0  0
    9.8298  -16.0629   18.2676 C   0  0  2  0  0  0  0  0  0  0  0  0
    9.7072  -16.9047   17.1001 N   0  0  0  0  0  0  0  0  0  0  0  0
   11.1274  -16.2842   18.9408 C   0  0  0  0  0  0  0  0  0  0  0  0
   11.4585  -17.3903   19.4124 O   0  0  0  0  0  0  0  0  0  0  0  0
   12.0304  -15.1982   19.0552 N   0  0  0  0  0  0  0  0  0  0  0  0
   13.3162  -15.3486   19.7079 C   0  0  1  0  0  0  0  0  0  0  0  0
   14.3302  -14.3598   19.1717 C   0  0  0  0  0  0  0  0  0  0  0  0
   14.8343  -14.7813   17.8248 C   0  0  0  0  0  0  0  0  0  0  0  0
   15.8742  -13.8478   17.3464 C   0  0  0  0  0  0  0  0  0  0  0  0
   17.0414  -13.9542   17.7804 O   0  0  0  0  0  0  0  0  0  0  0  0
   13.1923  -15.2300   21.1701 C   0  0  0  0  0  0  0  0  0  0  0  0
   12.5362  -14.2957   21.6645 O   0  0  0  0  0  0  0  0  0  0  0  0
   15.5880  -12.8574   16.4289 O   0  0  0  0  0  0  0  0  0  0  0  0
   13.8153  -16.1724   22.0093 N   0  0  0  0  0  0  0  0  0  0  0  0
   13.6594  -16.0745   23.4385 C   0  0  1  0  0  0  0  0  0  0  0  0
   12.8127  -17.2048   23.9869 C   0  0  0  0  0  0  0  0  0  0  0  0
   12.6883  -17.1316   25.5034 C   0  0  0  0  0  0  0  0  0  0  0  0
   11.9158  -18.3627   25.9293 C   0  0  0  0  0  0  0  0  0  0  0  0
   11.6729  -18.3781   27.4246 C   0  0  0  0  0  0  0  0  0  0  0  0
   11.0431  -19.6341   27.7546 N   0  0  0  0  0  0  0  0  0  0  0  0
   14.9987  -16.0369   24.0688 C   0  0  0  0  0  0  0  0  0  0  0  0
   16.0438  -16.3302   23.4414 O   0  0  0  0  0  0  0  0  0  0  0  0
   15.1280  -15.6670   25.4001 O   0  0  0  0  0  0  0  0  0  0  0  0
  2  3  1  0
  2  1  1  1
  4  2  1  0
  4  5  2  0
  6  4  1  0
  7  6  1  0
  7 12  1  0
  7  8  1  6
  9  8  1  0
  9 10  1  0
 10 11  2  0
 12 13  2  0
 12 15  1  0
 14 10  1  0
 15 16  1  0
 16 22  1  0
 16 17  1  1
 18 17  1  0
 19 18  1  0
 20 19  1  0
 21 20  1  0
 22 23  2  0
 22 24  1  0
M  END
$$$$
