AEK.pdb
     RDKit          3D

 24 23  0  0  1  0  0  0  0  0999 V2000
   -3.3298  -27.3170   26.2887 C   0  0  0  0  0  0  0  0  0  0  0  0
   -3.4852  -25.8402   26.5007 C   0  0  2  0  0  0  0  0  0  0  0  0
   -2.2730  -25.1085   26.2144 N   0  0  0  0  0  0  0  0  0  0  0  0
   -3.9891  -25.5137   27.8518 C   0  0  0  0  0  0  0  0  0  0  0  0
   -3.2818  -25.6142   28.8741 O   0  0  0  0  0  0  0  0  0  0  0  0
   -5.3273  -25.0692   27.9917 N   0  0  0  0  0  0  0  0  0  0  0  0
   -5.8541  -24.6462   29.2744 C   0  0  1  0  0  0  0  0  0  0  0  0
   -6.5725  -23.3173   29.1689 C   0  0  0  0  0  0  0  0  0  0  0  0
   -7.0569  -22.8581   30.5107 C   0  0  0  0  0  0  0  0  0  0  0  0
   -7.7445  -21.5560   30.3946 C   0  0  0  0  0  0  0  0  0  0  0  0
   -8.2110  -21.0145   31.4198 O   0  0  0  0  0  0  0  0  0  0  0  0
   -6.7347  -25.6722   29.8570 C   0  0  0  0  0  0  0  0  0  0  0  0
   -7.6633  -26.1509   29.1812 O   0  0  0  0  0  0  0  0  0  0  0  0
   -7.8851  -20.9203   29.1778 O   0  0  0  0  0  0  0  0  0  0  0  0
   -6.5274  -26.1121   31.1776 N   0  0  0  0  0  0  0  0  0  0  0  0
   -7.3181  -27.1949   31.7058 C   0  0  1  0  0  0  0  0  0  0  0  0
   -6.5792  -27.9473   32.7936 C   0  0  0  0  0  0  0  0  0  0  0  0
   -5.5864  -28.9465   32.2135 C   0  0  0  0  0  0  0  0  0  0  0  0
   -4.8779  -29.5796   33.3929 C   0  0  0  0  0  0  0  0  0  0  0  0
   -3.8541  -30.6021   32.9441 C   0  0  0  0  0  0  0  0  0  0  0  0
   -3.1986  -31.1144   34.1235 N   0  0  0  0  0  0  0  0  0  0  0  0
   -8.6097  -26.6576   32.1910 C   0  0  0  0  0  0  0  0  0  0  0  0
   -8.6828  -25.6292   32.9045 O   0  0  0  0  0  0  0  0  0  0  0  0
   -9.7955  -27.2971   31.8578 O   0  0  0  0  0  0  0  0  0  0  0  0
  2  3  1  0
  2  1  1  1
  4  2  1  0
  4  5  2  0
  6  4  1  0
  7  6  1  0
  7 12  1  0
  7  8  1  6
  9  8  1  0
  9 10  1  0
 10 11  2  0
 12 13  2  0
 12 15  1  0
 14 10  1  0
 15 16  1  0
 16 22  1  0
 16 17  1  1
 18 17  1  0
 19 18  1  0
 20 19  1  0
 21 20  1  0
 22 23  2  0
 22 24  1  0
M  END
$$$$
