AEK.pdb
     RDKit          3D

 24 23  0  0  1  0  0  0  0  0999 V2000
    7.5778  -12.2859   19.5315 C   0  0  0  0  0  0  0  0  0  0  0  0
    8.2015  -13.1041   18.4400 C   0  0  2  0  0  0  0  0  0  0  0  0
    7.2277  -13.6074   17.4991 N   0  0  0  0  0  0  0  0  0  0  0  0
    9.0398  -14.2025   18.9663 C   0  0  0  0  0  0  0  0  0  0  0  0
    8.6433  -15.3838   19.0171 O   0  0  0  0  0  0  0  0  0  0  0  0
   10.3442  -13.9023   19.4313 N   0  0  0  0  0  0  0  0  0  0  0  0
   11.2534  -14.9465   19.8612 C   0  0  1  0  0  0  0  0  0  0  0  0
   12.6890  -14.6093   19.5170 C   0  0  0  0  0  0  0  0  0  0  0  0
   13.5956  -15.7717   19.7869 C   0  0  0  0  0  0  0  0  0  0  0  0
   14.9835  -15.4457   19.4011 C   0  0  0  0  0  0  0  0  0  0  0  0
   15.6772  -14.7277   20.1529 O   0  0  0  0  0  0  0  0  0  0  0  0
   11.1113  -15.2221   21.3004 C   0  0  0  0  0  0  0  0  0  0  0  0
   11.2506  -14.3019   22.1261 O   0  0  0  0  0  0  0  0  0  0  0  0
   15.5354  -15.9159   18.2268 O   0  0  0  0  0  0  0  0  0  0  0  0
   10.8180  -16.5252   21.7433 N   0  0  0  0  0  0  0  0  0  0  0  0
   10.5398  -16.7639   23.1369 C   0  0  1  0  0  0  0  0  0  0  0  0
    9.7171  -18.0206   23.3351 C   0  0  0  0  0  0  0  0  0  0  0  0
    8.2785  -17.8318   22.8712 C   0  0  0  0  0  0  0  0  0  0  0  0
    7.5754  -19.1520   23.1090 C   0  0  0  0  0  0  0  0  0  0  0  0
    6.1211  -19.0920   22.6888 C   0  0  0  0  0  0  0  0  0  0  0  0
    5.5151  -20.3590   23.0213 N   0  0  0  0  0  0  0  0  0  0  0  0
   11.8185  -16.8226   23.8813 C   0  0  0  0  0  0  0  0  0  0  0  0
   12.9126  -17.0613   23.3175 O   0  0  0  0  0  0  0  0  0  0  0  0
   11.8326  -16.6092   25.2526 O   0  0  0  0  0  0  0  0  0  0  0  0
  2  3  1  0
  2  1  1  1
  4  2  1  0
  4  5  2  0
  6  4  1  0
  7  6  1  0
  7 12  1  0
  7  8  1  1
  9  8  1  0
  9 10  1  0
 10 11  2  0
 12 13  2  0
 12 15  1  0
 14 10  1  0
 15 16  1  0
 16 22  1  0
 16 17  1  6
 18 17  1  0
 19 18  1  0
 20 19  1  0
 21 20  1  0
 22 23  2  0
 22 24  1  0
M  END
$$$$
