AEK.pdb
     RDKit          3D

 24 23  0  0  1  0  0  0  0  0999 V2000
    7.4030  -12.7120   21.0457 C   0  0  0  0  0  0  0  0  0  0  0  0
    8.1692  -13.7177   20.2387 C   0  0  2  0  0  0  0  0  0  0  0  0
    7.4781  -14.1005   19.0292 N   0  0  0  0  0  0  0  0  0  0  0  0
    8.5433  -14.9096   21.0295 C   0  0  0  0  0  0  0  0  0  0  0  0
    7.9231  -15.9887   20.9508 O   0  0  0  0  0  0  0  0  0  0  0  0
    9.6492  -14.8235   21.9114 N   0  0  0  0  0  0  0  0  0  0  0  0
   10.1760  -15.9963   22.5813 C   0  0  1  0  0  0  0  0  0  0  0  0
   11.6790  -15.9133   22.7466 C   0  0  0  0  0  0  0  0  0  0  0  0
   12.3817  -16.2529   21.4671 C   0  0  0  0  0  0  0  0  0  0  0  0
   13.8125  -16.5199   21.7180 C   0  0  0  0  0  0  0  0  0  0  0  0
   14.3377  -17.5492   21.2418 O   0  0  0  0  0  0  0  0  0  0  0  0
    9.5179  -16.2124   23.8805 C   0  0  0  0  0  0  0  0  0  0  0  0
    9.3706  -15.2610   24.6686 O   0  0  0  0  0  0  0  0  0  0  0  0
   14.5867  -15.6581   22.4679 O   0  0  0  0  0  0  0  0  0  0  0  0
    9.0553  -17.4942   24.2321 N   0  0  0  0  0  0  0  0  0  0  0  0
    8.4505  -17.7099   25.5220 C   0  0  1  0  0  0  0  0  0  0  0  0
    7.7568  -19.0548   25.5959 C   0  0  0  0  0  0  0  0  0  0  0  0
    7.1442  -19.2987   26.9692 C   0  0  0  0  0  0  0  0  0  0  0  0
    6.5875  -20.7070   26.9455 C   0  0  0  0  0  0  0  0  0  0  0  0
    5.8775  -21.0470   28.2399 C   0  0  0  0  0  0  0  0  0  0  0  0
    5.2649  -22.3437   28.0775 N   0  0  0  0  0  0  0  0  0  0  0  0
    9.4864  -17.5690   26.5706 C   0  0  0  0  0  0  0  0  0  0  0  0
   10.6857  -17.8776   26.3747 O   0  0  0  0  0  0  0  0  0  0  0  0
    9.1426  -17.0802   27.8233 O   0  0  0  0  0  0  0  0  0  0  0  0
  2  3  1  0
  2  1  1  1
  4  2  1  0
  4  5  2  0
  6  4  1  0
  7  6  1  0
  7 12  1  0
  7  8  1  1
  9  8  1  0
  9 10  1  0
 10 11  2  0
 12 13  2  0
 12 15  1  0
 14 10  1  0
 15 16  1  0
 16 22  1  0
 16 17  1  6
 18 17  1  0
 19 18  1  0
 20 19  1  0
 21 20  1  0
 22 23  2  0
 22 24  1  0
M  END
$$$$
