AEK.pdb
     RDKit          3D

 24 23  0  0  1  0  0  0  0  0999 V2000
    8.2583  -17.5377   20.6169 C   0  0  0  0  0  0  0  0  0  0  0  0
    9.1777  -18.0828   19.5645 C   0  0  2  0  0  0  0  0  0  0  0  0
    8.6141  -19.2170   18.8695 N   0  0  0  0  0  0  0  0  0  0  0  0
   10.5178  -18.4070   20.0984 C   0  0  0  0  0  0  0  0  0  0  0  0
   10.7185  -19.3654   20.8707 O   0  0  0  0  0  0  0  0  0  0  0  0
   11.6174  -17.5980   19.7184 N   0  0  0  0  0  0  0  0  0  0  0  0
   12.9514  -17.8457   20.2291 C   0  0  1  0  0  0  0  0  0  0  0  0
   13.9915  -17.7556   19.1322 C   0  0  0  0  0  0  0  0  0  0  0  0
   15.3641  -18.0326   19.6665 C   0  0  0  0  0  0  0  0  0  0  0  0
   16.3700  -17.9218   18.5907 C   0  0  0  0  0  0  0  0  0  0  0  0
   17.0520  -18.9228   18.2823 O   0  0  0  0  0  0  0  0  0  0  0  0
   13.2793  -16.9335   21.3372 C   0  0  0  0  0  0  0  0  0  0  0  0
   13.2845  -15.7036   21.1489 O   0  0  0  0  0  0  0  0  0  0  0  0
   16.5763  -16.7363   17.9150 O   0  0  0  0  0  0  0  0  0  0  0  0
   13.5868  -17.4509   22.6092 N   0  0  0  0  0  0  0  0  0  0  0  0
   13.8551  -16.5528   23.7037 C   0  0  1  0  0  0  0  0  0  0  0  0
   13.6464  -17.2275   25.0440 C   0  0  0  0  0  0  0  0  0  0  0  0
   12.2463  -17.8146   25.1679 C   0  0  0  0  0  0  0  0  0  0  0  0
   12.2118  -18.5653   26.4829 C   0  0  0  0  0  0  0  0  0  0  0  0
   10.8429  -19.1566   26.7508 C   0  0  0  0  0  0  0  0  0  0  0  0
   10.9328  -19.9438   27.9572 N   0  0  0  0  0  0  0  0  0  0  0  0
   15.2301  -16.0209   23.5657 C   0  0  0  0  0  0  0  0  0  0  0  0
   16.0963  -16.5781   22.8508 O   0  0  0  0  0  0  0  0  0  0  0  0
   15.5974  -14.8658   24.2417 O   0  0  0  0  0  0  0  0  0  0  0  0
  2  3  1  0
  2  1  1  1
  4  2  1  0
  4  5  2  0
  6  4  1  0
  7  6  1  0
  7 12  1  0
  7  8  1  6
  9  8  1  0
  9 10  1  0
 10 11  2  0
 12 13  2  0
 12 15  1  0
 14 10  1  0
 15 16  1  0
 16 22  1  0
 16 17  1  1
 18 17  1  0
 19 18  1  0
 20 19  1  0
 21 20  1  0
 22 23  2  0
 22 24  1  0
M  END
$$$$
