AEK.pdb
     RDKit          3D

 24 23  0  0  1  0  0  0  0  0999 V2000
    8.0591  -12.5562   19.9071 C   0  0  0  0  0  0  0  0  0  0  0  0
    8.0310  -13.8547   19.1569 C   0  0  2  0  0  0  0  0  0  0  0  0
    6.6970  -14.2310   18.7498 N   0  0  0  0  0  0  0  0  0  0  0  0
    8.6816  -14.9525   19.9036 C   0  0  0  0  0  0  0  0  0  0  0  0
    8.0363  -15.7804   20.5770 O   0  0  0  0  0  0  0  0  0  0  0  0
   10.0929  -15.0693   19.8528 N   0  0  0  0  0  0  0  0  0  0  0  0
   10.7806  -16.1990   20.4465 C   0  0  1  0  0  0  0  0  0  0  0  0
   11.7353  -16.8463   19.4652 C   0  0  0  0  0  0  0  0  0  0  0  0
   12.4281  -18.0228   20.0831 C   0  0  0  0  0  0  0  0  0  0  0  0
   13.3657  -18.6352   19.1201 C   0  0  0  0  0  0  0  0  0  0  0  0
   14.4427  -19.1164   19.5331 O   0  0  0  0  0  0  0  0  0  0  0  0
   11.4827  -15.8108   21.6809 C   0  0  0  0  0  0  0  0  0  0  0  0
   12.3125  -14.8839   21.6588 O   0  0  0  0  0  0  0  0  0  0  0  0
   13.0812  -18.6894   17.7708 O   0  0  0  0  0  0  0  0  0  0  0  0
   11.2165  -16.4869   22.8861 N   0  0  0  0  0  0  0  0  0  0  0  0
   11.8665  -16.0688   24.1023 C   0  0  1  0  0  0  0  0  0  0  0  0
   11.2020  -16.6674   25.3252 C   0  0  0  0  0  0  0  0  0  0  0  0
   11.9671  -16.3381   26.6006 C   0  0  0  0  0  0  0  0  0  0  0  0
   11.1610  -16.9170   27.7447 C   0  0  0  0  0  0  0  0  0  0  0  0
   11.7711  -16.5701   29.0873 C   0  0  0  0  0  0  0  0  0  0  0  0
   10.9249  -17.1317   30.1128 N   0  0  0  0  0  0  0  0  0  0  0  0
   13.3021  -16.4241   24.0292 C   0  0  0  0  0  0  0  0  0  0  0  0
   13.6986  -17.5256   23.5805 O   0  0  0  0  0  0  0  0  0  0  0  0
   14.2624  -15.5226   24.4667 O   0  0  0  0  0  0  0  0  0  0  0  0
  2  3  1  0
  2  1  1  1
  4  2  1  0
  4  5  2  0
  6  4  1  0
  7  6  1  0
  7 12  1  0
  7  8  1  6
  9  8  1  0
  9 10  1  0
 10 11  2  0
 12 13  2  0
 12 15  1  0
 14 10  1  0
 15 16  1  0
 16 22  1  0
 16 17  1  1
 18 17  1  0
 19 18  1  0
 20 19  1  0
 21 20  1  0
 22 23  2  0
 22 24  1  0
M  END
$$$$
