AEK.pdb
     RDKit          3D

 24 23  0  0  1  0  0  0  0  0999 V2000
    7.0750  -13.7471   18.1036 C   0  0  0  0  0  0  0  0  0  0  0  0
    8.3953  -13.2585   18.6211 C   0  0  2  0  0  0  0  0  0  0  0  0
    9.0193  -12.3037   17.7346 N   0  0  0  0  0  0  0  0  0  0  0  0
    9.3227  -14.3659   18.9371 C   0  0  0  0  0  0  0  0  0  0  0  0
    8.9445  -15.4240   19.4782 O   0  0  0  0  0  0  0  0  0  0  0  0
   10.6944  -14.2202   18.6129 N   0  0  0  0  0  0  0  0  0  0  0  0
   11.6514  -15.2760   18.8800 C   0  0  1  0  0  0  0  0  0  0  0  0
   12.7318  -15.3274   17.8201 C   0  0  0  0  0  0  0  0  0  0  0  0
   12.2310  -15.9871   16.5711 C   0  0  0  0  0  0  0  0  0  0  0  0
   13.3270  -16.1426   15.5932 C   0  0  0  0  0  0  0  0  0  0  0  0
   13.5181  -15.2513   14.7383 O   0  0  0  0  0  0  0  0  0  0  0  0
   12.2411  -15.1383   20.2220 C   0  0  0  0  0  0  0  0  0  0  0  0
   12.8362  -14.0915   20.5349 O   0  0  0  0  0  0  0  0  0  0  0  0
   14.1481  -17.2518   15.6001 O   0  0  0  0  0  0  0  0  0  0  0  0
   12.1323  -16.1894   21.1513 N   0  0  0  0  0  0  0  0  0  0  0  0
   12.5892  -16.0008   22.5049 C   0  0  1  0  0  0  0  0  0  0  0  0
   11.9656  -17.0070   23.4504 C   0  0  0  0  0  0  0  0  0  0  0  0
   12.5892  -16.9381   24.8385 C   0  0  0  0  0  0  0  0  0  0  0  0
   11.9984  -18.0860   25.6305 C   0  0  0  0  0  0  0  0  0  0  0  0
   12.4293  -18.0409   27.0822 C   0  0  0  0  0  0  0  0  0  0  0  0
   11.6740  -19.0424   27.7960 N   0  0  0  0  0  0  0  0  0  0  0  0
   14.0681  -16.0690   22.5291 C   0  0  0  0  0  0  0  0  0  0  0  0
   14.7211  -16.7640   21.7151 O   0  0  0  0  0  0  0  0  0  0  0  0
   14.7797  -15.3470   23.4770 O   0  0  0  0  0  0  0  0  0  0  0  0
  2  3  1  0
  2  1  1  6
  4  2  1  0
  4  5  2  0
  6  4  1  0
  7  6  1  0
  7 12  1  0
  7  8  1  6
  9  8  1  0
  9 10  1  0
 10 11  2  0
 12 13  2  0
 12 15  1  0
 14 10  1  0
 15 16  1  0
 16 22  1  0
 16 17  1  1
 18 17  1  0
 19 18  1  0
 20 19  1  0
 21 20  1  0
 22 23  2  0
 22 24  1  0
M  END
$$$$
