AEK.pdb
     RDKit          3D

 24 23  0  0  1  0  0  0  0  0999 V2000
    8.0910  -12.0444   19.9918 C   0  0  0  0  0  0  0  0  0  0  0  0
    8.3454  -12.9901   18.8557 C   0  0  2  0  0  0  0  0  0  0  0  0
    7.1249  -13.4708   18.2505 N   0  0  0  0  0  0  0  0  0  0  0  0
    9.2184  -14.1183   19.2448 C   0  0  0  0  0  0  0  0  0  0  0  0
    8.7716  -15.2527   19.5071 O   0  0  0  0  0  0  0  0  0  0  0  0
   10.6168  -13.9032   19.3229 N   0  0  0  0  0  0  0  0  0  0  0  0
   11.5445  -15.0062   19.4794 C   0  0  1  0  0  0  0  0  0  0  0  0
   12.6574  -14.9455   18.4541 C   0  0  0  0  0  0  0  0  0  0  0  0
   13.6318  -16.0674   18.6489 C   0  0  0  0  0  0  0  0  0  0  0  0
   14.6616  -16.0477   17.5903 C   0  0  0  0  0  0  0  0  0  0  0  0
   15.2017  -17.1186   17.2391 O   0  0  0  0  0  0  0  0  0  0  0  0
   12.0931  -15.0558   20.8447 C   0  0  0  0  0  0  0  0  0  0  0  0
   12.7130  -14.0785   21.3013 O   0  0  0  0  0  0  0  0  0  0  0  0
   15.0438  -14.8718   16.9773 O   0  0  0  0  0  0  0  0  0  0  0  0
   11.9170  -16.2075   21.6340 N   0  0  0  0  0  0  0  0  0  0  0  0
   12.5261  -16.2840   22.9377 C   0  0  1  0  0  0  0  0  0  0  0  0
   11.8755  -17.3490   23.7967 C   0  0  0  0  0  0  0  0  0  0  0  0
   12.5258  -17.4398   25.1712 C   0  0  0  0  0  0  0  0  0  0  0  0
   11.7144  -18.4440   25.9630 C   0  0  0  0  0  0  0  0  0  0  0  0
   12.1306  -18.4717   27.4195 C   0  0  0  0  0  0  0  0  0  0  0  0
   11.3771  -19.5156   28.0720 N   0  0  0  0  0  0  0  0  0  0  0  0
   13.9792  -16.5201   22.7785 C   0  0  0  0  0  0  0  0  0  0  0  0
   14.4397  -17.3244   21.9341 O   0  0  0  0  0  0  0  0  0  0  0  0
   14.8840  -15.8390   23.5808 O   0  0  0  0  0  0  0  0  0  0  0  0
  2  3  1  0
  2  1  1  1
  4  2  1  0
  4  5  2  0
  6  4  1  0
  7  6  1  0
  7 12  1  0
  7  8  1  6
  9  8  1  0
  9 10  1  0
 10 11  2  0
 12 13  2  0
 12 15  1  0
 14 10  1  0
 15 16  1  0
 16 22  1  0
 16 17  1  1
 18 17  1  0
 19 18  1  0
 20 19  1  0
 21 20  1  0
 22 23  2  0
 22 24  1  0
M  END
$$$$
