AEK.pdb
     RDKit          3D

 24 23  0  0  1  0  0  0  0  0999 V2000
    8.5550  -12.4765   18.9646 C   0  0  0  0  0  0  0  0  0  0  0  0
    8.5541  -13.9496   18.6820 C   0  0  2  0  0  0  0  0  0  0  0  0
    7.5311  -14.3320   17.7363 N   0  0  0  0  0  0  0  0  0  0  0  0
    8.4597  -14.7609   19.9145 C   0  0  0  0  0  0  0  0  0  0  0  0
    7.3822  -14.9468   20.5145 O   0  0  0  0  0  0  0  0  0  0  0  0
    9.6384  -15.3505   20.4349 N   0  0  0  0  0  0  0  0  0  0  0  0
    9.5964  -16.2517   21.5697 C   0  0  1  0  0  0  0  0  0  0  0  0
   10.6480  -17.3356   21.4574 C   0  0  0  0  0  0  0  0  0  0  0  0
   10.2623  -18.3567   20.4304 C   0  0  0  0  0  0  0  0  0  0  0  0
   11.3246  -19.3729   20.2871 C   0  0  0  0  0  0  0  0  0  0  0  0
   11.4502  -20.2573   21.1612 O   0  0  0  0  0  0  0  0  0  0  0  0
    9.7324  -15.5205   22.8403 C   0  0  0  0  0  0  0  0  0  0  0  0
   10.6518  -14.6951   22.9871 O   0  0  0  0  0  0  0  0  0  0  0  0
   12.1850  -19.3700   19.2081 O   0  0  0  0  0  0  0  0  0  0  0  0
    8.8237  -15.7541   23.8891 N   0  0  0  0  0  0  0  0  0  0  0  0
    8.8557  -14.9220   25.0651 C   0  0  1  0  0  0  0  0  0  0  0  0
    7.6194  -14.0523   25.1681 C   0  0  0  0  0  0  0  0  0  0  0  0
    7.6126  -13.2315   26.4514 C   0  0  0  0  0  0  0  0  0  0  0  0
    6.3450  -12.4032   26.4228 C   0  0  0  0  0  0  0  0  0  0  0  0
    6.2411  -11.5022   27.6364 C   0  0  0  0  0  0  0  0  0  0  0  0
    5.0276  -10.7312   27.5085 N   0  0  0  0  0  0  0  0  0  0  0  0
    9.0231  -15.7807   26.2597 C   0  0  0  0  0  0  0  0  0  0  0  0
    9.1247  -15.3082   27.4167 O   0  0  0  0  0  0  0  0  0  0  0  0
    9.0721  -17.1606   26.1200 O   0  0  0  0  0  0  0  0  0  0  0  0
  2  3  1  0
  2  1  1  1
  4  2  1  0
  4  5  2  0
  6  4  1  0
  7  6  1  0
  7 12  1  0
  7  8  1  6
  9  8  1  0
  9 10  1  0
 10 11  2  0
 12 13  2  0
 12 15  1  0
 14 10  1  0
 15 16  1  0
 16 22  1  0
 16 17  1  1
 18 17  1  0
 19 18  1  0
 20 19  1  0
 21 20  1  0
 22 23  2  0
 22 24  1  0
M  END
$$$$
