AEK.pdb
     RDKit          3D

 24 23  0  0  1  0  0  0  0  0999 V2000
    7.1963  -18.2958   18.8058 C   0  0  0  0  0  0  0  0  0  0  0  0
    8.2748  -19.0885   18.1287 C   0  0  2  0  0  0  0  0  0  0  0  0
    7.7492  -20.0382   17.1754 N   0  0  0  0  0  0  0  0  0  0  0  0
    9.1751  -19.7559   19.0931 C   0  0  0  0  0  0  0  0  0  0  0  0
    8.8442  -20.7816   19.7207 O   0  0  0  0  0  0  0  0  0  0  0  0
   10.4639  -19.2099   19.3135 N   0  0  0  0  0  0  0  0  0  0  0  0
   11.3680  -19.7762   20.2952 C   0  0  1  0  0  0  0  0  0  0  0  0
   12.7616  -19.1980   20.1655 C   0  0  0  0  0  0  0  0  0  0  0  0
   13.7081  -19.8512   21.1265 C   0  0  0  0  0  0  0  0  0  0  0  0
   15.0836  -19.3565   20.9146 C   0  0  0  0  0  0  0  0  0  0  0  0
   15.3752  -18.7962   19.8362 O   0  0  0  0  0  0  0  0  0  0  0  0
   10.8534  -19.5991   21.6632 C   0  0  0  0  0  0  0  0  0  0  0  0
   10.3349  -18.5184   21.9971 O   0  0  0  0  0  0  0  0  0  0  0  0
   16.0582  -19.4981   21.8813 O   0  0  0  0  0  0  0  0  0  0  0  0
   10.9471  -20.6507   22.5936 N   0  0  0  0  0  0  0  0  0  0  0  0
   10.3442  -20.5133   23.8951 C   0  0  1  0  0  0  0  0  0  0  0  0
    9.3079  -21.5893   24.1472 C   0  0  0  0  0  0  0  0  0  0  0  0
    8.7318  -21.4988   25.5545 C   0  0  0  0  0  0  0  0  0  0  0  0
    7.8085  -22.6884   25.7163 C   0  0  0  0  0  0  0  0  0  0  0  0
    7.1740  -22.7178   27.0917 C   0  0  0  0  0  0  0  0  0  0  0  0
    6.4041  -23.9343   27.1944 N   0  0  0  0  0  0  0  0  0  0  0  0
   11.4088  -20.5255   24.9242 C   0  0  0  0  0  0  0  0  0  0  0  0
   11.2162  -20.1167   26.0936 O   0  0  0  0  0  0  0  0  0  0  0  0
   12.6734  -21.0016   24.6075 O   0  0  0  0  0  0  0  0  0  0  0  0
  2  3  1  0
  2  1  1  1
  4  2  1  0
  4  5  2  0
  6  4  1  0
  7  6  1  0
  7 12  1  0
  7  8  1  1
  9  8  1  0
  9 10  1  0
 10 11  2  0
 12 13  2  0
 12 15  1  0
 14 10  1  0
 15 16  1  0
 16 22  1  0
 16 17  1  1
 18 17  1  0
 19 18  1  0
 20 19  1  0
 21 20  1  0
 22 23  2  0
 22 24  1  0
M  END
$$$$
