QEP.pdb
     RDKit          3D

 26 26  0  0  1  0  0  0  0  0999 V2000
    9.9350  -15.2532   15.9055 N   0  0  0  0  0  0  0  0  0  0  0  0
    8.7395  -14.7247   16.4327 C   0  0  0  0  0  0  0  0  0  0  0  0
    7.6586  -14.9765   15.8515 O   0  0  0  0  0  0  0  0  0  0  0  0
    8.7719  -13.8900   17.6502 C   0  0  0  0  0  0  0  0  0  0  0  0
    7.6893  -14.1721   18.6356 C   0  0  0  0  0  0  0  0  0  0  0  0
    7.7603  -13.3680   19.8903 C   0  0  2  0  0  0  0  0  0  0  0  0
    9.1068  -12.7876   19.9756 N   0  0  0  0  0  0  0  0  0  0  0  0
    7.5572  -14.2483   21.0786 C   0  0  0  0  0  0  0  0  0  0  0  0
    6.4342  -14.8155   21.2331 O   0  0  0  0  0  0  0  0  0  0  0  0
    8.6134  -14.4432   22.0200 N   0  0  0  0  0  0  0  0  0  0  0  0
    8.4214  -15.1545   23.2543 C   0  0  1  0  0  0  0  0  0  0  0  0
    9.3218  -16.3756   23.1504 C   0  0  0  0  0  0  0  0  0  0  0  0
    8.6109  -17.5709   22.6714 C   0  0  0  0  0  0  0  0  0  0  0  0
    9.4306  -18.8039   22.6004 C   0  0  0  0  0  0  0  0  0  0  0  0
   10.6260  -18.8275   22.9416 O   0  0  0  0  0  0  0  0  0  0  0  0
    8.6525  -14.4684   24.4963 C   0  0  0  0  0  0  0  0  0  0  0  0
    9.7840  -14.6184   25.0919 O   0  0  0  0  0  0  0  0  0  0  0  0
    8.8741  -20.0110   22.1363 O   0  0  0  0  0  0  0  0  0  0  0  0
    7.7370  -13.5902   25.1990 N   0  0  0  0  0  0  0  0  0  0  0  0
    6.5044  -13.1458   24.6525 C   0  0  0  0  0  0  0  0  0  0  0  0
    5.7819  -12.3913   25.7306 C   0  0  0  0  0  0  0  0  0  0  0  0
    6.6062  -12.5614   26.9654 C   0  0  0  0  0  0  0  0  0  0  0  0
    7.9459  -13.0552   26.5080 C   0  0  1  0  0  0  0  0  0  0  0  0
    8.4047  -14.0570   27.5124 C   0  0  0  0  0  0  0  0  0  0  0  0
    8.3713  -15.4239   27.3424 O   0  0  0  0  0  0  0  0  0  0  0  0
    8.8535  -13.6065   28.5965 O   0  0  0  0  0  0  0  0  0  0  0  0
  2  1  1  0
  2  4  1  0
  3  2  2  0
  5  4  1  0
  6  5  1  0
  6  7  1  1
  8  9  2  0
  8  6  1  0
 10  8  1  0
 11 10  1  0
 11 12  1  6
 13 14  1  0
 13 12  1  0
 14 15  2  0
 16 11  1  0
 16 17  2  0
 18 14  1  0
 19 16  1  0
 20 21  1  0
 20 19  1  0
 22 21  1  0
 22 23  1  0
 23 19  1  0
 23 24  1  1
 25 24  1  0
 26 24  2  0
M  END
$$$$
