QEP.pdb
     RDKit          3D

 26 26  0  0  1  0  0  0  0  0999 V2000
   11.5360  -14.6345   18.4247 N   0  0  0  0  0  0  0  0  0  0  0  0
   11.1762  -13.5425   19.2399 C   0  0  0  0  0  0  0  0  0  0  0  0
   11.9347  -13.2145   20.1815 O   0  0  0  0  0  0  0  0  0  0  0  0
    9.9243  -12.8043   18.9793 C   0  0  0  0  0  0  0  0  0  0  0  0
    8.8396  -13.0330   19.9762 C   0  0  0  0  0  0  0  0  0  0  0  0
    8.3308  -14.4342   20.0367 C   0  0  2  0  0  0  0  0  0  0  0  0
    7.3703  -14.6104   18.9396 N   0  0  0  0  0  0  0  0  0  0  0  0
    7.6133  -14.6667   21.3249 C   0  0  0  0  0  0  0  0  0  0  0  0
    6.3711  -14.4215   21.3844 O   0  0  0  0  0  0  0  0  0  0  0  0
    8.3200  -15.1565   22.4652 N   0  0  0  0  0  0  0  0  0  0  0  0
    7.6744  -15.3883   23.7284 C   0  0  1  0  0  0  0  0  0  0  0  0
    7.7629  -16.8906   23.9471 C   0  0  0  0  0  0  0  0  0  0  0  0
    7.0070  -17.3421   25.1254 C   0  0  0  0  0  0  0  0  0  0  0  0
    7.1221  -18.7882   25.4302 C   0  0  0  0  0  0  0  0  0  0  0  0
    6.1558  -19.5652   25.3395 O   0  0  0  0  0  0  0  0  0  0  0  0
    8.1467  -14.6861   24.8906 C   0  0  0  0  0  0  0  0  0  0  0  0
    9.3228  -14.9484   25.3440 O   0  0  0  0  0  0  0  0  0  0  0  0
    8.3506  -19.3406   25.8398 O   0  0  0  0  0  0  0  0  0  0  0  0
    7.4405  -13.6760   25.6547 N   0  0  0  0  0  0  0  0  0  0  0  0
    6.1303  -13.2299   25.3389 C   0  0  0  0  0  0  0  0  0  0  0  0
    5.6930  -12.3076   26.4396 C   0  0  0  0  0  0  0  0  0  0  0  0
    6.7693  -12.3735   27.4742 C   0  0  0  0  0  0  0  0  0  0  0  0
    7.9556  -12.9980   26.8029 C   0  0  1  0  0  0  0  0  0  0  0  0
    8.5989  -13.8945   27.8055 C   0  0  0  0  0  0  0  0  0  0  0  0
    8.5577  -15.2715   27.7808 O   0  0  0  0  0  0  0  0  0  0  0  0
    9.2237  -13.3381   28.7434 O   0  0  0  0  0  0  0  0  0  0  0  0
  2  1  1  0
  2  4  1  0
  3  2  2  0
  5  4  1  0
  6  5  1  0
  6  7  1  6
  8  9  2  0
  8  6  1  0
 10  8  1  0
 11 10  1  0
 11 12  1  1
 13 14  1  0
 13 12  1  0
 14 15  2  0
 16 11  1  0
 16 17  2  0
 18 14  1  0
 19 16  1  0
 20 21  1  0
 20 19  1  0
 22 21  1  0
 22 23  1  0
 23 19  1  0
 23 24  1  1
 25 24  1  0
 26 24  2  0
M  END
$$$$
