QEP.pdb
     RDKit          3D

 26 26  0  0  1  0  0  0  0  0999 V2000
    8.7733  -12.4107   18.3993 N   0  0  0  0  0  0  0  0  0  0  0  0
    8.3781  -13.5528   17.6741 C   0  0  0  0  0  0  0  0  0  0  0  0
    8.1092  -13.4331   16.4564 O   0  0  0  0  0  0  0  0  0  0  0  0
    8.2863  -14.8632   18.3481 C   0  0  0  0  0  0  0  0  0  0  0  0
    8.5700  -14.8395   19.8116 C   0  0  0  0  0  0  0  0  0  0  0  0
    8.3883  -16.1477   20.5054 C   0  0  2  0  0  0  0  0  0  0  0  0
    7.6277  -17.0288   19.6095 N   0  0  0  0  0  0  0  0  0  0  0  0
    7.5964  -15.9616   21.7570 C   0  0  0  0  0  0  0  0  0  0  0  0
    6.3320  -15.9191   21.6786 O   0  0  0  0  0  0  0  0  0  0  0  0
    8.2583  -15.8343   23.0162 N   0  0  0  0  0  0  0  0  0  0  0  0
    7.5436  -15.5872   24.2387 C   0  0  1  0  0  0  0  0  0  0  0  0
    7.2293  -16.9660   24.7978 C   0  0  0  0  0  0  0  0  0  0  0  0
    7.3787  -18.0355   23.7990 C   0  0  0  0  0  0  0  0  0  0  0  0
    7.8146  -19.3449   24.3400 C   0  0  0  0  0  0  0  0  0  0  0  0
    7.4791  -19.7420   25.4694 O   0  0  0  0  0  0  0  0  0  0  0  0
    8.1548  -14.7667   25.2485 C   0  0  0  0  0  0  0  0  0  0  0  0
    9.3523  -15.0392   25.6348 O   0  0  0  0  0  0  0  0  0  0  0  0
    8.6375  -20.1982   23.5804 O   0  0  0  0  0  0  0  0  0  0  0  0
    7.5733  -13.6207   25.9207 N   0  0  0  0  0  0  0  0  0  0  0  0
    6.3415  -13.0295   25.5353 C   0  0  0  0  0  0  0  0  0  0  0  0
    6.0076  -11.9820   26.5574 C   0  0  0  0  0  0  0  0  0  0  0  0
    7.0428  -12.1156   27.6267 C   0  0  0  0  0  0  0  0  0  0  0  0
    8.1494  -12.9368   27.0360 C   0  0  1  0  0  0  0  0  0  0  0  0
    8.6454  -13.8369   28.1161 C   0  0  0  0  0  0  0  0  0  0  0  0
    9.3939  -13.4368   29.2014 O   0  0  0  0  0  0  0  0  0  0  0  0
    8.3525  -15.0551   28.0162 O   0  0  0  0  0  0  0  0  0  0  0  0
  2  1  1  0
  2  4  1  0
  3  2  2  0
  5  4  1  0
  6  5  1  0
  6  7  1  6
  8  9  2  0
  8  6  1  0
 10  8  1  0
 11 10  1  0
 11 12  1  1
 13 14  1  0
 13 12  1  0
 14 15  2  0
 16 11  1  0
 16 17  2  0
 18 14  1  0
 19 16  1  0
 20 21  1  0
 20 19  1  0
 22 21  1  0
 22 23  1  0
 23 19  1  0
 23 24  1  1
 25 24  1  0
 26 24  2  0
M  END
$$$$
