QEP.pdb
     RDKit          3D

 26 26  0  0  1  0  0  0  0  0999 V2000
    7.3373  -13.1509   17.5658 N   0  0  0  0  0  0  0  0  0  0  0  0
    8.6700  -13.6037   17.4929 C   0  0  0  0  0  0  0  0  0  0  0  0
    9.2486  -13.6052   16.3817 O   0  0  0  0  0  0  0  0  0  0  0  0
    9.3631  -14.0658   18.7119 C   0  0  0  0  0  0  0  0  0  0  0  0
    8.5208  -14.0960   19.9417 C   0  0  0  0  0  0  0  0  0  0  0  0
    8.3043  -15.4548   20.5185 C   0  0  2  0  0  0  0  0  0  0  0  0
    7.3965  -16.1831   19.6226 N   0  0  0  0  0  0  0  0  0  0  0  0
    7.6510  -15.3484   21.8565 C   0  0  0  0  0  0  0  0  0  0  0  0
    6.4839  -14.8592   21.9286 O   0  0  0  0  0  0  0  0  0  0  0  0
    8.3345  -15.7919   23.0295 N   0  0  0  0  0  0  0  0  0  0  0  0
    7.7579  -15.6850   24.3418 C   0  0  1  0  0  0  0  0  0  0  0  0
    7.6622  -17.1155   24.8487 C   0  0  0  0  0  0  0  0  0  0  0  0
    6.6733  -17.9179   24.1125 C   0  0  0  0  0  0  0  0  0  0  0  0
    6.5712  -19.3345   24.5367 C   0  0  0  0  0  0  0  0  0  0  0  0
    5.4857  -19.9392   24.5774 O   0  0  0  0  0  0  0  0  0  0  0  0
    8.4026  -14.8512   25.3195 C   0  0  0  0  0  0  0  0  0  0  0  0
    9.6394  -15.0656   25.6056 O   0  0  0  0  0  0  0  0  0  0  0  0
    7.7197  -20.0559   24.9146 O   0  0  0  0  0  0  0  0  0  0  0  0
    7.8164  -13.7509   26.0603 N   0  0  0  0  0  0  0  0  0  0  0  0
    6.6429  -13.0669   25.6475 C   0  0  0  0  0  0  0  0  0  0  0  0
    6.2720  -12.1108   26.7437 C   0  0  0  0  0  0  0  0  0  0  0  0
    7.2145  -12.3981   27.8672 C   0  0  0  0  0  0  0  0  0  0  0  0
    8.3303  -13.2084   27.2790 C   0  0  1  0  0  0  0  0  0  0  0  0
    8.7044  -14.2332   28.2952 C   0  0  0  0  0  0  0  0  0  0  0  0
    9.4057  -13.9824   29.4544 O   0  0  0  0  0  0  0  0  0  0  0  0
    8.3476  -15.4159   28.0638 O   0  0  0  0  0  0  0  0  0  0  0  0
  2  1  1  0
  2  4  1  0
  3  2  2  0
  5  4  1  0
  6  5  1  0
  6  7  1  6
  8  9  2  0
  8  6  1  0
 10  8  1  0
 11 10  1  0
 11 12  1  1
 13 14  1  0
 13 12  1  0
 14 15  2  0
 16 11  1  0
 16 17  2  0
 18 14  1  0
 19 16  1  0
 20 21  1  0
 20 19  1  0
 22 21  1  0
 22 23  1  0
 23 19  1  0
 23 24  1  1
 25 24  1  0
 26 24  2  0
M  END
$$$$
