QEP.pdb
     RDKit          3D

 26 26  0  0  1  0  0  0  0  0999 V2000
    8.8851  -12.0717   19.5849 N   0  0  0  0  0  0  0  0  0  0  0  0
    8.6422  -13.2241   18.8107 C   0  0  0  0  0  0  0  0  0  0  0  0
    9.1414  -13.2989   17.6640 O   0  0  0  0  0  0  0  0  0  0  0  0
    7.8125  -14.3189   19.3518 C   0  0  0  0  0  0  0  0  0  0  0  0
    8.5759  -15.4437   19.9640 C   0  0  0  0  0  0  0  0  0  0  0  0
    7.7329  -16.5287   20.5455 C   0  0  2  0  0  0  0  0  0  0  0  0
    6.5796  -16.7255   19.6576 N   0  0  0  0  0  0  0  0  0  0  0  0
    7.2222  -16.1211   21.8877 C   0  0  0  0  0  0  0  0  0  0  0  0
    6.0603  -15.6217   21.9727 O   0  0  0  0  0  0  0  0  0  0  0  0
    8.0336  -16.2937   23.0502 N   0  0  0  0  0  0  0  0  0  0  0  0
    7.5175  -16.1195   24.3805 C   0  0  1  0  0  0  0  0  0  0  0  0
    7.5647  -17.5046   25.0066 C   0  0  0  0  0  0  0  0  0  0  0  0
    6.9142  -17.5584   26.3248 C   0  0  0  0  0  0  0  0  0  0  0  0
    6.9873  -18.8713   27.0090 C   0  0  0  0  0  0  0  0  0  0  0  0
    6.0342  -19.3362   27.6580 O   0  0  0  0  0  0  0  0  0  0  0  0
    8.1409  -15.1580   25.2486 C   0  0  0  0  0  0  0  0  0  0  0  0
    9.3842  -15.3023   25.5504 O   0  0  0  0  0  0  0  0  0  0  0  0
    8.1585  -19.6500   26.9463 O   0  0  0  0  0  0  0  0  0  0  0  0
    7.5257  -13.9945   25.8575 N   0  0  0  0  0  0  0  0  0  0  0  0
    6.1944  -13.5821   25.5876 C   0  0  0  0  0  0  0  0  0  0  0  0
    5.8802  -12.4451   26.5160 C   0  0  0  0  0  0  0  0  0  0  0  0
    7.0556  -12.3341   27.4321 C   0  0  0  0  0  0  0  0  0  0  0  0
    8.1614  -13.1156   26.7885 C   0  0  1  0  0  0  0  0  0  0  0  0
    8.8950  -13.8115   27.8841 C   0  0  0  0  0  0  0  0  0  0  0  0
    8.7130  -15.1273   28.2503 O   0  0  0  0  0  0  0  0  0  0  0  0
    9.7425  -13.1330   28.5174 O   0  0  0  0  0  0  0  0  0  0  0  0
  2  1  1  0
  2  4  1  0
  3  2  2  0
  5  4  1  0
  6  5  1  0
  6  7  1  6
  8  9  2  0
  8  6  1  0
 10  8  1  0
 11 10  1  0
 11 12  1  1
 13 14  1  0
 13 12  1  0
 14 15  2  0
 16 11  1  0
 16 17  2  0
 18 14  1  0
 19 16  1  0
 20 21  1  0
 20 19  1  0
 22 21  1  0
 22 23  1  0
 23 19  1  0
 23 24  1  1
 25 24  1  0
 26 24  2  0
M  END
$$$$
