QEP.pdb
     RDKit          3D

 26 26  0  0  1  0  0  0  0  0999 V2000
    8.0762  -15.8127   17.6127 N   0  0  0  0  0  0  0  0  0  0  0  0
    8.0980  -14.5269   17.0359 C   0  0  0  0  0  0  0  0  0  0  0  0
    8.3933  -14.4124   15.8238 O   0  0  0  0  0  0  0  0  0  0  0  0
    7.7761  -13.3418   17.8556 C   0  0  0  0  0  0  0  0  0  0  0  0
    7.2740  -13.6425   19.2268 C   0  0  0  0  0  0  0  0  0  0  0  0
    8.1672  -13.1907   20.3332 C   0  0  2  0  0  0  0  0  0  0  0  0
    9.5418  -13.5728   19.9845 N   0  0  0  0  0  0  0  0  0  0  0  0
    7.8011  -13.8805   21.6053 C   0  0  0  0  0  0  0  0  0  0  0  0
    6.6468  -13.6893   22.0929 O   0  0  0  0  0  0  0  0  0  0  0  0
    8.7394  -14.7389   22.2554 N   0  0  0  0  0  0  0  0  0  0  0  0
    8.4847  -15.3189   23.5457 C   0  0  1  0  0  0  0  0  0  0  0  0
    9.2252  -16.6470   23.5346 C   0  0  0  0  0  0  0  0  0  0  0  0
    8.8918  -17.4970   24.6878 C   0  0  0  0  0  0  0  0  0  0  0  0
    9.6184  -18.7876   24.7488 C   0  0  0  0  0  0  0  0  0  0  0  0
    9.5662  -19.5331   25.7425 O   0  0  0  0  0  0  0  0  0  0  0  0
    8.8226  -14.5690   24.7248 C   0  0  0  0  0  0  0  0  0  0  0  0
   10.0156  -14.6569   25.2007 O   0  0  0  0  0  0  0  0  0  0  0  0
   10.4058  -19.2208   23.6651 O   0  0  0  0  0  0  0  0  0  0  0  0
    7.9570  -13.6871   25.4838 N   0  0  0  0  0  0  0  0  0  0  0  0
    6.6648  -13.2931   25.0473 C   0  0  0  0  0  0  0  0  0  0  0  0
    6.0316  -12.5160   26.1647 C   0  0  0  0  0  0  0  0  0  0  0  0
    6.9778  -12.6199   27.3167 C   0  0  0  0  0  0  0  0  0  0  0  0
    8.2790  -13.0985   26.7461 C   0  0  1  0  0  0  0  0  0  0  0  0
    8.8617  -14.0507   27.7344 C   0  0  0  0  0  0  0  0  0  0  0  0
    9.5199  -13.6909   28.8901 O   0  0  0  0  0  0  0  0  0  0  0  0
    8.7377  -15.2754   27.4810 O   0  0  0  0  0  0  0  0  0  0  0  0
  2  1  1  0
  2  4  1  0
  3  2  2  0
  5  4  1  0
  6  5  1  0
  6  7  1  6
  8  9  2  0
  8  6  1  0
 10  8  1  0
 11 10  1  0
 11 12  1  6
 13 14  1  0
 13 12  1  0
 14 15  2  0
 16 11  1  0
 16 17  2  0
 18 14  1  0
 19 16  1  0
 20 21  1  0
 20 19  1  0
 22 21  1  0
 22 23  1  0
 23 19  1  0
 23 24  1  1
 25 24  1  0
 26 24  2  0
M  END
$$$$
