QEP.pdb
     RDKit          3D

 26 26  0  0  1  0  0  0  0  0999 V2000
   10.0619  -12.1893   18.5892 N   0  0  0  0  0  0  0  0  0  0  0  0
    8.8076  -12.5434   18.0528 C   0  0  0  0  0  0  0  0  0  0  0  0
    8.4559  -12.0471   16.9576 O   0  0  0  0  0  0  0  0  0  0  0  0
    7.9309  -13.4847   18.7777 C   0  0  0  0  0  0  0  0  0  0  0  0
    8.4277  -13.9005   20.1205 C   0  0  0  0  0  0  0  0  0  0  0  0
    8.4070  -15.3718   20.3672 C   0  0  2  0  0  0  0  0  0  0  0  0
    7.4232  -15.9662   19.4528 N   0  0  0  0  0  0  0  0  0  0  0  0
    7.9708  -15.6535   21.7667 C   0  0  0  0  0  0  0  0  0  0  0  0
    6.7330  -15.7864   22.0050 O   0  0  0  0  0  0  0  0  0  0  0  0
    8.9362  -15.7699   22.8127 N   0  0  0  0  0  0  0  0  0  0  0  0
    8.5614  -15.9779   24.1848 C   0  0  1  0  0  0  0  0  0  0  0  0
    9.1580  -17.3263   24.5568 C   0  0  0  0  0  0  0  0  0  0  0  0
    8.5566  -18.4427   23.8113 C   0  0  0  0  0  0  0  0  0  0  0  0
    9.1543  -19.7724   24.0795 C   0  0  0  0  0  0  0  0  0  0  0  0
    9.7801  -20.4065   23.2123 O   0  0  0  0  0  0  0  0  0  0  0  0
    8.9203  -14.9867   25.1622 C   0  0  0  0  0  0  0  0  0  0  0  0
   10.1177  -14.9804   25.6352 O   0  0  0  0  0  0  0  0  0  0  0  0
    9.0316  -20.3729   25.3469 O   0  0  0  0  0  0  0  0  0  0  0  0
    8.0725  -13.9461   25.7113 N   0  0  0  0  0  0  0  0  0  0  0  0
    6.8105  -13.5952   25.1639 C   0  0  0  0  0  0  0  0  0  0  0  0
    6.1805  -12.5981   26.0925 C   0  0  0  0  0  0  0  0  0  0  0  0
    7.0898  -12.5162   27.2755 C   0  0  0  0  0  0  0  0  0  0  0  0
    8.3846  -13.1412   26.8506 C   0  0  1  0  0  0  0  0  0  0  0  0
    8.8995  -13.9095   28.0201 C   0  0  0  0  0  0  0  0  0  0  0  0
    8.8686  -15.2813   28.1443 O   0  0  0  0  0  0  0  0  0  0  0  0
    9.3970  -13.2413   28.9611 O   0  0  0  0  0  0  0  0  0  0  0  0
  2  1  1  0
  2  4  1  0
  3  2  2  0
  5  4  1  0
  6  5  1  0
  6  7  1  6
  8  9  2  0
  8  6  1  0
 10  8  1  0
 11 10  1  0
 11 12  1  1
 13 14  1  0
 13 12  1  0
 14 15  2  0
 16 11  1  0
 16 17  2  0
 18 14  1  0
 19 16  1  0
 20 21  1  0
 20 19  1  0
 22 21  1  0
 22 23  1  0
 23 19  1  0
 23 24  1  1
 25 24  1  0
 26 24  2  0
M  END
$$$$
