QEP.pdb
     RDKit          3D

 26 26  0  0  1  0  0  0  0  0999 V2000
   12.4710  -15.5357   19.7850 N   0  0  0  0  0  0  0  0  0  0  0  0
   12.2428  -14.1469   19.7109 C   0  0  0  0  0  0  0  0  0  0  0  0
   13.2269  -13.3751   19.6370 O   0  0  0  0  0  0  0  0  0  0  0  0
   10.8631  -13.6212   19.7205 C   0  0  0  0  0  0  0  0  0  0  0  0
    9.7942  -14.6598   19.7606 C   0  0  0  0  0  0  0  0  0  0  0  0
    8.4015  -14.1253   19.7394 C   0  0  2  0  0  0  0  0  0  0  0  0
    8.4622  -12.7333   19.2747 N   0  0  0  0  0  0  0  0  0  0  0  0
    7.8262  -14.1311   21.1168 C   0  0  0  0  0  0  0  0  0  0  0  0
    6.9150  -13.2971   21.4011 O   0  0  0  0  0  0  0  0  0  0  0  0
    8.2988  -15.0623   22.0911 N   0  0  0  0  0  0  0  0  0  0  0  0
    7.6451  -15.2473   23.3579 C   0  0  1  0  0  0  0  0  0  0  0  0
    7.5839  -16.7541   23.5541 C   0  0  0  0  0  0  0  0  0  0  0  0
    6.8565  -17.1429   24.7720 C   0  0  0  0  0  0  0  0  0  0  0  0
    6.7676  -18.6028   25.0124 C   0  0  0  0  0  0  0  0  0  0  0  0
    5.7136  -19.1533   25.3755 O   0  0  0  0  0  0  0  0  0  0  0  0
    8.1967  -14.6142   24.5248 C   0  0  0  0  0  0  0  0  0  0  0  0
    9.3981  -14.9052   24.8846 O   0  0  0  0  0  0  0  0  0  0  0  0
    7.8927  -19.4302   24.8348 O   0  0  0  0  0  0  0  0  0  0  0  0
    7.5484  -13.6475   25.3898 N   0  0  0  0  0  0  0  0  0  0  0  0
    6.2491  -13.1289   25.1481 C   0  0  0  0  0  0  0  0  0  0  0  0
    5.8741  -12.2881   26.3338 C   0  0  0  0  0  0  0  0  0  0  0  0
    6.9716  -12.4806   27.3297 C   0  0  0  0  0  0  0  0  0  0  0  0
    8.1165  -13.0886   26.5765 C   0  0  1  0  0  0  0  0  0  0  0  0
    8.7487  -14.0897   27.4825 C   0  0  0  0  0  0  0  0  0  0  0  0
    9.5263  -13.7882   28.5793 O   0  0  0  0  0  0  0  0  0  0  0  0
    8.5506  -15.3012   27.2129 O   0  0  0  0  0  0  0  0  0  0  0  0
  2  1  1  0
  2  4  1  0
  3  2  2  0
  5  4  1  0
  6  5  1  0
  6  7  1  1
  8  9  2  0
  8  6  1  0
 10  8  1  0
 11 10  1  0
 11 12  1  1
 13 14  1  0
 13 12  1  0
 14 15  2  0
 16 11  1  0
 16 17  2  0
 18 14  1  0
 19 16  1  0
 20 21  1  0
 20 19  1  0
 22 21  1  0
 22 23  1  0
 23 19  1  0
 23 24  1  1
 25 24  1  0
 26 24  2  0
M  END
$$$$
