QEP.pdb
     RDKit          3D

 26 26  0  0  1  0  0  0  0  0999 V2000
    9.4507  -13.7377   16.4370 N   0  0  0  0  0  0  0  0  0  0  0  0
    8.2324  -13.8541   17.1361 C   0  0  0  0  0  0  0  0  0  0  0  0
    7.4512  -14.7874   16.8391 O   0  0  0  0  0  0  0  0  0  0  0  0
    7.8929  -12.8872   18.1990 C   0  0  0  0  0  0  0  0  0  0  0  0
    7.4220  -13.4954   19.4761 C   0  0  0  0  0  0  0  0  0  0  0  0
    8.4285  -14.3501   20.1706 C   0  0  2  0  0  0  0  0  0  0  0  0
    8.5340  -15.6127   19.4277 N   0  0  0  0  0  0  0  0  0  0  0  0
    7.9706  -14.6629   21.5565 C   0  0  0  0  0  0  0  0  0  0  0  0
    6.7323  -14.5976   21.8193 O   0  0  0  0  0  0  0  0  0  0  0  0
    8.9161  -15.0281   22.5626 N   0  0  0  0  0  0  0  0  0  0  0  0
    8.5151  -15.4560   23.8751 C   0  0  1  0  0  0  0  0  0  0  0  0
    9.1414  -16.8305   24.0506 C   0  0  0  0  0  0  0  0  0  0  0  0
    8.6898  -17.7979   23.0388 C   0  0  0  0  0  0  0  0  0  0  0  0
    9.6985  -18.8084   22.6404 C   0  0  0  0  0  0  0  0  0  0  0  0
   10.2551  -18.7890   21.5288 O   0  0  0  0  0  0  0  0  0  0  0  0
    8.8220  -14.6200   25.0037 C   0  0  0  0  0  0  0  0  0  0  0  0
   10.0303  -14.5872   25.4468 O   0  0  0  0  0  0  0  0  0  0  0  0
   10.0669  -19.8423   23.5220 O   0  0  0  0  0  0  0  0  0  0  0  0
    7.9080  -13.7707   25.7428 N   0  0  0  0  0  0  0  0  0  0  0  0
    6.6238  -13.4002   25.2642 C   0  0  0  0  0  0  0  0  0  0  0  0
    5.9312  -12.6558   26.3686 C   0  0  0  0  0  0  0  0  0  0  0  0
    6.8363  -12.7557   27.5535 C   0  0  0  0  0  0  0  0  0  0  0  0
    8.1688  -13.1947   27.0249 C   0  0  1  0  0  0  0  0  0  0  0  0
    8.7372  -14.1484   28.0200 C   0  0  0  0  0  0  0  0  0  0  0  0
    9.3102  -13.7937   29.2218 O   0  0  0  0  0  0  0  0  0  0  0  0
    8.6851  -15.3695   27.7270 O   0  0  0  0  0  0  0  0  0  0  0  0
  2  1  1  0
  2  4  1  0
  3  2  2  0
  5  4  1  0
  6  5  1  0
  6  7  1  6
  8  9  2  0
  8  6  1  0
 10  8  1  0
 11 10  1  0
 11 12  1  1
 13 14  1  0
 13 12  1  0
 14 15  2  0
 16 11  1  0
 16 17  2  0
 18 14  1  0
 19 16  1  0
 20 21  1  0
 20 19  1  0
 22 21  1  0
 22 23  1  0
 23 19  1  0
 23 24  1  1
 25 24  1  0
 26 24  2  0
M  END
$$$$
