QEP.pdb
     RDKit          3D

 26 26  0  0  1  0  0  0  0  0999 V2000
    9.4908  -12.6524   18.7343 N   0  0  0  0  0  0  0  0  0  0  0  0
    8.5613  -13.4574   18.0456 C   0  0  0  0  0  0  0  0  0  0  0  0
    8.7993  -13.7747   16.8572 O   0  0  0  0  0  0  0  0  0  0  0  0
    7.3314  -13.9139   18.7230 C   0  0  0  0  0  0  0  0  0  0  0  0
    7.2853  -13.6491   20.1894 C   0  0  0  0  0  0  0  0  0  0  0  0
    8.3422  -14.3405   20.9836 C   0  0  2  0  0  0  0  0  0  0  0  0
    8.5251  -15.6822   20.4149 N   0  0  0  0  0  0  0  0  0  0  0  0
    7.9039  -14.4926   22.4024 C   0  0  0  0  0  0  0  0  0  0  0  0
    7.3652  -13.5036   22.9841 O   0  0  0  0  0  0  0  0  0  0  0  0
    8.0914  -15.7328   23.0856 N   0  0  0  0  0  0  0  0  0  0  0  0
    7.7525  -15.9056   24.4717 C   0  0  1  0  0  0  0  0  0  0  0  0
    7.4309  -17.3847   24.6180 C   0  0  0  0  0  0  0  0  0  0  0  0
    6.8679  -17.7198   25.9349 C   0  0  0  0  0  0  0  0  0  0  0  0
    6.8096  -19.1683   26.2439 C   0  0  0  0  0  0  0  0  0  0  0  0
    6.3188  -19.6031   27.3003 O   0  0  0  0  0  0  0  0  0  0  0  0
    8.6980  -15.4989   25.4754 C   0  0  0  0  0  0  0  0  0  0  0  0
    9.7785  -16.1817   25.6292 O   0  0  0  0  0  0  0  0  0  0  0  0
    7.3166  -20.1177   25.3363 O   0  0  0  0  0  0  0  0  0  0  0  0
    8.5896  -14.3699   26.3791 N   0  0  0  0  0  0  0  0  0  0  0  0
    7.4929  -13.4685   26.3770 C   0  0  0  0  0  0  0  0  0  0  0  0
    7.6709  -12.5430   27.5454 C   0  0  0  0  0  0  0  0  0  0  0  0
    8.8506  -13.0653   28.2993 C   0  0  0  0  0  0  0  0  0  0  0  0
    9.5535  -14.0104   27.3717 C   0  0  1  0  0  0  0  0  0  0  0  0
   10.0346  -15.1531   28.1997 C   0  0  0  0  0  0  0  0  0  0  0  0
    9.4901  -16.4188   28.1985 O   0  0  0  0  0  0  0  0  0  0  0  0
   11.0138  -14.9311   28.9557 O   0  0  0  0  0  0  0  0  0  0  0  0
  2  1  1  0
  2  4  1  0
  3  2  2  0
  5  4  1  0
  6  5  1  0
  6  7  1  6
  8  9  2  0
  8  6  1  0
 10  8  1  0
 11 10  1  0
 11 12  1  6
 13 14  1  0
 13 12  1  0
 14 15  2  0
 16 11  1  0
 16 17  2  0
 18 14  1  0
 19 16  1  0
 20 21  1  0
 20 19  1  0
 22 21  1  0
 22 23  1  0
 23 19  1  0
 23 24  1  1
 25 24  1  0
 26 24  2  0
M  END
$$$$
