QEP.pdb
     RDKit          3D

 26 26  0  0  1  0  0  0  0  0999 V2000
    7.0019  -15.2258   17.3428 N   0  0  0  0  0  0  0  0  0  0  0  0
    7.6680  -14.0688   16.8909 C   0  0  0  0  0  0  0  0  0  0  0  0
    7.9966  -13.9923   15.6843 O   0  0  0  0  0  0  0  0  0  0  0  0
    7.9681  -12.9715   17.8319 C   0  0  0  0  0  0  0  0  0  0  0  0
    7.4935  -13.1921   19.2279 C   0  0  0  0  0  0  0  0  0  0  0  0
    8.5680  -13.1822   20.2630 C   0  0  2  0  0  0  0  0  0  0  0  0
    9.6299  -14.0930   19.8160 N   0  0  0  0  0  0  0  0  0  0  0  0
    8.0365  -13.6895   21.5623 C   0  0  0  0  0  0  0  0  0  0  0  0
    7.0570  -13.0886   22.0974 O   0  0  0  0  0  0  0  0  0  0  0  0
    8.6259  -14.8315   22.1853 N   0  0  0  0  0  0  0  0  0  0  0  0
    8.1524  -15.3536   23.4382 C   0  0  1  0  0  0  0  0  0  0  0  0
    8.5330  -16.8258   23.4214 C   0  0  0  0  0  0  0  0  0  0  0  0
    7.9049  -17.5660   22.3165 C   0  0  0  0  0  0  0  0  0  0  0  0
    8.2945  -18.9925   22.2133 C   0  0  0  0  0  0  0  0  0  0  0  0
    9.4761  -19.3492   22.0636 O   0  0  0  0  0  0  0  0  0  0  0  0
    8.5938  -14.7379   24.6600 C   0  0  0  0  0  0  0  0  0  0  0  0
    9.7446  -15.0576   25.1406 O   0  0  0  0  0  0  0  0  0  0  0  0
    7.3234  -20.0094   22.2826 O   0  0  0  0  0  0  0  0  0  0  0  0
    7.8807  -13.7605   25.4594 N   0  0  0  0  0  0  0  0  0  0  0  0
    6.7036  -13.0993   25.0203 C   0  0  0  0  0  0  0  0  0  0  0  0
    6.1848  -12.2928   26.1753 C   0  0  0  0  0  0  0  0  0  0  0  0
    7.0491  -12.6520   27.3402 C   0  0  0  0  0  0  0  0  0  0  0  0
    8.2583  -13.3300   26.7693 C   0  0  1  0  0  0  0  0  0  0  0  0
    8.6128  -14.4399   27.6996 C   0  0  0  0  0  0  0  0  0  0  0  0
    8.3486  -15.7743   27.4803 O   0  0  0  0  0  0  0  0  0  0  0  0
    9.1967  -14.1198   28.7655 O   0  0  0  0  0  0  0  0  0  0  0  0
  2  1  1  0
  2  4  1  0
  3  2  2  0
  5  4  1  0
  6  5  1  0
  6  7  1  6
  8  9  2  0
  8  6  1  0
 10  8  1  0
 11 10  1  0
 11 12  1  1
 13 14  1  0
 13 12  1  0
 14 15  2  0
 16 11  1  0
 16 17  2  0
 18 14  1  0
 19 16  1  0
 20 21  1  0
 20 19  1  0
 22 21  1  0
 22 23  1  0
 23 19  1  0
 23 24  1  1
 25 24  1  0
 26 24  2  0
M  END
$$$$
