QEP.pdb
     RDKit          3D

 26 26  0  0  1  0  0  0  0  0999 V2000
    9.5868  -14.1860   16.9743 N   0  0  0  0  0  0  0  0  0  0  0  0
    8.2196  -14.4557   17.1850 C   0  0  0  0  0  0  0  0  0  0  0  0
    7.6392  -15.2671   16.4272 O   0  0  0  0  0  0  0  0  0  0  0  0
    7.4935  -13.7881   18.2837 C   0  0  0  0  0  0  0  0  0  0  0  0
    8.2491  -12.7001   18.9676 C   0  0  0  0  0  0  0  0  0  0  0  0
    9.1447  -13.1575   20.0698 C   0  0  2  0  0  0  0  0  0  0  0  0
    9.8304  -14.3741   19.6149 N   0  0  0  0  0  0  0  0  0  0  0  0
    8.3395  -13.5019   21.2786 C   0  0  0  0  0  0  0  0  0  0  0  0
    7.4257  -12.7060   21.6503 O   0  0  0  0  0  0  0  0  0  0  0  0
    8.5998  -14.7078   21.9982 N   0  0  0  0  0  0  0  0  0  0  0  0
    7.9106  -15.0407   23.2150 C   0  0  1  0  0  0  0  0  0  0  0  0
    7.9043  -16.5607   23.2619 C   0  0  0  0  0  0  0  0  0  0  0  0
    7.0673  -17.1614   22.2121 C   0  0  0  0  0  0  0  0  0  0  0  0
    7.1567  -18.6371   22.1041 C   0  0  0  0  0  0  0  0  0  0  0  0
    6.5392  -19.3978   22.8694 O   0  0  0  0  0  0  0  0  0  0  0  0
    8.3950  -14.5051   24.4581 C   0  0  0  0  0  0  0  0  0  0  0  0
    9.5664  -14.8445   24.8705 O   0  0  0  0  0  0  0  0  0  0  0  0
    7.9575  -19.2379   21.1142 O   0  0  0  0  0  0  0  0  0  0  0  0
    7.7063  -13.5920   25.3497 N   0  0  0  0  0  0  0  0  0  0  0  0
    6.4755  -12.9624   25.0268 C   0  0  0  0  0  0  0  0  0  0  0  0
    6.0133  -12.2268   26.2510 C   0  0  0  0  0  0  0  0  0  0  0  0
    6.9746  -12.5981   27.3332 C   0  0  0  0  0  0  0  0  0  0  0  0
    8.1632  -13.2013   26.6467 C   0  0  1  0  0  0  0  0  0  0  0  0
    8.6276  -14.3333   27.4986 C   0  0  0  0  0  0  0  0  0  0  0  0
    9.3808  -14.2066   28.6453 O   0  0  0  0  0  0  0  0  0  0  0  0
    8.3014  -15.4897   27.1298 O   0  0  0  0  0  0  0  0  0  0  0  0
  2  1  1  0
  2  4  1  0
  3  2  2  0
  5  4  1  0
  6  5  1  0
  6  7  1  6
  8  9  2  0
  8  6  1  0
 10  8  1  0
 11 10  1  0
 11 12  1  1
 13 14  1  0
 13 12  1  0
 14 15  2  0
 16 11  1  0
 16 17  2  0
 18 14  1  0
 19 16  1  0
 20 21  1  0
 20 19  1  0
 22 21  1  0
 22 23  1  0
 23 19  1  0
 23 24  1  1
 25 24  1  0
 26 24  2  0
M  END
$$$$
