QEP.pdb
     RDKit          3D

 26 26  0  0  1  0  0  0  0  0999 V2000
   10.7695  -13.0085   19.3368 N   0  0  0  0  0  0  0  0  0  0  0  0
    9.5563  -13.3054   18.6837 C   0  0  0  0  0  0  0  0  0  0  0  0
    9.5938  -13.8415   17.5521 O   0  0  0  0  0  0  0  0  0  0  0  0
    8.2687  -12.9861   19.3318 C   0  0  0  0  0  0  0  0  0  0  0  0
    7.3191  -14.1301   19.4425 C   0  0  0  0  0  0  0  0  0  0  0  0
    7.8421  -15.3066   20.1962 C   0  0  2  0  0  0  0  0  0  0  0  0
    7.4175  -16.5197   19.4853 N   0  0  0  0  0  0  0  0  0  0  0  0
    7.2550  -15.3421   21.5682 C   0  0  0  0  0  0  0  0  0  0  0  0
    6.0114  -15.1387   21.7053 O   0  0  0  0  0  0  0  0  0  0  0  0
    8.0856  -15.6009   22.7009 N   0  0  0  0  0  0  0  0  0  0  0  0
    7.5597  -15.6873   24.0359 C   0  0  1  0  0  0  0  0  0  0  0  0
    7.7125  -17.1490   24.4265 C   0  0  0  0  0  0  0  0  0  0  0  0
    7.0362  -17.4765   25.6910 C   0  0  0  0  0  0  0  0  0  0  0  0
    7.1935  -18.8793   26.1434 C   0  0  0  0  0  0  0  0  0  0  0  0
    6.7409  -19.2818   27.2292 O   0  0  0  0  0  0  0  0  0  0  0  0
    8.1096  -14.8378   25.0569 C   0  0  0  0  0  0  0  0  0  0  0  0
    9.3433  -14.9848   25.3945 O   0  0  0  0  0  0  0  0  0  0  0  0
    7.8722  -19.8199   25.3454 O   0  0  0  0  0  0  0  0  0  0  0  0
    7.4266  -13.7899   25.7907 N   0  0  0  0  0  0  0  0  0  0  0  0
    6.0800  -13.4131   25.5455 C   0  0  0  0  0  0  0  0  0  0  0  0
    5.6942  -12.4162   26.5994 C   0  0  0  0  0  0  0  0  0  0  0  0
    6.8486  -12.3616   27.5467 C   0  0  0  0  0  0  0  0  0  0  0  0
    8.0025  -13.0025   26.8356 C   0  0  1  0  0  0  0  0  0  0  0  0
    8.7545  -13.7915   27.8529 C   0  0  0  0  0  0  0  0  0  0  0  0
    8.7469  -15.1654   27.9561 O   0  0  0  0  0  0  0  0  0  0  0  0
    9.4448  -13.1401   28.6768 O   0  0  0  0  0  0  0  0  0  0  0  0
  2  1  1  0
  2  4  1  0
  3  2  2  0
  5  4  1  0
  6  5  1  0
  6  7  1  6
  8  9  2  0
  8  6  1  0
 10  8  1  0
 11 10  1  0
 11 12  1  1
 13 14  1  0
 13 12  1  0
 14 15  2  0
 16 11  1  0
 16 17  2  0
 18 14  1  0
 19 16  1  0
 20 21  1  0
 20 19  1  0
 22 21  1  0
 22 23  1  0
 23 19  1  0
 23 24  1  1
 25 24  1  0
 26 24  2  0
M  END
$$$$
