QEP.pdb
     RDKit          3D

 26 26  0  0  1  0  0  0  0  0999 V2000
   10.0016  -13.8915   17.7100 N   0  0  0  0  0  0  0  0  0  0  0  0
    8.7080  -13.3320   17.7021 C   0  0  0  0  0  0  0  0  0  0  0  0
    8.3291  -12.6983   16.6900 O   0  0  0  0  0  0  0  0  0  0  0  0
    7.8226  -13.4965   18.8721 C   0  0  0  0  0  0  0  0  0  0  0  0
    8.4421  -14.1897   20.0376 C   0  0  0  0  0  0  0  0  0  0  0  0
    7.7946  -15.4799   20.4146 C   0  0  2  0  0  0  0  0  0  0  0  0
    6.6620  -15.6962   19.5049 N   0  0  0  0  0  0  0  0  0  0  0  0
    7.2640  -15.4025   21.8077 C   0  0  0  0  0  0  0  0  0  0  0  0
    6.0733  -15.0060   21.9860 O   0  0  0  0  0  0  0  0  0  0  0  0
    8.0886  -15.7699   22.9144 N   0  0  0  0  0  0  0  0  0  0  0  0
    7.5946  -15.8014   24.2639 C   0  0  1  0  0  0  0  0  0  0  0  0
    7.5856  -17.2731   24.6468 C   0  0  0  0  0  0  0  0  0  0  0  0
    6.8767  -17.5310   25.9095 C   0  0  0  0  0  0  0  0  0  0  0  0
    6.9286  -18.9340   26.3848 C   0  0  0  0  0  0  0  0  0  0  0  0
    6.8002  -19.9015   25.6146 O   0  0  0  0  0  0  0  0  0  0  0  0
    8.2696  -15.0281   25.2704 C   0  0  0  0  0  0  0  0  0  0  0  0
    9.4919  -15.3103   25.5600 O   0  0  0  0  0  0  0  0  0  0  0  0
    7.1284  -19.2240   27.7479 O   0  0  0  0  0  0  0  0  0  0  0  0
    7.7303  -13.9221   26.0379 N   0  0  0  0  0  0  0  0  0  0  0  0
    6.4075  -13.4316   25.8801 C   0  0  0  0  0  0  0  0  0  0  0  0
    6.1810  -12.4007   26.9475 C   0  0  0  0  0  0  0  0  0  0  0  0
    7.3976  -12.4419   27.8143 C   0  0  0  0  0  0  0  0  0  0  0  0
    8.4413  -13.1829   27.0337 C   0  0  1  0  0  0  0  0  0  0  0  0
    9.1902  -14.0295   28.0059 C   0  0  0  0  0  0  0  0  0  0  0  0
   10.1075  -13.5634   28.9223 O   0  0  0  0  0  0  0  0  0  0  0  0
    8.9590  -15.2645   27.9760 O   0  0  0  0  0  0  0  0  0  0  0  0
  2  1  1  0
  2  4  1  0
  3  2  2  0
  5  4  1  0
  6  5  1  0
  6  7  1  6
  8  9  2  0
  8  6  1  0
 10  8  1  0
 11 10  1  0
 11 12  1  1
 13 14  1  0
 13 12  1  0
 14 15  2  0
 16 11  1  0
 16 17  2  0
 18 14  1  0
 19 16  1  0
 20 21  1  0
 20 19  1  0
 22 21  1  0
 22 23  1  0
 23 19  1  0
 23 24  1  1
 25 24  1  0
 26 24  2  0
M  END
$$$$
