RFT.pdb
     RDKit          3D

 30 30  0  0  1  0  0  0  0  0999 V2000
   11.6773  -19.6613    6.8346 N   0  0  0  0  0  0  0  0  0  0  0  0
   10.9407  -20.6108    6.0702 C   0  0  0  0  0  0  0  0  0  0  0  0
    9.6753  -20.5222    6.0180 N   0  0  0  0  0  0  0  0  0  0  0  0
   11.6996  -21.6096    5.4059 N   0  0  0  0  0  0  0  0  0  0  0  0
   13.1448  -21.5651    5.4691 C   0  0  0  0  0  0  0  0  0  0  0  0
   13.6887  -20.5497    4.5100 C   0  0  0  0  0  0  0  0  0  0  0  0
   15.1781  -20.5453    4.3815 C   0  0  0  0  0  0  0  0  0  0  0  0
   15.6025  -19.4877    3.4018 C   0  0  2  0  0  0  0  0  0  0  0  0
   16.0739  -20.0515    2.1577 N   0  0  0  0  0  0  0  0  0  0  0  0
   16.7116  -18.6443    3.9565 C   0  0  0  0  0  0  0  0  0  0  0  0
   17.9241  -19.0292    3.8232 O   0  0  0  0  0  0  0  0  0  0  0  0
    9.1172  -21.1843    5.4394 N   0  0  0  0  0  0  0  0  0  0  0  0
   16.4920  -17.4264    4.6309 C   0  0  2  0  0  0  0  0  0  0  0  0
   17.6443  -16.6214    5.1321 C   0  0  0  0  0  0  0  0  0  0  0  0
   17.3763  -15.2150    4.6611 C   0  0  0  0  0  0  0  0  0  0  0  0
   18.3113  -14.1956    5.0907 C   0  0  0  0  0  0  0  0  0  0  0  0
   18.0311  -12.8498    5.0402 C   0  0  0  0  0  0  0  0  0  0  0  0
   18.9622  -11.8929    5.4510 C   0  0  0  0  0  0  0  0  0  0  0  0
   20.2018  -12.2619    5.9249 C   0  0  0  0  0  0  0  0  0  0  0  0
   20.4973  -13.6023    5.9822 C   0  0  0  0  0  0  0  0  0  0  0  0
   19.5819  -14.5361    5.5785 C   0  0  0  0  0  0  0  0  0  0  0  0
   17.5611  -16.6839    6.5932 O   0  0  0  0  0  0  0  0  0  0  0  0
   16.5484  -16.1626    7.1718 C   0  0  0  0  0  0  0  0  0  0  0  0
   17.0307  -19.3141    9.0069 C   0  0  2  0  0  0  0  0  0  0  0  0
   18.3355  -18.6780    9.3874 O   0  0  0  0  0  0  0  0  0  0  0  0
   19.4256  -19.3014    8.7659 C   0  0  2  0  0  0  0  0  0  0  0  0
   18.3632  -17.2227    8.9110 N   0  0  0  0  0  0  0  0  0  0  0  0
   18.5067  -17.2828    7.4621 C   0  0  0  0  0  0  0  0  0  0  0  0
   19.4402  -16.5345    9.5954 O   0  0  0  0  0  0  0  0  0  0  0  0
   19.2995  -16.1687   10.9213 O   0  0  0  0  0  0  0  0  0  0  0  0
  2  1  1  0
  3  2  2  0
  4  2  1  0
  5  4  1  0
  6  5  1  0
  7  6  1  0
  8  7  1  0
  8  9  1  6
 10 12  1  0
 10  8  1  0
 11 10  2  0
 13 21  1  0
 13 12  1  0
 13 14  1  6
 15 14  1  0
 16 15  2  0
 17 16  1  0
 18 19  1  0
 18 17  2  0
 19 20  2  0
 20 15  1  0
 21 27  1  0
 22 21  2  0
 24 25  1  0
 24 23  1  1
 24 26  1  0
 26 28  1  0
 26 27  1  1
 28 30  2  0
 28 29  1  0
M  END
$$$$
