RFT.pdb
     RDKit          3D

 30 30  0  0  1  0  0  0  0  0999 V2000
   26.4126  -16.3781  -14.1603 N   0  0  0  0  0  0  0  0  0  0  0  0
   27.3431  -16.7216  -15.1824 C   0  0  0  0  0  0  0  0  0  0  0  0
   27.8938  -15.7995  -15.8595 N   0  0  0  0  0  0  0  0  0  0  0  0
   27.5910  -18.1066  -15.3690 N   0  0  0  0  0  0  0  0  0  0  0  0
   27.2532  -19.0386  -14.3146 C   0  0  0  0  0  0  0  0  0  0  0  0
   28.4658  -19.7967  -13.8654 C   0  0  0  0  0  0  0  0  0  0  0  0
   28.9816  -19.4095  -12.5167 C   0  0  0  0  0  0  0  0  0  0  0  0
   29.1576  -20.6361  -11.6664 C   0  0  2  0  0  0  0  0  0  0  0  0
   29.5220  -21.7959  -12.4473 N   0  0  0  0  0  0  0  0  0  0  0  0
   27.8957  -20.9743  -10.9298 C   0  0  0  0  0  0  0  0  0  0  0  0
   27.2654  -22.0491  -11.2185 O   0  0  0  0  0  0  0  0  0  0  0  0
   28.5542  -16.0263  -16.6322 N   0  0  0  0  0  0  0  0  0  0  0  0
   27.3515  -20.1599   -9.9164 C   0  0  2  0  0  0  0  0  0  0  0  0
   26.0796  -20.5458   -9.2381 C   0  0  0  0  0  0  0  0  0  0  0  0
   25.9632  -19.6130   -8.0599 C   0  0  0  0  0  0  0  0  0  0  0  0
   26.9037  -19.8125   -6.9765 C   0  0  0  0  0  0  0  0  0  0  0  0
   27.8361  -18.8707   -6.6081 C   0  0  0  0  0  0  0  0  0  0  0  0
   28.7370  -19.1020   -5.5659 C   0  0  0  0  0  0  0  0  0  0  0  0
   28.7259  -20.2871   -4.8638 C   0  0  0  0  0  0  0  0  0  0  0  0
   27.8003  -21.2382   -5.2191 C   0  0  0  0  0  0  0  0  0  0  0  0
   26.9198  -21.0070   -6.2409 C   0  0  0  0  0  0  0  0  0  0  0  0
   25.0169  -20.2639  -10.2060 O   0  0  0  0  0  0  0  0  0  0  0  0
   24.7542  -19.0463  -10.4897 C   0  0  0  0  0  0  0  0  0  0  0  0
   24.5865  -21.7563  -13.7053 C   0  0  2  0  0  0  0  0  0  0  0  0
   23.2804  -21.8757  -12.9759 O   0  0  0  0  0  0  0  0  0  0  0  0
   23.1426  -23.1186  -12.3440 C   0  0  2  0  0  0  0  0  0  0  0  0
   23.2123  -20.8320  -11.8571 N   0  0  0  0  0  0  0  0  0  0  0  0
   24.2278  -21.2231  -10.8880 C   0  0  0  0  0  0  0  0  0  0  0  0
   21.8599  -20.8040  -11.3352 O   0  0  0  0  0  0  0  0  0  0  0  0
   20.8173  -20.3640  -12.1295 O   0  0  0  0  0  0  0  0  0  0  0  0
  2  1  1  0
  3  2  2  0
  4  2  1  0
  5  4  1  0
  6  5  1  0
  7  6  1  0
  8  7  1  0
  8  9  1  6
 10 12  1  0
 10  8  1  0
 11 10  2  0
 13 21  1  0
 13 12  1  0
 13 14  1  1
 15 14  1  0
 16 15  2  0
 17 16  1  0
 18 19  1  0
 18 17  2  0
 19 20  2  0
 20 15  1  0
 21 27  1  0
 22 21  2  0
 24 25  1  0
 24 23  1  6
 24 26  1  0
 26 28  1  0
 26 27  1  6
 28 30  2  0
 28 29  1  0
M  END
$$$$
