RFT.pdb
     RDKit          3D

 30 30  0  0  1  0  0  0  0  0999 V2000
   17.3809  -21.8575  -11.7771 N   0  0  0  0  0  0  0  0  0  0  0  0
   18.1696  -22.9606  -11.3418 C   0  0  0  0  0  0  0  0  0  0  0  0
   17.6636  -24.1251  -11.3363 N   0  0  0  0  0  0  0  0  0  0  0  0
   19.4979  -22.6649  -10.9381 N   0  0  0  0  0  0  0  0  0  0  0  0
   20.0254  -21.3334  -11.1464 C   0  0  0  0  0  0  0  0  0  0  0  0
   20.5207  -21.1708  -12.5517 C   0  0  0  0  0  0  0  0  0  0  0  0
   21.8937  -20.5909  -12.6680 C   0  0  0  0  0  0  0  0  0  0  0  0
   22.8448  -21.3510  -11.7871 C   0  0  2  0  0  0  0  0  0  0  0  0
   22.3506  -21.4860  -10.4361 N   0  0  0  0  0  0  0  0  0  0  0  0
   24.1777  -20.6681  -11.7070 C   0  0  0  0  0  0  0  0  0  0  0  0
   24.2318  -19.3904  -11.6874 O   0  0  0  0  0  0  0  0  0  0  0  0
   18.1939  -24.9357  -10.9536 N   0  0  0  0  0  0  0  0  0  0  0  0
   25.4007  -21.3664  -11.6512 C   0  0  1  0  0  0  0  0  0  0  0  0
   26.6945  -20.6235  -11.6197 C   0  0  0  0  0  0  0  0  0  0  0  0
   27.5295  -21.3312  -10.5836 C   0  0  0  0  0  0  0  0  0  0  0  0
   27.4426  -20.8329   -9.2264 C   0  0  0  0  0  0  0  0  0  0  0  0
   26.2873  -20.3149   -8.6887 C   0  0  0  0  0  0  0  0  0  0  0  0
   26.2428  -19.8309   -7.3791 C   0  0  0  0  0  0  0  0  0  0  0  0
   27.3590  -19.8541   -6.5723 C   0  0  0  0  0  0  0  0  0  0  0  0
   28.5211  -20.3688   -7.0941 C   0  0  0  0  0  0  0  0  0  0  0  0
   28.5597  -20.8417   -8.3777 C   0  0  0  0  0  0  0  0  0  0  0  0
   27.2849  -20.8061  -12.9478 O   0  0  0  0  0  0  0  0  0  0  0  0
   28.2186  -21.6664  -13.0898 C   0  0  0  0  0  0  0  0  0  0  0  0
   26.7976  -22.5321  -15.8486 C   0  0  2  0  0  0  0  0  0  0  0  0
   26.7937  -21.1003  -16.2980 O   0  0  0  0  0  0  0  0  0  0  0  0
   25.5157  -20.5302  -16.2271 C   0  0  2  0  0  0  0  0  0  0  0  0
   27.6744  -20.2609  -15.3678 N   0  0  0  0  0  0  0  0  0  0  0  0
   26.9187  -20.1165  -14.1302 C   0  0  0  0  0  0  0  0  0  0  0  0
   27.9863  -19.0109  -16.0329 O   0  0  0  0  0  0  0  0  0  0  0  0
   28.7621  -19.0072  -17.1773 O   0  0  0  0  0  0  0  0  0  0  0  0
  2  1  1  0
  3  2  2  0
  4  2  1  0
  5  4  1  0
  6  5  1  0
  7  6  1  0
  8  7  1  0
  8  9  1  1
 10 12  1  0
 10  8  1  0
 11 10  2  0
 13 21  1  0
 13 12  1  0
 13 14  1  1
 15 14  1  0
 16 15  2  0
 17 16  1  0
 18 19  1  0
 18 17  2  0
 19 20  2  0
 20 15  1  0
 21 27  1  0
 22 21  2  0
 24 25  1  0
 24 23  1  6
 24 26  1  0
 26 28  1  0
 26 27  1  6
 28 30  2  0
 28 29  1  0
M  END
$$$$
