RFT.pdb
     RDKit          3D

 30 30  0  0  1  0  0  0  0  0999 V2000
   26.4559  -26.4027  -17.7143 N   0  0  0  0  0  0  0  0  0  0  0  0
   25.1426  -25.9031  -17.9464 C   0  0  0  0  0  0  0  0  0  0  0  0
   24.1399  -26.6128  -17.6258 N   0  0  0  0  0  0  0  0  0  0  0  0
   25.0537  -24.6136  -18.5329 N   0  0  0  0  0  0  0  0  0  0  0  0
   26.2459  -23.8015  -18.6507 C   0  0  0  0  0  0  0  0  0  0  0  0
   26.8316  -23.5165  -17.3007 C   0  0  0  0  0  0  0  0  0  0  0  0
   26.7572  -22.0851  -16.8760 C   0  0  0  0  0  0  0  0  0  0  0  0
   27.5459  -21.8862  -15.6123 C   0  0  2  0  0  0  0  0  0  0  0  0
   28.5487  -22.9097  -15.4261 N   0  0  0  0  0  0  0  0  0  0  0  0
   26.6563  -21.9101  -14.4051 C   0  0  0  0  0  0  0  0  0  0  0  0
   26.2949  -23.0326  -13.9098 O   0  0  0  0  0  0  0  0  0  0  0  0
   23.1703  -26.2859  -17.8203 N   0  0  0  0  0  0  0  0  0  0  0  0
   26.1845  -20.7434  -13.7707 C   0  0  1  0  0  0  0  0  0  0  0  0
   25.3340  -20.8389  -12.5482 C   0  0  0  0  0  0  0  0  0  0  0  0
   25.8682  -19.7840  -11.6137 C   0  0  0  0  0  0  0  0  0  0  0  0
   26.5987  -20.2517  -10.4537 C   0  0  0  0  0  0  0  0  0  0  0  0
   26.0529  -20.3018   -9.1920 C   0  0  0  0  0  0  0  0  0  0  0  0
   26.7911  -20.7467   -8.0928 C   0  0  0  0  0  0  0  0  0  0  0  0
   28.0996  -21.1544   -8.2307 C   0  0  0  0  0  0  0  0  0  0  0  0
   28.6597  -21.1109   -9.4845 C   0  0  0  0  0  0  0  0  0  0  0  0
   27.9324  -20.6742  -10.5583 C   0  0  0  0  0  0  0  0  0  0  0  0
   23.9809  -20.4836  -12.9823 O   0  0  0  0  0  0  0  0  0  0  0  0
   23.7551  -19.2857  -13.3645 C   0  0  0  0  0  0  0  0  0  0  0  0
   21.9268  -21.9641  -15.6933 C   0  0  2  0  0  0  0  0  0  0  0  0
   21.0584  -21.9562  -14.4694 O   0  0  0  0  0  0  0  0  0  0  0  0
   21.1175  -23.1715  -13.7747 C   0  0  2  0  0  0  0  0  0  0  0  0
   21.5550  -20.8921  -13.4862 N   0  0  0  0  0  0  0  0  0  0  0  0
   22.8614  -21.3509  -13.0322 C   0  0  0  0  0  0  0  0  0  0  0  0
   20.5695  -20.7420  -12.4335 O   0  0  0  0  0  0  0  0  0  0  0  0
   20.8693  -21.1288  -11.1404 O   0  0  0  0  0  0  0  0  0  0  0  0
  2  1  1  0
  3  2  2  0
  4  2  1  0
  5  4  1  0
  6  5  1  0
  7  6  1  0
  8  7  1  0
  8  9  1  1
 10 12  1  0
 10  8  1  0
 11 10  2  0
 13 21  1  0
 13 12  1  0
 13 14  1  1
 15 14  1  0
 16 15  2  0
 17 16  1  0
 18 19  1  0
 18 17  2  0
 19 20  2  0
 20 15  1  0
 21 27  1  0
 22 21  2  0
 24 25  1  0
 24 23  1  6
 24 26  1  0
 26 28  1  0
 26 27  1  1
 28 30  2  0
 28 29  1  0
M  END
$$$$
