RFT.pdb
     RDKit          3D

 30 30  0  0  1  0  0  0  0  0999 V2000
   19.2072  -23.3068   -9.4668 N   0  0  0  0  0  0  0  0  0  0  0  0
   19.4780  -23.2077  -10.8615 C   0  0  0  0  0  0  0  0  0  0  0  0
   18.5458  -23.4288  -11.6947 N   0  0  0  0  0  0  0  0  0  0  0  0
   20.8055  -22.8581  -11.2222 N   0  0  0  0  0  0  0  0  0  0  0  0
   21.3764  -21.6242  -10.7260 C   0  0  0  0  0  0  0  0  0  0  0  0
   21.9888  -20.8340  -11.8429 C   0  0  0  0  0  0  0  0  0  0  0  0
   23.3768  -20.3467  -11.5767 C   0  0  0  0  0  0  0  0  0  0  0  0
   24.3749  -21.3609  -12.0599 C   0  0  2  0  0  0  0  0  0  0  0  0
   25.0545  -22.0225  -10.9698 N   0  0  0  0  0  0  0  0  0  0  0  0
   25.4267  -20.7243  -12.9189 C   0  0  0  0  0  0  0  0  0  0  0  0
   25.3341  -19.4833  -13.2141 O   0  0  0  0  0  0  0  0  0  0  0  0
   18.7104  -23.3300  -12.7184 N   0  0  0  0  0  0  0  0  0  0  0  0
   26.5349  -21.4283  -13.4314 C   0  0  1  0  0  0  0  0  0  0  0  0
   27.6054  -20.7094  -14.1825 C   0  0  0  0  0  0  0  0  0  0  0  0
   28.8475  -21.5412  -13.9902 C   0  0  0  0  0  0  0  0  0  0  0  0
   29.5385  -21.3963  -12.7255 C   0  0  0  0  0  0  0  0  0  0  0  0
   29.9107  -22.4665  -11.9457 C   0  0  0  0  0  0  0  0  0  0  0  0
   30.5648  -22.2892  -10.7243 C   0  0  0  0  0  0  0  0  0  0  0  0
   30.8640  -21.0303  -10.2520 C   0  0  0  0  0  0  0  0  0  0  0  0
   30.4994  -19.9505  -11.0192 C   0  0  0  0  0  0  0  0  0  0  0  0
   29.8585  -20.1293  -12.2151 C   0  0  0  0  0  0  0  0  0  0  0  0
   27.1918  -20.7456  -15.5872 O   0  0  0  0  0  0  0  0  0  0  0  0
   26.7302  -21.8382  -16.0617 C   0  0  0  0  0  0  0  0  0  0  0  0
   24.8333  -18.3029  -17.5174 C   0  0  2  0  0  0  0  0  0  0  0  0
   26.1402  -18.4586  -18.2384 O   0  0  0  0  0  0  0  0  0  0  0  0
   27.0717  -17.4846  -17.8553 C   0  0  2  0  0  0  0  0  0  0  0  0
   26.7759  -19.8046  -17.8779 N   0  0  0  0  0  0  0  0  0  0  0  0
   27.2433  -19.6669  -16.5046 C   0  0  0  0  0  0  0  0  0  0  0  0
   27.8180  -20.0950  -18.8432 O   0  0  0  0  0  0  0  0  0  0  0  0
   27.4867  -20.4701  -20.1320 O   0  0  0  0  0  0  0  0  0  0  0  0
  2  1  1  0
  3  2  2  0
  4  2  1  0
  5  4  1  0
  6  5  1  0
  7  6  1  0
  8  7  1  0
  8  9  1  1
 10 12  1  0
 10  8  1  0
 11 10  2  0
 13 21  1  0
 13 12  1  0
 13 14  1  6
 15 14  1  0
 16 15  2  0
 17 16  1  0
 18 19  1  0
 18 17  2  0
 19 20  2  0
 20 15  1  0
 21 27  1  0
 22 21  2  0
 24 25  1  0
 24 23  1  6
 24 26  1  0
 26 28  1  0
 26 27  1  6
 28 30  2  0
 28 29  1  0
M  END
$$$$
