RFT.pdb
     RDKit          3D

 30 30  0  0  1  0  0  0  0  0999 V2000
   17.1464  -22.1739  -11.8149 N   0  0  0  0  0  0  0  0  0  0  0  0
   17.9861  -23.1859  -11.2680 C   0  0  0  0  0  0  0  0  0  0  0  0
   17.8752  -23.4921  -10.0408 N   0  0  0  0  0  0  0  0  0  0  0  0
   18.9066  -23.7920  -12.1625 N   0  0  0  0  0  0  0  0  0  0  0  0
   20.2876  -23.3593  -12.1641 C   0  0  0  0  0  0  0  0  0  0  0  0
   20.7649  -23.1068  -13.5624 C   0  0  0  0  0  0  0  0  0  0  0  0
   21.3514  -21.7504  -13.7879 C   0  0  0  0  0  0  0  0  0  0  0  0
   21.3907  -20.9897  -12.4924 C   0  0  2  0  0  0  0  0  0  0  0  0
   20.5318  -19.8280  -12.5135 N   0  0  0  0  0  0  0  0  0  0  0  0
   22.7781  -20.5117  -12.1828 C   0  0  0  0  0  0  0  0  0  0  0  0
   23.1665  -19.3750  -12.6222 O   0  0  0  0  0  0  0  0  0  0  0  0
   18.4789  -24.2276   -9.6175 N   0  0  0  0  0  0  0  0  0  0  0  0
   23.6992  -21.2574  -11.4200 C   0  0  2  0  0  0  0  0  0  0  0  0
   25.0418  -20.6936  -11.0936 C   0  0  0  0  0  0  0  0  0  0  0  0
   25.4851  -21.4260   -9.8531 C   0  0  0  0  0  0  0  0  0  0  0  0
   26.6818  -20.9359   -9.2007 C   0  0  0  0  0  0  0  0  0  0  0  0
   27.9449  -21.3804   -9.5156 C   0  0  0  0  0  0  0  0  0  0  0  0
   29.0767  -20.8947   -8.8565 C   0  0  0  0  0  0  0  0  0  0  0  0
   28.9709  -19.9478   -7.8617 C   0  0  0  0  0  0  0  0  0  0  0  0
   27.7163  -19.4930   -7.5354 C   0  0  0  0  0  0  0  0  0  0  0  0
   26.6104  -19.9718   -8.1840 C   0  0  0  0  0  0  0  0  0  0  0  0
   25.9039  -21.0536  -12.2218 O   0  0  0  0  0  0  0  0  0  0  0  0
   26.1769  -22.2865  -12.4149 C   0  0  0  0  0  0  0  0  0  0  0  0
   25.6098  -21.1220  -15.8331 C   0  0  2  0  0  0  0  0  0  0  0  0
   26.7599  -20.2095  -15.5221 O   0  0  0  0  0  0  0  0  0  0  0  0
   26.3472  -18.8808  -15.3565 C   0  0  2  0  0  0  0  0  0  0  0  0
   27.3994  -20.6140  -14.1905 N   0  0  0  0  0  0  0  0  0  0  0  0
   26.4814  -20.1573  -13.1551 C   0  0  0  0  0  0  0  0  0  0  0  0
   28.7252  -20.0313  -14.1205 O   0  0  0  0  0  0  0  0  0  0  0  0
   29.7283  -20.4837  -14.9575 O   0  0  0  0  0  0  0  0  0  0  0  0
  2  1  1  0
  3  2  2  0
  4  2  1  0
  5  4  1  0
  6  5  1  0
  7  6  1  0
  8  7  1  0
  8  9  1  6
 10 12  1  0
 10  8  1  0
 11 10  2  0
 13 21  1  0
 13 12  1  0
 13 14  1  1
 15 14  1  0
 16 15  2  0
 17 16  1  0
 18 19  1  0
 18 17  2  0
 19 20  2  0
 20 15  1  0
 21 27  1  0
 22 21  2  0
 24 25  1  0
 24 23  1  6
 24 26  1  0
 26 28  1  0
 26 27  1  6
 28 30  2  0
 28 29  1  0
M  END
$$$$
