RFT.pdb
     RDKit          3D

 30 30  0  0  1  0  0  0  0  0999 V2000
   23.2498  -18.2437  -18.1794 N   0  0  0  0  0  0  0  0  0  0  0  0
   23.3585  -19.0833  -17.0342 C   0  0  0  0  0  0  0  0  0  0  0  0
   22.3516  -19.7598  -16.6594 N   0  0  0  0  0  0  0  0  0  0  0  0
   24.6197  -19.1007  -16.3833 N   0  0  0  0  0  0  0  0  0  0  0  0
   25.7433  -18.4194  -16.9899 C   0  0  0  0  0  0  0  0  0  0  0  0
   26.9609  -19.2936  -16.9868 C   0  0  0  0  0  0  0  0  0  0  0  0
   26.7678  -20.6331  -16.3517 C   0  0  0  0  0  0  0  0  0  0  0  0
   27.9781  -20.9900  -15.5355 C   0  0  2  0  0  0  0  0  0  0  0  0
   28.6563  -22.1598  -16.0447 N   0  0  0  0  0  0  0  0  0  0  0  0
   27.6096  -21.2746  -14.1099 C   0  0  0  0  0  0  0  0  0  0  0  0
   26.8688  -22.2814  -13.8386 O   0  0  0  0  0  0  0  0  0  0  0  0
   22.3877  -20.3348  -15.7918 N   0  0  0  0  0  0  0  0  0  0  0  0
   28.0406  -20.4809  -13.0279 C   0  0  2  0  0  0  0  0  0  0  0  0
   27.5954  -20.7918  -11.6379 C   0  0  0  0  0  0  0  0  0  0  0  0
   28.4827  -19.9621  -10.7457 C   0  0  0  0  0  0  0  0  0  0  0  0
   28.1694  -19.9654   -9.3316 C   0  0  0  0  0  0  0  0  0  0  0  0
   27.3893  -19.0037   -8.7326 C   0  0  0  0  0  0  0  0  0  0  0  0
   27.1180  -19.0309   -7.3626 C   0  0  0  0  0  0  0  0  0  0  0  0
   27.6230  -20.0263   -6.5554 C   0  0  0  0  0  0  0  0  0  0  0  0
   28.4038  -20.9949   -7.1383 C   0  0  0  0  0  0  0  0  0  0  0  0
   28.6670  -20.9640   -8.4809 C   0  0  0  0  0  0  0  0  0  0  0  0
   26.2133  -20.3144  -11.5520 O   0  0  0  0  0  0  0  0  0  0  0  0
   25.9825  -19.0709  -11.7322 C   0  0  0  0  0  0  0  0  0  0  0  0
   23.4388  -20.7141  -13.5690 C   0  0  2  0  0  0  0  0  0  0  0  0
   22.8779  -21.0973  -12.2308 O   0  0  0  0  0  0  0  0  0  0  0  0
   22.8900  -22.4844  -12.0330 C   0  0  2  0  0  0  0  0  0  0  0  0
   23.7484  -20.5118  -11.1150 N   0  0  0  0  0  0  0  0  0  0  0  0
   25.0677  -21.1057  -11.2888 C   0  0  0  0  0  0  0  0  0  0  0  0
   23.1201  -20.8013   -9.8408 O   0  0  0  0  0  0  0  0  0  0  0  0
   21.8823  -20.2646   -9.5384 O   0  0  0  0  0  0  0  0  0  0  0  0
  2  1  1  0
  3  2  2  0
  4  2  1  0
  5  4  1  0
  6  5  1  0
  7  6  1  0
  8  7  1  0
  8  9  1  6
 10 12  1  0
 10  8  1  0
 11 10  2  0
 13 21  1  0
 13 12  1  0
 13 14  1  1
 15 14  1  0
 16 15  2  0
 17 16  1  0
 18 19  1  0
 18 17  2  0
 19 20  2  0
 20 15  1  0
 21 27  1  0
 22 21  2  0
 24 25  1  0
 24 23  1  6
 24 26  1  0
 26 28  1  0
 26 27  1  1
 28 30  2  0
 28 29  1  0
M  END
$$$$
