RFT.pdb
     RDKit          3D

 30 30  0  0  1  0  0  0  0  0999 V2000
   16.9457  -23.6050  -14.9765 N   0  0  0  0  0  0  0  0  0  0  0  0
   18.0697  -24.3589  -15.4200 C   0  0  0  0  0  0  0  0  0  0  0  0
   17.9064  -25.2668  -16.2924 N   0  0  0  0  0  0  0  0  0  0  0  0
   19.3206  -24.0266  -14.8374 N   0  0  0  0  0  0  0  0  0  0  0  0
   19.3790  -23.0113  -13.8077 C   0  0  0  0  0  0  0  0  0  0  0  0
   19.8896  -21.7168  -14.3648 C   0  0  0  0  0  0  0  0  0  0  0  0
   21.3146  -21.4111  -14.0318 C   0  0  0  0  0  0  0  0  0  0  0  0
   21.4674  -21.2477  -12.5457 C   0  0  2  0  0  0  0  0  0  0  0  0
   20.4581  -20.3797  -11.9838 N   0  0  0  0  0  0  0  0  0  0  0  0
   22.8028  -20.6615  -12.1962 C   0  0  0  0  0  0  0  0  0  0  0  0
   22.9485  -19.3910  -12.1762 O   0  0  0  0  0  0  0  0  0  0  0  0
   18.7002  -25.8736  -16.5864 N   0  0  0  0  0  0  0  0  0  0  0  0
   23.9314  -21.4451  -11.8820 C   0  0  2  0  0  0  0  0  0  0  0  0
   25.2252  -20.7958  -11.5195 C   0  0  0  0  0  0  0  0  0  0  0  0
   25.8501  -21.7083  -10.4956 C   0  0  0  0  0  0  0  0  0  0  0  0
   27.0046  -21.1965   -9.7861 C   0  0  0  0  0  0  0  0  0  0  0  0
   28.2990  -21.4952  -10.1430 C   0  0  0  0  0  0  0  0  0  0  0  0
   29.3891  -20.9940   -9.4276 C   0  0  0  0  0  0  0  0  0  0  0  0
   29.2090  -20.1777   -8.3329 C   0  0  0  0  0  0  0  0  0  0  0  0
   27.9221  -19.8693   -7.9635 C   0  0  0  0  0  0  0  0  0  0  0  0
   26.8573  -20.3628   -8.6674 C   0  0  0  0  0  0  0  0  0  0  0  0
   26.0244  -20.8001  -12.7471 O   0  0  0  0  0  0  0  0  0  0  0  0
   26.0744  -21.8712  -13.4416 C   0  0  0  0  0  0  0  0  0  0  0  0
   25.8882  -18.1517  -15.6733 C   0  0  2  0  0  0  0  0  0  0  0  0
   27.2850  -18.3706  -15.1702 O   0  0  0  0  0  0  0  0  0  0  0  0
   27.6146  -17.4887  -14.1325 C   0  0  2  0  0  0  0  0  0  0  0  0
   27.4090  -19.7762  -14.5747 N   0  0  0  0  0  0  0  0  0  0  0  0
   26.7663  -19.7113  -13.2685 C   0  0  0  0  0  0  0  0  0  0  0  0
   28.8123  -20.1389  -14.5387 O   0  0  0  0  0  0  0  0  0  0  0  0
   29.5140  -20.3194  -15.7163 O   0  0  0  0  0  0  0  0  0  0  0  0
  2  1  1  0
  3  2  2  0
  4  2  1  0
  5  4  1  0
  6  5  1  0
  7  6  1  0
  8  7  1  0
  8  9  1  6
 10 12  1  0
 10  8  1  0
 11 10  2  0
 13 21  1  0
 13 12  1  0
 13 14  1  1
 15 14  1  0
 16 15  2  0
 17 16  1  0
 18 19  1  0
 18 17  2  0
 19 20  2  0
 20 15  1  0
 21 27  1  0
 22 21  2  0
 24 25  1  0
 24 23  1  6
 24 26  1  0
 26 28  1  0
 26 27  1  6
 28 30  2  0
 28 29  1  0
M  END
$$$$
