RFT.pdb
     RDKit          3D

 30 30  0  0  1  0  0  0  0  0999 V2000
   25.4009  -19.7173  -21.3756 N   0  0  0  0  0  0  0  0  0  0  0  0
   25.5291  -18.3845  -20.8903 C   0  0  0  0  0  0  0  0  0  0  0  0
   24.8134  -17.4655  -21.3955 N   0  0  0  0  0  0  0  0  0  0  0  0
   26.4721  -18.1812  -19.8491 N   0  0  0  0  0  0  0  0  0  0  0  0
   27.2698  -19.2955  -19.3836 C   0  0  0  0  0  0  0  0  0  0  0  0
   26.4393  -20.2417  -18.5701 C   0  0  0  0  0  0  0  0  0  0  0  0
   26.4353  -19.9660  -17.1008 C   0  0  0  0  0  0  0  0  0  0  0  0
   27.4401  -20.8473  -16.4136 C   0  0  2  0  0  0  0  0  0  0  0  0
   27.7048  -22.0581  -17.1563 N   0  0  0  0  0  0  0  0  0  0  0  0
   26.9650  -21.2561  -15.0511 C   0  0  0  0  0  0  0  0  0  0  0  0
   26.2107  -22.2816  -14.9272 O   0  0  0  0  0  0  0  0  0  0  0  0
   24.8901  -16.4831  -21.0587 N   0  0  0  0  0  0  0  0  0  0  0  0
   27.3078  -20.5616  -13.8736 C   0  0  2  0  0  0  0  0  0  0  0  0
   26.6921  -20.9383  -12.5675 C   0  0  0  0  0  0  0  0  0  0  0  0
   27.4760  -20.1778  -11.5289 C   0  0  0  0  0  0  0  0  0  0  0  0
   27.0159  -20.2836  -10.1596 C   0  0  0  0  0  0  0  0  0  0  0  0
   27.2597  -21.3817   -9.3677 C   0  0  0  0  0  0  0  0  0  0  0  0
   26.7893  -21.4554   -8.0545 C   0  0  0  0  0  0  0  0  0  0  0  0
   26.0604  -20.4268   -7.4995 C   0  0  0  0  0  0  0  0  0  0  0  0
   25.8085  -19.3225   -8.2771 C   0  0  0  0  0  0  0  0  0  0  0  0
   26.2714  -19.2549   -9.5632 C   0  0  0  0  0  0  0  0  0  0  0  0
   25.3168  -20.4368  -12.6222 O   0  0  0  0  0  0  0  0  0  0  0  0
   25.1238  -19.2100  -12.9217 C   0  0  0  0  0  0  0  0  0  0  0  0
   22.6320  -20.9999  -14.8616 C   0  0  2  0  0  0  0  0  0  0  0  0
   22.0508  -21.3265  -13.5171 O   0  0  0  0  0  0  0  0  0  0  0  0
   22.1773  -22.6867  -13.2057 C   0  0  2  0  0  0  0  0  0  0  0  0
   22.8176  -20.5776  -12.4232 N   0  0  0  0  0  0  0  0  0  0  0  0
   24.1402  -21.1876  -12.3779 C   0  0  0  0  0  0  0  0  0  0  0  0
   22.0669  -20.6735  -11.1865 O   0  0  0  0  0  0  0  0  0  0  0  0
   20.8176  -20.0900  -11.0847 O   0  0  0  0  0  0  0  0  0  0  0  0
  2  1  1  0
  3  2  2  0
  4  2  1  0
  5  4  1  0
  6  5  1  0
  7  6  1  0
  8  7  1  0
  8  9  1  6
 10 12  1  0
 10  8  1  0
 11 10  2  0
 13 21  1  0
 13 12  1  0
 13 14  1  1
 15 14  1  0
 16 15  2  0
 17 16  1  0
 18 19  1  0
 18 17  2  0
 19 20  2  0
 20 15  1  0
 21 27  1  0
 22 21  2  0
 24 25  1  0
 24 23  1  6
 24 26  1  0
 26 28  1  0
 26 27  1  1
 28 30  2  0
 28 29  1  0
M  END
$$$$
