RFT.pdb
     RDKit          3D

 30 30  0  0  1  0  0  0  0  0999 V2000
   24.0814  -23.9177  -18.1365 N   0  0  0  0  0  0  0  0  0  0  0  0
   25.3027  -24.4617  -18.6271 C   0  0  0  0  0  0  0  0  0  0  0  0
   25.3766  -25.7048  -18.8745 N   0  0  0  0  0  0  0  0  0  0  0  0
   26.3722  -23.5463  -18.8083 N   0  0  0  0  0  0  0  0  0  0  0  0
   26.2397  -22.1908  -18.3188 C   0  0  0  0  0  0  0  0  0  0  0  0
   26.8811  -22.0460  -16.9718 C   0  0  0  0  0  0  0  0  0  0  0  0
   26.0186  -22.4544  -15.8210 C   0  0  0  0  0  0  0  0  0  0  0  0
   25.6279  -21.2435  -15.0214 C   0  0  2  0  0  0  0  0  0  0  0  0
   26.4382  -20.0910  -15.3419 N   0  0  0  0  0  0  0  0  0  0  0  0
   25.7714  -21.4928  -13.5495 C   0  0  0  0  0  0  0  0  0  0  0  0
   25.3678  -22.6011  -13.0549 O   0  0  0  0  0  0  0  0  0  0  0  0
   26.2782  -26.1391  -19.1628 N   0  0  0  0  0  0  0  0  0  0  0  0
   26.3367  -20.5574  -12.6596 C   0  0  1  0  0  0  0  0  0  0  0  0
   26.3596  -20.8281  -11.1923 C   0  0  0  0  0  0  0  0  0  0  0  0
   27.4696  -19.9647  -10.6501 C   0  0  0  0  0  0  0  0  0  0  0  0
   27.6639  -19.9798   -9.2148 C   0  0  0  0  0  0  0  0  0  0  0  0
   28.2700  -21.0201   -8.5495 C   0  0  0  0  0  0  0  0  0  0  0  0
   28.4293  -21.0070   -7.1618 C   0  0  0  0  0  0  0  0  0  0  0  0
   27.9839  -19.9471   -6.4031 C   0  0  0  0  0  0  0  0  0  0  0  0
   27.3766  -18.8997   -7.0524 C   0  0  0  0  0  0  0  0  0  0  0  0
   27.2228  -18.9171   -8.4121 C   0  0  0  0  0  0  0  0  0  0  0  0
   25.0679  -20.3584  -10.6859 O   0  0  0  0  0  0  0  0  0  0  0  0
   24.7450  -19.1364  -10.8715 C   0  0  0  0  0  0  0  0  0  0  0  0
   22.1445  -20.0254  -11.7568 C   0  0  2  0  0  0  0  0  0  0  0  0
   21.8031  -20.7728  -10.5011 O   0  0  0  0  0  0  0  0  0  0  0  0
   21.7606  -22.1578  -10.7084 C   0  0  2  0  0  0  0  0  0  0  0  0
   22.8912  -20.5443   -9.4478 N   0  0  0  0  0  0  0  0  0  0  0  0
   24.1045  -21.1360   -9.9967 C   0  0  0  0  0  0  0  0  0  0  0  0
   22.4496  -21.1269   -8.1957 O   0  0  0  0  0  0  0  0  0  0  0  0
   23.1852  -22.1349   -7.6004 O   0  0  0  0  0  0  0  0  0  0  0  0
  2  1  1  0
  3  2  2  0
  4  2  1  0
  5  4  1  0
  6  5  1  0
  7  6  1  0
  8  7  1  0
  8  9  1  6
 10 12  1  0
 10  8  1  0
 11 10  2  0
 13 21  1  0
 13 12  1  0
 13 14  1  1
 15 14  1  0
 16 15  2  0
 17 16  1  0
 18 19  1  0
 18 17  2  0
 19 20  2  0
 20 15  1  0
 21 27  1  0
 22 21  2  0
 24 25  1  0
 24 23  1  6
 24 26  1  0
 26 28  1  0
 26 27  1  1
 28 30  2  0
 28 29  1  0
M  END
$$$$
