RFT.pdb
     RDKit          3D

 30 30  0  0  1  0  0  0  0  0999 V2000
   27.7966  -20.5604  -19.0975 N   0  0  0  0  0  0  0  0  0  0  0  0
   28.8248  -19.6186  -19.3877 C   0  0  0  0  0  0  0  0  0  0  0  0
   29.0427  -19.2853  -20.5933 N   0  0  0  0  0  0  0  0  0  0  0  0
   29.5454  -19.1100  -18.2756 N   0  0  0  0  0  0  0  0  0  0  0  0
   28.9791  -19.2230  -16.9485 C   0  0  0  0  0  0  0  0  0  0  0  0
   27.9258  -18.1795  -16.7284 C   0  0  0  0  0  0  0  0  0  0  0  0
   27.3817  -18.1234  -15.3371 C   0  0  0  0  0  0  0  0  0  0  0  0
   26.9975  -19.5037  -14.8836 C   0  0  2  0  0  0  0  0  0  0  0  0
   26.0974  -20.1531  -15.8087 N   0  0  0  0  0  0  0  0  0  0  0  0
   26.3145  -19.4685  -13.5489 C   0  0  0  0  0  0  0  0  0  0  0  0
   25.8554  -18.3606  -13.1041 O   0  0  0  0  0  0  0  0  0  0  0  0
   29.7917  -18.6019  -20.8312 N   0  0  0  0  0  0  0  0  0  0  0  0
   26.1453  -20.6088  -12.7380 C   0  0  1  0  0  0  0  0  0  0  0  0
   25.3492  -20.5291  -11.4783 C   0  0  0  0  0  0  0  0  0  0  0  0
   24.2376  -21.5321  -11.6512 C   0  0  0  0  0  0  0  0  0  0  0  0
   23.1680  -21.1683  -12.5576 C   0  0  0  0  0  0  0  0  0  0  0  0
   23.1218  -21.5804  -13.8692 C   0  0  0  0  0  0  0  0  0  0  0  0
   22.0809  -21.1996  -14.7194 C   0  0  0  0  0  0  0  0  0  0  0  0
   21.0561  -20.3936  -14.2749 C   0  0  0  0  0  0  0  0  0  0  0  0
   21.0871  -19.9736  -12.9672 C   0  0  0  0  0  0  0  0  0  0  0  0
   22.1090  -20.3492  -12.1381 C   0  0  0  0  0  0  0  0  0  0  0  0
   26.2550  -20.9652  -10.4129 O   0  0  0  0  0  0  0  0  0  0  0  0
   26.8801  -22.0702  -10.5546 C   0  0  0  0  0  0  0  0  0  0  0  0
   28.9149  -20.1065   -7.6126 C   0  0  2  0  0  0  0  0  0  0  0  0
   27.5242  -20.1056   -7.0486 O   0  0  0  0  0  0  0  0  0  0  0  0
   26.9586  -18.8237   -7.0456 C   0  0  2  0  0  0  0  0  0  0  0  0
   26.6064  -20.9615   -7.9265 N   0  0  0  0  0  0  0  0  0  0  0  0
   26.5272  -20.2716   -9.2076 C   0  0  0  0  0  0  0  0  0  0  0  0
   25.3353  -21.1194   -7.2472 O   0  0  0  0  0  0  0  0  0  0  0  0
   25.2662  -21.8162   -6.0550 O   0  0  0  0  0  0  0  0  0  0  0  0
  2  1  1  0
  3  2  2  0
  4  2  1  0
  5  4  1  0
  6  5  1  0
  7  6  1  0
  8  7  1  0
  8  9  1  6
 10 12  1  0
 10  8  1  0
 11 10  2  0
 13 21  1  0
 13 12  1  0
 13 14  1  1
 15 14  1  0
 16 15  2  0
 17 16  1  0
 18 19  1  0
 18 17  2  0
 19 20  2  0
 20 15  1  0
 21 27  1  0
 22 21  2  0
 24 25  1  0
 24 23  1  1
 24 26  1  0
 26 28  1  0
 26 27  1  1
 28 30  2  0
 28 29  1  0
M  END
$$$$
