RFT.pdb
     RDKit          3D

 30 30  0  0  1  0  0  0  0  0999 V2000
   19.8968  -16.7196  -14.4102 N   0  0  0  0  0  0  0  0  0  0  0  0
   20.4973  -17.0824  -15.6497 C   0  0  0  0  0  0  0  0  0  0  0  0
   20.4104  -16.2919  -16.6394 N   0  0  0  0  0  0  0  0  0  0  0  0
   21.1665  -18.3336  -15.6830 N   0  0  0  0  0  0  0  0  0  0  0  0
   21.2777  -19.1140  -14.4692 C   0  0  0  0  0  0  0  0  0  0  0  0
   21.9812  -20.4111  -14.7327 C   0  0  0  0  0  0  0  0  0  0  0  0
   22.1744  -21.2741  -13.5274 C   0  0  0  0  0  0  0  0  0  0  0  0
   23.1356  -20.6163  -12.5777 C   0  0  2  0  0  0  0  0  0  0  0  0
   24.5038  -20.7077  -13.0330 N   0  0  0  0  0  0  0  0  0  0  0  0
   23.0760  -21.2467  -11.2182 C   0  0  0  0  0  0  0  0  0  0  0  0
   23.6722  -22.3593  -11.0119 O   0  0  0  0  0  0  0  0  0  0  0  0
   20.8086  -16.5512  -17.5662 N   0  0  0  0  0  0  0  0  0  0  0  0
   22.3866  -20.6731  -10.1309 C   0  0  2  0  0  0  0  0  0  0  0  0
   22.3322  -21.3752   -8.8152 C   0  0  0  0  0  0  0  0  0  0  0  0
   22.8131  -20.3621   -7.8083 C   0  0  0  0  0  0  0  0  0  0  0  0
   24.2298  -20.3663   -7.5065 C   0  0  0  0  0  0  0  0  0  0  0  0
   25.0884  -19.3731   -7.9169 C   0  0  0  0  0  0  0  0  0  0  0  0
   26.4524  -19.4161   -7.6187 C   0  0  0  0  0  0  0  0  0  0  0  0
   26.9923  -20.4590   -6.8988 C   0  0  0  0  0  0  0  0  0  0  0  0
   26.1480  -21.4590   -6.4809 C   0  0  0  0  0  0  0  0  0  0  0  0
   24.8124  -21.4126   -6.7756 C   0  0  0  0  0  0  0  0  0  0  0  0
   20.9163  -21.6735   -8.5873 O   0  0  0  0  0  0  0  0  0  0  0  0
   20.0583  -20.7437   -8.7647 C   0  0  0  0  0  0  0  0  0  0  0  0
   18.5537  -23.7263  -10.2895 C   0  0  2  0  0  0  0  0  0  0  0  0
   18.4869  -24.2034   -8.8683 O   0  0  0  0  0  0  0  0  0  0  0  0
   19.3475  -25.2843   -8.6352 C   0  0  2  0  0  0  0  0  0  0  0  0
   18.9529  -23.0913   -7.9239 N   0  0  0  0  0  0  0  0  0  0  0  0
   20.3762  -22.9202   -8.1852 C   0  0  0  0  0  0  0  0  0  0  0  0
   18.6317  -23.4775   -6.5638 O   0  0  0  0  0  0  0  0  0  0  0  0
   17.3129  -23.6268   -6.1767 O   0  0  0  0  0  0  0  0  0  0  0  0
  2  1  1  0
  3  2  2  0
  4  2  1  0
  5  4  1  0
  6  5  1  0
  7  6  1  0
  8  7  1  0
  8  9  1  6
 10 12  1  0
 10  8  1  0
 11 10  2  0
 13 21  1  0
 13 12  1  0
 13 14  1  6
 15 14  1  0
 16 15  2  0
 17 16  1  0
 18 19  1  0
 18 17  2  0
 19 20  2  0
 20 15  1  0
 21 27  1  0
 22 21  2  0
 24 25  1  0
 24 23  1  6
 24 26  1  0
 26 28  1  0
 26 27  1  1
 28 30  2  0
 28 29  1  0
M  END
$$$$
