RFT.pdb
     RDKit          3D

 30 30  0  0  1  0  0  0  0  0999 V2000
   16.6988  -22.4719  -13.6378 N   0  0  0  0  0  0  0  0  0  0  0  0
   17.3332  -23.3956  -14.5168 C   0  0  0  0  0  0  0  0  0  0  0  0
   16.6267  -24.0697  -15.3283 N   0  0  0  0  0  0  0  0  0  0  0  0
   18.7456  -23.4927  -14.4160 N   0  0  0  0  0  0  0  0  0  0  0  0
   19.4626  -22.5761  -13.5556 C   0  0  0  0  0  0  0  0  0  0  0  0
   19.7478  -21.2889  -14.2688 C   0  0  0  0  0  0  0  0  0  0  0  0
   20.6715  -20.3635  -13.5441 C   0  0  0  0  0  0  0  0  0  0  0  0
   20.7583  -19.0534  -14.2754 C   0  0  2  0  0  0  0  0  0  0  0  0
   19.6343  -18.8441  -15.1589 N   0  0  0  0  0  0  0  0  0  0  0  0
   22.0013  -18.9769  -15.1110 C   0  0  0  0  0  0  0  0  0  0  0  0
   21.9295  -19.1916  -16.3698 O   0  0  0  0  0  0  0  0  0  0  0  0
   17.0674  -24.7507  -15.9816 N   0  0  0  0  0  0  0  0  0  0  0  0
   23.2715  -18.6761  -14.5794 C   0  0  2  0  0  0  0  0  0  0  0  0
   24.4781  -18.6778  -15.4576 C   0  0  0  0  0  0  0  0  0  0  0  0
   25.4148  -17.6707  -14.8412 C   0  0  0  0  0  0  0  0  0  0  0  0
   26.7214  -17.5382  -15.4521 C   0  0  0  0  0  0  0  0  0  0  0  0
   26.9374  -16.8468  -16.6215 C   0  0  0  0  0  0  0  0  0  0  0  0
   28.2098  -16.7501  -17.1897 C   0  0  0  0  0  0  0  0  0  0  0  0
   29.3019  -17.3457  -16.5981 C   0  0  0  0  0  0  0  0  0  0  0  0
   29.1033  -18.0398  -15.4292 C   0  0  0  0  0  0  0  0  0  0  0  0
   27.8548  -18.1318  -14.8763 C   0  0  0  0  0  0  0  0  0  0  0  0
   25.0452  -20.0236  -15.3434 O   0  0  0  0  0  0  0  0  0  0  0  0
   25.1265  -20.5577  -14.1858 C   0  0  0  0  0  0  0  0  0  0  0  0
   24.2894  -23.5810  -16.6786 C   0  0  2  0  0  0  0  0  0  0  0  0
   25.6132  -23.0804  -17.1775 O   0  0  0  0  0  0  0  0  0  0  0  0
   25.4884  -22.3716  -18.3797 C   0  0  2  0  0  0  0  0  0  0  0  0
   26.2072  -22.0897  -16.1718 N   0  0  0  0  0  0  0  0  0  0  0  0
   25.5227  -20.8254  -16.4096 C   0  0  0  0  0  0  0  0  0  0  0  0
   27.6434  -22.0433  -16.3645 O   0  0  0  0  0  0  0  0  0  0  0  0
   28.4266  -23.1290  -16.0190 O   0  0  0  0  0  0  0  0  0  0  0  0
  2  1  1  0
  3  2  2  0
  4  2  1  0
  5  4  1  0
  6  5  1  0
  7  6  1  0
  8  7  1  0
  8  9  1  6
 10 12  1  0
 10  8  1  0
 11 10  2  0
 13 21  1  0
 13 12  1  0
 13 14  1  1
 15 14  1  0
 16 15  2  0
 17 16  1  0
 18 19  1  0
 18 17  2  0
 19 20  2  0
 20 15  1  0
 21 27  1  0
 22 21  2  0
 24 25  1  0
 24 23  1  6
 24 26  1  0
 26 28  1  0
 26 27  1  1
 28 30  2  0
 28 29  1  0
M  END
$$$$
