PPY.pdb
     RDKit          3D

 27 29  0  0  1  0  0  0  0  0999 V2000
   27.1484  -22.7842  -17.1927 N   0  0  0  0  0  0  0  0  0  0  0  0
   26.0962  -23.3946  -18.0509 C   0  0  0  0  0  0  0  0  0  0  0  0
   24.9745  -23.5316  -17.0340 C   0  0  0  0  0  0  0  0  0  0  0  0
   25.0575  -22.2521  -16.2475 C   0  0  0  0  0  0  0  0  0  0  0  0
   26.4132  -21.7137  -16.5419 C   0  0  1  0  0  0  0  0  0  0  0  0
   27.0797  -21.1937  -15.3406 C   0  0  0  0  0  0  0  0  0  0  0  0
   27.8049  -22.0335  -14.6636 O   0  0  0  0  0  0  0  0  0  0  0  0
   27.0280  -19.8808  -14.8218 N   0  0  0  0  0  0  0  0  0  0  0  0
   26.5102  -18.7112  -15.4699 C   0  0  0  0  0  0  0  0  0  0  0  0
   26.2988  -17.6987  -14.3300 C   0  0  0  0  0  0  0  0  0  0  0  0
   27.4908  -18.0180  -13.4369 C   0  0  0  0  0  0  0  0  0  0  0  0
   27.4949  -19.5202  -13.5066 C   0  0  1  0  0  0  0  0  0  0  0  0
   26.5066  -19.9668  -12.4554 C   0  0  0  0  0  0  0  0  0  0  0  0
   25.2866  -20.0892  -12.7455 O   0  0  0  0  0  0  0  0  0  0  0  0
   28.3154  -18.4713   -5.0207 O   0  0  0  0  0  0  0  0  0  0  0  0
   28.0338  -19.3408   -6.0839 C   0  0  0  0  0  0  0  0  0  0  0  0
   26.8157  -19.2037   -6.7000 C   0  0  0  0  0  0  0  0  0  0  0  0
   26.5087  -20.0443   -7.7485 C   0  0  0  0  0  0  0  0  0  0  0  0
   27.3813  -21.0065   -8.1893 C   0  0  0  0  0  0  0  0  0  0  0  0
   27.0554  -21.9110   -9.3167 C   0  0  0  0  0  0  0  0  0  0  0  0
   26.1398  -21.1675  -10.2708 C   0  0  2  0  0  0  0  0  0  0  0  0
   26.8874  -20.2637  -11.1234 N   0  0  0  0  0  0  0  0  0  0  0  0
   25.1180  -20.3698   -9.5574 C   0  0  0  0  0  0  0  0  0  0  0  0
   23.9821  -20.9497   -8.9759 O   0  0  0  0  0  0  0  0  0  0  0  0
   28.6072  -21.1191   -7.5432 C   0  0  0  0  0  0  0  0  0  0  0  0
   28.9212  -20.2933   -6.5053 C   0  0  0  0  0  0  0  0  0  0  0  0
   25.2171  -19.1223   -9.4362 O   0  0  0  0  0  0  0  0  0  0  0  0
  1  2  1  0
  2  3  1  0
  4  3  1  0
  5  4  1  0
  5  1  1  0
  6  7  2  0
  5  6  1  1
  8  6  1  0
  9  8  1  0
 10  9  1  0
 11 10  1  0
 11 12  1  0
 12  8  1  0
 12 13  1  1
 14 13  2  0
 16 15  1  0
 17 16  2  0
 18 17  1  0
 19 25  1  0
 19 18  2  0
 20 19  1  0
 21 20  1  1
 21 22  1  0
 22 13  1  0
 23 21  1  0
 24 23  1  0
 25 26  2  0
 26 16  1  0
 27 23  2  0
M  END
$$$$
