PPY.pdb
     RDKit          3D

 27 29  0  0  1  0  0  0  0  0999 V2000
   28.9715  -21.8985  -18.0676 N   0  0  0  0  0  0  0  0  0  0  0  0
   28.6468  -22.2226  -19.4839 C   0  0  0  0  0  0  0  0  0  0  0  0
   27.1290  -22.1589  -19.4266 C   0  0  0  0  0  0  0  0  0  0  0  0
   26.8620  -20.9672  -18.5484 C   0  0  0  0  0  0  0  0  0  0  0  0
   28.1467  -20.7251  -17.8374 C   0  0  1  0  0  0  0  0  0  0  0  0
   27.9477  -20.4211  -16.4142 C   0  0  0  0  0  0  0  0  0  0  0  0
   28.2298  -21.3670  -15.5685 O   0  0  0  0  0  0  0  0  0  0  0  0
   27.4801  -19.2163  -15.8436 N   0  0  0  0  0  0  0  0  0  0  0  0
   27.1414  -18.0045  -16.5311 C   0  0  0  0  0  0  0  0  0  0  0  0
   26.2997  -17.2074  -15.5184 C   0  0  0  0  0  0  0  0  0  0  0  0
   27.0013  -17.5669  -14.2150 C   0  0  0  0  0  0  0  0  0  0  0  0
   27.2543  -19.0334  -14.4318 C   0  0  1  0  0  0  0  0  0  0  0  0
   25.9779  -19.7209  -14.0084 C   0  0  0  0  0  0  0  0  0  0  0  0
   25.0404  -19.8791  -14.8352 O   0  0  0  0  0  0  0  0  0  0  0  0
   27.6218  -19.2788   -7.1020 O   0  0  0  0  0  0  0  0  0  0  0  0
   27.0378  -19.9940   -8.1572 C   0  0  0  0  0  0  0  0  0  0  0  0
   25.6674  -20.0323   -8.2056 C   0  0  0  0  0  0  0  0  0  0  0  0
   25.0630  -20.7280   -9.2307 C   0  0  0  0  0  0  0  0  0  0  0  0
   25.7890  -21.3779  -10.1962 C   0  0  0  0  0  0  0  0  0  0  0  0
   25.1429  -22.1256  -11.3003 C   0  0  0  0  0  0  0  0  0  0  0  0
   24.7006  -21.1271  -12.3532 C   0  0  2  0  0  0  0  0  0  0  0  0
   25.7715  -20.2113  -12.6953 N   0  0  0  0  0  0  0  0  0  0  0  0
   23.5443  -20.3191  -11.9066 C   0  0  0  0  0  0  0  0  0  0  0  0
   22.2499  -20.8480  -11.8090 O   0  0  0  0  0  0  0  0  0  0  0  0
   27.1758  -21.3194  -10.1180 C   0  0  0  0  0  0  0  0  0  0  0  0
   27.7839  -20.6344   -9.1087 C   0  0  0  0  0  0  0  0  0  0  0  0
   23.6648  -19.1083  -11.5902 O   0  0  0  0  0  0  0  0  0  0  0  0
  1  2  1  0
  2  3  1  0
  4  3  1  0
  5  4  1  0
  5  1  1  0
  6  7  2  0
  5  6  1  1
  8  6  1  0
  9  8  1  0
 10  9  1  0
 11 10  1  0
 11 12  1  0
 12  8  1  0
 12 13  1  6
 14 13  2  0
 16 15  1  0
 17 16  2  0
 18 17  1  0
 19 25  1  0
 19 18  2  0
 20 19  1  0
 21 20  1  1
 21 22  1  0
 22 13  1  0
 23 21  1  0
 24 23  1  0
 25 26  2  0
 26 16  1  0
 27 23  2  0
M  END
$$$$
