PPY.pdb
     RDKit          3D

 27 29  0  0  1  0  0  0  0  0999 V2000
   24.1622  -17.6803  -18.6967 N   0  0  0  0  0  0  0  0  0  0  0  0
   23.5855  -16.3089  -18.6427 C   0  0  0  0  0  0  0  0  0  0  0  0
   23.4443  -16.1423  -17.1383 C   0  0  0  0  0  0  0  0  0  0  0  0
   24.7059  -16.7582  -16.5984 C   0  0  0  0  0  0  0  0  0  0  0  0
   25.2300  -17.5895  -17.7159 C   0  0  1  0  0  0  0  0  0  0  0  0
   25.7150  -18.8981  -17.2577 C   0  0  0  0  0  0  0  0  0  0  0  0
   24.8915  -19.8980  -17.3647 O   0  0  0  0  0  0  0  0  0  0  0  0
   26.9781  -19.2085  -16.7064 N   0  0  0  0  0  0  0  0  0  0  0  0
   28.1095  -18.3362  -16.5835 C   0  0  0  0  0  0  0  0  0  0  0  0
   29.0183  -19.0246  -15.5493 C   0  0  0  0  0  0  0  0  0  0  0  0
   28.7992  -20.4898  -15.9040 C   0  0  0  0  0  0  0  0  0  0  0  0
   27.3162  -20.4958  -16.1533 C   0  0  1  0  0  0  0  0  0  0  0  0
   26.6877  -20.6659  -14.7905 C   0  0  0  0  0  0  0  0  0  0  0  0
   27.1854  -20.0877  -13.7877 O   0  0  0  0  0  0  0  0  0  0  0  0
   21.6821  -21.0824   -7.8991 O   0  0  0  0  0  0  0  0  0  0  0  0
   22.4168  -20.8726   -9.0747 C   0  0  0  0  0  0  0  0  0  0  0  0
   21.7121  -20.7985  -10.2494 C   0  0  0  0  0  0  0  0  0  0  0  0
   22.4061  -20.5935  -11.4227 C   0  0  0  0  0  0  0  0  0  0  0  0
   23.7713  -20.4625  -11.4474 C   0  0  0  0  0  0  0  0  0  0  0  0
   24.5205  -20.2408  -12.7064 C   0  0  0  0  0  0  0  0  0  0  0  0
   24.9015  -21.5945  -13.2753 C   0  0  2  0  0  0  0  0  0  0  0  0
   25.5366  -21.4625  -14.5722 N   0  0  0  0  0  0  0  0  0  0  0  0
   23.7292  -22.4826  -13.4378 C   0  0  0  0  0  0  0  0  0  0  0  0
   23.4357  -23.5137  -12.5347 O   0  0  0  0  0  0  0  0  0  0  0  0
   24.4551  -20.5426  -10.2396 C   0  0  0  0  0  0  0  0  0  0  0  0
   23.7791  -20.7451   -9.0735 C   0  0  0  0  0  0  0  0  0  0  0  0
   22.9313  -22.3570  -14.4013 O   0  0  0  0  0  0  0  0  0  0  0  0
  1  2  1  0
  2  3  1  0
  4  3  1  0
  5  4  1  0
  5  1  1  0
  6  7  2  0
  5  6  1  1
  8  6  1  0
  9  8  1  0
 10  9  1  0
 11 10  1  0
 11 12  1  0
 12  8  1  0
 12 13  1  1
 14 13  2  0
 16 15  1  0
 17 16  2  0
 18 17  1  0
 19 25  1  0
 19 18  2  0
 20 19  1  0
 21 20  1  6
 21 22  1  0
 22 13  1  0
 23 21  1  0
 24 23  1  0
 25 26  2  0
 26 16  1  0
 27 23  2  0
M  END
$$$$
