PPY.pdb
     RDKit          3D

 27 29  0  0  1  0  0  0  0  0999 V2000
   25.6148  -17.7563  -16.9577 N   0  0  0  0  0  0  0  0  0  0  0  0
   25.0057  -17.2958  -18.2357 C   0  0  0  0  0  0  0  0  0  0  0  0
   24.6591  -18.6379  -18.8600 C   0  0  0  0  0  0  0  0  0  0  0  0
   24.1454  -19.4421  -17.6974 C   0  0  0  0  0  0  0  0  0  0  0  0
   24.6302  -18.7172  -16.4916 C   0  0  1  0  0  0  0  0  0  0  0  0
   25.1460  -19.6294  -15.4623 C   0  0  0  0  0  0  0  0  0  0  0  0
   24.2650  -20.2630  -14.7468 O   0  0  0  0  0  0  0  0  0  0  0  0
   26.4953  -19.9051  -15.1476 N   0  0  0  0  0  0  0  0  0  0  0  0
   27.6623  -19.3706  -15.7867 C   0  0  0  0  0  0  0  0  0  0  0  0
   28.8066  -19.6439  -14.7942 C   0  0  0  0  0  0  0  0  0  0  0  0
   28.3870  -20.9983  -14.2374 C   0  0  0  0  0  0  0  0  0  0  0  0
   26.9057  -20.7886  -14.0852 C   0  0  1  0  0  0  0  0  0  0  0  0
   26.7382  -20.1141  -12.7442 C   0  0  0  0  0  0  0  0  0  0  0  0
   27.0366  -18.8978  -12.6063 O   0  0  0  0  0  0  0  0  0  0  0  0
   20.1630  -21.3641  -12.2906 O   0  0  0  0  0  0  0  0  0  0  0  0
   21.3698  -20.7861  -11.8718 C   0  0  0  0  0  0  0  0  0  0  0  0
   21.4943  -20.4922  -10.5376 C   0  0  0  0  0  0  0  0  0  0  0  0
   22.6689  -19.9225  -10.0948 C   0  0  0  0  0  0  0  0  0  0  0  0
   23.7085  -19.6438  -10.9452 C   0  0  0  0  0  0  0  0  0  0  0  0
   24.9729  -19.0327  -10.4727 C   0  0  0  0  0  0  0  0  0  0  0  0
   26.0075  -20.1334  -10.3330 C   0  0  2  0  0  0  0  0  0  0  0  0
   26.2505  -20.7938  -11.6008 N   0  0  0  0  0  0  0  0  0  0  0  0
   25.5945  -21.1684   -9.3595 C   0  0  0  0  0  0  0  0  0  0  0  0
   25.4863  -22.5232   -9.7025 O   0  0  0  0  0  0  0  0  0  0  0  0
   23.5498  -19.9540  -12.2911 C   0  0  0  0  0  0  0  0  0  0  0  0
   22.3927  -20.5174  -12.7400 C   0  0  0  0  0  0  0  0  0  0  0  0
   25.3171  -20.8831   -8.1669 O   0  0  0  0  0  0  0  0  0  0  0  0
  1  2  1  0
  2  3  1  0
  4  3  1  0
  5  4  1  0
  5  1  1  0
  6  7  2  0
  5  6  1  1
  8  6  1  0
  9  8  1  0
 10  9  1  0
 11 10  1  0
 11 12  1  0
 12  8  1  0
 12 13  1  1
 14 13  2  0
 16 15  1  0
 17 16  2  0
 18 17  1  0
 19 25  1  0
 19 18  2  0
 20 19  1  0
 21 20  1  6
 21 22  1  0
 22 13  1  0
 23 21  1  0
 24 23  1  0
 25 26  2  0
 26 16  1  0
 27 23  2  0
M  END
$$$$
