PPY.pdb
     RDKit          3D

 27 29  0  0  1  0  0  0  0  0999 V2000
   27.1280  -19.4169  -16.7859 N   0  0  0  0  0  0  0  0  0  0  0  0
   27.3733  -18.1478  -17.5243 C   0  0  0  0  0  0  0  0  0  0  0  0
   27.0918  -17.1423  -16.4194 C   0  0  0  0  0  0  0  0  0  0  0  0
   27.7172  -17.7728  -15.2054 C   0  0  0  0  0  0  0  0  0  0  0  0
   27.8959  -19.2041  -15.5713 C   0  0  1  0  0  0  0  0  0  0  0  0
   27.5218  -20.1103  -14.4775 C   0  0  0  0  0  0  0  0  0  0  0  0
   26.3502  -20.6680  -14.5540 O   0  0  0  0  0  0  0  0  0  0  0  0
   28.2839  -20.4531  -13.3384 N   0  0  0  0  0  0  0  0  0  0  0  0
   29.6441  -20.0923  -13.0635 C   0  0  0  0  0  0  0  0  0  0  0  0
   29.8115  -20.3361  -11.5530 C   0  0  0  0  0  0  0  0  0  0  0  0
   28.9489  -21.5775  -11.3647 C   0  0  0  0  0  0  0  0  0  0  0  0
   27.7747  -21.2343  -12.2394 C   0  0  1  0  0  0  0  0  0  0  0  0
   26.8679  -20.3947  -11.3711 C   0  0  0  0  0  0  0  0  0  0  0  0
   27.0223  -19.1454  -11.3175 O   0  0  0  0  0  0  0  0  0  0  0  0
   20.7323  -22.9123  -13.5654 O   0  0  0  0  0  0  0  0  0  0  0  0
   21.5141  -22.0204  -12.8175 C   0  0  0  0  0  0  0  0  0  0  0  0
   22.7622  -21.7223  -13.3025 C   0  0  0  0  0  0  0  0  0  0  0  0
   23.5554  -20.8490  -12.5895 C   0  0  0  0  0  0  0  0  0  0  0  0
   23.1338  -20.2743  -11.4175 C   0  0  0  0  0  0  0  0  0  0  0  0
   23.9830  -19.3341  -10.6490 C   0  0  0  0  0  0  0  0  0  0  0  0
   24.9268  -20.1477   -9.7837 C   0  0  2  0  0  0  0  0  0  0  0  0
   25.8238  -20.9510  -10.5915 N   0  0  0  0  0  0  0  0  0  0  0  0
   24.2024  -21.0617   -8.8731 C   0  0  0  0  0  0  0  0  0  0  0  0
   24.4031  -22.4489   -8.8836 O   0  0  0  0  0  0  0  0  0  0  0  0
   21.8637  -20.5976  -10.9536 C   0  0  0  0  0  0  0  0  0  0  0  0
   21.0710  -21.4600  -11.6505 C   0  0  0  0  0  0  0  0  0  0  0  0
   23.3636  -20.6376   -8.0381 O   0  0  0  0  0  0  0  0  0  0  0  0
  1  2  1  0
  2  3  1  0
  4  3  1  0
  5  4  1  0
  5  1  1  0
  6  7  2  0
  5  6  1  1
  8  6  1  0
  9  8  1  0
 10  9  1  0
 11 10  1  0
 11 12  1  0
 12  8  1  0
 12 13  1  1
 14 13  2  0
 16 15  1  0
 17 16  2  0
 18 17  1  0
 19 25  1  0
 19 18  2  0
 20 19  1  0
 21 20  1  6
 21 22  1  0
 22 13  1  0
 23 21  1  0
 24 23  1  0
 25 26  2  0
 26 16  1  0
 27 23  2  0
M  END
$$$$
