PPY.pdb
     RDKit          3D

 27 29  0  0  1  0  0  0  0  0999 V2000
   25.2541  -20.3578  -16.2206 N   0  0  0  0  0  0  0  0  0  0  0  0
   24.7366  -20.7061  -17.5723 C   0  0  0  0  0  0  0  0  0  0  0  0
   25.6192  -21.9020  -17.8914 C   0  0  0  0  0  0  0  0  0  0  0  0
   25.6879  -22.6442  -16.5848 C   0  0  0  0  0  0  0  0  0  0  0  0
   25.2547  -21.6530  -15.5629 C   0  0  1  0  0  0  0  0  0  0  0  0
   26.0910  -21.6947  -14.3560 C   0  0  0  0  0  0  0  0  0  0  0  0
   25.9832  -22.7503  -13.6052 O   0  0  0  0  0  0  0  0  0  0  0  0
   27.0061  -20.7185  -13.9028 N   0  0  0  0  0  0  0  0  0  0  0  0
   27.3597  -19.4914  -14.5547 C   0  0  0  0  0  0  0  0  0  0  0  0
   28.0217  -18.6446  -13.4529 C   0  0  0  0  0  0  0  0  0  0  0  0
   28.7624  -19.7206  -12.6693 C   0  0  0  0  0  0  0  0  0  0  0  0
   27.7325  -20.8164  -12.6617 C   0  0  1  0  0  0  0  0  0  0  0  0
   26.8277  -20.4996  -11.4947 C   0  0  0  0  0  0  0  0  0  0  0  0
   25.7964  -19.7964  -11.6665 O   0  0  0  0  0  0  0  0  0  0  0  0
   29.3106  -18.4117   -4.7689 O   0  0  0  0  0  0  0  0  0  0  0  0
   28.6064  -19.3246   -5.5666 C   0  0  0  0  0  0  0  0  0  0  0  0
   29.2579  -19.8331   -6.6616 C   0  0  0  0  0  0  0  0  0  0  0  0
   28.5918  -20.7327   -7.4662 C   0  0  0  0  0  0  0  0  0  0  0  0
   27.3055  -21.1303   -7.2037 C   0  0  0  0  0  0  0  0  0  0  0  0
   26.5868  -22.0979   -8.0655 C   0  0  0  0  0  0  0  0  0  0  0  0
   26.0299  -21.3459   -9.2595 C   0  0  2  0  0  0  0  0  0  0  0  0
   27.0825  -20.9629  -10.1802 N   0  0  0  0  0  0  0  0  0  0  0  0
   25.3130  -20.1148   -8.8598 C   0  0  0  0  0  0  0  0  0  0  0  0
   24.0516  -20.1434   -8.2492 O   0  0  0  0  0  0  0  0  0  0  0  0
   26.6740  -20.5960   -6.0863 C   0  0  0  0  0  0  0  0  0  0  0  0
   27.3230  -19.7057   -5.2838 C   0  0  0  0  0  0  0  0  0  0  0  0
   25.8020  -18.9721   -9.0495 O   0  0  0  0  0  0  0  0  0  0  0  0
  1  2  1  0
  2  3  1  0
  4  3  1  0
  5  4  1  0
  5  1  1  0
  6  7  2  0
  5  6  1  1
  8  6  1  0
  9  8  1  0
 10  9  1  0
 11 10  1  0
 11 12  1  0
 12  8  1  0
 12 13  1  1
 14 13  2  0
 16 15  1  0
 17 16  2  0
 18 17  1  0
 19 25  1  0
 19 18  2  0
 20 19  1  0
 21 20  1  1
 21 22  1  0
 22 13  1  0
 23 21  1  0
 24 23  1  0
 25 26  2  0
 26 16  1  0
 27 23  2  0
M  END
$$$$
