PPY.pdb
     RDKit          3D

 27 29  0  0  1  0  0  0  0  0999 V2000
   24.5982  -22.1410  -16.1980 N   0  0  0  0  0  0  0  0  0  0  0  0
   23.5623  -21.4241  -16.9911 C   0  0  0  0  0  0  0  0  0  0  0  0
   23.0633  -20.4413  -15.9441 C   0  0  0  0  0  0  0  0  0  0  0  0
   24.3224  -20.0036  -15.2473 C   0  0  0  0  0  0  0  0  0  0  0  0
   25.3322  -21.0364  -15.6054 C   0  0  1  0  0  0  0  0  0  0  0  0
   26.1564  -21.4326  -14.4559 C   0  0  0  0  0  0  0  0  0  0  0  0
   25.8780  -22.5751  -13.9020 O   0  0  0  0  0  0  0  0  0  0  0  0
   27.2241  -20.7177  -13.8689 N   0  0  0  0  0  0  0  0  0  0  0  0
   27.8732  -19.5481  -14.3854 C   0  0  0  0  0  0  0  0  0  0  0  0
   28.6224  -18.9563  -13.1780 C   0  0  0  0  0  0  0  0  0  0  0  0
   29.0630  -20.2266  -12.4620 C   0  0  0  0  0  0  0  0  0  0  0  0
   27.8265  -21.0700  -12.6077 C   0  0  1  0  0  0  0  0  0  0  0  0
   26.9314  -20.6591  -11.4627 C   0  0  0  0  0  0  0  0  0  0  0  0
   26.0207  -19.8078  -11.6457 O   0  0  0  0  0  0  0  0  0  0  0  0
   29.7517  -18.3385   -5.0914 O   0  0  0  0  0  0  0  0  0  0  0  0
   28.9455  -19.2402   -5.8005 C   0  0  0  0  0  0  0  0  0  0  0  0
   27.5925  -19.0140   -5.7892 C   0  0  0  0  0  0  0  0  0  0  0  0
   26.7730  -19.8835   -6.4767 C   0  0  0  0  0  0  0  0  0  0  0  0
   27.2696  -20.9601   -7.1664 C   0  0  0  0  0  0  0  0  0  0  0  0
   26.3920  -21.8961   -7.9076 C   0  0  0  0  0  0  0  0  0  0  0  0
   25.9726  -21.2268   -9.2028 C   0  0  2  0  0  0  0  0  0  0  0  0
   27.0637  -21.1937  -10.1574 N   0  0  0  0  0  0  0  0  0  0  0  0
   25.5188  -19.8345   -8.9911 C   0  0  0  0  0  0  0  0  0  0  0  0
   24.1956  -19.5177   -8.6541 O   0  0  0  0  0  0  0  0  0  0  0  0
   28.6453  -21.1608   -7.1576 C   0  0  0  0  0  0  0  0  0  0  0  0
   29.4650  -20.3075   -6.4811 C   0  0  0  0  0  0  0  0  0  0  0  0
   26.3023  -18.8578   -9.1042 O   0  0  0  0  0  0  0  0  0  0  0  0
  1  2  1  0
  2  3  1  0
  4  3  1  0
  5  4  1  0
  5  1  1  0
  6  7  2  0
  5  6  1  1
  8  6  1  0
  9  8  1  0
 10  9  1  0
 11 10  1  0
 11 12  1  0
 12  8  1  0
 12 13  1  1
 14 13  2  0
 16 15  1  0
 17 16  2  0
 18 17  1  0
 19 25  1  0
 19 18  2  0
 20 19  1  0
 21 20  1  1
 21 22  1  0
 22 13  1  0
 23 21  1  0
 24 23  1  0
 25 26  2  0
 26 16  1  0
 27 23  2  0
M  END
$$$$
