PPY.pdb
     RDKit          3D

 27 29  0  0  1  0  0  0  0  0999 V2000
   27.6521  -20.5424  -18.4044 N   0  0  0  0  0  0  0  0  0  0  0  0
   28.2252  -20.9854  -19.7049 C   0  0  0  0  0  0  0  0  0  0  0  0
   29.6882  -21.1213  -19.3147 C   0  0  0  0  0  0  0  0  0  0  0  0
   29.6285  -21.7384  -17.9442 C   0  0  0  0  0  0  0  0  0  0  0  0
   28.2330  -21.5042  -17.4837 C   0  0  1  0  0  0  0  0  0  0  0  0
   28.1733  -21.0780  -16.0792 C   0  0  0  0  0  0  0  0  0  0  0  0
   28.4360  -21.9808  -15.1818 O   0  0  0  0  0  0  0  0  0  0  0  0
   27.8599  -19.7956  -15.5764 N   0  0  0  0  0  0  0  0  0  0  0  0
   27.5082  -18.6291  -16.3324 C   0  0  0  0  0  0  0  0  0  0  0  0
   26.8581  -17.6841  -15.3059 C   0  0  0  0  0  0  0  0  0  0  0  0
   27.7024  -17.9752  -14.0719 C   0  0  0  0  0  0  0  0  0  0  0  0
   27.8342  -19.4699  -14.1725 C   0  0  1  0  0  0  0  0  0  0  0  0
   26.5852  -20.0207  -13.5262 C   0  0  0  0  0  0  0  0  0  0  0  0
   25.5553  -20.2342  -14.2200 O   0  0  0  0  0  0  0  0  0  0  0  0
   27.6848  -18.4449   -6.3988 O   0  0  0  0  0  0  0  0  0  0  0  0
   27.2805  -19.3376   -7.4015 C   0  0  0  0  0  0  0  0  0  0  0  0
   28.2658  -20.0282   -8.0604 C   0  0  0  0  0  0  0  0  0  0  0  0
   27.9003  -20.9131   -9.0522 C   0  0  0  0  0  0  0  0  0  0  0  0
   26.5885  -21.1204   -9.3953 C   0  0  0  0  0  0  0  0  0  0  0  0
   26.1918  -22.0717  -10.4599 C   0  0  0  0  0  0  0  0  0  0  0  0
   25.5696  -21.2800  -11.5945 C   0  0  2  0  0  0  0  0  0  0  0  0
   26.5062  -20.3186  -12.1434 N   0  0  0  0  0  0  0  0  0  0  0  0
   24.3649  -20.5371  -11.1629 C   0  0  0  0  0  0  0  0  0  0  0  0
   24.3172  -19.1367  -11.1275 O   0  0  0  0  0  0  0  0  0  0  0  0
   25.6147  -20.4046   -8.7082 C   0  0  0  0  0  0  0  0  0  0  0  0
   25.9647  -19.5270   -7.7258 C   0  0  0  0  0  0  0  0  0  0  0  0
   23.3155  -21.1286  -10.8027 O   0  0  0  0  0  0  0  0  0  0  0  0
  1  2  1  0
  2  3  1  0
  4  3  1  0
  5  4  1  0
  5  1  1  0
  6  7  2  0
  5  6  1  1
  8  6  1  0
  9  8  1  0
 10  9  1  0
 11 10  1  0
 11 12  1  0
 12  8  1  0
 12 13  1  1
 14 13  2  0
 16 15  1  0
 17 16  2  0
 18 17  1  0
 19 25  1  0
 19 18  2  0
 20 19  1  0
 21 20  1  1
 21 22  1  0
 22 13  1  0
 23 21  1  0
 24 23  1  0
 25 26  2  0
 26 16  1  0
 27 23  2  0
M  END
$$$$
