PPY.pdb
     RDKit          3D

 27 29  0  0  1  0  0  0  0  0999 V2000
   27.3795  -33.5106   -8.9768 N   0  0  0  0  0  0  0  0  0  0  0  0
   26.0822  -33.7409   -9.6697 C   0  0  0  0  0  0  0  0  0  0  0  0
   25.7072  -35.0922   -9.0829 C   0  0  0  0  0  0  0  0  0  0  0  0
   26.1021  -34.9671   -7.6369 C   0  0  0  0  0  0  0  0  0  0  0  0
   27.0332  -33.8070   -7.5975 C   0  0  1  0  0  0  0  0  0  0  0  0
   28.2014  -34.0583   -6.7431 C   0  0  0  0  0  0  0  0  0  0  0  0
   29.2853  -34.4609   -7.3369 O   0  0  0  0  0  0  0  0  0  0  0  0
   28.2941  -33.9180   -5.3404 N   0  0  0  0  0  0  0  0  0  0  0  0
   27.2488  -33.5389   -4.4351 C   0  0  0  0  0  0  0  0  0  0  0  0
   27.7629  -33.9676   -3.0490 C   0  0  0  0  0  0  0  0  0  0  0  0
   29.2504  -33.6706   -3.1895 C   0  0  0  0  0  0  0  0  0  0  0  0
   29.4999  -34.1609   -4.5891 C   0  0  1  0  0  0  0  0  0  0  0  0
   29.7445  -35.6448   -4.4497 C   0  0  0  0  0  0  0  0  0  0  0  0
   28.7924  -36.4585   -4.5875 O   0  0  0  0  0  0  0  0  0  0  0  0
   37.0863  -35.7882   -2.5361 O   0  0  0  0  0  0  0  0  0  0  0  0
   35.9416  -36.3007   -3.1628 C   0  0  0  0  0  0  0  0  0  0  0  0
   35.5311  -37.5553   -2.7893 C   0  0  0  0  0  0  0  0  0  0  0  0
   34.4091  -38.0874   -3.3878 C   0  0  0  0  0  0  0  0  0  0  0  0
   33.6974  -37.4018   -4.3391 C   0  0  0  0  0  0  0  0  0  0  0  0
   32.4902  -37.9699   -4.9837 C   0  0  0  0  0  0  0  0  0  0  0  0
   31.2863  -37.6123   -4.1327 C   0  0  2  0  0  0  0  0  0  0  0  0
   31.0220  -36.1869   -4.1643 N   0  0  0  0  0  0  0  0  0  0  0  0
   31.4661  -38.0043   -2.7173 C   0  0  0  0  0  0  0  0  0  0  0  0
   31.4618  -37.0707   -1.6718 O   0  0  0  0  0  0  0  0  0  0  0  0
   34.1402  -36.1328   -4.6949 C   0  0  0  0  0  0  0  0  0  0  0  0
   35.2484  -35.5970   -4.1096 C   0  0  0  0  0  0  0  0  0  0  0  0
   31.6335  -39.2033   -2.3781 O   0  0  0  0  0  0  0  0  0  0  0  0
  1  2  1  0
  2  3  1  0
  4  3  1  0
  5  4  1  0
  5  1  1  0
  6  7  2  0
  5  6  1  1
  8  6  1  0
  9  8  1  0
 10  9  1  0
 11 10  1  0
 11 12  1  0
 12  8  1  0
 12 13  1  1
 14 13  2  0
 16 15  1  0
 17 16  2  0
 18 17  1  0
 19 25  1  0
 19 18  2  0
 20 19  1  0
 21 20  1  6
 21 22  1  0
 22 13  1  0
 23 21  1  0
 24 23  1  0
 25 26  2  0
 26 16  1  0
 27 23  2  0
M  END
$$$$
