PPY.pdb
     RDKit          3D

 27 29  0  0  1  0  0  0  0  0999 V2000
   27.4031  -19.7626  -16.6044 N   0  0  0  0  0  0  0  0  0  0  0  0
   27.7844  -18.5308  -17.3482 C   0  0  0  0  0  0  0  0  0  0  0  0
   27.5303  -17.4858  -16.2737 C   0  0  0  0  0  0  0  0  0  0  0  0
   28.0436  -18.1409  -15.0207 C   0  0  0  0  0  0  0  0  0  0  0  0
   28.1253  -19.5884  -15.3561 C   0  0  1  0  0  0  0  0  0  0  0  0
   27.6273  -20.4417  -14.2692 C   0  0  0  0  0  0  0  0  0  0  0  0
   26.4593  -20.9859  -14.4403 O   0  0  0  0  0  0  0  0  0  0  0  0
   28.2652  -20.7460  -13.0460 N   0  0  0  0  0  0  0  0  0  0  0  0
   29.6121  -20.4314  -12.6678 C   0  0  0  0  0  0  0  0  0  0  0  0
   29.6302  -20.5861  -11.1364 C   0  0  0  0  0  0  0  0  0  0  0  0
   28.6913  -21.7720  -10.9560 C   0  0  0  0  0  0  0  0  0  0  0  0
   27.6197  -21.4315  -11.9547 C   0  0  1  0  0  0  0  0  0  0  0  0
   26.6830  -20.4976  -11.2256 C   0  0  0  0  0  0  0  0  0  0  0  0
   26.9650  -19.2741  -11.1201 O   0  0  0  0  0  0  0  0  0  0  0  0
   21.0509  -23.1824  -14.2452 O   0  0  0  0  0  0  0  0  0  0  0  0
   21.7388  -22.2245  -13.4868 C   0  0  0  0  0  0  0  0  0  0  0  0
   21.0441  -21.6069  -12.4779 C   0  0  0  0  0  0  0  0  0  0  0  0
   21.6927  -20.6598  -11.7146 C   0  0  0  0  0  0  0  0  0  0  0  0
   23.0035  -20.3209  -11.9346 C   0  0  0  0  0  0  0  0  0  0  0  0
   23.7043  -19.3044  -11.1154 C   0  0  0  0  0  0  0  0  0  0  0  0
   24.5056  -20.0263  -10.0486 C   0  0  2  0  0  0  0  0  0  0  0  0
   25.4706  -20.9346  -10.6371 N   0  0  0  0  0  0  0  0  0  0  0  0
   23.6439  -20.8140   -9.1396 C   0  0  0  0  0  0  0  0  0  0  0  0
   23.8517  -22.1796   -8.9015 O   0  0  0  0  0  0  0  0  0  0  0  0
   23.6787  -20.9656  -12.9649 C   0  0  0  0  0  0  0  0  0  0  0  0
   23.0472  -21.9035  -13.7259 C   0  0  0  0  0  0  0  0  0  0  0  0
   22.6740  -20.2949   -8.5308 O   0  0  0  0  0  0  0  0  0  0  0  0
  1  2  1  0
  2  3  1  0
  4  3  1  0
  5  4  1  0
  5  1  1  0
  6  7  2  0
  5  6  1  1
  8  6  1  0
  9  8  1  0
 10  9  1  0
 11 10  1  0
 11 12  1  0
 12  8  1  0
 12 13  1  1
 14 13  2  0
 16 15  1  0
 17 16  2  0
 18 17  1  0
 19 25  1  0
 19 18  2  0
 20 19  1  0
 21 20  1  6
 21 22  1  0
 22 13  1  0
 23 21  1  0
 24 23  1  0
 25 26  2  0
 26 16  1  0
 27 23  2  0
M  END
$$$$
