PPY.pdb
     RDKit          3D

 27 29  0  0  1  0  0  0  0  0999 V2000
   24.1394  -19.4485  -15.9507 N   0  0  0  0  0  0  0  0  0  0  0  0
   23.5053  -19.3665  -17.2951 C   0  0  0  0  0  0  0  0  0  0  0  0
   24.5165  -20.1555  -18.1111 C   0  0  0  0  0  0  0  0  0  0  0  0
   24.8808  -21.2994  -17.2048 C   0  0  0  0  0  0  0  0  0  0  0  0
   24.4375  -20.8667  -15.8517 C   0  0  1  0  0  0  0  0  0  0  0  0
   25.4261  -21.1846  -14.8129 C   0  0  0  0  0  0  0  0  0  0  0  0
   25.2833  -22.3202  -14.1966 O   0  0  0  0  0  0  0  0  0  0  0  0
   26.5236  -20.4002  -14.3933 N   0  0  0  0  0  0  0  0  0  0  0  0
   26.9687  -19.1589  -14.9562 C   0  0  0  0  0  0  0  0  0  0  0  0
   27.8798  -18.5487  -13.8760 C   0  0  0  0  0  0  0  0  0  0  0  0
   28.5471  -19.8009  -13.3217 C   0  0  0  0  0  0  0  0  0  0  0  0
   27.3770  -20.7449  -13.2841 C   0  0  1  0  0  0  0  0  0  0  0  0
   26.6811  -20.4589  -11.9745 C   0  0  0  0  0  0  0  0  0  0  0  0
   25.6929  -19.6780  -11.9406 O   0  0  0  0  0  0  0  0  0  0  0  0
   29.0093  -18.4890   -4.8375 O   0  0  0  0  0  0  0  0  0  0  0  0
   28.5040  -19.4078   -5.7682 C   0  0  0  0  0  0  0  0  0  0  0  0
   27.1646  -19.3363   -6.0558 C   0  0  0  0  0  0  0  0  0  0  0  0
   26.6373  -20.2267   -6.9666 C   0  0  0  0  0  0  0  0  0  0  0  0
   27.4095  -21.1746   -7.5884 C   0  0  0  0  0  0  0  0  0  0  0  0
   26.8466  -22.1324   -8.5688 C   0  0  0  0  0  0  0  0  0  0  0  0
   26.1685  -21.3393   -9.6699 C   0  0  2  0  0  0  0  0  0  0  0  0
   27.0905  -21.0370  -10.7475 N   0  0  0  0  0  0  0  0  0  0  0  0
   25.6177  -20.0574   -9.1774 C   0  0  0  0  0  0  0  0  0  0  0  0
   26.2714  -18.8330   -9.3733 O   0  0  0  0  0  0  0  0  0  0  0  0
   28.7631  -21.2202   -7.2745 C   0  0  0  0  0  0  0  0  0  0  0  0
   29.2951  -20.3448   -6.3753 C   0  0  0  0  0  0  0  0  0  0  0  0
   24.5279  -20.0008   -8.5531 O   0  0  0  0  0  0  0  0  0  0  0  0
  1  2  1  0
  2  3  1  0
  4  3  1  0
  5  4  1  0
  5  1  1  0
  6  7  2  0
  5  6  1  1
  8  6  1  0
  9  8  1  0
 10  9  1  0
 11 10  1  0
 11 12  1  0
 12  8  1  0
 12 13  1  1
 14 13  2  0
 16 15  1  0
 17 16  2  0
 18 17  1  0
 19 25  1  0
 19 18  2  0
 20 19  1  0
 21 20  1  1
 21 22  1  0
 22 13  1  0
 23 21  1  0
 24 23  1  0
 25 26  2  0
 26 16  1  0
 27 23  2  0
M  END
$$$$
