PPY.pdb
     RDKit          3D

 27 29  0  0  1  0  0  0  0  0999 V2000
   27.8719  -20.2127  -16.2251 N   0  0  0  0  0  0  0  0  0  0  0  0
   28.5691  -19.0182  -16.7757 C   0  0  0  0  0  0  0  0  0  0  0  0
   27.7805  -17.9143  -16.0898 C   0  0  0  0  0  0  0  0  0  0  0  0
   27.5755  -18.4446  -14.6972 C   0  0  0  0  0  0  0  0  0  0  0  0
   27.8376  -19.9055  -14.8057 C   0  0  1  0  0  0  0  0  0  0  0  0
   26.8576  -20.7049  -14.0586 C   0  0  0  0  0  0  0  0  0  0  0  0
   25.9492  -21.3193  -14.7564 O   0  0  0  0  0  0  0  0  0  0  0  0
   26.7766  -20.8891  -12.6603 N   0  0  0  0  0  0  0  0  0  0  0  0
   27.7270  -20.4678  -11.6728 C   0  0  0  0  0  0  0  0  0  0  0  0
   26.9533  -20.5215  -10.3432 C   0  0  0  0  0  0  0  0  0  0  0  0
   26.0799  -21.7492  -10.5681 C   0  0  0  0  0  0  0  0  0  0  0  0
   25.6731  -21.5412  -12.0009 C   0  0  1  0  0  0  0  0  0  0  0  0
   24.4763  -20.6219  -11.9419 C   0  0  0  0  0  0  0  0  0  0  0  0
   24.6392  -19.3780  -11.8248 O   0  0  0  0  0  0  0  0  0  0  0  0
   20.4607  -24.9621  -15.9818 O   0  0  0  0  0  0  0  0  0  0  0  0
   20.7937  -23.7292  -15.4032 C   0  0  0  0  0  0  0  0  0  0  0  0
   19.7726  -23.0019  -14.8462 C   0  0  0  0  0  0  0  0  0  0  0  0
   20.0679  -21.7849  -14.2700 C   0  0  0  0  0  0  0  0  0  0  0  0
   21.3450  -21.2854  -14.2384 C   0  0  0  0  0  0  0  0  0  0  0  0
   21.6665  -19.9784  -13.6188 C   0  0  0  0  0  0  0  0  0  0  0  0
   21.9989  -20.2160  -12.1579 C   0  0  2  0  0  0  0  0  0  0  0  0
   23.1428  -21.0953  -12.0128 N   0  0  0  0  0  0  0  0  0  0  0  0
   20.8696  -20.8229  -11.4192 C   0  0  0  0  0  0  0  0  0  0  0  0
   20.9537  -22.0892  -10.8242 O   0  0  0  0  0  0  0  0  0  0  0  0
   22.3566  -22.0475  -14.8118 C   0  0  0  0  0  0  0  0  0  0  0  0
   22.0760  -23.2521  -15.3844 C   0  0  0  0  0  0  0  0  0  0  0  0
   19.7690  -20.2296  -11.2873 O   0  0  0  0  0  0  0  0  0  0  0  0
  1  2  1  0
  2  3  1  0
  4  3  1  0
  5  4  1  0
  5  1  1  0
  6  7  2  0
  5  6  1  1
  8  6  1  0
  9  8  1  0
 10  9  1  0
 11 10  1  0
 11 12  1  0
 12  8  1  0
 12 13  1  1
 14 13  2  0
 16 15  1  0
 17 16  2  0
 18 17  1  0
 19 25  1  0
 19 18  2  0
 20 19  1  0
 21 20  1  6
 21 22  1  0
 22 13  1  0
 23 21  1  0
 24 23  1  0
 25 26  2  0
 26 16  1  0
 27 23  2  0
M  END
$$$$
