PPY.pdb
     RDKit          3D

 27 29  0  0  1  0  0  0  0  0999 V2000
   26.5596  -17.9669  -19.4121 N   0  0  0  0  0  0  0  0  0  0  0  0
   27.1396  -17.4272  -20.6725 C   0  0  0  0  0  0  0  0  0  0  0  0
   28.4411  -16.8519  -20.1376 C   0  0  0  0  0  0  0  0  0  0  0  0
   28.8986  -17.8857  -19.1453 C   0  0  0  0  0  0  0  0  0  0  0  0
   27.6858  -18.6995  -18.8597 C   0  0  1  0  0  0  0  0  0  0  0  0
   27.5411  -19.0016  -17.4295 C   0  0  0  0  0  0  0  0  0  0  0  0
   27.7608  -20.2300  -17.0655 O   0  0  0  0  0  0  0  0  0  0  0  0
   27.1863  -18.1145  -16.3890 N   0  0  0  0  0  0  0  0  0  0  0  0
   26.8513  -16.7255  -16.5091 C   0  0  0  0  0  0  0  0  0  0  0  0
   26.1418  -16.3827  -15.1869 C   0  0  0  0  0  0  0  0  0  0  0  0
   26.9344  -17.2366  -14.2054 C   0  0  0  0  0  0  0  0  0  0  0  0
   27.0930  -18.5012  -15.0036 C   0  0  1  0  0  0  0  0  0  0  0  0
   25.8248  -19.2841  -14.7589 C   0  0  0  0  0  0  0  0  0  0  0  0
   24.8617  -19.1968  -15.5666 O   0  0  0  0  0  0  0  0  0  0  0  0
   26.4652  -19.6249   -7.6867 O   0  0  0  0  0  0  0  0  0  0  0  0
   26.0225  -20.2400   -8.8663 C   0  0  0  0  0  0  0  0  0  0  0  0
   26.9824  -20.7007   -9.7313 C   0  0  0  0  0  0  0  0  0  0  0  0
   26.5790  -21.3098  -10.9003 C   0  0  0  0  0  0  0  0  0  0  0  0
   25.2542  -21.4668  -11.2195 C   0  0  0  0  0  0  0  0  0  0  0  0
   24.8167  -22.1221  -12.4744 C   0  0  0  0  0  0  0  0  0  0  0  0
   24.5301  -21.0402  -13.4985 C   0  0  2  0  0  0  0  0  0  0  0  0
   25.6542  -20.1350  -13.6390 N   0  0  0  0  0  0  0  0  0  0  0  0
   23.3442  -20.2312  -13.1400 C   0  0  0  0  0  0  0  0  0  0  0  0
   22.0371  -20.7276  -13.2394 O   0  0  0  0  0  0  0  0  0  0  0  0
   24.3069  -20.9887  -10.3212 C   0  0  0  0  0  0  0  0  0  0  0  0
   24.6945  -20.3847   -9.1625 C   0  0  0  0  0  0  0  0  0  0  0  0
   23.4494  -19.0489  -12.7257 O   0  0  0  0  0  0  0  0  0  0  0  0
  1  2  1  0
  2  3  1  0
  4  3  1  0
  5  4  1  0
  5  1  1  0
  6  7  2  0
  5  6  1  1
  8  6  1  0
  9  8  1  0
 10  9  1  0
 11 10  1  0
 11 12  1  0
 12  8  1  0
 12 13  1  6
 14 13  2  0
 16 15  1  0
 17 16  2  0
 18 17  1  0
 19 25  1  0
 19 18  2  0
 20 19  1  0
 21 20  1  1
 21 22  1  0
 22 13  1  0
 23 21  1  0
 24 23  1  0
 25 26  2  0
 26 16  1  0
 27 23  2  0
M  END
$$$$
