PPY.pdb
     RDKit          3D

 27 29  0  0  1  0  0  0  0  0999 V2000
   25.3254  -18.5804  -17.8571 N   0  0  0  0  0  0  0  0  0  0  0  0
   24.6949  -18.5553  -19.2055 C   0  0  0  0  0  0  0  0  0  0  0  0
   24.9910  -19.9753  -19.6604 C   0  0  0  0  0  0  0  0  0  0  0  0
   24.7563  -20.7954  -18.4214 C   0  0  0  0  0  0  0  0  0  0  0  0
   24.7900  -19.8125  -17.3046 C   0  0  1  0  0  0  0  0  0  0  0  0
   25.5447  -20.3098  -16.1466 C   0  0  0  0  0  0  0  0  0  0  0  0
   24.9423  -21.1700  -15.3807 O   0  0  0  0  0  0  0  0  0  0  0  0
   26.8574  -19.9638  -15.7556 N   0  0  0  0  0  0  0  0  0  0  0  0
   27.7624  -19.0844  -16.4365 C   0  0  0  0  0  0  0  0  0  0  0  0
   28.8273  -18.7330  -15.3820 C   0  0  0  0  0  0  0  0  0  0  0  0
   28.9403  -20.0560  -14.6353 C   0  0  0  0  0  0  0  0  0  0  0  0
   27.4925  -20.4555  -14.5588 C   0  0  1  0  0  0  0  0  0  0  0  0
   26.9501  -19.7426  -13.3428 C   0  0  0  0  0  0  0  0  0  0  0  0
   26.5070  -18.5674  -13.4438 O   0  0  0  0  0  0  0  0  0  0  0  0
   20.3127  -19.8952   -8.0833 O   0  0  0  0  0  0  0  0  0  0  0  0
   21.3689  -20.1542   -8.9682 C   0  0  0  0  0  0  0  0  0  0  0  0
   22.2790  -21.1105   -8.5952 C   0  0  0  0  0  0  0  0  0  0  0  0
   23.3295  -21.3876   -9.4436 C   0  0  0  0  0  0  0  0  0  0  0  0
   23.4883  -20.7384  -10.6415 C   0  0  0  0  0  0  0  0  0  0  0  0
   24.6154  -21.0345  -11.5566 C   0  0  0  0  0  0  0  0  0  0  0  0
   25.7973  -20.1773  -11.1449 C   0  0  2  0  0  0  0  0  0  0  0  0
   26.9113  -20.3399  -12.0587 N   0  0  0  0  0  0  0  0  0  0  0  0
   26.2799  -20.5064   -9.7855 C   0  0  0  0  0  0  0  0  0  0  0  0
   26.9430  -21.7061   -9.4926 O   0  0  0  0  0  0  0  0  0  0  0  0
   22.5484  -19.7749  -10.9895 C   0  0  0  0  0  0  0  0  0  0  0  0
   21.5058  -19.4928  -10.1582 C   0  0  0  0  0  0  0  0  0  0  0  0
   26.1180  -19.7214   -8.8168 O   0  0  0  0  0  0  0  0  0  0  0  0
  1  2  1  0
  2  3  1  0
  4  3  1  0
  5  4  1  0
  5  1  1  0
  6  7  2  0
  5  6  1  1
  8  6  1  0
  9  8  1  0
 10  9  1  0
 11 10  1  0
 11 12  1  0
 12  8  1  0
 12 13  1  1
 14 13  2  0
 16 15  1  0
 17 16  2  0
 18 17  1  0
 19 25  1  0
 19 18  2  0
 20 19  1  0
 21 20  1  6
 21 22  1  0
 22 13  1  0
 23 21  1  0
 24 23  1  0
 25 26  2  0
 26 16  1  0
 27 23  2  0
M  END
$$$$
