PPY.pdb
     RDKit          3D

 27 29  0  0  1  0  0  0  0  0999 V2000
   27.8196  -20.2771  -16.4448 N   0  0  0  0  0  0  0  0  0  0  0  0
   28.6100  -19.1091  -16.9214 C   0  0  0  0  0  0  0  0  0  0  0  0
   27.8079  -17.9775  -16.2991 C   0  0  0  0  0  0  0  0  0  0  0  0
   27.4588  -18.5058  -14.9347 C   0  0  0  0  0  0  0  0  0  0  0  0
   27.6713  -19.9754  -15.0316 C   0  0  1  0  0  0  0  0  0  0  0  0
   26.5977  -20.7382  -14.3810 C   0  0  0  0  0  0  0  0  0  0  0  0
   25.7665  -21.3618  -15.1620 O   0  0  0  0  0  0  0  0  0  0  0  0
   26.3513  -20.8779  -12.9970 N   0  0  0  0  0  0  0  0  0  0  0  0
   27.1706  -20.4086  -11.9179 C   0  0  0  0  0  0  0  0  0  0  0  0
   26.2432  -20.4318  -10.6896 C   0  0  0  0  0  0  0  0  0  0  0  0
   25.4190  -21.6806  -10.9750 C   0  0  0  0  0  0  0  0  0  0  0  0
   25.1849  -21.5265  -12.4525 C   0  0  1  0  0  0  0  0  0  0  0  0
   23.9780  -20.6260  -12.5691 C   0  0  0  0  0  0  0  0  0  0  0  0
   24.0424  -19.4287  -12.1819 O   0  0  0  0  0  0  0  0  0  0  0  0
   23.1393  -21.3040  -19.2517 O   0  0  0  0  0  0  0  0  0  0  0  0
   22.8246  -20.7166  -18.0182 C   0  0  0  0  0  0  0  0  0  0  0  0
   22.7221  -21.5514  -16.9344 C   0  0  0  0  0  0  0  0  0  0  0  0
   22.4132  -21.0041  -15.7075 C   0  0  0  0  0  0  0  0  0  0  0  0
   22.2073  -19.6581  -15.5420 C   0  0  0  0  0  0  0  0  0  0  0  0
   21.8764  -19.0660  -14.2247 C   0  0  0  0  0  0  0  0  0  0  0  0
   21.5917  -20.1975  -13.2551 C   0  0  2  0  0  0  0  0  0  0  0  0
   22.7428  -21.0666  -13.1051 N   0  0  0  0  0  0  0  0  0  0  0  0
   20.4516  -21.0337  -13.6912 C   0  0  0  0  0  0  0  0  0  0  0  0
   19.1543  -20.5221  -13.8327 O   0  0  0  0  0  0  0  0  0  0  0  0
   22.3186  -18.8400  -16.6606 C   0  0  0  0  0  0  0  0  0  0  0  0
   22.6235  -19.3704  -17.8786 C   0  0  0  0  0  0  0  0  0  0  0  0
   20.5893  -22.2546  -13.9583 O   0  0  0  0  0  0  0  0  0  0  0  0
  1  2  1  0
  2  3  1  0
  4  3  1  0
  5  4  1  0
  5  1  1  0
  6  7  2  0
  5  6  1  6
  8  6  1  0
  9  8  1  0
 10  9  1  0
 11 10  1  0
 11 12  1  0
 12  8  1  0
 12 13  1  1
 14 13  2  0
 16 15  1  0
 17 16  2  0
 18 17  1  0
 19 25  1  0
 19 18  2  0
 20 19  1  0
 21 20  1  6
 21 22  1  0
 22 13  1  0
 23 21  1  0
 24 23  1  0
 25 26  2  0
 26 16  1  0
 27 23  2  0
M  END
$$$$
