CYK.pdb
     RDKit          3D

 28 28  0  0  1  0  0  0  0  0999 V2000
   27.6069  -10.1635  -17.2898 N   0  0  0  0  0  0  0  0  0  0  0  0
   26.4439  -10.8890  -16.7404 C   0  0  1  0  0  0  0  0  0  0  0  0
   26.9733  -11.8099  -15.6398 C   0  0  0  0  0  0  0  0  0  0  0  0
   27.9709  -13.1483  -16.3058 S   0  0  0  0  0  0  0  0  0  0  0  0
   25.5564   -9.8750  -16.1562 C   0  0  0  0  0  0  0  0  0  0  0  0
   26.0056   -8.9783  -15.3635 O   0  0  0  0  0  0  0  0  0  0  0  0
   20.5865   -3.0772  -14.5638 O   0  0  0  0  0  0  0  0  0  0  0  0
   21.4259   -4.1396  -14.9421 C   0  0  0  0  0  0  0  0  0  0  0  0
   21.5884   -4.5031  -16.2561 C   0  0  0  0  0  0  0  0  0  0  0  0
   22.4091   -5.5467  -16.6640 C   0  0  0  0  0  0  0  0  0  0  0  0
   23.0855   -6.2400  -15.6896 C   0  0  0  0  0  0  0  0  0  0  0  0
   23.9722   -7.3600  -16.0791 C   0  0  0  0  0  0  0  0  0  0  0  0
   23.3366   -8.7203  -15.8303 C   0  0  2  0  0  0  0  0  0  0  0  0
   24.1519   -9.7777  -16.3965 N   0  0  0  0  0  0  0  0  0  0  0  0
   21.9250   -8.7896  -16.2610 C   0  0  0  0  0  0  0  0  0  0  0  0
   21.6376   -8.8922  -17.5040 O   0  0  0  0  0  0  0  0  0  0  0  0
   22.9405   -5.8961  -14.3644 C   0  0  0  0  0  0  0  0  0  0  0  0
   22.1083   -4.8413  -13.9775 C   0  0  0  0  0  0  0  0  0  0  0  0
   20.8335   -8.7510  -15.3564 N   0  0  0  0  0  0  0  0  0  0  0  0
   19.4698   -8.9540  -15.8822 C   0  0  1  0  0  0  0  0  0  0  0  0
   18.7636  -10.0027  -15.0453 C   0  0  0  0  0  0  0  0  0  0  0  0
   17.4089  -10.3580  -15.5651 C   0  0  0  0  0  0  0  0  0  0  0  0
   16.7363  -11.4344  -14.7357 C   0  0  0  0  0  0  0  0  0  0  0  0
   15.3764  -11.7320  -15.3378 C   0  0  0  0  0  0  0  0  0  0  0  0
   14.6132  -12.6421  -14.5136 N   0  0  0  0  0  0  0  0  0  0  0  0
   18.7460   -7.6865  -15.7639 C   0  0  0  0  0  0  0  0  0  0  0  0
   17.8946   -7.2786  -16.7659 O   0  0  0  0  0  0  0  0  0  0  0  0
   18.8901   -6.9618  -14.7610 O   0  0  0  0  0  0  0  0  0  0  0  0
  2  3  1  0
  2  1  1  1
  3  4  1  0
  5  2  1  0
  5  6  2  0
  8  9  2  0
  8  7  1  0
 10  9  1  0
 11 10  2  0
 12 11  1  0
 13 12  1  6
 13 14  1  0
 14  5  1  0
 15 13  1  0
 15 19  1  0
 16 15  2  0
 17 11  1  0
 17 18  2  0
 18  8  1  0
 20 19  1  0
 20 26  1  0
 20 21  1  1
 22 21  1  0
 23 22  1  0
 24 23  1  0
 25 24  1  0
 26 28  2  0
 26 27  1  0
M  END
$$$$
