CYK.pdb
     RDKit          3D

 28 28  0  0  1  0  0  0  0  0999 V2000
   30.0941  -22.9314  -17.8172 N   0  0  0  0  0  0  0  0  0  0  0  0
   29.3220  -21.6807  -17.6740 C   0  0  1  0  0  0  0  0  0  0  0  0
   28.4537  -21.5478  -18.9262 C   0  0  0  0  0  0  0  0  0  0  0  0
   27.2279  -20.2443  -18.7585 S   0  0  0  0  0  0  0  0  0  0  0  0
   28.4672  -21.8499  -16.4917 C   0  0  0  0  0  0  0  0  0  0  0  0
   27.9381  -22.9797  -16.2126 O   0  0  0  0  0  0  0  0  0  0  0  0
   24.4011  -20.7321   -8.6976 O   0  0  0  0  0  0  0  0  0  0  0  0
   25.2086  -20.5646   -9.8361 C   0  0  0  0  0  0  0  0  0  0  0  0
   26.4536  -21.1354   -9.9327 C   0  0  0  0  0  0  0  0  0  0  0  0
   27.2765  -20.9900  -11.0420 C   0  0  0  0  0  0  0  0  0  0  0  0
   26.8049  -20.2331  -12.0871 C   0  0  0  0  0  0  0  0  0  0  0  0
   27.6484  -20.0518  -13.2903 C   0  0  0  0  0  0  0  0  0  0  0  0
   27.3252  -21.0577  -14.3857 C   0  0  2  0  0  0  0  0  0  0  0  0
   28.1438  -20.8181  -15.5588 N   0  0  0  0  0  0  0  0  0  0  0  0
   25.8829  -21.1343  -14.6972 C   0  0  0  0  0  0  0  0  0  0  0  0
   25.3412  -20.2521  -15.4498 O   0  0  0  0  0  0  0  0  0  0  0  0
   25.5600  -19.6495  -12.0161 C   0  0  0  0  0  0  0  0  0  0  0  0
   24.7489  -19.8098  -10.8885 C   0  0  0  0  0  0  0  0  0  0  0  0
   25.0339  -22.1566  -14.2018 N   0  0  0  0  0  0  0  0  0  0  0  0
   23.6208  -22.1718  -14.6263 C   0  0  1  0  0  0  0  0  0  0  0  0
   23.1375  -23.6071  -14.6995 C   0  0  0  0  0  0  0  0  0  0  0  0
   21.6915  -23.7251  -15.0559 C   0  0  0  0  0  0  0  0  0  0  0  0
   21.2404  -25.1683  -15.1675 C   0  0  0  0  0  0  0  0  0  0  0  0
   19.7992  -25.1909  -15.6397 C   0  0  0  0  0  0  0  0  0  0  0  0
   19.3461  -26.5364  -15.9128 N   0  0  0  0  0  0  0  0  0  0  0  0
   22.8372  -21.4585  -13.6157 C   0  0  0  0  0  0  0  0  0  0  0  0
   21.8937  -20.5315  -13.9976 O   0  0  0  0  0  0  0  0  0  0  0  0
   23.0124  -21.6776  -12.4020 O   0  0  0  0  0  0  0  0  0  0  0  0
  2  3  1  0
  2  1  1  6
  3  4  1  0
  5  2  1  0
  5  6  2  0
  8  9  2  0
  8  7  1  0
 10  9  1  0
 11 10  2  0
 12 11  1  0
 13 12  1  1
 13 14  1  0
 14  5  1  0
 15 13  1  0
 15 19  1  0
 16 15  2  0
 17 11  1  0
 17 18  2  0
 18  8  1  0
 20 19  1  0
 20 26  1  0
 20 21  1  1
 22 21  1  0
 23 22  1  0
 24 23  1  0
 25 24  1  0
 26 28  2  0
 26 27  1  0
M  END
$$$$
