CYK.pdb
     RDKit          3D

 28 28  0  0  1  0  0  0  0  0999 V2000
   27.4508  -22.9325  -16.4741 N   0  0  0  0  0  0  0  0  0  0  0  0
   26.2192  -23.7380  -16.3512 C   0  0  1  0  0  0  0  0  0  0  0  0
   26.5721  -24.9649  -15.5088 C   0  0  0  0  0  0  0  0  0  0  0  0
   27.9100  -25.9181  -16.2378 S   0  0  0  0  0  0  0  0  0  0  0  0
   25.2449  -22.9056  -15.6335 C   0  0  0  0  0  0  0  0  0  0  0  0
   25.5244  -21.7070  -15.2877 O   0  0  0  0  0  0  0  0  0  0  0  0
   18.5530  -17.6789  -14.6520 O   0  0  0  0  0  0  0  0  0  0  0  0
   19.5765  -18.5872  -14.9741 C   0  0  0  0  0  0  0  0  0  0  0  0
   20.8265  -18.5005  -14.4125 C   0  0  0  0  0  0  0  0  0  0  0  0
   21.8594  -19.3805  -14.7084 C   0  0  0  0  0  0  0  0  0  0  0  0
   21.5998  -20.3831  -15.6113 C   0  0  0  0  0  0  0  0  0  0  0  0
   22.6718  -21.3445  -15.9559 C   0  0  0  0  0  0  0  0  0  0  0  0
   22.9004  -22.3790  -14.8633 C   0  0  2  0  0  0  0  0  0  0  0  0
   23.9312  -23.3203  -15.2570 N   0  0  0  0  0  0  0  0  0  0  0  0
   21.6561  -23.0411  -14.4204 C   0  0  0  0  0  0  0  0  0  0  0  0
   21.0626  -23.8731  -15.1909 O   0  0  0  0  0  0  0  0  0  0  0  0
   20.3551  -20.4926  -16.1891 C   0  0  0  0  0  0  0  0  0  0  0  0
   19.3302  -19.5947  -15.8757 C   0  0  0  0  0  0  0  0  0  0  0  0
   21.0596  -22.8082  -13.1550 N   0  0  0  0  0  0  0  0  0  0  0  0
   19.9505  -23.6804  -12.7230 C   0  0  1  0  0  0  0  0  0  0  0  0
   19.8297  -23.6224  -11.2127 C   0  0  0  0  0  0  0  0  0  0  0  0
   18.7000  -24.4416  -10.6795 C   0  0  0  0  0  0  0  0  0  0  0  0
   18.7047  -24.5152   -9.1651 C   0  0  0  0  0  0  0  0  0  0  0  0
   17.5315  -25.3656   -8.7171 C   0  0  0  0  0  0  0  0  0  0  0  0
   17.4876  -25.5026   -7.2785 N   0  0  0  0  0  0  0  0  0  0  0  0
   18.7143  -23.1684  -13.3177 C   0  0  0  0  0  0  0  0  0  0  0  0
   17.7395  -24.0401  -13.7482 O   0  0  0  0  0  0  0  0  0  0  0  0
   18.5277  -21.9431  -13.4436 O   0  0  0  0  0  0  0  0  0  0  0  0
  2  3  1  0
  2  1  1  1
  3  4  1  0
  5  2  1  0
  5  6  2  0
  8  9  2  0
  8  7  1  0
 10  9  1  0
 11 10  2  0
 12 11  1  0
 13 12  1  6
 13 14  1  0
 14  5  1  0
 15 13  1  0
 15 19  1  0
 16 15  2  0
 17 11  1  0
 17 18  2  0
 18  8  1  0
 20 19  1  0
 20 26  1  0
 20 21  1  1
 22 21  1  0
 23 22  1  0
 24 23  1  0
 25 24  1  0
 26 28  2  0
 26 27  1  0
M  END
$$$$
