CYK.pdb
     RDKit          3D

 28 28  0  0  1  0  0  0  0  0999 V2000
   30.1092  -23.0117  -17.5278 N   0  0  0  0  0  0  0  0  0  0  0  0
   29.1336  -21.9036  -17.4916 C   0  0  1  0  0  0  0  0  0  0  0  0
   28.2277  -22.0682  -18.7129 C   0  0  0  0  0  0  0  0  0  0  0  0
   29.0479  -21.5640  -20.2305 S   0  0  0  0  0  0  0  0  0  0  0  0
   28.3483  -22.0780  -16.2627 C   0  0  0  0  0  0  0  0  0  0  0  0
   28.0258  -23.2411  -15.8415 O   0  0  0  0  0  0  0  0  0  0  0  0
   23.8146  -20.7766   -8.7598 O   0  0  0  0  0  0  0  0  0  0  0  0
   24.6585  -20.6189   -9.8730 C   0  0  0  0  0  0  0  0  0  0  0  0
   25.9565  -21.0666   -9.8685 C   0  0  0  0  0  0  0  0  0  0  0  0
   26.8164  -20.9270  -10.9501 C   0  0  0  0  0  0  0  0  0  0  0  0
   26.3267  -20.3068  -12.0741 C   0  0  0  0  0  0  0  0  0  0  0  0
   27.2084  -20.1369  -13.2513 C   0  0  0  0  0  0  0  0  0  0  0  0
   27.0312  -21.2469  -14.2774 C   0  0  2  0  0  0  0  0  0  0  0  0
   27.8762  -21.0156  -15.4332 N   0  0  0  0  0  0  0  0  0  0  0  0
   25.6182  -21.4858  -14.6369 C   0  0  0  0  0  0  0  0  0  0  0  0
   25.0389  -20.7347  -15.4962 O   0  0  0  0  0  0  0  0  0  0  0  0
   25.0289  -19.8484  -12.1051 C   0  0  0  0  0  0  0  0  0  0  0  0
   24.1813  -20.0002  -11.0036 C   0  0  0  0  0  0  0  0  0  0  0  0
   24.8385  -22.5285  -14.0747 N   0  0  0  0  0  0  0  0  0  0  0  0
   23.4359  -22.6773  -14.5080 C   0  0  1  0  0  0  0  0  0  0  0  0
   23.0128  -24.1236  -14.3402 C   0  0  0  0  0  0  0  0  0  0  0  0
   21.5967  -24.3745  -14.7444 C   0  0  0  0  0  0  0  0  0  0  0  0
   21.1977  -25.8278  -14.5780 C   0  0  0  0  0  0  0  0  0  0  0  0
   19.8136  -26.0215  -15.1673 C   0  0  0  0  0  0  0  0  0  0  0  0
   19.4181  -27.4120  -15.1601 N   0  0  0  0  0  0  0  0  0  0  0  0
   22.6041  -21.8366  -13.6446 C   0  0  0  0  0  0  0  0  0  0  0  0
   21.6982  -20.9590  -14.1965 O   0  0  0  0  0  0  0  0  0  0  0  0
   22.7040  -21.9016  -12.4046 O   0  0  0  0  0  0  0  0  0  0  0  0
  2  3  1  0
  2  1  1  6
  3  4  1  0
  5  2  1  0
  5  6  2  0
  8  9  2  0
  8  7  1  0
 10  9  1  0
 11 10  2  0
 12 11  1  0
 13 12  1  1
 13 14  1  0
 14  5  1  0
 15 13  1  0
 15 19  1  0
 16 15  2  0
 17 11  1  0
 17 18  2  0
 18  8  1  0
 20 19  1  0
 20 26  1  0
 20 21  1  1
 22 21  1  0
 23 22  1  0
 24 23  1  0
 25 24  1  0
 26 28  2  0
 26 27  1  0
M  END
$$$$
