CYK.pdb
     RDKit          3D

 28 28  0  0  1  0  0  0  0  0999 V2000
   28.5620  -20.3466  -15.9891 N   0  0  0  0  0  0  0  0  0  0  0  0
   27.7727  -19.3625  -15.2213 C   0  0  1  0  0  0  0  0  0  0  0  0
   27.0330  -18.4934  -16.2398 C   0  0  0  0  0  0  0  0  0  0  0  0
   28.0411  -17.1179  -16.8070 S   0  0  0  0  0  0  0  0  0  0  0  0
   26.8049  -20.1307  -14.4272 C   0  0  0  0  0  0  0  0  0  0  0  0
   26.4243  -21.2954  -14.7917 O   0  0  0  0  0  0  0  0  0  0  0  0
   30.6714  -21.7886   -8.9653 O   0  0  0  0  0  0  0  0  0  0  0  0
   29.4100  -21.4001   -9.4493 C   0  0  0  0  0  0  0  0  0  0  0  0
   29.2090  -21.0698  -10.7668 C   0  0  0  0  0  0  0  0  0  0  0  0
   27.9771  -20.6820  -11.2776 C   0  0  0  0  0  0  0  0  0  0  0  0
   26.9161  -20.6319  -10.4060 C   0  0  0  0  0  0  0  0  0  0  0  0
   25.5840  -20.2243  -10.9074 C   0  0  0  0  0  0  0  0  0  0  0  0
   25.3902  -20.5524  -12.3808 C   0  0  2  0  0  0  0  0  0  0  0  0
   26.2052  -19.6853  -13.2100 N   0  0  0  0  0  0  0  0  0  0  0  0
   23.9707  -20.5712  -12.7902 C   0  0  0  0  0  0  0  0  0  0  0  0
   23.3900  -19.4863  -13.1423 O   0  0  0  0  0  0  0  0  0  0  0  0
   27.0903  -20.9580   -9.0799 C   0  0  0  0  0  0  0  0  0  0  0  0
   28.3404  -21.3457   -8.5882 C   0  0  0  0  0  0  0  0  0  0  0  0
   23.1861  -21.7521  -12.8212 N   0  0  0  0  0  0  0  0  0  0  0  0
   21.8090  -21.6745  -13.3454 C   0  0  1  0  0  0  0  0  0  0  0  0
   21.2605  -23.0777  -13.5161 C   0  0  0  0  0  0  0  0  0  0  0  0
   19.8708  -23.1052  -14.0635 C   0  0  0  0  0  0  0  0  0  0  0  0
   19.3208  -24.5140  -14.1718 C   0  0  0  0  0  0  0  0  0  0  0  0
   17.9431  -24.4497  -14.8030 C   0  0  0  0  0  0  0  0  0  0  0  0
   17.3701  -25.7660  -14.9735 N   0  0  0  0  0  0  0  0  0  0  0  0
   20.9904  -20.9616  -12.3627 C   0  0  0  0  0  0  0  0  0  0  0  0
   19.9901  -20.1124  -12.7794 O   0  0  0  0  0  0  0  0  0  0  0  0
   21.1865  -21.1110  -11.1416 O   0  0  0  0  0  0  0  0  0  0  0  0
  2  3  1  0
  2  1  1  6
  3  4  1  0
  5  2  1  0
  5  6  2  0
  8  9  2  0
  8  7  1  0
 10  9  1  0
 11 10  2  0
 12 11  1  0
 13 12  1  1
 13 14  1  0
 14  5  1  0
 15 13  1  0
 15 19  1  0
 16 15  2  0
 17 11  1  0
 17 18  2  0
 18  8  1  0
 20 19  1  0
 20 26  1  0
 20 21  1  1
 22 21  1  0
 23 22  1  0
 24 23  1  0
 25 24  1  0
 26 28  2  0
 26 27  1  0
M  END
$$$$
