CYK.pdb
     RDKit          3D

 28 28  0  0  1  0  0  0  0  0999 V2000
   27.5283  -22.1529  -18.0528 N   0  0  0  0  0  0  0  0  0  0  0  0
   27.6311  -20.9315  -17.2291 C   0  0  1  0  0  0  0  0  0  0  0  0
   26.8705  -19.8302  -17.9695 C   0  0  0  0  0  0  0  0  0  0  0  0
   27.6253  -19.4407  -19.5534 S   0  0  0  0  0  0  0  0  0  0  0  0
   26.9620  -21.2283  -15.9558 C   0  0  0  0  0  0  0  0  0  0  0  0
   25.9999  -22.0677  -15.8924 O   0  0  0  0  0  0  0  0  0  0  0  0
   24.1551  -20.6429   -7.5456 O   0  0  0  0  0  0  0  0  0  0  0  0
   24.9344  -20.6030   -8.7150 C   0  0  0  0  0  0  0  0  0  0  0  0
   25.2819  -21.7445   -9.3943 C   0  0  0  0  0  0  0  0  0  0  0  0
   26.0498  -21.7407  -10.5516 C   0  0  0  0  0  0  0  0  0  0  0  0
   26.4750  -20.5237  -11.0270 C   0  0  0  0  0  0  0  0  0  0  0  0
   27.2956  -20.4723  -12.2583 C   0  0  0  0  0  0  0  0  0  0  0  0
   26.5090  -20.8671  -13.4999 C   0  0  2  0  0  0  0  0  0  0  0  0
   27.2949  -20.6402  -14.6976 N   0  0  0  0  0  0  0  0  0  0  0  0
   25.1713  -20.2430  -13.5633 C   0  0  0  0  0  0  0  0  0  0  0  0
   25.0345  -19.0663  -14.0479 O   0  0  0  0  0  0  0  0  0  0  0  0
   26.1406  -19.3638  -10.3650 C   0  0  0  0  0  0  0  0  0  0  0  0
   25.3662  -19.3923   -9.2012 C   0  0  0  0  0  0  0  0  0  0  0  0
   23.9914  -20.8855  -13.1093 N   0  0  0  0  0  0  0  0  0  0  0  0
   22.7054  -20.1716  -13.2273 C   0  0  1  0  0  0  0  0  0  0  0  0
   22.3407  -20.0403  -14.6932 C   0  0  0  0  0  0  0  0  0  0  0  0
   21.0196  -19.3790  -14.9153 C   0  0  0  0  0  0  0  0  0  0  0  0
   20.6580  -19.2911  -16.3851 C   0  0  0  0  0  0  0  0  0  0  0  0
   19.3861  -18.4765  -16.5238 C   0  0  0  0  0  0  0  0  0  0  0  0
   18.9103  -18.4544  -17.8889 N   0  0  0  0  0  0  0  0  0  0  0  0
   21.6805  -20.9713  -12.5534 C   0  0  0  0  0  0  0  0  0  0  0  0
   20.7950  -20.3736  -11.6852 O   0  0  0  0  0  0  0  0  0  0  0  0
   21.5958  -22.1980  -12.7535 O   0  0  0  0  0  0  0  0  0  0  0  0
  2  3  1  0
  2  1  1  6
  3  4  1  0
  5  2  1  0
  5  6  2  0
  8  9  2  0
  8  7  1  0
 10  9  1  0
 11 10  2  0
 12 11  1  0
 13 12  1  1
 13 14  1  0
 14  5  1  0
 15 13  1  0
 15 19  1  0
 16 15  2  0
 17 11  1  0
 17 18  2  0
 18  8  1  0
 20 19  1  0
 20 26  1  0
 20 21  1  6
 22 21  1  0
 23 22  1  0
 24 23  1  0
 25 24  1  0
 26 28  2  0
 26 27  1  0
M  END
$$$$
