CYK.pdb
     RDKit          3D

 28 28  0  0  1  0  0  0  0  0999 V2000
   25.5208  -25.0621  -16.0128 N   0  0  0  0  0  0  0  0  0  0  0  0
   25.7137  -23.5986  -15.9722 C   0  0  1  0  0  0  0  0  0  0  0  0
   24.6571  -22.9848  -16.8922 C   0  0  0  0  0  0  0  0  0  0  0  0
   24.8304  -23.5541  -18.5881 S   0  0  0  0  0  0  0  0  0  0  0  0
   25.4676  -23.1826  -14.5853 C   0  0  0  0  0  0  0  0  0  0  0  0
   24.6169  -23.7926  -13.8513 O   0  0  0  0  0  0  0  0  0  0  0  0
   25.8602  -19.4659   -6.5707 O   0  0  0  0  0  0  0  0  0  0  0  0
   26.1274  -19.8296   -7.9022 C   0  0  0  0  0  0  0  0  0  0  0  0
   25.9515  -18.9516   -8.9431 C   0  0  0  0  0  0  0  0  0  0  0  0
   26.2057  -19.2781  -10.2689 C   0  0  0  0  0  0  0  0  0  0  0  0
   26.6557  -20.5488  -10.5344 C   0  0  0  0  0  0  0  0  0  0  0  0
   26.9402  -20.9401  -11.9337 C   0  0  0  0  0  0  0  0  0  0  0  0
   25.7807  -21.6869  -12.5774 C   0  0  2  0  0  0  0  0  0  0  0  0
   26.1218  -22.0978  -13.9258 N   0  0  0  0  0  0  0  0  0  0  0  0
   24.5032  -20.9480  -12.5074 C   0  0  0  0  0  0  0  0  0  0  0  0
   23.9550  -20.7200  -11.3735 O   0  0  0  0  0  0  0  0  0  0  0  0
   26.8406  -21.4488   -9.5092 C   0  0  0  0  0  0  0  0  0  0  0  0
   26.5780  -21.0975   -8.1816 C   0  0  0  0  0  0  0  0  0  0  0  0
   23.8251  -20.4576  -13.6523 N   0  0  0  0  0  0  0  0  0  0  0  0
   22.5880  -19.6759  -13.4627 C   0  0  1  0  0  0  0  0  0  0  0  0
   22.2558  -18.9478  -14.7504 C   0  0  0  0  0  0  0  0  0  0  0  0
   20.9858  -18.1648  -14.6745 C   0  0  0  0  0  0  0  0  0  0  0  0
   20.6308  -17.5111  -15.9957 C   0  0  0  0  0  0  0  0  0  0  0  0
   19.4429  -16.5932  -15.7791 C   0  0  0  0  0  0  0  0  0  0  0  0
   19.0946  -15.8744  -16.9841 N   0  0  0  0  0  0  0  0  0  0  0  0
   21.5047  -20.6114  -13.1536 C   0  0  0  0  0  0  0  0  0  0  0  0
   21.4447  -21.8344  -13.7828 O   0  0  0  0  0  0  0  0  0  0  0  0
   20.6253  -20.3156  -12.3224 O   0  0  0  0  0  0  0  0  0  0  0  0
  2  3  1  0
  2  1  1  1
  3  4  1  0
  5  2  1  0
  5  6  2  0
  8  9  2  0
  8  7  1  0
 10  9  1  0
 11 10  2  0
 12 11  1  0
 13 12  1  6
 13 14  1  0
 14  5  1  0
 15 13  1  0
 15 19  1  0
 16 15  2  0
 17 11  1  0
 17 18  2  0
 18  8  1  0
 20 19  1  0
 20 26  1  0
 20 21  1  6
 22 21  1  0
 23 22  1  0
 24 23  1  0
 25 24  1  0
 26 28  2  0
 26 27  1  0
M  END
$$$$
