CYK.pdb
     RDKit          3D

 28 28  0  0  1  0  0  0  0  0999 V2000
   28.1327  -22.8724  -18.0488 N   0  0  0  0  0  0  0  0  0  0  0  0
   28.0651  -21.5167  -17.4674 C   0  0  1  0  0  0  0  0  0  0  0  0
   27.2650  -20.6530  -18.4439 C   0  0  0  0  0  0  0  0  0  0  0  0
   28.1727  -20.3404  -19.9633 S   0  0  0  0  0  0  0  0  0  0  0  0
   27.3338  -21.6413  -16.1997 C   0  0  0  0  0  0  0  0  0  0  0  0
   26.4140  -22.5162  -16.0482 O   0  0  0  0  0  0  0  0  0  0  0  0
   24.4706  -20.6524   -7.8633 O   0  0  0  0  0  0  0  0  0  0  0  0
   25.2303  -20.6030   -9.0452 C   0  0  0  0  0  0  0  0  0  0  0  0
   25.3670  -19.4460   -9.7718 C   0  0  0  0  0  0  0  0  0  0  0  0
   26.1094  -19.3625  -10.9425 C   0  0  0  0  0  0  0  0  0  0  0  0
   26.7324  -20.5057  -11.3817 C   0  0  0  0  0  0  0  0  0  0  0  0
   27.5350  -20.4626  -12.6251 C   0  0  0  0  0  0  0  0  0  0  0  0
   26.7641  -20.9718  -13.8345 C   0  0  2  0  0  0  0  0  0  0  0  0
   27.5569  -20.8362  -15.0414 N   0  0  0  0  0  0  0  0  0  0  0  0
   25.4189  -20.3737  -13.9601 C   0  0  0  0  0  0  0  0  0  0  0  0
   25.2840  -19.1904  -14.4288 O   0  0  0  0  0  0  0  0  0  0  0  0
   26.6116  -21.6792  -10.6721 C   0  0  0  0  0  0  0  0  0  0  0  0
   25.8585  -21.7393   -9.4956 C   0  0  0  0  0  0  0  0  0  0  0  0
   24.2297  -21.0492  -13.5849 N   0  0  0  0  0  0  0  0  0  0  0  0
   22.9469  -20.3249  -13.6684 C   0  0  1  0  0  0  0  0  0  0  0  0
   22.3439  -20.5351  -15.0436 C   0  0  0  0  0  0  0  0  0  0  0  0
   22.3885  -19.3122  -15.9004 C   0  0  0  0  0  0  0  0  0  0  0  0
   21.8002  -19.5504  -17.2774 C   0  0  0  0  0  0  0  0  0  0  0  0
   22.0439  -18.3189  -18.1287 C   0  0  0  0  0  0  0  0  0  0  0  0
   21.5484  -18.4922  -19.4757 N   0  0  0  0  0  0  0  0  0  0  0  0
   22.0432  -20.8880  -12.6632 C   0  0  0  0  0  0  0  0  0  0  0  0
   20.8620  -20.2499  -12.3581 O   0  0  0  0  0  0  0  0  0  0  0  0
   22.3286  -21.9463  -12.0713 O   0  0  0  0  0  0  0  0  0  0  0  0
  2  3  1  0
  2  1  1  6
  3  4  1  0
  5  2  1  0
  5  6  2  0
  8  9  2  0
  8  7  1  0
 10  9  1  0
 11 10  2  0
 12 11  1  0
 13 12  1  1
 13 14  1  0
 14  5  1  0
 15 13  1  0
 15 19  1  0
 16 15  2  0
 17 11  1  0
 17 18  2  0
 18  8  1  0
 20 19  1  0
 20 26  1  0
 20 21  1  6
 22 21  1  0
 23 22  1  0
 24 23  1  0
 25 24  1  0
 26 28  2  0
 26 27  1  0
M  END
$$$$
