CYK.pdb
     RDKit          3D

 28 28  0  0  1  0  0  0  0  0999 V2000
   30.0582  -23.5028  -17.6764 N   0  0  0  0  0  0  0  0  0  0  0  0
   29.1125  -22.3753  -17.8002 C   0  0  1  0  0  0  0  0  0  0  0  0
   28.1197  -22.7462  -18.9030 C   0  0  0  0  0  0  0  0  0  0  0  0
   28.8092  -22.4876  -20.5425 S   0  0  0  0  0  0  0  0  0  0  0  0
   28.4116  -22.2743  -16.5134 C   0  0  0  0  0  0  0  0  0  0  0  0
   28.6234  -23.1165  -15.5752 O   0  0  0  0  0  0  0  0  0  0  0  0
   27.6179  -15.0780  -16.9517 O   0  0  0  0  0  0  0  0  0  0  0  0
   27.6469  -16.2939  -16.2466 C   0  0  0  0  0  0  0  0  0  0  0  0
   26.8509  -16.5157  -15.1501 C   0  0  0  0  0  0  0  0  0  0  0  0
   26.8546  -17.7041  -14.4313 C   0  0  0  0  0  0  0  0  0  0  0  0
   27.7045  -18.6979  -14.8530 C   0  0  0  0  0  0  0  0  0  0  0  0
   27.7411  -19.9819  -14.1167 C   0  0  0  0  0  0  0  0  0  0  0  0
   26.9641  -21.0824  -14.8249 C   0  0  2  0  0  0  0  0  0  0  0  0
   27.4559  -21.2679  -16.1767 N   0  0  0  0  0  0  0  0  0  0  0  0
   25.5004  -20.8898  -14.7671 C   0  0  0  0  0  0  0  0  0  0  0  0
   24.9760  -19.8152  -15.2236 O   0  0  0  0  0  0  0  0  0  0  0  0
   28.5134  -18.5016  -15.9495 C   0  0  0  0  0  0  0  0  0  0  0  0
   28.4924  -17.2963  -16.6578 C   0  0  0  0  0  0  0  0  0  0  0  0
   24.6107  -21.8509  -14.2230 N   0  0  0  0  0  0  0  0  0  0  0  0
   23.1667  -21.5481  -14.2021 C   0  0  1  0  0  0  0  0  0  0  0  0
   22.8099  -20.9110  -12.8733 C   0  0  0  0  0  0  0  0  0  0  0  0
   21.3592  -20.5765  -12.7502 C   0  0  0  0  0  0  0  0  0  0  0  0
   20.4834  -21.8134  -12.7049 C   0  0  0  0  0  0  0  0  0  0  0  0
   19.0301  -21.3797  -12.7237 C   0  0  0  0  0  0  0  0  0  0  0  0
   18.1328  -22.5094  -12.6302 N   0  0  0  0  0  0  0  0  0  0  0  0
   22.8893  -20.5922  -15.2761 C   0  0  0  0  0  0  0  0  0  0  0  0
   22.1571  -20.9788  -16.3759 O   0  0  0  0  0  0  0  0  0  0  0  0
   23.3106  -19.4216  -15.2116 O   0  0  0  0  0  0  0  0  0  0  0  0
  2  3  1  0
  2  1  1  1
  3  4  1  0
  5  2  1  0
  5  6  2  0
  8  9  2  0
  8  7  1  0
 10  9  1  0
 11 10  2  0
 12 11  1  0
 13 12  1  6
 13 14  1  0
 14  5  1  0
 15 13  1  0
 15 19  1  0
 16 15  2  0
 17 11  1  0
 17 18  2  0
 18  8  1  0
 20 19  1  0
 20 26  1  0
 20 21  1  1
 22 21  1  0
 23 22  1  0
 24 23  1  0
 25 24  1  0
 26 28  2  0
 26 27  1  0
M  END
$$$$
