CYK.pdb
     RDKit          3D

 28 28  0  0  1  0  0  0  0  0999 V2000
   12.4524  -11.3475  -12.3595 N   0  0  0  0  0  0  0  0  0  0  0  0
   13.9208  -11.4721  -12.2642 C   0  0  1  0  0  0  0  0  0  0  0  0
   14.3303  -12.6240  -13.1836 C   0  0  0  0  0  0  0  0  0  0  0  0
   14.2168  -14.2159  -12.3573 S   0  0  0  0  0  0  0  0  0  0  0  0
   14.4811  -10.2111  -12.7673 C   0  0  0  0  0  0  0  0  0  0  0  0
   13.9375   -9.5859  -13.7410 O   0  0  0  0  0  0  0  0  0  0  0  0
   13.3668   -7.8029   -6.9768 O   0  0  0  0  0  0  0  0  0  0  0  0
   13.8128   -7.6465   -8.3008 C   0  0  0  0  0  0  0  0  0  0  0  0
   13.0782   -8.0934   -9.3712 C   0  0  0  0  0  0  0  0  0  0  0  0
   13.4892   -7.9552  -10.6907 C   0  0  0  0  0  0  0  0  0  0  0  0
   14.6951   -7.3373  -10.9182 C   0  0  0  0  0  0  0  0  0  0  0  0
   15.1723   -7.1679  -12.3095 C   0  0  0  0  0  0  0  0  0  0  0  0
   16.1106   -8.2846  -12.7440 C   0  0  2  0  0  0  0  0  0  0  0  0
   15.6452   -9.5661  -12.2492 N   0  0  0  0  0  0  0  0  0  0  0  0
   17.5249   -8.0185  -12.4094 C   0  0  0  0  0  0  0  0  0  0  0  0
   18.0487   -8.5481  -11.3686 O   0  0  0  0  0  0  0  0  0  0  0  0
   15.4515   -6.8799   -9.8628 C   0  0  0  0  0  0  0  0  0  0  0  0
   15.0172   -7.0303   -8.5424 C   0  0  0  0  0  0  0  0  0  0  0  0
   18.3665   -7.1893  -13.1938 N   0  0  0  0  0  0  0  0  0  0  0  0
   19.8008   -7.5227  -13.2885 C   0  0  1  0  0  0  0  0  0  0  0  0
   20.0226   -8.4379  -14.4769 C   0  0  0  0  0  0  0  0  0  0  0  0
   21.4588   -8.7893  -14.6907 C   0  0  0  0  0  0  0  0  0  0  0  0
   21.6717   -9.6070  -15.9496 C   0  0  0  0  0  0  0  0  0  0  0  0
   23.1449   -9.9501  -16.0618 C   0  0  0  0  0  0  0  0  0  0  0  0
   23.4068  -10.8280  -17.1802 N   0  0  0  0  0  0  0  0  0  0  0  0
   20.5414   -6.2780  -13.5038 C   0  0  0  0  0  0  0  0  0  0  0  0
   19.8697   -5.1166  -13.8127 O   0  0  0  0  0  0  0  0  0  0  0  0
   21.7835   -6.2517  -13.4125 O   0  0  0  0  0  0  0  0  0  0  0  0
  2  3  1  0
  2  1  1  6
  3  4  1  0
  5  2  1  0
  5  6  2  0
  8  9  2  0
  8  7  1  0
 10  9  1  0
 11 10  2  0
 12 11  1  0
 13 12  1  1
 13 14  1  0
 14  5  1  0
 15 13  1  0
 15 19  1  0
 16 15  2  0
 17 11  1  0
 17 18  2  0
 18  8  1  0
 20 19  1  0
 20 26  1  0
 20 21  1  6
 22 21  1  0
 23 22  1  0
 24 23  1  0
 25 24  1  0
 26 28  2  0
 26 27  1  0
M  END
$$$$
