MFS.pdb
     RDKit          3D

 26 26  0  0  1  0  0  0  0  0999 V2000
   25.1826  -19.0633  -18.8487 C   0  0  0  0  0  0  0  0  0  0  0  0
   26.9591  -19.3765  -18.7937 S   0  0  0  0  0  0  0  0  0  0  0  0
   27.2975  -21.1229  -18.4280 C   0  0  0  0  0  0  0  0  0  0  0  0
   26.2350  -21.6994  -17.5166 C   0  0  0  0  0  0  0  0  0  0  0  0
   26.7727  -21.7831  -16.0910 C   0  0  2  0  0  0  0  0  0  0  0  0
   27.7309  -22.8398  -16.0258 N   0  0  0  0  0  0  0  0  0  0  0  0
   25.6971  -21.8790  -15.1046 C   0  0  0  0  0  0  0  0  0  0  0  0
   25.3389  -23.0474  -14.7533 O   0  0  0  0  0  0  0  0  0  0  0  0
   25.0274  -20.8001  -14.5130 N   0  0  0  0  0  0  0  0  0  0  0  0
   24.0693  -20.9652  -13.4654 C   0  0  1  0  0  0  0  0  0  0  0  0
   24.0664  -19.8518  -12.4552 C   0  0  0  0  0  0  0  0  0  0  0  0
   24.6524  -20.2144  -11.1642 C   0  0  0  0  0  0  0  0  0  0  0  0
   23.8886  -20.2385  -10.0364 C   0  0  0  0  0  0  0  0  0  0  0  0
   24.5046  -20.5890   -8.8520 C   0  0  0  0  0  0  0  0  0  0  0  0
   25.8560  -20.9103   -8.7878 C   0  0  0  0  0  0  0  0  0  0  0  0
   26.6142  -20.8847   -9.9173 C   0  0  0  0  0  0  0  0  0  0  0  0
   25.9953  -20.5301  -11.1209 C   0  0  0  0  0  0  0  0  0  0  0  0
   22.6689  -21.0459  -14.0158 C   0  0  0  0  0  0  0  0  0  0  0  0
   22.1856  -20.0696  -14.6643 O   0  0  0  0  0  0  0  0  0  0  0  0
   18.6693  -23.6620  -14.5802 O   0  0  0  0  0  0  0  0  0  0  0  0
   19.9949  -23.6366  -14.1069 C   0  0  0  0  0  0  0  0  0  0  0  0
   20.4650  -22.1957  -14.2628 C   0  0  2  0  0  0  0  0  0  0  0  0
   21.8569  -22.1761  -13.8401 N   0  0  0  0  0  0  0  0  0  0  0  0
   19.6284  -21.2944  -13.4696 C   0  0  0  0  0  0  0  0  0  0  0  0
   18.5946  -20.6050  -14.0714 O   0  0  0  0  0  0  0  0  0  0  0  0
   19.8253  -21.1281  -12.2454 O   0  0  0  0  0  0  0  0  0  0  0  0
  2  1  1  0
  3  2  1  0
  4  3  1  0
  4  5  1  0
  5  7  1  0
  5  6  1  6
  7  8  2  0
  9 10  1  0
  9  7  1  0
 10 11  1  1
 11 12  1  0
 12 17  2  0
 13 12  1  0
 13 14  2  0
 14 15  1  0
 15 16  2  0
 17 16  1  0
 18 10  1  0
 19 18  2  0
 21 20  1  0
 22 23  1  0
 22 21  1  1
 23 18  1  0
 24 22  1  0
 25 24  1  0
 26 24  2  0
M  END
$$$$
