MFS.pdb
     RDKit          3D

 26 26  0  0  1  0  0  0  0  0999 V2000
   25.9813  -15.4721  -19.2950 C   0  0  0  0  0  0  0  0  0  0  0  0
   27.4458  -16.3621  -19.8612 S   0  0  0  0  0  0  0  0  0  0  0  0
   27.0018  -18.0096  -20.4834 C   0  0  0  0  0  0  0  0  0  0  0  0
   26.5556  -18.9117  -19.3526 C   0  0  0  0  0  0  0  0  0  0  0  0
   27.7539  -19.2685  -18.4780 C   0  0  2  0  0  0  0  0  0  0  0  0
   28.6523  -20.0744  -19.2412 N   0  0  0  0  0  0  0  0  0  0  0  0
   27.3457  -19.8578  -17.2031 C   0  0  0  0  0  0  0  0  0  0  0  0
   26.9830  -21.0763  -17.2205 O   0  0  0  0  0  0  0  0  0  0  0  0
   27.3186  -19.2004  -15.9663 N   0  0  0  0  0  0  0  0  0  0  0  0
   26.8066  -19.8083  -14.7785 C   0  0  1  0  0  0  0  0  0  0  0  0
   27.2295  -19.1249  -13.5080 C   0  0  0  0  0  0  0  0  0  0  0  0
   26.7293  -19.7641  -12.2903 C   0  0  0  0  0  0  0  0  0  0  0  0
   25.6752  -19.2338  -11.6095 C   0  0  0  0  0  0  0  0  0  0  0  0
   25.2544  -19.8869  -10.4687 C   0  0  0  0  0  0  0  0  0  0  0  0
   25.8693  -21.0471  -10.0111 C   0  0  0  0  0  0  0  0  0  0  0  0
   26.9217  -21.5726  -10.6950 C   0  0  0  0  0  0  0  0  0  0  0  0
   27.3528  -20.9148  -11.8521 C   0  0  0  0  0  0  0  0  0  0  0  0
   25.2998  -19.8175  -14.7773 C   0  0  0  0  0  0  0  0  0  0  0  0
   24.6594  -18.7543  -15.0359 O   0  0  0  0  0  0  0  0  0  0  0  0
   23.3815  -22.6161  -16.1103 O   0  0  0  0  0  0  0  0  0  0  0  0
   22.6630  -22.3521  -14.9289 C   0  0  0  0  0  0  0  0  0  0  0  0
   23.1015  -20.9648  -14.4762 C   0  0  2  0  0  0  0  0  0  0  0  0
   24.5561  -20.9732  -14.4971 N   0  0  0  0  0  0  0  0  0  0  0  0
   22.5644  -20.6649  -13.1484 C   0  0  0  0  0  0  0  0  0  0  0  0
   21.2215  -20.3829  -12.9955 O   0  0  0  0  0  0  0  0  0  0  0  0
   23.2965  -20.6564  -12.1341 O   0  0  0  0  0  0  0  0  0  0  0  0
  2  1  1  0
  3  2  1  0
  4  3  1  0
  4  5  1  0
  5  7  1  0
  5  6  1  6
  7  8  2  0
  9 10  1  0
  9  7  1  0
 10 11  1  1
 11 12  1  0
 12 17  2  0
 13 12  1  0
 13 14  2  0
 14 15  1  0
 15 16  2  0
 17 16  1  0
 18 10  1  0
 19 18  2  0
 21 20  1  0
 22 23  1  0
 22 21  1  1
 23 18  1  0
 24 22  1  0
 25 24  1  0
 26 24  2  0
M  END
$$$$
