MFS.pdb
     RDKit          3D

 26 26  0  0  1  0  0  0  0  0999 V2000
   24.2945  -21.8973  -20.4275 C   0  0  0  0  0  0  0  0  0  0  0  0
   25.4560  -20.5595  -20.0838 S   0  0  0  0  0  0  0  0  0  0  0  0
   26.2620  -20.7996  -18.4740 C   0  0  0  0  0  0  0  0  0  0  0  0
   25.2866  -21.3578  -17.4597 C   0  0  0  0  0  0  0  0  0  0  0  0
   25.9603  -21.4428  -16.0933 C   0  0  2  0  0  0  0  0  0  0  0  0
   26.9938  -22.4263  -16.1542 N   0  0  0  0  0  0  0  0  0  0  0  0
   24.9918  -21.6477  -15.0167 C   0  0  0  0  0  0  0  0  0  0  0  0
   24.8624  -22.8330  -14.5749 O   0  0  0  0  0  0  0  0  0  0  0  0
   24.1952  -20.6561  -14.4296 N   0  0  0  0  0  0  0  0  0  0  0  0
   23.2503  -20.9357  -13.3944 C   0  0  1  0  0  0  0  0  0  0  0  0
   23.3381  -20.0064  -12.2159 C   0  0  0  0  0  0  0  0  0  0  0  0
   24.2699  -20.4455  -11.1764 C   0  0  0  0  0  0  0  0  0  0  0  0
   25.5594  -20.7572  -11.4856 C   0  0  0  0  0  0  0  0  0  0  0  0
   26.3851  -21.1647  -10.4573 C   0  0  0  0  0  0  0  0  0  0  0  0
   25.9384  -21.2612   -9.1440 C   0  0  0  0  0  0  0  0  0  0  0  0
   24.6493  -20.9486   -8.8407 C   0  0  0  0  0  0  0  0  0  0  0  0
   23.8077  -20.5349   -9.8790 C   0  0  0  0  0  0  0  0  0  0  0  0
   21.8366  -20.8422  -13.9074 C   0  0  0  0  0  0  0  0  0  0  0  0
   21.4516  -19.7999  -14.5180 O   0  0  0  0  0  0  0  0  0  0  0  0
   19.3059  -23.8444  -13.1718 O   0  0  0  0  0  0  0  0  0  0  0  0
   19.0558  -23.2189  -14.4079 C   0  0  0  0  0  0  0  0  0  0  0  0
   19.5502  -21.7856  -14.2568 C   0  0  2  0  0  0  0  0  0  0  0  0
   20.9059  -21.8777  -13.7372 N   0  0  0  0  0  0  0  0  0  0  0  0
   18.6640  -21.0279  -13.3724 C   0  0  0  0  0  0  0  0  0  0  0  0
   17.3571  -20.7876  -13.7469 O   0  0  0  0  0  0  0  0  0  0  0  0
   19.0617  -20.5856  -12.2718 O   0  0  0  0  0  0  0  0  0  0  0  0
  2  1  1  0
  3  2  1  0
  4  3  1  0
  4  5  1  0
  5  7  1  0
  5  6  1  6
  7  8  2  0
  9 10  1  0
  9  7  1  0
 10 11  1  1
 11 12  1  0
 12 17  2  0
 13 12  1  0
 13 14  2  0
 14 15  1  0
 15 16  2  0
 17 16  1  0
 18 10  1  0
 19 18  2  0
 21 20  1  0
 22 23  1  0
 22 21  1  1
 23 18  1  0
 24 22  1  0
 25 24  1  0
 26 24  2  0
M  END
$$$$
