MFS.pdb
     RDKit          3D

 26 26  0  0  1  0  0  0  0  0999 V2000
   27.8766  -16.4207  -14.0718 C   0  0  0  0  0  0  0  0  0  0  0  0
   27.0712  -16.6998  -15.6626 S   0  0  0  0  0  0  0  0  0  0  0  0
   27.6572  -18.2414  -16.4231 C   0  0  0  0  0  0  0  0  0  0  0  0
   26.9384  -19.4389  -15.8390 C   0  0  0  0  0  0  0  0  0  0  0  0
   27.6369  -19.8808  -14.5564 C   0  0  2  0  0  0  0  0  0  0  0  0
   28.8546  -20.5407  -14.9038 N   0  0  0  0  0  0  0  0  0  0  0  0
   26.7517  -20.6593  -13.6908 C   0  0  0  0  0  0  0  0  0  0  0  0
   26.6217  -21.8951  -13.9602 O   0  0  0  0  0  0  0  0  0  0  0  0
   26.0353  -20.1657  -12.5927 N   0  0  0  0  0  0  0  0  0  0  0  0
   25.1338  -20.9725  -11.8316 C   0  0  1  0  0  0  0  0  0  0  0  0
   25.0277  -20.5765  -10.3852 C   0  0  0  0  0  0  0  0  0  0  0  0
   26.2577  -20.7780   -9.6184 C   0  0  0  0  0  0  0  0  0  0  0  0
   27.1920  -21.6809  -10.0279 C   0  0  0  0  0  0  0  0  0  0  0  0
   28.3290  -21.8213   -9.2581 C   0  0  0  0  0  0  0  0  0  0  0  0
   28.5354  -21.0781   -8.1011 C   0  0  0  0  0  0  0  0  0  0  0  0
   27.5989  -20.1776   -7.6966 C   0  0  0  0  0  0  0  0  0  0  0  0
   26.4442  -20.0309   -8.4730 C   0  0  0  0  0  0  0  0  0  0  0  0
   23.7378  -20.9092  -12.3951 C   0  0  0  0  0  0  0  0  0  0  0  0
   23.2334  -19.7908  -12.7148 O   0  0  0  0  0  0  0  0  0  0  0  0
   22.3278  -23.6813  -14.7150 O   0  0  0  0  0  0  0  0  0  0  0  0
   21.3606  -23.4094  -13.7289 C   0  0  0  0  0  0  0  0  0  0  0  0
   21.6529  -21.9970  -13.2375 C   0  0  2  0  0  0  0  0  0  0  0  0
   22.9527  -22.0557  -12.5869 N   0  0  0  0  0  0  0  0  0  0  0  0
   20.5968  -21.5396  -12.3337 C   0  0  0  0  0  0  0  0  0  0  0  0
   19.3021  -21.4109  -12.7953 O   0  0  0  0  0  0  0  0  0  0  0  0
   20.8363  -21.2579  -11.1386 O   0  0  0  0  0  0  0  0  0  0  0  0
  2  1  1  0
  3  2  1  0
  4  3  1  0
  4  5  1  0
  5  7  1  0
  5  6  1  6
  7  8  2  0
  9 10  1  0
  9  7  1  0
 10 11  1  1
 11 12  1  0
 12 17  2  0
 13 12  1  0
 13 14  2  0
 14 15  1  0
 15 16  2  0
 17 16  1  0
 18 10  1  0
 19 18  2  0
 21 20  1  0
 22 23  1  0
 22 21  1  1
 23 18  1  0
 24 22  1  0
 25 24  1  0
 26 24  2  0
M  END
$$$$
