MFS.pdb
     RDKit          3D

 26 26  0  0  1  0  0  0  0  0999 V2000
   22.3328  -13.1430  -23.4155 C   0  0  0  0  0  0  0  0  0  0  0  0
   21.9208  -12.1493  -21.9664 S   0  0  0  0  0  0  0  0  0  0  0  0
   20.2127  -12.4597  -21.4330 C   0  0  0  0  0  0  0  0  0  0  0  0
   19.8276  -11.5411  -20.2930 C   0  0  0  0  0  0  0  0  0  0  0  0
   20.5937  -11.9370  -19.0342 C   0  0  2  0  0  0  0  0  0  0  0  0
   20.1793  -13.2454  -18.6401 N   0  0  0  0  0  0  0  0  0  0  0  0
   20.4830  -10.9247  -17.9843 C   0  0  0  0  0  0  0  0  0  0  0  0
   19.3398  -10.7708  -17.4494 O   0  0  0  0  0  0  0  0  0  0  0  0
   21.5226  -10.1107  -17.5162 N   0  0  0  0  0  0  0  0  0  0  0  0
   21.3319   -9.1167  -16.5071 C   0  0  1  0  0  0  0  0  0  0  0  0
   22.5598   -8.8299  -15.6883 C   0  0  0  0  0  0  0  0  0  0  0  0
   22.3586   -7.8294  -14.6394 C   0  0  0  0  0  0  0  0  0  0  0  0
   21.8684   -8.1894  -13.4204 C   0  0  0  0  0  0  0  0  0  0  0  0
   21.7029   -7.1958  -12.4768 C   0  0  0  0  0  0  0  0  0  0  0  0
   22.0188   -5.8671  -12.7384 C   0  0  0  0  0  0  0  0  0  0  0  0
   22.5082   -5.5131  -13.9576 C   0  0  0  0  0  0  0  0  0  0  0  0
   22.6780   -6.5160  -14.9183 C   0  0  0  0  0  0  0  0  0  0  0  0
   20.9044   -7.8036  -17.1098 C   0  0  0  0  0  0  0  0  0  0  0  0
   21.5840   -7.2848  -18.0460 O   0  0  0  0  0  0  0  0  0  0  0  0
   17.2800   -6.5344  -16.5396 O   0  0  0  0  0  0  0  0  0  0  0  0
   17.9365   -5.9140  -17.6193 C   0  0  0  0  0  0  0  0  0  0  0  0
   19.4012   -5.8111  -17.2123 C   0  0  2  0  0  0  0  0  0  0  0  0
   19.7641   -7.1129  -16.6738 N   0  0  0  0  0  0  0  0  0  0  0  0
   19.5891   -4.7333  -16.2404 C   0  0  0  0  0  0  0  0  0  0  0  0
   19.5570   -3.4171  -16.6558 O   0  0  0  0  0  0  0  0  0  0  0  0
   19.7806   -4.9732  -15.0277 O   0  0  0  0  0  0  0  0  0  0  0  0
  2  1  1  0
  3  2  1  0
  4  3  1  0
  4  5  1  0
  5  7  1  0
  5  6  1  1
  7  8  2  0
  9 10  1  0
  9  7  1  0
 10 11  1  6
 11 12  1  0
 12 17  2  0
 13 12  1  0
 13 14  2  0
 14 15  1  0
 15 16  2  0
 17 16  1  0
 18 10  1  0
 19 18  2  0
 21 20  1  0
 22 23  1  0
 22 21  1  1
 23 18  1  0
 24 22  1  0
 25 24  1  0
 26 24  2  0
M  END
$$$$
