MFS.pdb
     RDKit          3D

 26 26  0  0  1  0  0  0  0  0999 V2000
   21.2577  -16.1273  -16.4262 C   0  0  0  0  0  0  0  0  0  0  0  0
   19.7099  -15.1999  -16.4614 S   0  0  0  0  0  0  0  0  0  0  0  0
   20.0263  -13.4116  -16.4448 C   0  0  0  0  0  0  0  0  0  0  0  0
   18.7431  -12.6342  -16.6473 C   0  0  0  0  0  0  0  0  0  0  0  0
   17.8260  -12.8362  -15.4447 C   0  0  2  0  0  0  0  0  0  0  0  0
   17.0422  -14.0102  -15.6603 N   0  0  0  0  0  0  0  0  0  0  0  0
   17.0478  -11.6356  -15.1414 C   0  0  0  0  0  0  0  0  0  0  0  0
   16.0321  -11.4067  -15.8712 O   0  0  0  0  0  0  0  0  0  0  0  0
   17.3212  -10.7165  -14.1200 N   0  0  0  0  0  0  0  0  0  0  0  0
   16.4824   -9.5921  -13.8466 C   0  0  1  0  0  0  0  0  0  0  0  0
   16.0485   -9.4847  -12.4112 C   0  0  0  0  0  0  0  0  0  0  0  0
   15.0678  -10.4926  -12.0061 C   0  0  0  0  0  0  0  0  0  0  0  0
   13.7649  -10.3883  -12.3900 C   0  0  0  0  0  0  0  0  0  0  0  0
   12.8926  -11.3733  -11.9729 C   0  0  0  0  0  0  0  0  0  0  0  0
   13.3064  -12.4440  -11.1880 C   0  0  0  0  0  0  0  0  0  0  0  0
   14.6089  -12.5433  -10.8075 C   0  0  0  0  0  0  0  0  0  0  0  0
   15.4979  -11.5477  -11.2273 C   0  0  0  0  0  0  0  0  0  0  0  0
   17.1797   -8.2986  -14.1798 C   0  0  0  0  0  0  0  0  0  0  0  0
   18.3325   -8.0604  -13.7087 O   0  0  0  0  0  0  0  0  0  0  0  0
   15.2510   -5.8972  -16.4667 O   0  0  0  0  0  0  0  0  0  0  0  0
   16.6109   -5.5613  -16.6066 C   0  0  0  0  0  0  0  0  0  0  0  0
   17.3033   -6.1012  -15.3613 C   0  0  2  0  0  0  0  0  0  0  0  0
   16.6000   -7.3238  -15.0052 N   0  0  0  0  0  0  0  0  0  0  0  0
   17.2746   -5.1079  -14.2870 C   0  0  0  0  0  0  0  0  0  0  0  0
   17.9993   -3.9392  -14.4091 O   0  0  0  0  0  0  0  0  0  0  0  0
   16.6033   -5.2895  -13.2471 O   0  0  0  0  0  0  0  0  0  0  0  0
  2  1  1  0
  3  2  1  0
  4  3  1  0
  4  5  1  0
  5  7  1  0
  5  6  1  6
  7  8  2  0
  9 10  1  0
  9  7  1  0
 10 11  1  1
 11 12  1  0
 12 17  2  0
 13 12  1  0
 13 14  2  0
 14 15  1  0
 15 16  2  0
 17 16  1  0
 18 10  1  0
 19 18  2  0
 21 20  1  0
 22 23  1  0
 22 21  1  6
 23 18  1  0
 24 22  1  0
 25 24  1  0
 26 24  2  0
M  END
$$$$
