MFS.pdb
     RDKit          3D

 26 26  0  0  1  0  0  0  0  0999 V2000
   25.2250  -19.8370  -19.9066 C   0  0  0  0  0  0  0  0  0  0  0  0
   26.7173  -20.3633  -20.7745 S   0  0  0  0  0  0  0  0  0  0  0  0
   27.6887  -21.5101  -19.7548 C   0  0  0  0  0  0  0  0  0  0  0  0
   26.8648  -22.0348  -18.5982 C   0  0  0  0  0  0  0  0  0  0  0  0
   27.7888  -22.4506  -17.4575 C   0  0  2  0  0  0  0  0  0  0  0  0
   28.3983  -23.6971  -17.7949 N   0  0  0  0  0  0  0  0  0  0  0  0
   27.1028  -22.4419  -16.1658 C   0  0  0  0  0  0  0  0  0  0  0  0
   26.5170  -23.5150  -15.8162 O   0  0  0  0  0  0  0  0  0  0  0  0
   27.0336  -21.3584  -15.2805 N   0  0  0  0  0  0  0  0  0  0  0  0
   26.2861  -21.4010  -14.0631 C   0  0  1  0  0  0  0  0  0  0  0  0
   26.8236  -20.5060  -12.9813 C   0  0  0  0  0  0  0  0  0  0  0  0
   26.1244  -20.6287  -11.7015 C   0  0  0  0  0  0  0  0  0  0  0  0
   26.5886  -21.4674  -10.7336 C   0  0  0  0  0  0  0  0  0  0  0  0
   25.8811  -21.5353   -9.5504 C   0  0  0  0  0  0  0  0  0  0  0  0
   24.7320  -20.7834   -9.3314 C   0  0  0  0  0  0  0  0  0  0  0  0
   24.2728  -19.9473  -10.3016 C   0  0  0  0  0  0  0  0  0  0  0  0
   24.9859  -19.8742  -11.5032 C   0  0  0  0  0  0  0  0  0  0  0  0
   24.8549  -20.9869  -14.2878 C   0  0  0  0  0  0  0  0  0  0  0  0
   24.5954  -19.8615  -14.8109 O   0  0  0  0  0  0  0  0  0  0  0  0
   21.9087  -23.6890  -14.2291 O   0  0  0  0  0  0  0  0  0  0  0  0
   21.7564  -22.5145  -14.9900 C   0  0  0  0  0  0  0  0  0  0  0  0
   22.3943  -21.4008  -14.1688 C   0  0  2  0  0  0  0  0  0  0  0  0
   23.7720  -21.8068  -13.9375 N   0  0  0  0  0  0  0  0  0  0  0  0
   21.6564  -21.1957  -12.9219 C   0  0  0  0  0  0  0  0  0  0  0  0
   22.2574  -21.4760  -11.7110 O   0  0  0  0  0  0  0  0  0  0  0  0
   20.4807  -20.7680  -12.9212 O   0  0  0  0  0  0  0  0  0  0  0  0
  2  1  1  0
  3  2  1  0
  4  3  1  0
  4  5  1  0
  5  7  1  0
  5  6  1  6
  7  8  2  0
  9 10  1  0
  9  7  1  0
 10 11  1  1
 11 12  1  0
 12 17  2  0
 13 12  1  0
 13 14  2  0
 14 15  1  0
 15 16  2  0
 17 16  1  0
 18 10  1  0
 19 18  2  0
 21 20  1  0
 22 23  1  0
 22 21  1  6
 23 18  1  0
 24 22  1  0
 25 24  1  0
 26 24  2  0
M  END
$$$$
