MFS.pdb
     RDKit          3D

 26 26  0  0  1  0  0  0  0  0999 V2000
   13.4026  -20.1084    5.8013 C   0  0  0  0  0  0  0  0  0  0  0  0
   12.7890  -19.6875    4.1571 S   0  0  0  0  0  0  0  0  0  0  0  0
   14.1252  -19.0333    3.1154 C   0  0  0  0  0  0  0  0  0  0  0  0
   15.1965  -18.3772    3.9602 C   0  0  0  0  0  0  0  0  0  0  0  0
   16.3538  -17.9361    3.0690 C   0  0  2  0  0  0  0  0  0  0  0  0
   16.9767  -19.0984    2.5211 N   0  0  0  0  0  0  0  0  0  0  0  0
   17.2673  -17.0306    3.7652 C   0  0  0  0  0  0  0  0  0  0  0  0
   18.3209  -17.5421    4.2603 O   0  0  0  0  0  0  0  0  0  0  0  0
   17.0853  -15.6520    3.9351 N   0  0  0  0  0  0  0  0  0  0  0  0
   17.9583  -14.8492    4.7327 C   0  0  1  0  0  0  0  0  0  0  0  0
   17.8811  -13.3775    4.4358 C   0  0  0  0  0  0  0  0  0  0  0  0
   18.8709  -12.5707    5.1506 C   0  0  0  0  0  0  0  0  0  0  0  0
   20.1538  -12.4851    4.7004 C   0  0  0  0  0  0  0  0  0  0  0  0
   21.0363  -11.7070    5.4222 C   0  0  0  0  0  0  0  0  0  0  0  0
   20.6520  -11.0252    6.5716 C   0  0  0  0  0  0  0  0  0  0  0  0
   19.3694  -11.1142    7.0168 C   0  0  0  0  0  0  0  0  0  0  0  0
   18.4703  -11.9015    6.2892 C   0  0  0  0  0  0  0  0  0  0  0  0
   17.6530  -15.0054    6.2000 C   0  0  0  0  0  0  0  0  0  0  0  0
   16.4558  -15.1673    6.5845 O   0  0  0  0  0  0  0  0  0  0  0  0
   17.8975  -16.8052   10.1820 O   0  0  0  0  0  0  0  0  0  0  0  0
   18.3106  -16.6487    8.8454 C   0  0  0  0  0  0  0  0  0  0  0  0
   18.3492  -15.1463    8.5948 C   0  0  2  0  0  0  0  0  0  0  0  0
   18.6540  -14.9793    7.1822 N   0  0  0  0  0  0  0  0  0  0  0  0
   19.3422  -14.5073    9.4592 C   0  0  0  0  0  0  0  0  0  0  0  0
   18.9497  -13.9288   10.6497 O   0  0  0  0  0  0  0  0  0  0  0  0
   20.5529  -14.4696    9.1465 O   0  0  0  0  0  0  0  0  0  0  0  0
  2  1  1  0
  3  2  1  0
  4  3  1  0
  4  5  1  0
  5  7  1  0
  5  6  1  1
  7  8  2  0
  9 10  1  0
  9  7  1  0
 10 11  1  6
 11 12  1  0
 12 17  2  0
 13 12  1  0
 13 14  2  0
 14 15  1  0
 15 16  2  0
 17 16  1  0
 18 10  1  0
 19 18  2  0
 21 20  1  0
 22 23  1  0
 22 21  1  1
 23 18  1  0
 24 22  1  0
 25 24  1  0
 26 24  2  0
M  END
$$$$
