MFS.pdb
     RDKit          3D

 26 26  0  0  1  0  0  0  0  0999 V2000
   13.7209  -23.0789    6.2218 C   0  0  0  0  0  0  0  0  0  0  0  0
   12.7488  -23.3151    4.7197 S   0  0  0  0  0  0  0  0  0  0  0  0
   13.5613  -22.5371    3.2938 C   0  0  0  0  0  0  0  0  0  0  0  0
   14.6170  -21.5507    3.7458 C   0  0  0  0  0  0  0  0  0  0  0  0
   15.3238  -20.9624    2.5283 C   0  0  2  0  0  0  0  0  0  0  0  0
   16.0215  -22.0105    1.8547 N   0  0  0  0  0  0  0  0  0  0  0  0
   16.1540  -19.8107    2.8800 C   0  0  0  0  0  0  0  0  0  0  0  0
   17.2919  -20.0546    3.3922 O   0  0  0  0  0  0  0  0  0  0  0  0
   15.8077  -18.4648    2.7033 N   0  0  0  0  0  0  0  0  0  0  0  0
   16.6082  -17.3891    3.1980 C   0  0  1  0  0  0  0  0  0  0  0  0
   16.4488  -16.1039    2.4342 C   0  0  0  0  0  0  0  0  0  0  0  0
   17.2737  -15.0042    2.9359 C   0  0  0  0  0  0  0  0  0  0  0  0
   18.6113  -14.9660    2.6803 C   0  0  0  0  0  0  0  0  0  0  0  0
   19.3302  -13.9005    3.1833 C   0  0  0  0  0  0  0  0  0  0  0  0
   18.7318  -12.8897    3.9275 C   0  0  0  0  0  0  0  0  0  0  0  0
   17.3955  -12.9328    4.1798 C   0  0  0  0  0  0  0  0  0  0  0  0
   16.6614  -14.0105    3.6725 C   0  0  0  0  0  0  0  0  0  0  0  0
   16.2738  -17.0767    4.6336 C   0  0  0  0  0  0  0  0  0  0  0  0
   15.0802  -16.8017    4.9610 O   0  0  0  0  0  0  0  0  0  0  0  0
   18.6971  -18.1135    7.5227 O   0  0  0  0  0  0  0  0  0  0  0  0
   17.3773  -17.8121    7.9084 C   0  0  0  0  0  0  0  0  0  0  0  0
   16.9318  -16.6663    7.0081 C   0  0  2  0  0  0  0  0  0  0  0  0
   17.2431  -17.0761    5.6474 N   0  0  0  0  0  0  0  0  0  0  0  0
   17.6083  -15.4247    7.3854 C   0  0  0  0  0  0  0  0  0  0  0  0
   18.7093  -14.9952    6.6716 O   0  0  0  0  0  0  0  0  0  0  0  0
   17.2127  -14.7318    8.3489 O   0  0  0  0  0  0  0  0  0  0  0  0
  2  1  1  0
  3  2  1  0
  4  3  1  0
  4  5  1  0
  5  7  1  0
  5  6  1  1
  7  8  2  0
  9 10  1  0
  9  7  1  0
 10 11  1  6
 11 12  1  0
 12 17  2  0
 13 12  1  0
 13 14  2  0
 14 15  1  0
 15 16  2  0
 17 16  1  0
 18 10  1  0
 19 18  2  0
 21 20  1  0
 22 23  1  0
 22 21  1  1
 23 18  1  0
 24 22  1  0
 25 24  1  0
 26 24  2  0
M  END
$$$$
