MFS.pdb
     RDKit          3D

 26 26  0  0  1  0  0  0  0  0999 V2000
   17.3387  -12.8062  -15.8278 C   0  0  0  0  0  0  0  0  0  0  0  0
   15.9570  -11.9315  -16.5914 S   0  0  0  0  0  0  0  0  0  0  0  0
   16.5393  -10.8286  -17.9116 C   0  0  0  0  0  0  0  0  0  0  0  0
   17.9322  -10.3166  -17.6123 C   0  0  0  0  0  0  0  0  0  0  0  0
   18.4708   -9.5586  -18.8221 C   0  0  2  0  0  0  0  0  0  0  0  0
   18.9915  -10.5031  -19.7579 N   0  0  0  0  0  0  0  0  0  0  0  0
   19.4112   -8.5072  -18.4357 C   0  0  0  0  0  0  0  0  0  0  0  0
   20.6470   -8.8063  -18.4457 O   0  0  0  0  0  0  0  0  0  0  0  0
   19.0725   -7.2019  -18.0561 N   0  0  0  0  0  0  0  0  0  0  0  0
   20.0518   -6.1988  -17.7780 C   0  0  1  0  0  0  0  0  0  0  0  0
   19.7887   -4.8808  -18.4518 C   0  0  0  0  0  0  0  0  0  0  0  0
   19.9533   -4.9093  -19.9057 C   0  0  0  0  0  0  0  0  0  0  0  0
   18.9182   -5.2679  -20.7154 C   0  0  0  0  0  0  0  0  0  0  0  0
   19.1415   -5.2738  -22.0774 C   0  0  0  0  0  0  0  0  0  0  0  0
   20.3717   -4.9295  -22.6268 C   0  0  0  0  0  0  0  0  0  0  0  0
   21.4022   -4.5721  -21.8134 C   0  0  0  0  0  0  0  0  0  0  0  0
   21.1817   -4.5643  -20.4318 C   0  0  0  0  0  0  0  0  0  0  0  0
   20.1354   -5.9138  -16.3007 C   0  0  0  0  0  0  0  0  0  0  0  0
   19.0892   -5.6047  -15.6547 O   0  0  0  0  0  0  0  0  0  0  0  0
   22.0665   -6.6442  -12.1342 O   0  0  0  0  0  0  0  0  0  0  0  0
   21.9578   -6.9465  -13.5048 C   0  0  0  0  0  0  0  0  0  0  0  0
   21.4145   -5.6865  -14.1672 C   0  0  2  0  0  0  0  0  0  0  0  0
   21.3437   -5.9761  -15.5911 N   0  0  0  0  0  0  0  0  0  0  0  0
   22.2755   -4.5403  -13.8732 C   0  0  0  0  0  0  0  0  0  0  0  0
   22.1033   -3.8313  -12.7011 O   0  0  0  0  0  0  0  0  0  0  0  0
   23.1753   -4.1793  -14.6638 O   0  0  0  0  0  0  0  0  0  0  0  0
  2  1  1  0
  3  2  1  0
  4  3  1  0
  4  5  1  0
  5  7  1  0
  5  6  1  6
  7  8  2  0
  9 10  1  0
  9  7  1  0
 10 11  1  6
 11 12  1  0
 12 17  2  0
 13 12  1  0
 13 14  2  0
 14 15  1  0
 15 16  2  0
 17 16  1  0
 18 10  1  0
 19 18  2  0
 21 20  1  0
 22 23  1  0
 22 21  1  1
 23 18  1  0
 24 22  1  0
 25 24  1  0
 26 24  2  0
M  END
$$$$
