YAQ.pdb
     RDKit          3D

 27 27  0  0  1  0  0  0  0  0999 V2000
   30.7037  -17.1421  -18.8163 O   0  0  0  0  0  0  0  0  0  0  0  0
   29.7198  -17.7668  -18.0403 C   0  0  0  0  0  0  0  0  0  0  0  0
   29.7119  -17.6466  -16.6741 C   0  0  0  0  0  0  0  0  0  0  0  0
   28.7132  -18.2898  -15.9853 C   0  0  0  0  0  0  0  0  0  0  0  0
   27.7323  -19.0417  -16.6164 C   0  0  0  0  0  0  0  0  0  0  0  0
   26.6948  -19.6951  -15.7549 C   0  0  0  0  0  0  0  0  0  0  0  0
   27.3433  -20.7540  -14.9000 C   0  0  2  0  0  0  0  0  0  0  0  0
   27.8757  -21.8360  -15.7124 N   0  0  0  0  0  0  0  0  0  0  0  0
   26.4061  -21.3288  -13.9140 C   0  0  0  0  0  0  0  0  0  0  0  0
   25.5443  -22.2057  -14.2494 O   0  0  0  0  0  0  0  0  0  0  0  0
   27.7605  -19.1470  -17.9782 C   0  0  0  0  0  0  0  0  0  0  0  0
   28.7677  -18.5004  -18.6919 C   0  0  0  0  0  0  0  0  0  0  0  0
   25.5673  -20.7448  -10.3005 C   0  0  0  0  0  0  0  0  0  0  0  0
   25.3345  -21.3010  -11.6982 C   0  0  2  0  0  0  0  0  0  0  0  0
   26.4342  -20.9237  -12.5458 N   0  0  0  0  0  0  0  0  0  0  0  0
   24.0711  -20.6390  -12.1873 C   0  0  0  0  0  0  0  0  0  0  0  0
   24.1224  -19.5649  -12.8297 O   0  0  0  0  0  0  0  0  0  0  0  0
   23.4497  -21.3810  -15.9265 N   0  0  0  0  0  0  0  0  0  0  0  0
   22.0818  -21.7356  -15.8531 C   0  0  0  0  0  0  0  0  0  0  0  0
   21.6645  -22.5843  -16.7137 O   0  0  0  0  0  0  0  0  0  0  0  0
   21.1445  -21.2014  -14.8666 C   0  0  0  0  0  0  0  0  0  0  0  0
   21.6721  -20.2755  -13.8508 C   0  0  0  0  0  0  0  0  0  0  0  0
   21.5621  -20.6306  -12.4163 C   0  0  2  0  0  0  0  0  0  0  0  0
   22.8034  -21.2257  -11.9260 N   0  0  0  0  0  0  0  0  0  0  0  0
   20.3508  -21.2387  -11.9086 C   0  0  0  0  0  0  0  0  0  0  0  0
   20.2836  -22.2747  -11.2139 O   0  0  0  0  0  0  0  0  0  0  0  0
   19.1055  -20.6478  -12.1983 O   0  0  0  0  0  0  0  0  0  0  0  0
  2  1  1  0
  3  2  2  0
  4  3  1  0
  5 11  1  0
  5  4  2  0
  6  5  1  0
  7  8  1  6
  7  9  1  0
  7  6  1  0
  9 10  2  0
 11 12  2  0
 12  2  1  0
 14 13  1  1
 14 16  1  0
 15 14  1  0
 15  9  1  0
 16 24  1  0
 16 17  2  0
 18 19  1  0
 19 21  1  0
 20 19  2  0
 22 21  1  0
 23 22  1  6
 24 23  1  0
 25 23  1  0
 25 27  1  0
 26 25  2  0
M  END
$$$$
