YAQ.pdb
     RDKit          3D

 27 27  0  0  1  0  0  0  0  0999 V2000
   29.2953  -15.6571  -18.5003 O   0  0  0  0  0  0  0  0  0  0  0  0
   28.4988  -16.5041  -17.7202 C   0  0  0  0  0  0  0  0  0  0  0  0
   28.3772  -16.3157  -16.3672 C   0  0  0  0  0  0  0  0  0  0  0  0
   27.5770  -17.1896  -15.6732 C   0  0  0  0  0  0  0  0  0  0  0  0
   26.9017  -18.2354  -16.2866 C   0  0  0  0  0  0  0  0  0  0  0  0
   26.0576  -19.1209  -15.4213 C   0  0  0  0  0  0  0  0  0  0  0  0
   26.9253  -20.1728  -14.7783 C   0  0  2  0  0  0  0  0  0  0  0  0
   27.4868  -21.0740  -15.7717 N   0  0  0  0  0  0  0  0  0  0  0  0
   26.1863  -20.9768  -13.7841 C   0  0  0  0  0  0  0  0  0  0  0  0
   25.3443  -21.8645  -14.1410 O   0  0  0  0  0  0  0  0  0  0  0  0
   27.0380  -18.4032  -17.6355 C   0  0  0  0  0  0  0  0  0  0  0  0
   27.8467  -17.5249  -18.3542 C   0  0  0  0  0  0  0  0  0  0  0  0
   25.7888  -20.9148  -10.0506 C   0  0  0  0  0  0  0  0  0  0  0  0
   25.3711  -21.2435  -11.4769 C   0  0  2  0  0  0  0  0  0  0  0  0
   26.3914  -20.7898  -12.3842 N   0  0  0  0  0  0  0  0  0  0  0  0
   24.1032  -20.4623  -11.7130 C   0  0  0  0  0  0  0  0  0  0  0  0
   24.1439  -19.3255  -12.2374 O   0  0  0  0  0  0  0  0  0  0  0  0
   20.9858  -23.3730  -15.0684 N   0  0  0  0  0  0  0  0  0  0  0  0
   20.4966  -22.0709  -15.3279 C   0  0  0  0  0  0  0  0  0  0  0  0
   19.5866  -21.9698  -16.2205 O   0  0  0  0  0  0  0  0  0  0  0  0
   20.9600  -20.8655  -14.6428 C   0  0  0  0  0  0  0  0  0  0  0  0
   22.0105  -21.0177  -13.6226 C   0  0  0  0  0  0  0  0  0  0  0  0
   21.6618  -20.8602  -12.1910 C   0  0  2  0  0  0  0  0  0  0  0  0
   22.8433  -21.0060  -11.3436 N   0  0  0  0  0  0  0  0  0  0  0  0
   20.4552  -21.4630  -11.6660 C   0  0  0  0  0  0  0  0  0  0  0  0
   20.3780  -22.5635  -11.0802 O   0  0  0  0  0  0  0  0  0  0  0  0
   19.2269  -20.7876  -11.8047 O   0  0  0  0  0  0  0  0  0  0  0  0
  2  1  1  0
  3  2  2  0
  4  3  1  0
  5 11  1  0
  5  4  2  0
  6  5  1  0
  7  8  1  6
  7  9  1  0
  7  6  1  0
  9 10  2  0
 11 12  2  0
 12  2  1  0
 14 13  1  1
 14 16  1  0
 15 14  1  0
 15  9  1  0
 16 24  1  0
 16 17  2  0
 18 19  1  0
 19 21  1  0
 20 19  2  0
 22 21  1  0
 23 22  1  6
 24 23  1  0
 25 23  1  0
 25 27  1  0
 26 25  2  0
M  END
$$$$
