YAQ.pdb
     RDKit          3D

 27 27  0  0  1  0  0  0  0  0999 V2000
   27.5183  -19.8197   -5.0741 O   0  0  0  0  0  0  0  0  0  0  0  0
   26.9838  -19.8506   -6.3679 C   0  0  0  0  0  0  0  0  0  0  0  0
   27.0766  -18.7641   -7.1996 C   0  0  0  0  0  0  0  0  0  0  0  0
   26.5271  -18.8745   -8.4532 C   0  0  0  0  0  0  0  0  0  0  0  0
   25.8942  -20.0279   -8.8946 C   0  0  0  0  0  0  0  0  0  0  0  0
   25.3352  -20.0259  -10.2850 C   0  0  0  0  0  0  0  0  0  0  0  0
   25.9406  -21.1594  -11.0734 C   0  0  2  0  0  0  0  0  0  0  0  0
   27.3932  -21.0963  -11.0588 N   0  0  0  0  0  0  0  0  0  0  0  0
   25.4882  -21.1676  -12.4791 C   0  0  0  0  0  0  0  0  0  0  0  0
   25.4407  -20.0964  -13.1680 O   0  0  0  0  0  0  0  0  0  0  0  0
   25.8140  -21.0975   -8.0486 C   0  0  0  0  0  0  0  0  0  0  0  0
   26.3665  -21.0014   -6.7729 C   0  0  0  0  0  0  0  0  0  0  0  0
   25.4603  -23.3744  -15.2865 C   0  0  0  0  0  0  0  0  0  0  0  0
   24.6891  -22.3238  -14.4999 C   0  0  2  0  0  0  0  0  0  0  0  0
   25.0897  -22.3794  -13.1191 N   0  0  0  0  0  0  0  0  0  0  0  0
   23.2387  -22.7183  -14.6200 C   0  0  0  0  0  0  0  0  0  0  0  0
   22.7046  -23.4518  -13.7565 O   0  0  0  0  0  0  0  0  0  0  0  0
   18.9892  -22.8157  -12.7715 N   0  0  0  0  0  0  0  0  0  0  0  0
   18.6009  -21.5356  -13.2329 C   0  0  0  0  0  0  0  0  0  0  0  0
   17.4263  -21.1448  -12.9127 O   0  0  0  0  0  0  0  0  0  0  0  0
   19.4521  -20.6550  -14.0311 C   0  0  0  0  0  0  0  0  0  0  0  0
   20.8137  -21.1180  -14.3457 C   0  0  0  0  0  0  0  0  0  0  0  0
   21.0431  -21.9249  -15.5673 C   0  0  2  0  0  0  0  0  0  0  0  0
   22.4571  -22.2624  -15.7158 N   0  0  0  0  0  0  0  0  0  0  0  0
   20.3627  -21.5881  -16.7995 C   0  0  0  0  0  0  0  0  0  0  0  0
   19.5836  -22.3291  -17.4354 O   0  0  0  0  0  0  0  0  0  0  0  0
   20.5656  -20.3201  -17.3782 O   0  0  0  0  0  0  0  0  0  0  0  0
  2  1  1  0
  3  2  2  0
  4  3  1  0
  5 11  1  0
  5  4  2  0
  6  5  1  0
  7  8  1  6
  7  9  1  0
  7  6  1  0
  9 10  2  0
 11 12  2  0
 12  2  1  0
 14 13  1  6
 14 16  1  0
 15 14  1  0
 15  9  1  0
 16 24  1  0
 16 17  2  0
 18 19  1  0
 19 21  1  0
 20 19  2  0
 22 21  1  0
 23 22  1  1
 24 23  1  0
 25 23  1  0
 25 27  1  0
 26 25  2  0
M  END
$$$$
