YAQ.pdb
     RDKit          3D

 27 27  0  0  1  0  0  0  0  0999 V2000
   28.6774  -19.9715   -4.1321 O   0  0  0  0  0  0  0  0  0  0  0  0
   28.3141  -19.9314   -5.4837 C   0  0  0  0  0  0  0  0  0  0  0  0
   27.0858  -20.3763   -5.9013 C   0  0  0  0  0  0  0  0  0  0  0  0
   26.8061  -20.3031   -7.2437 C   0  0  0  0  0  0  0  0  0  0  0  0
   27.7095  -19.8030   -8.1709 C   0  0  0  0  0  0  0  0  0  0  0  0
   27.2866  -19.7738   -9.6083 C   0  0  0  0  0  0  0  0  0  0  0  0
   27.4024  -21.1573  -10.1959 C   0  0  2  0  0  0  0  0  0  0  0  0
   28.7932  -21.5592  -10.3311 N   0  0  0  0  0  0  0  0  0  0  0  0
   26.7569  -21.2586  -11.5203 C   0  0  0  0  0  0  0  0  0  0  0  0
   27.2326  -20.6583  -12.5389 O   0  0  0  0  0  0  0  0  0  0  0  0
   28.9267  -19.3655   -7.7314 C   0  0  0  0  0  0  0  0  0  0  0  0
   29.2261  -19.4333   -6.3722 C   0  0  0  0  0  0  0  0  0  0  0  0
   23.9588  -23.0512  -13.1852 C   0  0  0  0  0  0  0  0  0  0  0  0
   24.7862  -21.8084  -12.8889 C   0  0  2  0  0  0  0  0  0  0  0  0
   25.5755  -22.0370  -11.7079 N   0  0  0  0  0  0  0  0  0  0  0  0
   23.7837  -20.7143  -12.6211 C   0  0  0  0  0  0  0  0  0  0  0  0
   24.0782  -19.7481  -11.8803 O   0  0  0  0  0  0  0  0  0  0  0  0
   25.2141  -18.6524  -17.0965 N   0  0  0  0  0  0  0  0  0  0  0  0
   24.6434  -17.7161  -16.2021 C   0  0  0  0  0  0  0  0  0  0  0  0
   25.0847  -16.5179  -16.2708 O   0  0  0  0  0  0  0  0  0  0  0  0
   23.5977  -18.0359  -15.2319 C   0  0  0  0  0  0  0  0  0  0  0  0
   23.1705  -19.4405  -15.1223 C   0  0  0  0  0  0  0  0  0  0  0  0
   22.0582  -19.7929  -14.2088 C   0  0  2  0  0  0  0  0  0  0  0  0
   22.4897  -20.7646  -13.2063 N   0  0  0  0  0  0  0  0  0  0  0  0
   20.7264  -20.0070  -14.7336 C   0  0  0  0  0  0  0  0  0  0  0  0
   19.7446  -19.2506  -14.5781 O   0  0  0  0  0  0  0  0  0  0  0  0
   20.4596  -21.1615  -15.4951 O   0  0  0  0  0  0  0  0  0  0  0  0
  2  1  1  0
  3  2  2  0
  4  3  1  0
  5 11  1  0
  5  4  2  0
  6  5  1  0
  7  8  1  6
  7  9  1  0
  7  6  1  0
  9 10  2  0
 11 12  2  0
 12  2  1  0
 14 13  1  1
 14 16  1  0
 15 14  1  0
 15  9  1  0
 16 24  1  0
 16 17  2  0
 18 19  1  0
 19 21  1  0
 20 19  2  0
 22 21  1  0
 23 22  1  6
 24 23  1  0
 25 23  1  0
 25 27  1  0
 26 25  2  0
M  END
$$$$
