YAQ.pdb
     RDKit          3D

 27 27  0  0  1  0  0  0  0  0999 V2000
   20.5803  -22.8796   -6.5275 O   0  0  0  0  0  0  0  0  0  0  0  0
   21.2807  -22.2244   -7.5477 C   0  0  0  0  0  0  0  0  0  0  0  0
   21.0333  -22.5006   -8.8681 C   0  0  0  0  0  0  0  0  0  0  0  0
   21.7625  -21.8151   -9.8082 C   0  0  0  0  0  0  0  0  0  0  0  0
   22.7218  -20.8712   -9.4698 C   0  0  0  0  0  0  0  0  0  0  0  0
   23.4509  -20.1889  -10.5873 C   0  0  0  0  0  0  0  0  0  0  0  0
   24.7662  -20.8846  -10.8300 C   0  0  2  0  0  0  0  0  0  0  0  0
   25.7018  -20.6394   -9.7443 N   0  0  0  0  0  0  0  0  0  0  0  0
   25.3985  -20.4604  -12.0953 C   0  0  0  0  0  0  0  0  0  0  0  0
   25.8579  -19.2812  -12.2458 O   0  0  0  0  0  0  0  0  0  0  0  0
   22.9509  -20.6127   -8.1481 C   0  0  0  0  0  0  0  0  0  0  0  0
   22.2192  -21.3001   -7.1817 C   0  0  0  0  0  0  0  0  0  0  0  0
   26.6020  -21.8368  -15.3011 C   0  0  0  0  0  0  0  0  0  0  0  0
   25.8135  -20.8138  -14.4957 C   0  0  2  0  0  0  0  0  0  0  0  0
   25.5207  -21.3595  -13.1970 N   0  0  0  0  0  0  0  0  0  0  0  0
   24.5285  -20.6087  -15.2575 C   0  0  0  0  0  0  0  0  0  0  0  0
   23.4325  -20.9625  -14.7648 O   0  0  0  0  0  0  0  0  0  0  0  0
   22.9248  -15.5769  -16.9966 N   0  0  0  0  0  0  0  0  0  0  0  0
   21.6934  -16.2509  -16.8187 C   0  0  0  0  0  0  0  0  0  0  0  0
   20.6332  -15.5753  -17.0520 O   0  0  0  0  0  0  0  0  0  0  0  0
   21.5716  -17.6459  -16.3986 C   0  0  0  0  0  0  0  0  0  0  0  0
   22.8095  -18.3773  -16.0824 C   0  0  0  0  0  0  0  0  0  0  0  0
   23.3801  -19.3082  -17.0843 C   0  0  2  0  0  0  0  0  0  0  0  0
   24.5433  -20.0102  -16.5463 N   0  0  0  0  0  0  0  0  0  0  0  0
   23.4973  -18.9034  -18.4690 C   0  0  0  0  0  0  0  0  0  0  0  0
   24.4276  -18.2315  -18.9623 O   0  0  0  0  0  0  0  0  0  0  0  0
   22.4944  -19.2740  -19.3859 O   0  0  0  0  0  0  0  0  0  0  0  0
  2  1  1  0
  3  2  2  0
  4  3  1  0
  5 11  1  0
  5  4  2  0
  6  5  1  0
  7  8  1  1
  7  9  1  0
  7  6  1  0
  9 10  2  0
 11 12  2  0
 12  2  1  0
 14 13  1  6
 14 16  1  0
 15 14  1  0
 15  9  1  0
 16 24  1  0
 16 17  2  0
 18 19  1  0
 19 21  1  0
 20 19  2  0
 22 21  1  0
 23 22  1  1
 24 23  1  0
 25 23  1  0
 25 27  1  0
 26 25  2  0
M  END
$$$$
