YAQ.pdb
     RDKit          3D

 27 27  0  0  1  0  0  0  0  0999 V2000
   17.0187  -15.5390  -21.5161 O   0  0  0  0  0  0  0  0  0  0  0  0
   17.1451  -14.4441  -20.6525 C   0  0  0  0  0  0  0  0  0  0  0  0
   16.1274  -14.0887  -19.8046 C   0  0  0  0  0  0  0  0  0  0  0  0
   16.3298  -13.0026  -18.9890 C   0  0  0  0  0  0  0  0  0  0  0  0
   17.5081  -12.2695  -18.9965 C   0  0  0  0  0  0  0  0  0  0  0  0
   17.6089  -11.1053  -18.0584 C   0  0  0  0  0  0  0  0  0  0  0  0
   18.5168  -11.4616  -16.9087 C   0  0  2  0  0  0  0  0  0  0  0  0
   17.8731  -12.3928  -15.9962 N   0  0  0  0  0  0  0  0  0  0  0  0
   18.9398  -10.2733  -16.1407 C   0  0  0  0  0  0  0  0  0  0  0  0
   18.1412   -9.6764  -15.3468 O   0  0  0  0  0  0  0  0  0  0  0  0
   18.5078  -12.6425  -19.8496 C   0  0  0  0  0  0  0  0  0  0  0  0
   18.3180  -13.7423  -20.6839 C   0  0  0  0  0  0  0  0  0  0  0  0
   22.1162   -8.3850  -15.5346 C   0  0  0  0  0  0  0  0  0  0  0  0
   20.6075   -8.5827  -15.4926 C   0  0  2  0  0  0  0  0  0  0  0  0
   20.2628   -9.7511  -16.2583 N   0  0  0  0  0  0  0  0  0  0  0  0
   20.0246   -7.3582  -16.1518 C   0  0  0  0  0  0  0  0  0  0  0  0
   19.4380   -7.4471  -17.2549 O   0  0  0  0  0  0  0  0  0  0  0  0
   15.2605   -5.7190  -17.1550 N   0  0  0  0  0  0  0  0  0  0  0  0
   15.7989   -4.4106  -17.1737 C   0  0  0  0  0  0  0  0  0  0  0  0
   14.9969   -3.4672  -17.4927 O   0  0  0  0  0  0  0  0  0  0  0  0
   17.1872   -4.0867  -16.8497 C   0  0  0  0  0  0  0  0  0  0  0  0
   18.0749   -5.1927  -16.4546 C   0  0  0  0  0  0  0  0  0  0  0  0
   19.4780   -4.8999  -16.0786 C   0  0  2  0  0  0  0  0  0  0  0  0
   20.1329   -6.0853  -15.5295 N   0  0  0  0  0  0  0  0  0  0  0  0
   19.8087   -3.6567  -15.4153 C   0  0  0  0  0  0  0  0  0  0  0  0
   19.7362   -3.4364  -14.1879 O   0  0  0  0  0  0  0  0  0  0  0  0
   20.2566   -2.5619  -16.1798 O   0  0  0  0  0  0  0  0  0  0  0  0
  2  1  1  0
  3  2  2  0
  4  3  1  0
  5 11  1  0
  5  4  2  0
  6  5  1  0
  7  8  1  1
  7  9  1  0
  7  6  1  0
  9 10  2  0
 11 12  2  0
 12  2  1  0
 14 13  1  6
 14 16  1  0
 15 14  1  0
 15  9  1  0
 16 24  1  0
 16 17  2  0
 18 19  1  0
 19 21  1  0
 20 19  2  0
 22 21  1  0
 23 22  1  1
 24 23  1  0
 25 23  1  0
 25 27  1  0
 26 25  2  0
M  END
$$$$
