YAQ.pdb
     RDKit          3D

 27 27  0  0  1  0  0  0  0  0999 V2000
   25.7538   -1.2285  -20.5998 O   0  0  0  0  0  0  0  0  0  0  0  0
   26.5176   -2.4019  -20.5845 C   0  0  0  0  0  0  0  0  0  0  0  0
   27.7451   -2.4411  -19.9739 C   0  0  0  0  0  0  0  0  0  0  0  0
   28.4316   -3.6300  -20.0027 C   0  0  0  0  0  0  0  0  0  0  0  0
   27.9313   -4.7690  -20.6178 C   0  0  0  0  0  0  0  0  0  0  0  0
   28.7751   -6.0069  -20.5809 C   0  0  0  0  0  0  0  0  0  0  0  0
   28.1177   -7.0390  -19.7003 C   0  0  2  0  0  0  0  0  0  0  0  0
   27.9936   -6.5638  -18.3317 N   0  0  0  0  0  0  0  0  0  0  0  0
   28.8594   -8.3159  -19.6851 C   0  0  0  0  0  0  0  0  0  0  0  0
   29.0643   -8.9780  -20.7546 O   0  0  0  0  0  0  0  0  0  0  0  0
   26.7065   -4.7060  -21.2194 C   0  0  0  0  0  0  0  0  0  0  0  0
   25.9972   -3.5067  -21.1991 C   0  0  0  0  0  0  0  0  0  0  0  0
   30.8708  -10.2910  -17.2322 C   0  0  0  0  0  0  0  0  0  0  0  0
   30.0822  -10.1074  -18.5212 C   0  0  2  0  0  0  0  0  0  0  0  0
   29.3771   -8.8543  -18.4689 N   0  0  0  0  0  0  0  0  0  0  0  0
   29.0904  -11.2428  -18.5492 C   0  0  0  0  0  0  0  0  0  0  0  0
   28.1826  -11.3169  -17.6893 O   0  0  0  0  0  0  0  0  0  0  0  0
   25.5415  -14.1222  -17.2116 N   0  0  0  0  0  0  0  0  0  0  0  0
   25.1243  -14.3929  -18.5364 C   0  0  0  0  0  0  0  0  0  0  0  0
   24.1864  -15.2506  -18.6761 O   0  0  0  0  0  0  0  0  0  0  0  0
   25.6901  -13.7556  -19.7242 C   0  0  0  0  0  0  0  0  0  0  0  0
   26.8165  -12.8271  -19.5333 C   0  0  0  0  0  0  0  0  0  0  0  0
   28.2042  -13.3372  -19.6334 C   0  0  2  0  0  0  0  0  0  0  0  0
   29.1722  -12.2455  -19.5529 N   0  0  0  0  0  0  0  0  0  0  0  0
   28.5306  -14.3739  -20.5892 C   0  0  0  0  0  0  0  0  0  0  0  0
   29.5088  -14.3762  -21.3659 O   0  0  0  0  0  0  0  0  0  0  0  0
   27.6984  -15.5055  -20.6945 O   0  0  0  0  0  0  0  0  0  0  0  0
  2  1  1  0
  3  2  2  0
  4  3  1  0
  5 11  1  0
  5  4  2  0
  6  5  1  0
  7  8  1  1
  7  9  1  0
  7  6  1  0
  9 10  2  0
 11 12  2  0
 12  2  1  0
 14 13  1  1
 14 16  1  0
 15 14  1  0
 15  9  1  0
 16 24  1  0
 16 17  2  0
 18 19  1  0
 19 21  1  0
 20 19  2  0
 22 21  1  0
 23 22  1  6
 24 23  1  0
 25 23  1  0
 25 27  1  0
 26 25  2  0
M  END
$$$$
