YAQ.pdb
     RDKit          3D

 27 27  0  0  1  0  0  0  0  0999 V2000
   18.7604  -22.9190  -10.1476 O   0  0  0  0  0  0  0  0  0  0  0  0
   19.8485  -22.2954  -10.7703 C   0  0  0  0  0  0  0  0  0  0  0  0
   20.4348  -21.1819  -10.2250 C   0  0  0  0  0  0  0  0  0  0  0  0
   21.4974  -20.6296  -10.8971 C   0  0  0  0  0  0  0  0  0  0  0  0
   21.9856  -21.1531  -12.0859 C   0  0  0  0  0  0  0  0  0  0  0  0
   23.1517  -20.4610  -12.7238 C   0  0  0  0  0  0  0  0  0  0  0  0
   24.3900  -21.3053  -12.5603 C   0  0  2  0  0  0  0  0  0  0  0  0
   24.8279  -21.3379  -11.1741 N   0  0  0  0  0  0  0  0  0  0  0  0
   25.5105  -20.8222  -13.3921 C   0  0  0  0  0  0  0  0  0  0  0  0
   26.1696  -19.7778  -13.0772 O   0  0  0  0  0  0  0  0  0  0  0  0
   21.3855  -22.2629  -12.6099 C   0  0  0  0  0  0  0  0  0  0  0  0
   20.3058  -22.8353  -11.9402 C   0  0  0  0  0  0  0  0  0  0  0  0
   27.7484  -22.0512  -16.0329 C   0  0  0  0  0  0  0  0  0  0  0  0
   26.9309  -20.9344  -15.3993 C   0  0  2  0  0  0  0  0  0  0  0  0
   25.8983  -21.5114  -14.5802 N   0  0  0  0  0  0  0  0  0  0  0  0
   26.3036  -20.1932  -16.5530 C   0  0  0  0  0  0  0  0  0  0  0  0
   25.0865  -20.3332  -16.8136 O   0  0  0  0  0  0  0  0  0  0  0  0
   23.5521  -15.8407  -19.2856 N   0  0  0  0  0  0  0  0  0  0  0  0
   24.4450  -15.4660  -18.2538 C   0  0  0  0  0  0  0  0  0  0  0  0
   24.4358  -14.2346  -17.9095 O   0  0  0  0  0  0  0  0  0  0  0  0
   25.3506  -16.3897  -17.5729 C   0  0  0  0  0  0  0  0  0  0  0  0
   25.2740  -17.8152  -17.9328 C   0  0  0  0  0  0  0  0  0  0  0  0
   26.4905  -18.5090  -18.4174 C   0  0  2  0  0  0  0  0  0  0  0  0
   27.0858  -19.3245  -17.3610 N   0  0  0  0  0  0  0  0  0  0  0  0
   27.4393  -17.8111  -19.2585 C   0  0  0  0  0  0  0  0  0  0  0  0
   28.6371  -17.5854  -18.9852 O   0  0  0  0  0  0  0  0  0  0  0  0
   27.0230  -17.3185  -20.5107 O   0  0  0  0  0  0  0  0  0  0  0  0
  2  1  1  0
  3  2  2  0
  4  3  1  0
  5 11  1  0
  5  4  2  0
  6  5  1  0
  7  8  1  1
  7  9  1  0
  7  6  1  0
  9 10  2  0
 11 12  2  0
 12  2  1  0
 14 13  1  6
 14 16  1  0
 15 14  1  0
 15  9  1  0
 16 24  1  0
 16 17  2  0
 18 19  1  0
 19 21  1  0
 20 19  2  0
 22 21  1  0
 23 22  1  1
 24 23  1  0
 25 23  1  0
 25 27  1  0
 26 25  2  0
M  END
$$$$
