YAQ.pdb
     RDKit          3D

 27 27  0  0  1  0  0  0  0  0999 V2000
   28.6578  -19.3000   -5.4609 O   0  0  0  0  0  0  0  0  0  0  0  0
   28.0437  -19.8026   -6.6145 C   0  0  0  0  0  0  0  0  0  0  0  0
   28.7519  -20.5342   -7.5333 C   0  0  0  0  0  0  0  0  0  0  0  0
   28.0767  -20.9915   -8.6382 C   0  0  0  0  0  0  0  0  0  0  0  0
   26.7280  -20.7412   -8.8485 C   0  0  0  0  0  0  0  0  0  0  0  0
   26.1036  -21.2954  -10.0930 C   0  0  0  0  0  0  0  0  0  0  0  0
   26.1930  -20.2751  -11.1993 C   0  0  2  0  0  0  0  0  0  0  0  0
   25.5947  -19.0109  -10.8016 N   0  0  0  0  0  0  0  0  0  0  0  0
   25.5335  -20.7339  -12.4384 C   0  0  0  0  0  0  0  0  0  0  0  0
   24.2977  -20.5103  -12.6551 O   0  0  0  0  0  0  0  0  0  0  0  0
   26.0433  -20.0103   -7.9195 C   0  0  0  0  0  0  0  0  0  0  0  0
   26.7141  -19.5387   -6.7928 C   0  0  0  0  0  0  0  0  0  0  0  0
   26.5798  -22.3277  -15.6642 C   0  0  0  0  0  0  0  0  0  0  0  0
   25.5676  -21.8279  -14.6431 C   0  0  2  0  0  0  0  0  0  0  0  0
   26.2594  -21.4435  -13.4415 N   0  0  0  0  0  0  0  0  0  0  0  0
   24.6739  -23.0077  -14.3545 C   0  0  0  0  0  0  0  0  0  0  0  0
   24.8957  -23.7487  -13.3693 O   0  0  0  0  0  0  0  0  0  0  0  0
   20.4778  -19.5501  -13.8562 N   0  0  0  0  0  0  0  0  0  0  0  0
   20.0676  -20.6508  -13.0672 C   0  0  0  0  0  0  0  0  0  0  0  0
   19.0328  -20.4761  -12.3368 O   0  0  0  0  0  0  0  0  0  0  0  0
   20.7433  -21.9471  -13.0476 C   0  0  0  0  0  0  0  0  0  0  0  0
   22.0023  -22.0754  -13.7999 C   0  0  0  0  0  0  0  0  0  0  0  0
   22.1898  -23.2280  -14.7122 C   0  0  2  0  0  0  0  0  0  0  0  0
   23.5665  -23.2951  -15.1974 N   0  0  0  0  0  0  0  0  0  0  0  0
   21.1786  -23.5478  -15.6970 C   0  0  0  0  0  0  0  0  0  0  0  0
   21.0536  -23.0178  -16.8212 O   0  0  0  0  0  0  0  0  0  0  0  0
   20.2212  -24.5400  -15.4093 O   0  0  0  0  0  0  0  0  0  0  0  0
  2  1  1  0
  3  2  2  0
  4  3  1  0
  5 11  1  0
  5  4  2  0
  6  5  1  0
  7  8  1  1
  7  9  1  0
  7  6  1  0
  9 10  2  0
 11 12  2  0
 12  2  1  0
 14 13  1  6
 14 16  1  0
 15 14  1  0
 15  9  1  0
 16 24  1  0
 16 17  2  0
 18 19  1  0
 19 21  1  0
 20 19  2  0
 22 21  1  0
 23 22  1  6
 24 23  1  0
 25 23  1  0
 25 27  1  0
 26 25  2  0
M  END
$$$$
