YAQ.pdb
     RDKit          3D

 27 27  0  0  1  0  0  0  0  0999 V2000
   20.2721  -22.6541   -7.5095 O   0  0  0  0  0  0  0  0  0  0  0  0
   21.0450  -22.0857   -8.5293 C   0  0  0  0  0  0  0  0  0  0  0  0
   21.9305  -21.0719   -8.2667 C   0  0  0  0  0  0  0  0  0  0  0  0
   22.6512  -20.5684   -9.3216 C   0  0  0  0  0  0  0  0  0  0  0  0
   22.5137  -21.0445  -10.6179 C   0  0  0  0  0  0  0  0  0  0  0  0
   23.3575  -20.4139  -11.6837 C   0  0  0  0  0  0  0  0  0  0  0  0
   24.5487  -21.2927  -11.9693 C   0  0  2  0  0  0  0  0  0  0  0  0
   25.4943  -21.2761  -10.8649 N   0  0  0  0  0  0  0  0  0  0  0  0
   25.2603  -20.8886  -13.1986 C   0  0  0  0  0  0  0  0  0  0  0  0
   25.9834  -19.8398  -13.2334 O   0  0  0  0  0  0  0  0  0  0  0  0
   21.6255  -22.0550  -10.8552 C   0  0  0  0  0  0  0  0  0  0  0  0
   20.8863  -22.5767   -9.7954 C   0  0  0  0  0  0  0  0  0  0  0  0
   26.8897  -22.2566  -15.9749 C   0  0  0  0  0  0  0  0  0  0  0  0
   25.8698  -21.2046  -15.5625 C   0  0  2  0  0  0  0  0  0  0  0  0
   25.1655  -21.6622  -14.3943 N   0  0  0  0  0  0  0  0  0  0  0  0
   24.9103  -21.1011  -16.7211 C   0  0  0  0  0  0  0  0  0  0  0  0
   23.9897  -21.9387  -16.8623 O   0  0  0  0  0  0  0  0  0  0  0  0
   21.6832  -16.3101  -18.7445 N   0  0  0  0  0  0  0  0  0  0  0  0
   21.9932  -17.0406  -17.5729 C   0  0  0  0  0  0  0  0  0  0  0  0
   21.5245  -16.5843  -16.4742 O   0  0  0  0  0  0  0  0  0  0  0  0
   22.7956  -18.2624  -17.5526 C   0  0  0  0  0  0  0  0  0  0  0  0
   23.3621  -18.7319  -18.8278 C   0  0  0  0  0  0  0  0  0  0  0  0
   24.1790  -19.9680  -18.8491 C   0  0  2  0  0  0  0  0  0  0  0  0
   25.0375  -20.0506  -17.6695 N   0  0  0  0  0  0  0  0  0  0  0  0
   24.7910  -20.4139  -20.0826 C   0  0  0  0  0  0  0  0  0  0  0  0
   25.8865  -20.0270  -20.5415 O   0  0  0  0  0  0  0  0  0  0  0  0
   24.1297  -21.3703  -20.8775 O   0  0  0  0  0  0  0  0  0  0  0  0
  2  1  1  0
  3  2  2  0
  4  3  1  0
  5 11  1  0
  5  4  2  0
  6  5  1  0
  7  8  1  1
  7  9  1  0
  7  6  1  0
  9 10  2  0
 11 12  2  0
 12  2  1  0
 14 13  1  6
 14 16  1  0
 15 14  1  0
 15  9  1  0
 16 24  1  0
 16 17  2  0
 18 19  1  0
 19 21  1  0
 20 19  2  0
 22 21  1  0
 23 22  1  6
 24 23  1  0
 25 23  1  0
 25 27  1  0
 26 25  2  0
M  END
$$$$
