YAQ.pdb
     RDKit          3D

 27 27  0  0  1  0  0  0  0  0999 V2000
   25.4685  -20.5812   -6.4156 O   0  0  0  0  0  0  0  0  0  0  0  0
   25.4201  -20.4239   -7.8061 C   0  0  0  0  0  0  0  0  0  0  0  0
   24.3731  -20.9203   -8.5398 C   0  0  0  0  0  0  0  0  0  0  0  0
   24.4000  -20.7243   -9.8987 C   0  0  0  0  0  0  0  0  0  0  0  0
   25.4325  -20.0531  -10.5384 C   0  0  0  0  0  0  0  0  0  0  0  0
   25.3470  -19.9022  -12.0269 C   0  0  0  0  0  0  0  0  0  0  0  0
   25.5603  -21.2429  -12.6826 C   0  0  2  0  0  0  0  0  0  0  0  0
   26.9007  -21.7470  -12.4305 N   0  0  0  0  0  0  0  0  0  0  0  0
   25.3483  -21.1916  -14.1431 C   0  0  0  0  0  0  0  0  0  0  0  0
   26.1626  -20.5829  -14.9117 O   0  0  0  0  0  0  0  0  0  0  0  0
   26.4646  -19.5673   -9.7868 C   0  0  0  0  0  0  0  0  0  0  0  0
   26.4524  -19.7581   -8.4064 C   0  0  0  0  0  0  0  0  0  0  0  0
   23.6733  -23.0705  -16.7420 C   0  0  0  0  0  0  0  0  0  0  0  0
   24.0564  -21.7117  -16.1728 C   0  0  2  0  0  0  0  0  0  0  0  0
   24.2222  -21.8262  -14.7482 N   0  0  0  0  0  0  0  0  0  0  0  0
   22.8874  -20.8078  -16.4730 C   0  0  0  0  0  0  0  0  0  0  0  0
   22.1793  -20.3530  -15.5452 O   0  0  0  0  0  0  0  0  0  0  0  0
   18.2098  -17.9513  -17.5173 N   0  0  0  0  0  0  0  0  0  0  0  0
   19.3110  -17.3710  -16.8443 C   0  0  0  0  0  0  0  0  0  0  0  0
   19.1049  -16.9768  -15.6455 O   0  0  0  0  0  0  0  0  0  0  0  0
   20.6407  -17.2077  -17.4296 C   0  0  0  0  0  0  0  0  0  0  0  0
   21.6064  -18.3049  -17.2543 C   0  0  0  0  0  0  0  0  0  0  0  0
   21.5234  -19.4941  -18.1346 C   0  0  2  0  0  0  0  0  0  0  0  0
   22.5731  -20.4590  -17.8142 N   0  0  0  0  0  0  0  0  0  0  0  0
   21.2497  -19.3355  -19.5470 C   0  0  0  0  0  0  0  0  0  0  0  0
   22.0962  -19.3453  -20.4655 O   0  0  0  0  0  0  0  0  0  0  0  0
   19.9221  -19.1472  -19.9781 O   0  0  0  0  0  0  0  0  0  0  0  0
  2  1  1  0
  3  2  2  0
  4  3  1  0
  5 11  1  0
  5  4  2  0
  6  5  1  0
  7  8  1  6
  7  9  1  0
  7  6  1  0
  9 10  2  0
 11 12  2  0
 12  2  1  0
 14 13  1  1
 14 16  1  0
 15 14  1  0
 15  9  1  0
 16 24  1  0
 16 17  2  0
 18 19  1  0
 19 21  1  0
 20 19  2  0
 22 21  1  0
 23 22  1  6
 24 23  1  0
 25 23  1  0
 25 27  1  0
 26 25  2  0
M  END
$$$$
