YAQ.pdb
     RDKit          3D

 27 27  0  0  1  0  0  0  0  0999 V2000
   16.7658  -13.3068  -20.8344 O   0  0  0  0  0  0  0  0  0  0  0  0
   16.8940  -12.5825  -19.6430 C   0  0  0  0  0  0  0  0  0  0  0  0
   17.4867  -11.3458  -19.6252 C   0  0  0  0  0  0  0  0  0  0  0  0
   17.5737  -10.7002  -18.4164 C   0  0  0  0  0  0  0  0  0  0  0  0
   17.0902  -11.2494  -17.2373 C   0  0  0  0  0  0  0  0  0  0  0  0
   17.2432  -10.4460  -15.9816 C   0  0  0  0  0  0  0  0  0  0  0  0
   18.6757  -10.5069  -15.5156 C   0  0  2  0  0  0  0  0  0  0  0  0
   19.0435  -11.8549  -15.1134 N   0  0  0  0  0  0  0  0  0  0  0  0
   18.9350   -9.5953  -14.3831 C   0  0  0  0  0  0  0  0  0  0  0  0
   18.4864   -9.8414  -13.2159 O   0  0  0  0  0  0  0  0  0  0  0  0
   16.5037  -12.4825  -17.2797 C   0  0  0  0  0  0  0  0  0  0  0  0
   16.4078  -13.1510  -18.4986 C   0  0  0  0  0  0  0  0  0  0  0  0
   21.0425   -6.5773  -13.7243 C   0  0  0  0  0  0  0  0  0  0  0  0
   19.9272   -7.5640  -13.4091 C   0  0  2  0  0  0  0  0  0  0  0  0
   19.7020   -8.4041  -14.5553 N   0  0  0  0  0  0  0  0  0  0  0  0
   18.7044   -6.7188  -13.1558 C   0  0  0  0  0  0  0  0  0  0  0  0
   17.9886   -6.3326  -14.1084 O   0  0  0  0  0  0  0  0  0  0  0  0
   15.4787   -6.4686   -7.5473 N   0  0  0  0  0  0  0  0  0  0  0  0
   15.0110   -5.3831   -8.3253 C   0  0  0  0  0  0  0  0  0  0  0  0
   14.0630   -4.6871   -7.8236 O   0  0  0  0  0  0  0  0  0  0  0  0
   15.5446   -5.0199   -9.6370 C   0  0  0  0  0  0  0  0  0  0  0  0
   16.6668   -5.8137  -10.1643 C   0  0  0  0  0  0  0  0  0  0  0  0
   17.1441   -5.5695  -11.5458 C   0  0  2  0  0  0  0  0  0  0  0  0
   18.3470   -6.3486  -11.8312 N   0  0  0  0  0  0  0  0  0  0  0  0
   17.1416   -4.2282  -12.0895 C   0  0  0  0  0  0  0  0  0  0  0  0
   18.1150   -3.4460  -12.1215 O   0  0  0  0  0  0  0  0  0  0  0  0
   15.9558   -3.7081  -12.6440 O   0  0  0  0  0  0  0  0  0  0  0  0
  2  1  1  0
  3  2  2  0
  4  3  1  0
  5 11  1  0
  5  4  2  0
  6  5  1  0
  7  8  1  1
  7  9  1  0
  7  6  1  0
  9 10  2  0
 11 12  2  0
 12  2  1  0
 14 13  1  6
 14 16  1  0
 15 14  1  0
 15  9  1  0
 16 24  1  0
 16 17  2  0
 18 19  1  0
 19 21  1  0
 20 19  2  0
 22 21  1  0
 23 22  1  1
 24 23  1  0
 25 23  1  0
 25 27  1  0
 26 25  2  0
M  END
$$$$
