YAQ.pdb
     RDKit          3D

 27 27  0  0  1  0  0  0  0  0999 V2000
   20.9895  -21.3793  -12.3381 O   0  0  0  0  0  0  0  0  0  0  0  0
   22.0561  -21.9533  -13.0406 C   0  0  0  0  0  0  0  0  0  0  0  0
   21.8956  -23.1190  -13.7451 C   0  0  0  0  0  0  0  0  0  0  0  0
   22.9906  -23.6171  -14.4074 C   0  0  0  0  0  0  0  0  0  0  0  0
   24.2282  -22.9897  -14.3861 C   0  0  0  0  0  0  0  0  0  0  0  0
   25.3465  -23.6313  -15.1500 C   0  0  0  0  0  0  0  0  0  0  0  0
   25.5826  -22.8721  -16.4309 C   0  0  2  0  0  0  0  0  0  0  0  0
   24.4234  -22.9389  -17.3060 N   0  0  0  0  0  0  0  0  0  0  0  0
   26.7562  -23.3763  -17.1721 C   0  0  0  0  0  0  0  0  0  0  0  0
   26.6852  -24.4226  -17.8963 O   0  0  0  0  0  0  0  0  0  0  0  0
   24.3640  -21.8296  -13.6777 C   0  0  0  0  0  0  0  0  0  0  0  0
   23.2624  -21.3111  -12.9998 C   0  0  0  0  0  0  0  0  0  0  0  0
   30.3022  -22.3079  -17.7638 C   0  0  0  0  0  0  0  0  0  0  0  0
   29.1337  -23.2826  -17.8028 C   0  0  2  0  0  0  0  0  0  0  0  0
   28.0146  -22.7063  -17.1059 N   0  0  0  0  0  0  0  0  0  0  0  0
   29.6098  -24.5083  -17.0648 C   0  0  0  0  0  0  0  0  0  0  0  0
   29.0307  -24.8885  -16.0212 O   0  0  0  0  0  0  0  0  0  0  0  0
   28.8974  -30.5277  -18.9416 N   0  0  0  0  0  0  0  0  0  0  0  0
   29.8631  -29.7437  -18.2670 C   0  0  0  0  0  0  0  0  0  0  0  0
   31.0683  -29.8383  -18.6836 O   0  0  0  0  0  0  0  0  0  0  0  0
   29.5631  -28.8486  -17.1507 C   0  0  0  0  0  0  0  0  0  0  0  0
   29.6059  -27.3990  -17.4037 C   0  0  0  0  0  0  0  0  0  0  0  0
   30.8878  -26.6716  -17.2496 C   0  0  2  0  0  0  0  0  0  0  0  0
   30.7234  -25.2497  -17.5439 N   0  0  0  0  0  0  0  0  0  0  0  0
   32.1191  -27.2576  -17.7347 C   0  0  0  0  0  0  0  0  0  0  0  0
   32.9358  -27.9174  -17.0579 O   0  0  0  0  0  0  0  0  0  0  0  0
   32.4770  -27.0959  -19.0873 O   0  0  0  0  0  0  0  0  0  0  0  0
  2  1  1  0
  3  2  2  0
  4  3  1  0
  5 11  1  0
  5  4  2  0
  6  5  1  0
  7  8  1  6
  7  9  1  0
  7  6  1  0
  9 10  2  0
 11 12  2  0
 12  2  1  0
 14 13  1  1
 14 16  1  0
 15 14  1  0
 15  9  1  0
 16 24  1  0
 16 17  2  0
 18 19  1  0
 19 21  1  0
 20 19  2  0
 22 21  1  0
 23 22  1  6
 24 23  1  0
 25 23  1  0
 25 27  1  0
 26 25  2  0
M  END
$$$$
