LVR.pdb
     RDKit          3D

 27 26  0  0  1  0  0  0  0  0999 V2000
    7.0721  -10.8903   27.4827 C   0  0  0  0  0  0  0  0  0  0  0  0
    6.2583  -11.9405   26.7565 C   0  0  1  0  0  0  0  0  0  0  0  0
    5.5375  -11.2805   25.5942 C   0  0  0  0  0  0  0  0  0  0  0  0
    7.1343  -13.0269   26.1789 C   0  0  0  0  0  0  0  0  0  0  0  0
    6.2454  -13.9496   25.3702 C   0  0  2  0  0  0  0  0  0  0  0  0
    5.4679  -14.7156   26.3238 N   0  0  0  0  0  0  0  0  0  0  0  0
    7.0213  -14.8873   24.5432 C   0  0  0  0  0  0  0  0  0  0  0  0
    7.3354  -16.0196   24.9835 O   0  0  0  0  0  0  0  0  0  0  0  0
    7.0168  -14.9025   20.4080 C   0  0  0  0  0  0  0  0  0  0  0  0
    8.3861  -15.1388   21.0117 C   0  0  2  0  0  0  0  0  0  0  0  0
    9.0733  -16.1814   20.1865 C   0  0  0  0  0  0  0  0  0  0  0  0
    8.2489  -15.5121   22.4647 C   0  0  2  0  0  0  0  0  0  0  0  0
    7.4614  -14.5929   23.2231 N   0  0  0  0  0  0  0  0  0  0  0  0
    9.5880  -15.7583   23.1128 C   0  0  0  0  0  0  0  0  0  0  0  0
   10.3478  -14.8023   23.4034 O   0  0  0  0  0  0  0  0  0  0  0  0
   10.9676  -20.2315   30.0349 N   0  0  0  0  0  0  0  0  0  0  0  0
   12.0981  -20.6346   29.2897 C   0  0  0  0  0  0  0  0  0  0  0  0
   12.8871  -21.5445   29.7518 N   0  0  0  0  0  0  0  0  0  0  0  0
   12.4245  -20.0757   28.0194 N   0  0  0  0  0  0  0  0  0  0  0  0
   11.6546  -18.9456   27.5597 C   0  0  0  0  0  0  0  0  0  0  0  0
   12.1490  -18.5466   26.1832 C   0  0  0  0  0  0  0  0  0  0  0  0
   10.9748  -18.1696   25.3459 C   0  0  0  0  0  0  0  0  0  0  0  0
   11.2738  -17.3251   24.1481 C   0  0  2  0  0  0  0  0  0  0  0  0
   10.0274  -17.0692   23.4119 N   0  0  0  0  0  0  0  0  0  0  0  0
   12.2663  -17.9940   23.2937 C   0  0  0  0  0  0  0  0  0  0  0  0
   11.9885  -18.8268   22.3814 O   0  0  0  0  0  0  0  0  0  0  0  0
   13.6110  -17.7209   23.4632 O   0  0  0  0  0  0  0  0  0  0  0  0
  2  1  1  6
  2  3  1  0
  4  5  1  0
  4  2  1  0
  5  6  1  1
  7  5  1  0
  7  8  2  0
 10 11  1  6
 10  9  1  0
 10 12  1  0
 12 13  1  1
 13  7  1  0
 14 15  2  0
 14 12  1  0
 16 17  1  0
 17 18  2  0
 19 17  1  0
 19 20  1  0
 21 20  1  0
 21 22  1  0
 23 22  1  1
 23 24  1  0
 23 25  1  0
 24 14  1  0
 25 27  1  0
 26 25  2  0
M  END
$$$$
