LVR.pdb
     RDKit          3D

 27 26  0  0  1  0  0  0  0  0999 V2000
    7.3559  -11.9083   18.6127 C   0  0  0  0  0  0  0  0  0  0  0  0
    7.9997  -13.2117   19.0363 C   0  0  1  0  0  0  0  0  0  0  0  0
    9.4434  -12.9395   19.4209 C   0  0  0  0  0  0  0  0  0  0  0  0
    7.3196  -13.8039   20.2480 C   0  0  0  0  0  0  0  0  0  0  0  0
    8.0288  -15.1003   20.5825 C   0  0  2  0  0  0  0  0  0  0  0  0
    8.0444  -15.8890   19.3667 N   0  0  0  0  0  0  0  0  0  0  0  0
    7.3272  -15.8665   21.6246 C   0  0  0  0  0  0  0  0  0  0  0  0
    7.1787  -15.3918   22.7768 O   0  0  0  0  0  0  0  0  0  0  0  0
    4.0450  -18.0404   21.0712 C   0  0  0  0  0  0  0  0  0  0  0  0
    5.0267  -18.8040   21.9362 C   0  0  2  0  0  0  0  0  0  0  0  0
    4.2477  -19.4768   23.0229 C   0  0  0  0  0  0  0  0  0  0  0  0
    6.0942  -17.8717   22.4468 C   0  0  2  0  0  0  0  0  0  0  0  0
    6.7806  -17.1625   21.4142 N   0  0  0  0  0  0  0  0  0  0  0  0
    7.0582  -18.5706   23.3720 C   0  0  0  0  0  0  0  0  0  0  0  0
    8.0784  -19.1474   22.9222 O   0  0  0  0  0  0  0  0  0  0  0  0
   10.6739  -15.5685   29.1804 N   0  0  0  0  0  0  0  0  0  0  0  0
    9.9684  -14.7538   28.2670 C   0  0  0  0  0  0  0  0  0  0  0  0
    9.3638  -13.6918   28.6802 N   0  0  0  0  0  0  0  0  0  0  0  0
    9.8853  -15.0485   26.8746 N   0  0  0  0  0  0  0  0  0  0  0  0
   10.7004  -16.1222   26.3607 C   0  0  0  0  0  0  0  0  0  0  0  0
    9.9683  -17.4331   26.5702 C   0  0  0  0  0  0  0  0  0  0  0  0
    8.7731  -17.4590   25.6799 C   0  0  0  0  0  0  0  0  0  0  0  0
    7.9528  -18.7089   25.7276 C   0  0  2  0  0  0  0  0  0  0  0  0
    6.8432  -18.5976   24.7699 N   0  0  0  0  0  0  0  0  0  0  0  0
    7.4541  -18.9338   27.0927 C   0  0  0  0  0  0  0  0  0  0  0  0
    6.2621  -18.7304   27.4679 O   0  0  0  0  0  0  0  0  0  0  0  0
    8.3148  -19.4031   28.0676 O   0  0  0  0  0  0  0  0  0  0  0  0
  2  1  1  1
  2  3  1  0
  4  5  1  0
  4  2  1  0
  5  6  1  6
  7  5  1  0
  7  8  2  0
 10 11  1  1
 10  9  1  0
 10 12  1  0
 12 13  1  6
 13  7  1  0
 14 15  2  0
 14 12  1  0
 16 17  1  0
 17 18  2  0
 19 17  1  0
 19 20  1  0
 21 20  1  0
 21 22  1  0
 23 22  1  1
 23 24  1  0
 23 25  1  0
 24 14  1  0
 25 27  1  0
 26 25  2  0
M  END
$$$$
