LVR.pdb
     RDKit          3D

 27 26  0  0  1  0  0  0  0  0999 V2000
    7.0248  -11.5559   27.9764 C   0  0  0  0  0  0  0  0  0  0  0  0
    6.2132  -12.3296   26.9589 C   0  0  1  0  0  0  0  0  0  0  0  0
    5.5742  -11.3451   25.9952 C   0  0  0  0  0  0  0  0  0  0  0  0
    7.0798  -13.2566   26.1398 C   0  0  0  0  0  0  0  0  0  0  0  0
    6.1706  -14.0194   25.1979 C   0  0  2  0  0  0  0  0  0  0  0  0
    5.3216  -14.8522   26.0263 N   0  0  0  0  0  0  0  0  0  0  0  0
    6.9228  -14.8899   24.2804 C   0  0  0  0  0  0  0  0  0  0  0  0
    7.1578  -16.0854   24.5814 O   0  0  0  0  0  0  0  0  0  0  0  0
    7.0624  -14.5401   20.2008 C   0  0  0  0  0  0  0  0  0  0  0  0
    8.4272  -14.8032   20.8036 C   0  0  2  0  0  0  0  0  0  0  0  0
    9.1373  -15.7755   19.9143 C   0  0  0  0  0  0  0  0  0  0  0  0
    8.2772  -15.2820   22.2240 C   0  0  2  0  0  0  0  0  0  0  0  0
    7.4256  -14.4584   23.0220 N   0  0  0  0  0  0  0  0  0  0  0  0
    9.6126  -15.5035   22.8886 C   0  0  0  0  0  0  0  0  0  0  0  0
   10.3388  -14.5324   23.2133 O   0  0  0  0  0  0  0  0  0  0  0  0
   11.5846  -20.8000   29.1968 N   0  0  0  0  0  0  0  0  0  0  0  0
   11.9454  -21.2808   27.9183 C   0  0  0  0  0  0  0  0  0  0  0  0
   12.1260  -22.5440   27.7291 N   0  0  0  0  0  0  0  0  0  0  0  0
   12.1259  -20.4232   26.7939 N   0  0  0  0  0  0  0  0  0  0  0  0
   12.0696  -18.9985   27.0139 C   0  0  0  0  0  0  0  0  0  0  0  0
   12.4497  -18.2914   25.7279 C   0  0  0  0  0  0  0  0  0  0  0  0
   11.2021  -17.8807   25.0231 C   0  0  0  0  0  0  0  0  0  0  0  0
   11.3920  -17.0453   23.7970 C   0  0  2  0  0  0  0  0  0  0  0  0
   10.0862  -16.8074   23.1652 N   0  0  0  0  0  0  0  0  0  0  0  0
   12.3160  -17.7137   22.8686 C   0  0  0  0  0  0  0  0  0  0  0  0
   11.9600  -18.4121   21.8744 O   0  0  0  0  0  0  0  0  0  0  0  0
   13.6807  -17.5951   23.0566 O   0  0  0  0  0  0  0  0  0  0  0  0
  2  1  1  1
  2  3  1  0
  4  5  1  0
  4  2  1  0
  5  6  1  1
  7  5  1  0
  7  8  2  0
 10 11  1  6
 10  9  1  0
 10 12  1  0
 12 13  1  1
 13  7  1  0
 14 15  2  0
 14 12  1  0
 16 17  1  0
 17 18  2  0
 19 17  1  0
 19 20  1  0
 21 20  1  0
 21 22  1  0
 23 22  1  1
 23 24  1  0
 23 25  1  0
 24 14  1  0
 25 27  1  0
 26 25  2  0
M  END
$$$$
