LVR.pdb
     RDKit          3D

 27 26  0  0  1  0  0  0  0  0999 V2000
    6.7955  -21.2188   18.1078 C   0  0  0  0  0  0  0  0  0  0  0  0
    7.3052  -19.8816   17.6130 C   0  0  1  0  0  0  0  0  0  0  0  0
    6.1401  -19.1018   17.0294 C   0  0  0  0  0  0  0  0  0  0  0  0
    7.8794  -19.0511   18.7364 C   0  0  0  0  0  0  0  0  0  0  0  0
    8.1686  -17.6707   18.1830 C   0  0  2  0  0  0  0  0  0  0  0  0
    9.2275  -17.8300   17.2063 N   0  0  0  0  0  0  0  0  0  0  0  0
    8.6321  -16.7391   19.2234 C   0  0  0  0  0  0  0  0  0  0  0  0
    9.8338  -16.7304   19.5850 O   0  0  0  0  0  0  0  0  0  0  0  0
    7.3557  -12.9037   19.8442 C   0  0  0  0  0  0  0  0  0  0  0  0
    7.4085  -13.7177   21.1208 C   0  0  2  0  0  0  0  0  0  0  0  0
    7.9047  -12.8211   22.2118 C   0  0  0  0  0  0  0  0  0  0  0  0
    8.2588  -14.9437   20.9130 C   0  0  2  0  0  0  0  0  0  0  0  0
    7.7820  -15.8061   19.8790 N   0  0  0  0  0  0  0  0  0  0  0  0
    8.4868  -15.6968   22.1993 C   0  0  0  0  0  0  0  0  0  0  0  0
    7.5215  -16.1677   22.8492 O   0  0  0  0  0  0  0  0  0  0  0  0
   13.6967  -19.2527   20.0137 N   0  0  0  0  0  0  0  0  0  0  0  0
   12.5677  -20.1009   20.0552 C   0  0  0  0  0  0  0  0  0  0  0  0
   12.1625  -20.6920   18.9826 N   0  0  0  0  0  0  0  0  0  0  0  0
   11.8306  -20.3467   21.2504 N   0  0  0  0  0  0  0  0  0  0  0  0
   12.0569  -19.4735   22.3763 C   0  0  0  0  0  0  0  0  0  0  0  0
   10.8549  -18.5637   22.5369 C   0  0  0  0  0  0  0  0  0  0  0  0
   11.0821  -17.6772   23.7134 C   0  0  0  0  0  0  0  0  0  0  0  0
   10.0350  -16.6370   23.9565 C   0  0  2  0  0  0  0  0  0  0  0  0
    9.7905  -15.8948   22.7114 N   0  0  0  0  0  0  0  0  0  0  0  0
   10.4611  -15.7344   25.0364 C   0  0  0  0  0  0  0  0  0  0  0  0
   10.5914  -16.0722   26.2497 O   0  0  0  0  0  0  0  0  0  0  0  0
   10.7527  -14.4135   24.7500 O   0  0  0  0  0  0  0  0  0  0  0  0
  2  1  1  1
  2  3  1  0
  4  5  1  0
  4  2  1  0
  5  6  1  6
  7  5  1  0
  7  8  2  0
 10 11  1  1
 10  9  1  0
 10 12  1  0
 12 13  1  6
 13  7  1  0
 14 15  2  0
 14 12  1  0
 16 17  1  0
 17 18  2  0
 19 17  1  0
 19 20  1  0
 21 20  1  0
 21 22  1  0
 23 22  1  6
 23 24  1  0
 23 25  1  0
 24 14  1  0
 25 27  1  0
 26 25  2  0
M  END
$$$$
