LVR.pdb
     RDKit          3D

 27 26  0  0  1  0  0  0  0  0999 V2000
    6.8850  -17.3323   19.4432 C   0  0  0  0  0  0  0  0  0  0  0  0
    6.8559  -15.8589   19.7909 C   0  0  1  0  0  0  0  0  0  0  0  0
    5.4099  -15.3966   19.8321 C   0  0  0  0  0  0  0  0  0  0  0  0
    7.4476  -15.5941   21.1551 C   0  0  0  0  0  0  0  0  0  0  0  0
    7.3281  -14.1080   21.4249 C   0  0  2  0  0  0  0  0  0  0  0  0
    8.1203  -13.4387   20.4125 N   0  0  0  0  0  0  0  0  0  0  0  0
    7.8553  -13.7375   22.7478 C   0  0  0  0  0  0  0  0  0  0  0  0
    9.0865  -13.5674   22.9210 O   0  0  0  0  0  0  0  0  0  0  0  0
    6.4241  -11.1664   25.4116 C   0  0  0  0  0  0  0  0  0  0  0  0
    6.7305  -12.4856   26.0907 C   0  0  2  0  0  0  0  0  0  0  0  0
    7.3590  -12.1804   27.4145 C   0  0  0  0  0  0  0  0  0  0  0  0
    7.5923  -13.3362   25.1946 C   0  0  2  0  0  0  0  0  0  0  0  0
    7.0372  -13.5494   23.8959 N   0  0  0  0  0  0  0  0  0  0  0  0
    7.9769  -14.6378   25.8517 C   0  0  0  0  0  0  0  0  0  0  0  0
    7.1119  -15.5124   26.1025 O   0  0  0  0  0  0  0  0  0  0  0  0
   13.1943  -17.7144   21.2859 N   0  0  0  0  0  0  0  0  0  0  0  0
   12.9317  -18.5065   22.4259 C   0  0  0  0  0  0  0  0  0  0  0  0
   12.9441  -19.7933   22.3368 N   0  0  0  0  0  0  0  0  0  0  0  0
   12.6456  -17.9466   23.7054 N   0  0  0  0  0  0  0  0  0  0  0  0
   11.6332  -16.9219   23.7844 C   0  0  0  0  0  0  0  0  0  0  0  0
   10.5723  -17.3603   24.7746 C   0  0  0  0  0  0  0  0  0  0  0  0
   10.8805  -16.7561   26.1019 C   0  0  0  0  0  0  0  0  0  0  0  0
    9.7154  -16.1771   26.8399 C   0  0  2  0  0  0  0  0  0  0  0  0
    9.3190  -14.9122   26.2045 N   0  0  0  0  0  0  0  0  0  0  0  0
   10.0641  -15.9733   28.2540 C   0  0  0  0  0  0  0  0  0  0  0  0
   10.1708  -14.8434   28.8151 O   0  0  0  0  0  0  0  0  0  0  0  0
   10.2983  -17.0675   29.0661 O   0  0  0  0  0  0  0  0  0  0  0  0
  2  1  1  1
  2  3  1  0
  4  5  1  0
  4  2  1  0
  5  6  1  6
  7  5  1  0
  7  8  2  0
 10 11  1  1
 10  9  1  0
 10 12  1  0
 12 13  1  6
 13  7  1  0
 14 15  2  0
 14 12  1  0
 16 17  1  0
 17 18  2  0
 19 17  1  0
 19 20  1  0
 21 20  1  0
 21 22  1  0
 23 22  1  6
 23 24  1  0
 23 25  1  0
 24 14  1  0
 25 27  1  0
 26 25  2  0
M  END
$$$$
