LVR.pdb
     RDKit          3D

 27 26  0  0  1  0  0  0  0  0999 V2000
    6.3238  -11.6310   24.7993 C   0  0  0  0  0  0  0  0  0  0  0  0
    6.2097  -12.1991   26.1981 C   0  0  1  0  0  0  0  0  0  0  0  0
    5.2729  -11.3186   27.0065 C   0  0  0  0  0  0  0  0  0  0  0  0
    5.6196  -13.5894   26.1911 C   0  0  0  0  0  0  0  0  0  0  0  0
    6.6118  -14.5040   25.5023 C   0  0  2  0  0  0  0  0  0  0  0  0
    6.0833  -15.8487   25.6165 N   0  0  0  0  0  0  0  0  0  0  0  0
    7.9373  -14.4697   26.1403 C   0  0  0  0  0  0  0  0  0  0  0  0
    8.1793  -13.6617   27.0695 O   0  0  0  0  0  0  0  0  0  0  0  0
    9.4964  -14.0189   28.4243 C   0  0  0  0  0  0  0  0  0  0  0  0
   10.1167  -15.3216   27.9623 C   0  0  2  0  0  0  0  0  0  0  0  0
   11.4146  -15.4901   28.6885 C   0  0  0  0  0  0  0  0  0  0  0  0
   10.2595  -15.3186   26.4626 C   0  0  2  0  0  0  0  0  0  0  0  0
    9.0126  -15.3220   25.7659 N   0  0  0  0  0  0  0  0  0  0  0  0
   11.1653  -16.4234   25.9800 C   0  0  0  0  0  0  0  0  0  0  0  0
   10.8393  -17.6281   26.1153 O   0  0  0  0  0  0  0  0  0  0  0  0
   13.0115  -13.4003   19.7804 N   0  0  0  0  0  0  0  0  0  0  0  0
   13.2371  -14.7854   19.6177 C   0  0  0  0  0  0  0  0  0  0  0  0
   14.2116  -15.2004   18.8814 N   0  0  0  0  0  0  0  0  0  0  0  0
   12.4246  -15.7780   20.2398 N   0  0  0  0  0  0  0  0  0  0  0  0
   11.3618  -15.3348   21.1090 C   0  0  0  0  0  0  0  0  0  0  0  0
   11.3679  -16.1894   22.3612 C   0  0  0  0  0  0  0  0  0  0  0  0
   12.7294  -16.1389   22.9659 C   0  0  0  0  0  0  0  0  0  0  0  0
   12.9109  -16.9223   24.2272 C   0  0  2  0  0  0  0  0  0  0  0  0
   12.4054  -16.1373   25.3626 N   0  0  0  0  0  0  0  0  0  0  0  0
   14.3294  -17.2646   24.4093 C   0  0  0  0  0  0  0  0  0  0  0  0
   15.0990  -16.7237   25.2567 O   0  0  0  0  0  0  0  0  0  0  0  0
   14.9042  -18.2442   23.6208 O   0  0  0  0  0  0  0  0  0  0  0  0
  2  1  1  6
  2  3  1  0
  4  5  1  0
  4  2  1  0
  5  6  1  1
  7  5  1  0
  7  8  2  0
 10 11  1  1
 10  9  1  0
 10 12  1  0
 12 13  1  6
 13  7  1  0
 14 15  2  0
 14 12  1  0
 16 17  1  0
 17 18  2  0
 19 17  1  0
 19 20  1  0
 21 20  1  0
 21 22  1  0
 23 22  1  6
 23 24  1  0
 23 25  1  0
 24 14  1  0
 25 27  1  0
 26 25  2  0
M  END
$$$$
