LVR.pdb
     RDKit          3D

 27 26  0  0  1  0  0  0  0  0999 V2000
    9.1581  -21.2717   18.6144 C   0  0  0  0  0  0  0  0  0  0  0  0
    9.1826  -19.9567   17.8643 C   0  0  1  0  0  0  0  0  0  0  0  0
    7.7831  -19.6605   17.3544 C   0  0  0  0  0  0  0  0  0  0  0  0
    9.5829  -18.8085   18.7603 C   0  0  0  0  0  0  0  0  0  0  0  0
    9.4056  -17.5281   17.9700 C   0  0  2  0  0  0  0  0  0  0  0  0
   10.4126  -17.5425   16.9278 N   0  0  0  0  0  0  0  0  0  0  0  0
    9.6106  -16.3292   18.7980 C   0  0  0  0  0  0  0  0  0  0  0  0
   10.7679  -15.9056   19.0349 O   0  0  0  0  0  0  0  0  0  0  0  0
    7.2971  -12.9274   18.8228 C   0  0  0  0  0  0  0  0  0  0  0  0
    7.5992  -13.4702   20.2046 C   0  0  2  0  0  0  0  0  0  0  0  0
    7.8003  -12.3017   21.1182 C   0  0  0  0  0  0  0  0  0  0  0  0
    8.7830  -14.3998   20.1434 C   0  0  2  0  0  0  0  0  0  0  0  0
    8.5477  -15.5811   19.3756 N   0  0  0  0  0  0  0  0  0  0  0  0
    9.3130  -14.7294   21.5161 C   0  0  0  0  0  0  0  0  0  0  0  0
    9.7472  -13.8263   22.2722 O   0  0  0  0  0  0  0  0  0  0  0  0
    9.2165  -20.8256   20.4726 N   0  0  0  0  0  0  0  0  0  0  0  0
   10.4058  -21.3714   21.0051 C   0  0  0  0  0  0  0  0  0  0  0  0
   11.1427  -22.1457   20.2830 N   0  0  0  0  0  0  0  0  0  0  0  0
   10.8491  -21.1065   22.3339 N   0  0  0  0  0  0  0  0  0  0  0  0
   10.0610  -20.2098   23.1438 C   0  0  0  0  0  0  0  0  0  0  0  0
   10.4707  -18.7839   22.8320 C   0  0  0  0  0  0  0  0  0  0  0  0
    9.5862  -17.8566   23.5932 C   0  0  0  0  0  0  0  0  0  0  0  0
    9.8045  -16.3978   23.3445 C   0  0  2  0  0  0  0  0  0  0  0  0
    9.3373  -16.0613   21.9920 N   0  0  0  0  0  0  0  0  0  0  0  0
   11.2269  -16.0644   23.5121 C   0  0  0  0  0  0  0  0  0  0  0  0
   12.0279  -15.8220   22.5620 O   0  0  0  0  0  0  0  0  0  0  0  0
   11.7696  -15.9975   24.7821 O   0  0  0  0  0  0  0  0  0  0  0  0
  2  1  1  1
  2  3  1  0
  4  5  1  0
  4  2  1  0
  5  6  1  6
  7  5  1  0
  7  8  2  0
 10 11  1  1
 10  9  1  0
 10 12  1  0
 12 13  1  1
 13  7  1  0
 14 15  2  0
 14 12  1  0
 16 17  1  0
 17 18  2  0
 19 17  1  0
 19 20  1  0
 21 20  1  0
 21 22  1  0
 23 22  1  6
 23 24  1  0
 23 25  1  0
 24 14  1  0
 25 27  1  0
 26 25  2  0
M  END
$$$$
