LVR.pdb
     RDKit          3D

 27 26  0  0  1  0  0  0  0  0999 V2000
    7.2375  -12.0558   20.2443 C   0  0  0  0  0  0  0  0  0  0  0  0
    7.7694  -13.2154   19.4289 C   0  0  1  0  0  0  0  0  0  0  0  0
    8.8995  -12.7132   18.5474 C   0  0  0  0  0  0  0  0  0  0  0  0
    8.3396  -14.3030   20.3082 C   0  0  0  0  0  0  0  0  0  0  0  0
    8.7859  -15.4346   19.4050 C   0  0  2  0  0  0  0  0  0  0  0  0
    7.5919  -15.9464   18.7624 N   0  0  0  0  0  0  0  0  0  0  0  0
    9.4162  -16.5317   20.1561 C   0  0  0  0  0  0  0  0  0  0  0  0
    8.7252  -17.4756   20.6105 O   0  0  0  0  0  0  0  0  0  0  0  0
   12.5043  -18.6663   19.1684 C   0  0  0  0  0  0  0  0  0  0  0  0
   12.7018  -18.1692   20.5858 C   0  0  2  0  0  0  0  0  0  0  0  0
   13.3223  -19.2795   21.3749 C   0  0  0  0  0  0  0  0  0  0  0  0
   11.3898  -17.6882   21.1485 C   0  0  2  0  0  0  0  0  0  0  0  0
   10.8124  -16.6056   20.4172 N   0  0  0  0  0  0  0  0  0  0  0  0
   11.4893  -17.3707   22.6193 C   0  0  0  0  0  0  0  0  0  0  0  0
   12.2711  -16.4804   23.0340 O   0  0  0  0  0  0  0  0  0  0  0  0
    8.7705  -21.7365   29.1806 N   0  0  0  0  0  0  0  0  0  0  0  0
    9.0660  -20.5241   29.8430 C   0  0  0  0  0  0  0  0  0  0  0  0
    9.5918  -20.5416   31.0208 N   0  0  0  0  0  0  0  0  0  0  0  0
    8.8080  -19.2464   29.2656 N   0  0  0  0  0  0  0  0  0  0  0  0
    8.6620  -19.1689   27.8325 C   0  0  0  0  0  0  0  0  0  0  0  0
    9.9414  -18.6099   27.2417 C   0  0  0  0  0  0  0  0  0  0  0  0
    9.7955  -18.5501   25.7595 C   0  0  0  0  0  0  0  0  0  0  0  0
   10.9306  -17.9174   25.0187 C   0  0  2  0  0  0  0  0  0  0  0  0
   10.7078  -18.0638   23.5731 N   0  0  0  0  0  0  0  0  0  0  0  0
   12.2033  -18.5328   25.4238 C   0  0  0  0  0  0  0  0  0  0  0  0
   12.6218  -19.6573   25.0195 O   0  0  0  0  0  0  0  0  0  0  0  0
   13.0349  -17.8687   26.3064 O   0  0  0  0  0  0  0  0  0  0  0  0
  2  1  1  1
  2  3  1  0
  4  5  1  0
  4  2  1  0
  5  6  1  1
  7  5  1  0
  7  8  2  0
 10 11  1  1
 10  9  1  0
 10 12  1  0
 12 13  1  6
 13  7  1  0
 14 15  2  0
 14 12  1  0
 16 17  1  0
 17 18  2  0
 19 17  1  0
 19 20  1  0
 21 20  1  0
 21 22  1  0
 23 22  1  1
 23 24  1  0
 23 25  1  0
 24 14  1  0
 25 27  1  0
 26 25  2  0
M  END
$$$$
