LVR.pdb
     RDKit          3D

 27 26  0  0  1  0  0  0  0  0999 V2000
    7.5928  -12.1078   28.0413 C   0  0  0  0  0  0  0  0  0  0  0  0
    6.7457  -13.0206   27.1801 C   0  0  1  0  0  0  0  0  0  0  0  0
    5.7452  -12.1751   26.4116 C   0  0  0  0  0  0  0  0  0  0  0  0
    7.5792  -13.7612   26.1612 C   0  0  0  0  0  0  0  0  0  0  0  0
    6.6470  -14.6583   25.3727 C   0  0  2  0  0  0  0  0  0  0  0  0
    6.1086  -15.6225   26.3112 N   0  0  0  0  0  0  0  0  0  0  0  0
    7.3479  -15.3898   24.3055 C   0  0  0  0  0  0  0  0  0  0  0  0
    7.6995  -16.5829   24.4722 O   0  0  0  0  0  0  0  0  0  0  0  0
    6.8917  -14.8120   20.3132 C   0  0  0  0  0  0  0  0  0  0  0  0
    8.3525  -14.9625   20.6853 C   0  0  2  0  0  0  0  0  0  0  0  0
    9.0004  -15.8226   19.6456 C   0  0  0  0  0  0  0  0  0  0  0  0
    8.4722  -15.5111   22.0832 C   0  0  2  0  0  0  0  0  0  0  0  0
    7.6710  -14.8202   23.0429 N   0  0  0  0  0  0  0  0  0  0  0  0
    9.9091  -15.6081   22.5301 C   0  0  0  0  0  0  0  0  0  0  0  0
   10.6075  -14.5758   22.6799 O   0  0  0  0  0  0  0  0  0  0  0  0
    9.5565  -17.2483   28.7777 N   0  0  0  0  0  0  0  0  0  0  0  0
   10.7888  -16.5675   28.8947 C   0  0  0  0  0  0  0  0  0  0  0  0
   10.9526  -15.6792   29.8157 N   0  0  0  0  0  0  0  0  0  0  0  0
   11.8925  -16.8147   28.0269 N   0  0  0  0  0  0  0  0  0  0  0  0
   11.6886  -17.7045   26.9099 C   0  0  0  0  0  0  0  0  0  0  0  0
   11.5119  -16.8759   25.6526 C   0  0  0  0  0  0  0  0  0  0  0  0
   12.0394  -17.6504   24.4934 C   0  0  0  0  0  0  0  0  0  0  0  0
   11.9302  -16.9818   23.1599 C   0  0  2  0  0  0  0  0  0  0  0  0
   10.5119  -16.8604   22.7930 N   0  0  0  0  0  0  0  0  0  0  0  0
   12.6756  -17.7465   22.1490 C   0  0  0  0  0  0  0  0  0  0  0  0
   12.1463  -18.4934   21.2743 O   0  0  0  0  0  0  0  0  0  0  0  0
   14.0558  -17.6716   22.1137 O   0  0  0  0  0  0  0  0  0  0  0  0
  2  1  1  6
  2  3  1  0
  4  5  1  0
  4  2  1  0
  5  6  1  1
  7  5  1  0
  7  8  2  0
 10 11  1  6
 10  9  1  0
 10 12  1  0
 12 13  1  1
 13  7  1  0
 14 15  2  0
 14 12  1  0
 16 17  1  0
 17 18  2  0
 19 17  1  0
 19 20  1  0
 21 20  1  0
 21 22  1  0
 23 22  1  1
 23 24  1  0
 23 25  1  0
 24 14  1  0
 25 27  1  0
 26 25  2  0
M  END
$$$$
