LVR.pdb
     RDKit          3D

 27 26  0  0  1  0  0  0  0  0999 V2000
    7.4715  -11.4656   27.6217 C   0  0  0  0  0  0  0  0  0  0  0  0
    6.6561  -12.5551   26.9577 C   0  0  1  0  0  0  0  0  0  0  0  0
    5.6064  -11.9067   26.0723 C   0  0  0  0  0  0  0  0  0  0  0  0
    7.5090  -13.4304   26.0702 C   0  0  0  0  0  0  0  0  0  0  0  0
    6.5928  -14.4353   25.4024 C   0  0  2  0  0  0  0  0  0  0  0  0
    6.1244  -15.3255   26.4458 N   0  0  0  0  0  0  0  0  0  0  0  0
    7.2919  -15.2375   24.3860 C   0  0  0  0  0  0  0  0  0  0  0  0
    7.6476  -16.4152   24.6341 O   0  0  0  0  0  0  0  0  0  0  0  0
    6.8414  -14.8627   20.3299 C   0  0  0  0  0  0  0  0  0  0  0  0
    8.2908  -15.0260   20.7393 C   0  0  2  0  0  0  0  0  0  0  0  0
    8.9456  -15.9313   19.7432 C   0  0  0  0  0  0  0  0  0  0  0  0
    8.3702  -15.5296   22.1569 C   0  0  2  0  0  0  0  0  0  0  0  0
    7.6087  -14.7564   23.0856 N   0  0  0  0  0  0  0  0  0  0  0  0
    9.7964  -15.6981   22.6167 C   0  0  0  0  0  0  0  0  0  0  0  0
   10.5306  -14.6996   22.8159 O   0  0  0  0  0  0  0  0  0  0  0  0
    9.7879  -17.8678   29.0257 N   0  0  0  0  0  0  0  0  0  0  0  0
   11.1375  -17.5942   28.7101 C   0  0  0  0  0  0  0  0  0  0  0  0
   11.8375  -16.8250   29.4733 N   0  0  0  0  0  0  0  0  0  0  0  0
   11.7871  -18.1363   27.5627 N   0  0  0  0  0  0  0  0  0  0  0  0
   10.9881  -18.8861   26.6243 C   0  0  0  0  0  0  0  0  0  0  0  0
   10.6689  -17.9984   25.4375 C   0  0  0  0  0  0  0  0  0  0  0  0
   11.7494  -18.1532   24.4224 C   0  0  0  0  0  0  0  0  0  0  0  0
   11.7321  -17.1671   23.2978 C   0  0  2  0  0  0  0  0  0  0  0  0
   10.3486  -16.9817   22.8366 N   0  0  0  0  0  0  0  0  0  0  0  0
   12.5974  -17.6333   22.2040 C   0  0  0  0  0  0  0  0  0  0  0  0
   12.1887  -18.2322   21.1661 O   0  0  0  0  0  0  0  0  0  0  0  0
   13.9619  -17.4209   22.2722 O   0  0  0  0  0  0  0  0  0  0  0  0
  2  1  1  6
  2  3  1  0
  4  5  1  0
  4  2  1  0
  5  6  1  1
  7  5  1  0
  7  8  2  0
 10 11  1  6
 10  9  1  0
 10 12  1  0
 12 13  1  1
 13  7  1  0
 14 15  2  0
 14 12  1  0
 16 17  1  0
 17 18  2  0
 19 17  1  0
 19 20  1  0
 21 20  1  0
 21 22  1  0
 23 22  1  1
 23 24  1  0
 23 25  1  0
 24 14  1  0
 25 27  1  0
 26 25  2  0
M  END
$$$$
