LVR.pdb
     RDKit          3D

 27 26  0  0  1  0  0  0  0  0999 V2000
    7.5376  -11.7906   27.8213 C   0  0  0  0  0  0  0  0  0  0  0  0
    6.6190  -12.6600   26.9889 C   0  0  1  0  0  0  0  0  0  0  0  0
    5.7250  -11.7620   26.1517 C   0  0  0  0  0  0  0  0  0  0  0  0
    7.3925  -13.5359   26.0320 C   0  0  0  0  0  0  0  0  0  0  0  0
    6.3862  -14.2961   25.1924 C   0  0  2  0  0  0  0  0  0  0  0  0
    5.7709  -15.2734   26.0682 N   0  0  0  0  0  0  0  0  0  0  0  0
    7.0204  -15.0096   24.0726 C   0  0  0  0  0  0  0  0  0  0  0  0
    7.2151  -16.2479   24.1313 O   0  0  0  0  0  0  0  0  0  0  0  0
    6.8800  -13.9236   20.1108 C   0  0  0  0  0  0  0  0  0  0  0  0
    8.2687  -14.3314   20.5584 C   0  0  2  0  0  0  0  0  0  0  0  0
    8.8838  -15.1361   19.4563 C   0  0  0  0  0  0  0  0  0  0  0  0
    8.1898  -15.0662   21.8711 C   0  0  2  0  0  0  0  0  0  0  0  0
    7.4481  -14.3721   22.8753 N   0  0  0  0  0  0  0  0  0  0  0  0
    9.5525  -15.4728   22.3727 C   0  0  0  0  0  0  0  0  0  0  0  0
   10.3031  -14.6427   22.9413 O   0  0  0  0  0  0  0  0  0  0  0  0
    7.6793  -19.9020   25.7233 N   0  0  0  0  0  0  0  0  0  0  0  0
    8.5195  -19.6938   26.8398 C   0  0  0  0  0  0  0  0  0  0  0  0
    8.0106  -19.5710   28.0188 N   0  0  0  0  0  0  0  0  0  0  0  0
    9.9386  -19.6094   26.7327 N   0  0  0  0  0  0  0  0  0  0  0  0
   10.5262  -19.7299   25.4207 C   0  0  0  0  0  0  0  0  0  0  0  0
   10.5918  -18.3539   24.7877 C   0  0  0  0  0  0  0  0  0  0  0  0
   11.2530  -18.4725   23.4571 C   0  0  0  0  0  0  0  0  0  0  0  0
   11.3631  -17.2054   22.6698 C   0  0  2  0  0  0  0  0  0  0  0  0
   10.0250  -16.7972   22.2184 N   0  0  0  0  0  0  0  0  0  0  0  0
   12.2716  -17.3970   21.5294 C   0  0  0  0  0  0  0  0  0  0  0  0
   11.9137  -17.7887   20.3798 O   0  0  0  0  0  0  0  0  0  0  0  0
   13.6219  -17.1400   21.6787 O   0  0  0  0  0  0  0  0  0  0  0  0
  2  1  1  6
  2  3  1  0
  4  5  1  0
  4  2  1  0
  5  6  1  1
  7  5  1  0
  7  8  2  0
 10 11  1  6
 10  9  1  0
 10 12  1  0
 12 13  1  1
 13  7  1  0
 14 15  2  0
 14 12  1  0
 16 17  1  0
 17 18  2  0
 19 17  1  0
 19 20  1  0
 21 20  1  0
 21 22  1  0
 23 22  1  6
 23 24  1  0
 23 25  1  0
 24 14  1  0
 25 27  1  0
 26 25  2  0
M  END
$$$$
