LVR.pdb
     RDKit          3D

 27 26  0  0  1  0  0  0  0  0999 V2000
    6.8173  -12.5729   18.7916 C   0  0  0  0  0  0  0  0  0  0  0  0
    8.1041  -13.3671   18.8672 C   0  0  1  0  0  0  0  0  0  0  0  0
    9.2115  -12.4542   19.3640 C   0  0  0  0  0  0  0  0  0  0  0  0
    7.9981  -14.5127   19.8457 C   0  0  0  0  0  0  0  0  0  0  0  0
    9.3876  -15.0884   20.0284 C   0  0  2  0  0  0  0  0  0  0  0  0
    9.8292  -15.5267   18.7194 N   0  0  0  0  0  0  0  0  0  0  0  0
    9.3957  -16.2480   20.9341 C   0  0  0  0  0  0  0  0  0  0  0  0
    8.8494  -16.1826   22.0620 O   0  0  0  0  0  0  0  0  0  0  0  0
    8.9288  -20.0925   19.8488 C   0  0  0  0  0  0  0  0  0  0  0  0
   10.0709  -19.9404   20.8325 C   0  0  2  0  0  0  0  0  0  0  0  0
   10.0145  -21.0996   21.7777 C   0  0  0  0  0  0  0  0  0  0  0  0
    9.9857  -18.6000   21.5148 C   0  0  2  0  0  0  0  0  0  0  0  0
   10.0037  -17.4929   20.6124 N   0  0  0  0  0  0  0  0  0  0  0  0
   11.0271  -18.4496   22.5949 C   0  0  0  0  0  0  0  0  0  0  0  0
   12.2494  -18.4188   22.3106 O   0  0  0  0  0  0  0  0  0  0  0  0
    8.6448  -13.6205   28.1850 N   0  0  0  0  0  0  0  0  0  0  0  0
    9.8236  -14.2628   28.6251 C   0  0  0  0  0  0  0  0  0  0  0  0
   10.1913  -14.1669   29.8578 N   0  0  0  0  0  0  0  0  0  0  0  0
   10.6528  -15.0328   27.7579 N   0  0  0  0  0  0  0  0  0  0  0  0
   10.2492  -15.1671   26.3793 C   0  0  0  0  0  0  0  0  0  0  0  0
   11.3216  -15.9332   25.6300 C   0  0  0  0  0  0  0  0  0  0  0  0
   11.2896  -17.3557   26.0744 C   0  0  0  0  0  0  0  0  0  0  0  0
   11.6556  -18.3699   25.0377 C   0  0  2  0  0  0  0  0  0  0  0  0
   10.6601  -18.3392   23.9565 N   0  0  0  0  0  0  0  0  0  0  0  0
   11.7368  -19.7065   25.6455 C   0  0  0  0  0  0  0  0  0  0  0  0
   10.8033  -20.5618   25.6349 O   0  0  0  0  0  0  0  0  0  0  0  0
   12.8992  -20.0996   26.2827 O   0  0  0  0  0  0  0  0  0  0  0  0
  2  1  1  1
  2  3  1  0
  4  5  1  0
  4  2  1  0
  5  6  1  6
  7  5  1  0
  7  8  2  0
 10 11  1  1
 10  9  1  0
 10 12  1  0
 12 13  1  6
 13  7  1  0
 14 15  2  0
 14 12  1  0
 16 17  1  0
 17 18  2  0
 19 17  1  0
 19 20  1  0
 21 20  1  0
 21 22  1  0
 23 22  1  1
 23 24  1  0
 23 25  1  0
 24 14  1  0
 25 27  1  0
 26 25  2  0
M  END
$$$$
