LVR.pdb
     RDKit          3D

 27 26  0  0  1  0  0  0  0  0999 V2000
    6.4631  -13.1395   26.6234 C   0  0  0  0  0  0  0  0  0  0  0  0
    7.5455  -14.1798   26.4265 C   0  0  1  0  0  0  0  0  0  0  0  0
    8.5878  -14.0110   27.5181 C   0  0  0  0  0  0  0  0  0  0  0  0
    7.0005  -15.5836   26.5438 C   0  0  0  0  0  0  0  0  0  0  0  0
    6.2677  -15.8989   25.2557 C   0  0  2  0  0  0  0  0  0  0  0  0
    5.6671  -17.2063   25.4308 N   0  0  0  0  0  0  0  0  0  0  0  0
    7.1743  -15.9550   24.0981 C   0  0  0  0  0  0  0  0  0  0  0  0
    7.7692  -17.0197   23.8025 O   0  0  0  0  0  0  0  0  0  0  0  0
    6.8170  -13.7318   20.6640 C   0  0  0  0  0  0  0  0  0  0  0  0
    8.2411  -13.7969   21.1768 C   0  0  2  0  0  0  0  0  0  0  0  0
    9.1451  -13.9382   19.9922 C   0  0  0  0  0  0  0  0  0  0  0  0
    8.3760  -14.9159   22.1763 C   0  0  2  0  0  0  0  0  0  0  0  0
    7.4385  -14.8431   23.2515 N   0  0  0  0  0  0  0  0  0  0  0  0
    9.7895  -15.0516   22.6839 C   0  0  0  0  0  0  0  0  0  0  0  0
   10.1899  -14.3741   23.6619 O   0  0  0  0  0  0  0  0  0  0  0  0
   10.9597  -18.0314   29.0973 N   0  0  0  0  0  0  0  0  0  0  0  0
   12.0479  -18.7349   28.5346 C   0  0  0  0  0  0  0  0  0  0  0  0
   12.9086  -19.3155   29.3003 N   0  0  0  0  0  0  0  0  0  0  0  0
   12.2535  -18.8417   27.1280 N   0  0  0  0  0  0  0  0  0  0  0  0
   11.4176  -18.0485   26.2600 C   0  0  0  0  0  0  0  0  0  0  0  0
   11.8319  -18.2977   24.8231 C   0  0  0  0  0  0  0  0  0  0  0  0
   10.9694  -17.4741   23.9289 C   0  0  0  0  0  0  0  0  0  0  0  0
   11.6831  -16.7105   22.8589 C   0  0  2  0  0  0  0  0  0  0  0  0
   10.7041  -15.9430   22.0757 N   0  0  0  0  0  0  0  0  0  0  0  0
   12.4421  -17.6327   22.0010 C   0  0  0  0  0  0  0  0  0  0  0  0
   13.6896  -17.8327   22.0831 O   0  0  0  0  0  0  0  0  0  0  0  0
   11.7849  -18.3556   21.0227 O   0  0  0  0  0  0  0  0  0  0  0  0
  2  1  1  1
  2  3  1  0
  4  5  1  0
  4  2  1  0
  5  6  1  1
  7  5  1  0
  7  8  2  0
 10 11  1  6
 10  9  1  0
 10 12  1  0
 12 13  1  1
 13  7  1  0
 14 15  2  0
 14 12  1  0
 16 17  1  0
 17 18  2  0
 19 17  1  0
 19 20  1  0
 21 20  1  0
 21 22  1  0
 23 22  1  1
 23 24  1  0
 23 25  1  0
 24 14  1  0
 25 27  1  0
 26 25  2  0
M  END
$$$$
