TWV.pdb
     RDKit          3D

 29 30  0  0  1  0  0  0  0  0999 V2000
   28.4861  -19.2174  -16.3803 C   0  0  0  0  0  0  0  0  0  0  0  0
   27.6416  -19.6050  -15.1912 C   0  0  1  0  0  0  0  0  0  0  0  0
   26.3866  -20.0053  -15.7061 O   0  0  0  0  0  0  0  0  0  0  0  0
   28.2035  -20.8101  -14.4464 C   0  0  2  0  0  0  0  0  0  0  0  0
   27.9857  -21.9362  -15.3853 N   0  0  0  0  0  0  0  0  0  0  0  0
   27.4355  -21.0532  -13.2046 C   0  0  0  0  0  0  0  0  0  0  0  0
   26.4414  -21.8477  -13.1944 O   0  0  0  0  0  0  0  0  0  0  0  0
   27.7385  -20.4444  -11.9809 N   0  0  0  0  0  0  0  0  0  0  0  0
   26.9167  -20.6024  -10.7879 C   0  0  1  0  0  0  0  0  0  0  0  0
   27.7112  -20.0305   -9.6313 C   0  0  0  0  0  0  0  0  0  0  0  0
   26.9548  -20.3633   -8.3913 C   0  0  0  0  0  0  0  0  0  0  0  0
   25.7440  -21.0088   -8.2742 C   0  0  0  0  0  0  0  0  0  0  0  0
   25.4241  -21.1028   -6.9823 N   0  0  0  0  0  0  0  0  0  0  0  0
   26.3744  -20.5437   -6.2115 C   0  0  0  0  0  0  0  0  0  0  0  0
   26.5753  -20.3532   -4.8595 C   0  0  0  0  0  0  0  0  0  0  0  0
   27.6932  -19.7201   -4.3562 C   0  0  0  0  0  0  0  0  0  0  0  0
   28.6396  -19.2634   -5.2338 C   0  0  0  0  0  0  0  0  0  0  0  0
   28.4673  -19.4388   -6.5922 C   0  0  0  0  0  0  0  0  0  0  0  0
   27.3395  -20.0763   -7.0800 C   0  0  0  0  0  0  0  0  0  0  0  0
   25.5923  -19.9995  -10.9313 C   0  0  0  0  0  0  0  0  0  0  0  0
   25.4801  -18.7481  -10.9033 O   0  0  0  0  0  0  0  0  0  0  0  0
   23.7379  -20.2160  -13.7861 C   0  0  0  0  0  0  0  0  0  0  0  0
   22.7744  -20.8518  -12.7803 C   0  0  1  0  0  0  0  0  0  0  0  0
   22.8246  -22.3433  -12.8134 C   0  0  0  0  0  0  0  0  0  0  0  0
   23.1313  -20.2891  -11.4011 C   0  0  2  0  0  0  0  0  0  0  0  0
   24.4533  -20.7947  -11.0989 N   0  0  0  0  0  0  0  0  0  0  0  0
   22.1407  -20.8590  -10.4541 C   0  0  0  0  0  0  0  0  0  0  0  0
   22.4884  -21.7860   -9.6876 O   0  0  0  0  0  0  0  0  0  0  0  0
   20.8356  -20.4015  -10.3846 O   0  0  0  0  0  0  0  0  0  0  0  0
  2  1  1  6
  2  3  1  0
  4  2  1  0
  4  5  1  6
  6  4  1  0
  6  7  2  0
  8  6  1  0
  9  8  1  0
  9 10  1  1
 11 10  1  0
 11 19  1  0
 12 13  1  0
 12 11  2  0
 13 14  1  0
 14 19  2  0
 14 15  1  0
 15 16  2  0
 16 17  1  0
 18 17  2  0
 19 18  1  0
 20  9  1  0
 21 20  2  0
 23 22  1  6
 23 24  1  0
 23 25  1  0
 25 27  1  0
 25 26  1  1
 26 20  1  0
 27 29  1  0
 28 27  2  0
M  END
$$$$
