TWV.pdb
     RDKit          3D

 29 30  0  0  1  0  0  0  0  0999 V2000
   28.3323  -19.0005  -16.1368 C   0  0  0  0  0  0  0  0  0  0  0  0
   27.4963  -19.4604  -14.9676 C   0  0  1  0  0  0  0  0  0  0  0  0
   26.2117  -19.7492  -15.4841 O   0  0  0  0  0  0  0  0  0  0  0  0
   28.0138  -20.7570  -14.3562 C   0  0  2  0  0  0  0  0  0  0  0  0
   27.6785  -21.7828  -15.3723 N   0  0  0  0  0  0  0  0  0  0  0  0
   27.2922  -21.0590  -13.0997 C   0  0  0  0  0  0  0  0  0  0  0  0
   26.2296  -21.7594  -13.1069 O   0  0  0  0  0  0  0  0  0  0  0  0
   27.7144  -20.6097  -11.8427 N   0  0  0  0  0  0  0  0  0  0  0  0
   26.8962  -20.7191  -10.6419 C   0  0  1  0  0  0  0  0  0  0  0  0
   27.7425  -20.2174   -9.4895 C   0  0  0  0  0  0  0  0  0  0  0  0
   26.9562  -20.4620   -8.2476 C   0  0  0  0  0  0  0  0  0  0  0  0
   25.7277  -21.0706   -8.1180 C   0  0  0  0  0  0  0  0  0  0  0  0
   25.3827  -21.0845   -6.8292 N   0  0  0  0  0  0  0  0  0  0  0  0
   26.3329  -20.5063   -6.0727 C   0  0  0  0  0  0  0  0  0  0  0  0
   26.5146  -20.2454   -4.7297 C   0  0  0  0  0  0  0  0  0  0  0  0
   27.6389  -19.6123   -4.2410 C   0  0  0  0  0  0  0  0  0  0  0  0
   28.6119  -19.2283   -5.1244 C   0  0  0  0  0  0  0  0  0  0  0  0
   28.4593  -19.4752   -6.4740 C   0  0  0  0  0  0  0  0  0  0  0  0
   27.3247  -20.1115   -6.9472 C   0  0  0  0  0  0  0  0  0  0  0  0
   25.6177  -20.0203  -10.7649 C   0  0  0  0  0  0  0  0  0  0  0  0
   25.5805  -18.7741  -10.6079 O   0  0  0  0  0  0  0  0  0  0  0  0
   23.8279  -19.5826  -13.5854 C   0  0  0  0  0  0  0  0  0  0  0  0
   22.8111  -20.3628  -12.7479 C   0  0  1  0  0  0  0  0  0  0  0  0
   22.8032  -21.8183  -13.0784 C   0  0  0  0  0  0  0  0  0  0  0  0
   23.1493  -20.1031  -11.2767 C   0  0  2  0  0  0  0  0  0  0  0  0
   24.4402  -20.7187  -11.0542 N   0  0  0  0  0  0  0  0  0  0  0  0
   22.1088  -20.8043  -10.4841 C   0  0  0  0  0  0  0  0  0  0  0  0
   22.3922  -21.8866   -9.9217 O   0  0  0  0  0  0  0  0  0  0  0  0
   20.8255  -20.3041  -10.3410 O   0  0  0  0  0  0  0  0  0  0  0  0
  2  1  1  6
  2  3  1  0
  4  2  1  0
  4  5  1  6
  6  4  1  0
  6  7  2  0
  8  6  1  0
  9  8  1  0
  9 10  1  1
 11 10  1  0
 11 19  1  0
 12 13  1  0
 12 11  2  0
 13 14  1  0
 14 19  2  0
 14 15  1  0
 15 16  2  0
 16 17  1  0
 18 17  2  0
 19 18  1  0
 20  9  1  0
 21 20  2  0
 23 22  1  6
 23 24  1  0
 23 25  1  0
 25 27  1  0
 25 26  1  1
 26 20  1  0
 27 29  1  0
 28 27  2  0
M  END
$$$$
