TWV.pdb
     RDKit          3D

 29 30  0  0  1  0  0  0  0  0999 V2000
   28.5460  -19.4189  -16.2532 C   0  0  0  0  0  0  0  0  0  0  0  0
   27.6777  -19.7949  -15.0775 C   0  0  1  0  0  0  0  0  0  0  0  0
   26.3834  -20.0312  -15.5964 O   0  0  0  0  0  0  0  0  0  0  0  0
   28.1202  -21.0966  -14.4199 C   0  0  2  0  0  0  0  0  0  0  0  0
   27.7495  -22.1346  -15.4111 N   0  0  0  0  0  0  0  0  0  0  0  0
   27.3651  -21.3245  -13.1674 C   0  0  0  0  0  0  0  0  0  0  0  0
   26.2373  -21.9142  -13.1807 O   0  0  0  0  0  0  0  0  0  0  0  0
   27.8239  -20.9204  -11.9080 N   0  0  0  0  0  0  0  0  0  0  0  0
   26.9960  -20.9576  -10.7094 C   0  0  1  0  0  0  0  0  0  0  0  0
   27.8736  -20.5097   -9.5582 C   0  0  0  0  0  0  0  0  0  0  0  0
   27.0468  -20.6262   -8.3240 C   0  0  0  0  0  0  0  0  0  0  0  0
   25.7797  -21.1482   -8.1884 C   0  0  0  0  0  0  0  0  0  0  0  0
   25.4069  -21.0593   -6.9103 N   0  0  0  0  0  0  0  0  0  0  0  0
   26.3754  -20.4943   -6.1670 C   0  0  0  0  0  0  0  0  0  0  0  0
   26.5443  -20.1608   -4.8385 C   0  0  0  0  0  0  0  0  0  0  0  0
   27.6957  -19.5688   -4.3614 C   0  0  0  0  0  0  0  0  0  0  0  0
   28.7098  -19.3023   -5.2418 C   0  0  0  0  0  0  0  0  0  0  0  0
   28.5709  -19.6241   -6.5770 C   0  0  0  0  0  0  0  0  0  0  0  0
   27.4087  -20.2177   -7.0387 C   0  0  0  0  0  0  0  0  0  0  0  0
   25.7733  -20.1669  -10.8435 C   0  0  0  0  0  0  0  0  0  0  0  0
   25.8426  -18.9134  -10.7879 O   0  0  0  0  0  0  0  0  0  0  0  0
   24.0318  -19.6930  -13.5986 C   0  0  0  0  0  0  0  0  0  0  0  0
   22.9460  -20.3606  -12.7503 C   0  0  1  0  0  0  0  0  0  0  0  0
   22.8204  -21.8199  -13.0379 C   0  0  0  0  0  0  0  0  0  0  0  0
   23.2912  -20.0853  -11.2836 C   0  0  2  0  0  0  0  0  0  0  0  0
   24.5326  -20.7856  -11.0324 N   0  0  0  0  0  0  0  0  0  0  0  0
   22.1969  -20.6877  -10.4821 C   0  0  0  0  0  0  0  0  0  0  0  0
   22.3991  -21.7688   -9.8835 O   0  0  0  0  0  0  0  0  0  0  0  0
   20.9501  -20.0959  -10.3696 O   0  0  0  0  0  0  0  0  0  0  0  0
  2  1  1  6
  2  3  1  0
  4  2  1  0
  4  5  1  6
  6  4  1  0
  6  7  2  0
  8  6  1  0
  9  8  1  0
  9 10  1  1
 11 10  1  0
 11 19  1  0
 12 13  1  0
 12 11  2  0
 13 14  1  0
 14 19  2  0
 14 15  1  0
 15 16  2  0
 16 17  1  0
 18 17  2  0
 19 18  1  0
 20  9  1  0
 21 20  2  0
 23 22  1  6
 23 24  1  0
 23 25  1  0
 25 27  1  0
 25 26  1  1
 26 20  1  0
 27 29  1  0
 28 27  2  0
M  END
$$$$
