TWV.pdb
     RDKit          3D

 29 30  0  0  1  0  0  0  0  0999 V2000
   29.1236  -20.8415  -18.3394 C   0  0  0  0  0  0  0  0  0  0  0  0
   28.1638  -20.9382  -17.1788 C   0  0  1  0  0  0  0  0  0  0  0  0
   26.8946  -21.2247  -17.7330 O   0  0  0  0  0  0  0  0  0  0  0  0
   28.4949  -22.0962  -16.2447 C   0  0  2  0  0  0  0  0  0  0  0  0
   28.1703  -23.2990  -17.0477 N   0  0  0  0  0  0  0  0  0  0  0  0
   27.6255  -22.0580  -15.0475 C   0  0  0  0  0  0  0  0  0  0  0  0
   26.5125  -22.6749  -15.0265 O   0  0  0  0  0  0  0  0  0  0  0  0
   27.9548  -21.3603  -13.8793 N   0  0  0  0  0  0  0  0  0  0  0  0
   27.0559  -21.2498  -12.7377 C   0  0  1  0  0  0  0  0  0  0  0  0
   27.8515  -20.6152  -11.6150 C   0  0  0  0  0  0  0  0  0  0  0  0
   26.9358  -20.5277  -10.4428 C   0  0  0  0  0  0  0  0  0  0  0  0
   25.5607  -20.4533  -10.4341 C   0  0  0  0  0  0  0  0  0  0  0  0
   25.1363  -20.3891   -9.1708 N   0  0  0  0  0  0  0  0  0  0  0  0
   26.1738  -20.4168   -8.3149 C   0  0  0  0  0  0  0  0  0  0  0  0
   26.3356  -20.3804   -6.9448 C   0  0  0  0  0  0  0  0  0  0  0  0
   27.5755  -20.4274   -6.3414 C   0  0  0  0  0  0  0  0  0  0  0  0
   28.6884  -20.5135   -7.1342 C   0  0  0  0  0  0  0  0  0  0  0  0
   28.5592  -20.5516   -8.5081 C   0  0  0  0  0  0  0  0  0  0  0  0
   27.3074  -20.5035   -9.0970 C   0  0  0  0  0  0  0  0  0  0  0  0
   25.8272  -20.5236  -13.0553 C   0  0  0  0  0  0  0  0  0  0  0  0
   25.8965  -19.3134  -13.3870 O   0  0  0  0  0  0  0  0  0  0  0  0
   21.4013  -20.5971  -14.8265 C   0  0  0  0  0  0  0  0  0  0  0  0
   22.8074  -21.1496  -14.5778 C   0  0  1  0  0  0  0  0  0  0  0  0
   23.7257  -20.8988  -15.7275 C   0  0  0  0  0  0  0  0  0  0  0  0
   23.3151  -20.5143  -13.2798 C   0  0  2  0  0  0  0  0  0  0  0  0
   24.5806  -21.1562  -12.9952 N   0  0  0  0  0  0  0  0  0  0  0  0
   22.3218  -20.8634  -12.2336 C   0  0  0  0  0  0  0  0  0  0  0  0
   22.3091  -22.0238  -11.7633 O   0  0  0  0  0  0  0  0  0  0  0  0
   21.4006  -19.9480  -11.7533 O   0  0  0  0  0  0  0  0  0  0  0  0
  2  1  1  6
  2  3  1  0
  4  2  1  0
  4  5  1  6
  6  4  1  0
  6  7  2  0
  8  6  1  0
  9  8  1  0
  9 10  1  1
 11 10  1  0
 11 19  1  0
 12 13  1  0
 12 11  2  0
 13 14  1  0
 14 19  2  0
 14 15  1  0
 15 16  2  0
 16 17  1  0
 18 17  2  0
 19 18  1  0
 20  9  1  0
 21 20  2  0
 23 22  1  6
 23 24  1  0
 23 25  1  0
 25 27  1  0
 25 26  1  1
 26 20  1  0
 27 29  1  0
 28 27  2  0
M  END
$$$$
