TWV.pdb
     RDKit          3D

 29 30  0  0  1  0  0  0  0  0999 V2000
   26.6114  -16.9362  -15.5676 C   0  0  0  0  0  0  0  0  0  0  0  0
   27.2984  -17.8240  -16.5762 C   0  0  1  0  0  0  0  0  0  0  0  0
   27.9446  -16.9620  -17.4924 O   0  0  0  0  0  0  0  0  0  0  0  0
   28.3922  -18.6799  -15.9485 C   0  0  2  0  0  0  0  0  0  0  0  0
   28.9216  -19.4651  -17.0888 N   0  0  0  0  0  0  0  0  0  0  0  0
   27.8137  -19.6026  -14.9460 C   0  0  0  0  0  0  0  0  0  0  0  0
   27.0523  -20.5593  -15.2992 O   0  0  0  0  0  0  0  0  0  0  0  0
   28.0559  -19.4954  -13.5714 N   0  0  0  0  0  0  0  0  0  0  0  0
   27.3463  -20.2858  -12.5738 C   0  0  1  0  0  0  0  0  0  0  0  0
   28.1018  -20.1242  -11.2703 C   0  0  0  0  0  0  0  0  0  0  0  0
   29.2838  -21.0281  -11.3501 C   0  0  0  0  0  0  0  0  0  0  0  0
   29.8622  -21.5845  -12.4691 C   0  0  0  0  0  0  0  0  0  0  0  0
   30.9017  -22.3328  -12.0953 N   0  0  0  0  0  0  0  0  0  0  0  0
   31.0542  -22.3076  -10.7590 C   0  0  0  0  0  0  0  0  0  0  0  0
   31.9224  -22.8695   -9.8451 C   0  0  0  0  0  0  0  0  0  0  0  0
   31.8183  -22.6474   -8.4873 C   0  0  0  0  0  0  0  0  0  0  0  0
   30.8135  -21.8376   -8.0300 C   0  0  0  0  0  0  0  0  0  0  0  0
   29.9291  -21.2610   -8.9193 C   0  0  0  0  0  0  0  0  0  0  0  0
   30.0481  -21.4945  -10.2785 C   0  0  0  0  0  0  0  0  0  0  0  0
   25.9331  -19.9252  -12.4694 C   0  0  0  0  0  0  0  0  0  0  0  0
   25.6195  -18.7372  -12.2059 O   0  0  0  0  0  0  0  0  0  0  0  0
   21.3762  -21.1158  -13.7111 C   0  0  0  0  0  0  0  0  0  0  0  0
   22.8903  -21.3272  -13.7948 C   0  0  1  0  0  0  0  0  0  0  0  0
   23.4581  -20.8484  -15.0895 C   0  0  0  0  0  0  0  0  0  0  0  0
   23.5094  -20.6129  -12.5895 C   0  0  2  0  0  0  0  0  0  0  0  0
   24.9298  -20.8821  -12.6583 N   0  0  0  0  0  0  0  0  0  0  0  0
   22.9282  -21.2565  -11.3851 C   0  0  0  0  0  0  0  0  0  0  0  0
   23.4668  -22.2871  -10.9206 O   0  0  0  0  0  0  0  0  0  0  0  0
   21.8036  -20.7577  -10.7496 O   0  0  0  0  0  0  0  0  0  0  0  0
  2  1  1  1
  2  3  1  0
  4  2  1  0
  4  5  1  6
  6  4  1  0
  6  7  2  0
  8  6  1  0
  9  8  1  0
  9 10  1  1
 11 10  1  0
 11 19  1  0
 12 13  1  0
 12 11  2  0
 13 14  1  0
 14 19  2  0
 14 15  1  0
 15 16  2  0
 16 17  1  0
 18 17  2  0
 19 18  1  0
 20  9  1  0
 21 20  2  0
 23 22  1  6
 23 24  1  0
 23 25  1  0
 25 27  1  0
 25 26  1  1
 26 20  1  0
 27 29  1  0
 28 27  2  0
M  END
$$$$
