TWV.pdb
     RDKit          3D

 29 30  0  0  1  0  0  0  0  0999 V2000
   28.9064  -34.8089  -16.5911 C   0  0  0  0  0  0  0  0  0  0  0  0
   27.9396  -34.4998  -15.4742 C   0  0  1  0  0  0  0  0  0  0  0  0
   28.7073  -34.4339  -14.2883 O   0  0  0  0  0  0  0  0  0  0  0  0
   27.2815  -33.1346  -15.6353 C   0  0  2  0  0  0  0  0  0  0  0  0
   28.4081  -32.1823  -15.4900 N   0  0  0  0  0  0  0  0  0  0  0  0
   26.3021  -32.9028  -14.5500 C   0  0  0  0  0  0  0  0  0  0  0  0
   26.5151  -32.0265  -13.6519 O   0  0  0  0  0  0  0  0  0  0  0  0
   25.0997  -33.6104  -14.4345 N   0  0  0  0  0  0  0  0  0  0  0  0
   24.1675  -33.4215  -13.3306 C   0  0  1  0  0  0  0  0  0  0  0  0
   22.8284  -33.9596  -13.7926 C   0  0  0  0  0  0  0  0  0  0  0  0
   21.8330  -33.5681  -12.7552 C   0  0  0  0  0  0  0  0  0  0  0  0
   21.5559  -32.3111  -12.2655 C   0  0  0  0  0  0  0  0  0  0  0  0
   20.5942  -32.4048  -11.3454 N   0  0  0  0  0  0  0  0  0  0  0  0
   20.2039  -33.6826  -11.1887 C   0  0  0  0  0  0  0  0  0  0  0  0
   19.2836  -34.3542  -10.4099 C   0  0  0  0  0  0  0  0  0  0  0  0
   19.1086  -35.7212  -10.4786 C   0  0  0  0  0  0  0  0  0  0  0  0
   19.8790  -36.4382  -11.3543 C   0  0  0  0  0  0  0  0  0  0  0  0
   20.8083  -35.7950  -12.1468 C   0  0  0  0  0  0  0  0  0  0  0  0
   20.9709  -34.4228  -12.0651 C   0  0  0  0  0  0  0  0  0  0  0  0
   24.6354  -34.0311  -12.0866 C   0  0  0  0  0  0  0  0  0  0  0  0
   25.2122  -35.1468  -12.1275 O   0  0  0  0  0  0  0  0  0  0  0  0
   23.7934  -31.9970   -8.4906 C   0  0  0  0  0  0  0  0  0  0  0  0
   25.1480  -32.6796   -8.6986 C   0  0  1  0  0  0  0  0  0  0  0  0
   25.8070  -33.0351   -7.4073 C   0  0  0  0  0  0  0  0  0  0  0  0
   24.9004  -33.9065   -9.5814 C   0  0  2  0  0  0  0  0  0  0  0  0
   24.4499  -33.3906  -10.8564 N   0  0  0  0  0  0  0  0  0  0  0  0
   23.8086  -34.6711   -8.9284 C   0  0  0  0  0  0  0  0  0  0  0  0
   22.6232  -34.2972   -9.0795 O   0  0  0  0  0  0  0  0  0  0  0  0
   24.0519  -35.7914   -8.1519 O   0  0  0  0  0  0  0  0  0  0  0  0
  2  1  1  6
  2  3  1  0
  4  2  1  0
  4  5  1  1
  6  4  1  0
  6  7  2  0
  8  6  1  0
  9  8  1  0
  9 10  1  6
 11 10  1  0
 11 19  1  0
 12 13  1  0
 12 11  2  0
 13 14  1  0
 14 19  2  0
 14 15  1  0
 15 16  2  0
 16 17  1  0
 18 17  2  0
 19 18  1  0
 20  9  1  0
 21 20  2  0
 23 22  1  1
 23 24  1  0
 23 25  1  0
 25 27  1  0
 25 26  1  6
 26 20  1  0
 27 29  1  0
 28 27  2  0
M  END
$$$$
