TWV.pdb
     RDKit          3D

 29 30  0  0  1  0  0  0  0  0999 V2000
   28.1618  -19.2011  -16.2647 C   0  0  0  0  0  0  0  0  0  0  0  0
   27.3473  -19.5805  -15.0522 C   0  0  1  0  0  0  0  0  0  0  0  0
   26.0365  -19.8384  -15.5164 O   0  0  0  0  0  0  0  0  0  0  0  0
   27.8344  -20.8712  -14.4045 C   0  0  2  0  0  0  0  0  0  0  0  0
   27.4274  -21.9225  -15.3669 N   0  0  0  0  0  0  0  0  0  0  0  0
   27.1428  -21.0943  -13.1151 C   0  0  0  0  0  0  0  0  0  0  0  0
   26.1288  -21.8597  -13.0397 O   0  0  0  0  0  0  0  0  0  0  0  0
   27.5430  -20.4970  -11.9138 N   0  0  0  0  0  0  0  0  0  0  0  0
   26.7834  -20.6120  -10.6756 C   0  0  1  0  0  0  0  0  0  0  0  0
   27.6411  -20.0126   -9.5797 C   0  0  0  0  0  0  0  0  0  0  0  0
   26.9581  -20.3186   -8.2911 C   0  0  0  0  0  0  0  0  0  0  0  0
   25.7471  -20.9429   -8.0911 C   0  0  0  0  0  0  0  0  0  0  0  0
   25.5067  -21.0167   -6.7808 N   0  0  0  0  0  0  0  0  0  0  0  0
   26.5117  -20.4644   -6.0775 C   0  0  0  0  0  0  0  0  0  0  0  0
   26.7992  -20.2616   -4.7430 C   0  0  0  0  0  0  0  0  0  0  0  0
   27.9559  -19.6411   -4.3179 C   0  0  0  0  0  0  0  0  0  0  0  0
   28.8530  -19.2101   -5.2581 C   0  0  0  0  0  0  0  0  0  0  0  0
   28.5938  -19.3983   -6.6009 C   0  0  0  0  0  0  0  0  0  0  0  0
   27.4281  -20.0228   -7.0099 C   0  0  0  0  0  0  0  0  0  0  0  0
   25.4577  -20.0022  -10.7684 C   0  0  0  0  0  0  0  0  0  0  0  0
   25.3443  -18.7563  -10.6500 O   0  0  0  0  0  0  0  0  0  0  0  0
   23.6439  -19.8543  -13.5782 C   0  0  0  0  0  0  0  0  0  0  0  0
   22.6675  -20.6295  -12.6893 C   0  0  1  0  0  0  0  0  0  0  0  0
   22.7319  -22.1016  -12.9273 C   0  0  0  0  0  0  0  0  0  0  0  0
   22.9933  -20.2608  -11.2387 C   0  0  2  0  0  0  0  0  0  0  0  0
   24.3186  -20.7849  -10.9866 N   0  0  0  0  0  0  0  0  0  0  0  0
   21.9975  -20.9720  -10.3987 C   0  0  0  0  0  0  0  0  0  0  0  0
   20.8269  -20.5326  -10.3314 O   0  0  0  0  0  0  0  0  0  0  0  0
   22.3153  -22.1123   -9.6803 O   0  0  0  0  0  0  0  0  0  0  0  0
  2  1  1  6
  2  3  1  0
  4  2  1  0
  4  5  1  6
  6  4  1  0
  6  7  2  0
  8  6  1  0
  9  8  1  0
  9 10  1  1
 11 10  1  0
 11 19  1  0
 12 13  1  0
 12 11  2  0
 13 14  1  0
 14 19  2  0
 14 15  1  0
 15 16  2  0
 16 17  1  0
 18 17  2  0
 19 18  1  0
 20  9  1  0
 21 20  2  0
 23 22  1  6
 23 24  1  0
 23 25  1  0
 25 27  1  0
 25 26  1  1
 26 20  1  0
 27 29  1  0
 28 27  2  0
M  END
$$$$
