TWV.pdb
     RDKit          3D

 29 30  0  0  1  0  0  0  0  0999 V2000
   28.5831  -18.0861  -15.5773 C   0  0  0  0  0  0  0  0  0  0  0  0
   27.4750  -18.8988  -14.9532 C   0  0  1  0  0  0  0  0  0  0  0  0
   26.7553  -19.4805  -16.0227 O   0  0  0  0  0  0  0  0  0  0  0  0
   28.0037  -20.0553  -14.1131 C   0  0  2  0  0  0  0  0  0  0  0  0
   28.5028  -21.0216  -15.1201 N   0  0  0  0  0  0  0  0  0  0  0  0
   26.9043  -20.6771  -13.3414 C   0  0  0  0  0  0  0  0  0  0  0  0
   26.3162  -21.7229  -13.7658 O   0  0  0  0  0  0  0  0  0  0  0  0
   26.4427  -20.1752  -12.1187 N   0  0  0  0  0  0  0  0  0  0  0  0
   25.3018  -20.7368  -11.4071 C   0  0  1  0  0  0  0  0  0  0  0  0
   25.4306  -20.3007   -9.9617 C   0  0  0  0  0  0  0  0  0  0  0  0
   26.7924  -20.7087   -9.5151 C   0  0  0  0  0  0  0  0  0  0  0  0
   27.6893  -21.5380  -10.1508 C   0  0  0  0  0  0  0  0  0  0  0  0
   28.7923  -21.6382   -9.4068 N   0  0  0  0  0  0  0  0  0  0  0  0
   28.6807  -20.9059   -8.2839 C   0  0  0  0  0  0  0  0  0  0  0  0
   29.4737  -20.6389   -7.1863 C   0  0  0  0  0  0  0  0  0  0  0  0
   29.0656  -19.8154   -6.1572 C   0  0  0  0  0  0  0  0  0  0  0  0
   27.8247  -19.2413   -6.2289 C   0  0  0  0  0  0  0  0  0  0  0  0
   27.0081  -19.4891   -7.3140 C   0  0  0  0  0  0  0  0  0  0  0  0
   27.4335  -20.3179   -8.3378 C   0  0  0  0  0  0  0  0  0  0  0  0
   24.0224  -20.3649  -12.0096 C   0  0  0  0  0  0  0  0  0  0  0  0
   23.7369  -19.1485  -12.1444 O   0  0  0  0  0  0  0  0  0  0  0  0
   22.9144  -21.8482  -15.2336 C   0  0  0  0  0  0  0  0  0  0  0  0
   21.7846  -22.1310  -14.2398 C   0  0  1  0  0  0  0  0  0  0  0  0
   21.8445  -23.5193  -13.6947 C   0  0  0  0  0  0  0  0  0  0  0  0
   21.8804  -21.0702  -13.1391 C   0  0  2  0  0  0  0  0  0  0  0  0
   23.1160  -21.3418  -12.4361 N   0  0  0  0  0  0  0  0  0  0  0  0
   20.7227  -21.3028  -12.2400 C   0  0  0  0  0  0  0  0  0  0  0  0
   19.5937  -20.8744  -12.5710 O   0  0  0  0  0  0  0  0  0  0  0  0
   20.8434  -21.9810  -11.0388 O   0  0  0  0  0  0  0  0  0  0  0  0
  2  1  1  6
  2  3  1  0
  4  2  1  0
  4  5  1  6
  6  4  1  0
  6  7  2  0
  8  6  1  0
  9  8  1  0
  9 10  1  1
 11 10  1  0
 11 19  1  0
 12 13  1  0
 12 11  2  0
 13 14  1  0
 14 19  2  0
 14 15  1  0
 15 16  2  0
 16 17  1  0
 18 17  2  0
 19 18  1  0
 20  9  1  0
 21 20  2  0
 23 22  1  6
 23 24  1  0
 23 25  1  0
 25 27  1  0
 25 26  1  1
 26 20  1  0
 27 29  1  0
 28 27  2  0
M  END
$$$$
