TWV.pdb
     RDKit          3D

 29 30  0  0  1  0  0  0  0  0999 V2000
   28.4949  -23.2822  -18.3010 C   0  0  0  0  0  0  0  0  0  0  0  0
   27.7071  -23.2432  -17.0143 C   0  0  1  0  0  0  0  0  0  0  0  0
   28.3050  -24.1907  -16.1512 O   0  0  0  0  0  0  0  0  0  0  0  0
   27.8104  -21.8960  -16.3093 C   0  0  2  0  0  0  0  0  0  0  0  0
   29.2476  -21.7902  -15.9626 N   0  0  0  0  0  0  0  0  0  0  0  0
   27.0065  -21.9012  -15.0664 C   0  0  0  0  0  0  0  0  0  0  0  0
   25.7626  -22.1691  -15.0922 O   0  0  0  0  0  0  0  0  0  0  0  0
   27.5409  -21.6207  -13.8032 N   0  0  0  0  0  0  0  0  0  0  0  0
   26.7202  -21.4525  -12.6109 C   0  0  1  0  0  0  0  0  0  0  0  0
   27.6634  -21.1066  -11.4766 C   0  0  0  0  0  0  0  0  0  0  0  0
   26.8097  -20.7307  -10.3145 C   0  0  0  0  0  0  0  0  0  0  0  0
   25.4353  -20.6914  -10.2391 C   0  0  0  0  0  0  0  0  0  0  0  0
   25.0777  -20.3010   -9.0143 N   0  0  0  0  0  0  0  0  0  0  0  0
   26.1603  -20.0718   -8.2494 C   0  0  0  0  0  0  0  0  0  0  0  0
   26.3944  -19.6649   -6.9516 C   0  0  0  0  0  0  0  0  0  0  0  0
   27.6661  -19.5169   -6.4371 C   0  0  0  0  0  0  0  0  0  0  0  0
   28.7370  -19.7846   -7.2471 C   0  0  0  0  0  0  0  0  0  0  0  0
   28.5352  -20.1935   -8.5501 C   0  0  0  0  0  0  0  0  0  0  0  0
   27.2524  -20.3368   -9.0501 C   0  0  0  0  0  0  0  0  0  0  0  0
   25.6540  -20.4688  -12.7942 C   0  0  0  0  0  0  0  0  0  0  0  0
   25.9479  -19.2488  -12.8608 O   0  0  0  0  0  0  0  0  0  0  0  0
   21.4282  -19.3522  -14.6629 C   0  0  0  0  0  0  0  0  0  0  0  0
   22.7284  -20.1463  -14.5109 C   0  0  1  0  0  0  0  0  0  0  0  0
   23.7659  -19.7283  -15.4991 C   0  0  0  0  0  0  0  0  0  0  0  0
   23.1976  -19.9645  -13.0642 C   0  0  2  0  0  0  0  0  0  0  0  0
   24.3165  -20.8670  -12.8961 N   0  0  0  0  0  0  0  0  0  0  0  0
   22.0652  -20.3940  -12.2062 C   0  0  0  0  0  0  0  0  0  0  0  0
   21.8597  -21.6164  -12.0289 O   0  0  0  0  0  0  0  0  0  0  0  0
   21.2197  -19.4878  -11.5887 O   0  0  0  0  0  0  0  0  0  0  0  0
  2  1  1  6
  2  3  1  0
  4  2  1  0
  4  5  1  1
  6  4  1  0
  6  7  2  0
  8  6  1  0
  9  8  1  0
  9 10  1  1
 11 10  1  0
 11 19  1  0
 12 13  1  0
 12 11  2  0
 13 14  1  0
 14 19  2  0
 14 15  1  0
 15 16  2  0
 16 17  1  0
 18 17  2  0
 19 18  1  0
 20  9  1  0
 21 20  2  0
 23 22  1  1
 23 24  1  0
 23 25  1  0
 25 27  1  0
 25 26  1  1
 26 20  1  0
 27 29  1  0
 28 27  2  0
M  END
$$$$
