TWV.pdb
     RDKit          3D

 29 30  0  0  1  0  0  0  0  0999 V2000
   25.9363  -26.8485  -16.5573 C   0  0  0  0  0  0  0  0  0  0  0  0
   25.5720  -25.4164  -16.8637 C   0  0  1  0  0  0  0  0  0  0  0  0
   24.5438  -25.0635  -15.9590 O   0  0  0  0  0  0  0  0  0  0  0  0
   26.7239  -24.4537  -16.6002 C   0  0  2  0  0  0  0  0  0  0  0  0
   26.1740  -23.1333  -16.9891 N   0  0  0  0  0  0  0  0  0  0  0  0
   27.8769  -24.7787  -17.4695 C   0  0  0  0  0  0  0  0  0  0  0  0
   27.7671  -24.7595  -18.7373 O   0  0  0  0  0  0  0  0  0  0  0  0
   29.1412  -25.1208  -16.9749 N   0  0  0  0  0  0  0  0  0  0  0  0
   30.2742  -25.4363  -17.8352 C   0  0  1  0  0  0  0  0  0  0  0  0
   31.2944  -24.3338  -17.6359 C   0  0  0  0  0  0  0  0  0  0  0  0
   32.2424  -24.4206  -18.7823 C   0  0  0  0  0  0  0  0  0  0  0  0
   31.9574  -24.4407  -20.1294 C   0  0  0  0  0  0  0  0  0  0  0  0
   33.0991  -24.5265  -20.8146 N   0  0  0  0  0  0  0  0  0  0  0  0
   34.1553  -24.5659  -19.9824 C   0  0  0  0  0  0  0  0  0  0  0  0
   35.5263  -24.6502  -20.1169 C   0  0  0  0  0  0  0  0  0  0  0  0
   36.3795  -24.6707  -19.0327 C   0  0  0  0  0  0  0  0  0  0  0  0
   35.8436  -24.6046  -17.7746 C   0  0  0  0  0  0  0  0  0  0  0  0
   34.4760  -24.5196  -17.6074 C   0  0  0  0  0  0  0  0  0  0  0  0
   33.6344  -24.5003  -18.7063 C   0  0  0  0  0  0  0  0  0  0  0  0
   30.8143  -26.7726  -17.5894 C   0  0  0  0  0  0  0  0  0  0  0  0
   30.9783  -27.1613  -16.4056 O   0  0  0  0  0  0  0  0  0  0  0  0
   29.8107  -30.0907  -19.6116 C   0  0  0  0  0  0  0  0  0  0  0  0
   31.2863  -29.7136  -19.7688 C   0  0  1  0  0  0  0  0  0  0  0  0
   31.5393  -28.9220  -21.0087 C   0  0  0  0  0  0  0  0  0  0  0  0
   31.6918  -28.9541  -18.5020 C   0  0  2  0  0  0  0  0  0  0  0  0
   31.1492  -27.6206  -18.6508 N   0  0  0  0  0  0  0  0  0  0  0  0
   33.1751  -28.9026  -18.5088 C   0  0  0  0  0  0  0  0  0  0  0  0
   33.8246  -29.8893  -18.0935 O   0  0  0  0  0  0  0  0  0  0  0  0
   33.8749  -27.7964  -18.9604 O   0  0  0  0  0  0  0  0  0  0  0  0
  2  1  1  1
  2  3  1  0
  4  2  1  0
  4  5  1  6
  6  4  1  0
  6  7  2  0
  8  6  1  0
  9  8  1  0
  9 10  1  1
 11 10  1  0
 11 19  1  0
 12 13  1  0
 12 11  2  0
 13 14  1  0
 14 19  2  0
 14 15  1  0
 15 16  2  0
 16 17  1  0
 18 17  2  0
 19 18  1  0
 20  9  1  0
 21 20  2  0
 23 22  1  1
 23 24  1  0
 23 25  1  0
 25 27  1  0
 25 26  1  6
 26 20  1  0
 27 29  1  0
 28 27  2  0
M  END
$$$$
