TWV.pdb
     RDKit          3D

 29 30  0  0  1  0  0  0  0  0999 V2000
   27.8080  -18.7763  -13.3258 C   0  0  0  0  0  0  0  0  0  0  0  0
   28.9233  -19.7790  -13.1576 C   0  0  1  0  0  0  0  0  0  0  0  0
   30.0668  -19.2101  -13.7652 O   0  0  0  0  0  0  0  0  0  0  0  0
   29.2843  -20.0081  -11.6948 C   0  0  2  0  0  0  0  0  0  0  0  0
   30.4122  -20.9678  -11.7575 N   0  0  0  0  0  0  0  0  0  0  0  0
   28.1510  -20.6316  -10.9753 C   0  0  0  0  0  0  0  0  0  0  0  0
   28.0738  -21.8952  -10.8449 O   0  0  0  0  0  0  0  0  0  0  0  0
   27.1081  -19.8971  -10.3985 N   0  0  0  0  0  0  0  0  0  0  0  0
   25.8446  -20.4958   -9.9880 C   0  0  1  0  0  0  0  0  0  0  0  0
   25.3870  -19.7467   -8.7529 C   0  0  0  0  0  0  0  0  0  0  0  0
   26.5986  -19.5354   -7.9117 C   0  0  0  0  0  0  0  0  0  0  0  0
   27.6005  -18.6043   -8.0720 C   0  0  0  0  0  0  0  0  0  0  0  0
   28.4982  -18.7588   -7.0970 N   0  0  0  0  0  0  0  0  0  0  0  0
   28.1449  -19.7636   -6.2753 C   0  0  0  0  0  0  0  0  0  0  0  0
   28.6672  -20.3539   -5.1424 C   0  0  0  0  0  0  0  0  0  0  0  0
   28.0490  -21.4077   -4.5011 C   0  0  0  0  0  0  0  0  0  0  0  0
   26.8713  -21.8857   -5.0099 C   0  0  0  0  0  0  0  0  0  0  0  0
   26.3236  -21.3163   -6.1420 C   0  0  0  0  0  0  0  0  0  0  0  0
   26.9572  -20.2596   -6.7729 C   0  0  0  0  0  0  0  0  0  0  0  0
   24.8494  -20.5031  -11.0594 C   0  0  0  0  0  0  0  0  0  0  0  0
   24.4276  -19.4102  -11.5142 O   0  0  0  0  0  0  0  0  0  0  0  0
   23.3258  -24.1983  -12.1388 C   0  0  0  0  0  0  0  0  0  0  0  0
   23.6777  -23.2309  -13.2721 C   0  0  1  0  0  0  0  0  0  0  0  0
   22.8683  -23.4805  -14.5012 C   0  0  0  0  0  0  0  0  0  0  0  0
   23.4835  -21.8128  -12.7268 C   0  0  2  0  0  0  0  0  0  0  0  0
   24.3631  -21.7063  -11.5824 N   0  0  0  0  0  0  0  0  0  0  0  0
   22.0678  -21.7294  -12.2889 C   0  0  0  0  0  0  0  0  0  0  0  0
   21.7904  -21.8875  -11.0781 O   0  0  0  0  0  0  0  0  0  0  0  0
   21.0328  -21.4816  -13.1747 O   0  0  0  0  0  0  0  0  0  0  0  0
  2  1  1  1
  2  3  1  0
  4  2  1  0
  4  5  1  6
  6  4  1  0
  6  7  2  0
  8  6  1  0
  9  8  1  0
  9 10  1  1
 11 10  1  0
 11 19  1  0
 12 13  1  0
 12 11  2  0
 13 14  1  0
 14 19  2  0
 14 15  1  0
 15 16  2  0
 16 17  1  0
 18 17  2  0
 19 18  1  0
 20  9  1  0
 21 20  2  0
 23 22  1  1
 23 24  1  0
 23 25  1  0
 25 27  1  0
 25 26  1  1
 26 20  1  0
 27 29  1  0
 28 27  2  0
M  END
$$$$
