TWV.pdb
     RDKit          3D

 29 30  0  0  1  0  0  0  0  0999 V2000
   27.8307  -19.4319  -16.2249 C   0  0  0  0  0  0  0  0  0  0  0  0
   27.0316  -19.7895  -14.9956 C   0  0  1  0  0  0  0  0  0  0  0  0
   25.7684  -20.2299  -15.4546 O   0  0  0  0  0  0  0  0  0  0  0  0
   27.6387  -20.9565  -14.2259 C   0  0  2  0  0  0  0  0  0  0  0  0
   27.3689  -22.1278  -15.0934 N   0  0  0  0  0  0  0  0  0  0  0  0
   26.9450  -21.1370  -12.9309 C   0  0  0  0  0  0  0  0  0  0  0  0
   25.8957  -21.8519  -12.8442 O   0  0  0  0  0  0  0  0  0  0  0  0
   27.3810  -20.5515  -11.7363 N   0  0  0  0  0  0  0  0  0  0  0  0
   26.6376  -20.6443  -10.4864 C   0  0  1  0  0  0  0  0  0  0  0  0
   27.5134  -20.0339   -9.4110 C   0  0  0  0  0  0  0  0  0  0  0  0
   26.8916  -20.3904   -8.1045 C   0  0  0  0  0  0  0  0  0  0  0  0
   25.7221  -21.0793   -7.8725 C   0  0  0  0  0  0  0  0  0  0  0  0
   25.5308  -21.1812   -6.5559 N   0  0  0  0  0  0  0  0  0  0  0  0
   26.5293  -20.5854   -5.8793 C   0  0  0  0  0  0  0  0  0  0  0  0
   26.8515  -20.3837   -4.5526 C   0  0  0  0  0  0  0  0  0  0  0  0
   27.9884  -19.7087   -4.1582 C   0  0  0  0  0  0  0  0  0  0  0  0
   28.8292  -19.2203   -5.1220 C   0  0  0  0  0  0  0  0  0  0  0  0
   28.5343  -19.4060   -6.4578 C   0  0  0  0  0  0  0  0  0  0  0  0
   27.3892  -20.0856   -6.8359 C   0  0  0  0  0  0  0  0  0  0  0  0
   25.3141  -20.0285  -10.5702 C   0  0  0  0  0  0  0  0  0  0  0  0
   25.2114  -18.7785  -10.4925 O   0  0  0  0  0  0  0  0  0  0  0  0
   23.4035  -19.9007  -13.3097 C   0  0  0  0  0  0  0  0  0  0  0  0
   22.4564  -20.6652  -12.3808 C   0  0  1  0  0  0  0  0  0  0  0  0
   22.5086  -22.1395  -12.6078 C   0  0  0  0  0  0  0  0  0  0  0  0
   22.8332  -20.2848  -10.9456 C   0  0  2  0  0  0  0  0  0  0  0  0
   24.1652  -20.8101  -10.7351 N   0  0  0  0  0  0  0  0  0  0  0  0
   21.8655  -20.9861  -10.0654 C   0  0  0  0  0  0  0  0  0  0  0  0
   20.6867  -20.5697   -9.9960 O   0  0  0  0  0  0  0  0  0  0  0  0
   22.2186  -22.0925   -9.3114 O   0  0  0  0  0  0  0  0  0  0  0  0
  2  1  1  6
  2  3  1  0
  4  2  1  0
  4  5  1  6
  6  4  1  0
  6  7  2  0
  8  6  1  0
  9  8  1  0
  9 10  1  1
 11 10  1  0
 11 19  1  0
 12 13  1  0
 12 11  2  0
 13 14  1  0
 14 19  2  0
 14 15  1  0
 15 16  2  0
 16 17  1  0
 18 17  2  0
 19 18  1  0
 20  9  1  0
 21 20  2  0
 23 22  1  6
 23 24  1  0
 23 25  1  0
 25 27  1  0
 25 26  1  1
 26 20  1  0
 27 29  1  0
 28 27  2  0
M  END
$$$$
