TWV.pdb
     RDKit          3D

 29 30  0  0  1  0  0  0  0  0999 V2000
   29.3907  -19.8691  -17.6959 C   0  0  0  0  0  0  0  0  0  0  0  0
   28.4221  -20.1451  -16.5720 C   0  0  1  0  0  0  0  0  0  0  0  0
   27.1815  -20.4486  -17.1795 O   0  0  0  0  0  0  0  0  0  0  0  0
   28.8115  -21.3723  -15.7563 C   0  0  2  0  0  0  0  0  0  0  0  0
   28.6287  -22.4968  -16.7045 N   0  0  0  0  0  0  0  0  0  0  0  0
   27.8901  -21.5438  -14.6107 C   0  0  0  0  0  0  0  0  0  0  0  0
   26.7747  -22.1405  -14.7510 O   0  0  0  0  0  0  0  0  0  0  0  0
   28.1703  -21.0763  -13.3211 N   0  0  0  0  0  0  0  0  0  0  0  0
   27.2506  -21.2296  -12.2013 C   0  0  1  0  0  0  0  0  0  0  0  0
   28.0617  -21.0220  -10.9383 C   0  0  0  0  0  0  0  0  0  0  0  0
   27.0829  -20.8866   -9.8229 C   0  0  0  0  0  0  0  0  0  0  0  0
   25.7600  -21.2678   -9.7937 C   0  0  0  0  0  0  0  0  0  0  0  0
   25.2460  -20.9646   -8.6003 N   0  0  0  0  0  0  0  0  0  0  0  0
   26.1718  -20.3889   -7.8122 C   0  0  0  0  0  0  0  0  0  0  0  0
   26.2125  -19.8861   -6.5276 C   0  0  0  0  0  0  0  0  0  0  0  0
   27.3542  -19.3382   -5.9797 C   0  0  0  0  0  0  0  0  0  0  0  0
   28.4908  -19.2921   -6.7417 C   0  0  0  0  0  0  0  0  0  0  0  0
   28.4818  -19.7870   -8.0303 C   0  0  0  0  0  0  0  0  0  0  0  0
   27.3274  -20.3334   -8.5643 C   0  0  0  0  0  0  0  0  0  0  0  0
   26.0935  -20.3407  -12.2958 C   0  0  0  0  0  0  0  0  0  0  0  0
   26.2747  -19.0978  -12.3375 O   0  0  0  0  0  0  0  0  0  0  0  0
   24.3104  -19.6434  -14.8662 C   0  0  0  0  0  0  0  0  0  0  0  0
   23.2063  -20.2719  -14.0118 C   0  0  1  0  0  0  0  0  0  0  0  0
   22.9887  -21.7121  -14.3380 C   0  0  0  0  0  0  0  0  0  0  0  0
   23.5994  -20.0613  -12.5464 C   0  0  2  0  0  0  0  0  0  0  0  0
   24.7926  -20.8540  -12.3403 N   0  0  0  0  0  0  0  0  0  0  0  0
   22.4812  -20.6064  -11.7369 C   0  0  0  0  0  0  0  0  0  0  0  0
   22.5080  -21.8078  -11.3851 O   0  0  0  0  0  0  0  0  0  0  0  0
   21.4002  -19.8314  -11.3519 O   0  0  0  0  0  0  0  0  0  0  0  0
  2  1  1  6
  2  3  1  0
  4  2  1  0
  4  5  1  6
  6  4  1  0
  6  7  2  0
  8  6  1  0
  9  8  1  0
  9 10  1  1
 11 10  1  0
 11 19  1  0
 12 13  1  0
 12 11  2  0
 13 14  1  0
 14 19  2  0
 14 15  1  0
 15 16  2  0
 16 17  1  0
 18 17  2  0
 19 18  1  0
 20  9  1  0
 21 20  2  0
 23 22  1  6
 23 24  1  0
 23 25  1  0
 25 27  1  0
 25 26  1  1
 26 20  1  0
 27 29  1  0
 28 27  2  0
M  END
$$$$
