TWV.pdb
     RDKit          3D

 29 30  0  0  1  0  0  0  0  0999 V2000
   28.8041  -20.0490  -13.3035 C   0  0  0  0  0  0  0  0  0  0  0  0
   29.7858  -21.0253  -12.7031 C   0  0  1  0  0  0  0  0  0  0  0  0
   31.0474  -20.7192  -13.2641 O   0  0  0  0  0  0  0  0  0  0  0  0
   29.9329  -20.8503  -11.1962 C   0  0  2  0  0  0  0  0  0  0  0  0
   30.9313  -21.8789  -10.8189 N   0  0  0  0  0  0  0  0  0  0  0  0
   28.6509  -21.1401  -10.5156 C   0  0  0  0  0  0  0  0  0  0  0  0
   28.3088  -22.3357  -10.2451 O   0  0  0  0  0  0  0  0  0  0  0  0
   27.7439  -20.1467  -10.1276 N   0  0  0  0  0  0  0  0  0  0  0  0
   26.3680  -20.4316   -9.7414 C   0  0  1  0  0  0  0  0  0  0  0  0
   26.0042  -19.4384   -8.6564 C   0  0  0  0  0  0  0  0  0  0  0  0
   27.1224  -19.4573   -7.6717 C   0  0  0  0  0  0  0  0  0  0  0  0
   28.2798  -18.7110   -7.6759 C   0  0  0  0  0  0  0  0  0  0  0  0
   29.0126  -19.0383   -6.6100 N   0  0  0  0  0  0  0  0  0  0  0  0
   28.3963  -19.9829   -5.8768 C   0  0  0  0  0  0  0  0  0  0  0  0
   28.6687  -20.6773   -4.7156 C   0  0  0  0  0  0  0  0  0  0  0  0
   27.8072  -21.6206   -4.1943 C   0  0  0  0  0  0  0  0  0  0  0  0
   26.6363  -21.8769   -4.8561 C   0  0  0  0  0  0  0  0  0  0  0  0
   26.3355  -21.1986   -6.0202 C   0  0  0  0  0  0  0  0  0  0  0  0
   27.2113  -20.2553   -6.5293 C   0  0  0  0  0  0  0  0  0  0  0  0
   25.4470  -20.4079  -10.8769 C   0  0  0  0  0  0  0  0  0  0  0  0
   25.5457  -19.4901  -11.7295 O   0  0  0  0  0  0  0  0  0  0  0  0
   22.4707  -23.1604  -13.6114 C   0  0  0  0  0  0  0  0  0  0  0  0
   23.4882  -22.9994  -12.4787 C   0  0  1  0  0  0  0  0  0  0  0  0
   24.8180  -23.5821  -12.8253 C   0  0  0  0  0  0  0  0  0  0  0  0
   23.5742  -21.5029  -12.1633 C   0  0  2  0  0  0  0  0  0  0  0  0
   24.4615  -21.3900  -11.0255 N   0  0  0  0  0  0  0  0  0  0  0  0
   22.2030  -21.0822  -11.7819 C   0  0  0  0  0  0  0  0  0  0  0  0
   21.3703  -20.8200  -12.6796 O   0  0  0  0  0  0  0  0  0  0  0  0
   21.8050  -20.9674  -10.4606 O   0  0  0  0  0  0  0  0  0  0  0  0
  2  1  1  6
  2  3  1  0
  4  2  1  0
  4  5  1  1
  6  4  1  0
  6  7  2  0
  8  6  1  0
  9  8  1  0
  9 10  1  1
 11 10  1  0
 11 19  1  0
 12 13  1  0
 12 11  2  0
 13 14  1  0
 14 19  2  0
 14 15  1  0
 15 16  2  0
 16 17  1  0
 18 17  2  0
 19 18  1  0
 20  9  1  0
 21 20  2  0
 23 22  1  6
 23 24  1  0
 23 25  1  0
 25 27  1  0
 25 26  1  1
 26 20  1  0
 27 29  1  0
 28 27  2  0
M  END
$$$$
