PWK.pdb
     RDKit          3D

 31 33  0  0  1  0  0  0  0  0999 V2000
    7.1833  -15.5037   20.7991 N   0  0  0  0  0  0  0  0  0  0  0  0
    6.5627  -14.9121   19.6048 C   0  0  0  0  0  0  0  0  0  0  0  0
    7.1237  -13.5031   19.5302 C   0  0  0  0  0  0  0  0  0  0  0  0
    8.1565  -13.4339   20.6618 C   0  0  0  0  0  0  0  0  0  0  0  0
    8.4815  -14.8947   20.8611 C   0  0  1  0  0  0  0  0  0  0  0  0
    9.1540  -15.1702   22.1334 C   0  0  0  0  0  0  0  0  0  0  0  0
   10.2988  -14.7326   22.3387 O   0  0  0  0  0  0  0  0  0  0  0  0
    8.4938  -15.9335   23.1209 N   0  0  0  0  0  0  0  0  0  0  0  0
    9.1370  -16.2349   24.3638 C   0  0  1  0  0  0  0  0  0  0  0  0
    8.1484  -16.2776   25.4792 C   0  0  0  0  0  0  0  0  0  0  0  0
    7.3303  -15.0424   25.5527 C   0  0  0  0  0  0  0  0  0  0  0  0
    6.0054  -14.9046   25.1676 C   0  0  0  0  0  0  0  0  0  0  0  0
    5.6002  -13.6322   25.3855 N   0  0  0  0  0  0  0  0  0  0  0  0
    6.6288  -12.9410   25.9021 C   0  0  0  0  0  0  0  0  0  0  0  0
    6.6957  -11.6166   26.2849 C   0  0  0  0  0  0  0  0  0  0  0  0
    7.8827  -11.1269   26.7971 C   0  0  0  0  0  0  0  0  0  0  0  0
    8.9711  -11.9751   26.9126 C   0  0  0  0  0  0  0  0  0  0  0  0
    8.8804  -13.2937   26.5239 C   0  0  0  0  0  0  0  0  0  0  0  0
    7.7039  -13.7868   26.0142 C   0  0  0  0  0  0  0  0  0  0  0  0
    9.9705  -17.4658   24.3215 C   0  0  0  0  0  0  0  0  0  0  0  0
    9.5715  -18.4414   23.6525 O   0  0  0  0  0  0  0  0  0  0  0  0
   11.1811  -17.4992   25.0331 N   0  0  0  0  0  0  0  0  0  0  0  0
   11.9535  -18.7980   24.9217 C   0  0  1  0  0  0  0  0  0  0  0  0
   13.3774  -18.3890   24.7510 C   0  0  0  0  0  0  0  0  0  0  0  0
   14.4588  -19.3465   24.6538 C   0  0  0  0  0  0  0  0  0  0  0  0
   15.4345  -19.3280   23.5317 C   0  0  0  0  0  0  0  0  0  0  0  0
   16.4055  -20.5336   23.7003 C   0  0  0  0  0  0  0  0  0  0  0  0
   17.5231  -20.4056   22.7936 N   0  0  0  0  0  0  0  0  0  0  0  0
   11.6452  -19.4304   26.2221 C   0  0  0  0  0  0  0  0  0  0  0  0
   11.9163  -20.6992   26.5764 O   0  0  0  0  0  0  0  0  0  0  0  0
   11.0561  -18.7192   27.1165 O   0  0  0  0  0  0  0  0  0  0  0  0
  1  2  1  0
  2  3  1  0
  4  3  1  0
  5  1  1  0
  5  4  1  0
  5  6  1  1
  7  6  2  0
  8  6  1  0
  9  8  1  0
  9 10  1  1
 10 11  1  0
 11 19  1  0
 12 11  2  0
 12 13  1  0
 13 14  1  0
 14 15  1  0
 15 16  2  0
 17 16  1  0
 18 17  2  0
 19 14  2  0
 19 18  1  0
 20  9  1  0
 21 20  2  0
 22 20  1  0
 23 22  1  0
 24 25  1  0
 23 24  1  1
 26 27  1  0
 26 25  1  0
 28 27  1  0
 29 23  1  0
 29 30  1  0
 31 29  2  0
M  END
$$$$
