PWK.pdb
     RDKit          3D

 31 33  0  0  1  0  0  0  0  0999 V2000
    7.6208  -15.8591   21.3787 N   0  0  0  0  0  0  0  0  0  0  0  0
    6.8801  -15.4573   20.1740 C   0  0  0  0  0  0  0  0  0  0  0  0
    7.1138  -13.9619   20.0522 C   0  0  0  0  0  0  0  0  0  0  0  0
    8.1095  -13.6302   21.1705 C   0  0  0  0  0  0  0  0  0  0  0  0
    8.7516  -14.9755   21.4093 C   0  0  1  0  0  0  0  0  0  0  0  0
    9.4730  -15.0555   22.6822 C   0  0  0  0  0  0  0  0  0  0  0  0
   10.4773  -14.3490   22.8725 O   0  0  0  0  0  0  0  0  0  0  0  0
    9.0198  -15.9377   23.6871 N   0  0  0  0  0  0  0  0  0  0  0  0
    9.7226  -16.0550   24.9287 C   0  0  1  0  0  0  0  0  0  0  0  0
    8.7717  -16.1922   26.0689 C   0  0  0  0  0  0  0  0  0  0  0  0
    7.6602  -15.2127   25.9946 C   0  0  0  0  0  0  0  0  0  0  0  0
    6.3479  -15.4777   25.6334 C   0  0  0  0  0  0  0  0  0  0  0  0
    5.6244  -14.3357   25.6848 N   0  0  0  0  0  0  0  0  0  0  0  0
    6.4340  -13.3363   26.0701 C   0  0  0  0  0  0  0  0  0  0  0  0
    6.1515  -11.9993   26.2636 C   0  0  0  0  0  0  0  0  0  0  0  0
    7.1665  -11.1522   26.6678 C   0  0  0  0  0  0  0  0  0  0  0  0
    8.4370  -11.6653   26.8676 C   0  0  0  0  0  0  0  0  0  0  0  0
    8.6951  -13.0038   26.6681 C   0  0  0  0  0  0  0  0  0  0  0  0
    7.6911  -13.8511   26.2666 C   0  0  0  0  0  0  0  0  0  0  0  0
   10.7469  -17.1333   24.9352 C   0  0  0  0  0  0  0  0  0  0  0  0
   11.3102  -17.4233   26.0108 O   0  0  0  0  0  0  0  0  0  0  0  0
   11.0533  -17.7952   23.7348 N   0  0  0  0  0  0  0  0  0  0  0  0
   12.0815  -18.9015   23.8582 C   0  0  1  0  0  0  0  0  0  0  0  0
   11.9558  -19.6901   22.5988 C   0  0  0  0  0  0  0  0  0  0  0  0
   10.6930  -20.2246   22.1347 C   0  0  0  0  0  0  0  0  0  0  0  0
   10.0378  -19.7412   20.8903 C   0  0  0  0  0  0  0  0  0  0  0  0
    9.3728  -20.9554   20.1774 C   0  0  0  0  0  0  0  0  0  0  0  0
    7.9690  -20.6963   19.9542 N   0  0  0  0  0  0  0  0  0  0  0  0
   13.3323  -18.1220   23.9755 C   0  0  0  0  0  0  0  0  0  0  0  0
   13.4345  -16.7824   24.0389 O   0  0  0  0  0  0  0  0  0  0  0  0
   14.4447  -18.7652   24.0180 O   0  0  0  0  0  0  0  0  0  0  0  0
  1  2  1  0
  2  3  1  0
  4  3  1  0
  5  1  1  0
  5  4  1  0
  5  6  1  1
  7  6  2  0
  8  6  1  0
  9  8  1  0
  9 10  1  1
 10 11  1  0
 11 19  1  0
 12 11  2  0
 12 13  1  0
 13 14  1  0
 14 15  1  0
 15 16  2  0
 17 16  1  0
 18 17  2  0
 19 14  2  0
 19 18  1  0
 20  9  1  0
 21 20  2  0
 22 20  1  0
 23 22  1  0
 24 25  1  0
 23 24  1  6
 26 27  1  0
 26 25  1  0
 28 27  1  0
 29 23  1  0
 29 30  1  0
 31 29  2  0
M  END
$$$$
