PWK.pdb
     RDKit          3D

 31 33  0  0  1  0  0  0  0  0999 V2000
    7.0853  -15.9737   21.0603 N   0  0  0  0  0  0  0  0  0  0  0  0
    6.2865  -15.4933   19.9234 C   0  0  0  0  0  0  0  0  0  0  0  0
    6.6479  -14.0250   19.7846 C   0  0  0  0  0  0  0  0  0  0  0  0
    7.7609  -13.7980   20.8150 C   0  0  0  0  0  0  0  0  0  0  0  0
    8.2922  -15.1995   20.9963 C   0  0  1  0  0  0  0  0  0  0  0  0
    9.1078  -15.3583   22.2033 C   0  0  0  0  0  0  0  0  0  0  0  0
   10.1959  -14.7662   22.3002 O   0  0  0  0  0  0  0  0  0  0  0  0
    8.6493  -16.1858   23.2515 N   0  0  0  0  0  0  0  0  0  0  0  0
    9.4097  -16.3293   24.4559 C   0  0  1  0  0  0  0  0  0  0  0  0
    8.5142  -16.4154   25.6449 C   0  0  0  0  0  0  0  0  0  0  0  0
    7.5361  -15.3012   25.6936 C   0  0  0  0  0  0  0  0  0  0  0  0
    6.1822  -15.3767   25.4037 C   0  0  0  0  0  0  0  0  0  0  0  0
    5.6165  -14.1579   25.5613 N   0  0  0  0  0  0  0  0  0  0  0  0
    6.5690  -13.2934   25.9461 C   0  0  0  0  0  0  0  0  0  0  0  0
    6.4732  -11.9456   26.2273 C   0  0  0  0  0  0  0  0  0  0  0  0
    7.6105  -11.2589   26.6095 C   0  0  0  0  0  0  0  0  0  0  0  0
    8.8133  -11.9389   26.7003 C   0  0  0  0  0  0  0  0  0  0  0  0
    8.8845  -13.2847   26.4146 C   0  0  0  0  0  0  0  0  0  0  0  0
    7.7582  -13.9731   26.0342 C   0  0  0  0  0  0  0  0  0  0  0  0
   10.3813  -17.4547   24.4177 C   0  0  0  0  0  0  0  0  0  0  0  0
   10.0078  -18.5587   23.9704 O   0  0  0  0  0  0  0  0  0  0  0  0
   11.6897  -17.2473   24.8846 N   0  0  0  0  0  0  0  0  0  0  0  0
   12.6284  -18.4227   24.7021 C   0  0  1  0  0  0  0  0  0  0  0  0
   13.9276  -17.8205   24.2855 C   0  0  0  0  0  0  0  0  0  0  0  0
   15.1348  -18.6027   24.1233 C   0  0  0  0  0  0  0  0  0  0  0  0
   16.4025  -18.0082   23.6225 C   0  0  0  0  0  0  0  0  0  0  0  0
   17.4764  -19.1325   23.5367 C   0  0  0  0  0  0  0  0  0  0  0  0
   17.5827  -19.6196   22.1806 N   0  0  0  0  0  0  0  0  0  0  0  0
   12.6271  -19.0075   26.0600 C   0  0  0  0  0  0  0  0  0  0  0  0
   13.1180  -20.2093   26.4114 O   0  0  0  0  0  0  0  0  0  0  0  0
   12.1068  -18.3209   27.0143 O   0  0  0  0  0  0  0  0  0  0  0  0
  1  2  1  0
  2  3  1  0
  4  3  1  0
  5  1  1  0
  5  4  1  0
  5  6  1  1
  7  6  2  0
  8  6  1  0
  9  8  1  0
  9 10  1  1
 10 11  1  0
 11 19  1  0
 12 11  2  0
 12 13  1  0
 13 14  1  0
 14 15  1  0
 15 16  2  0
 17 16  1  0
 18 17  2  0
 19 14  2  0
 19 18  1  0
 20  9  1  0
 21 20  2  0
 22 20  1  0
 23 22  1  0
 24 25  1  0
 23 24  1  1
 26 27  1  0
 26 25  1  0
 28 27  1  0
 29 23  1  0
 29 30  1  0
 31 29  2  0
M  END
$$$$
