PWK.pdb
     RDKit          3D

 31 33  0  0  1  0  0  0  0  0999 V2000
    7.2968  -15.3223   19.9829 N   0  0  0  0  0  0  0  0  0  0  0  0
    6.8343  -14.6530   18.7583 C   0  0  0  0  0  0  0  0  0  0  0  0
    7.2606  -13.2046   18.9196 C   0  0  0  0  0  0  0  0  0  0  0  0
    8.0740  -13.1798   20.2195 C   0  0  0  0  0  0  0  0  0  0  0  0
    8.5003  -14.6235   20.3344 C   0  0  1  0  0  0  0  0  0  0  0  0
    8.9698  -14.9842   21.6747 C   0  0  0  0  0  0  0  0  0  0  0  0
    9.9917  -14.4514   22.1393 O   0  0  0  0  0  0  0  0  0  0  0  0
    8.2547  -15.9378   22.4316 N   0  0  0  0  0  0  0  0  0  0  0  0
    8.6267  -16.2268   23.7834 C   0  0  1  0  0  0  0  0  0  0  0  0
    7.4324  -16.2315   24.6759 C   0  0  0  0  0  0  0  0  0  0  0  0
    7.0122  -14.8616   25.0596 C   0  0  0  0  0  0  0  0  0  0  0  0
    5.8909  -14.1835   24.6060 C   0  0  0  0  0  0  0  0  0  0  0  0
    5.8387  -12.9595   25.1799 N   0  0  0  0  0  0  0  0  0  0  0  0
    6.8977  -12.8261   25.9944 C   0  0  0  0  0  0  0  0  0  0  0  0
    7.2688  -11.7600   26.7886 C   0  0  0  0  0  0  0  0  0  0  0  0
    8.4182  -11.8606   27.5500 C   0  0  0  0  0  0  0  0  0  0  0  0
    9.1657  -13.0250   27.4966 C   0  0  0  0  0  0  0  0  0  0  0  0
    8.7753  -14.0762   26.6962 C   0  0  0  0  0  0  0  0  0  0  0  0
    7.6342  -13.9828   25.9372 C   0  0  0  0  0  0  0  0  0  0  0  0
    9.4259  -17.4726   23.9291 C   0  0  0  0  0  0  0  0  0  0  0  0
    8.8849  -18.5689   23.6766 O   0  0  0  0  0  0  0  0  0  0  0  0
   10.7644  -17.3839   24.3459 N   0  0  0  0  0  0  0  0  0  0  0  0
   11.4981  -18.7071   24.4283 C   0  0  1  0  0  0  0  0  0  0  0  0
   12.7747  -18.4894   23.6888 C   0  0  0  0  0  0  0  0  0  0  0  0
   12.8156  -18.1827   22.2746 C   0  0  0  0  0  0  0  0  0  0  0  0
   14.0928  -17.9329   21.5550 C   0  0  0  0  0  0  0  0  0  0  0  0
   13.7759  -17.7118   20.0466 C   0  0  0  0  0  0  0  0  0  0  0  0
   14.9976  -17.4990   19.3052 N   0  0  0  0  0  0  0  0  0  0  0  0
   11.6513  -18.8624   25.8906 C   0  0  0  0  0  0  0  0  0  0  0  0
   10.7028  -18.6467   26.8194 O   0  0  0  0  0  0  0  0  0  0  0  0
   12.7956  -19.2346   26.3432 O   0  0  0  0  0  0  0  0  0  0  0  0
  1  2  1  0
  2  3  1  0
  4  3  1  0
  5  1  1  0
  5  4  1  0
  5  6  1  1
  7  6  2  0
  8  6  1  0
  9  8  1  0
  9 10  1  1
 10 11  1  0
 11 19  1  0
 12 11  2  0
 12 13  1  0
 13 14  1  0
 14 15  1  0
 15 16  2  0
 17 16  1  0
 18 17  2  0
 19 14  2  0
 19 18  1  0
 20  9  1  0
 21 20  2  0
 22 20  1  0
 23 22  1  0
 24 25  1  0
 23 24  1  6
 26 27  1  0
 26 25  1  0
 28 27  1  0
 29 23  1  0
 29 30  1  0
 31 29  2  0
M  END
$$$$
