PWK.pdb
     RDKit          3D

 31 33  0  0  1  0  0  0  0  0999 V2000
    7.8199  -15.0010   18.6557 N   0  0  0  0  0  0  0  0  0  0  0  0
    7.5839  -14.5177   17.2874 C   0  0  0  0  0  0  0  0  0  0  0  0
    7.7763  -13.0135   17.3656 C   0  0  0  0  0  0  0  0  0  0  0  0
    8.2461  -12.7545   18.8024 C   0  0  0  0  0  0  0  0  0  0  0  0
    8.8084  -14.1032   19.1820 C   0  0  1  0  0  0  0  0  0  0  0  0
    8.9852  -14.2714   20.6267 C   0  0  0  0  0  0  0  0  0  0  0  0
    9.9059  -13.6778   21.2133 O   0  0  0  0  0  0  0  0  0  0  0  0
    8.1046  -15.1096   21.3448 N   0  0  0  0  0  0  0  0  0  0  0  0
    8.1924  -15.2131   22.7699 C   0  0  1  0  0  0  0  0  0  0  0  0
    6.8354  -15.2452   23.3869 C   0  0  0  0  0  0  0  0  0  0  0  0
    6.8710  -14.9437   24.8389 C   0  0  0  0  0  0  0  0  0  0  0  0
    6.8337  -15.8642   25.8752 C   0  0  0  0  0  0  0  0  0  0  0  0
    6.8876  -15.2144   27.0606 N   0  0  0  0  0  0  0  0  0  0  0  0
    6.9590  -13.8955   26.8197 C   0  0  0  0  0  0  0  0  0  0  0  0
    7.0318  -12.8410   27.7073 C   0  0  0  0  0  0  0  0  0  0  0  0
    7.0977  -11.5522   27.2117 C   0  0  0  0  0  0  0  0  0  0  0  0
    7.0891  -11.3525   25.8416 C   0  0  0  0  0  0  0  0  0  0  0  0
    7.0159  -12.4209   24.9749 C   0  0  0  0  0  0  0  0  0  0  0  0
    6.9502  -13.7042   25.4606 C   0  0  0  0  0  0  0  0  0  0  0  0
    9.0340  -16.3477   23.2351 C   0  0  0  0  0  0  0  0  0  0  0  0
    8.5920  -17.0997   24.1281 O   0  0  0  0  0  0  0  0  0  0  0  0
   10.3005  -16.5431   22.6599 N   0  0  0  0  0  0  0  0  0  0  0  0
   11.0059  -17.8159   23.0823 C   0  0  1  0  0  0  0  0  0  0  0  0
   11.9704  -18.1079   21.9830 C   0  0  0  0  0  0  0  0  0  0  0  0
   12.8966  -19.2194   22.0313 C   0  0  0  0  0  0  0  0  0  0  0  0
   13.7840  -19.5611   20.8880 C   0  0  0  0  0  0  0  0  0  0  0  0
   14.6193  -20.8189   21.2687 C   0  0  0  0  0  0  0  0  0  0  0  0
   13.7941  -22.0034   21.2097 N   0  0  0  0  0  0  0  0  0  0  0  0
   11.6300  -17.3923   24.3540 C   0  0  0  0  0  0  0  0  0  0  0  0
   12.1272  -18.2009   25.3067 O   0  0  0  0  0  0  0  0  0  0  0  0
   11.7125  -16.1327   24.5977 O   0  0  0  0  0  0  0  0  0  0  0  0
  1  2  1  0
  2  3  1  0
  4  3  1  0
  5  1  1  0
  5  4  1  0
  5  6  1  1
  7  6  2  0
  8  6  1  0
  9  8  1  0
  9 10  1  1
 10 11  1  0
 11 19  1  0
 12 11  2  0
 12 13  1  0
 13 14  1  0
 14 15  1  0
 15 16  2  0
 17 16  1  0
 18 17  2  0
 19 14  2  0
 19 18  1  0
 20  9  1  0
 21 20  2  0
 22 20  1  0
 23 22  1  0
 24 25  1  0
 23 24  1  6
 26 27  1  0
 26 25  1  0
 28 27  1  0
 29 23  1  0
 29 30  1  0
 31 29  2  0
M  END
$$$$
