PWK.pdb
     RDKit          3D

 31 33  0  0  1  0  0  0  0  0999 V2000
    6.8849  -14.9713   20.5458 N   0  0  0  0  0  0  0  0  0  0  0  0
    6.2097  -14.2023   19.4903 C   0  0  0  0  0  0  0  0  0  0  0  0
    6.9125  -12.8563   19.4771 C   0  0  0  0  0  0  0  0  0  0  0  0
    8.0616  -13.0063   20.4816 C   0  0  0  0  0  0  0  0  0  0  0  0
    8.2418  -14.5049   20.5097 C   0  0  1  0  0  0  0  0  0  0  0  0
    9.0117  -14.9743   21.6647 C   0  0  0  0  0  0  0  0  0  0  0  0
   10.2163  -14.6870   21.7667 O   0  0  0  0  0  0  0  0  0  0  0  0
    8.3768  -15.7524   22.6572 N   0  0  0  0  0  0  0  0  0  0  0  0
    9.0674  -16.1100   23.8591 C   0  0  1  0  0  0  0  0  0  0  0  0
    8.1085  -16.3325   24.9790 C   0  0  0  0  0  0  0  0  0  0  0  0
    7.2746  -15.1362   25.2508 C   0  0  0  0  0  0  0  0  0  0  0  0
    5.9182  -14.9995   24.9976 C   0  0  0  0  0  0  0  0  0  0  0  0
    5.5075  -13.7687   25.3807 N   0  0  0  0  0  0  0  0  0  0  0  0
    6.5632  -13.1033   25.8762 C   0  0  0  0  0  0  0  0  0  0  0  0
    6.6361  -11.8234   26.3876 C   0  0  0  0  0  0  0  0  0  0  0  0
    7.8533  -11.3531   26.8439 C   0  0  0  0  0  0  0  0  0  0  0  0
    8.9651  -12.1758   26.7765 C   0  0  0  0  0  0  0  0  0  0  0  0
    8.8679  -13.4500   26.2618 C   0  0  0  0  0  0  0  0  0  0  0  0
    7.6613  -13.9236   25.8067 C   0  0  0  0  0  0  0  0  0  0  0  0
    9.9956  -17.2603   23.6943 C   0  0  0  0  0  0  0  0  0  0  0  0
    9.6011  -18.2693   23.0739 O   0  0  0  0  0  0  0  0  0  0  0  0
   11.2878  -17.1824   24.2394 N   0  0  0  0  0  0  0  0  0  0  0  0
   12.1509  -18.4080   24.0181 C   0  0  1  0  0  0  0  0  0  0  0  0
   13.4804  -17.8761   23.6016 C   0  0  0  0  0  0  0  0  0  0  0  0
   14.6495  -18.7182   23.4613 C   0  0  0  0  0  0  0  0  0  0  0  0
   15.9779  -18.1713   23.0770 C   0  0  0  0  0  0  0  0  0  0  0  0
   16.9863  -19.3527   22.9670 C   0  0  0  0  0  0  0  0  0  0  0  0
   18.3086  -18.8545   22.6656 N   0  0  0  0  0  0  0  0  0  0  0  0
   12.1269  -19.0251   25.3615 C   0  0  0  0  0  0  0  0  0  0  0  0
   11.9417  -18.3854   26.5299 O   0  0  0  0  0  0  0  0  0  0  0  0
   12.3029  -20.2957   25.4472 O   0  0  0  0  0  0  0  0  0  0  0  0
  1  2  1  0
  2  3  1  0
  4  3  1  0
  5  1  1  0
  5  4  1  0
  5  6  1  1
  7  6  2  0
  8  6  1  0
  9  8  1  0
  9 10  1  1
 10 11  1  0
 11 19  1  0
 12 11  2  0
 12 13  1  0
 13 14  1  0
 14 15  1  0
 15 16  2  0
 17 16  1  0
 18 17  2  0
 19 14  2  0
 19 18  1  0
 20  9  1  0
 21 20  2  0
 22 20  1  0
 23 22  1  0
 24 25  1  0
 23 24  1  1
 26 27  1  0
 26 25  1  0
 28 27  1  0
 29 23  1  0
 29 30  1  0
 31 29  2  0
M  END
$$$$
