PWK.pdb
     RDKit          3D

 31 33  0  0  1  0  0  0  0  0999 V2000
    7.0860  -16.1430   21.1293 N   0  0  0  0  0  0  0  0  0  0  0  0
    6.4047  -15.6190   19.9366 C   0  0  0  0  0  0  0  0  0  0  0  0
    6.7138  -14.1323   19.9315 C   0  0  0  0  0  0  0  0  0  0  0  0
    7.6877  -13.9323   21.0993 C   0  0  0  0  0  0  0  0  0  0  0  0
    8.2563  -15.3219   21.2571 C   0  0  1  0  0  0  0  0  0  0  0  0
    8.9317  -15.5292   22.5408 C   0  0  0  0  0  0  0  0  0  0  0  0
    9.9721  -14.9027   22.8038 O   0  0  0  0  0  0  0  0  0  0  0  0
    8.3932  -16.4425   23.4733 N   0  0  0  0  0  0  0  0  0  0  0  0
    9.0184  -16.6430   24.7454 C   0  0  1  0  0  0  0  0  0  0  0  0
    8.0137  -16.5987   25.8462 C   0  0  0  0  0  0  0  0  0  0  0  0
    7.2322  -15.3379   25.8433 C   0  0  0  0  0  0  0  0  0  0  0  0
    5.9010  -15.1916   25.4838 C   0  0  0  0  0  0  0  0  0  0  0  0
    5.5372  -13.8947   25.6109 N   0  0  0  0  0  0  0  0  0  0  0  0
    6.5987  -13.1958   26.0439 C   0  0  0  0  0  0  0  0  0  0  0  0
    6.7127  -11.8481   26.3188 C   0  0  0  0  0  0  0  0  0  0  0  0
    7.9269  -11.3550   26.7590 C   0  0  0  0  0  0  0  0  0  0  0  0
    8.9945  -12.2233   26.9124 C   0  0  0  0  0  0  0  0  0  0  0  0
    8.8567  -13.5651   26.6318 C   0  0  0  0  0  0  0  0  0  0  0  0
    7.6530  -14.0616   26.1941 C   0  0  0  0  0  0  0  0  0  0  0  0
    9.8531  -17.8720   24.8130 C   0  0  0  0  0  0  0  0  0  0  0  0
    9.3309  -18.9716   24.5360 O   0  0  0  0  0  0  0  0  0  0  0  0
   11.2031  -17.7645   25.1859 N   0  0  0  0  0  0  0  0  0  0  0  0
   11.9530  -19.0791   25.2616 C   0  0  1  0  0  0  0  0  0  0  0  0
   13.3292  -18.7689   24.7782 C   0  0  0  0  0  0  0  0  0  0  0  0
   14.3921  -19.7516   24.7640 C   0  0  0  0  0  0  0  0  0  0  0  0
   15.7630  -19.4287   24.2868 C   0  0  0  0  0  0  0  0  0  0  0  0
   16.6387  -20.7119   24.3923 C   0  0  0  0  0  0  0  0  0  0  0  0
   17.4119  -20.6903   25.6127 N   0  0  0  0  0  0  0  0  0  0  0  0
   11.8603  -19.3822   26.7057 C   0  0  0  0  0  0  0  0  0  0  0  0
   12.0324  -20.5857   27.2808 O   0  0  0  0  0  0  0  0  0  0  0  0
   11.5846  -18.4180   27.5102 O   0  0  0  0  0  0  0  0  0  0  0  0
  1  2  1  0
  2  3  1  0
  4  3  1  0
  5  1  1  0
  5  4  1  0
  5  6  1  1
  7  6  2  0
  8  6  1  0
  9  8  1  0
  9 10  1  1
 10 11  1  0
 11 19  1  0
 12 11  2  0
 12 13  1  0
 13 14  1  0
 14 15  1  0
 15 16  2  0
 17 16  1  0
 18 17  2  0
 19 14  2  0
 19 18  1  0
 20  9  1  0
 21 20  2  0
 22 20  1  0
 23 22  1  0
 24 25  1  0
 23 24  1  1
 26 27  1  0
 26 25  1  0
 28 27  1  0
 29 23  1  0
 29 30  1  0
 31 29  2  0
M  END
$$$$
