PWK.pdb
     RDKit          3D

 31 33  0  0  1  0  0  0  0  0999 V2000
    7.0450  -15.7795   21.1113 N   0  0  0  0  0  0  0  0  0  0  0  0
    6.2002  -15.3198   19.9993 C   0  0  0  0  0  0  0  0  0  0  0  0
    6.5965  -13.8704   19.7807 C   0  0  0  0  0  0  0  0  0  0  0  0
    7.7699  -13.6376   20.7405 C   0  0  0  0  0  0  0  0  0  0  0  0
    8.2689  -15.0468   20.9515 C   0  0  1  0  0  0  0  0  0  0  0  0
    9.1436  -15.1829   22.1191 C   0  0  0  0  0  0  0  0  0  0  0  0
   10.2225  -14.5681   22.1622 O   0  0  0  0  0  0  0  0  0  0  0  0
    8.7524  -16.0146   23.1910 N   0  0  0  0  0  0  0  0  0  0  0  0
    9.5625  -16.1225   24.3663 C   0  0  1  0  0  0  0  0  0  0  0  0
    8.7191  -16.3303   25.5782 C   0  0  0  0  0  0  0  0  0  0  0  0
    7.6561  -15.3036   25.7058 C   0  0  0  0  0  0  0  0  0  0  0  0
    6.2969  -15.4921   25.5066 C   0  0  0  0  0  0  0  0  0  0  0  0
    5.6423  -14.3268   25.7165 N   0  0  0  0  0  0  0  0  0  0  0  0
    6.5424  -13.3869   26.0467 C   0  0  0  0  0  0  0  0  0  0  0  0
    6.3524  -12.0539   26.3499 C   0  0  0  0  0  0  0  0  0  0  0  0
    7.4510  -11.2754   26.6631 C   0  0  0  0  0  0  0  0  0  0  0  0
    8.7103  -11.8512   26.6646 C   0  0  0  0  0  0  0  0  0  0  0  0
    8.8753  -13.1843   26.3587 C   0  0  0  0  0  0  0  0  0  0  0  0
    7.7879  -13.9636   26.0466 C   0  0  0  0  0  0  0  0  0  0  0  0
   10.6340  -17.1485   24.2606 C   0  0  0  0  0  0  0  0  0  0  0  0
   10.3560  -18.2621   23.7695 O   0  0  0  0  0  0  0  0  0  0  0  0
   11.9268  -16.8394   24.7147 N   0  0  0  0  0  0  0  0  0  0  0  0
   12.9556  -17.9329   24.5100 C   0  0  1  0  0  0  0  0  0  0  0  0
   14.2208  -17.2175   24.1762 C   0  0  0  0  0  0  0  0  0  0  0  0
   15.4800  -17.9055   23.9851 C   0  0  0  0  0  0  0  0  0  0  0  0
   16.7305  -17.1841   23.6283 C   0  0  0  0  0  0  0  0  0  0  0  0
   17.8890  -18.2200   23.5312 C   0  0  0  0  0  0  0  0  0  0  0  0
   19.1083  -17.5682   23.1118 N   0  0  0  0  0  0  0  0  0  0  0  0
   12.9489  -18.5881   25.8354 C   0  0  0  0  0  0  0  0  0  0  0  0
   13.4624  -19.7954   26.1310 O   0  0  0  0  0  0  0  0  0  0  0  0
   12.3997  -17.9643   26.8162 O   0  0  0  0  0  0  0  0  0  0  0  0
  1  2  1  0
  2  3  1  0
  4  3  1  0
  5  1  1  0
  5  4  1  0
  5  6  1  1
  7  6  2  0
  8  6  1  0
  9  8  1  0
  9 10  1  1
 10 11  1  0
 11 19  1  0
 12 11  2  0
 12 13  1  0
 13 14  1  0
 14 15  1  0
 15 16  2  0
 17 16  1  0
 18 17  2  0
 19 14  2  0
 19 18  1  0
 20  9  1  0
 21 20  2  0
 22 20  1  0
 23 22  1  0
 24 25  1  0
 23 24  1  1
 26 27  1  0
 26 25  1  0
 28 27  1  0
 29 23  1  0
 29 30  1  0
 31 29  2  0
M  END
$$$$
