PWK.pdb
     RDKit          3D

 31 33  0  0  1  0  0  0  0  0999 V2000
    6.9819  -15.9058   21.1019 N   0  0  0  0  0  0  0  0  0  0  0  0
    6.2045  -15.4064   19.9584 C   0  0  0  0  0  0  0  0  0  0  0  0
    6.6442  -13.9630   19.7874 C   0  0  0  0  0  0  0  0  0  0  0  0
    7.7730  -13.7754   20.8085 C   0  0  0  0  0  0  0  0  0  0  0  0
    8.2286  -15.1996   21.0171 C   0  0  1  0  0  0  0  0  0  0  0  0
    9.0404  -15.3774   22.2238 C   0  0  0  0  0  0  0  0  0  0  0  0
   10.1369  -14.8017   22.3254 O   0  0  0  0  0  0  0  0  0  0  0  0
    8.5689  -16.2043   23.2667 N   0  0  0  0  0  0  0  0  0  0  0  0
    9.3419  -16.3932   24.4567 C   0  0  1  0  0  0  0  0  0  0  0  0
    8.4651  -16.4281   25.6622 C   0  0  0  0  0  0  0  0  0  0  0  0
    7.5368  -15.2723   25.7155 C   0  0  0  0  0  0  0  0  0  0  0  0
    6.1856  -15.2825   25.4040 C   0  0  0  0  0  0  0  0  0  0  0  0
    5.6720  -14.0425   25.5742 N   0  0  0  0  0  0  0  0  0  0  0  0
    6.6557  -13.2280   25.9883 C   0  0  0  0  0  0  0  0  0  0  0  0
    6.6152  -11.8821   26.2915 C   0  0  0  0  0  0  0  0  0  0  0  0
    7.7756  -11.2533   26.7029 C   0  0  0  0  0  0  0  0  0  0  0  0
    8.9455  -11.9877   26.7999 C   0  0  0  0  0  0  0  0  0  0  0  0
    8.9615  -13.3304   26.4919 C   0  0  0  0  0  0  0  0  0  0  0  0
    7.8120  -13.9614   26.0826 C   0  0  0  0  0  0  0  0  0  0  0  0
   10.2453  -17.5733   24.4005 C   0  0  0  0  0  0  0  0  0  0  0  0
    9.7528  -18.6998   24.1843 O   0  0  0  0  0  0  0  0  0  0  0  0
   11.6248  -17.3906   24.5918 N   0  0  0  0  0  0  0  0  0  0  0  0
   12.4524  -18.6586   24.5351 C   0  0  1  0  0  0  0  0  0  0  0  0
   13.8046  -18.2194   24.0850 C   0  0  0  0  0  0  0  0  0  0  0  0
   14.9507  -19.1038   24.0772 C   0  0  0  0  0  0  0  0  0  0  0  0
   16.2966  -18.6522   23.6346 C   0  0  0  0  0  0  0  0  0  0  0  0
   17.2620  -19.8737   23.6612 C   0  0  0  0  0  0  0  0  0  0  0  0
   18.5124  -19.5364   23.0208 N   0  0  0  0  0  0  0  0  0  0  0  0
   12.3870  -19.1099   25.9415 C   0  0  0  0  0  0  0  0  0  0  0  0
   12.0064  -18.3715   26.9993 O   0  0  0  0  0  0  0  0  0  0  0  0
   12.7269  -20.3214   26.2050 O   0  0  0  0  0  0  0  0  0  0  0  0
  1  2  1  0
  2  3  1  0
  4  3  1  0
  5  1  1  0
  5  4  1  0
  5  6  1  1
  7  6  2  0
  8  6  1  0
  9  8  1  0
  9 10  1  1
 10 11  1  0
 11 19  1  0
 12 11  2  0
 12 13  1  0
 13 14  1  0
 14 15  1  0
 15 16  2  0
 17 16  1  0
 18 17  2  0
 19 14  2  0
 19 18  1  0
 20  9  1  0
 21 20  2  0
 22 20  1  0
 23 22  1  0
 24 25  1  0
 23 24  1  1
 26 27  1  0
 26 25  1  0
 28 27  1  0
 29 23  1  0
 29 30  1  0
 31 29  2  0
M  END
$$$$
