PWK.pdb
     RDKit          3D

 31 33  0  0  1  0  0  0  0  0999 V2000
    7.1718  -15.4730   20.6067 N   0  0  0  0  0  0  0  0  0  0  0  0
    6.6084  -14.8744   19.3879 C   0  0  0  0  0  0  0  0  0  0  0  0
    7.1927  -13.4739   19.3342 C   0  0  0  0  0  0  0  0  0  0  0  0
    8.1803  -13.4180   20.5063 C   0  0  0  0  0  0  0  0  0  0  0  0
    8.4754  -14.8831   20.7201 C   0  0  1  0  0  0  0  0  0  0  0  0
    9.0922  -15.1664   22.0186 C   0  0  0  0  0  0  0  0  0  0  0  0
   10.2071  -14.6916   22.2937 O   0  0  0  0  0  0  0  0  0  0  0  0
    8.4126  -15.9797   22.9516 N   0  0  0  0  0  0  0  0  0  0  0  0
    8.9966  -16.2776   24.2242 C   0  0  1  0  0  0  0  0  0  0  0  0
    7.9564  -16.3196   25.2916 C   0  0  0  0  0  0  0  0  0  0  0  0
    7.1950  -15.0499   25.3844 C   0  0  0  0  0  0  0  0  0  0  0  0
    5.8720  -14.8510   25.0198 C   0  0  0  0  0  0  0  0  0  0  0  0
    5.5268  -13.5635   25.2511 N   0  0  0  0  0  0  0  0  0  0  0  0
    6.5924  -12.9219   25.7566 C   0  0  0  0  0  0  0  0  0  0  0  0
    6.7234  -11.6043   26.1462 C   0  0  0  0  0  0  0  0  0  0  0  0
    7.9382  -11.1709   26.6436 C   0  0  0  0  0  0  0  0  0  0  0  0
    8.9895  -12.0671   26.7381 C   0  0  0  0  0  0  0  0  0  0  0  0
    8.8349  -13.3778   26.3429 C   0  0  0  0  0  0  0  0  0  0  0  0
    7.6305  -13.8151   25.8478 C   0  0  0  0  0  0  0  0  0  0  0  0
    9.8328  -17.5075   24.2238 C   0  0  0  0  0  0  0  0  0  0  0  0
    9.4016  -18.5296   23.6513 O   0  0  0  0  0  0  0  0  0  0  0  0
   11.0820  -17.4876   24.8659 N   0  0  0  0  0  0  0  0  0  0  0  0
   11.8887  -18.7637   24.7361 C   0  0  1  0  0  0  0  0  0  0  0  0
   13.2385  -18.3245   24.2787 C   0  0  0  0  0  0  0  0  0  0  0  0
   14.3396  -19.2463   24.0962 C   0  0  0  0  0  0  0  0  0  0  0  0
   15.7120  -18.7838   23.7583 C   0  0  0  0  0  0  0  0  0  0  0  0
   16.6246  -20.0326   23.5780 C   0  0  0  0  0  0  0  0  0  0  0  0
   17.6712  -20.0345   24.5740 N   0  0  0  0  0  0  0  0  0  0  0  0
   11.8440  -19.2764   26.1222 C   0  0  0  0  0  0  0  0  0  0  0  0
   12.1538  -20.5225   26.5222 O   0  0  0  0  0  0  0  0  0  0  0  0
   11.4709  -18.4722   27.0533 O   0  0  0  0  0  0  0  0  0  0  0  0
  1  2  1  0
  2  3  1  0
  4  3  1  0
  5  1  1  0
  5  4  1  0
  5  6  1  1
  7  6  2  0
  8  6  1  0
  9  8  1  0
  9 10  1  1
 10 11  1  0
 11 19  1  0
 12 11  2  0
 12 13  1  0
 13 14  1  0
 14 15  1  0
 15 16  2  0
 17 16  1  0
 18 17  2  0
 19 14  2  0
 19 18  1  0
 20  9  1  0
 21 20  2  0
 22 20  1  0
 23 22  1  0
 24 25  1  0
 23 24  1  1
 26 27  1  0
 26 25  1  0
 28 27  1  0
 29 23  1  0
 29 30  1  0
 31 29  2  0
M  END
$$$$
