PWK.pdb
     RDKit          3D

 31 33  0  0  1  0  0  0  0  0999 V2000
    7.2876  -15.7571   20.9436 N   0  0  0  0  0  0  0  0  0  0  0  0
    6.6629  -15.1671   19.7507 C   0  0  0  0  0  0  0  0  0  0  0  0
    7.0017  -13.6887   19.8228 C   0  0  0  0  0  0  0  0  0  0  0  0
    7.9341  -13.5607   21.0337 C   0  0  0  0  0  0  0  0  0  0  0  0
    8.4684  -14.9679   21.1510 C   0  0  1  0  0  0  0  0  0  0  0  0
    9.0900  -15.2453   22.4486 C   0  0  0  0  0  0  0  0  0  0  0  0
   10.1106  -14.6262   22.7936 O   0  0  0  0  0  0  0  0  0  0  0  0
    8.5223  -16.2175   23.3008 N   0  0  0  0  0  0  0  0  0  0  0  0
    9.1078  -16.5044   24.5752 C   0  0  1  0  0  0  0  0  0  0  0  0
    8.0764  -16.4882   25.6518 C   0  0  0  0  0  0  0  0  0  0  0  0
    7.2654  -15.2463   25.6343 C   0  0  0  0  0  0  0  0  0  0  0  0
    5.9732  -15.1098   25.1501 C   0  0  0  0  0  0  0  0  0  0  0  0
    5.5638  -13.8298   25.3058 N   0  0  0  0  0  0  0  0  0  0  0  0
    6.5576  -13.1322   25.8787 C   0  0  0  0  0  0  0  0  0  0  0  0
    6.6074  -11.7989   26.2320 C   0  0  0  0  0  0  0  0  0  0  0  0
    7.7579  -11.3038   26.8170 C   0  0  0  0  0  0  0  0  0  0  0  0
    8.8280  -12.1557   27.0330 C   0  0  0  0  0  0  0  0  0  0  0  0
    8.7550  -13.4833   26.6719 C   0  0  0  0  0  0  0  0  0  0  0  0
    7.6147  -13.9817   26.0902 C   0  0  0  0  0  0  0  0  0  0  0  0
    9.9043  -17.7602   24.5969 C   0  0  0  0  0  0  0  0  0  0  0  0
    9.3383  -18.8381   24.3207 O   0  0  0  0  0  0  0  0  0  0  0  0
   11.2684  -17.7016   24.9268 N   0  0  0  0  0  0  0  0  0  0  0  0
   11.9605  -19.0456   25.0297 C   0  0  1  0  0  0  0  0  0  0  0  0
   13.3447  -18.8085   24.5279 C   0  0  0  0  0  0  0  0  0  0  0  0
   13.6407  -18.5861   23.1284 C   0  0  0  0  0  0  0  0  0  0  0  0
   15.0272  -18.3675   22.6372 C   0  0  0  0  0  0  0  0  0  0  0  0
   14.9719  -18.0912   21.1058 C   0  0  0  0  0  0  0  0  0  0  0  0
   14.3656  -19.2078   20.4181 N   0  0  0  0  0  0  0  0  0  0  0  0
   11.8675  -19.3085   26.4816 C   0  0  0  0  0  0  0  0  0  0  0  0
   12.1342  -20.4726   27.1002 O   0  0  0  0  0  0  0  0  0  0  0  0
   11.4924  -18.3469   27.2481 O   0  0  0  0  0  0  0  0  0  0  0  0
  1  2  1  0
  2  3  1  0
  4  3  1  0
  5  1  1  0
  5  4  1  0
  5  6  1  1
  7  6  2  0
  8  6  1  0
  9  8  1  0
  9 10  1  1
 10 11  1  0
 11 19  1  0
 12 11  2  0
 12 13  1  0
 13 14  1  0
 14 15  1  0
 15 16  2  0
 17 16  1  0
 18 17  2  0
 19 14  2  0
 19 18  1  0
 20  9  1  0
 21 20  2  0
 22 20  1  0
 23 22  1  0
 24 25  1  0
 23 24  1  1
 26 27  1  0
 26 25  1  0
 28 27  1  0
 29 23  1  0
 29 30  1  0
 31 29  2  0
M  END
$$$$
