PWK.pdb
     RDKit          3D

 31 33  0  0  1  0  0  0  0  0999 V2000
    7.0809  -15.3111   20.4597 N   0  0  0  0  0  0  0  0  0  0  0  0
    6.4653  -14.6766   19.2851 C   0  0  0  0  0  0  0  0  0  0  0  0
    6.9874  -13.2507   19.2926 C   0  0  0  0  0  0  0  0  0  0  0  0
    7.9974  -13.2111   20.4459 C   0  0  0  0  0  0  0  0  0  0  0  0
    8.3601  -14.6707   20.5774 C   0  0  1  0  0  0  0  0  0  0  0  0
    9.0173  -14.9923   21.8469 C   0  0  0  0  0  0  0  0  0  0  0  0
   10.1660  -14.5766   22.0746 O   0  0  0  0  0  0  0  0  0  0  0  0
    8.3380  -15.7748   22.8060 N   0  0  0  0  0  0  0  0  0  0  0  0
    8.9727  -16.1367   24.0371 C   0  0  1  0  0  0  0  0  0  0  0  0
    7.9679  -16.3047   25.1258 C   0  0  0  0  0  0  0  0  0  0  0  0
    7.1551  -15.0814   25.3340 C   0  0  0  0  0  0  0  0  0  0  0  0
    5.8374  -14.8890   24.9474 C   0  0  0  0  0  0  0  0  0  0  0  0
    5.4353  -13.6492   25.3099 N   0  0  0  0  0  0  0  0  0  0  0  0
    6.4587  -13.0322   25.9219 C   0  0  0  0  0  0  0  0  0  0  0  0
    6.5260  -11.7638   26.4619 C   0  0  0  0  0  0  0  0  0  0  0  0
    7.7069  -11.3474   27.0478 C   0  0  0  0  0  0  0  0  0  0  0  0
    8.7889  -12.2110   27.0779 C   0  0  0  0  0  0  0  0  0  0  0  0
    8.6979  -13.4728   26.5324 C   0  0  0  0  0  0  0  0  0  0  0  0
    7.5274  -13.8929   25.9487 C   0  0  0  0  0  0  0  0  0  0  0  0
    9.8627  -17.3228   23.9235 C   0  0  0  0  0  0  0  0  0  0  0  0
    9.4937  -18.2888   23.2241 O   0  0  0  0  0  0  0  0  0  0  0  0
   11.0915  -17.3258   24.6040 N   0  0  0  0  0  0  0  0  0  0  0  0
   11.9023  -18.5973   24.4556 C   0  0  1  0  0  0  0  0  0  0  0  0
   13.1707  -18.1736   23.7955 C   0  0  0  0  0  0  0  0  0  0  0  0
   14.2682  -19.0862   23.5541 C   0  0  0  0  0  0  0  0  0  0  0  0
   15.5106  -18.6634   22.8547 C   0  0  0  0  0  0  0  0  0  0  0  0
   16.5009  -19.8649   22.8353 C   0  0  0  0  0  0  0  0  0  0  0  0
   17.7534  -19.4704   22.2328 N   0  0  0  0  0  0  0  0  0  0  0  0
   12.0504  -19.0123   25.8669 C   0  0  0  0  0  0  0  0  0  0  0  0
   12.5226  -20.1926   26.3060 O   0  0  0  0  0  0  0  0  0  0  0  0
   11.6952  -18.1825   26.7824 O   0  0  0  0  0  0  0  0  0  0  0  0
  1  2  1  0
  2  3  1  0
  4  3  1  0
  5  1  1  0
  5  4  1  0
  5  6  1  1
  7  6  2  0
  8  6  1  0
  9  8  1  0
  9 10  1  1
 10 11  1  0
 11 19  1  0
 12 11  2  0
 12 13  1  0
 13 14  1  0
 14 15  1  0
 15 16  2  0
 17 16  1  0
 18 17  2  0
 19 14  2  0
 19 18  1  0
 20  9  1  0
 21 20  2  0
 22 20  1  0
 23 22  1  0
 24 25  1  0
 23 24  1  1
 26 27  1  0
 26 25  1  0
 28 27  1  0
 29 23  1  0
 29 30  1  0
 31 29  2  0
M  END
$$$$
