PWK.pdb
     RDKit          3D

 31 33  0  0  1  0  0  0  0  0999 V2000
    7.2521  -15.8305   20.8326 N   0  0  0  0  0  0  0  0  0  0  0  0
    6.6952  -15.2237   19.6148 C   0  0  0  0  0  0  0  0  0  0  0  0
    7.2048  -13.7933   19.6227 C   0  0  0  0  0  0  0  0  0  0  0  0
    8.1512  -13.7229   20.8275 C   0  0  0  0  0  0  0  0  0  0  0  0
    8.5179  -15.1765   21.0062 C   0  0  1  0  0  0  0  0  0  0  0  0
    9.1086  -15.4683   22.3150 C   0  0  0  0  0  0  0  0  0  0  0  0
   10.1775  -14.9293   22.6483 O   0  0  0  0  0  0  0  0  0  0  0  0
    8.4564  -16.3628   23.1914 N   0  0  0  0  0  0  0  0  0  0  0  0
    8.9567  -16.5864   24.5139 C   0  0  1  0  0  0  0  0  0  0  0  0
    7.8468  -16.5957   25.5094 C   0  0  0  0  0  0  0  0  0  0  0  0
    7.1706  -15.2792   25.6095 C   0  0  0  0  0  0  0  0  0  0  0  0
    5.8559  -14.9974   25.2705 C   0  0  0  0  0  0  0  0  0  0  0  0
    5.5991  -13.6892   25.5005 N   0  0  0  0  0  0  0  0  0  0  0  0
    6.7138  -13.1149   25.9803 C   0  0  0  0  0  0  0  0  0  0  0  0
    6.9373  -11.8065   26.3587 C   0  0  0  0  0  0  0  0  0  0  0  0
    8.1875  -11.4498   26.8286 C   0  0  0  0  0  0  0  0  0  0  0  0
    9.1807  -12.4113   26.9075 C   0  0  0  0  0  0  0  0  0  0  0  0
    8.9340  -13.7114   26.5240 C   0  0  0  0  0  0  0  0  0  0  0  0
    7.6940  -14.0727   26.0561 C   0  0  0  0  0  0  0  0  0  0  0  0
    9.8104  -17.7984   24.6321 C   0  0  0  0  0  0  0  0  0  0  0  0
    9.4236  -18.8620   24.1053 O   0  0  0  0  0  0  0  0  0  0  0  0
   11.0259  -17.7157   25.3313 N   0  0  0  0  0  0  0  0  0  0  0  0
   11.8188  -19.0055   25.3916 C   0  0  1  0  0  0  0  0  0  0  0  0
   13.2486  -18.5843   25.3468 C   0  0  0  0  0  0  0  0  0  0  0  0
   14.3437  -19.5278   25.4264 C   0  0  0  0  0  0  0  0  0  0  0  0
   15.7646  -19.0906   25.4627 C   0  0  0  0  0  0  0  0  0  0  0  0
   16.6689  -20.3546   25.5592 C   0  0  0  0  0  0  0  0  0  0  0  0
   18.0579  -19.9691   25.6556 N   0  0  0  0  0  0  0  0  0  0  0  0
   11.3783  -19.5553   26.6915 C   0  0  0  0  0  0  0  0  0  0  0  0
   10.8032  -18.8682   27.6945 O   0  0  0  0  0  0  0  0  0  0  0  0
   11.5561  -20.8097   26.9098 O   0  0  0  0  0  0  0  0  0  0  0  0
  1  2  1  0
  2  3  1  0
  4  3  1  0
  5  1  1  0
  5  4  1  0
  5  6  1  1
  7  6  2  0
  8  6  1  0
  9  8  1  0
  9 10  1  1
 10 11  1  0
 11 19  1  0
 12 11  2  0
 12 13  1  0
 13 14  1  0
 14 15  1  0
 15 16  2  0
 17 16  1  0
 18 17  2  0
 19 14  2  0
 19 18  1  0
 20  9  1  0
 21 20  2  0
 22 20  1  0
 23 22  1  0
 24 25  1  0
 23 24  1  1
 26 27  1  0
 26 25  1  0
 28 27  1  0
 29 23  1  0
 29 30  1  0
 31 29  2  0
M  END
$$$$
