PWK.pdb
     RDKit          3D

 31 33  0  0  1  0  0  0  0  0999 V2000
    7.0792  -15.2261   20.4158 N   0  0  0  0  0  0  0  0  0  0  0  0
    6.5128  -14.4932   19.2741 C   0  0  0  0  0  0  0  0  0  0  0  0
    7.1312  -13.1086   19.3529 C   0  0  0  0  0  0  0  0  0  0  0  0
    8.1373  -13.1957   20.5071 C   0  0  0  0  0  0  0  0  0  0  0  0
    8.3987  -14.6815   20.5657 C   0  0  1  0  0  0  0  0  0  0  0  0
    9.0277  -15.1101   21.8178 C   0  0  0  0  0  0  0  0  0  0  0  0
   10.1730  -14.7213   22.1027 O   0  0  0  0  0  0  0  0  0  0  0  0
    8.3249  -15.9648   22.6950 N   0  0  0  0  0  0  0  0  0  0  0  0
    8.8807  -16.3286   23.9631 C   0  0  1  0  0  0  0  0  0  0  0  0
    7.8267  -16.3633   25.0171 C   0  0  0  0  0  0  0  0  0  0  0  0
    7.2033  -15.0345   25.2323 C   0  0  0  0  0  0  0  0  0  0  0  0
    5.9199  -14.6552   24.8694 C   0  0  0  0  0  0  0  0  0  0  0  0
    5.7082  -13.3688   25.2311 N   0  0  0  0  0  0  0  0  0  0  0  0
    6.8219  -12.9038   25.8194 C   0  0  0  0  0  0  0  0  0  0  0  0
    7.0824  -11.6563   26.3494 C   0  0  0  0  0  0  0  0  0  0  0  0
    8.3223  -11.4127   26.9099 C   0  0  0  0  0  0  0  0  0  0  0  0
    9.2686  -12.4235   26.9254 C   0  0  0  0  0  0  0  0  0  0  0  0
    8.9856  -13.6610   26.3903 C   0  0  0  0  0  0  0  0  0  0  0  0
    7.7554  -13.9099   25.8318 C   0  0  0  0  0  0  0  0  0  0  0  0
    9.6662  -17.5910   23.9304 C   0  0  0  0  0  0  0  0  0  0  0  0
    9.1378  -18.6178   23.4563 O   0  0  0  0  0  0  0  0  0  0  0  0
   10.9781  -17.5957   24.4325 N   0  0  0  0  0  0  0  0  0  0  0  0
   11.6786  -18.9383   24.3807 C   0  0  1  0  0  0  0  0  0  0  0  0
   13.0360  -18.6468   23.8361 C   0  0  0  0  0  0  0  0  0  0  0  0
   14.1012  -19.6270   23.8278 C   0  0  0  0  0  0  0  0  0  0  0  0
   15.4439  -19.3327   23.2604 C   0  0  0  0  0  0  0  0  0  0  0  0
   16.3078  -20.6259   23.3369 C   0  0  0  0  0  0  0  0  0  0  0  0
   17.6429  -20.3645   22.8501 N   0  0  0  0  0  0  0  0  0  0  0  0
   11.6572  -19.3309   25.8059 C   0  0  0  0  0  0  0  0  0  0  0  0
   11.3825  -18.5291   26.8502 O   0  0  0  0  0  0  0  0  0  0  0  0
   11.9292  -20.5522   26.1015 O   0  0  0  0  0  0  0  0  0  0  0  0
  1  2  1  0
  2  3  1  0
  4  3  1  0
  5  1  1  0
  5  4  1  0
  5  6  1  1
  7  6  2  0
  8  6  1  0
  9  8  1  0
  9 10  1  1
 10 11  1  0
 11 19  1  0
 12 11  2  0
 12 13  1  0
 13 14  1  0
 14 15  1  0
 15 16  2  0
 17 16  1  0
 18 17  2  0
 19 14  2  0
 19 18  1  0
 20  9  1  0
 21 20  2  0
 22 20  1  0
 23 22  1  0
 24 25  1  0
 23 24  1  1
 26 27  1  0
 26 25  1  0
 28 27  1  0
 29 23  1  0
 29 30  1  0
 31 29  2  0
M  END
$$$$
