YGL.pdb
     RDKit          3D

 25 25  0  0  1  0  0  0  0  0999 V2000
    7.5919  -13.3317   15.4767 O   0  0  0  0  0  0  0  0  0  0  0  0
    7.5524  -13.6722   16.8189 C   0  0  0  0  0  0  0  0  0  0  0  0
    6.9983  -12.8024   17.7394 C   0  0  0  0  0  0  0  0  0  0  0  0
    6.9668  -13.1551   19.0670 C   0  0  0  0  0  0  0  0  0  0  0  0
    7.4714  -14.3554   19.5234 C   0  0  0  0  0  0  0  0  0  0  0  0
    7.4328  -14.7278   20.9611 C   0  0  0  0  0  0  0  0  0  0  0  0
    7.7960  -16.1847   21.1094 C   0  0  2  0  0  0  0  0  0  0  0  0
    6.5876  -16.9620   20.9090 N   0  0  0  0  0  0  0  0  0  0  0  0
    8.3054  -16.4924   22.4688 C   0  0  0  0  0  0  0  0  0  0  0  0
    7.5027  -16.5214   23.4273 O   0  0  0  0  0  0  0  0  0  0  0  0
    8.0202  -15.2102   18.5912 C   0  0  0  0  0  0  0  0  0  0  0  0
    8.0523  -14.8627   17.2757 C   0  0  0  0  0  0  0  0  0  0  0  0
    9.6752  -16.7631   22.7638 N   0  0  0  0  0  0  0  0  0  0  0  0
   10.6140  -15.7632   23.1633 C   0  0  0  0  0  0  0  0  0  0  0  0
   10.5173  -15.4747   24.6419 C   0  0  0  0  0  0  0  0  0  0  0  0
   11.5436  -15.1015   25.2679 O   0  0  0  0  0  0  0  0  0  0  0  0
    6.8041  -12.2793   26.4821 C   0  0  0  0  0  0  0  0  0  0  0  0
    8.0445  -13.0827   26.3641 C   0  0  1  0  0  0  0  0  0  0  0  0
    9.2262  -12.1737   26.7215 C   0  0  0  0  0  0  0  0  0  0  0  0
    8.1248  -14.3922   27.0107 C   0  0  0  0  0  0  0  0  0  0  0  0
    9.2470  -15.3184   26.7861 C   0  0  2  0  0  0  0  0  0  0  0  0
    9.2962  -15.6153   25.3381 N   0  0  0  0  0  0  0  0  0  0  0  0
    9.3133  -16.5553   27.5530 C   0  0  0  0  0  0  0  0  0  0  0  0
    9.6002  -16.4518   28.9358 O   0  0  0  0  0  0  0  0  0  0  0  0
    9.1497  -17.7224   27.1572 O   0  0  0  0  0  0  0  0  0  0  0  0
  2  3  2  0
  2  1  1  0
  4  3  1  0
  5  4  2  0
  6  7  1  0
  6  5  1  0
  7  8  1  1
  9 10  2  0
  9  7  1  0
 11  5  1  0
 11 12  2  0
 12  2  1  0
 13  9  1  0
 14 13  1  0
 15 22  1  0
 15 14  1  0
 16 15  2  0
 18 19  1  1
 18 17  1  0
 20 18  1  0
 21 20  1  6
 21 22  1  0
 23 21  1  0
 24 23  1  0
 25 23  2  0
M  END
$$$$
