YGL.pdb
     RDKit          3D

 25 25  0  0  1  0  0  0  0  0999 V2000
    9.9590  -20.4338   30.9264 O   0  0  0  0  0  0  0  0  0  0  0  0
    9.5697  -19.9929   29.6722 C   0  0  0  0  0  0  0  0  0  0  0  0
    8.3490  -19.3662   29.5049 C   0  0  0  0  0  0  0  0  0  0  0  0
    7.9778  -18.9348   28.2543 C   0  0  0  0  0  0  0  0  0  0  0  0
    8.7829  -19.1037   27.1467 C   0  0  0  0  0  0  0  0  0  0  0  0
    8.3727  -18.6337   25.7984 C   0  0  0  0  0  0  0  0  0  0  0  0
    7.2823  -19.5313   25.2672 C   0  0  2  0  0  0  0  0  0  0  0  0
    7.8356  -20.8661   25.1373 N   0  0  0  0  0  0  0  0  0  0  0  0
    6.8213  -19.1055   23.9225 C   0  0  0  0  0  0  0  0  0  0  0  0
    7.2653  -19.6941   22.9123 O   0  0  0  0  0  0  0  0  0  0  0  0
    9.9967  -19.7308   27.3325 C   0  0  0  0  0  0  0  0  0  0  0  0
   10.3663  -20.1588   28.5704 C   0  0  0  0  0  0  0  0  0  0  0  0
    5.8875  -18.0499   23.6978 N   0  0  0  0  0  0  0  0  0  0  0  0
    5.9800  -17.1256   22.6125 C   0  0  0  0  0  0  0  0  0  0  0  0
    6.8614  -15.9509   22.9618 C   0  0  0  0  0  0  0  0  0  0  0  0
    7.0944  -15.0718   22.0915 O   0  0  0  0  0  0  0  0  0  0  0  0
    6.3201  -12.6330   27.0108 C   0  0  0  0  0  0  0  0  0  0  0  0
    6.8202  -13.1632   25.7198 C   0  0  1  0  0  0  0  0  0  0  0  0
    6.9222  -11.9885   24.7399 C   0  0  0  0  0  0  0  0  0  0  0  0
    8.0053  -14.0201   25.6979 C   0  0  0  0  0  0  0  0  0  0  0  0
    8.4288  -14.7547   24.4943 C   0  0  2  0  0  0  0  0  0  0  0  0
    7.4310  -15.8181   24.2477 N   0  0  0  0  0  0  0  0  0  0  0  0
    9.7750  -15.3084   24.4353 C   0  0  0  0  0  0  0  0  0  0  0  0
    9.8983  -16.7131   24.3065 O   0  0  0  0  0  0  0  0  0  0  0  0
   10.8627  -14.7083   24.4832 O   0  0  0  0  0  0  0  0  0  0  0  0
  2  3  2  0
  2  1  1  0
  4  3  1  0
  5  4  2  0
  6  7  1  0
  6  5  1  0
  7  8  1  6
  9 10  2  0
  9  7  1  0
 11  5  1  0
 11 12  2  0
 12  2  1  0
 13  9  1  0
 14 13  1  0
 15 22  1  0
 15 14  1  0
 16 15  2  0
 18 19  1  6
 18 17  1  0
 20 18  1  0
 21 20  1  1
 21 22  1  0
 23 21  1  0
 24 23  1  0
 25 23  2  0
M  END
$$$$
