YGL.pdb
     RDKit          3D

 25 25  0  0  1  0  0  0  0  0999 V2000
    6.8259  -11.3766   26.3476 O   0  0  0  0  0  0  0  0  0  0  0  0
    6.6919  -12.5326   25.5961 C   0  0  0  0  0  0  0  0  0  0  0  0
    5.8892  -13.5639   26.0464 C   0  0  0  0  0  0  0  0  0  0  0  0
    5.7670  -14.7039   25.2890 C   0  0  0  0  0  0  0  0  0  0  0  0
    6.4202  -14.8624   24.0842 C   0  0  0  0  0  0  0  0  0  0  0  0
    6.2817  -16.0989   23.2724 C   0  0  0  0  0  0  0  0  0  0  0  0
    7.0453  -17.2191   23.9348 C   0  0  2  0  0  0  0  0  0  0  0  0
    6.8441  -17.1022   25.3667 N   0  0  0  0  0  0  0  0  0  0  0  0
    8.5037  -17.1219   23.6787 C   0  0  0  0  0  0  0  0  0  0  0  0
    9.1198  -18.1332   23.2767 O   0  0  0  0  0  0  0  0  0  0  0  0
    7.2165  -13.8236   23.6510 C   0  0  0  0  0  0  0  0  0  0  0  0
    7.3389  -12.6936   24.3996 C   0  0  0  0  0  0  0  0  0  0  0  0
    9.2671  -15.9302   23.8630 N   0  0  0  0  0  0  0  0  0  0  0  0
   10.6714  -15.8408   23.6169 C   0  0  0  0  0  0  0  0  0  0  0  0
   11.4714  -16.2704   24.8227 C   0  0  0  0  0  0  0  0  0  0  0  0
   12.7224  -16.3748   24.7301 O   0  0  0  0  0  0  0  0  0  0  0  0
    9.3185  -14.2626   29.0892 C   0  0  0  0  0  0  0  0  0  0  0  0
   10.2475  -14.7581   28.0456 C   0  0  1  0  0  0  0  0  0  0  0  0
   11.0239  -13.5536   27.5006 C   0  0  0  0  0  0  0  0  0  0  0  0
   11.1109  -15.9044   28.3280 C   0  0  0  0  0  0  0  0  0  0  0  0
   11.6716  -16.7542   27.2645 C   0  0  2  0  0  0  0  0  0  0  0  0
   10.8434  -16.5582   26.0550 N   0  0  0  0  0  0  0  0  0  0  0  0
   11.8614  -18.1765   27.5157 C   0  0  0  0  0  0  0  0  0  0  0  0
   11.2274  -19.0857   26.6346 O   0  0  0  0  0  0  0  0  0  0  0  0
   12.5187  -18.7232   28.4183 O   0  0  0  0  0  0  0  0  0  0  0  0
  2  3  2  0
  2  1  1  0
  4  3  1  0
  5  4  2  0
  6  7  1  0
  6  5  1  0
  7  8  1  1
  9 10  2  0
  9  7  1  0
 11  5  1  0
 11 12  2  0
 12  2  1  0
 13  9  1  0
 14 13  1  0
 15 22  1  0
 15 14  1  0
 16 15  2  0
 18 19  1  1
 18 17  1  0
 20 18  1  0
 21 20  1  1
 21 22  1  0
 23 21  1  0
 24 23  1  0
 25 23  2  0
M  END
$$$$
