YGL.pdb
     RDKit          3D

 25 25  0  0  1  0  0  0  0  0999 V2000
    8.1018  -12.6543   16.2150 O   0  0  0  0  0  0  0  0  0  0  0  0
    7.8268  -13.1503   17.4789 C   0  0  0  0  0  0  0  0  0  0  0  0
    8.1935  -12.4316   18.6013 C   0  0  0  0  0  0  0  0  0  0  0  0
    7.9133  -12.9376   19.8478 C   0  0  0  0  0  0  0  0  0  0  0  0
    7.2740  -14.1471   20.0262 C   0  0  0  0  0  0  0  0  0  0  0  0
    6.9754  -14.6858   21.3781 C   0  0  0  0  0  0  0  0  0  0  0  0
    8.2482  -15.2033   22.0016 C   0  0  2  0  0  0  0  0  0  0  0  0
    8.7959  -16.2102   21.1123 N   0  0  0  0  0  0  0  0  0  0  0  0
    7.9982  -15.8526   23.3123 C   0  0  0  0  0  0  0  0  0  0  0  0
    7.5118  -15.1752   24.2442 O   0  0  0  0  0  0  0  0  0  0  0  0
    6.9157  -14.8499   18.8954 C   0  0  0  0  0  0  0  0  0  0  0  0
    7.1922  -14.3505   17.6599 C   0  0  0  0  0  0  0  0  0  0  0  0
    8.2800  -17.2242   23.5885 N   0  0  0  0  0  0  0  0  0  0  0  0
    8.1791  -17.8096   24.8876 C   0  0  0  0  0  0  0  0  0  0  0  0
    9.3657  -17.4500   25.7486 C   0  0  0  0  0  0  0  0  0  0  0  0
   10.4980  -17.3133   25.2158 O   0  0  0  0  0  0  0  0  0  0  0  0
    9.2282  -13.3960   28.8684 C   0  0  0  0  0  0  0  0  0  0  0  0
    9.7665  -14.5103   28.0521 C   0  0  1  0  0  0  0  0  0  0  0  0
   10.8397  -13.9325   27.1220 C   0  0  0  0  0  0  0  0  0  0  0  0
   10.1931  -15.7475   28.7051 C   0  0  0  0  0  0  0  0  0  0  0  0
   10.4340  -16.9939   27.9592 C   0  0  2  0  0  0  0  0  0  0  0  0
    9.2309  -17.2634   27.1424 N   0  0  0  0  0  0  0  0  0  0  0  0
   10.8242  -18.1943   28.6864 C   0  0  0  0  0  0  0  0  0  0  0  0
   12.1446  -18.2495   29.1950 O   0  0  0  0  0  0  0  0  0  0  0  0
   10.1459  -19.2068   28.9319 O   0  0  0  0  0  0  0  0  0  0  0  0
  2  3  2  0
  2  1  1  0
  4  3  1  0
  5  4  2  0
  6  7  1  0
  6  5  1  0
  7  8  1  6
  9 10  2  0
  9  7  1  0
 11  5  1  0
 11 12  2  0
 12  2  1  0
 13  9  1  0
 14 13  1  0
 15 22  1  0
 15 14  1  0
 16 15  2  0
 18 19  1  1
 18 17  1  0
 20 18  1  0
 21 20  1  1
 21 22  1  0
 23 21  1  0
 24 23  1  0
 25 23  2  0
M  END
$$$$
