YGL.pdb
     RDKit          3D

 25 25  0  0  1  0  0  0  0  0999 V2000
   11.3726  -14.5439   30.4216 O   0  0  0  0  0  0  0  0  0  0  0  0
   10.4855  -14.7382   29.3755 C   0  0  0  0  0  0  0  0  0  0  0  0
    9.6928  -15.8700   29.3390 C   0  0  0  0  0  0  0  0  0  0  0  0
    8.8180  -16.0477   28.2944 C   0  0  0  0  0  0  0  0  0  0  0  0
    8.6976  -15.1321   27.2694 C   0  0  0  0  0  0  0  0  0  0  0  0
    7.7487  -15.3332   26.1441 C   0  0  0  0  0  0  0  0  0  0  0  0
    7.3836  -16.7944   26.0539 C   0  0  2  0  0  0  0  0  0  0  0  0
    8.6174  -17.5505   25.9499 N   0  0  0  0  0  0  0  0  0  0  0  0
    6.5752  -17.0892   24.8449 C   0  0  0  0  0  0  0  0  0  0  0  0
    5.5608  -16.3975   24.6075 O   0  0  0  0  0  0  0  0  0  0  0  0
    9.4961  -14.0094   27.3224 C   0  0  0  0  0  0  0  0  0  0  0  0
   10.3632  -13.8315   28.3562 C   0  0  0  0  0  0  0  0  0  0  0  0
    6.8816  -18.1282   23.9157 N   0  0  0  0  0  0  0  0  0  0  0  0
    6.1278  -18.3795   22.7285 C   0  0  0  0  0  0  0  0  0  0  0  0
    6.5783  -17.4950   21.5913 C   0  0  0  0  0  0  0  0  0  0  0  0
    6.0664  -17.6443   20.4510 O   0  0  0  0  0  0  0  0  0  0  0  0
    7.0987  -12.1543   19.5435 C   0  0  0  0  0  0  0  0  0  0  0  0
    7.8137  -13.4529   19.5581 C   0  0  1  0  0  0  0  0  0  0  0  0
    9.3167  -13.1601   19.4803 C   0  0  0  0  0  0  0  0  0  0  0  0
    7.4857  -14.4501   20.5765 C   0  0  0  0  0  0  0  0  0  0  0  0
    8.1084  -15.7839   20.6080 C   0  0  2  0  0  0  0  0  0  0  0  0
    7.5645  -16.5016   21.7812 N   0  0  0  0  0  0  0  0  0  0  0  0
    9.5610  -15.8919   20.5847 C   0  0  0  0  0  0  0  0  0  0  0  0
   10.1805  -16.0980   19.3281 O   0  0  0  0  0  0  0  0  0  0  0  0
   10.3584  -15.8274   21.5362 O   0  0  0  0  0  0  0  0  0  0  0  0
  2  3  2  0
  2  1  1  0
  4  3  1  0
  5  4  2  0
  6  7  1  0
  6  5  1  0
  7  8  1  6
  9 10  2  0
  9  7  1  0
 11  5  1  0
 11 12  2  0
 12  2  1  0
 13  9  1  0
 14 13  1  0
 15 22  1  0
 15 14  1  0
 16 15  2  0
 18 19  1  1
 18 17  1  0
 20 18  1  0
 21 20  1  1
 21 22  1  0
 23 21  1  0
 24 23  1  0
 25 23  2  0
M  END
$$$$
