YGL.pdb
     RDKit          3D

 25 25  0  0  1  0  0  0  0  0999 V2000
    8.0024  -12.7479   15.4345 O   0  0  0  0  0  0  0  0  0  0  0  0
    7.7286  -13.4024   16.6244 C   0  0  0  0  0  0  0  0  0  0  0  0
    7.0810  -14.6235   16.6116 C   0  0  0  0  0  0  0  0  0  0  0  0
    6.8168  -15.2597   17.8006 C   0  0  0  0  0  0  0  0  0  0  0  0
    7.1758  -14.7230   19.0198 C   0  0  0  0  0  0  0  0  0  0  0  0
    6.8858  -15.4186   20.3001 C   0  0  0  0  0  0  0  0  0  0  0  0
    7.9098  -16.5044   20.5215 C   0  0  2  0  0  0  0  0  0  0  0  0
    7.7087  -17.5138   19.4992 N   0  0  0  0  0  0  0  0  0  0  0  0
    7.7411  -17.1637   21.8402 C   0  0  0  0  0  0  0  0  0  0  0  0
    7.1808  -18.2804   21.8951 O   0  0  0  0  0  0  0  0  0  0  0  0
    7.8209  -13.5045   19.0132 C   0  0  0  0  0  0  0  0  0  0  0  0
    8.0834  -12.8727   17.8366 C   0  0  0  0  0  0  0  0  0  0  0  0
    8.1828  -16.6003   23.0748 N   0  0  0  0  0  0  0  0  0  0  0  0
    9.5497  -16.3100   23.3712 C   0  0  0  0  0  0  0  0  0  0  0  0
    9.6946  -15.6602   24.7260 C   0  0  0  0  0  0  0  0  0  0  0  0
   10.8420  -15.3635   25.1504 O   0  0  0  0  0  0  0  0  0  0  0  0
    6.0893  -12.0037   26.2943 C   0  0  0  0  0  0  0  0  0  0  0  0
    7.3154  -12.8148   26.1030 C   0  0  1  0  0  0  0  0  0  0  0  0
    8.4670  -11.8538   25.7854 C   0  0  0  0  0  0  0  0  0  0  0  0
    7.6806  -13.8230   27.0977 C   0  0  0  0  0  0  0  0  0  0  0  0
    8.7599  -14.7994   26.8757 C   0  0  2  0  0  0  0  0  0  0  0  0
    8.5668  -15.3779   25.5284 N   0  0  0  0  0  0  0  0  0  0  0  0
    8.9706  -15.8613   27.8506 C   0  0  0  0  0  0  0  0  0  0  0  0
    9.6762  -15.5315   29.0332 O   0  0  0  0  0  0  0  0  0  0  0  0
    8.6101  -17.0496   27.7924 O   0  0  0  0  0  0  0  0  0  0  0  0
  2  3  2  0
  2  1  1  0
  4  3  1  0
  5  4  2  0
  6  7  1  0
  6  5  1  0
  7  8  1  6
  9 10  2  0
  9  7  1  0
 11  5  1  0
 11 12  2  0
 12  2  1  0
 13  9  1  0
 14 13  1  0
 15 22  1  0
 15 14  1  0
 16 15  2  0
 18 19  1  1
 18 17  1  0
 20 18  1  0
 21 20  1  1
 21 22  1  0
 23 21  1  0
 24 23  1  0
 25 23  2  0
M  END
$$$$
