YGL.pdb
     RDKit          3D

 25 25  0  0  1  0  0  0  0  0999 V2000
    7.6893  -13.6053   15.0203 O   0  0  0  0  0  0  0  0  0  0  0  0
    7.9013  -13.8628   16.3649 C   0  0  0  0  0  0  0  0  0  0  0  0
    7.3414  -13.0414   17.3254 C   0  0  0  0  0  0  0  0  0  0  0  0
    7.5613  -13.3105   18.6548 C   0  0  0  0  0  0  0  0  0  0  0  0
    8.3267  -14.3790   19.0741 C   0  0  0  0  0  0  0  0  0  0  0  0
    8.5587  -14.6618   20.5140 C   0  0  0  0  0  0  0  0  0  0  0  0
    8.5119  -16.1523   20.7440 C   0  0  2  0  0  0  0  0  0  0  0  0
    7.1535  -16.5941   20.4904 N   0  0  0  0  0  0  0  0  0  0  0  0
    8.8428  -16.5065   22.1465 C   0  0  0  0  0  0  0  0  0  0  0  0
    9.9843  -16.2473   22.5866 O   0  0  0  0  0  0  0  0  0  0  0  0
    8.8771  -15.1873   18.1022 C   0  0  0  0  0  0  0  0  0  0  0  0
    8.6605  -14.9225   16.7849 C   0  0  0  0  0  0  0  0  0  0  0  0
    7.9302  -17.1350   23.0459 N   0  0  0  0  0  0  0  0  0  0  0  0
    8.2518  -17.4729   24.3961 C   0  0  0  0  0  0  0  0  0  0  0  0
    8.8791  -16.3076   25.1222 C   0  0  0  0  0  0  0  0  0  0  0  0
   10.0929  -16.0375   24.9264 O   0  0  0  0  0  0  0  0  0  0  0  0
    6.9994  -12.9123   24.8862 C   0  0  0  0  0  0  0  0  0  0  0  0
    7.5779  -12.4654   26.1760 C   0  0  1  0  0  0  0  0  0  0  0  0
    6.6897  -11.3414   26.7223 C   0  0  0  0  0  0  0  0  0  0  0  0
    7.9271  -13.4540   27.1957 C   0  0  0  0  0  0  0  0  0  0  0  0
    8.8343  -14.5820   26.9268 C   0  0  2  0  0  0  0  0  0  0  0  0
    8.1302  -15.5128   26.0183 N   0  0  0  0  0  0  0  0  0  0  0  0
    9.4097  -15.3151   28.0464 C   0  0  0  0  0  0  0  0  0  0  0  0
    8.9228  -16.6222   28.2906 O   0  0  0  0  0  0  0  0  0  0  0  0
   10.2920  -14.9483   28.8417 O   0  0  0  0  0  0  0  0  0  0  0  0
  2  3  2  0
  2  1  1  0
  4  3  1  0
  5  4  2  0
  6  7  1  0
  6  5  1  0
  7  8  1  1
  9 10  2  0
  9  7  1  0
 11  5  1  0
 11 12  2  0
 12  2  1  0
 13  9  1  0
 14 13  1  0
 15 22  1  0
 15 14  1  0
 16 15  2  0
 18 19  1  1
 18 17  1  0
 20 18  1  0
 21 20  1  1
 21 22  1  0
 23 21  1  0
 24 23  1  0
 25 23  2  0
M  END
$$$$
