YGL.pdb
     RDKit          3D

 25 25  0  0  1  0  0  0  0  0999 V2000
    6.7186  -12.9278   27.3462 O   0  0  0  0  0  0  0  0  0  0  0  0
    6.8580  -13.4296   26.0626 C   0  0  0  0  0  0  0  0  0  0  0  0
    6.5687  -14.7557   25.8007 C   0  0  0  0  0  0  0  0  0  0  0  0
    6.7121  -15.2378   24.5220 C   0  0  0  0  0  0  0  0  0  0  0  0
    7.1378  -14.4432   23.4776 C   0  0  0  0  0  0  0  0  0  0  0  0
    7.2898  -14.9738   22.0983 C   0  0  0  0  0  0  0  0  0  0  0  0
    8.0242  -16.2909   22.1481 C   0  0  2  0  0  0  0  0  0  0  0  0
    7.4734  -17.0604   23.2477 N   0  0  0  0  0  0  0  0  0  0  0  0
    9.4728  -16.1072   22.4123 C   0  0  0  0  0  0  0  0  0  0  0  0
   10.0896  -15.1973   21.8161 O   0  0  0  0  0  0  0  0  0  0  0  0
    7.4218  -13.1233   23.7575 C   0  0  0  0  0  0  0  0  0  0  0  0
    7.2804  -12.6438   25.0233 C   0  0  0  0  0  0  0  0  0  0  0  0
   10.2258  -16.9131   23.3180 N   0  0  0  0  0  0  0  0  0  0  0  0
   11.5809  -16.6444   23.6817 C   0  0  0  0  0  0  0  0  0  0  0  0
   11.7161  -16.4004   25.1652 C   0  0  0  0  0  0  0  0  0  0  0  0
   12.8612  -16.2484   25.6654 O   0  0  0  0  0  0  0  0  0  0  0  0
   10.5544  -13.4079   26.9716 C   0  0  0  0  0  0  0  0  0  0  0  0
    9.9817  -14.1060   28.1475 C   0  0  1  0  0  0  0  0  0  0  0  0
    8.7145  -13.3519   28.5674 C   0  0  0  0  0  0  0  0  0  0  0  0
    9.7882  -15.5551   28.1075 C   0  0  0  0  0  0  0  0  0  0  0  0
   10.7530  -16.4652   27.4683 C   0  0  2  0  0  0  0  0  0  0  0  0
   10.5817  -16.3391   26.0047 N   0  0  0  0  0  0  0  0  0  0  0  0
   10.7669  -17.8707   27.8511 C   0  0  0  0  0  0  0  0  0  0  0  0
   11.2795  -18.1940   29.1309 O   0  0  0  0  0  0  0  0  0  0  0  0
   10.3827  -18.8560   27.1975 O   0  0  0  0  0  0  0  0  0  0  0  0
  2  3  2  0
  2  1  1  0
  4  3  1  0
  5  4  2  0
  6  7  1  0
  6  5  1  0
  7  8  1  1
  9 10  2  0
  9  7  1  0
 11  5  1  0
 11 12  2  0
 12  2  1  0
 13  9  1  0
 14 13  1  0
 15 22  1  0
 15 14  1  0
 16 15  2  0
 18 19  1  6
 18 17  1  0
 20 18  1  0
 21 20  1  1
 21 22  1  0
 23 21  1  0
 24 23  1  0
 25 23  2  0
M  END
$$$$
