YGL.pdb
     RDKit          3D

 25 25  0  0  1  0  0  0  0  0999 V2000
    6.3679  -13.1057   15.7199 O   0  0  0  0  0  0  0  0  0  0  0  0
    7.0108  -13.3706   16.9180 C   0  0  0  0  0  0  0  0  0  0  0  0
    8.3898  -13.3112   16.9935 C   0  0  0  0  0  0  0  0  0  0  0  0
    9.0122  -13.5767   18.1894 C   0  0  0  0  0  0  0  0  0  0  0  0
    8.3087  -13.9038   19.3303 C   0  0  0  0  0  0  0  0  0  0  0  0
    8.9908  -14.1892   20.6188 C   0  0  0  0  0  0  0  0  0  0  0  0
    9.6871  -15.5248   20.5300 C   0  0  2  0  0  0  0  0  0  0  0  0
    8.6678  -16.5412   20.3496 N   0  0  0  0  0  0  0  0  0  0  0  0
   10.4252  -15.8480   21.7761 C   0  0  0  0  0  0  0  0  0  0  0  0
   11.3590  -15.1008   22.1416 O   0  0  0  0  0  0  0  0  0  0  0  0
    6.9343  -13.9583   19.2362 C   0  0  0  0  0  0  0  0  0  0  0  0
    6.3158  -13.6956   18.0526 C   0  0  0  0  0  0  0  0  0  0  0  0
   10.1374  -16.9751   22.6029 N   0  0  0  0  0  0  0  0  0  0  0  0
   10.8902  -17.3187   23.7673 C   0  0  0  0  0  0  0  0  0  0  0  0
   10.3228  -16.6648   25.0040 C   0  0  0  0  0  0  0  0  0  0  0  0
   10.8563  -16.8880   26.1220 O   0  0  0  0  0  0  0  0  0  0  0  0
    7.6339  -12.6045   27.7712 C   0  0  0  0  0  0  0  0  0  0  0  0
    6.9079  -13.4424   26.7869 C   0  0  1  0  0  0  0  0  0  0  0  0
    5.8139  -12.5761   26.1520 C   0  0  0  0  0  0  0  0  0  0  0  0
    7.6592  -14.2157   25.7986 C   0  0  0  0  0  0  0  0  0  0  0  0
    8.6238  -15.2612   26.1783 C   0  0  2  0  0  0  0  0  0  0  0  0
    9.2034  -15.8062   24.9316 N   0  0  0  0  0  0  0  0  0  0  0  0
    8.1903  -16.3484   27.0456 C   0  0  0  0  0  0  0  0  0  0  0  0
    7.2630  -17.2775   26.5143 O   0  0  0  0  0  0  0  0  0  0  0  0
    8.5265  -16.5853   28.2188 O   0  0  0  0  0  0  0  0  0  0  0  0
  2  3  2  0
  2  1  1  0
  4  3  1  0
  5  4  2  0
  6  7  1  0
  6  5  1  0
  7  8  1  1
  9 10  2  0
  9  7  1  0
 11  5  1  0
 11 12  2  0
 12  2  1  0
 13  9  1  0
 14 13  1  0
 15 22  1  0
 15 14  1  0
 16 15  2  0
 18 19  1  6
 18 17  1  0
 20 18  1  0
 21 20  1  6
 21 22  1  0
 23 21  1  0
 24 23  1  0
 25 23  2  0
M  END
$$$$
