YGL.pdb
     RDKit          3D

 25 25  0  0  1  0  0  0  0  0999 V2000
   12.0762  -16.1987   31.9562 O   0  0  0  0  0  0  0  0  0  0  0  0
   11.8397  -16.3398   30.5985 C   0  0  0  0  0  0  0  0  0  0  0  0
   11.3224  -15.2845   29.8709 C   0  0  0  0  0  0  0  0  0  0  0  0
   11.0936  -15.4407   28.5251 C   0  0  0  0  0  0  0  0  0  0  0  0
   11.3623  -16.6212   27.8635 C   0  0  0  0  0  0  0  0  0  0  0  0
   11.1115  -16.7804   26.4079 C   0  0  0  0  0  0  0  0  0  0  0  0
   10.9318  -18.2443   26.0894 C   0  0  2  0  0  0  0  0  0  0  0  0
   11.9382  -18.6081   25.1099 N   0  0  0  0  0  0  0  0  0  0  0  0
    9.6031  -18.5210   25.4893 C   0  0  0  0  0  0  0  0  0  0  0  0
    9.2384  -19.7078   25.3391 O   0  0  0  0  0  0  0  0  0  0  0  0
   11.8778  -17.6629   28.6052 C   0  0  0  0  0  0  0  0  0  0  0  0
   12.1052  -17.5102   29.9384 C   0  0  0  0  0  0  0  0  0  0  0  0
    8.6945  -17.5063   25.0633 N   0  0  0  0  0  0  0  0  0  0  0  0
    7.3747  -17.7719   24.5855 C   0  0  0  0  0  0  0  0  0  0  0  0
    6.6160  -16.4939   24.3211 C   0  0  0  0  0  0  0  0  0  0  0  0
    5.4912  -16.5472   23.7586 O   0  0  0  0  0  0  0  0  0  0  0  0
    7.3415  -11.5747   26.6915 C   0  0  0  0  0  0  0  0  0  0  0  0
    6.8260  -12.6978   25.8725 C   0  0  1  0  0  0  0  0  0  0  0  0
    5.2963  -12.6877   25.9751 C   0  0  0  0  0  0  0  0  0  0  0  0
    7.2977  -12.8700   24.4988 C   0  0  0  0  0  0  0  0  0  0  0  0
    7.0800  -14.1108   23.7367 C   0  0  2  0  0  0  0  0  0  0  0  0
    7.1439  -15.2374   24.6928 N   0  0  0  0  0  0  0  0  0  0  0  0
    7.9170  -14.3902   22.5776 C   0  0  0  0  0  0  0  0  0  0  0  0
    7.7719  -13.5476   21.4489 O   0  0  0  0  0  0  0  0  0  0  0  0
    8.7648  -15.2878   22.4320 O   0  0  0  0  0  0  0  0  0  0  0  0
  2  3  2  0
  2  1  1  0
  4  3  1  0
  5  4  2  0
  6  7  1  0
  6  5  1  0
  7  8  1  6
  9 10  2  0
  9  7  1  0
 11  5  1  0
 11 12  2  0
 12  2  1  0
 13  9  1  0
 14 13  1  0
 15 22  1  0
 15 14  1  0
 16 15  2  0
 18 19  1  6
 18 17  1  0
 20 18  1  0
 21 20  1  1
 21 22  1  0
 23 21  1  0
 24 23  1  0
 25 23  2  0
M  END
$$$$
