YGL.pdb
     RDKit          3D

 25 25  0  0  1  0  0  0  0  0999 V2000
    7.5505  -12.7602   26.8174 O   0  0  0  0  0  0  0  0  0  0  0  0
    7.3818  -13.3420   25.5716 C   0  0  0  0  0  0  0  0  0  0  0  0
    7.8733  -12.7163   24.4412 C   0  0  0  0  0  0  0  0  0  0  0  0
    7.6977  -13.3066   23.2129 C   0  0  0  0  0  0  0  0  0  0  0  0
    7.0435  -14.5117   23.0606 C   0  0  0  0  0  0  0  0  0  0  0  0
    6.8586  -15.1421   21.7281 C   0  0  0  0  0  0  0  0  0  0  0  0
    7.7090  -16.3855   21.6417 C   0  0  2  0  0  0  0  0  0  0  0  0
    7.2597  -17.2985   22.6757 N   0  0  0  0  0  0  0  0  0  0  0  0
    9.1421  -16.0945   21.8939 C   0  0  0  0  0  0  0  0  0  0  0  0
    9.7332  -15.2691   21.1637 O   0  0  0  0  0  0  0  0  0  0  0  0
    6.5601  -15.1213   24.1989 C   0  0  0  0  0  0  0  0  0  0  0  0
    6.7330  -14.5382   25.4165 C   0  0  0  0  0  0  0  0  0  0  0  0
    9.9077  -16.7034   22.9330 N   0  0  0  0  0  0  0  0  0  0  0  0
   11.2548  -16.3425   23.2427 C   0  0  0  0  0  0  0  0  0  0  0  0
   11.5055  -16.3710   24.7310 C   0  0  0  0  0  0  0  0  0  0  0  0
   12.6771  -16.2160   25.1641 O   0  0  0  0  0  0  0  0  0  0  0  0
    9.9144  -13.7210   27.5799 C   0  0  0  0  0  0  0  0  0  0  0  0
    9.6876  -14.8986   28.4515 C   0  0  1  0  0  0  0  0  0  0  0  0
    8.4673  -14.6014   29.3307 C   0  0  0  0  0  0  0  0  0  0  0  0
    9.6472  -16.2379   27.8651 C   0  0  0  0  0  0  0  0  0  0  0  0
   10.7613  -16.7911   27.0774 C   0  0  2  0  0  0  0  0  0  0  0  0
   10.4500  -16.5686   25.6488 N   0  0  0  0  0  0  0  0  0  0  0  0
   11.1667  -18.1738   27.2916 C   0  0  0  0  0  0  0  0  0  0  0  0
   11.9519  -18.4543   28.4361 O   0  0  0  0  0  0  0  0  0  0  0  0
   10.9158  -19.1720   26.5944 O   0  0  0  0  0  0  0  0  0  0  0  0
  2  3  2  0
  2  1  1  0
  4  3  1  0
  5  4  2  0
  6  7  1  0
  6  5  1  0
  7  8  1  1
  9 10  2  0
  9  7  1  0
 11  5  1  0
 11 12  2  0
 12  2  1  0
 13  9  1  0
 14 13  1  0
 15 22  1  0
 15 14  1  0
 16 15  2  0
 18 19  1  6
 18 17  1  0
 20 18  1  0
 21 20  1  1
 21 22  1  0
 23 21  1  0
 24 23  1  0
 25 23  2  0
M  END
$$$$
