YGL.pdb
     RDKit          3D

 25 25  0  0  1  0  0  0  0  0999 V2000
   10.9590  -20.5875   30.2025 O   0  0  0  0  0  0  0  0  0  0  0  0
    9.8936  -20.0692   29.4846 C   0  0  0  0  0  0  0  0  0  0  0  0
   10.0210  -18.8579   28.8308 C   0  0  0  0  0  0  0  0  0  0  0  0
    8.9548  -18.3577   28.1231 C   0  0  0  0  0  0  0  0  0  0  0  0
    7.7490  -19.0227   28.0377 C   0  0  0  0  0  0  0  0  0  0  0  0
    6.6018  -18.4737   27.2699 C   0  0  0  0  0  0  0  0  0  0  0  0
    6.5207  -19.1645   25.9310 C   0  0  2  0  0  0  0  0  0  0  0  0
    7.7572  -19.8987   25.7392 N   0  0  0  0  0  0  0  0  0  0  0  0
    6.3987  -18.1947   24.8144 C   0  0  0  0  0  0  0  0  0  0  0  0
    5.4582  -17.3706   24.8241 O   0  0  0  0  0  0  0  0  0  0  0  0
    7.6402  -20.2293   28.6961 C   0  0  0  0  0  0  0  0  0  0  0  0
    8.6951  -20.7265   29.3976 C   0  0  0  0  0  0  0  0  0  0  0  0
    7.2984  -18.1364   23.7081 N   0  0  0  0  0  0  0  0  0  0  0  0
    7.1891  -17.1886   22.6449 C   0  0  0  0  0  0  0  0  0  0  0  0
    7.7765  -15.8534   23.0334 C   0  0  0  0  0  0  0  0  0  0  0  0
    7.9407  -14.9697   22.1521 O   0  0  0  0  0  0  0  0  0  0  0  0
    5.9745  -12.6139   26.4391 C   0  0  0  0  0  0  0  0  0  0  0  0
    6.8111  -13.1334   25.3310 C   0  0  1  0  0  0  0  0  0  0  0  0
    6.6913  -12.1553   24.1564 C   0  0  0  0  0  0  0  0  0  0  0  0
    8.1933  -13.5342   25.5920 C   0  0  0  0  0  0  0  0  0  0  0  0
    8.9622  -14.3772   24.6616 C   0  0  2  0  0  0  0  0  0  0  0  0
    8.1461  -15.5752   24.3681 N   0  0  0  0  0  0  0  0  0  0  0  0
   10.3198  -14.7708   25.0140 C   0  0  0  0  0  0  0  0  0  0  0  0
   10.5726  -16.1520   25.1975 O   0  0  0  0  0  0  0  0  0  0  0  0
   11.3175  -14.0483   25.1818 O   0  0  0  0  0  0  0  0  0  0  0  0
  2  3  2  0
  2  1  1  0
  4  3  1  0
  5  4  2  0
  6  7  1  0
  6  5  1  0
  7  8  1  6
  9 10  2  0
  9  7  1  0
 11  5  1  0
 11 12  2  0
 12  2  1  0
 13  9  1  0
 14 13  1  0
 15 22  1  0
 15 14  1  0
 16 15  2  0
 18 19  1  6
 18 17  1  0
 20 18  1  0
 21 20  1  1
 21 22  1  0
 23 21  1  0
 24 23  1  0
 25 23  2  0
M  END
$$$$
