YGL.pdb
     RDKit          3D

 25 25  0  0  1  0  0  0  0  0999 V2000
    7.1450  -11.7263   25.7065 O   0  0  0  0  0  0  0  0  0  0  0  0
    7.0965  -12.6657   24.6895 C   0  0  0  0  0  0  0  0  0  0  0  0
    7.4433  -12.3104   23.3995 C   0  0  0  0  0  0  0  0  0  0  0  0
    7.3898  -13.2540   22.4021 C   0  0  0  0  0  0  0  0  0  0  0  0
    6.9998  -14.5561   22.6389 C   0  0  0  0  0  0  0  0  0  0  0  0
    6.9453  -15.5693   21.5538 C   0  0  0  0  0  0  0  0  0  0  0  0
    7.8470  -16.7267   21.9057 C   0  0  2  0  0  0  0  0  0  0  0  0
    7.3170  -17.3489   23.1043 N   0  0  0  0  0  0  0  0  0  0  0  0
    9.2293  -16.2793   22.2079 C   0  0  0  0  0  0  0  0  0  0  0  0
    9.9494  -15.8567   21.2770 O   0  0  0  0  0  0  0  0  0  0  0  0
    6.6576  -14.8924   23.9315 C   0  0  0  0  0  0  0  0  0  0  0  0
    6.7098  -13.9592   24.9208 C   0  0  0  0  0  0  0  0  0  0  0  0
    9.8051  -16.2984   23.5136 N   0  0  0  0  0  0  0  0  0  0  0  0
   11.1537  -15.9184   23.7923 C   0  0  0  0  0  0  0  0  0  0  0  0
   11.5180  -16.1923   25.2314 C   0  0  0  0  0  0  0  0  0  0  0  0
   12.6642  -15.8825   25.6492 O   0  0  0  0  0  0  0  0  0  0  0  0
    7.6606  -15.1228   28.3992 C   0  0  0  0  0  0  0  0  0  0  0  0
    9.0872  -15.2473   28.0156 C   0  0  1  0  0  0  0  0  0  0  0  0
    9.8086  -13.9761   28.4785 C   0  0  0  0  0  0  0  0  0  0  0  0
    9.8239  -16.4663   28.3479 C   0  0  0  0  0  0  0  0  0  0  0  0
   10.9598  -16.9485   27.5450 C   0  0  2  0  0  0  0  0  0  0  0  0
   10.5968  -16.7901   26.1201 N   0  0  0  0  0  0  0  0  0  0  0  0
   11.4816  -18.2878   27.7824 C   0  0  0  0  0  0  0  0  0  0  0  0
   11.4894  -19.1888   26.6901 O   0  0  0  0  0  0  0  0  0  0  0  0
   11.9341  -18.7678   28.8361 O   0  0  0  0  0  0  0  0  0  0  0  0
  2  3  2  0
  2  1  1  0
  4  3  1  0
  5  4  2  0
  6  7  1  0
  6  5  1  0
  7  8  1  1
  9 10  2  0
  9  7  1  0
 11  5  1  0
 11 12  2  0
 12  2  1  0
 13  9  1  0
 14 13  1  0
 15 22  1  0
 15 14  1  0
 16 15  2  0
 18 19  1  1
 18 17  1  0
 20 18  1  0
 21 20  1  1
 21 22  1  0
 23 21  1  0
 24 23  1  0
 25 23  2  0
M  END
$$$$
