ICL.pdb
     RDKit          3D

 23 22  0  0  1  0  0  0  0  0999 V2000
   18.3394  -20.0086  -12.1476 C   0  0  0  0  0  0  0  0  0  0  0  0
   19.4594  -19.1818  -11.5683 C   0  0  0  0  0  0  0  0  0  0  0  0
   20.6204  -19.9751  -11.0869 C   0  0  2  0  0  0  0  0  0  0  0  0
   21.0267  -19.4216   -9.7212 C   0  0  0  0  0  0  0  0  0  0  0  0
   21.8027  -20.0413  -11.9982 C   0  0  2  0  0  0  0  0  0  0  0  0
   21.3399  -20.7718  -13.1983 N   0  0  0  0  0  0  0  0  0  0  0  0
   22.9851  -20.7285  -11.4978 C   0  0  0  0  0  0  0  0  0  0  0  0
   22.9209  -22.0004  -11.3015 O   0  0  0  0  0  0  0  0  0  0  0  0
   24.2523  -20.1822  -11.1834 N   0  0  0  0  0  0  0  0  0  0  0  0
   25.3623  -20.9601  -10.7122 C   0  0  1  0  0  0  0  0  0  0  0  0
   26.1055  -21.4042  -11.9869 C   0  0  0  0  0  0  0  0  0  0  0  0
   27.5795  -22.3643  -11.5358 S   0  0  0  0  0  0  0  0  0  0  0  0
   26.2585  -20.2948   -9.7702 C   0  0  0  0  0  0  0  0  0  0  0  0
   26.5280  -19.0481   -9.9150 O   0  0  0  0  0  0  0  0  0  0  0  0
   27.9148  -18.6201   -5.9886 C   0  0  0  0  0  0  0  0  0  0  0  0
   27.5751  -20.1162   -5.8588 C   0  0  2  0  0  0  0  0  0  0  0  0
   27.6983  -20.4739   -4.4207 C   0  0  0  0  0  0  0  0  0  0  0  0
   28.4767  -20.8477   -6.7783 C   0  0  0  0  0  0  0  0  0  0  0  0
   28.2647  -20.5496   -8.2344 C   0  0  2  0  0  0  0  0  0  0  0  0
   26.9068  -20.8809   -8.6516 N   0  0  0  0  0  0  0  0  0  0  0  0
   29.2746  -21.1726   -9.0871 C   0  0  0  0  0  0  0  0  0  0  0  0
   30.5980  -20.7020   -8.9749 O   0  0  0  0  0  0  0  0  0  0  0  0
   29.1009  -22.0900   -9.9194 O   0  0  0  0  0  0  0  0  0  0  0  0
  2  1  1  0
  2  3  1  0
  3  4  1  1
  5  7  1  0
  5  3  1  0
  5  6  1  6
  7  8  2  0
  9 10  1  0
  9  7  1  0
 10 11  1  6
 11 12  1  0
 13 10  1  0
 14 13  2  0
 16 15  1  1
 17 16  1  0
 18 16  1  0
 19 18  1  1
 19 20  1  0
 20 13  1  0
 21 22  1  0
 21 19  1  0
 23 21  2  0
M  END
$$$$
