ICL.pdb
     RDKit          3D

 23 22  0  0  1  0  0  0  0  0999 V2000
   29.5015  -26.8328  -17.2956 C   0  0  0  0  0  0  0  0  0  0  0  0
   28.1779  -26.2872  -17.7691 C   0  0  0  0  0  0  0  0  0  0  0  0
   27.3570  -25.6595  -16.7010 C   0  0  2  0  0  0  0  0  0  0  0  0
   27.1676  -26.6946  -15.5922 C   0  0  0  0  0  0  0  0  0  0  0  0
   26.0388  -25.0955  -17.1220 C   0  0  2  0  0  0  0  0  0  0  0  0
   26.3557  -24.0218  -18.0886 N   0  0  0  0  0  0  0  0  0  0  0  0
   25.2061  -24.5126  -16.0792 C   0  0  0  0  0  0  0  0  0  0  0  0
   24.9031  -25.2363  -15.0570 O   0  0  0  0  0  0  0  0  0  0  0  0
   24.6578  -23.2093  -16.0180 N   0  0  0  0  0  0  0  0  0  0  0  0
   23.7044  -22.7899  -15.0308 C   0  0  1  0  0  0  0  0  0  0  0  0
   23.4175  -21.3118  -15.3587 C   0  0  0  0  0  0  0  0  0  0  0  0
   24.8852  -20.3059  -14.9954 S   0  0  0  0  0  0  0  0  0  0  0  0
   22.4741  -23.5731  -14.9531 C   0  0  0  0  0  0  0  0  0  0  0  0
   21.8978  -23.9678  -16.0300 O   0  0  0  0  0  0  0  0  0  0  0  0
   18.3355  -25.8499  -11.9657 C   0  0  0  0  0  0  0  0  0  0  0  0
   19.4429  -26.7064  -12.6063 C   0  0  2  0  0  0  0  0  0  0  0  0
   19.5888  -27.9319  -11.7768 C   0  0  0  0  0  0  0  0  0  0  0  0
   20.6500  -25.8537  -12.7036 C   0  0  0  0  0  0  0  0  0  0  0  0
   20.5909  -24.8020  -13.7733 C   0  0  2  0  0  0  0  0  0  0  0  0
   21.7946  -23.9780  -13.7743 N   0  0  0  0  0  0  0  0  0  0  0  0
   19.3704  -24.0012  -13.7055 C   0  0  0  0  0  0  0  0  0  0  0  0
   19.3954  -22.8482  -12.8959 O   0  0  0  0  0  0  0  0  0  0  0  0
   18.2873  -24.2215  -14.2911 O   0  0  0  0  0  0  0  0  0  0  0  0
  2  1  1  0
  2  3  1  0
  3  4  1  1
  5  7  1  0
  5  3  1  0
  5  6  1  6
  7  8  2  0
  9 10  1  0
  9  7  1  0
 10 11  1  6
 11 12  1  0
 13 10  1  0
 14 13  2  0
 16 15  1  1
 17 16  1  0
 18 16  1  0
 19 18  1  1
 19 20  1  0
 20 13  1  0
 21 22  1  0
 21 19  1  0
 23 21  2  0
M  END
$$$$
