ICL.pdb
     RDKit          3D

 23 22  0  0  1  0  0  0  0  0999 V2000
   21.5498  -18.8566  -14.2873 C   0  0  0  0  0  0  0  0  0  0  0  0
   20.4657  -18.3976  -15.2294 C   0  0  0  0  0  0  0  0  0  0  0  0
   20.5214  -16.9517  -15.5688 C   0  0  2  0  0  0  0  0  0  0  0  0
   20.4191  -16.1639  -14.2628 C   0  0  0  0  0  0  0  0  0  0  0  0
   19.5123  -16.4624  -16.5563 C   0  0  2  0  0  0  0  0  0  0  0  0
   19.7936  -17.1958  -17.8096 N   0  0  0  0  0  0  0  0  0  0  0  0
   19.5296  -15.0403  -16.8693 C   0  0  0  0  0  0  0  0  0  0  0  0
   20.5403  -14.5635  -17.5109 O   0  0  0  0  0  0  0  0  0  0  0  0
   18.5558  -14.0605  -16.5617 N   0  0  0  0  0  0  0  0  0  0  0  0
   18.7160  -12.6614  -16.8380 C   0  0  1  0  0  0  0  0  0  0  0  0
   17.2841  -12.0920  -16.8467 C   0  0  0  0  0  0  0  0  0  0  0  0
   17.3420  -10.2870  -17.0383 S   0  0  0  0  0  0  0  0  0  0  0  0
   19.5842  -11.9222  -15.9254 C   0  0  0  0  0  0  0  0  0  0  0  0
   19.7153  -12.3128  -14.7097 O   0  0  0  0  0  0  0  0  0  0  0  0
   24.2892   -9.4870  -14.9251 C   0  0  0  0  0  0  0  0  0  0  0  0
   23.5170  -10.5802  -14.1640 C   0  0  2  0  0  0  0  0  0  0  0  0
   24.5141  -11.5768  -13.6907 C   0  0  0  0  0  0  0  0  0  0  0  0
   22.4809  -11.1013  -15.0850 C   0  0  0  0  0  0  0  0  0  0  0  0
   21.3226  -10.1744  -15.3157 C   0  0  2  0  0  0  0  0  0  0  0  0
   20.3456  -10.7623  -16.2255 N   0  0  0  0  0  0  0  0  0  0  0  0
   21.7466   -8.8426  -15.7420 C   0  0  0  0  0  0  0  0  0  0  0  0
   21.6022   -8.5218  -17.1065 O   0  0  0  0  0  0  0  0  0  0  0  0
   22.2309   -7.9376  -15.0271 O   0  0  0  0  0  0  0  0  0  0  0  0
  2  1  1  0
  2  3  1  0
  3  4  1  1
  5  7  1  0
  5  3  1  0
  5  6  1  6
  7  8  2  0
  9 10  1  0
  9  7  1  0
 10 11  1  1
 11 12  1  0
 13 10  1  0
 14 13  2  0
 16 15  1  6
 17 16  1  0
 18 16  1  0
 19 18  1  6
 19 20  1  0
 20 13  1  0
 21 22  1  0
 21 19  1  0
 23 21  2  0
M  END
$$$$
