ICL.pdb
     RDKit          3D

 23 22  0  0  1  0  0  0  0  0999 V2000
   29.1750  -17.9716  -16.1696 C   0  0  0  0  0  0  0  0  0  0  0  0
   28.1673  -18.8321  -16.8890 C   0  0  0  0  0  0  0  0  0  0  0  0
   27.1743  -19.4871  -15.9980 C   0  0  2  0  0  0  0  0  0  0  0  0
   26.2559  -18.3970  -15.4457 C   0  0  0  0  0  0  0  0  0  0  0  0
   27.7269  -20.3193  -14.8868 C   0  0  2  0  0  0  0  0  0  0  0  0
   28.3931  -21.4661  -15.5416 N   0  0  0  0  0  0  0  0  0  0  0  0
   26.7731  -20.8580  -13.9273 C   0  0  0  0  0  0  0  0  0  0  0  0
   25.8752  -21.6810  -14.3479 O   0  0  0  0  0  0  0  0  0  0  0  0
   26.6837  -20.6022  -12.5382 N   0  0  0  0  0  0  0  0  0  0  0  0
   25.5732  -21.0033  -11.7225 C   0  0  1  0  0  0  0  0  0  0  0  0
   25.9912  -20.6508  -10.2818 C   0  0  0  0  0  0  0  0  0  0  0  0
   27.6915  -21.2128   -9.9805 S   0  0  0  0  0  0  0  0  0  0  0  0
   24.2798  -20.4187  -12.0666 C   0  0  0  0  0  0  0  0  0  0  0  0
   24.2255  -19.2471  -12.5881 O   0  0  0  0  0  0  0  0  0  0  0  0
   21.6320  -22.1096  -16.3839 C   0  0  0  0  0  0  0  0  0  0  0  0
   21.3425  -21.0634  -15.2919 C   0  0  2  0  0  0  0  0  0  0  0  0
   21.3198  -19.7311  -15.9519 C   0  0  0  0  0  0  0  0  0  0  0  0
   22.3705  -21.2376  -14.2401 C   0  0  0  0  0  0  0  0  0  0  0  0
   21.9124  -20.8952  -12.8520 C   0  0  2  0  0  0  0  0  0  0  0  0
   23.0023  -21.0120  -11.8896 N   0  0  0  0  0  0  0  0  0  0  0  0
   20.7316  -21.6553  -12.4478 C   0  0  0  0  0  0  0  0  0  0  0  0
   19.5328  -20.9392  -12.2587 O   0  0  0  0  0  0  0  0  0  0  0  0
   20.6572  -22.8875  -12.2462 O   0  0  0  0  0  0  0  0  0  0  0  0
  2  1  1  0
  2  3  1  0
  3  4  1  1
  5  7  1  0
  5  3  1  0
  5  6  1  6
  7  8  2  0
  9 10  1  0
  9  7  1  0
 10 11  1  1
 11 12  1  0
 13 10  1  0
 14 13  2  0
 16 15  1  6
 17 16  1  0
 18 16  1  0
 19 18  1  6
 19 20  1  0
 20 13  1  0
 21 22  1  0
 21 19  1  0
 23 21  2  0
M  END
$$$$
