ICL.pdb
     RDKit          3D

 23 22  0  0  1  0  0  0  0  0999 V2000
   22.0349  -10.2492    7.0386 C   0  0  0  0  0  0  0  0  0  0  0  0
   21.0397  -11.3365    7.3561 C   0  0  0  0  0  0  0  0  0  0  0  0
   21.4007  -12.1731    8.5303 C   0  0  2  0  0  0  0  0  0  0  0  0
   22.8134  -12.7101    8.3010 C   0  0  0  0  0  0  0  0  0  0  0  0
   20.4640  -13.2885    8.8638 C   0  0  2  0  0  0  0  0  0  0  0  0
   19.2177  -12.6377    9.3233 N   0  0  0  0  0  0  0  0  0  0  0  0
   20.8834  -14.2142    9.9067 C   0  0  0  0  0  0  0  0  0  0  0  0
   21.1122  -13.7494   11.0866 O   0  0  0  0  0  0  0  0  0  0  0  0
   21.0835  -15.6121    9.8131 N   0  0  0  0  0  0  0  0  0  0  0  0
   21.6425  -16.4109   10.8662 C   0  0  1  0  0  0  0  0  0  0  0  0
   20.5784  -17.4873   11.1555 C   0  0  0  0  0  0  0  0  0  0  0  0
   19.0906  -16.7098   11.8481 S   0  0  0  0  0  0  0  0  0  0  0  0
   22.9497  -17.0041   10.5970 C   0  0  0  0  0  0  0  0  0  0  0  0
   23.3184  -17.2177    9.3862 O   0  0  0  0  0  0  0  0  0  0  0  0
   28.4609  -15.7633   11.0518 C   0  0  0  0  0  0  0  0  0  0  0  0
   27.6103  -17.0201   10.7917 C   0  0  2  0  0  0  0  0  0  0  0  0
   27.8831  -17.4569    9.3968 C   0  0  0  0  0  0  0  0  0  0  0  0
   26.2037  -16.6609   11.0849 C   0  0  0  0  0  0  0  0  0  0  0  0
   25.2708  -17.8302   11.2122 C   0  0  2  0  0  0  0  0  0  0  0  0
   23.9207  -17.3970   11.5550 N   0  0  0  0  0  0  0  0  0  0  0  0
   25.7745  -18.8524   12.1269 C   0  0  0  0  0  0  0  0  0  0  0  0
   26.7929  -19.7027   11.6519 O   0  0  0  0  0  0  0  0  0  0  0  0
   25.4026  -19.0661   13.3019 O   0  0  0  0  0  0  0  0  0  0  0  0
  2  1  1  0
  2  3  1  0
  3  4  1  6
  5  7  1  0
  5  3  1  0
  5  6  1  1
  7  8  2  0
  9 10  1  0
  9  7  1  0
 10 11  1  6
 11 12  1  0
 13 10  1  0
 14 13  2  0
 16 15  1  6
 17 16  1  0
 18 16  1  0
 19 18  1  1
 19 20  1  0
 20 13  1  0
 21 22  1  0
 21 19  1  0
 23 21  2  0
M  END
$$$$
