ICL.pdb
     RDKit          3D

 23 22  0  0  1  0  0  0  0  0999 V2000
   17.8507  -14.3151  -20.3702 C   0  0  0  0  0  0  0  0  0  0  0  0
   18.4951  -13.7105  -19.1483 C   0  0  0  0  0  0  0  0  0  0  0  0
   18.3926  -12.2298  -19.0713 C   0  0  2  0  0  0  0  0  0  0  0  0
   19.1621  -11.6488  -20.2574 C   0  0  0  0  0  0  0  0  0  0  0  0
   18.8438  -11.5988  -17.7942 C   0  0  2  0  0  0  0  0  0  0  0  0
   17.9361  -12.1211  -16.7496 N   0  0  0  0  0  0  0  0  0  0  0  0
   18.7998  -10.1450  -17.7238 C   0  0  0  0  0  0  0  0  0  0  0  0
   19.5778   -9.4676  -18.4961 O   0  0  0  0  0  0  0  0  0  0  0  0
   17.9910   -9.3288  -16.8976 N   0  0  0  0  0  0  0  0  0  0  0  0
   18.0809   -7.8972  -16.8562 C   0  0  1  0  0  0  0  0  0  0  0  0
   16.6559   -7.4196  -16.5159 C   0  0  0  0  0  0  0  0  0  0  0  0
   16.6537   -5.6205  -16.2683 S   0  0  0  0  0  0  0  0  0  0  0  0
   19.0694   -7.3425  -15.9352 C   0  0  0  0  0  0  0  0  0  0  0  0
   19.1145   -7.7548  -14.7205 O   0  0  0  0  0  0  0  0  0  0  0  0
   22.8726   -8.0840  -14.6316 C   0  0  0  0  0  0  0  0  0  0  0  0
   22.8506   -7.3696  -15.9953 C   0  0  2  0  0  0  0  0  0  0  0  0
   24.2039   -7.5182  -16.5934 C   0  0  0  0  0  0  0  0  0  0  0  0
   22.4107   -5.9770  -15.7491 C   0  0  0  0  0  0  0  0  0  0  0  0
   21.0010   -5.8430  -15.2503 C   0  0  2  0  0  0  0  0  0  0  0  0
   20.0425   -6.3505  -16.2257 N   0  0  0  0  0  0  0  0  0  0  0  0
   20.6859   -4.4830  -14.8185 C   0  0  0  0  0  0  0  0  0  0  0  0
   21.2513   -4.0401  -13.6062 O   0  0  0  0  0  0  0  0  0  0  0  0
   19.9613   -3.6508  -15.4075 O   0  0  0  0  0  0  0  0  0  0  0  0
  2  1  1  0
  2  3  1  0
  3  4  1  6
  5  7  1  0
  5  3  1  0
  5  6  1  1
  7  8  2  0
  9 10  1  0
  9  7  1  0
 10 11  1  1
 11 12  1  0
 13 10  1  0
 14 13  2  0
 16 15  1  1
 17 16  1  0
 18 16  1  0
 19 18  1  6
 19 20  1  0
 20 13  1  0
 21 22  1  0
 21 19  1  0
 23 21  2  0
M  END
$$$$
