ICL.pdb
     RDKit          3D

 23 22  0  0  1  0  0  0  0  0999 V2000
   20.5544  -20.0149  -13.5640 C   0  0  0  0  0  0  0  0  0  0  0  0
   21.9048  -20.4929  -14.0349 C   0  0  0  0  0  0  0  0  0  0  0  0
   22.8274  -20.8952  -12.9415 C   0  0  2  0  0  0  0  0  0  0  0  0
   22.8270  -19.7774  -11.8988 C   0  0  0  0  0  0  0  0  0  0  0  0
   24.2256  -21.2355  -13.3442 C   0  0  2  0  0  0  0  0  0  0  0  0
   24.1099  -22.4218  -14.2201 N   0  0  0  0  0  0  0  0  0  0  0  0
   25.1579  -21.5701  -12.2768 C   0  0  0  0  0  0  0  0  0  0  0  0
   24.9522  -22.6434  -11.5939 O   0  0  0  0  0  0  0  0  0  0  0  0
   26.3098  -20.8607  -11.8612 N   0  0  0  0  0  0  0  0  0  0  0  0
   27.0968  -21.2173  -10.7154 C   0  0  1  0  0  0  0  0  0  0  0  0
   28.5562  -20.9696  -11.1435 C   0  0  0  0  0  0  0  0  0  0  0  0
   29.6860  -21.6074   -9.8727 S   0  0  0  0  0  0  0  0  0  0  0  0
   26.7742  -20.5206   -9.4729 C   0  0  0  0  0  0  0  0  0  0  0  0
   26.4207  -19.2871   -9.5043 O   0  0  0  0  0  0  0  0  0  0  0  0
   28.9550  -19.3284   -4.8651 C   0  0  0  0  0  0  0  0  0  0  0  0
   27.8876  -20.4042   -4.5935 C   0  0  2  0  0  0  0  0  0  0  0  0
   28.3832  -21.2445   -3.4713 C   0  0  0  0  0  0  0  0  0  0  0  0
   27.6546  -21.1171   -5.8706 C   0  0  0  0  0  0  0  0  0  0  0  0
   27.0647  -20.2723   -6.9625 C   0  0  2  0  0  0  0  0  0  0  0  0
   26.8018  -21.0615   -8.1607 N   0  0  0  0  0  0  0  0  0  0  0  0
   27.8655  -19.0832   -7.2460 C   0  0  0  0  0  0  0  0  0  0  0  0
   27.4160  -17.8572   -6.7165 O   0  0  0  0  0  0  0  0  0  0  0  0
   28.9209  -19.0234   -7.9146 O   0  0  0  0  0  0  0  0  0  0  0  0
  2  1  1  0
  2  3  1  0
  3  4  1  1
  5  7  1  0
  5  3  1  0
  5  6  1  6
  7  8  2  0
  9 10  1  0
  9  7  1  0
 10 11  1  6
 11 12  1  0
 13 10  1  0
 14 13  2  0
 16 15  1  6
 17 16  1  0
 18 16  1  0
 19 18  1  1
 19 20  1  0
 20 13  1  0
 21 22  1  0
 21 19  1  0
 23 21  2  0
M  END
$$$$
