ICL.pdb
     RDKit          3D

 23 22  0  0  1  0  0  0  0  0999 V2000
   25.8307  -20.1737  -21.5177 C   0  0  0  0  0  0  0  0  0  0  0  0
   25.9415  -19.4854  -20.1806 C   0  0  0  0  0  0  0  0  0  0  0  0
   25.2617  -20.1976  -19.0672 C   0  0  2  0  0  0  0  0  0  0  0  0
   23.8080  -20.4260  -19.4810 C   0  0  0  0  0  0  0  0  0  0  0  0
   25.3280  -19.5461  -17.7241 C   0  0  2  0  0  0  0  0  0  0  0  0
   26.7478  -19.1803  -17.5287 N   0  0  0  0  0  0  0  0  0  0  0  0
   24.9225  -20.3495  -16.5793 C   0  0  0  0  0  0  0  0  0  0  0  0
   23.8221  -21.0158  -16.6537 O   0  0  0  0  0  0  0  0  0  0  0  0
   25.5893  -20.5167  -15.3422 N   0  0  0  0  0  0  0  0  0  0  0  0
   25.0301  -21.2186  -14.2223 C   0  0  1  0  0  0  0  0  0  0  0  0
   26.1954  -21.3678  -13.2251 C   0  0  0  0  0  0  0  0  0  0  0  0
   27.6737  -21.9671  -14.0931 S   0  0  0  0  0  0  0  0  0  0  0  0
   23.8619  -20.6035  -13.5977 C   0  0  0  0  0  0  0  0  0  0  0  0
   23.9176  -19.3855  -13.1967 O   0  0  0  0  0  0  0  0  0  0  0  0
   19.5946  -19.1646  -16.5325 C   0  0  0  0  0  0  0  0  0  0  0  0
   19.9557  -19.0832  -15.0381 C   0  0  2  0  0  0  0  0  0  0  0  0
   20.0529  -17.6420  -14.6851 C   0  0  0  0  0  0  0  0  0  0  0  0
   21.1943  -19.8725  -14.8469 C   0  0  0  0  0  0  0  0  0  0  0  0
   21.3260  -20.5167  -13.4973 C   0  0  2  0  0  0  0  0  0  0  0  0
   22.6011  -21.2124  -13.3636 N   0  0  0  0  0  0  0  0  0  0  0  0
   20.1889  -21.3751  -13.1724 C   0  0  0  0  0  0  0  0  0  0  0  0
   19.2411  -20.8769  -12.2565 O   0  0  0  0  0  0  0  0  0  0  0  0
   19.9529  -22.5196  -13.6185 O   0  0  0  0  0  0  0  0  0  0  0  0
  2  1  1  0
  2  3  1  0
  3  4  1  6
  5  7  1  0
  5  3  1  0
  5  6  1  1
  7  8  2  0
  9 10  1  0
  9  7  1  0
 10 11  1  1
 11 12  1  0
 13 10  1  0
 14 13  2  0
 16 15  1  6
 17 16  1  0
 18 16  1  0
 19 18  1  6
 19 20  1  0
 20 13  1  0
 21 22  1  0
 21 19  1  0
 23 21  2  0
M  END
$$$$
