ICL.pdb
     RDKit          3D

 23 22  0  0  1  0  0  0  0  0999 V2000
   21.6452  -20.2505  -17.1982 C   0  0  0  0  0  0  0  0  0  0  0  0
   22.7662  -19.8774  -16.2613 C   0  0  0  0  0  0  0  0  0  0  0  0
   22.4054  -18.8443  -15.2556 C   0  0  2  0  0  0  0  0  0  0  0  0
   22.0138  -17.5756  -16.0132 C   0  0  0  0  0  0  0  0  0  0  0  0
   23.4372  -18.5382  -14.2191 C   0  0  2  0  0  0  0  0  0  0  0  0
   24.5597  -17.9090  -14.9484 N   0  0  0  0  0  0  0  0  0  0  0  0
   23.9786  -19.6652  -13.4726 C   0  0  0  0  0  0  0  0  0  0  0  0
   23.1613  -20.4314  -12.8359 O   0  0  0  0  0  0  0  0  0  0  0  0
   25.3302  -20.0632  -13.3387 N   0  0  0  0  0  0  0  0  0  0  0  0
   25.7638  -21.1498  -12.5076 C   0  0  1  0  0  0  0  0  0  0  0  0
   26.8152  -21.8984  -13.3494 C   0  0  0  0  0  0  0  0  0  0  0  0
   26.0481  -22.5322  -14.8685 S   0  0  0  0  0  0  0  0  0  0  0  0
   26.2865  -20.7840  -11.1937 C   0  0  0  0  0  0  0  0  0  0  0  0
   27.2822  -19.9791  -11.1026 O   0  0  0  0  0  0  0  0  0  0  0  0
   28.4039  -18.4902   -7.4797 C   0  0  0  0  0  0  0  0  0  0  0  0
   26.9314  -18.8490   -7.2086 C   0  0  2  0  0  0  0  0  0  0  0  0
   26.9138  -19.8224   -6.0846 C   0  0  0  0  0  0  0  0  0  0  0  0
   26.3612  -19.3373   -8.4853 C   0  0  0  0  0  0  0  0  0  0  0  0
   26.3922  -20.8284   -8.6570 C   0  0  2  0  0  0  0  0  0  0  0  0
   25.8088  -21.2279   -9.9328 N   0  0  0  0  0  0  0  0  0  0  0  0
   25.7930  -21.5355   -7.5272 C   0  0  0  0  0  0  0  0  0  0  0  0
   26.6427  -21.8934   -6.4617 O   0  0  0  0  0  0  0  0  0  0  0  0
   24.5945  -21.8665   -7.3913 O   0  0  0  0  0  0  0  0  0  0  0  0
  2  1  1  0
  2  3  1  0
  3  4  1  6
  5  7  1  0
  5  3  1  0
  5  6  1  6
  7  8  2  0
  9 10  1  0
  9  7  1  0
 10 11  1  6
 11 12  1  0
 13 10  1  0
 14 13  2  0
 16 15  1  6
 17 16  1  0
 18 16  1  0
 19 18  1  1
 19 20  1  0
 20 13  1  0
 21 22  1  0
 21 19  1  0
 23 21  2  0
M  END
$$$$
