ICL.pdb
     RDKit          3D

 23 22  0  0  1  0  0  0  0  0999 V2000
   23.5974  -16.6577  -23.0383 C   0  0  0  0  0  0  0  0  0  0  0  0
   23.1063  -16.4329  -21.6306 C   0  0  0  0  0  0  0  0  0  0  0  0
   23.0065  -15.0029  -21.2379 C   0  0  2  0  0  0  0  0  0  0  0  0
   24.4024  -14.3910  -21.3544 C   0  0  0  0  0  0  0  0  0  0  0  0
   22.4226  -14.7236  -19.8911 C   0  0  2  0  0  0  0  0  0  0  0  0
   21.1544  -15.4832  -19.8417 N   0  0  0  0  0  0  0  0  0  0  0  0
   22.1124  -13.3352  -19.5804 C   0  0  0  0  0  0  0  0  0  0  0  0
   23.0810  -12.4878  -19.5150 O   0  0  0  0  0  0  0  0  0  0  0  0
   20.8474  -12.7516  -19.3309 N   0  0  0  0  0  0  0  0  0  0  0  0
   20.6573  -11.3671  -19.0047 C   0  0  1  0  0  0  0  0  0  0  0  0
   19.1289  -11.1785  -18.9492 C   0  0  0  0  0  0  0  0  0  0  0  0
   18.7363   -9.5392  -18.2735 S   0  0  0  0  0  0  0  0  0  0  0  0
   21.3024  -10.9018  -17.7798 C   0  0  0  0  0  0  0  0  0  0  0  0
   21.3335  -11.6607  -16.7450 O   0  0  0  0  0  0  0  0  0  0  0  0
   26.3326  -10.0349  -15.5244 C   0  0  0  0  0  0  0  0  0  0  0  0
   24.8934   -9.5876  -15.2098 C   0  0  2  0  0  0  0  0  0  0  0  0
   24.4625  -10.3145  -13.9862 C   0  0  0  0  0  0  0  0  0  0  0  0
   24.0838   -9.8439  -16.4232 C   0  0  0  0  0  0  0  0  0  0  0  0
   22.6837   -9.3048  -16.3690 C   0  0  2  0  0  0  0  0  0  0  0  0
   21.9358   -9.6483  -17.5734 N   0  0  0  0  0  0  0  0  0  0  0  0
   22.6450   -7.8727  -16.0814 C   0  0  0  0  0  0  0  0  0  0  0  0
   23.0285   -7.4599  -14.7899 O   0  0  0  0  0  0  0  0  0  0  0  0
   22.3059   -6.9535  -16.8591 O   0  0  0  0  0  0  0  0  0  0  0  0
  2  1  1  0
  2  3  1  0
  3  4  1  1
  5  7  1  0
  5  3  1  0
  5  6  1  6
  7  8  2  0
  9 10  1  0
  9  7  1  0
 10 11  1  1
 11 12  1  0
 13 10  1  0
 14 13  2  0
 16 15  1  6
 17 16  1  0
 18 16  1  0
 19 18  1  6
 19 20  1  0
 20 13  1  0
 21 22  1  0
 21 19  1  0
 23 21  2  0
M  END
$$$$
