ICL.pdb
     RDKit          3D

 23 22  0  0  1  0  0  0  0  0999 V2000
   18.3476  -11.2346  -21.1144 C   0  0  0  0  0  0  0  0  0  0  0  0
   18.0841  -11.7049  -19.7062 C   0  0  0  0  0  0  0  0  0  0  0  0
   18.1826  -10.6381  -18.6759 C   0  0  2  0  0  0  0  0  0  0  0  0
   19.6292  -10.1447  -18.6553 C   0  0  0  0  0  0  0  0  0  0  0  0
   17.7336  -11.0026  -17.2981 C   0  0  2  0  0  0  0  0  0  0  0  0
   16.3364  -11.4654  -17.4441 N   0  0  0  0  0  0  0  0  0  0  0  0
   17.7406   -9.9433  -16.2990 C   0  0  0  0  0  0  0  0  0  0  0  0
   17.2433   -8.7969  -16.6139 O   0  0  0  0  0  0  0  0  0  0  0  0
   18.2323   -9.9889  -14.9727 N   0  0  0  0  0  0  0  0  0  0  0  0
   18.3740   -8.8333  -14.1336 C   0  0  1  0  0  0  0  0  0  0  0  0
   18.1352   -9.3507  -12.7018 C   0  0  0  0  0  0  0  0  0  0  0  0
   18.4104   -8.0086  -11.5098 S   0  0  0  0  0  0  0  0  0  0  0  0
   19.6398   -8.1127  -14.2420 C   0  0  0  0  0  0  0  0  0  0  0  0
   20.6964   -8.7301  -14.6291 O   0  0  0  0  0  0  0  0  0  0  0  0
   22.5287   -5.3051  -17.7544 C   0  0  0  0  0  0  0  0  0  0  0  0
   22.5899   -5.3931  -16.2185 C   0  0  2  0  0  0  0  0  0  0  0  0
   23.8870   -6.0277  -15.8639 C   0  0  0  0  0  0  0  0  0  0  0  0
   21.3797   -6.1236  -15.7767 C   0  0  0  0  0  0  0  0  0  0  0  0
   21.0924   -6.0308  -14.3060 C   0  0  2  0  0  0  0  0  0  0  0  0
   19.8658   -6.7401  -13.9592 N   0  0  0  0  0  0  0  0  0  0  0  0
   21.0924   -4.6525  -13.8206 C   0  0  0  0  0  0  0  0  0  0  0  0
   22.3409   -4.0671  -13.5307 O   0  0  0  0  0  0  0  0  0  0  0  0
   20.0985   -3.9178  -13.6286 O   0  0  0  0  0  0  0  0  0  0  0  0
  2  1  1  0
  2  3  1  0
  3  4  1  1
  5  7  1  0
  5  3  1  0
  5  6  1  6
  7  8  2  0
  9 10  1  0
  9  7  1  0
 10 11  1  1
 11 12  1  0
 13 10  1  0
 14 13  2  0
 16 15  1  6
 17 16  1  0
 18 16  1  0
 19 18  1  6
 19 20  1  0
 20 13  1  0
 21 22  1  0
 21 19  1  0
 23 21  2  0
M  END
$$$$
