ICL.pdb
     RDKit          3D

 23 22  0  0  1  0  0  0  0  0999 V2000
   27.7316  -15.6109  -17.1667 C   0  0  0  0  0  0  0  0  0  0  0  0
   28.0691  -16.9882  -16.6543 C   0  0  0  0  0  0  0  0  0  0  0  0
   26.9516  -17.6711  -15.9516 C   0  0  2  0  0  0  0  0  0  0  0  0
   26.5401  -16.7925  -14.7703 C   0  0  0  0  0  0  0  0  0  0  0  0
   27.2094  -19.0714  -15.4984 C   0  0  2  0  0  0  0  0  0  0  0  0
   27.5820  -19.8220  -16.7172 N   0  0  0  0  0  0  0  0  0  0  0  0
   26.1007  -19.7780  -14.8723 C   0  0  0  0  0  0  0  0  0  0  0  0
   25.1590  -20.2349  -15.6239 O   0  0  0  0  0  0  0  0  0  0  0  0
   25.8962  -20.0520  -13.4989 N   0  0  0  0  0  0  0  0  0  0  0  0
   24.7715  -20.7836  -12.9896 C   0  0  1  0  0  0  0  0  0  0  0  0
   25.1892  -21.2169  -11.5710 C   0  0  0  0  0  0  0  0  0  0  0  0
   26.8273  -21.9990  -11.6250 S   0  0  0  0  0  0  0  0  0  0  0  0
   23.4946  -20.0746  -12.9824 C   0  0  0  0  0  0  0  0  0  0  0  0
   23.4733  -18.7960  -12.8724 O   0  0  0  0  0  0  0  0  0  0  0  0
   20.4379  -18.4635  -17.0374 C   0  0  0  0  0  0  0  0  0  0  0  0
   20.1659  -18.5869  -15.5270 C   0  0  2  0  0  0  0  0  0  0  0  0
   19.9558  -17.2115  -15.0023 C   0  0  0  0  0  0  0  0  0  0  0  0
   21.3062  -19.3273  -14.9394 C   0  0  0  0  0  0  0  0  0  0  0  0
   21.0339  -19.9341  -13.5934 C   0  0  2  0  0  0  0  0  0  0  0  0
   22.2006  -20.6487  -13.0877 N   0  0  0  0  0  0  0  0  0  0  0  0
   19.8296  -20.7616  -13.5847 C   0  0  0  0  0  0  0  0  0  0  0  0
   18.6367  -20.1660  -13.1289 O   0  0  0  0  0  0  0  0  0  0  0  0
   19.7300  -21.9568  -13.9401 O   0  0  0  0  0  0  0  0  0  0  0  0
  2  1  1  0
  2  3  1  0
  3  4  1  1
  5  7  1  0
  5  3  1  0
  5  6  1  6
  7  8  2  0
  9 10  1  0
  9  7  1  0
 10 11  1  1
 11 12  1  0
 13 10  1  0
 14 13  2  0
 16 15  1  6
 17 16  1  0
 18 16  1  0
 19 18  1  6
 19 20  1  0
 20 13  1  0
 21 22  1  0
 21 19  1  0
 23 21  2  0
M  END
$$$$
