ICL.pdb
     RDKit          3D

 23 22  0  0  1  0  0  0  0  0999 V2000
   19.4413  -14.2724  -19.3926 C   0  0  0  0  0  0  0  0  0  0  0  0
   20.3070  -13.4806  -18.4454 C   0  0  0  0  0  0  0  0  0  0  0  0
   19.9864  -12.0305  -18.3899 C   0  0  2  0  0  0  0  0  0  0  0  0
   20.1150  -11.4719  -19.8070 C   0  0  0  0  0  0  0  0  0  0  0  0
   20.7847  -11.2105  -17.4291 C   0  0  2  0  0  0  0  0  0  0  0  0
   20.6961  -11.9175  -16.1329 N   0  0  0  0  0  0  0  0  0  0  0  0
   20.3480   -9.8389  -17.2090 C   0  0  0  0  0  0  0  0  0  0  0  0
   20.4293   -9.0027  -18.1861 O   0  0  0  0  0  0  0  0  0  0  0  0
   19.8212   -9.2627  -16.0286 N   0  0  0  0  0  0  0  0  0  0  0  0
   19.4440   -7.8828  -15.9133 C   0  0  1  0  0  0  0  0  0  0  0  0
   18.1262   -7.8969  -15.1148 C   0  0  0  0  0  0  0  0  0  0  0  0
   17.6427   -6.1969  -14.6974 S   0  0  0  0  0  0  0  0  0  0  0  0
   20.4327   -6.9958  -15.3058 C   0  0  0  0  0  0  0  0  0  0  0  0
   21.0506   -7.3599  -14.2413 O   0  0  0  0  0  0  0  0  0  0  0  0
   24.4248   -6.1937  -15.9544 C   0  0  0  0  0  0  0  0  0  0  0  0
   23.5359   -5.4120  -16.9390 C   0  0  2  0  0  0  0  0  0  0  0  0
   24.4176   -4.9077  -18.0250 C   0  0  0  0  0  0  0  0  0  0  0  0
   22.8297   -4.3725  -16.1553 C   0  0  0  0  0  0  0  0  0  0  0  0
   21.8612   -4.9031  -15.1382 C   0  0  2  0  0  0  0  0  0  0  0  0
   20.8213   -5.7104  -15.7662 N   0  0  0  0  0  0  0  0  0  0  0  0
   21.3089   -3.8510  -14.2876 C   0  0  0  0  0  0  0  0  0  0  0  0
   19.9198   -3.6245  -14.3555 O   0  0  0  0  0  0  0  0  0  0  0  0
   21.9337   -3.1147  -13.4926 O   0  0  0  0  0  0  0  0  0  0  0  0
  2  1  1  0
  2  3  1  0
  3  4  1  6
  5  7  1  0
  5  3  1  0
  5  6  1  1
  7  8  2  0
  9 10  1  0
  9  7  1  0
 10 11  1  1
 11 12  1  0
 13 10  1  0
 14 13  2  0
 16 15  1  1
 17 16  1  0
 18 16  1  0
 19 18  1  6
 19 20  1  0
 20 13  1  0
 21 22  1  0
 21 19  1  0
 23 21  2  0
M  END
$$$$
