ICL.pdb
     RDKit          3D

 23 22  0  0  1  0  0  0  0  0999 V2000
   18.3726  -19.0937  -17.5841 C   0  0  0  0  0  0  0  0  0  0  0  0
   19.6607  -19.6169  -17.0006 C   0  0  0  0  0  0  0  0  0  0  0  0
   20.4950  -18.5835  -16.3335 C   0  0  2  0  0  0  0  0  0  0  0  0
   20.6922  -17.4358  -17.3237 C   0  0  0  0  0  0  0  0  0  0  0  0
   21.8106  -19.0405  -15.7922 C   0  0  2  0  0  0  0  0  0  0  0  0
   21.4858  -19.9819  -14.6985 N   0  0  0  0  0  0  0  0  0  0  0  0
   22.6897  -18.0183  -15.2417 C   0  0  0  0  0  0  0  0  0  0  0  0
   22.3808  -17.4853  -14.1099 O   0  0  0  0  0  0  0  0  0  0  0  0
   23.8885  -17.5021  -15.7889 N   0  0  0  0  0  0  0  0  0  0  0  0
   24.6193  -16.4064  -15.2189 C   0  0  1  0  0  0  0  0  0  0  0  0
   26.0937  -16.6889  -15.5668 C   0  0  0  0  0  0  0  0  0  0  0  0
   27.1513  -15.3944  -14.8572 S   0  0  0  0  0  0  0  0  0  0  0  0
   24.2112  -15.0709  -15.6465 C   0  0  0  0  0  0  0  0  0  0  0  0
   23.8608  -14.8683  -16.8646 O   0  0  0  0  0  0  0  0  0  0  0  0
   23.0150   -9.3927  -13.4086 C   0  0  0  0  0  0  0  0  0  0  0  0
   23.1072  -10.2643  -14.6744 C   0  0  2  0  0  0  0  0  0  0  0  0
   21.7991  -10.1659  -15.3745 C   0  0  0  0  0  0  0  0  0  0  0  0
   23.4971  -11.6247  -14.2377 C   0  0  0  0  0  0  0  0  0  0  0  0
   23.7843  -12.5846  -15.3557 C   0  0  2  0  0  0  0  0  0  0  0  0
   24.1475  -13.9015  -14.8442 N   0  0  0  0  0  0  0  0  0  0  0  0
   24.7700  -12.0654  -16.3012 C   0  0  0  0  0  0  0  0  0  0  0  0
   24.2841  -11.4236  -17.4577 O   0  0  0  0  0  0  0  0  0  0  0  0
   26.0157  -12.1240  -16.2042 O   0  0  0  0  0  0  0  0  0  0  0  0
  2  1  1  0
  2  3  1  0
  3  4  1  6
  5  7  1  0
  5  3  1  0
  5  6  1  1
  7  8  2  0
  9 10  1  0
  9  7  1  0
 10 11  1  6
 11 12  1  0
 13 10  1  0
 14 13  2  0
 16 15  1  1
 17 16  1  0
 18 16  1  0
 19 18  1  1
 19 20  1  0
 20 13  1  0
 21 22  1  0
 21 19  1  0
 23 21  2  0
M  END
$$$$
