ICL.pdb
     RDKit          3D

 23 22  0  0  1  0  0  0  0  0999 V2000
   19.6642  -19.5072  -17.3903 C   0  0  0  0  0  0  0  0  0  0  0  0
   20.9201  -20.2113  -17.8381 C   0  0  0  0  0  0  0  0  0  0  0  0
   21.7782  -20.6987  -16.7267 C   0  0  2  0  0  0  0  0  0  0  0  0
   22.1191  -19.4990  -15.8429 C   0  0  0  0  0  0  0  0  0  0  0  0
   23.0206  -21.4302  -17.1192 C   0  0  2  0  0  0  0  0  0  0  0  0
   22.5602  -22.6757  -17.7708 N   0  0  0  0  0  0  0  0  0  0  0  0
   23.9310  -21.8088  -16.0476 C   0  0  0  0  0  0  0  0  0  0  0  0
   23.7229  -22.9186  -15.4265 O   0  0  0  0  0  0  0  0  0  0  0  0
   25.0630  -21.1084  -15.5670 N   0  0  0  0  0  0  0  0  0  0  0  0
   25.8553  -21.5411  -14.4515 C   0  0  1  0  0  0  0  0  0  0  0  0
   27.3159  -21.3578  -14.9070 C   0  0  0  0  0  0  0  0  0  0  0  0
   27.5991  -19.6276  -15.3806 S   0  0  0  0  0  0  0  0  0  0  0  0
   25.5982  -20.8668  -13.1817 C   0  0  0  0  0  0  0  0  0  0  0  0
   25.4062  -19.5979  -13.1584 O   0  0  0  0  0  0  0  0  0  0  0  0
   22.3103  -21.0476   -8.4788 C   0  0  0  0  0  0  0  0  0  0  0  0
   23.2800  -20.3150   -9.4242 C   0  0  2  0  0  0  0  0  0  0  0  0
   22.4829  -19.8220  -10.5787 C   0  0  0  0  0  0  0  0  0  0  0  0
   24.3646  -21.2671   -9.7569 C   0  0  0  0  0  0  0  0  0  0  0  0
   25.4342  -20.7119  -10.6524 C   0  0  2  0  0  0  0  0  0  0  0  0
   25.5288  -21.4667  -11.8970 N   0  0  0  0  0  0  0  0  0  0  0  0
   26.7243  -20.5919   -9.9768 C   0  0  0  0  0  0  0  0  0  0  0  0
   26.8396  -19.6153   -8.9676 O   0  0  0  0  0  0  0  0  0  0  0  0
   27.7566  -21.2648  -10.1918 O   0  0  0  0  0  0  0  0  0  0  0  0
  2  1  1  0
  2  3  1  0
  3  4  1  6
  5  7  1  0
  5  3  1  0
  5  6  1  1
  7  8  2  0
  9 10  1  0
  9  7  1  0
 10 11  1  6
 11 12  1  0
 13 10  1  0
 14 13  2  0
 16 15  1  1
 17 16  1  0
 18 16  1  0
 19 18  1  1
 19 20  1  0
 20 13  1  0
 21 22  1  0
 21 19  1  0
 23 21  2  0
M  END
$$$$
