MSN.pdb
     RDKit          3D

 23 22  0  0  1  0  0  0  0  0999 V2000
    8.0764  -11.3780   26.5111 C   0  0  0  0  0  0  0  0  0  0  0  0
    6.8251  -12.3464   27.3897 S   0  0  0  0  0  0  0  0  0  0  0  0
    6.1852  -13.6045   26.2490 C   0  0  0  0  0  0  0  0  0  0  0  0
    7.3777  -14.4581   25.8184 C   0  0  0  0  0  0  0  0  0  0  0  0
    6.8430  -15.4179   24.7673 C   0  0  2  0  0  0  0  0  0  0  0  0
    5.8756  -16.3333   25.3520 N   0  0  0  0  0  0  0  0  0  0  0  0
    8.0057  -16.2418   24.3227 C   0  0  0  0  0  0  0  0  0  0  0  0
    8.4438  -17.2186   25.0049 O   0  0  0  0  0  0  0  0  0  0  0  0
   10.5607  -14.9049   21.3528 O   0  0  0  0  0  0  0  0  0  0  0  0
   10.1047  -16.2221   21.2147 C   0  0  0  0  0  0  0  0  0  0  0  0
    9.8383  -16.7148   22.6436 C   0  0  2  0  0  0  0  0  0  0  0  0
    8.6812  -15.9678   23.1047 N   0  0  0  0  0  0  0  0  0  0  0  0
   11.0073  -16.5181   23.5073 C   0  0  0  0  0  0  0  0  0  0  0  0
   10.9235  -15.6320   24.4022 O   0  0  0  0  0  0  0  0  0  0  0  0
   11.1152  -18.8231   26.6212 N   0  0  0  0  0  0  0  0  0  0  0  0
   12.1907  -17.9257   26.4867 C   0  0  0  0  0  0  0  0  0  0  0  0
   12.3302  -16.9160   27.2526 O   0  0  0  0  0  0  0  0  0  0  0  0
   13.2022  -18.1134   25.4555 C   0  0  0  0  0  0  0  0  0  0  0  0
   13.2608  -17.0975   24.3746 C   0  0  2  0  0  0  0  0  0  0  0  0
   12.2087  -17.2465   23.4063 N   0  0  0  0  0  0  0  0  0  0  0  0
   14.5834  -16.9941   23.7125 C   0  0  0  0  0  0  0  0  0  0  0  0
   15.5768  -16.7415   24.4220 O   0  0  0  0  0  0  0  0  0  0  0  0
   14.7777  -17.1603   22.3634 O   0  0  0  0  0  0  0  0  0  0  0  0
  2  1  1  0
  3  2  1  0
  4  5  1  0
  4  3  1  0
  5  7  1  0
  5  6  1  1
  7  8  2  0
  9 10  1  0
 11 10  1  6
 11 13  1  0
 12  7  1  0
 12 11  1  0
 13 20  1  0
 14 13  2  0
 16 15  1  0
 17 16  2  0
 18 16  1  0
 19 18  1  1
 20 19  1  0
 21 23  1  0
 21 19  1  0
 22 21  2  0
M  END
$$$$
