MSN.pdb
     RDKit          3D

 23 22  0  0  1  0  0  0  0  0999 V2000
    7.0958  -12.2222   28.2601 C   0  0  0  0  0  0  0  0  0  0  0  0
    6.1691  -11.9171   26.7358 S   0  0  0  0  0  0  0  0  0  0  0  0
    5.6963  -13.5229   26.0349 C   0  0  0  0  0  0  0  0  0  0  0  0
    6.9358  -14.0831   25.3378 C   0  0  0  0  0  0  0  0  0  0  0  0
    6.5394  -15.4605   24.8301 C   0  0  2  0  0  0  0  0  0  0  0  0
    6.3263  -16.3756   25.9404 N   0  0  0  0  0  0  0  0  0  0  0  0
    7.7107  -15.9763   24.0618 C   0  0  0  0  0  0  0  0  0  0  0  0
    8.6161  -16.6839   24.6014 O   0  0  0  0  0  0  0  0  0  0  0  0
    8.7854  -14.5340   20.2632 O   0  0  0  0  0  0  0  0  0  0  0  0
    8.5773  -15.9105   20.4178 C   0  0  0  0  0  0  0  0  0  0  0  0
    8.9554  -16.2206   21.8727 C   0  0  2  0  0  0  0  0  0  0  0  0
    7.8670  -15.6965   22.6790 N   0  0  0  0  0  0  0  0  0  0  0  0
   10.2482  -15.6276   22.2307 C   0  0  0  0  0  0  0  0  0  0  0  0
   10.2291  -14.5678   22.9161 O   0  0  0  0  0  0  0  0  0  0  0  0
   14.6999  -16.2673   24.7226 N   0  0  0  0  0  0  0  0  0  0  0  0
   13.4150  -16.7324   25.0582 C   0  0  0  0  0  0  0  0  0  0  0  0
   13.1532  -17.2343   26.2007 O   0  0  0  0  0  0  0  0  0  0  0  0
   12.3162  -16.6600   24.1047 C   0  0  0  0  0  0  0  0  0  0  0  0
   12.6251  -16.1146   22.7589 C   0  0  2  0  0  0  0  0  0  0  0  0
   11.5008  -16.1572   21.8641 N   0  0  0  0  0  0  0  0  0  0  0  0
   13.8302  -16.7053   22.1288 C   0  0  0  0  0  0  0  0  0  0  0  0
   14.9479  -16.3168   22.5210 O   0  0  0  0  0  0  0  0  0  0  0  0
   13.7868  -17.6554   21.1383 O   0  0  0  0  0  0  0  0  0  0  0  0
  2  1  1  0
  3  2  1  0
  4  5  1  0
  4  3  1  0
  5  7  1  0
  5  6  1  1
  7  8  2  0
  9 10  1  0
 11 10  1  6
 11 13  1  0
 12  7  1  0
 12 11  1  0
 13 20  1  0
 14 13  2  0
 16 15  1  0
 17 16  2  0
 18 16  1  0
 19 18  1  1
 20 19  1  0
 21 23  1  0
 21 19  1  0
 22 21  2  0
M  END
$$$$
