MSN.pdb
     RDKit          3D

 23 22  0  0  1  0  0  0  0  0999 V2000
    7.6339  -11.6380   26.8485 C   0  0  0  0  0  0  0  0  0  0  0  0
    6.1034  -12.2932   26.1387 S   0  0  0  0  0  0  0  0  0  0  0  0
    5.9893  -14.0511   26.5752 C   0  0  0  0  0  0  0  0  0  0  0  0
    7.2396  -14.7279   26.0141 C   0  0  0  0  0  0  0  0  0  0  0  0
    6.7442  -15.7088   24.9632 C   0  0  2  0  0  0  0  0  0  0  0  0
    5.9762  -16.7788   25.5805 N   0  0  0  0  0  0  0  0  0  0  0  0
    7.9616  -16.3359   24.3692 C   0  0  0  0  0  0  0  0  0  0  0  0
    8.6498  -17.2019   24.9921 O   0  0  0  0  0  0  0  0  0  0  0  0
    9.4012  -14.7960   20.9700 O   0  0  0  0  0  0  0  0  0  0  0  0
    9.4512  -16.1954   20.9380 C   0  0  0  0  0  0  0  0  0  0  0  0
    9.5294  -16.6358   22.4061 C   0  0  2  0  0  0  0  0  0  0  0  0
    8.4097  -15.9892   23.0677 N   0  0  0  0  0  0  0  0  0  0  0  0
   10.8163  -16.2730   23.0089 C   0  0  0  0  0  0  0  0  0  0  0  0
   10.8757  -15.1763   23.6308 O   0  0  0  0  0  0  0  0  0  0  0  0
   12.6108  -19.8218   25.0225 N   0  0  0  0  0  0  0  0  0  0  0  0
   13.1474  -18.5479   25.2856 C   0  0  0  0  0  0  0  0  0  0  0  0
   13.0162  -17.9783   26.4188 O   0  0  0  0  0  0  0  0  0  0  0  0
   13.8842  -17.8166   24.2637 C   0  0  0  0  0  0  0  0  0  0  0  0
   13.1898  -16.6739   23.6186 C   0  0  2  0  0  0  0  0  0  0  0  0
   11.9822  -17.0605   22.9412 N   0  0  0  0  0  0  0  0  0  0  0  0
   14.0582  -15.8587   22.7358 C   0  0  0  0  0  0  0  0  0  0  0  0
   13.7647  -15.7883   21.5263 O   0  0  0  0  0  0  0  0  0  0  0  0
   15.1671  -15.1767   23.1728 O   0  0  0  0  0  0  0  0  0  0  0  0
  2  1  1  0
  3  2  1  0
  4  5  1  0
  4  3  1  0
  5  7  1  0
  5  6  1  1
  7  8  2  0
  9 10  1  0
 11 10  1  6
 11 13  1  0
 12  7  1  0
 12 11  1  0
 13 20  1  0
 14 13  2  0
 16 15  1  0
 17 16  2  0
 18 16  1  0
 19 18  1  6
 20 19  1  0
 21 23  1  0
 21 19  1  0
 22 21  2  0
M  END
$$$$
