MSN.pdb
     RDKit          3D

 23 22  0  0  1  0  0  0  0  0999 V2000
    6.8165  -11.4530   19.8239 C   0  0  0  0  0  0  0  0  0  0  0  0
    7.8256  -12.5637   18.8122 S   0  0  0  0  0  0  0  0  0  0  0  0
    7.9185  -14.1661   19.6591 C   0  0  0  0  0  0  0  0  0  0  0  0
    8.7492  -15.0893   18.7683 C   0  0  0  0  0  0  0  0  0  0  0  0
    8.6888  -16.4610   19.4217 C   0  0  2  0  0  0  0  0  0  0  0  0
    7.3210  -16.7976   19.7845 N   0  0  0  0  0  0  0  0  0  0  0  0
    9.4609  -16.3525   20.6946 C   0  0  0  0  0  0  0  0  0  0  0  0
   10.7153  -16.1583   20.7113 O   0  0  0  0  0  0  0  0  0  0  0  0
    9.1764  -15.9285   25.4787 O   0  0  0  0  0  0  0  0  0  0  0  0
    8.4685  -16.1204   24.2854 C   0  0  0  0  0  0  0  0  0  0  0  0
    9.5329  -16.4255   23.2226 C   0  0  2  0  0  0  0  0  0  0  0  0
    8.8213  -16.4626   21.9571 N   0  0  0  0  0  0  0  0  0  0  0  0
   10.2303  -17.6843   23.5055 C   0  0  0  0  0  0  0  0  0  0  0  0
   10.1269  -18.6081   22.6516 O   0  0  0  0  0  0  0  0  0  0  0  0
   13.2908  -20.3872   21.4361 N   0  0  0  0  0  0  0  0  0  0  0  0
   12.6718  -20.3097   22.6973 C   0  0  0  0  0  0  0  0  0  0  0  0
   11.9731  -21.2662   23.1690 O   0  0  0  0  0  0  0  0  0  0  0  0
   12.8039  -19.1203   23.5279 C   0  0  0  0  0  0  0  0  0  0  0  0
   11.9262  -19.0299   24.7218 C   0  0  2  0  0  0  0  0  0  0  0  0
   11.0024  -17.9303   24.6576 N   0  0  0  0  0  0  0  0  0  0  0  0
   12.6569  -19.0371   26.0118 C   0  0  0  0  0  0  0  0  0  0  0  0
   13.0246  -20.1358   26.4720 O   0  0  0  0  0  0  0  0  0  0  0  0
   12.9522  -17.9041   26.7293 O   0  0  0  0  0  0  0  0  0  0  0  0
  2  1  1  0
  3  2  1  0
  4  5  1  0
  4  3  1  0
  5  7  1  0
  5  6  1  1
  7  8  2  0
  9 10  1  0
 11 10  1  1
 11 13  1  0
 12  7  1  0
 12 11  1  0
 13 20  1  0
 14 13  2  0
 16 15  1  0
 17 16  2  0
 18 16  1  0
 19 18  1  6
 20 19  1  0
 21 23  1  0
 21 19  1  0
 22 21  2  0
M  END
$$$$
