MSN.pdb
     RDKit          3D

 23 22  0  0  1  0  0  0  0  0999 V2000
    7.2650  -12.1482   20.4834 C   0  0  0  0  0  0  0  0  0  0  0  0
    7.6982  -12.7222   18.8226 S   0  0  0  0  0  0  0  0  0  0  0  0
    7.6456  -14.5363   18.8238 C   0  0  0  0  0  0  0  0  0  0  0  0
    7.5444  -14.9745   20.2845 C   0  0  0  0  0  0  0  0  0  0  0  0
    7.4952  -16.4941   20.2594 C   0  0  2  0  0  0  0  0  0  0  0  0
    6.3581  -16.9586   19.4803 N   0  0  0  0  0  0  0  0  0  0  0  0
    7.2621  -16.9286   21.6683 C   0  0  0  0  0  0  0  0  0  0  0  0
    7.0551  -16.0996   22.6072 O   0  0  0  0  0  0  0  0  0  0  0  0
    6.2983  -20.4341   21.9655 O   0  0  0  0  0  0  0  0  0  0  0  0
    6.7542  -20.2612   23.2786 C   0  0  0  0  0  0  0  0  0  0  0  0
    7.1207  -18.7752   23.3921 C   0  0  2  0  0  0  0  0  0  0  0  0
    7.2609  -18.3023   22.0261 N   0  0  0  0  0  0  0  0  0  0  0  0
    8.3451  -18.5813   24.1760 C   0  0  0  0  0  0  0  0  0  0  0  0
    9.4451  -18.6723   23.5637 O   0  0  0  0  0  0  0  0  0  0  0  0
    9.7524  -15.6864   24.4793 N   0  0  0  0  0  0  0  0  0  0  0  0
    9.4168  -15.6703   25.8457 C   0  0  0  0  0  0  0  0  0  0  0  0
    8.7388  -14.7239   26.3656 O   0  0  0  0  0  0  0  0  0  0  0  0
    9.8339  -16.7457   26.7352 C   0  0  0  0  0  0  0  0  0  0  0  0
    9.6180  -18.1359   26.2611 C   0  0  2  0  0  0  0  0  0  0  0  0
    8.3761  -18.3023   25.5564 N   0  0  0  0  0  0  0  0  0  0  0  0
    9.7741  -19.1660   27.3160 C   0  0  0  0  0  0  0  0  0  0  0  0
    8.8112  -19.9247   27.5426 O   0  0  0  0  0  0  0  0  0  0  0  0
   10.9174  -19.3328   28.0580 O   0  0  0  0  0  0  0  0  0  0  0  0
  2  1  1  0
  3  2  1  0
  4  5  1  0
  4  3  1  0
  5  7  1  0
  5  6  1  6
  7  8  2  0
  9 10  1  0
 11 10  1  6
 11 13  1  0
 12  7  1  0
 12 11  1  0
 13 20  1  0
 14 13  2  0
 16 15  1  0
 17 16  2  0
 18 16  1  0
 19 18  1  1
 20 19  1  0
 21 23  1  0
 21 19  1  0
 22 21  2  0
M  END
$$$$
