MSN.pdb
     RDKit          3D

 23 22  0  0  1  0  0  0  0  0999 V2000
    7.1110  -11.1654   26.8075 C   0  0  0  0  0  0  0  0  0  0  0  0
    6.0297  -12.5426   26.3495 S   0  0  0  0  0  0  0  0  0  0  0  0
    6.5335  -13.9963   27.3119 C   0  0  0  0  0  0  0  0  0  0  0  0
    7.4778  -14.8077   26.4254 C   0  0  0  0  0  0  0  0  0  0  0  0
    6.5839  -15.6445   25.5237 C   0  0  2  0  0  0  0  0  0  0  0  0
    6.1531  -16.8542   26.2069 N   0  0  0  0  0  0  0  0  0  0  0  0
    7.4340  -16.0748   24.3746 C   0  0  0  0  0  0  0  0  0  0  0  0
    8.1805  -17.1000   24.4311 O   0  0  0  0  0  0  0  0  0  0  0  0
    8.7578  -15.0577   19.8342 O   0  0  0  0  0  0  0  0  0  0  0  0
    7.9310  -14.7164   20.9121 C   0  0  0  0  0  0  0  0  0  0  0  0
    8.3750  -15.6201   22.0705 C   0  0  2  0  0  0  0  0  0  0  0  0
    7.4465  -15.3501   23.1541 N   0  0  0  0  0  0  0  0  0  0  0  0
    9.7668  -15.3597   22.4530 C   0  0  0  0  0  0  0  0  0  0  0  0
    9.9698  -14.4811   23.3361 O   0  0  0  0  0  0  0  0  0  0  0  0
   11.4499  -18.1612   24.5586 N   0  0  0  0  0  0  0  0  0  0  0  0
   12.5586  -17.3435   24.2717 C   0  0  0  0  0  0  0  0  0  0  0  0
   13.7572  -17.7626   24.3868 O   0  0  0  0  0  0  0  0  0  0  0  0
   12.3831  -15.9679   23.8260 C   0  0  0  0  0  0  0  0  0  0  0  0
   12.2181  -15.7469   22.3672 C   0  0  2  0  0  0  0  0  0  0  0  0
   10.8843  -16.0194   21.9053 N   0  0  0  0  0  0  0  0  0  0  0  0
   13.2243  -16.4454   21.5319 C   0  0  0  0  0  0  0  0  0  0  0  0
   14.4299  -16.2134   21.7484 O   0  0  0  0  0  0  0  0  0  0  0  0
   12.9056  -17.3328   20.5336 O   0  0  0  0  0  0  0  0  0  0  0  0
  2  1  1  0
  3  2  1  0
  4  5  1  0
  4  3  1  0
  5  7  1  0
  5  6  1  1
  7  8  2  0
  9 10  1  0
 11 10  1  6
 11 13  1  0
 12  7  1  0
 12 11  1  0
 13 20  1  0
 14 13  2  0
 16 15  1  0
 17 16  2  0
 18 16  1  0
 19 18  1  1
 20 19  1  0
 21 23  1  0
 21 19  1  0
 22 21  2  0
M  END
$$$$
