MSN.pdb
     RDKit          3D

 23 22  0  0  1  0  0  0  0  0999 V2000
    7.6622  -11.4417   25.9294 C   0  0  0  0  0  0  0  0  0  0  0  0
    6.2116  -12.3991   25.4249 S   0  0  0  0  0  0  0  0  0  0  0  0
    6.0588  -13.8193   26.5444 C   0  0  0  0  0  0  0  0  0  0  0  0
    7.2472  -14.7370   26.2589 C   0  0  0  0  0  0  0  0  0  0  0  0
    6.8777  -15.5171   25.0070 C   0  0  2  0  0  0  0  0  0  0  0  0
    5.8132  -16.4673   25.2892 N   0  0  0  0  0  0  0  0  0  0  0  0
    8.0848  -16.3147   24.6395 C   0  0  0  0  0  0  0  0  0  0  0  0
    8.3667  -17.4158   25.2048 O   0  0  0  0  0  0  0  0  0  0  0  0
   10.1290  -15.3443   21.2534 O   0  0  0  0  0  0  0  0  0  0  0  0
   10.0648  -16.6796   21.6715 C   0  0  0  0  0  0  0  0  0  0  0  0
   10.1435  -16.6329   23.2036 C   0  0  2  0  0  0  0  0  0  0  0  0
    8.9813  -15.8740   23.6311 N   0  0  0  0  0  0  0  0  0  0  0  0
   11.4001  -16.0296   23.6597 C   0  0  0  0  0  0  0  0  0  0  0  0
   12.2649  -15.7591   22.7811 O   0  0  0  0  0  0  0  0  0  0  0  0
   10.3007  -15.9441   28.1550 N   0  0  0  0  0  0  0  0  0  0  0  0
   11.1550  -17.0478   27.9766 C   0  0  0  0  0  0  0  0  0  0  0  0
   11.6621  -17.6782   28.9620 O   0  0  0  0  0  0  0  0  0  0  0  0
   11.5008  -17.5233   26.6439 C   0  0  0  0  0  0  0  0  0  0  0  0
   12.4084  -16.6694   25.8369 C   0  0  2  0  0  0  0  0  0  0  0  0
   11.7047  -15.7336   25.0027 N   0  0  0  0  0  0  0  0  0  0  0  0
   13.4158  -17.4265   25.0559 C   0  0  0  0  0  0  0  0  0  0  0  0
   14.5665  -17.5283   25.5246 O   0  0  0  0  0  0  0  0  0  0  0  0
   13.1553  -18.0219   23.8462 O   0  0  0  0  0  0  0  0  0  0  0  0
  2  1  1  0
  3  2  1  0
  4  5  1  0
  4  3  1  0
  5  7  1  0
  5  6  1  1
  7  8  2  0
  9 10  1  0
 11 10  1  6
 11 13  1  0
 12  7  1  0
 12 11  1  0
 13 20  1  0
 14 13  2  0
 16 15  1  0
 17 16  2  0
 18 16  1  0
 19 18  1  6
 20 19  1  0
 21 23  1  0
 21 19  1  0
 22 21  2  0
M  END
$$$$
