MSN.pdb
     RDKit          3D

 23 22  0  0  1  0  0  0  0  0999 V2000
    7.2728  -11.4131   26.2629 C   0  0  0  0  0  0  0  0  0  0  0  0
    6.2384  -12.5806   27.1807 S   0  0  0  0  0  0  0  0  0  0  0  0
    5.8259  -13.9572   26.0724 C   0  0  0  0  0  0  0  0  0  0  0  0
    7.1501  -14.5691   25.6160 C   0  0  0  0  0  0  0  0  0  0  0  0
    6.7802  -15.6960   24.6644 C   0  0  2  0  0  0  0  0  0  0  0  0
    6.1451  -16.7888   25.3841 N   0  0  0  0  0  0  0  0  0  0  0  0
    8.0665  -16.2241   24.1213 C   0  0  0  0  0  0  0  0  0  0  0  0
    8.7560  -17.0933   24.7382 O   0  0  0  0  0  0  0  0  0  0  0  0
    9.1783  -15.9786   20.0750 O   0  0  0  0  0  0  0  0  0  0  0  0
   10.0417  -15.4273   21.0303 C   0  0  0  0  0  0  0  0  0  0  0  0
    9.8261  -16.2567   22.3036 C   0  0  2  0  0  0  0  0  0  0  0  0
    8.5824  -15.7742   22.8778 N   0  0  0  0  0  0  0  0  0  0  0  0
   10.9551  -16.1230   23.2303 C   0  0  0  0  0  0  0  0  0  0  0  0
   10.7554  -15.4781   24.2969 O   0  0  0  0  0  0  0  0  0  0  0  0
   13.6163  -19.4501   26.5309 N   0  0  0  0  0  0  0  0  0  0  0  0
   12.6056  -18.5238   26.2140 C   0  0  0  0  0  0  0  0  0  0  0  0
   11.9908  -17.8586   27.1114 O   0  0  0  0  0  0  0  0  0  0  0  0
   12.2135  -18.2820   24.8321 C   0  0  0  0  0  0  0  0  0  0  0  0
   12.9900  -17.2660   24.0780 C   0  0  2  0  0  0  0  0  0  0  0  0
   12.2380  -16.6619   23.0121 N   0  0  0  0  0  0  0  0  0  0  0  0
   14.3067  -17.7469   23.5951 C   0  0  0  0  0  0  0  0  0  0  0  0
   15.3228  -17.4220   24.2400 O   0  0  0  0  0  0  0  0  0  0  0  0
   14.4721  -18.5292   22.4787 O   0  0  0  0  0  0  0  0  0  0  0  0
  2  1  1  0
  3  2  1  0
  4  5  1  0
  4  3  1  0
  5  7  1  0
  5  6  1  1
  7  8  2  0
  9 10  1  0
 11 10  1  6
 11 13  1  0
 12  7  1  0
 12 11  1  0
 13 20  1  0
 14 13  2  0
 16 15  1  0
 17 16  2  0
 18 16  1  0
 19 18  1  6
 20 19  1  0
 21 23  1  0
 21 19  1  0
 22 21  2  0
M  END
$$$$
