MSN.pdb
     RDKit          3D

 23 22  0  0  1  0  0  0  0  0999 V2000
    8.0049  -11.9351   27.7072 C   0  0  0  0  0  0  0  0  0  0  0  0
    6.5088  -11.8096   26.6966 S   0  0  0  0  0  0  0  0  0  0  0  0
    6.0264  -13.4861   26.1966 C   0  0  0  0  0  0  0  0  0  0  0  0
    7.1890  -14.0571   25.3851 C   0  0  0  0  0  0  0  0  0  0  0  0
    6.6994  -15.3891   24.8392 C   0  0  2  0  0  0  0  0  0  0  0  0
    6.5541  -16.3616   25.9111 N   0  0  0  0  0  0  0  0  0  0  0  0
    7.7776  -15.8941   23.9387 C   0  0  0  0  0  0  0  0  0  0  0  0
    8.4704  -16.9197   24.2209 O   0  0  0  0  0  0  0  0  0  0  0  0
    7.1229  -15.7253   20.1896 O   0  0  0  0  0  0  0  0  0  0  0  0
    8.4221  -15.2299   20.3587 C   0  0  0  0  0  0  0  0  0  0  0  0
    8.9191  -15.8280   21.6818 C   0  0  2  0  0  0  0  0  0  0  0  0
    8.0802  -15.2441   22.7136 N   0  0  0  0  0  0  0  0  0  0  0  0
   10.3425  -15.5477   21.8979 C   0  0  0  0  0  0  0  0  0  0  0  0
   11.1061  -15.6232   20.8958 O   0  0  0  0  0  0  0  0  0  0  0  0
   12.4285  -19.2403   25.3760 N   0  0  0  0  0  0  0  0  0  0  0  0
   11.9318  -17.9264   25.4598 C   0  0  0  0  0  0  0  0  0  0  0  0
   12.0410  -17.2273   26.5204 O   0  0  0  0  0  0  0  0  0  0  0  0
   11.2641  -17.3011   24.3262 C   0  0  0  0  0  0  0  0  0  0  0  0
   11.8677  -16.0549   23.7907 C   0  0  2  0  0  0  0  0  0  0  0  0
   10.9108  -15.2023   23.1396 N   0  0  0  0  0  0  0  0  0  0  0  0
   13.0541  -16.2787   22.9301 C   0  0  0  0  0  0  0  0  0  0  0  0
   14.0835  -15.6163   23.1658 O   0  0  0  0  0  0  0  0  0  0  0  0
   13.0850  -17.1730   21.8885 O   0  0  0  0  0  0  0  0  0  0  0  0
  2  1  1  0
  3  2  1  0
  4  5  1  0
  4  3  1  0
  5  7  1  0
  5  6  1  1
  7  8  2  0
  9 10  1  0
 11 10  1  6
 11 13  1  0
 12  7  1  0
 12 11  1  0
 13 20  1  0
 14 13  2  0
 16 15  1  0
 17 16  2  0
 18 16  1  0
 19 18  1  6
 20 19  1  0
 21 23  1  0
 21 19  1  0
 22 21  2  0
M  END
$$$$
