MSN.pdb
     RDKit          3D

 23 22  0  0  1  0  0  0  0  0999 V2000
    7.8450  -11.9856   19.6629 C   0  0  0  0  0  0  0  0  0  0  0  0
    6.6154  -13.2059   20.1869 S   0  0  0  0  0  0  0  0  0  0  0  0
    7.5000  -14.6717   20.7889 C   0  0  0  0  0  0  0  0  0  0  0  0
    8.2940  -15.2255   19.6062 C   0  0  0  0  0  0  0  0  0  0  0  0
    8.9482  -16.5034   20.1074 C   0  0  2  0  0  0  0  0  0  0  0  0
    7.9869  -17.3251   20.8261 N   0  0  0  0  0  0  0  0  0  0  0  0
    9.9843  -16.0829   21.0964 C   0  0  0  0  0  0  0  0  0  0  0  0
   11.0560  -15.4989   20.7475 O   0  0  0  0  0  0  0  0  0  0  0  0
    9.8765  -17.6506   24.7981 O   0  0  0  0  0  0  0  0  0  0  0  0
   10.1586  -16.2793   24.8407 C   0  0  0  0  0  0  0  0  0  0  0  0
   10.8030  -15.9518   23.4868 C   0  0  2  0  0  0  0  0  0  0  0  0
    9.8166  -16.3191   22.4860 N   0  0  0  0  0  0  0  0  0  0  0  0
   12.0705  -16.6675   23.3070 C   0  0  0  0  0  0  0  0  0  0  0  0
   12.3871  -16.9980   22.1308 O   0  0  0  0  0  0  0  0  0  0  0  0
   16.8111  -18.1597   21.9761 N   0  0  0  0  0  0  0  0  0  0  0  0
   16.4462  -17.2359   22.9727 C   0  0  0  0  0  0  0  0  0  0  0  0
   17.3018  -16.7224   23.7664 O   0  0  0  0  0  0  0  0  0  0  0  0
   15.0602  -16.8214   23.1429 C   0  0  0  0  0  0  0  0  0  0  0  0
   14.2307  -17.6108   24.0879 C   0  0  2  0  0  0  0  0  0  0  0  0
   12.9523  -17.0083   24.3512 N   0  0  0  0  0  0  0  0  0  0  0  0
   14.9230  -17.9647   25.3502 C   0  0  0  0  0  0  0  0  0  0  0  0
   15.5265  -19.0542   25.4032 O   0  0  0  0  0  0  0  0  0  0  0  0
   14.9381  -17.1623   26.4645 O   0  0  0  0  0  0  0  0  0  0  0  0
  2  1  1  0
  3  2  1  0
  4  5  1  0
  4  3  1  0
  5  7  1  0
  5  6  1  1
  7  8  2  0
  9 10  1  0
 11 10  1  1
 11 13  1  0
 12  7  1  0
 12 11  1  0
 13 20  1  0
 14 13  2  0
 16 15  1  0
 17 16  2  0
 18 16  1  0
 19 18  1  1
 20 19  1  0
 21 23  1  0
 21 19  1  0
 22 21  2  0
M  END
$$$$
