MSN.pdb
     RDKit          3D

 23 22  0  0  1  0  0  0  0  0999 V2000
    5.6971  -10.7185   26.2457 C   0  0  0  0  0  0  0  0  0  0  0  0
    6.9990  -11.9679   26.3862 S   0  0  0  0  0  0  0  0  0  0  0  0
    6.5022  -13.4098   25.4025 C   0  0  0  0  0  0  0  0  0  0  0  0
    7.6431  -14.4227   25.4957 C   0  0  0  0  0  0  0  0  0  0  0  0
    7.2321  -15.5927   24.6158 C   0  0  2  0  0  0  0  0  0  0  0  0
    6.1125  -16.3103   25.2050 N   0  0  0  0  0  0  0  0  0  0  0  0
    8.3911  -16.5333   24.6021 C   0  0  0  0  0  0  0  0  0  0  0  0
    8.5620  -17.4105   25.5036 O   0  0  0  0  0  0  0  0  0  0  0  0
   11.7278  -15.8044   22.2465 O   0  0  0  0  0  0  0  0  0  0  0  0
   11.1911  -17.0959   22.1703 C   0  0  0  0  0  0  0  0  0  0  0  0
   10.5356  -17.3480   23.5350 C   0  0  2  0  0  0  0  0  0  0  0  0
    9.3646  -16.4895   23.5699 N   0  0  0  0  0  0  0  0  0  0  0  0
   11.4626  -17.0690   24.6368 C   0  0  0  0  0  0  0  0  0  0  0  0
   11.6996  -15.8579   24.9016 O   0  0  0  0  0  0  0  0  0  0  0  0
   11.4582  -16.0593   29.6611 N   0  0  0  0  0  0  0  0  0  0  0  0
   11.4012  -17.3215   29.0419 C   0  0  0  0  0  0  0  0  0  0  0  0
   11.5056  -18.4061   29.7039 O   0  0  0  0  0  0  0  0  0  0  0  0
   11.2185  -17.4452   27.6021 C   0  0  0  0  0  0  0  0  0  0  0  0
   12.4065  -17.8356   26.8019 C   0  0  2  0  0  0  0  0  0  0  0  0
   12.1016  -18.0547   25.4142 N   0  0  0  0  0  0  0  0  0  0  0  0
   13.1681  -18.9755   27.3664 C   0  0  0  0  0  0  0  0  0  0  0  0
   14.1847  -18.7248   28.0430 O   0  0  0  0  0  0  0  0  0  0  0  0
   12.8190  -20.2915   27.1873 O   0  0  0  0  0  0  0  0  0  0  0  0
  2  1  1  0
  3  2  1  0
  4  5  1  0
  4  3  1  0
  5  7  1  0
  5  6  1  1
  7  8  2  0
  9 10  1  0
 11 10  1  6
 11 13  1  0
 12  7  1  0
 12 11  1  0
 13 20  1  0
 14 13  2  0
 16 15  1  0
 17 16  2  0
 18 16  1  0
 19 18  1  1
 20 19  1  0
 21 23  1  0
 21 19  1  0
 22 21  2  0
M  END
$$$$
