MSN.pdb
     RDKit          3D

 23 22  0  0  1  0  0  0  0  0999 V2000
    5.3360  -11.9284   26.1092 C   0  0  0  0  0  0  0  0  0  0  0  0
    7.0873  -12.3852   26.1133 S   0  0  0  0  0  0  0  0  0  0  0  0
    7.3193  -13.7319   24.9192 C   0  0  0  0  0  0  0  0  0  0  0  0
    6.3538  -14.8476   25.3181 C   0  0  0  0  0  0  0  0  0  0  0  0
    6.5075  -15.9277   24.2590 C   0  0  2  0  0  0  0  0  0  0  0  0
    5.5727  -17.0166   24.4961 N   0  0  0  0  0  0  0  0  0  0  0  0
    7.8799  -16.4894   24.4302 C   0  0  0  0  0  0  0  0  0  0  0  0
    8.2056  -17.1850   25.4410 O   0  0  0  0  0  0  0  0  0  0  0  0
   11.0406  -15.4378   21.8937 O   0  0  0  0  0  0  0  0  0  0  0  0
   10.7598  -16.7970   22.0822 C   0  0  0  0  0  0  0  0  0  0  0  0
   10.1983  -16.9052   23.5065 C   0  0  2  0  0  0  0  0  0  0  0  0
    8.8933  -16.2695   23.4609 N   0  0  0  0  0  0  0  0  0  0  0  0
   11.0900  -16.2748   24.4857 C   0  0  0  0  0  0  0  0  0  0  0  0
   10.9737  -15.0298   24.6573 O   0  0  0  0  0  0  0  0  0  0  0  0
   11.2503  -14.8684   29.3802 N   0  0  0  0  0  0  0  0  0  0  0  0
   11.3421  -16.1702   28.8542 C   0  0  0  0  0  0  0  0  0  0  0  0
   11.6029  -17.1803   29.5872 O   0  0  0  0  0  0  0  0  0  0  0  0
   11.1408  -16.4232   27.4338 C   0  0  0  0  0  0  0  0  0  0  0  0
   12.3570  -16.5869   26.5983 C   0  0  2  0  0  0  0  0  0  0  0  0
   12.0606  -16.9603   25.2421 N   0  0  0  0  0  0  0  0  0  0  0  0
   13.3790  -17.4853   27.1870 C   0  0  0  0  0  0  0  0  0  0  0  0
   13.3622  -18.6879   26.8592 O   0  0  0  0  0  0  0  0  0  0  0  0
   14.3428  -17.0699   28.0725 O   0  0  0  0  0  0  0  0  0  0  0  0
  2  1  1  0
  3  2  1  0
  4  5  1  0
  4  3  1  0
  5  7  1  0
  5  6  1  1
  7  8  2  0
  9 10  1  0
 11 10  1  6
 11 13  1  0
 12  7  1  0
 12 11  1  0
 13 20  1  0
 14 13  2  0
 16 15  1  0
 17 16  2  0
 18 16  1  0
 19 18  1  1
 20 19  1  0
 21 23  1  0
 21 19  1  0
 22 21  2  0
M  END
$$$$
