LYC.pdb
     RDKit          3D

 27 27  0  0  1  0  0  0  0  0999 V2000
   27.1116  -17.6775  -18.0123 C   0  0  0  0  0  0  0  0  0  0  0  0
   27.7606  -18.9139  -17.4271 C   0  0  1  0  0  0  0  0  0  0  0  0
   29.0565  -18.4585  -16.7491 C   0  0  0  0  0  0  0  0  0  0  0  0
   26.9243  -19.5496  -16.3636 C   0  0  0  0  0  0  0  0  0  0  0  0
   27.5717  -20.7021  -15.6642 C   0  0  2  0  0  0  0  0  0  0  0  0
   27.5927  -21.8229  -16.6176 N   0  0  0  0  0  0  0  0  0  0  0  0
   26.8401  -21.1855  -14.4756 C   0  0  0  0  0  0  0  0  0  0  0  0
   25.8989  -22.0214  -14.6763 O   0  0  0  0  0  0  0  0  0  0  0  0
   24.3310  -20.3546   -5.8468 O   0  0  0  0  0  0  0  0  0  0  0  0
   24.9766  -20.5228   -7.0765 C   0  0  0  0  0  0  0  0  0  0  0  0
   24.7728  -21.6043   -7.8899 C   0  0  0  0  0  0  0  0  0  0  0  0
   25.4482  -21.7180   -9.1105 C   0  0  0  0  0  0  0  0  0  0  0  0
   26.3312  -20.7471   -9.5205 C   0  0  0  0  0  0  0  0  0  0  0  0
   27.0616  -20.8248  -10.7926 C   0  0  0  0  0  0  0  0  0  0  0  0
   26.2592  -21.1290  -12.0120 C   0  0  2  0  0  0  0  0  0  0  0  0
   27.1394  -20.7637  -13.1505 N   0  0  0  0  0  0  0  0  0  0  0  0
   25.0217  -20.3571  -12.1822 C   0  0  0  0  0  0  0  0  0  0  0  0
   25.1012  -19.0880  -12.1547 O   0  0  0  0  0  0  0  0  0  0  0  0
   26.5118  -19.6697   -8.6736 C   0  0  0  0  0  0  0  0  0  0  0  0
   25.8565  -19.5390   -7.4678 C   0  0  0  0  0  0  0  0  0  0  0  0
   23.7299  -20.9144  -12.3821 N   0  0  0  0  0  0  0  0  0  0  0  0
   22.5660  -20.0957  -12.2450 C   0  0  1  0  0  0  0  0  0  0  0  0
   22.0110  -19.6744  -13.6055 C   0  0  0  0  0  0  0  0  0  0  0  0
   23.1172  -20.2204  -14.9360 S   0  0  0  0  0  0  0  0  0  0  0  0
   21.4912  -20.7002  -11.4518 C   0  0  0  0  0  0  0  0  0  0  0  0
   21.5225  -21.9902  -10.9648 O   0  0  0  0  0  0  0  0  0  0  0  0
   20.4536  -20.0290  -11.1762 O   0  0  0  0  0  0  0  0  0  0  0  0
  2  1  1  1
  3  2  1  0
  4  5  1  0
  4  2  1  0
  5  6  1  6
  7  5  1  0
  7  8  2  0
  9 10  1  0
 10 11  2  0
 11 12  1  0
 13 12  2  0
 13 14  1  0
 15 14  1  1
 15 16  1  0
 16  7  1  0
 17 15  1  0
 18 17  2  0
 19 13  1  0
 20 10  1  0
 20 19  2  0
 21 17  1  0
 22 21  1  0
 22 25  1  0
 22 23  1  6
 24 23  1  0
 25 26  1  0
 27 25  2  0
M  END
$$$$
