LYC.pdb
     RDKit          3D

 27 27  0  0  1  0  0  0  0  0999 V2000
   36.6186  -26.7931  -19.1087 C   0  0  0  0  0  0  0  0  0  0  0  0
   35.5033  -27.7094  -18.6516 C   0  0  1  0  0  0  0  0  0  0  0  0
   34.8416  -28.2702  -19.9143 C   0  0  0  0  0  0  0  0  0  0  0  0
   36.0096  -28.8845  -17.8786 C   0  0  0  0  0  0  0  0  0  0  0  0
   34.9513  -29.8421  -17.4318 C   0  0  2  0  0  0  0  0  0  0  0  0
   34.0610  -29.1014  -16.5238 N   0  0  0  0  0  0  0  0  0  0  0  0
   35.4568  -30.9970  -16.6621 C   0  0  0  0  0  0  0  0  0  0  0  0
   36.2659  -31.7804  -17.2592 O   0  0  0  0  0  0  0  0  0  0  0  0
   37.9841  -35.7799   -9.5567 O   0  0  0  0  0  0  0  0  0  0  0  0
   37.5582  -34.8603  -10.5212 C   0  0  0  0  0  0  0  0  0  0  0  0
   38.0960  -34.7861  -11.7773 C   0  0  0  0  0  0  0  0  0  0  0  0
   37.6282  -33.8440  -12.7007 C   0  0  0  0  0  0  0  0  0  0  0  0
   36.6186  -32.9720  -12.3678 C   0  0  0  0  0  0  0  0  0  0  0  0
   36.0965  -31.9678  -13.3041 C   0  0  0  0  0  0  0  0  0  0  0  0
   35.5715  -32.4701  -14.6062 C   0  0  2  0  0  0  0  0  0  0  0  0
   35.0839  -31.2600  -15.3148 N   0  0  0  0  0  0  0  0  0  0  0  0
   34.4317  -33.3930  -14.5322 C   0  0  0  0  0  0  0  0  0  0  0  0
   33.2960  -32.9150  -14.2172 O   0  0  0  0  0  0  0  0  0  0  0  0
   36.0996  -33.0760  -11.0909 C   0  0  0  0  0  0  0  0  0  0  0  0
   36.5462  -33.9967  -10.1670 C   0  0  0  0  0  0  0  0  0  0  0  0
   34.4905  -34.7891  -14.7905 N   0  0  0  0  0  0  0  0  0  0  0  0
   33.3094  -35.5880  -14.6891 C   0  0  1  0  0  0  0  0  0  0  0  0
   32.1648  -35.0078  -15.5196 C   0  0  0  0  0  0  0  0  0  0  0  0
   32.2147  -35.6641  -17.2104 S   0  0  0  0  0  0  0  0  0  0  0  0
   33.4994  -36.9970  -15.0478 C   0  0  0  0  0  0  0  0  0  0  0  0
   32.4960  -37.9429  -15.0212 O   0  0  0  0  0  0  0  0  0  0  0  0
   34.6405  -37.4098  -15.4090 O   0  0  0  0  0  0  0  0  0  0  0  0
  2  1  1  6
  3  2  1  0
  4  5  1  0
  4  2  1  0
  5  6  1  1
  7  5  1  0
  7  8  2  0
  9 10  1  0
 10 11  2  0
 11 12  1  0
 13 12  2  0
 13 14  1  0
 15 14  1  1
 15 16  1  0
 16  7  1  0
 17 15  1  0
 18 17  2  0
 19 13  1  0
 20 10  1  0
 20 19  2  0
 21 17  1  0
 22 21  1  0
 22 25  1  0
 22 23  1  6
 24 23  1  0
 25 26  1  0
 27 25  2  0
M  END
$$$$
