LYC.pdb
     RDKit          3D

 27 27  0  0  1  0  0  0  0  0999 V2000
   27.7603  -16.8587  -18.5707 C   0  0  0  0  0  0  0  0  0  0  0  0
   28.3610  -18.1342  -18.0189 C   0  0  1  0  0  0  0  0  0  0  0  0
   29.5518  -17.7249  -17.1464 C   0  0  0  0  0  0  0  0  0  0  0  0
   27.4148  -18.8732  -17.1283 C   0  0  0  0  0  0  0  0  0  0  0  0
   28.0049  -20.0607  -16.4369 C   0  0  2  0  0  0  0  0  0  0  0  0
   28.1352  -21.1223  -17.4477 N   0  0  0  0  0  0  0  0  0  0  0  0
   27.1656  -20.6199  -15.3577 C   0  0  0  0  0  0  0  0  0  0  0  0
   26.2288  -21.4116  -15.7050 O   0  0  0  0  0  0  0  0  0  0  0  0
   23.9145  -21.1079   -7.0120 O   0  0  0  0  0  0  0  0  0  0  0  0
   24.7318  -20.9285   -8.1331 C   0  0  0  0  0  0  0  0  0  0  0  0
   25.5859  -19.8692   -8.2779 C   0  0  0  0  0  0  0  0  0  0  0  0
   26.3800  -19.7427   -9.4236 C   0  0  0  0  0  0  0  0  0  0  0  0
   26.3207  -20.6785  -10.4291 C   0  0  0  0  0  0  0  0  0  0  0  0
   27.1351  -20.5863  -11.6481 C   0  0  0  0  0  0  0  0  0  0  0  0
   26.4415  -20.8462  -12.9422 C   0  0  2  0  0  0  0  0  0  0  0  0
   27.3591  -20.3154  -13.9818 N   0  0  0  0  0  0  0  0  0  0  0  0
   25.1567  -20.1624  -13.1371 C   0  0  0  0  0  0  0  0  0  0  0  0
   25.1781  -18.9371  -13.4775 O   0  0  0  0  0  0  0  0  0  0  0  0
   25.4471  -21.7343  -10.2485 C   0  0  0  0  0  0  0  0  0  0  0  0
   24.6566  -21.8771   -9.1280 C   0  0  0  0  0  0  0  0  0  0  0  0
   23.8779  -20.7621  -12.9807 N   0  0  0  0  0  0  0  0  0  0  0  0
   22.6929  -19.9905  -13.1905 C   0  0  1  0  0  0  0  0  0  0  0  0
   22.5975  -19.4863  -14.6303 C   0  0  0  0  0  0  0  0  0  0  0  0
   20.9998  -18.6735  -14.9109 S   0  0  0  0  0  0  0  0  0  0  0  0
   21.4496  -20.6836  -12.8388 C   0  0  0  0  0  0  0  0  0  0  0  0
   20.1946  -20.1223  -12.9493 O   0  0  0  0  0  0  0  0  0  0  0  0
   21.4887  -21.8716  -12.4027 O   0  0  0  0  0  0  0  0  0  0  0  0
  2  1  1  1
  3  2  1  0
  4  5  1  0
  4  2  1  0
  5  6  1  6
  7  5  1  0
  7  8  2  0
  9 10  1  0
 10 11  2  0
 11 12  1  0
 13 12  2  0
 13 14  1  0
 15 14  1  1
 15 16  1  0
 16  7  1  0
 17 15  1  0
 18 17  2  0
 19 13  1  0
 20 10  1  0
 20 19  2  0
 21 17  1  0
 22 21  1  0
 22 25  1  0
 22 23  1  6
 24 23  1  0
 25 26  1  0
 27 25  2  0
M  END
$$$$
