LYC.pdb
     RDKit          3D

 27 27  0  0  1  0  0  0  0  0999 V2000
   29.1499  -17.4107  -16.0306 C   0  0  0  0  0  0  0  0  0  0  0  0
   27.8662  -18.1328  -15.6796 C   0  0  1  0  0  0  0  0  0  0  0  0
   27.1376  -18.4125  -16.9977 C   0  0  0  0  0  0  0  0  0  0  0  0
   28.1139  -19.4610  -15.0399 C   0  0  0  0  0  0  0  0  0  0  0  0
   26.8894  -20.1405  -14.5150 C   0  0  2  0  0  0  0  0  0  0  0  0
   25.8076  -19.1429  -14.5307 N   0  0  0  0  0  0  0  0  0  0  0  0
   27.0000  -20.6067  -13.1179 C   0  0  0  0  0  0  0  0  0  0  0  0
   27.7602  -21.6066  -12.9004 O   0  0  0  0  0  0  0  0  0  0  0  0
   28.2483  -20.2930   -4.4125 O   0  0  0  0  0  0  0  0  0  0  0  0
   27.9675  -20.1055   -5.7702 C   0  0  0  0  0  0  0  0  0  0  0  0
   28.6063  -20.7870   -6.7702 C   0  0  0  0  0  0  0  0  0  0  0  0
   28.2823  -20.5567   -8.1123 C   0  0  0  0  0  0  0  0  0  0  0  0
   27.3158  -19.6416   -8.4569 C   0  0  0  0  0  0  0  0  0  0  0  0
   26.9434  -19.3677   -9.8512 C   0  0  0  0  0  0  0  0  0  0  0  0
   26.4364  -20.5194  -10.6511 C   0  0  2  0  0  0  0  0  0  0  0  0
   26.3077  -19.9972  -12.0350 N   0  0  0  0  0  0  0  0  0  0  0  0
   25.1123  -21.0336  -10.2787 C   0  0  0  0  0  0  0  0  0  0  0  0
   25.0048  -21.6659   -9.1804 O   0  0  0  0  0  0  0  0  0  0  0  0
   26.6920  -18.9723   -7.4208 C   0  0  0  0  0  0  0  0  0  0  0  0
   26.9965  -19.1845   -6.0931 C   0  0  0  0  0  0  0  0  0  0  0  0
   23.9276  -20.8782  -11.0478 N   0  0  0  0  0  0  0  0  0  0  0  0
   22.7039  -21.4731  -10.6089 C   0  0  1  0  0  0  0  0  0  0  0  0
   22.0894  -20.7002   -9.4422 C   0  0  0  0  0  0  0  0  0  0  0  0
   21.8023  -18.9710   -9.9107 S   0  0  0  0  0  0  0  0  0  0  0  0
   21.6979  -21.6353  -11.6632 C   0  0  0  0  0  0  0  0  0  0  0  0
   20.4988  -22.2949  -11.4918 O   0  0  0  0  0  0  0  0  0  0  0  0
   21.9059  -21.1547  -12.8159 O   0  0  0  0  0  0  0  0  0  0  0  0
  2  1  1  6
  3  2  1  0
  4  5  1  0
  4  2  1  0
  5  6  1  1
  7  5  1  0
  7  8  2  0
  9 10  1  0
 10 11  2  0
 11 12  1  0
 13 12  2  0
 13 14  1  0
 15 14  1  1
 15 16  1  0
 16  7  1  0
 17 15  1  0
 18 17  2  0
 19 13  1  0
 20 10  1  0
 20 19  2  0
 21 17  1  0
 22 21  1  0
 22 25  1  0
 22 23  1  1
 24 23  1  0
 25 26  1  0
 27 25  2  0
M  END
$$$$
