LYC.pdb
     RDKit          3D

 27 27  0  0  1  0  0  0  0  0999 V2000
   29.5336  -13.5378  -17.4852 C   0  0  0  0  0  0  0  0  0  0  0  0
   28.2350  -12.8936  -17.0483 C   0  0  1  0  0  0  0  0  0  0  0  0
   28.1471  -13.0547  -15.5275 C   0  0  0  0  0  0  0  0  0  0  0  0
   28.2047  -11.4246  -17.3233 C   0  0  0  0  0  0  0  0  0  0  0  0
   26.9699  -10.7252  -16.8515 C   0  0  2  0  0  0  0  0  0  0  0  0
   25.8288  -11.5780  -17.2207 N   0  0  0  0  0  0  0  0  0  0  0  0
   26.7281   -9.4145  -17.4881 C   0  0  0  0  0  0  0  0  0  0  0  0
   27.5797   -8.4942  -17.2585 O   0  0  0  0  0  0  0  0  0  0  0  0
   30.4594   -9.1923  -22.9291 O   0  0  0  0  0  0  0  0  0  0  0  0
   29.2330   -8.8838  -22.3307 C   0  0  0  0  0  0  0  0  0  0  0  0
   28.7761   -7.6038  -22.1713 C   0  0  0  0  0  0  0  0  0  0  0  0
   27.5393   -7.3567  -21.5644 C   0  0  0  0  0  0  0  0  0  0  0  0
   26.7554   -8.3928  -21.1146 C   0  0  0  0  0  0  0  0  0  0  0  0
   25.4516   -8.1806  -20.4722 C   0  0  0  0  0  0  0  0  0  0  0  0
   25.4637   -7.8442  -19.0196 C   0  0  2  0  0  0  0  0  0  0  0  0
   25.6095   -9.1487  -18.3257 N   0  0  0  0  0  0  0  0  0  0  0  0
   24.2419   -7.2274  -18.4874 C   0  0  0  0  0  0  0  0  0  0  0  0
   23.2035   -7.9542  -18.3820 O   0  0  0  0  0  0  0  0  0  0  0  0
   27.2489   -9.6717  -21.2923 C   0  0  0  0  0  0  0  0  0  0  0  0
   28.4640   -9.9362  -21.8875 C   0  0  0  0  0  0  0  0  0  0  0  0
   24.1223   -5.8740  -18.0713 N   0  0  0  0  0  0  0  0  0  0  0  0
   22.8837   -5.3919  -17.5448 C   0  0  1  0  0  0  0  0  0  0  0  0
   23.1042   -4.4469  -16.3638 C   0  0  0  0  0  0  0  0  0  0  0  0
   23.7763   -5.3552  -14.9442 S   0  0  0  0  0  0  0  0  0  0  0  0
   22.0208   -4.7363  -18.5325 C   0  0  0  0  0  0  0  0  0  0  0  0
   20.7498   -4.2741  -18.2619 O   0  0  0  0  0  0  0  0  0  0  0  0
   22.4316   -4.5659  -19.7179 O   0  0  0  0  0  0  0  0  0  0  0  0
  2  1  1  1
  3  2  1  0
  4  5  1  0
  4  2  1  0
  5  6  1  6
  7  5  1  0
  7  8  2  0
  9 10  1  0
 10 11  2  0
 11 12  1  0
 13 12  2  0
 13 14  1  0
 15 14  1  6
 15 16  1  0
 16  7  1  0
 17 15  1  0
 18 17  2  0
 19 13  1  0
 20 10  1  0
 20 19  2  0
 21 17  1  0
 22 21  1  0
 22 25  1  0
 22 23  1  1
 24 23  1  0
 25 26  1  0
 27 25  2  0
M  END
$$$$
