LYC.pdb
     RDKit          3D

 27 27  0  0  1  0  0  0  0  0999 V2000
   24.4042  -25.9437  -20.1868 C   0  0  0  0  0  0  0  0  0  0  0  0
   25.1261  -26.0155  -18.8578 C   0  0  1  0  0  0  0  0  0  0  0  0
   26.6138  -25.7918  -19.1462 C   0  0  0  0  0  0  0  0  0  0  0  0
   24.7063  -24.9299  -17.9198 C   0  0  0  0  0  0  0  0  0  0  0  0
   25.6232  -24.7183  -16.7575 C   0  0  2  0  0  0  0  0  0  0  0  0
   25.5840  -25.9500  -15.9530 N   0  0  0  0  0  0  0  0  0  0  0  0
   25.2213  -23.6220  -15.8529 C   0  0  0  0  0  0  0  0  0  0  0  0
   25.1973  -22.4462  -16.3444 O   0  0  0  0  0  0  0  0  0  0  0  0
   18.8892  -22.2001  -16.9478 O   0  0  0  0  0  0  0  0  0  0  0  0
   19.9132  -22.3499  -16.0064 C   0  0  0  0  0  0  0  0  0  0  0  0
   20.3597  -21.3279  -15.2134 C   0  0  0  0  0  0  0  0  0  0  0  0
   21.3888  -21.5382  -14.2883 C   0  0  0  0  0  0  0  0  0  0  0  0
   21.9746  -22.7749  -14.1547 C   0  0  0  0  0  0  0  0  0  0  0  0
   23.0567  -23.0412  -13.1977 C   0  0  0  0  0  0  0  0  0  0  0  0
   24.4399  -22.6921  -13.6315 C   0  0  2  0  0  0  0  0  0  0  0  0
   24.8694  -23.8250  -14.4897 N   0  0  0  0  0  0  0  0  0  0  0  0
   25.4434  -22.5776  -12.5655 C   0  0  0  0  0  0  0  0  0  0  0  0
   25.5088  -23.5113  -11.7044 O   0  0  0  0  0  0  0  0  0  0  0  0
   21.4982  -23.7828  -14.9718 C   0  0  0  0  0  0  0  0  0  0  0  0
   20.4859  -23.5963  -15.8890 C   0  0  0  0  0  0  0  0  0  0  0  0
   26.3606  -21.5025  -12.4165 N   0  0  0  0  0  0  0  0  0  0  0  0
   26.9708  -21.2503  -11.1485 C   0  0  1  0  0  0  0  0  0  0  0  0
   28.2535  -20.4319  -11.2943 C   0  0  0  0  0  0  0  0  0  0  0  0
   27.9877  -19.0353  -12.4216 S   0  0  0  0  0  0  0  0  0  0  0  0
   26.0912  -20.5987  -10.1729 C   0  0  0  0  0  0  0  0  0  0  0  0
   26.3718  -20.4981   -8.8263 O   0  0  0  0  0  0  0  0  0  0  0  0
   24.9975  -20.0849  -10.5508 O   0  0  0  0  0  0  0  0  0  0  0  0
  2  1  1  6
  3  2  1  0
  4  5  1  0
  4  2  1  0
  5  6  1  1
  7  5  1  0
  7  8  2  0
  9 10  1  0
 10 11  2  0
 11 12  1  0
 13 12  2  0
 13 14  1  0
 15 14  1  1
 15 16  1  0
 16  7  1  0
 17 15  1  0
 18 17  2  0
 19 13  1  0
 20 10  1  0
 20 19  2  0
 21 17  1  0
 22 21  1  0
 22 25  1  0
 22 23  1  6
 24 23  1  0
 25 26  1  0
 27 25  2  0
M  END
$$$$
