LYC.pdb
     RDKit          3D

 27 27  0  0  1  0  0  0  0  0999 V2000
   30.0938  -16.2718  -19.8953 C   0  0  0  0  0  0  0  0  0  0  0  0
   29.6192  -17.5328  -19.2044 C   0  0  1  0  0  0  0  0  0  0  0  0
   30.8069  -18.0765  -18.4042 C   0  0  0  0  0  0  0  0  0  0  0  0
   28.5270  -17.2680  -18.2187 C   0  0  0  0  0  0  0  0  0  0  0  0
   28.1949  -18.4227  -17.3282 C   0  0  2  0  0  0  0  0  0  0  0  0
   27.9464  -19.5793  -18.2035 N   0  0  0  0  0  0  0  0  0  0  0  0
   26.9685  -18.2426  -16.5248 C   0  0  0  0  0  0  0  0  0  0  0  0
   26.9546  -17.2701  -15.7008 O   0  0  0  0  0  0  0  0  0  0  0  0
   18.1668  -18.3734  -15.0850 O   0  0  0  0  0  0  0  0  0  0  0  0
   19.4926  -18.3963  -15.5311 C   0  0  0  0  0  0  0  0  0  0  0  0
   20.2643  -17.2725  -15.6506 C   0  0  0  0  0  0  0  0  0  0  0  0
   21.5861  -17.3578  -16.1031 C   0  0  0  0  0  0  0  0  0  0  0  0
   22.1396  -18.5711  -16.4377 C   0  0  0  0  0  0  0  0  0  0  0  0
   23.5215  -18.7080  -16.9166 C   0  0  0  0  0  0  0  0  0  0  0  0
   24.5869  -18.8078  -15.8782 C   0  0  2  0  0  0  0  0  0  0  0  0
   25.8328  -19.0920  -16.6341 N   0  0  0  0  0  0  0  0  0  0  0  0
   24.4393  -19.8943  -14.9013 C   0  0  0  0  0  0  0  0  0  0  0  0
   24.6628  -21.0836  -15.2929 O   0  0  0  0  0  0  0  0  0  0  0  0
   21.3309  -19.6841  -16.3045 C   0  0  0  0  0  0  0  0  0  0  0  0
   20.0270  -19.6215  -15.8608 C   0  0  0  0  0  0  0  0  0  0  0  0
   24.0687  -19.7265  -13.5398 N   0  0  0  0  0  0  0  0  0  0  0  0
   23.8207  -20.8694  -12.7175 C   0  0  1  0  0  0  0  0  0  0  0  0
   24.6879  -20.8556  -11.4588 C   0  0  0  0  0  0  0  0  0  0  0  0
   26.3930  -21.3280  -11.8606 S   0  0  0  0  0  0  0  0  0  0  0  0
   22.4165  -21.0454  -12.3338 C   0  0  0  0  0  0  0  0  0  0  0  0
   21.9121  -22.1902  -11.7533 O   0  0  0  0  0  0  0  0  0  0  0  0
   21.5845  -20.1117  -12.5317 O   0  0  0  0  0  0  0  0  0  0  0  0
  2  1  1  1
  3  2  1  0
  4  5  1  0
  4  2  1  0
  5  6  1  6
  7  5  1  0
  7  8  2  0
  9 10  1  0
 10 11  2  0
 11 12  1  0
 13 12  2  0
 13 14  1  0
 15 14  1  6
 15 16  1  0
 16  7  1  0
 17 15  1  0
 18 17  2  0
 19 13  1  0
 20 10  1  0
 20 19  2  0
 21 17  1  0
 22 21  1  0
 22 25  1  0
 22 23  1  1
 24 23  1  0
 25 26  1  0
 27 25  2  0
M  END
$$$$
