LYC.pdb
     RDKit          3D

 27 27  0  0  1  0  0  0  0  0999 V2000
   27.3297  -16.4833  -18.9441 C   0  0  0  0  0  0  0  0  0  0  0  0
   28.0781  -17.6791  -18.3940 C   0  0  1  0  0  0  0  0  0  0  0  0
   29.2484  -17.1321  -17.5708 C   0  0  0  0  0  0  0  0  0  0  0  0
   27.2442  -18.4946  -17.4590 C   0  0  0  0  0  0  0  0  0  0  0  0
   27.9745  -19.6092  -16.7801 C   0  0  2  0  0  0  0  0  0  0  0  0
   28.2173  -20.6434  -17.7985 N   0  0  0  0  0  0  0  0  0  0  0  0
   27.2158  -20.2673  -15.6970 C   0  0  0  0  0  0  0  0  0  0  0  0
   26.4006  -21.1861  -16.0376 O   0  0  0  0  0  0  0  0  0  0  0  0
   24.3674  -21.1414   -7.1699 O   0  0  0  0  0  0  0  0  0  0  0  0
   25.0553  -20.9778   -8.3771 C   0  0  0  0  0  0  0  0  0  0  0  0
   25.1407  -21.9551   -9.3312 C   0  0  0  0  0  0  0  0  0  0  0  0
   25.8438  -21.7331  -10.5209 C   0  0  0  0  0  0  0  0  0  0  0  0
   26.4645  -20.5295  -10.7587 C   0  0  0  0  0  0  0  0  0  0  0  0
   27.2127  -20.2524  -11.9920 C   0  0  0  0  0  0  0  0  0  0  0  0
   26.5348  -20.5811  -13.2788 C   0  0  2  0  0  0  0  0  0  0  0  0
   27.3579  -19.9224  -14.3243 N   0  0  0  0  0  0  0  0  0  0  0  0
   25.1696  -20.0654  -13.4418 C   0  0  0  0  0  0  0  0  0  0  0  0
   25.0277  -18.8431  -13.7633 O   0  0  0  0  0  0  0  0  0  0  0  0
   26.3571  -19.5663   -9.7732 C   0  0  0  0  0  0  0  0  0  0  0  0
   25.6694  -19.7650   -8.5949 C   0  0  0  0  0  0  0  0  0  0  0  0
   23.9813  -20.8263  -13.2736 N   0  0  0  0  0  0  0  0  0  0  0  0
   22.7090  -20.1748  -13.2516 C   0  0  1  0  0  0  0  0  0  0  0  0
   22.3386  -19.6172  -14.6258 C   0  0  0  0  0  0  0  0  0  0  0  0
   22.7004  -20.8355  -15.9207 S   0  0  0  0  0  0  0  0  0  0  0  0
   21.6099  -21.0103  -12.7579 C   0  0  0  0  0  0  0  0  0  0  0  0
   20.3239  -20.5548  -12.5560 O   0  0  0  0  0  0  0  0  0  0  0  0
   21.8141  -22.2305  -12.4886 O   0  0  0  0  0  0  0  0  0  0  0  0
  2  1  1  1
  3  2  1  0
  4  5  1  0
  4  2  1  0
  5  6  1  6
  7  5  1  0
  7  8  2  0
  9 10  1  0
 10 11  2  0
 11 12  1  0
 13 12  2  0
 13 14  1  0
 15 14  1  1
 15 16  1  0
 16  7  1  0
 17 15  1  0
 18 17  2  0
 19 13  1  0
 20 10  1  0
 20 19  2  0
 21 17  1  0
 22 21  1  0
 22 25  1  0
 22 23  1  6
 24 23  1  0
 25 26  1  0
 27 25  2  0
M  END
$$$$
