LYC.pdb
     RDKit          3D

 27 27  0  0  1  0  0  0  0  0999 V2000
   21.5019  -31.4819  -10.4827 C   0  0  0  0  0  0  0  0  0  0  0  0
   20.5079  -30.4687  -11.0099 C   0  0  1  0  0  0  0  0  0  0  0  0
   19.1112  -31.0570  -10.7867 C   0  0  0  0  0  0  0  0  0  0  0  0
   20.5520  -29.1787  -10.2559 C   0  0  0  0  0  0  0  0  0  0  0  0
   19.5362  -28.1685  -10.6849 C   0  0  2  0  0  0  0  0  0  0  0  0
   20.0608  -27.5251  -11.9001 N   0  0  0  0  0  0  0  0  0  0  0  0
   19.3042  -27.0826   -9.7109 C   0  0  0  0  0  0  0  0  0  0  0  0
   20.3215  -26.4077   -9.3440 O   0  0  0  0  0  0  0  0  0  0  0  0
   19.6726  -22.1270  -13.4832 O   0  0  0  0  0  0  0  0  0  0  0  0
   19.0547  -22.7124  -12.3728 C   0  0  0  0  0  0  0  0  0  0  0  0
   19.3848  -22.4050  -11.0809 C   0  0  0  0  0  0  0  0  0  0  0  0
   18.7310  -23.0242  -10.0094 C   0  0  0  0  0  0  0  0  0  0  0  0
   17.7430  -23.9547  -10.2293 C   0  0  0  0  0  0  0  0  0  0  0  0
   17.0305  -24.6293   -9.1361 C   0  0  0  0  0  0  0  0  0  0  0  0
   17.8190  -25.5867   -8.3086 C   0  0  2  0  0  0  0  0  0  0  0  0
   18.0214  -26.7706   -9.1813 N   0  0  0  0  0  0  0  0  0  0  0  0
   17.1658  -26.0792   -7.0891 C   0  0  0  0  0  0  0  0  0  0  0  0
   16.1872  -26.8812   -7.2183 O   0  0  0  0  0  0  0  0  0  0  0  0
   17.4363  -24.2401  -11.5466 C   0  0  0  0  0  0  0  0  0  0  0  0
   18.0682  -23.6415  -12.6157 C   0  0  0  0  0  0  0  0  0  0  0  0
   17.5422  -25.7354   -5.7626 N   0  0  0  0  0  0  0  0  0  0  0  0
   16.7401  -26.1571   -4.6570 C   0  0  1  0  0  0  0  0  0  0  0  0
   17.5893  -26.4187   -3.4132 C   0  0  0  0  0  0  0  0  0  0  0  0
   19.3453  -26.1428   -3.7773 S   0  0  0  0  0  0  0  0  0  0  0  0
   15.6520  -25.2364   -4.3130 C   0  0  0  0  0  0  0  0  0  0  0  0
   14.6963  -25.4944   -3.3527 O   0  0  0  0  0  0  0  0  0  0  0  0
   15.5491  -24.1260   -4.9126 O   0  0  0  0  0  0  0  0  0  0  0  0
  2  1  1  1
  3  2  1  0
  4  5  1  0
  4  2  1  0
  5  6  1  6
  7  5  1  0
  7  8  2  0
  9 10  1  0
 10 11  2  0
 11 12  1  0
 13 12  2  0
 13 14  1  0
 15 14  1  6
 15 16  1  0
 16  7  1  0
 17 15  1  0
 18 17  2  0
 19 13  1  0
 20 10  1  0
 20 19  2  0
 21 17  1  0
 22 21  1  0
 22 25  1  0
 22 23  1  1
 24 23  1  0
 25 26  1  0
 27 25  2  0
M  END
$$$$
