LYC.pdb
     RDKit          3D

 27 27  0  0  1  0  0  0  0  0999 V2000
   30.4563  -19.8486  -11.5745 C   0  0  0  0  0  0  0  0  0  0  0  0
   29.3978  -20.7211  -12.2154 C   0  0  1  0  0  0  0  0  0  0  0  0
   29.1152  -21.8681  -11.2401 C   0  0  0  0  0  0  0  0  0  0  0  0
   28.1032  -19.9994  -12.4103 C   0  0  0  0  0  0  0  0  0  0  0  0
   27.0375  -20.7991  -13.0894 C   0  0  2  0  0  0  0  0  0  0  0  0
   27.5000  -21.0464  -14.4644 N   0  0  0  0  0  0  0  0  0  0  0  0
   25.7374  -20.1083  -13.2097 C   0  0  0  0  0  0  0  0  0  0  0  0
   25.7557  -18.9161  -13.6604 O   0  0  0  0  0  0  0  0  0  0  0  0
   18.8256  -18.0733  -17.6190 O   0  0  0  0  0  0  0  0  0  0  0  0
   19.9513  -18.5027  -16.9079 C   0  0  0  0  0  0  0  0  0  0  0  0
   20.8347  -17.6449  -16.3109 C   0  0  0  0  0  0  0  0  0  0  0  0
   21.9445  -18.1339  -15.6121 C   0  0  0  0  0  0  0  0  0  0  0  0
   22.1729  -19.4858  -15.5090 C   0  0  0  0  0  0  0  0  0  0  0  0
   23.3235  -20.0434  -14.7860 C   0  0  0  0  0  0  0  0  0  0  0  0
   23.2075  -20.1319  -13.3021 C   0  0  2  0  0  0  0  0  0  0  0  0
   24.4989  -20.7087  -12.8507 N   0  0  0  0  0  0  0  0  0  0  0  0
   22.1563  -21.0182  -12.7864 C   0  0  0  0  0  0  0  0  0  0  0  0
   22.2301  -22.2569  -13.0650 O   0  0  0  0  0  0  0  0  0  0  0  0
   21.2601  -20.3218  -16.1243 C   0  0  0  0  0  0  0  0  0  0  0  0
   20.1611  -19.8603  -16.8171 C   0  0  0  0  0  0  0  0  0  0  0  0
   21.0547  -20.6047  -11.9896 N   0  0  0  0  0  0  0  0  0  0  0  0
   20.0592  -21.5517  -11.5947 C   0  0  1  0  0  0  0  0  0  0  0  0
   19.7341  -21.4382  -10.1054 C   0  0  0  0  0  0  0  0  0  0  0  0
   21.2542  -21.2050   -9.1425 S   0  0  0  0  0  0  0  0  0  0  0  0
   18.8149  -21.4789  -12.3668 C   0  0  0  0  0  0  0  0  0  0  0  0
   17.7974  -22.4060  -12.2812 O   0  0  0  0  0  0  0  0  0  0  0  0
   18.6253  -20.5212  -13.1730 O   0  0  0  0  0  0  0  0  0  0  0  0
  2  1  1  1
  3  2  1  0
  4  5  1  0
  4  2  1  0
  5  6  1  6
  7  5  1  0
  7  8  2  0
  9 10  1  0
 10 11  2  0
 11 12  1  0
 13 12  2  0
 13 14  1  0
 15 14  1  6
 15 16  1  0
 16  7  1  0
 17 15  1  0
 18 17  2  0
 19 13  1  0
 20 10  1  0
 20 19  2  0
 21 17  1  0
 22 21  1  0
 22 25  1  0
 22 23  1  1
 24 23  1  0
 25 26  1  0
 27 25  2  0
M  END
$$$$
