LYC.pdb
     RDKit          3D

 27 27  0  0  1  0  0  0  0  0999 V2000
   27.9603  -17.4769  -19.0567 C   0  0  0  0  0  0  0  0  0  0  0  0
   28.5596  -18.6638  -18.3325 C   0  0  1  0  0  0  0  0  0  0  0  0
   29.4817  -18.1032  -17.2452 C   0  0  0  0  0  0  0  0  0  0  0  0
   27.5271  -19.4872  -17.6321 C   0  0  0  0  0  0  0  0  0  0  0  0
   28.0764  -20.5853  -16.7783 C   0  0  2  0  0  0  0  0  0  0  0  0
   28.3850  -21.7101  -17.6757 N   0  0  0  0  0  0  0  0  0  0  0  0
   27.1308  -21.1086  -15.7715 C   0  0  0  0  0  0  0  0  0  0  0  0
   26.2581  -21.9444  -16.1772 O   0  0  0  0  0  0  0  0  0  0  0  0
   22.9072  -20.8608   -7.8736 O   0  0  0  0  0  0  0  0  0  0  0  0
   23.8807  -20.8734   -8.8783 C   0  0  0  0  0  0  0  0  0  0  0  0
   25.2008  -20.5958   -8.6484 C   0  0  0  0  0  0  0  0  0  0  0  0
   26.1299  -20.6241   -9.6948 C   0  0  0  0  0  0  0  0  0  0  0  0
   25.7387  -20.9310  -10.9766 C   0  0  0  0  0  0  0  0  0  0  0  0
   26.6786  -20.9726  -12.1047 C   0  0  0  0  0  0  0  0  0  0  0  0
   26.0919  -21.1564  -13.4632 C   0  0  2  0  0  0  0  0  0  0  0  0
   27.1576  -20.7243  -14.4022 N   0  0  0  0  0  0  0  0  0  0  0  0
   24.9112  -20.3406  -13.7745 C   0  0  0  0  0  0  0  0  0  0  0  0
   25.0655  -19.0824  -13.8781 O   0  0  0  0  0  0  0  0  0  0  0  0
   24.3981  -21.2057  -11.1712 C   0  0  0  0  0  0  0  0  0  0  0  0
   23.4673  -21.1832  -10.1544 C   0  0  0  0  0  0  0  0  0  0  0  0
   23.5980  -20.8444  -13.9768 N   0  0  0  0  0  0  0  0  0  0  0  0
   22.5087  -19.9434  -14.1900 C   0  0  1  0  0  0  0  0  0  0  0  0
   22.3748  -19.5614  -15.6639 C   0  0  0  0  0  0  0  0  0  0  0  0
   21.9011  -21.0080  -16.6514 S   0  0  0  0  0  0  0  0  0  0  0  0
   21.2159  -20.4304  -13.6986 C   0  0  0  0  0  0  0  0  0  0  0  0
   20.0454  -19.7028  -13.7521 O   0  0  0  0  0  0  0  0  0  0  0  0
   21.1276  -21.5849  -13.1864 O   0  0  0  0  0  0  0  0  0  0  0  0
  2  1  1  1
  3  2  1  0
  4  5  1  0
  4  2  1  0
  5  6  1  6
  7  5  1  0
  7  8  2  0
  9 10  1  0
 10 11  2  0
 11 12  1  0
 13 12  2  0
 13 14  1  0
 15 14  1  1
 15 16  1  0
 16  7  1  0
 17 15  1  0
 18 17  2  0
 19 13  1  0
 20 10  1  0
 20 19  2  0
 21 17  1  0
 22 21  1  0
 22 25  1  0
 22 23  1  6
 24 23  1  0
 25 26  1  0
 27 25  2  0
M  END
$$$$
