LYC.pdb
     RDKit          3D

 27 27  0  0  1  0  0  0  0  0999 V2000
   30.2464  -16.0997  -17.4803 C   0  0  0  0  0  0  0  0  0  0  0  0
   29.0605  -16.7791  -18.1319 C   0  0  1  0  0  0  0  0  0  0  0  0
   29.4800  -18.2229  -18.4254 C   0  0  0  0  0  0  0  0  0  0  0  0
   27.8758  -16.8562  -17.2236 C   0  0  0  0  0  0  0  0  0  0  0  0
   26.7440  -17.6857  -17.7409 C   0  0  2  0  0  0  0  0  0  0  0  0
   26.1951  -16.9783  -18.9088 N   0  0  0  0  0  0  0  0  0  0  0  0
   25.6227  -17.8495  -16.7935 C   0  0  0  0  0  0  0  0  0  0  0  0
   25.1162  -16.7855  -16.3075 O   0  0  0  0  0  0  0  0  0  0  0  0
   18.3744  -21.5061  -13.1325 O   0  0  0  0  0  0  0  0  0  0  0  0
   19.4675  -21.0676  -13.8875 C   0  0  0  0  0  0  0  0  0  0  0  0
   19.5518  -19.8135  -14.4286 C   0  0  0  0  0  0  0  0  0  0  0  0
   20.6719  -19.4312  -15.1757 C   0  0  0  0  0  0  0  0  0  0  0  0
   21.7126  -20.3054  -15.3833 C   0  0  0  0  0  0  0  0  0  0  0  0
   22.9068  -19.9475  -16.1601 C   0  0  0  0  0  0  0  0  0  0  0  0
   23.9918  -19.2279  -15.4334 C   0  0  2  0  0  0  0  0  0  0  0  0
   25.1013  -19.1173  -16.4137 N   0  0  0  0  0  0  0  0  0  0  0  0
   24.5463  -19.9100  -14.2571 C   0  0  0  0  0  0  0  0  0  0  0  0
   25.3250  -20.8967  -14.4511 O   0  0  0  0  0  0  0  0  0  0  0  0
   21.5929  -21.5629  -14.8220 C   0  0  0  0  0  0  0  0  0  0  0  0
   20.4984  -21.9589  -14.0831 C   0  0  0  0  0  0  0  0  0  0  0  0
   24.2872  -19.5536  -12.9061 N   0  0  0  0  0  0  0  0  0  0  0  0
   24.6321  -20.4514  -11.8483 C   0  0  1  0  0  0  0  0  0  0  0  0
   25.8780  -19.9830  -11.0967 C   0  0  0  0  0  0  0  0  0  0  0  0
   26.0198  -20.8471   -9.5076 S   0  0  0  0  0  0  0  0  0  0  0  0
   23.5526  -20.6966  -10.8868 C   0  0  0  0  0  0  0  0  0  0  0  0
   23.5593  -21.7201   -9.9624 O   0  0  0  0  0  0  0  0  0  0  0  0
   22.5342  -19.9444  -10.8732 O   0  0  0  0  0  0  0  0  0  0  0  0
  2  1  1  1
  3  2  1  0
  4  5  1  0
  4  2  1  0
  5  6  1  6
  7  5  1  0
  7  8  2  0
  9 10  1  0
 10 11  2  0
 11 12  1  0
 13 12  2  0
 13 14  1  0
 15 14  1  6
 15 16  1  0
 16  7  1  0
 17 15  1  0
 18 17  2  0
 19 13  1  0
 20 10  1  0
 20 19  2  0
 21 17  1  0
 22 21  1  0
 22 25  1  0
 22 23  1  1
 24 23  1  0
 25 26  1  0
 27 25  2  0
M  END
$$$$
