LYC.pdb
     RDKit          3D

 27 27  0  0  1  0  0  0  0  0999 V2000
   26.1481  -32.4598  -17.6155 C   0  0  0  0  0  0  0  0  0  0  0  0
   25.1576  -33.1309  -16.6876 C   0  0  1  0  0  0  0  0  0  0  0  0
   25.9154  -34.2433  -15.9562 C   0  0  0  0  0  0  0  0  0  0  0  0
   24.6418  -32.2037  -15.6347 C   0  0  0  0  0  0  0  0  0  0  0  0
   23.6809  -32.8240  -14.6712 C   0  0  2  0  0  0  0  0  0  0  0  0
   22.4489  -33.1122  -15.4228 N   0  0  0  0  0  0  0  0  0  0  0  0
   23.2848  -31.9460  -13.5514 C   0  0  0  0  0  0  0  0  0  0  0  0
   24.2084  -31.5683  -12.7582 O   0  0  0  0  0  0  0  0  0  0  0  0
   18.3958  -25.4101   -9.9353 O   0  0  0  0  0  0  0  0  0  0  0  0
   19.1083  -26.3557  -10.6806 C   0  0  0  0  0  0  0  0  0  0  0  0
   20.4708  -26.3404  -10.8071 C   0  0  0  0  0  0  0  0  0  0  0  0
   21.1291  -27.3142  -11.5669 C   0  0  0  0  0  0  0  0  0  0  0  0
   20.4233  -28.3078  -12.2033 C   0  0  0  0  0  0  0  0  0  0  0  0
   21.0718  -29.3497  -13.0106 C   0  0  0  0  0  0  0  0  0  0  0  0
   21.6219  -30.5251  -12.2764 C   0  0  2  0  0  0  0  0  0  0  0  0
   21.9462  -31.5180  -13.3315 N   0  0  0  0  0  0  0  0  0  0  0  0
   20.7041  -31.1953  -11.3463 C   0  0  0  0  0  0  0  0  0  0  0  0
   19.8096  -31.9560  -11.8348 O   0  0  0  0  0  0  0  0  0  0  0  0
   19.0493  -28.2917  -12.0532 C   0  0  0  0  0  0  0  0  0  0  0  0
   18.3820  -27.3418  -11.3095 C   0  0  0  0  0  0  0  0  0  0  0  0
   20.7350  -31.0680   -9.9314 N   0  0  0  0  0  0  0  0  0  0  0  0
   19.7001  -31.6509   -9.1357 C   0  0  1  0  0  0  0  0  0  0  0  0
   20.2735  -32.4918   -7.9953 C   0  0  0  0  0  0  0  0  0  0  0  0
   21.6441  -33.5188   -8.5943 S   0  0  0  0  0  0  0  0  0  0  0  0
   18.7415  -30.6858   -8.5885 C   0  0  0  0  0  0  0  0  0  0  0  0
   17.5701  -31.0374   -7.9510 O   0  0  0  0  0  0  0  0  0  0  0  0
   18.9670  -29.4439   -8.6879 O   0  0  0  0  0  0  0  0  0  0  0  0
  2  1  1  6
  3  2  1  0
  4  5  1  0
  4  2  1  0
  5  6  1  6
  7  5  1  0
  7  8  2  0
  9 10  1  0
 10 11  2  0
 11 12  1  0
 13 12  2  0
 13 14  1  0
 15 14  1  6
 15 16  1  0
 16  7  1  0
 17 15  1  0
 18 17  2  0
 19 13  1  0
 20 10  1  0
 20 19  2  0
 21 17  1  0
 22 21  1  0
 22 25  1  0
 22 23  1  1
 24 23  1  0
 25 26  1  0
 27 25  2  0
M  END
$$$$
