LYC.pdb
     RDKit          3D

 27 27  0  0  1  0  0  0  0  0999 V2000
   30.2385  -23.8665  -17.2111 C   0  0  0  0  0  0  0  0  0  0  0  0
   29.1252  -22.8406  -17.2356 C   0  0  1  0  0  0  0  0  0  0  0  0
   28.2768  -23.1333  -18.4771 C   0  0  0  0  0  0  0  0  0  0  0  0
   28.2120  -22.9598  -16.0582 C   0  0  0  0  0  0  0  0  0  0  0  0
   27.0930  -21.9680  -16.0317 C   0  0  2  0  0  0  0  0  0  0  0  0
   27.7005  -20.6349  -16.1711 N   0  0  0  0  0  0  0  0  0  0  0  0
   26.3281  -21.9424  -14.7683 C   0  0  0  0  0  0  0  0  0  0  0  0
   25.7650  -23.0287  -14.4111 O   0  0  0  0  0  0  0  0  0  0  0  0
   27.9743  -21.1712   -6.7056 O   0  0  0  0  0  0  0  0  0  0  0  0
   27.5535  -20.8377   -7.9975 C   0  0  0  0  0  0  0  0  0  0  0  0
   28.3136  -21.0549   -9.1144 C   0  0  0  0  0  0  0  0  0  0  0  0
   27.8388  -20.6999  -10.3823 C   0  0  0  0  0  0  0  0  0  0  0  0
   26.5992  -20.1251  -10.5352 C   0  0  0  0  0  0  0  0  0  0  0  0
   26.0606  -19.7367  -11.8455 C   0  0  0  0  0  0  0  0  0  0  0  0
   25.4565  -20.8201  -12.6729 C   0  0  2  0  0  0  0  0  0  0  0  0
   26.2002  -20.7808  -13.9573 N   0  0  0  0  0  0  0  0  0  0  0  0
   24.0368  -20.6603  -13.0125 C   0  0  0  0  0  0  0  0  0  0  0  0
   23.7400  -19.9262  -14.0078 O   0  0  0  0  0  0  0  0  0  0  0  0
   25.8597  -19.9209   -9.3854 C   0  0  0  0  0  0  0  0  0  0  0  0
   26.3091  -20.2634   -8.1278 C   0  0  0  0  0  0  0  0  0  0  0  0
   22.9555  -21.2674  -12.3185 N   0  0  0  0  0  0  0  0  0  0  0  0
   21.6142  -21.0823  -12.7770 C   0  0  1  0  0  0  0  0  0  0  0  0
   21.2220  -22.1384  -13.8101 C   0  0  0  0  0  0  0  0  0  0  0  0
   19.4778  -21.9522  -14.2738 S   0  0  0  0  0  0  0  0  0  0  0  0
   20.6086  -21.0545  -11.7102 C   0  0  0  0  0  0  0  0  0  0  0  0
   19.5111  -20.2193  -11.7050 O   0  0  0  0  0  0  0  0  0  0  0  0
   20.7197  -21.8296  -10.7153 O   0  0  0  0  0  0  0  0  0  0  0  0
  2  1  1  1
  3  2  1  0
  4  5  1  0
  4  2  1  0
  5  6  1  1
  7  5  1  0
  7  8  2  0
  9 10  1  0
 10 11  2  0
 11 12  1  0
 13 12  2  0
 13 14  1  0
 15 14  1  1
 15 16  1  0
 16  7  1  0
 17 15  1  0
 18 17  2  0
 19 13  1  0
 20 10  1  0
 20 19  2  0
 21 17  1  0
 22 21  1  0
 22 25  1  0
 22 23  1  6
 24 23  1  0
 25 26  1  0
 27 25  2  0
M  END
$$$$
