LYC.pdb
     RDKit          3D

 27 27  0  0  1  0  0  0  0  0999 V2000
   26.7315  -17.3367  -18.3836 C   0  0  0  0  0  0  0  0  0  0  0  0
   27.2190  -18.3703  -17.3904 C   0  0  1  0  0  0  0  0  0  0  0  0
   28.7488  -18.3774  -17.4692 C   0  0  0  0  0  0  0  0  0  0  0  0
   26.8669  -18.0192  -15.9807 C   0  0  0  0  0  0  0  0  0  0  0  0
   27.4413  -18.9338  -14.9462 C   0  0  2  0  0  0  0  0  0  0  0  0
   27.5438  -20.2658  -15.5635 N   0  0  0  0  0  0  0  0  0  0  0  0
   26.6011  -19.1007  -13.7429 C   0  0  0  0  0  0  0  0  0  0  0  0
   26.2204  -18.0376  -13.1515 O   0  0  0  0  0  0  0  0  0  0  0  0
   19.8857  -19.9112  -15.5987 O   0  0  0  0  0  0  0  0  0  0  0  0
   21.0056  -20.3346  -14.8748 C   0  0  0  0  0  0  0  0  0  0  0  0
   22.0912  -20.9340  -15.4534 C   0  0  0  0  0  0  0  0  0  0  0  0
   23.1838  -21.3367  -14.6768 C   0  0  0  0  0  0  0  0  0  0  0  0
   23.1920  -21.1397  -13.3161 C   0  0  0  0  0  0  0  0  0  0  0  0
   24.3162  -21.5459  -12.4622 C   0  0  0  0  0  0  0  0  0  0  0  0
   25.2874  -20.4821  -12.0769 C   0  0  2  0  0  0  0  0  0  0  0  0
   26.2117  -20.3704  -13.2334 N   0  0  0  0  0  0  0  0  0  0  0  0
   26.1251  -20.7640  -10.9042 C   0  0  0  0  0  0  0  0  0  0  0  0
   26.5562  -21.9505  -10.7498 O   0  0  0  0  0  0  0  0  0  0  0  0
   22.0790  -20.5317  -12.7666 C   0  0  0  0  0  0  0  0  0  0  0  0
   20.9930  -20.1278  -13.5137 C   0  0  0  0  0  0  0  0  0  0  0  0
   26.5027  -19.8114   -9.9196 N   0  0  0  0  0  0  0  0  0  0  0  0
   26.6836  -20.2171   -8.5608 C   0  0  1  0  0  0  0  0  0  0  0  0
   27.3297  -19.1122   -7.7251 C   0  0  0  0  0  0  0  0  0  0  0  0
   27.5303  -19.6554   -6.0056 S   0  0  0  0  0  0  0  0  0  0  0  0
   25.4574  -20.6699   -7.8963 C   0  0  0  0  0  0  0  0  0  0  0  0
   25.3992  -21.7408   -7.0292 O   0  0  0  0  0  0  0  0  0  0  0  0
   24.3642  -20.0667   -8.1060 O   0  0  0  0  0  0  0  0  0  0  0  0
  2  1  1  6
  3  2  1  0
  4  5  1  0
  4  2  1  0
  5  6  1  6
  7  5  1  0
  7  8  2  0
  9 10  1  0
 10 11  2  0
 11 12  1  0
 13 12  2  0
 13 14  1  0
 15 14  1  6
 15 16  1  0
 16  7  1  0
 17 15  1  0
 18 17  2  0
 19 13  1  0
 20 10  1  0
 20 19  2  0
 21 17  1  0
 22 21  1  0
 22 25  1  0
 22 23  1  1
 24 23  1  0
 25 26  1  0
 27 25  2  0
M  END
$$$$
