LYC.pdb
     RDKit          3D

 27 27  0  0  1  0  0  0  0  0999 V2000
   24.5343  -12.9893  -16.1078 C   0  0  0  0  0  0  0  0  0  0  0  0
   25.5663  -14.0889  -16.2426 C   0  0  1  0  0  0  0  0  0  0  0  0
   26.2888  -14.1895  -14.8956 C   0  0  0  0  0  0  0  0  0  0  0  0
   24.9473  -15.4261  -16.4946 C   0  0  0  0  0  0  0  0  0  0  0  0
   25.9092  -16.5712  -16.4913 C   0  0  2  0  0  0  0  0  0  0  0  0
   26.5668  -16.5802  -17.8078 N   0  0  0  0  0  0  0  0  0  0  0  0
   25.2798  -17.8983  -16.3357 C   0  0  0  0  0  0  0  0  0  0  0  0
   24.8477  -18.4611  -17.3946 O   0  0  0  0  0  0  0  0  0  0  0  0
   29.5549  -23.1948  -17.3155 O   0  0  0  0  0  0  0  0  0  0  0  0
   28.5140  -22.6359  -16.5662 C   0  0  0  0  0  0  0  0  0  0  0  0
   27.3188  -23.2674  -16.3534 C   0  0  0  0  0  0  0  0  0  0  0  0
   26.3134  -22.6577  -15.5941 C   0  0  0  0  0  0  0  0  0  0  0  0
   26.5028  -21.4116  -15.0449 C   0  0  0  0  0  0  0  0  0  0  0  0
   25.4764  -20.7341  -14.2416 C   0  0  0  0  0  0  0  0  0  0  0  0
   24.4956  -19.8866  -14.9786 C   0  0  2  0  0  0  0  0  0  0  0  0
   25.1420  -18.5539  -15.0809 N   0  0  0  0  0  0  0  0  0  0  0  0
   23.2024  -19.6691  -14.3178 C   0  0  0  0  0  0  0  0  0  0  0  0
   23.1499  -18.8181  -13.3742 O   0  0  0  0  0  0  0  0  0  0  0  0
   27.7218  -20.8042  -15.2805 C   0  0  0  0  0  0  0  0  0  0  0  0
   28.7247  -21.3875  -16.0253 C   0  0  0  0  0  0  0  0  0  0  0  0
   21.9908  -20.3327  -14.6509 N   0  0  0  0  0  0  0  0  0  0  0  0
   20.7727  -19.9754  -13.9935 C   0  0  1  0  0  0  0  0  0  0  0  0
   20.4590  -18.4886  -14.1596 C   0  0  0  0  0  0  0  0  0  0  0  0
   18.6735  -18.1994  -14.0166 S   0  0  0  0  0  0  0  0  0  0  0  0
   19.6077  -20.7633  -14.4082 C   0  0  0  0  0  0  0  0  0  0  0  0
   18.4528  -20.8848  -13.6642 O   0  0  0  0  0  0  0  0  0  0  0  0
   19.6244  -21.3856  -15.5107 O   0  0  0  0  0  0  0  0  0  0  0  0
  2  1  1  1
  3  2  1  0
  4  5  1  0
  4  2  1  0
  5  6  1  6
  7  5  1  0
  7  8  2  0
  9 10  1  0
 10 11  2  0
 11 12  1  0
 13 12  2  0
 13 14  1  0
 15 14  1  1
 15 16  1  0
 16  7  1  0
 17 15  1  0
 18 17  2  0
 19 13  1  0
 20 10  1  0
 20 19  2  0
 21 17  1  0
 22 21  1  0
 22 25  1  0
 22 23  1  6
 24 23  1  0
 25 26  1  0
 27 25  2  0
M  END
$$$$
