LYC.pdb
     RDKit          3D

 27 27  0  0  1  0  0  0  0  0999 V2000
   21.6233  -13.7240  -20.1712 C   0  0  0  0  0  0  0  0  0  0  0  0
   22.4487  -12.5647  -19.6543 C   0  0  1  0  0  0  0  0  0  0  0  0
   22.9355  -11.7834  -20.8786 C   0  0  0  0  0  0  0  0  0  0  0  0
   21.6427  -11.6104  -18.8331 C   0  0  0  0  0  0  0  0  0  0  0  0
   22.4117  -10.4482  -18.2905 C   0  0  2  0  0  0  0  0  0  0  0  0
   23.4952  -11.0020  -17.4629 N   0  0  0  0  0  0  0  0  0  0  0  0
   21.6320   -9.5577  -17.4068 C   0  0  0  0  0  0  0  0  0  0  0  0
   20.4403   -9.2842  -17.7673 O   0  0  0  0  0  0  0  0  0  0  0  0
   18.8059   -6.0081   -9.7508 O   0  0  0  0  0  0  0  0  0  0  0  0
   19.5581   -6.5814  -10.7817 C   0  0  0  0  0  0  0  0  0  0  0  0
   20.7117   -6.0278  -11.2670 C   0  0  0  0  0  0  0  0  0  0  0  0
   21.4223   -6.6480  -12.3011 C   0  0  0  0  0  0  0  0  0  0  0  0
   20.9787   -7.8265  -12.8530 C   0  0  0  0  0  0  0  0  0  0  0  0
   21.6917   -8.5122  -13.9389 C   0  0  0  0  0  0  0  0  0  0  0  0
   21.3122   -8.1418  -15.3325 C   0  0  2  0  0  0  0  0  0  0  0  0
   22.1484   -9.0089  -16.2004 N   0  0  0  0  0  0  0  0  0  0  0  0
   21.5956   -6.7582  -15.7348 C   0  0  0  0  0  0  0  0  0  0  0  0
   22.7979   -6.4525  -16.0152 O   0  0  0  0  0  0  0  0  0  0  0  0
   19.8105   -8.3563  -12.3379 C   0  0  0  0  0  0  0  0  0  0  0  0
   19.0960   -7.7612  -11.3200 C   0  0  0  0  0  0  0  0  0  0  0  0
   20.6286   -5.7226  -15.8432 N   0  0  0  0  0  0  0  0  0  0  0  0
   21.0349   -4.3938  -16.1796 C   0  0  1  0  0  0  0  0  0  0  0  0
   20.8822   -4.1206  -17.6757 C   0  0  0  0  0  0  0  0  0  0  0  0
   21.2165   -2.3742  -18.0368 S   0  0  0  0  0  0  0  0  0  0  0  0
   20.3473   -3.3416  -15.4245 C   0  0  0  0  0  0  0  0  0  0  0  0
   20.7894   -2.0381  -15.3385 O   0  0  0  0  0  0  0  0  0  0  0  0
   19.2787   -3.6066  -14.7992 O   0  0  0  0  0  0  0  0  0  0  0  0
  2  1  1  6
  3  2  1  0
  4  5  1  0
  4  2  1  0
  5  6  1  1
  7  5  1  0
  7  8  2  0
  9 10  1  0
 10 11  2  0
 11 12  1  0
 13 12  2  0
 13 14  1  0
 15 14  1  1
 15 16  1  0
 16  7  1  0
 17 15  1  0
 18 17  2  0
 19 13  1  0
 20 10  1  0
 20 19  2  0
 21 17  1  0
 22 21  1  0
 22 25  1  0
 22 23  1  6
 24 23  1  0
 25 26  1  0
 27 25  2  0
M  END
$$$$
