LYC.pdb
     RDKit          3D

 27 27  0  0  1  0  0  0  0  0999 V2000
   24.8497  -15.1207  -19.4047 C   0  0  0  0  0  0  0  0  0  0  0  0
   25.0576  -14.0769  -18.3278 C   0  0  1  0  0  0  0  0  0  0  0  0
   26.5200  -13.6297  -18.4170 C   0  0  0  0  0  0  0  0  0  0  0  0
   24.2247  -12.8552  -18.5474 C   0  0  0  0  0  0  0  0  0  0  0  0
   24.4843  -11.7400  -17.5854 C   0  0  2  0  0  0  0  0  0  0  0  0
   24.2377  -12.2736  -16.2364 N   0  0  0  0  0  0  0  0  0  0  0  0
   23.5861  -10.5776  -17.7396 C   0  0  0  0  0  0  0  0  0  0  0  0
   23.6579   -9.9328  -18.8368 O   0  0  0  0  0  0  0  0  0  0  0  0
   17.8178  -10.9556  -21.7472 O   0  0  0  0  0  0  0  0  0  0  0  0
   18.4612  -10.6862  -20.5344 C   0  0  0  0  0  0  0  0  0  0  0  0
   19.0374  -11.6551  -19.7587 C   0  0  0  0  0  0  0  0  0  0  0  0
   19.6677  -11.3248  -18.5534 C   0  0  0  0  0  0  0  0  0  0  0  0
   19.7226  -10.0208  -18.1210 C   0  0  0  0  0  0  0  0  0  0  0  0
   20.3732   -9.6283  -16.8639 C   0  0  0  0  0  0  0  0  0  0  0  0
   21.7355   -9.0313  -16.9688 C   0  0  2  0  0  0  0  0  0  0  0  0
   22.6683  -10.1625  -16.7352 N   0  0  0  0  0  0  0  0  0  0  0  0
   22.0717   -8.0060  -15.9727 C   0  0  0  0  0  0  0  0  0  0  0  0
   22.3612   -8.3899  -14.7953 O   0  0  0  0  0  0  0  0  0  0  0  0
   19.1302   -9.0695  -18.9300 C   0  0  0  0  0  0  0  0  0  0  0  0
   18.5046   -9.3740  -20.1202 C   0  0  0  0  0  0  0  0  0  0  0  0
   22.1060   -6.6067  -16.2175 N   0  0  0  0  0  0  0  0  0  0  0  0
   22.4308   -5.7010  -15.1601 C   0  0  1  0  0  0  0  0  0  0  0  0
   23.0303   -4.4014  -15.6968 C   0  0  0  0  0  0  0  0  0  0  0  0
   23.3205   -3.2316  -14.3406 S   0  0  0  0  0  0  0  0  0  0  0  0
   21.3098   -5.3834  -14.2699 C   0  0  0  0  0  0  0  0  0  0  0  0
   19.9965   -5.7110  -14.5346 O   0  0  0  0  0  0  0  0  0  0  0  0
   21.5195   -4.7710  -13.1818 O   0  0  0  0  0  0  0  0  0  0  0  0
  2  1  1  6
  3  2  1  0
  4  5  1  0
  4  2  1  0
  5  6  1  1
  7  5  1  0
  7  8  2  0
  9 10  1  0
 10 11  2  0
 11 12  1  0
 13 12  2  0
 13 14  1  0
 15 14  1  1
 15 16  1  0
 16  7  1  0
 17 15  1  0
 18 17  2  0
 19 13  1  0
 20 10  1  0
 20 19  2  0
 21 17  1  0
 22 21  1  0
 22 25  1  0
 22 23  1  6
 24 23  1  0
 25 26  1  0
 27 25  2  0
M  END
$$$$
