YAF.pdb
     RDKit          3D

 29 30  0  0  1  0  0  0  0  0999 V2000
    8.1003  -12.2879   16.6797 O   0  0  0  0  0  0  0  0  0  0  0  0
    8.0578  -12.8837   17.9484 C   0  0  0  0  0  0  0  0  0  0  0  0
    6.8591  -13.2465   18.5297 C   0  0  0  0  0  0  0  0  0  0  0  0
    6.7794  -13.8338   19.7743 C   0  0  0  0  0  0  0  0  0  0  0  0
    7.9313  -14.0805   20.4905 C   0  0  0  0  0  0  0  0  0  0  0  0
    7.9165  -14.7054   21.8263 C   0  0  0  0  0  0  0  0  0  0  0  0
    8.2321  -16.1995   21.7315 C   0  0  2  0  0  0  0  0  0  0  0  0
    7.0808  -16.8493   21.1620 N   0  0  0  0  0  0  0  0  0  0  0  0
    8.5219  -16.7096   23.0901 C   0  0  0  0  0  0  0  0  0  0  0  0
    7.5124  -16.9908   23.8129 O   0  0  0  0  0  0  0  0  0  0  0  0
    9.1325  -13.7216   19.9181 C   0  0  0  0  0  0  0  0  0  0  0  0
    9.2049  -13.1355   18.6750 C   0  0  0  0  0  0  0  0  0  0  0  0
   10.8591  -18.7983   24.7392 C   0  0  0  0  0  0  0  0  0  0  0  0
    9.9979  -17.5447   24.8635 C   0  0  2  0  0  0  0  0  0  0  0  0
    9.8323  -16.8925   23.6044 N   0  0  0  0  0  0  0  0  0  0  0  0
   10.6378  -16.6669   25.8812 C   0  0  0  0  0  0  0  0  0  0  0  0
   11.7853  -16.2085   25.7120 O   0  0  0  0  0  0  0  0  0  0  0  0
    9.9162  -16.3658   27.0410 N   0  0  0  0  0  0  0  0  0  0  0  0
   10.3630  -15.4452   28.0676 C   0  0  1  0  0  0  0  0  0  0  0  0
    9.0990  -14.8976   28.6956 C   0  0  0  0  0  0  0  0  0  0  0  0
    8.2572  -14.1082   27.8022 C   0  0  0  0  0  0  0  0  0  0  0  0
    6.9999  -14.5277   27.4243 C   0  0  0  0  0  0  0  0  0  0  0  0
    6.2077  -13.7535   26.5687 C   0  0  0  0  0  0  0  0  0  0  0  0
    6.6767  -12.5449   26.0842 C   0  0  0  0  0  0  0  0  0  0  0  0
    7.9338  -12.1218   26.4599 C   0  0  0  0  0  0  0  0  0  0  0  0
    8.7050  -12.9093   27.3130 C   0  0  0  0  0  0  0  0  0  0  0  0
   11.1848  -16.2110   29.0247 C   0  0  0  0  0  0  0  0  0  0  0  0
   11.1900  -17.5898   28.9549 O   0  0  0  0  0  0  0  0  0  0  0  0
   11.8824  -15.6716   29.9027 O   0  0  0  0  0  0  0  0  0  0  0  0
  2 12  2  0
  2  1  1  0
  3  2  1  0
  4  5  1  0
  4  3  2  0
  5 11  2  0
  6  5  1  0
  7  8  1  1
  7  6  1  0
  9  7  1  0
 10  9  2  0
 11 12  1  0
 14 13  1  6
 14 16  1  0
 14 15  1  0
 15  9  1  0
 16 17  2  0
 18 19  1  0
 18 16  1  0
 19 20  1  1
 20 21  1  0
 21 22  2  0
 22 23  1  0
 24 23  2  0
 25 24  1  0
 26 25  2  0
 26 21  1  0
 27 19  1  0
 28 27  1  0
 29 27  2  0
M  END
$$$$
