YAF.pdb
     RDKit          3D

 29 30  0  0  1  0  0  0  0  0999 V2000
    8.0428  -12.5341   16.4786 O   0  0  0  0  0  0  0  0  0  0  0  0
    7.9464  -13.0353   17.7847 C   0  0  0  0  0  0  0  0  0  0  0  0
    6.7669  -12.9546   18.4977 C   0  0  0  0  0  0  0  0  0  0  0  0
    6.6357  -13.4364   19.7826 C   0  0  0  0  0  0  0  0  0  0  0  0
    7.7135  -14.0288   20.4056 C   0  0  0  0  0  0  0  0  0  0  0  0
    7.6409  -14.5644   21.7777 C   0  0  0  0  0  0  0  0  0  0  0  0
    7.6390  -16.0944   21.7653 C   0  0  2  0  0  0  0  0  0  0  0  0
    6.2974  -16.5227   21.4674 N   0  0  0  0  0  0  0  0  0  0  0  0
    8.0775  -16.5795   23.0928 C   0  0  0  0  0  0  0  0  0  0  0  0
    7.2157  -16.5172   24.0276 O   0  0  0  0  0  0  0  0  0  0  0  0
    8.8951  -14.1137   19.7013 C   0  0  0  0  0  0  0  0  0  0  0  0
    9.0191  -13.6307   18.4186 C   0  0  0  0  0  0  0  0  0  0  0  0
   10.6810  -18.6883   24.6718 C   0  0  0  0  0  0  0  0  0  0  0  0
    9.6874  -17.5301   24.6820 C   0  0  2  0  0  0  0  0  0  0  0  0
    9.3734  -17.0938   23.3594 N   0  0  0  0  0  0  0  0  0  0  0  0
   10.2780  -16.4471   25.5151 C   0  0  0  0  0  0  0  0  0  0  0  0
   11.0559  -15.6041   25.0253 O   0  0  0  0  0  0  0  0  0  0  0  0
    9.9376  -16.3966   26.8708 N   0  0  0  0  0  0  0  0  0  0  0  0
   10.3548  -15.3488   27.7814 C   0  0  1  0  0  0  0  0  0  0  0  0
    9.0735  -14.7633   28.3359 C   0  0  0  0  0  0  0  0  0  0  0  0
    8.3021  -13.9605   27.3923 C   0  0  0  0  0  0  0  0  0  0  0  0
    7.1138  -14.4070   26.8555 C   0  0  0  0  0  0  0  0  0  0  0  0
    6.3880  -13.6195   25.9542 C   0  0  0  0  0  0  0  0  0  0  0  0
    6.8546  -12.3703   25.5842 C   0  0  0  0  0  0  0  0  0  0  0  0
    8.0428  -11.9200   26.1190 C   0  0  0  0  0  0  0  0  0  0  0  0
    8.7486  -12.7214   27.0147 C   0  0  0  0  0  0  0  0  0  0  0  0
   11.1900  -15.9735   28.8254 C   0  0  0  0  0  0  0  0  0  0  0  0
   11.3391  -17.3460   28.8365 O   0  0  0  0  0  0  0  0  0  0  0  0
   11.7744  -15.3190   29.7079 O   0  0  0  0  0  0  0  0  0  0  0  0
  2 12  2  0
  2  1  1  0
  3  2  1  0
  4  5  1  0
  4  3  2  0
  5 11  2  0
  6  5  1  0
  7  8  1  1
  7  6  1  0
  9  7  1  0
 10  9  2  0
 11 12  1  0
 14 13  1  6
 14 16  1  0
 14 15  1  0
 15  9  1  0
 16 17  2  0
 18 19  1  0
 18 16  1  0
 19 20  1  1
 20 21  1  0
 21 22  2  0
 22 23  1  0
 24 23  2  0
 25 24  1  0
 26 25  2  0
 26 21  1  0
 27 19  1  0
 28 27  1  0
 29 27  2  0
M  END
$$$$
