YAF.pdb
     RDKit          3D

 29 30  0  0  1  0  0  0  0  0999 V2000
    7.9448  -12.2091   17.0666 O   0  0  0  0  0  0  0  0  0  0  0  0
    7.8435  -12.8406   18.3145 C   0  0  0  0  0  0  0  0  0  0  0  0
    8.9677  -13.1514   19.0534 C   0  0  0  0  0  0  0  0  0  0  0  0
    8.9061  -13.7715   20.2830 C   0  0  0  0  0  0  0  0  0  0  0  0
    7.6817  -14.1066   20.8208 C   0  0  0  0  0  0  0  0  0  0  0  0
    7.5453  -14.7709   22.1304 C   0  0  0  0  0  0  0  0  0  0  0  0
    7.7640  -16.2796   22.0006 C   0  0  2  0  0  0  0  0  0  0  0  0
    6.4757  -16.8867   21.7911 N   0  0  0  0  0  0  0  0  0  0  0  0
    8.3977  -16.7751   23.2428 C   0  0  0  0  0  0  0  0  0  0  0  0
    7.6279  -16.9282   24.2449 O   0  0  0  0  0  0  0  0  0  0  0  0
    6.5540  -13.8001   20.0902 C   0  0  0  0  0  0  0  0  0  0  0  0
    6.6227  -13.1808   18.8631 C   0  0  0  0  0  0  0  0  0  0  0  0
   11.5106  -18.4688   24.3808 C   0  0  0  0  0  0  0  0  0  0  0  0
   10.2716  -17.6035   24.5930 C   0  0  2  0  0  0  0  0  0  0  0  0
    9.7798  -17.0766   23.3606 N   0  0  0  0  0  0  0  0  0  0  0  0
   10.6376  -16.5366   25.5644 C   0  0  0  0  0  0  0  0  0  0  0  0
   11.2230  -15.4986   25.1965 O   0  0  0  0  0  0  0  0  0  0  0  0
   10.3069  -16.7270   26.9100 N   0  0  0  0  0  0  0  0  0  0  0  0
   10.5713  -15.7656   27.9622 C   0  0  1  0  0  0  0  0  0  0  0  0
    9.2119  -15.3746   28.5016 C   0  0  0  0  0  0  0  0  0  0  0  0
    8.4348  -14.4920   27.6372 C   0  0  0  0  0  0  0  0  0  0  0  0
    7.2787  -14.9123   27.0156 C   0  0  0  0  0  0  0  0  0  0  0  0
    6.5467  -14.0483   26.1929 C   0  0  0  0  0  0  0  0  0  0  0  0
    6.9746  -12.7482   25.9880 C   0  0  0  0  0  0  0  0  0  0  0  0
    8.1305  -12.3240   26.6079 C   0  0  0  0  0  0  0  0  0  0  0  0
    8.8431  -13.2018   27.4230 C   0  0  0  0  0  0  0  0  0  0  0  0
   11.4111  -16.4344   28.9748 C   0  0  0  0  0  0  0  0  0  0  0  0
   11.9987  -15.6773   29.9686 O   0  0  0  0  0  0  0  0  0  0  0  0
   11.6199  -17.6612   28.9795 O   0  0  0  0  0  0  0  0  0  0  0  0
  2 12  2  0
  2  1  1  0
  3  2  1  0
  4  5  1  0
  4  3  2  0
  5 11  2  0
  6  5  1  0
  7  8  1  1
  7  6  1  0
  9  7  1  0
 10  9  2  0
 11 12  1  0
 14 13  1  6
 14 16  1  0
 14 15  1  0
 15  9  1  0
 16 17  2  0
 18 19  1  0
 18 16  1  0
 19 20  1  1
 20 21  1  0
 21 22  2  0
 22 23  1  0
 24 23  2  0
 25 24  1  0
 26 25  2  0
 26 21  1  0
 27 19  1  0
 28 27  1  0
 29 27  2  0
M  END
$$$$
