YAF.pdb
     RDKit          3D

 29 30  0  0  1  0  0  0  0  0999 V2000
    8.8155  -12.9439   16.7245 O   0  0  0  0  0  0  0  0  0  0  0  0
    8.3912  -13.4123   17.9763 C   0  0  0  0  0  0  0  0  0  0  0  0
    9.2034  -14.2131   18.7544 C   0  0  0  0  0  0  0  0  0  0  0  0
    8.8197  -14.6914   19.9890 C   0  0  0  0  0  0  0  0  0  0  0  0
    7.5765  -14.3714   20.4916 C   0  0  0  0  0  0  0  0  0  0  0  0
    7.1043  -14.8496   21.8043 C   0  0  0  0  0  0  0  0  0  0  0  0
    7.1610  -16.3767   21.8797 C   0  0  2  0  0  0  0  0  0  0  0  0
    5.9235  -16.8823   21.3458 N   0  0  0  0  0  0  0  0  0  0  0  0
    7.3406  -16.7749   23.2936 C   0  0  0  0  0  0  0  0  0  0  0  0
    6.4318  -16.4019   24.1031 O   0  0  0  0  0  0  0  0  0  0  0  0
    6.7589  -13.5725   19.7217 C   0  0  0  0  0  0  0  0  0  0  0  0
    7.1484  -13.0983   18.4898 C   0  0  0  0  0  0  0  0  0  0  0  0
    9.0642  -19.1965   25.4462 C   0  0  0  0  0  0  0  0  0  0  0  0
    8.5588  -17.7834   25.1699 C   0  0  2  0  0  0  0  0  0  0  0  0
    8.4450  -17.5291   23.7696 N   0  0  0  0  0  0  0  0  0  0  0  0
    9.4893  -16.8397   25.8476 C   0  0  0  0  0  0  0  0  0  0  0  0
   10.5960  -16.5516   25.3499 O   0  0  0  0  0  0  0  0  0  0  0  0
    9.0901  -16.2791   27.0653 N   0  0  0  0  0  0  0  0  0  0  0  0
    9.9178  -15.4081   27.8762 C   0  0  1  0  0  0  0  0  0  0  0  0
    8.9791  -14.3523   28.4203 C   0  0  0  0  0  0  0  0  0  0  0  0
    8.3414  -13.5133   27.4107 C   0  0  0  0  0  0  0  0  0  0  0  0
    9.0739  -12.7922   26.4926 C   0  0  0  0  0  0  0  0  0  0  0  0
    8.4419  -11.9959   25.5305 C   0  0  0  0  0  0  0  0  0  0  0  0
    7.0609  -11.9185   25.4845 C   0  0  0  0  0  0  0  0  0  0  0  0
    6.3246  -12.6383   26.4011 C   0  0  0  0  0  0  0  0  0  0  0  0
    6.9754  -13.4247   27.3501 C   0  0  0  0  0  0  0  0  0  0  0  0
   10.5207  -16.2326   28.9414 C   0  0  0  0  0  0  0  0  0  0  0  0
   10.1370  -17.5526   29.0695 O   0  0  0  0  0  0  0  0  0  0  0  0
   11.3680  -15.7942   29.7404 O   0  0  0  0  0  0  0  0  0  0  0  0
  2 12  2  0
  2  1  1  0
  3  2  1  0
  4  5  1  0
  4  3  2  0
  5 11  2  0
  6  5  1  0
  7  8  1  1
  7  6  1  0
  9  7  1  0
 10  9  2  0
 11 12  1  0
 14 13  1  6
 14 16  1  0
 14 15  1  0
 15  9  1  0
 16 17  2  0
 18 19  1  0
 18 16  1  0
 19 20  1  1
 20 21  1  0
 21 22  2  0
 22 23  1  0
 24 23  2  0
 25 24  1  0
 26 25  2  0
 26 21  1  0
 27 19  1  0
 28 27  1  0
 29 27  2  0
M  END
$$$$
