YAF.pdb
     RDKit          3D

 29 30  0  0  1  0  0  0  0  0999 V2000
   15.1394  -22.3207   16.8756 O   0  0  0  0  0  0  0  0  0  0  0  0
   14.4177  -21.4244   17.6769 C   0  0  0  0  0  0  0  0  0  0  0  0
   13.7408  -21.8537   18.8011 C   0  0  0  0  0  0  0  0  0  0  0  0
   13.0216  -21.0016   19.6116 C   0  0  0  0  0  0  0  0  0  0  0  0
   12.9594  -19.6580   19.3090 C   0  0  0  0  0  0  0  0  0  0  0  0
   12.2084  -18.6930   20.1334 C   0  0  0  0  0  0  0  0  0  0  0  0
   10.7478  -19.1241   20.2808 C   0  0  2  0  0  0  0  0  0  0  0  0
   10.1516  -19.0866   18.9711 N   0  0  0  0  0  0  0  0  0  0  0  0
   10.0698  -18.1916   21.2085 C   0  0  0  0  0  0  0  0  0  0  0  0
   10.6980  -17.1204   21.4885 O   0  0  0  0  0  0  0  0  0  0  0  0
   13.6321  -19.2204   18.1886 C   0  0  0  0  0  0  0  0  0  0  0  0
   14.3483  -20.0767   17.3837 C   0  0  0  0  0  0  0  0  0  0  0  0
    6.7518  -17.7700   22.9505 C   0  0  0  0  0  0  0  0  0  0  0  0
    8.1891  -17.4154   22.5801 C   0  0  2  0  0  0  0  0  0  0  0  0
    8.7928  -18.4320   21.7800 N   0  0  0  0  0  0  0  0  0  0  0  0
    8.9273  -17.1749   23.8501 C   0  0  0  0  0  0  0  0  0  0  0  0
    9.5928  -18.0789   24.3938 O   0  0  0  0  0  0  0  0  0  0  0  0
    8.8566  -15.9014   24.4241 N   0  0  0  0  0  0  0  0  0  0  0  0
    9.4951  -15.5284   25.6708 C   0  0  1  0  0  0  0  0  0  0  0  0
    9.5541  -14.0157   25.6564 C   0  0  0  0  0  0  0  0  0  0  0  0
    8.2686  -13.3457   25.8253 C   0  0  0  0  0  0  0  0  0  0  0  0
    7.3439  -13.2735   24.8058 C   0  0  0  0  0  0  0  0  0  0  0  0
    6.1155  -12.6286   24.9902 C   0  0  0  0  0  0  0  0  0  0  0  0
    5.8061  -12.0483   26.2079 C   0  0  0  0  0  0  0  0  0  0  0  0
    6.7283  -12.1184   27.2302 C   0  0  0  0  0  0  0  0  0  0  0  0
    7.9453  -12.7658   27.0238 C   0  0  0  0  0  0  0  0  0  0  0  0
    8.6625  -16.0520   26.7709 C   0  0  0  0  0  0  0  0  0  0  0  0
    9.2129  -16.1774   28.0309 O   0  0  0  0  0  0  0  0  0  0  0  0
    7.4746  -16.3909   26.6201 O   0  0  0  0  0  0  0  0  0  0  0  0
  2 12  2  0
  2  1  1  0
  3  2  1  0
  4  5  1  0
  4  3  2  0
  5 11  2  0
  6  5  1  0
  7  8  1  6
  7  6  1  0
  9  7  1  0
 10  9  2  0
 11 12  1  0
 14 13  1  1
 14 16  1  0
 14 15  1  0
 15  9  1  0
 16 17  2  0
 18 19  1  0
 18 16  1  0
 19 20  1  1
 20 21  1  0
 21 22  2  0
 22 23  1  0
 24 23  2  0
 25 24  1  0
 26 25  2  0
 26 21  1  0
 27 19  1  0
 28 27  1  0
 29 27  2  0
M  END
$$$$
