YAF.pdb
     RDKit          3D

 29 30  0  0  1  0  0  0  0  0999 V2000
    8.9900  -18.3949   28.8363 O   0  0  0  0  0  0  0  0  0  0  0  0
    8.5523  -18.8820   27.5963 C   0  0  0  0  0  0  0  0  0  0  0  0
    7.3429  -19.5358   27.4699 C   0  0  0  0  0  0  0  0  0  0  0  0
    6.8810  -20.0275   26.2677 C   0  0  0  0  0  0  0  0  0  0  0  0
    7.6400  -19.8730   25.1272 C   0  0  0  0  0  0  0  0  0  0  0  0
    7.2049  -20.3748   23.8105 C   0  0  0  0  0  0  0  0  0  0  0  0
    6.1345  -19.4630   23.2073 C   0  0  2  0  0  0  0  0  0  0  0  0
    5.4368  -20.2215   22.2022 N   0  0  0  0  0  0  0  0  0  0  0  0
    6.7976  -18.2759   22.6232 C   0  0  0  0  0  0  0  0  0  0  0  0
    7.7933  -18.5042   21.8638 O   0  0  0  0  0  0  0  0  0  0  0  0
    8.8489  -19.2214   25.2440 C   0  0  0  0  0  0  0  0  0  0  0  0
    9.3040  -18.7330   26.4475 C   0  0  0  0  0  0  0  0  0  0  0  0
    6.1373  -14.7108   21.8922 C   0  0  0  0  0  0  0  0  0  0  0  0
    7.0736  -15.8726   22.2125 C   0  0  2  0  0  0  0  0  0  0  0  0
    6.3850  -16.9394   22.8652 N   0  0  0  0  0  0  0  0  0  0  0  0
    8.1906  -15.3283   23.0320 C   0  0  0  0  0  0  0  0  0  0  0  0
    8.9768  -14.4766   22.5715 O   0  0  0  0  0  0  0  0  0  0  0  0
    8.3390  -15.7980   24.3411 N   0  0  0  0  0  0  0  0  0  0  0  0
    9.3538  -15.3354   25.2671 C   0  0  1  0  0  0  0  0  0  0  0  0
    8.6235  -15.0727   26.5669 C   0  0  0  0  0  0  0  0  0  0  0  0
    7.8396  -13.8421   26.5972 C   0  0  0  0  0  0  0  0  0  0  0  0
    8.4296  -12.5991   26.5174 C   0  0  0  0  0  0  0  0  0  0  0  0
    7.6585  -11.4312   26.5452 C   0  0  0  0  0  0  0  0  0  0  0  0
    6.2809  -11.5053   26.6542 C   0  0  0  0  0  0  0  0  0  0  0  0
    5.6869  -12.7468   26.7343 C   0  0  0  0  0  0  0  0  0  0  0  0
    6.4747  -13.8963   26.7046 C   0  0  0  0  0  0  0  0  0  0  0  0
   10.3633  -16.4047   25.3910 C   0  0  0  0  0  0  0  0  0  0  0  0
   10.1698  -17.5945   24.7180 O   0  0  0  0  0  0  0  0  0  0  0  0
   11.3933  -16.2882   26.0796 O   0  0  0  0  0  0  0  0  0  0  0  0
  2 12  2  0
  2  1  1  0
  3  2  1  0
  4  5  1  0
  4  3  2  0
  5 11  2  0
  6  5  1  0
  7  8  1  6
  7  6  1  0
  9  7  1  0
 10  9  2  0
 11 12  1  0
 14 13  1  1
 14 16  1  0
 14 15  1  0
 15  9  1  0
 16 17  2  0
 18 19  1  0
 18 16  1  0
 19 20  1  1
 20 21  1  0
 21 22  2  0
 22 23  1  0
 24 23  2  0
 25 24  1  0
 26 25  2  0
 26 21  1  0
 27 19  1  0
 28 27  1  0
 29 27  2  0
M  END
$$$$
