YAF.pdb
     RDKit          3D

 29 30  0  0  1  0  0  0  0  0999 V2000
    7.7237  -12.8525   16.1785 O   0  0  0  0  0  0  0  0  0  0  0  0
    7.8243  -13.3890   17.4702 C   0  0  0  0  0  0  0  0  0  0  0  0
    7.6365  -12.6025   18.5893 C   0  0  0  0  0  0  0  0  0  0  0  0
    7.7276  -13.0956   19.8733 C   0  0  0  0  0  0  0  0  0  0  0  0
    8.0176  -14.4279   20.0767 C   0  0  0  0  0  0  0  0  0  0  0  0
    8.1294  -15.0191   21.4232 C   0  0  0  0  0  0  0  0  0  0  0  0
    7.2514  -16.2662   21.5445 C   0  0  2  0  0  0  0  0  0  0  0  0
    5.8837  -15.8255   21.6295 N   0  0  0  0  0  0  0  0  0  0  0  0
    7.6536  -17.0126   22.7575 C   0  0  0  0  0  0  0  0  0  0  0  0
    7.4496  -16.4295   23.8705 O   0  0  0  0  0  0  0  0  0  0  0  0
    8.2066  -15.2207   18.9653 C   0  0  0  0  0  0  0  0  0  0  0  0
    8.1142  -14.7219   17.6860 C   0  0  0  0  0  0  0  0  0  0  0  0
    9.0087  -20.3507   23.8294 C   0  0  0  0  0  0  0  0  0  0  0  0
    8.7730  -18.8471   23.9416 C   0  0  2  0  0  0  0  0  0  0  0  0
    8.2370  -18.3064   22.7339 N   0  0  0  0  0  0  0  0  0  0  0  0
   10.0700  -18.2226   24.3204 C   0  0  0  0  0  0  0  0  0  0  0  0
   11.0205  -18.1639   23.5149 O   0  0  0  0  0  0  0  0  0  0  0  0
   10.1989  -17.6989   25.6109 N   0  0  0  0  0  0  0  0  0  0  0  0
   11.4325  -17.1745   26.1625 C   0  0  1  0  0  0  0  0  0  0  0  0
   11.3224  -15.6698   26.0368 C   0  0  0  0  0  0  0  0  0  0  0  0
   10.5955  -15.0111   27.1174 C   0  0  0  0  0  0  0  0  0  0  0  0
    9.5028  -14.2063   26.8771 C   0  0  0  0  0  0  0  0  0  0  0  0
    8.8180  -13.5864   27.9287 C   0  0  0  0  0  0  0  0  0  0  0  0
    9.2295  -13.7723   29.2369 C   0  0  0  0  0  0  0  0  0  0  0  0
   10.3221  -14.5767   29.4814 C   0  0  0  0  0  0  0  0  0  0  0  0
   10.9885  -15.1839   28.4185 C   0  0  0  0  0  0  0  0  0  0  0  0
   11.5169  -17.6206   27.5667 C   0  0  0  0  0  0  0  0  0  0  0  0
   12.7418  -17.6117   28.2034 O   0  0  0  0  0  0  0  0  0  0  0  0
   10.5284  -18.0093   28.2151 O   0  0  0  0  0  0  0  0  0  0  0  0
  2 12  2  0
  2  1  1  0
  3  2  1  0
  4  5  1  0
  4  3  2  0
  5 11  2  0
  6  5  1  0
  7  8  1  1
  7  6  1  0
  9  7  1  0
 10  9  2  0
 11 12  1  0
 14 13  1  6
 14 16  1  0
 14 15  1  0
 15  9  1  0
 16 17  2  0
 18 19  1  0
 18 16  1  0
 19 20  1  1
 20 21  1  0
 21 22  2  0
 22 23  1  0
 24 23  2  0
 25 24  1  0
 26 25  2  0
 26 21  1  0
 27 19  1  0
 28 27  1  0
 29 27  2  0
M  END
$$$$
