YAF.pdb
     RDKit          3D

 29 30  0  0  1  0  0  0  0  0999 V2000
   10.2043  -12.3573   19.1930 O   0  0  0  0  0  0  0  0  0  0  0  0
    9.1475  -13.1273   19.6998 C   0  0  0  0  0  0  0  0  0  0  0  0
    8.7651  -13.0361   21.0233 C   0  0  0  0  0  0  0  0  0  0  0  0
    7.7317  -13.7771   21.5555 C   0  0  0  0  0  0  0  0  0  0  0  0
    7.0336  -14.6544   20.7533 C   0  0  0  0  0  0  0  0  0  0  0  0
    5.9184  -15.4763   21.2591 C   0  0  0  0  0  0  0  0  0  0  0  0
    6.3517  -16.9333   21.4333 C   0  0  2  0  0  0  0  0  0  0  0  0
    5.1583  -17.7242   21.5837 N   0  0  0  0  0  0  0  0  0  0  0  0
    7.2170  -17.0304   22.6298 C   0  0  0  0  0  0  0  0  0  0  0  0
    6.6272  -16.9781   23.7567 O   0  0  0  0  0  0  0  0  0  0  0  0
    7.4084  -14.7520   19.4306 C   0  0  0  0  0  0  0  0  0  0  0  0
    8.4412  -14.0092   18.9057 C   0  0  0  0  0  0  0  0  0  0  0  0
   10.5374  -18.4418   23.4274 C   0  0  0  0  0  0  0  0  0  0  0  0
    9.3295  -17.5690   23.7561 C   0  0  2  0  0  0  0  0  0  0  0  0
    8.6282  -17.1745   22.5767 N   0  0  0  0  0  0  0  0  0  0  0  0
    9.8243  -16.4057   24.5420 C   0  0  0  0  0  0  0  0  0  0  0  0
   10.3513  -15.4232   23.9829 O   0  0  0  0  0  0  0  0  0  0  0  0
    9.6831  -16.4405   25.9331 N   0  0  0  0  0  0  0  0  0  0  0  0
   10.1078  -15.3806   26.8261 C   0  0  1  0  0  0  0  0  0  0  0  0
    8.9194  -15.1100   27.7240 C   0  0  0  0  0  0  0  0  0  0  0  0
    7.9377  -14.1746   27.1843 C   0  0  0  0  0  0  0  0  0  0  0  0
    8.2747  -12.8851   26.8334 C   0  0  0  0  0  0  0  0  0  0  0  0
    7.3179  -12.0050   26.3146 C   0  0  0  0  0  0  0  0  0  0  0  0
    6.0080  -12.4176   26.1439 C   0  0  0  0  0  0  0  0  0  0  0  0
    5.6669  -13.7067   26.4937 C   0  0  0  0  0  0  0  0  0  0  0  0
    6.6364  -14.5657   27.0084 C   0  0  0  0  0  0  0  0  0  0  0  0
   11.2816  -15.8724   27.5733 C   0  0  0  0  0  0  0  0  0  0  0  0
   12.0743  -14.9687   28.2523 O   0  0  0  0  0  0  0  0  0  0  0  0
   11.5981  -17.0748   27.6239 O   0  0  0  0  0  0  0  0  0  0  0  0
  2 12  2  0
  2  1  1  0
  3  2  1  0
  4  5  1  0
  4  3  2  0
  5 11  2  0
  6  5  1  0
  7  8  1  1
  7  6  1  0
  9  7  1  0
 10  9  2  0
 11 12  1  0
 14 13  1  6
 14 16  1  0
 14 15  1  0
 15  9  1  0
 16 17  2  0
 18 19  1  0
 18 16  1  0
 19 20  1  1
 20 21  1  0
 21 22  2  0
 22 23  1  0
 24 23  2  0
 25 24  1  0
 26 25  2  0
 26 21  1  0
 27 19  1  0
 28 27  1  0
 29 27  2  0
M  END
$$$$
