YAF.pdb
     RDKit          3D

 29 30  0  0  1  0  0  0  0  0999 V2000
   11.9370  -12.6583   18.5514 O   0  0  0  0  0  0  0  0  0  0  0  0
   10.7659  -13.0417   19.2206 C   0  0  0  0  0  0  0  0  0  0  0  0
    9.5184  -12.7545   18.7032 C   0  0  0  0  0  0  0  0  0  0  0  0
    8.3467  -13.1157   19.3331 C   0  0  0  0  0  0  0  0  0  0  0  0
    8.3944  -13.7937   20.5325 C   0  0  0  0  0  0  0  0  0  0  0  0
    7.1795  -14.2091   21.2581 C   0  0  0  0  0  0  0  0  0  0  0  0
    6.9879  -15.7248   21.1754 C   0  0  2  0  0  0  0  0  0  0  0  0
    5.5987  -15.9699   20.8884 N   0  0  0  0  0  0  0  0  0  0  0  0
    7.3849  -16.3238   22.4691 C   0  0  0  0  0  0  0  0  0  0  0  0
    6.5812  -16.1485   23.4406 O   0  0  0  0  0  0  0  0  0  0  0  0
    9.6355  -14.0846   21.0566 C   0  0  0  0  0  0  0  0  0  0  0  0
   10.8015  -13.7210   20.4224 C   0  0  0  0  0  0  0  0  0  0  0  0
    9.6672  -18.8854   23.8770 C   0  0  0  0  0  0  0  0  0  0  0  0
    8.8645  -17.5903   23.9615 C   0  0  2  0  0  0  0  0  0  0  0  0
    8.5823  -17.0601   22.6663 N   0  0  0  0  0  0  0  0  0  0  0  0
    9.6392  -16.6436   24.8095 C   0  0  0  0  0  0  0  0  0  0  0  0
   10.6061  -16.0040   24.3493 O   0  0  0  0  0  0  0  0  0  0  0  0
    9.2544  -16.4867   26.1451 N   0  0  0  0  0  0  0  0  0  0  0  0
    9.8917  -15.5805   27.0798 C   0  0  1  0  0  0  0  0  0  0  0  0
    8.7614  -14.9582   27.8717 C   0  0  0  0  0  0  0  0  0  0  0  0
    8.0668  -13.8637   27.2012 C   0  0  0  0  0  0  0  0  0  0  0  0
    8.7465  -12.8741   26.5244 C   0  0  0  0  0  0  0  0  0  0  0  0
    8.0603  -11.8348   25.8855 C   0  0  0  0  0  0  0  0  0  0  0  0
    6.6779  -11.7830   25.9227 C   0  0  0  0  0  0  0  0  0  0  0  0
    5.9943  -12.7710   26.5987 C   0  0  0  0  0  0  0  0  0  0  0  0
    6.6985  -13.7963   27.2276 C   0  0  0  0  0  0  0  0  0  0  0  0
   10.8014  -16.3793   27.9237 C   0  0  0  0  0  0  0  0  0  0  0  0
   11.7400  -15.7318   28.7020 O   0  0  0  0  0  0  0  0  0  0  0  0
   10.7660  -17.6223   27.9710 O   0  0  0  0  0  0  0  0  0  0  0  0
  2 12  2  0
  2  1  1  0
  3  2  1  0
  4  5  1  0
  4  3  2  0
  5 11  2  0
  6  5  1  0
  7  8  1  1
  7  6  1  0
  9  7  1  0
 10  9  2  0
 11 12  1  0
 14 13  1  6
 14 16  1  0
 14 15  1  0
 15  9  1  0
 16 17  2  0
 18 19  1  0
 18 16  1  0
 19 20  1  1
 20 21  1  0
 21 22  2  0
 22 23  1  0
 24 23  2  0
 25 24  1  0
 26 25  2  0
 26 21  1  0
 27 19  1  0
 28 27  1  0
 29 27  2  0
M  END
$$$$
