YAF.pdb
     RDKit          3D

 29 30  0  0  1  0  0  0  0  0999 V2000
    8.1238  -12.3327   16.5932 O   0  0  0  0  0  0  0  0  0  0  0  0
    7.9810  -12.8926   17.8709 C   0  0  0  0  0  0  0  0  0  0  0  0
    9.0548  -13.4576   18.5295 C   0  0  0  0  0  0  0  0  0  0  0  0
    8.9514  -14.0168   19.7853 C   0  0  0  0  0  0  0  0  0  0  0  0
    7.7347  -14.0253   20.4335 C   0  0  0  0  0  0  0  0  0  0  0  0
    7.5554  -14.6070   21.7767 C   0  0  0  0  0  0  0  0  0  0  0  0
    7.5974  -16.1353   21.7180 C   0  0  2  0  0  0  0  0  0  0  0  0
    6.2728  -16.5918   21.3871 N   0  0  0  0  0  0  0  0  0  0  0  0
    8.0306  -16.6484   23.0366 C   0  0  0  0  0  0  0  0  0  0  0  0
    7.1389  -16.6924   23.9440 O   0  0  0  0  0  0  0  0  0  0  0  0
    6.6571  -13.4635   19.7835 C   0  0  0  0  0  0  0  0  0  0  0  0
    6.7673  -12.9068   18.5297 C   0  0  0  0  0  0  0  0  0  0  0  0
   10.5782  -18.8030   24.5480 C   0  0  0  0  0  0  0  0  0  0  0  0
    9.6468  -17.5964   24.6210 C   0  0  2  0  0  0  0  0  0  0  0  0
    9.3525  -17.0790   23.3233 N   0  0  0  0  0  0  0  0  0  0  0  0
   10.2959  -16.5886   25.5035 C   0  0  0  0  0  0  0  0  0  0  0  0
   11.2129  -15.8548   25.0838 O   0  0  0  0  0  0  0  0  0  0  0  0
    9.8498  -16.4831   26.8249 N   0  0  0  0  0  0  0  0  0  0  0  0
   10.3627  -15.5296   27.7888 C   0  0  1  0  0  0  0  0  0  0  0  0
    9.1414  -14.8603   28.3824 C   0  0  0  0  0  0  0  0  0  0  0  0
    8.4331  -13.9565   27.4817 C   0  0  0  0  0  0  0  0  0  0  0  0
    8.9506  -12.7306   27.1226 C   0  0  0  0  0  0  0  0  0  0  0  0
    8.2559  -11.8803   26.2547 C   0  0  0  0  0  0  0  0  0  0  0  0
    7.0288  -12.2586   25.7386 C   0  0  0  0  0  0  0  0  0  0  0  0
    6.5077  -13.4841   26.0953 C   0  0  0  0  0  0  0  0  0  0  0  0
    7.2173  -14.3144   26.9611 C   0  0  0  0  0  0  0  0  0  0  0  0
   11.1382  -16.2847   28.7919 C   0  0  0  0  0  0  0  0  0  0  0  0
   11.9397  -15.5965   29.6807 O   0  0  0  0  0  0  0  0  0  0  0  0
   11.1069  -17.5257   28.8794 O   0  0  0  0  0  0  0  0  0  0  0  0
  2 12  2  0
  2  1  1  0
  3  2  1  0
  4  5  1  0
  4  3  2  0
  5 11  2  0
  6  5  1  0
  7  8  1  1
  7  6  1  0
  9  7  1  0
 10  9  2  0
 11 12  1  0
 14 13  1  6
 14 16  1  0
 14 15  1  0
 15  9  1  0
 16 17  2  0
 18 19  1  0
 18 16  1  0
 19 20  1  1
 20 21  1  0
 21 22  2  0
 22 23  1  0
 24 23  2  0
 25 24  1  0
 26 25  2  0
 26 21  1  0
 27 19  1  0
 28 27  1  0
 29 27  2  0
M  END
$$$$
