YAF.pdb
     RDKit          3D

 29 30  0  0  1  0  0  0  0  0999 V2000
    6.5416  -13.6056   15.6173 O   0  0  0  0  0  0  0  0  0  0  0  0
    7.5216  -13.7785   16.6053 C   0  0  0  0  0  0  0  0  0  0  0  0
    7.4440  -13.1170   17.8147 C   0  0  0  0  0  0  0  0  0  0  0  0
    8.3884  -13.2627   18.8083 C   0  0  0  0  0  0  0  0  0  0  0  0
    9.4666  -14.0989   18.6114 C   0  0  0  0  0  0  0  0  0  0  0  0
   10.5117  -14.2997   19.6324 C   0  0  0  0  0  0  0  0  0  0  0  0
   10.4128  -15.6985   20.2445 C   0  0  2  0  0  0  0  0  0  0  0  0
    9.9573  -16.5914   19.2113 N   0  0  0  0  0  0  0  0  0  0  0  0
    9.4608  -15.6540   21.3766 C   0  0  0  0  0  0  0  0  0  0  0  0
    9.6301  -14.7135   22.2176 O   0  0  0  0  0  0  0  0  0  0  0  0
    9.5523  -14.7634   17.4070 C   0  0  0  0  0  0  0  0  0  0  0  0
    8.6058  -14.6133   16.4192 C   0  0  0  0  0  0  0  0  0  0  0  0
    6.7648  -17.8090   22.8956 C   0  0  0  0  0  0  0  0  0  0  0  0
    7.7324  -16.6316   22.8181 C   0  0  2  0  0  0  0  0  0  0  0  0
    8.4032  -16.5831   21.5587 N   0  0  0  0  0  0  0  0  0  0  0  0
    8.6756  -16.7574   23.9628 C   0  0  0  0  0  0  0  0  0  0  0  0
    9.6976  -17.4680   23.8850 O   0  0  0  0  0  0  0  0  0  0  0  0
    8.3866  -16.0543   25.1369 N   0  0  0  0  0  0  0  0  0  0  0  0
    9.2593  -15.9971   26.2929 C   0  0  1  0  0  0  0  0  0  0  0  0
    9.4349  -14.5236   26.5926 C   0  0  0  0  0  0  0  0  0  0  0  0
    8.1954  -13.7875   26.8206 C   0  0  0  0  0  0  0  0  0  0  0  0
    7.7307  -13.5165   28.0895 C   0  0  0  0  0  0  0  0  0  0  0  0
    6.5408  -12.8061   28.2857 C   0  0  0  0  0  0  0  0  0  0  0  0
    5.8054  -12.3606   27.2012 C   0  0  0  0  0  0  0  0  0  0  0  0
    6.2669  -12.6297   25.9304 C   0  0  0  0  0  0  0  0  0  0  0  0
    7.4545  -13.3387   25.7590 C   0  0  0  0  0  0  0  0  0  0  0  0
    8.5910  -16.7223   27.3908 C   0  0  0  0  0  0  0  0  0  0  0  0
    9.2633  -16.9080   28.5823 O   0  0  0  0  0  0  0  0  0  0  0  0
    7.4381  -17.1812   27.2973 O   0  0  0  0  0  0  0  0  0  0  0  0
  2 12  2  0
  2  1  1  0
  3  2  1  0
  4  5  1  0
  4  3  2  0
  5 11  2  0
  6  5  1  0
  7  8  1  6
  7  6  1  0
  9  7  1  0
 10  9  2  0
 11 12  1  0
 14 13  1  6
 14 16  1  0
 14 15  1  0
 15  9  1  0
 16 17  2  0
 18 19  1  0
 18 16  1  0
 19 20  1  1
 20 21  1  0
 21 22  2  0
 22 23  1  0
 24 23  2  0
 25 24  1  0
 26 25  2  0
 26 21  1  0
 27 19  1  0
 28 27  1  0
 29 27  2  0
M  END
$$$$
