YAF.pdb
     RDKit          3D

 29 30  0  0  1  0  0  0  0  0999 V2000
    3.5655  -23.7774   24.6166 O   0  0  0  0  0  0  0  0  0  0  0  0
    4.3936  -22.6768   24.3530 C   0  0  0  0  0  0  0  0  0  0  0  0
    5.7687  -22.8002   24.3467 C   0  0  0  0  0  0  0  0  0  0  0  0
    6.6131  -21.7409   24.0918 C   0  0  0  0  0  0  0  0  0  0  0  0
    6.0876  -20.4938   23.8287 C   0  0  0  0  0  0  0  0  0  0  0  0
    6.9341  -19.3191   23.5483 C   0  0  0  0  0  0  0  0  0  0  0  0
    6.8310  -18.9130   22.0767 C   0  0  2  0  0  0  0  0  0  0  0  0
    7.4055  -19.9756   21.2937 N   0  0  0  0  0  0  0  0  0  0  0  0
    7.5656  -17.6430   21.8831 C   0  0  0  0  0  0  0  0  0  0  0  0
    8.8019  -17.7458   21.5979 O   0  0  0  0  0  0  0  0  0  0  0  0
    4.7158  -20.3612   23.8328 C   0  0  0  0  0  0  0  0  0  0  0  0
    3.8785  -21.4232   24.0882 C   0  0  0  0  0  0  0  0  0  0  0  0
    6.8899  -13.9884   21.4083 C   0  0  0  0  0  0  0  0  0  0  0  0
    7.7605  -15.2025   21.7198 C   0  0  2  0  0  0  0  0  0  0  0  0
    6.9711  -16.3591   21.9980 N   0  0  0  0  0  0  0  0  0  0  0  0
    8.6486  -14.8311   22.8551 C   0  0  0  0  0  0  0  0  0  0  0  0
    9.4412  -13.8718   22.7706 O   0  0  0  0  0  0  0  0  0  0  0  0
    8.5729  -15.5891   24.0281 N   0  0  0  0  0  0  0  0  0  0  0  0
    9.3254  -15.3081   25.2348 C   0  0  1  0  0  0  0  0  0  0  0  0
    8.2906  -15.1645   26.3305 C   0  0  0  0  0  0  0  0  0  0  0  0
    7.6012  -13.8786   26.3645 C   0  0  0  0  0  0  0  0  0  0  0  0
    6.2302  -13.7829   26.2607 C   0  0  0  0  0  0  0  0  0  0  0  0
    5.5887  -12.5394   26.2987 C   0  0  0  0  0  0  0  0  0  0  0  0
    6.3255  -11.3767   26.4422 C   0  0  0  0  0  0  0  0  0  0  0  0
    7.6970  -11.4682   26.5465 C   0  0  0  0  0  0  0  0  0  0  0  0
    8.3143  -12.7173   26.5061 C   0  0  0  0  0  0  0  0  0  0  0  0
   10.2388  -16.4442   25.4641 C   0  0  0  0  0  0  0  0  0  0  0  0
   10.2180  -17.5119   24.5891 O   0  0  0  0  0  0  0  0  0  0  0  0
   11.0371  -16.4906   26.4175 O   0  0  0  0  0  0  0  0  0  0  0  0
  2 12  2  0
  2  1  1  0
  3  2  1  0
  4  5  1  0
  4  3  2  0
  5 11  2  0
  6  5  1  0
  7  8  1  6
  7  6  1  0
  9  7  1  0
 10  9  2  0
 11 12  1  0
 14 13  1  1
 14 16  1  0
 14 15  1  0
 15  9  1  0
 16 17  2  0
 18 19  1  0
 18 16  1  0
 19 20  1  1
 20 21  1  0
 21 22  2  0
 22 23  1  0
 24 23  2  0
 25 24  1  0
 26 25  2  0
 26 21  1  0
 27 19  1  0
 28 27  1  0
 29 27  2  0
M  END
$$$$
