YAF.pdb
     RDKit          3D

 29 30  0  0  1  0  0  0  0  0999 V2000
    8.8740  -12.0240   20.0776 O   0  0  0  0  0  0  0  0  0  0  0  0
    8.2715  -13.0275   20.8500 C   0  0  0  0  0  0  0  0  0  0  0  0
    7.4975  -14.0117   20.2682 C   0  0  0  0  0  0  0  0  0  0  0  0
    6.8904  -15.0129   20.9957 C   0  0  0  0  0  0  0  0  0  0  0  0
    7.0468  -15.0563   22.3648 C   0  0  0  0  0  0  0  0  0  0  0  0
    6.4252  -16.0993   23.2017 C   0  0  0  0  0  0  0  0  0  0  0  0
    6.9535  -17.4852   22.8259 C   0  0  2  0  0  0  0  0  0  0  0  0
    6.0689  -18.4585   23.4110 N   0  0  0  0  0  0  0  0  0  0  0  0
    8.3307  -17.6251   23.3492 C   0  0  0  0  0  0  0  0  0  0  0  0
    8.4655  -18.3373   24.3956 O   0  0  0  0  0  0  0  0  0  0  0  0
    7.8179  -14.0778   22.9542 C   0  0  0  0  0  0  0  0  0  0  0  0
    8.4212  -13.0810   22.2218 C   0  0  0  0  0  0  0  0  0  0  0  0
   11.7907  -17.1903   22.0100 C   0  0  0  0  0  0  0  0  0  0  0  0
   10.7686  -17.4990   23.1003 C   0  0  2  0  0  0  0  0  0  0  0  0
    9.4688  -17.0198   22.7548 N   0  0  0  0  0  0  0  0  0  0  0  0
   11.2781  -16.9046   24.3663 C   0  0  0  0  0  0  0  0  0  0  0  0
   12.4553  -17.0826   24.7378 O   0  0  0  0  0  0  0  0  0  0  0  0
   10.3988  -16.1356   25.1356 N   0  0  0  0  0  0  0  0  0  0  0  0
   10.7485  -15.5033   26.3922 C   0  0  1  0  0  0  0  0  0  0  0  0
   10.5113  -14.0235   26.1783 C   0  0  0  0  0  0  0  0  0  0  0  0
    9.1087  -13.6254   26.1147 C   0  0  0  0  0  0  0  0  0  0  0  0
    8.7121  -12.3184   26.2991 C   0  0  0  0  0  0  0  0  0  0  0  0
    7.3614  -11.9577   26.2309 C   0  0  0  0  0  0  0  0  0  0  0  0
    6.3943  -12.9141   25.9753 C   0  0  0  0  0  0  0  0  0  0  0  0
    6.7869  -14.2225   25.7901 C   0  0  0  0  0  0  0  0  0  0  0  0
    8.1377  -14.5586   25.8625 C   0  0  0  0  0  0  0  0  0  0  0  0
    9.8728  -16.0720   27.4350 C   0  0  0  0  0  0  0  0  0  0  0  0
    8.9664  -17.0548   27.0906 O   0  0  0  0  0  0  0  0  0  0  0  0
    9.9092  -15.7070   28.6242 O   0  0  0  0  0  0  0  0  0  0  0  0
  2 12  2  0
  2  1  1  0
  3  2  1  0
  4  5  1  0
  4  3  2  0
  5 11  2  0
  6  5  1  0
  7  8  1  1
  7  6  1  0
  9  7  1  0
 10  9  2  0
 11 12  1  0
 14 13  1  6
 14 16  1  0
 14 15  1  0
 15  9  1  0
 16 17  2  0
 18 19  1  0
 18 16  1  0
 19 20  1  6
 20 21  1  0
 21 22  2  0
 22 23  1  0
 24 23  2  0
 25 24  1  0
 26 25  2  0
 26 21  1  0
 27 19  1  0
 28 27  1  0
 29 27  2  0
M  END
$$$$
