YAF.pdb
     RDKit          3D

 29 30  0  0  1  0  0  0  0  0999 V2000
    8.4903  -13.0898   16.3053 O   0  0  0  0  0  0  0  0  0  0  0  0
    8.2639  -13.5118   17.6233 C   0  0  0  0  0  0  0  0  0  0  0  0
    8.9334  -14.5968   18.1531 C   0  0  0  0  0  0  0  0  0  0  0  0
    8.7363  -15.0395   19.4436 C   0  0  0  0  0  0  0  0  0  0  0  0
    7.8374  -14.3885   20.2615 C   0  0  0  0  0  0  0  0  0  0  0  0
    7.5795  -14.8101   21.6509 C   0  0  0  0  0  0  0  0  0  0  0  0
    7.2108  -16.2938   21.7098 C   0  0  2  0  0  0  0  0  0  0  0  0
    5.8264  -16.4106   21.3330 N   0  0  0  0  0  0  0  0  0  0  0  0
    7.4376  -16.7841   23.0876 C   0  0  0  0  0  0  0  0  0  0  0  0
    6.6405  -16.3471   23.9787 O   0  0  0  0  0  0  0  0  0  0  0  0
    7.1645  -13.3042   19.7410 C   0  0  0  0  0  0  0  0  0  0  0  0
    7.3662  -12.8675   18.4516 C   0  0  0  0  0  0  0  0  0  0  0  0
    9.3177  -19.3803   24.9943 C   0  0  0  0  0  0  0  0  0  0  0  0
    8.6616  -18.0132   24.8231 C   0  0  2  0  0  0  0  0  0  0  0  0
    8.4704  -17.6896   23.4457 N   0  0  0  0  0  0  0  0  0  0  0  0
    9.5163  -17.0201   25.5294 C   0  0  0  0  0  0  0  0  0  0  0  0
   10.4403  -16.4248   24.9398 O   0  0  0  0  0  0  0  0  0  0  0  0
    9.2569  -16.7680   26.8806 N   0  0  0  0  0  0  0  0  0  0  0  0
   10.0240  -15.8556   27.7054 C   0  0  1  0  0  0  0  0  0  0  0  0
    9.0068  -14.9222   28.3267 C   0  0  0  0  0  0  0  0  0  0  0  0
    8.3769  -13.9887   27.3984 C   0  0  0  0  0  0  0  0  0  0  0  0
    7.1177  -14.2097   26.8836 C   0  0  0  0  0  0  0  0  0  0  0  0
    6.5307  -13.2997   25.9968 C   0  0  0  0  0  0  0  0  0  0  0  0
    7.2096  -12.1544   25.6192 C   0  0  0  0  0  0  0  0  0  0  0  0
    8.4694  -11.9296   26.1320 C   0  0  0  0  0  0  0  0  0  0  0  0
    9.0341  -12.8497   27.0136 C   0  0  0  0  0  0  0  0  0  0  0  0
   10.7413  -16.6620   28.7118 C   0  0  0  0  0  0  0  0  0  0  0  0
   10.4812  -18.0150   28.8002 O   0  0  0  0  0  0  0  0  0  0  0  0
   11.5794  -16.1796   29.4952 O   0  0  0  0  0  0  0  0  0  0  0  0
  2 12  2  0
  2  1  1  0
  3  2  1  0
  4  5  1  0
  4  3  2  0
  5 11  2  0
  6  5  1  0
  7  8  1  1
  7  6  1  0
  9  7  1  0
 10  9  2  0
 11 12  1  0
 14 13  1  6
 14 16  1  0
 14 15  1  0
 15  9  1  0
 16 17  2  0
 18 19  1  0
 18 16  1  0
 19 20  1  1
 20 21  1  0
 21 22  2  0
 22 23  1  0
 24 23  2  0
 25 24  1  0
 26 25  2  0
 26 21  1  0
 27 19  1  0
 28 27  1  0
 29 27  2  0
M  END
$$$$
