YAF.pdb
     RDKit          3D

 29 30  0  0  1  0  0  0  0  0999 V2000
    8.4061  -12.9040   16.5600 O   0  0  0  0  0  0  0  0  0  0  0  0
    8.2676  -13.3698   17.8754 C   0  0  0  0  0  0  0  0  0  0  0  0
    9.2245  -14.1804   18.4528 C   0  0  0  0  0  0  0  0  0  0  0  0
    9.1214  -14.6566   19.7424 C   0  0  0  0  0  0  0  0  0  0  0  0
    8.0257  -14.3240   20.5101 C   0  0  0  0  0  0  0  0  0  0  0  0
    7.8539  -14.7992   21.8956 C   0  0  0  0  0  0  0  0  0  0  0  0
    7.6695  -16.3176   21.9311 C   0  0  2  0  0  0  0  0  0  0  0  0
    6.2710  -16.5882   21.7232 N   0  0  0  0  0  0  0  0  0  0  0  0
    8.1260  -16.8197   23.2462 C   0  0  0  0  0  0  0  0  0  0  0  0
    7.3233  -16.6559   24.2206 O   0  0  0  0  0  0  0  0  0  0  0  0
    7.0654  -13.5151   19.9419 C   0  0  0  0  0  0  0  0  0  0  0  0
    7.1746  -13.0431   18.6537 C   0  0  0  0  0  0  0  0  0  0  0  0
   10.8001  -18.9846   24.7289 C   0  0  0  0  0  0  0  0  0  0  0  0
    9.6993  -17.9285   24.7681 C   0  0  2  0  0  0  0  0  0  0  0  0
    9.3775  -17.4543   23.4605 N   0  0  0  0  0  0  0  0  0  0  0  0
   10.1617  -16.8401   25.6722 C   0  0  0  0  0  0  0  0  0  0  0  0
   10.9077  -15.9292   25.2606 O   0  0  0  0  0  0  0  0  0  0  0  0
    9.7367  -16.8632   27.0045 N   0  0  0  0  0  0  0  0  0  0  0  0
   10.1604  -15.9149   28.0157 C   0  0  1  0  0  0  0  0  0  0  0  0
    8.8892  -15.2569   28.5088 C   0  0  0  0  0  0  0  0  0  0  0  0
    8.3453  -14.2272   27.6291 C   0  0  0  0  0  0  0  0  0  0  0  0
    8.9735  -13.0134   27.4511 C   0  0  0  0  0  0  0  0  0  0  0  0
    8.4360  -12.0408   26.6001 C   0  0  0  0  0  0  0  0  0  0  0  0
    7.2564  -12.2830   25.9182 C   0  0  0  0  0  0  0  0  0  0  0  0
    6.6250  -13.4959   26.0936 C   0  0  0  0  0  0  0  0  0  0  0  0
    7.1786  -14.4496   26.9460 C   0  0  0  0  0  0  0  0  0  0  0  0
   10.8525  -16.6741   29.0751 C   0  0  0  0  0  0  0  0  0  0  0  0
   11.5999  -15.9913   30.0139 O   0  0  0  0  0  0  0  0  0  0  0  0
   10.7969  -17.9139   29.1675 O   0  0  0  0  0  0  0  0  0  0  0  0
  2 12  2  0
  2  1  1  0
  3  2  1  0
  4  5  1  0
  4  3  2  0
  5 11  2  0
  6  5  1  0
  7  8  1  1
  7  6  1  0
  9  7  1  0
 10  9  2  0
 11 12  1  0
 14 13  1  6
 14 16  1  0
 14 15  1  0
 15  9  1  0
 16 17  2  0
 18 19  1  0
 18 16  1  0
 19 20  1  1
 20 21  1  0
 21 22  2  0
 22 23  1  0
 24 23  2  0
 25 24  1  0
 26 25  2  0
 26 21  1  0
 27 19  1  0
 28 27  1  0
 29 27  2  0
M  END
$$$$
