YAF.pdb
     RDKit          3D

 29 30  0  0  1  0  0  0  0  0999 V2000
    7.0574  -13.2940   15.6508 O   0  0  0  0  0  0  0  0  0  0  0  0
    7.1574  -13.6723   16.9973 C   0  0  0  0  0  0  0  0  0  0  0  0
    7.7131  -12.8293   17.9390 C   0  0  0  0  0  0  0  0  0  0  0  0
    7.8276  -13.1677   19.2704 C   0  0  0  0  0  0  0  0  0  0  0  0
    7.3755  -14.3948   19.7068 C   0  0  0  0  0  0  0  0  0  0  0  0
    7.4678  -14.8190   21.1162 C   0  0  0  0  0  0  0  0  0  0  0  0
    8.9261  -15.0366   21.5246 C   0  0  2  0  0  0  0  0  0  0  0  0
    9.5404  -15.8569   20.5137 N   0  0  0  0  0  0  0  0  0  0  0  0
    8.9538  -15.6999   22.8472 C   0  0  0  0  0  0  0  0  0  0  0  0
    8.1376  -15.2552   23.7169 O   0  0  0  0  0  0  0  0  0  0  0  0
    6.8192  -15.2429   18.7737 C   0  0  0  0  0  0  0  0  0  0  0  0
    6.7080  -14.8987   17.4458 C   0  0  0  0  0  0  0  0  0  0  0  0
   10.5377  -18.6500   24.5698 C   0  0  0  0  0  0  0  0  0  0  0  0
    9.7560  -17.3422   24.4843 C   0  0  2  0  0  0  0  0  0  0  0  0
    9.8218  -16.7738   23.1763 N   0  0  0  0  0  0  0  0  0  0  0  0
   10.2991  -16.4325   25.5299 C   0  0  0  0  0  0  0  0  0  0  0  0
   11.2585  -15.6718   25.2922 O   0  0  0  0  0  0  0  0  0  0  0  0
    9.7034  -16.4508   26.7953 N   0  0  0  0  0  0  0  0  0  0  0  0
   10.1219  -15.6234   27.9095 C   0  0  1  0  0  0  0  0  0  0  0  0
    8.8652  -14.9294   28.3902 C   0  0  0  0  0  0  0  0  0  0  0  0
    8.3082  -13.9489   27.4638 C   0  0  0  0  0  0  0  0  0  0  0  0
    8.9167  -12.7336   27.2348 C   0  0  0  0  0  0  0  0  0  0  0  0
    8.3670  -11.8087   26.3396 C   0  0  0  0  0  0  0  0  0  0  0  0
    7.1947  -12.1007   25.6644 C   0  0  0  0  0  0  0  0  0  0  0  0
    6.5830  -13.3153   25.8908 C   0  0  0  0  0  0  0  0  0  0  0  0
    7.1486  -14.2209   26.7867 C   0  0  0  0  0  0  0  0  0  0  0  0
   10.7026  -16.5150   28.9321 C   0  0  0  0  0  0  0  0  0  0  0  0
   10.6461  -17.8816   28.7441 O   0  0  0  0  0  0  0  0  0  0  0  0
   11.2475  -16.0937   29.9684 O   0  0  0  0  0  0  0  0  0  0  0  0
  2 12  2  0
  2  1  1  0
  3  2  1  0
  4  5  1  0
  4  3  2  0
  5 11  2  0
  6  5  1  0
  7  8  1  6
  7  6  1  0
  9  7  1  0
 10  9  2  0
 11 12  1  0
 14 13  1  6
 14 16  1  0
 14 15  1  0
 15  9  1  0
 16 17  2  0
 18 19  1  0
 18 16  1  0
 19 20  1  1
 20 21  1  0
 21 22  2  0
 22 23  1  0
 24 23  2  0
 25 24  1  0
 26 25  2  0
 26 21  1  0
 27 19  1  0
 28 27  1  0
 29 27  2  0
M  END
$$$$
