NRI.pdb
     RDKit          3D

 28 27  0  0  1  0  0  0  0  0999 V2000
   17.6009  -28.1303  -13.2807 N   0  0  0  0  0  0  0  0  0  0  0  0
   17.4160  -27.1480  -12.2817 C   0  0  0  0  0  0  0  0  0  0  0  0
   16.2949  -27.0053  -11.7527 O   0  0  0  0  0  0  0  0  0  0  0  0
   18.5520  -26.2961  -11.8704 C   0  0  0  0  0  0  0  0  0  0  0  0
   19.8082  -26.7219  -12.5805 C   0  0  2  0  0  0  0  0  0  0  0  0
   20.4302  -27.7656  -11.8250 N   0  0  0  0  0  0  0  0  0  0  0  0
   20.7114  -25.5421  -12.7095 C   0  0  0  0  0  0  0  0  0  0  0  0
   21.1255  -24.9845  -11.6710 O   0  0  0  0  0  0  0  0  0  0  0  0
   26.8174  -25.7564  -16.2158 N   0  0  0  0  0  0  0  0  0  0  0  0
   25.6814  -26.2116  -16.9369 C   0  0  0  0  0  0  0  0  0  0  0  0
   25.5175  -27.4582  -17.2370 N   0  0  0  0  0  0  0  0  0  0  0  0
   24.7094  -25.2665  -17.3329 N   0  0  0  0  0  0  0  0  0  0  0  0
   24.6274  -23.9334  -16.7806 C   0  0  0  0  0  0  0  0  0  0  0  0
   24.0045  -24.0175  -15.4250 C   0  0  0  0  0  0  0  0  0  0  0  0
   22.5380  -23.7234  -15.4635 C   0  0  0  0  0  0  0  0  0  0  0  0
   21.9453  -23.8837  -14.1017 C   0  0  2  0  0  0  0  0  0  0  0  0
   21.1109  -25.0389  -13.9689 N   0  0  0  0  0  0  0  0  0  0  0  0
   21.0965  -22.6801  -13.8596 C   0  0  0  0  0  0  0  0  0  0  0  0
   19.8655  -22.8132  -14.0820 O   0  0  0  0  0  0  0  0  0  0  0  0
   24.7155  -27.8248  -17.7511 C   0  0  0  0  0  0  0  0  0  0  0  0
   19.1787  -19.4434   -9.8857 C   0  0  0  0  0  0  0  0  0  0  0  0
   20.2551  -19.0732  -10.8373 C   0  0  2  0  0  0  0  0  0  0  0  0
   20.9871  -20.1715  -11.5073 C   0  0  0  0  0  0  0  0  0  0  0  0
   22.4399  -20.2160  -11.0909 C   0  0  2  0  0  0  0  0  0  0  0  0
   20.7371  -20.4087  -12.9544 N   0  0  0  0  0  0  0  0  0  0  0  0
   21.6554  -21.4687  -13.4071 C   0  0  0  0  0  0  0  0  0  0  0  0
   20.9749  -19.2682  -13.8539 O   0  0  0  0  0  0  0  0  0  0  0  0
   20.0378  -18.2491  -14.0312 O   0  0  0  0  0  0  0  0  0  0  0  0
  2  1  1  0
  2  3  2  0
  4  2  1  0
  5  4  1  0
  5  6  1  1
  7  8  2  0
  7  5  1  0
 10  9  1  0
 10 12  1  0
 11 10  2  0
 12 13  1  0
 13 14  1  0
 14 15  1  0
 16 15  1  6
 16 17  1  0
 17  7  1  0
 18 19  2  0
 18 16  1  0
 21 22  1  0
 21 20  1  0
 22 23  1  6
 24 22  1  0
 24 25  1  6
 25 18  1  0
 26 24  1  0
 27 26  1  0
 28 26  2  0
M  END
$$$$
