NRI.pdb
     RDKit          3D

 28 27  0  0  1  0  0  0  0  0999 V2000
   29.1772  -24.3430  -17.8349 N   0  0  0  0  0  0  0  0  0  0  0  0
   29.9696  -23.8500  -16.7737 C   0  0  0  0  0  0  0  0  0  0  0  0
   31.0388  -24.4226  -16.4808 O   0  0  0  0  0  0  0  0  0  0  0  0
   29.5261  -22.6595  -16.0179 C   0  0  0  0  0  0  0  0  0  0  0  0
   28.2104  -22.1621  -16.5517 C   0  0  2  0  0  0  0  0  0  0  0  0
   28.4505  -21.4426  -17.7647 N   0  0  0  0  0  0  0  0  0  0  0  0
   27.5752  -21.2857  -15.5254 C   0  0  0  0  0  0  0  0  0  0  0  0
   28.0786  -20.1658  -15.2953 O   0  0  0  0  0  0  0  0  0  0  0  0
   20.7258  -20.9965  -12.3788 N   0  0  0  0  0  0  0  0  0  0  0  0
   20.8177  -21.4648  -13.7166 C   0  0  0  0  0  0  0  0  0  0  0  0
   20.2669  -22.5725  -14.0918 N   0  0  0  0  0  0  0  0  0  0  0  0
   21.5343  -20.6906  -14.6556 N   0  0  0  0  0  0  0  0  0  0  0  0
   22.0901  -19.3910  -14.3535 C   0  0  0  0  0  0  0  0  0  0  0  0
   23.4804  -19.5763  -13.8385 C   0  0  0  0  0  0  0  0  0  0  0  0
   24.2665  -20.5317  -14.6797 C   0  0  0  0  0  0  0  0  0  0  0  0
   25.6159  -20.7557  -14.0793 C   0  0  2  0  0  0  0  0  0  0  0  0
   26.4239  -21.6851  -14.8085 N   0  0  0  0  0  0  0  0  0  0  0  0
   25.3899  -21.3218  -12.7169 C   0  0  0  0  0  0  0  0  0  0  0  0
   25.1117  -22.5475  -12.6625 O   0  0  0  0  0  0  0  0  0  0  0  0
   20.3952  -22.9952  -15.0120 C   0  0  0  0  0  0  0  0  0  0  0  0
   27.4648  -20.4243   -7.0570 C   0  0  0  0  0  0  0  0  0  0  0  0
   26.5234  -21.1120   -7.9747 C   0  0  2  0  0  0  0  0  0  0  0  0
   26.4281  -20.6093   -9.3637 C   0  0  0  0  0  0  0  0  0  0  0  0
   26.5851  -19.1070   -9.4308 C   0  0  2  0  0  0  0  0  0  0  0  0
   25.3756  -21.1748  -10.2499 N   0  0  0  0  0  0  0  0  0  0  0  0
   25.4861  -20.5175  -11.5643 C   0  0  0  0  0  0  0  0  0  0  0  0
   23.9822  -20.9712   -9.8215 O   0  0  0  0  0  0  0  0  0  0  0  0
   23.3693  -21.7819   -8.8647 O   0  0  0  0  0  0  0  0  0  0  0  0
  2  1  1  0
  2  3  2  0
  4  2  1  0
  5  4  1  0
  5  6  1  6
  7  8  2  0
  7  5  1  0
 10  9  1  0
 10 12  1  0
 11 10  2  0
 12 13  1  0
 13 14  1  0
 14 15  1  0
 16 15  1  6
 16 17  1  0
 17  7  1  0
 18 19  2  0
 18 16  1  0
 21 22  1  0
 21 20  1  0
 22 23  1  6
 24 22  1  0
 24 25  1  1
 25 18  1  0
 26 24  1  0
 27 26  1  0
 28 26  2  0
M  END
$$$$
