NRI.pdb
     RDKit          3D

 28 27  0  0  1  0  0  0  0  0999 V2000
   17.5028  -20.3538  -13.5474 N   0  0  0  0  0  0  0  0  0  0  0  0
   18.0398  -19.0505  -13.6480 C   0  0  0  0  0  0  0  0  0  0  0  0
   17.2798  -18.0804  -13.8436 O   0  0  0  0  0  0  0  0  0  0  0  0
   19.4983  -18.8455  -13.5211 C   0  0  0  0  0  0  0  0  0  0  0  0
   20.1994  -20.1668  -13.3596 C   0  0  2  0  0  0  0  0  0  0  0  0
   20.0041  -20.6284  -12.0195 N   0  0  0  0  0  0  0  0  0  0  0  0
   21.6492  -19.9817  -13.6568 C   0  0  0  0  0  0  0  0  0  0  0  0
   22.4174  -19.6550  -12.7274 O   0  0  0  0  0  0  0  0  0  0  0  0
   28.4603  -22.8927  -18.3724 N   0  0  0  0  0  0  0  0  0  0  0  0
   28.5691  -23.0167  -16.9616 C   0  0  0  0  0  0  0  0  0  0  0  0
   29.6947  -23.2823  -16.3841 N   0  0  0  0  0  0  0  0  0  0  0  0
   27.4077  -22.8433  -16.1767 N   0  0  0  0  0  0  0  0  0  0  0  0
   26.1115  -22.5324  -16.7353 C   0  0  0  0  0  0  0  0  0  0  0  0
   25.5723  -21.3236  -16.0421 C   0  0  0  0  0  0  0  0  0  0  0  0
   24.0978  -21.4229  -15.8089 C   0  0  0  0  0  0  0  0  0  0  0  0
   23.5833  -20.1503  -15.2195 C   0  0  2  0  0  0  0  0  0  0  0  0
   22.1766  -20.1649  -14.9558 N   0  0  0  0  0  0  0  0  0  0  0  0
   23.8462  -19.0767  -16.2224 C   0  0  0  0  0  0  0  0  0  0  0  0
   22.9907  -18.9461  -17.1355 O   0  0  0  0  0  0  0  0  0  0  0  0
   29.8050  -23.4277  -15.3798 C   0  0  0  0  0  0  0  0  0  0  0  0
   25.8513  -14.5520  -14.5536 C   0  0  0  0  0  0  0  0  0  0  0  0
   25.0801  -15.3169  -15.5643 C   0  0  2  0  0  0  0  0  0  0  0  0
   25.8434  -16.0676  -16.5866 C   0  0  0  0  0  0  0  0  0  0  0  0
   26.5481  -15.1438  -17.5540 C   0  0  2  0  0  0  0  0  0  0  0  0
   25.2119  -17.2652  -17.2028 N   0  0  0  0  0  0  0  0  0  0  0  0
   24.9924  -18.2617  -16.1396 C   0  0  0  0  0  0  0  0  0  0  0  0
   25.9964  -17.9574  -18.2382 O   0  0  0  0  0  0  0  0  0  0  0  0
   27.1726  -18.6497  -17.9456 O   0  0  0  0  0  0  0  0  0  0  0  0
  2  1  1  0
  2  3  2  0
  4  2  1  0
  5  4  1  0
  5  6  1  1
  7  8  2  0
  7  5  1  0
 10  9  1  0
 10 12  1  0
 11 10  2  0
 12 13  1  0
 13 14  1  0
 14 15  1  0
 16 15  1  6
 16 17  1  0
 17  7  1  0
 18 19  2  0
 18 16  1  0
 21 22  1  0
 21 20  1  0
 22 23  1  1
 24 22  1  0
 24 25  1  6
 25 18  1  0
 26 24  1  0
 27 26  1  0
 28 26  2  0
M  END
$$$$
