NRI.pdb
     RDKit          3D

 28 27  0  0  1  0  0  0  0  0999 V2000
   26.2849  -26.8059  -17.1757 N   0  0  0  0  0  0  0  0  0  0  0  0
   26.3370  -25.4085  -17.3799 C   0  0  0  0  0  0  0  0  0  0  0  0
   25.9672  -24.9272  -18.4700 O   0  0  0  0  0  0  0  0  0  0  0  0
   26.8295  -24.5265  -16.3004 C   0  0  0  0  0  0  0  0  0  0  0  0
   27.4685  -23.2952  -16.8827 C   0  0  2  0  0  0  0  0  0  0  0  0
   28.7709  -23.6391  -17.3646 N   0  0  0  0  0  0  0  0  0  0  0  0
   27.5481  -22.2480  -15.8236 C   0  0  0  0  0  0  0  0  0  0  0  0
   28.5262  -22.2508  -15.0465 O   0  0  0  0  0  0  0  0  0  0  0  0
   27.6341  -16.6122  -18.8742 N   0  0  0  0  0  0  0  0  0  0  0  0
   26.2550  -16.9190  -18.7266 C   0  0  0  0  0  0  0  0  0  0  0  0
   25.4907  -17.1362  -19.7463 N   0  0  0  0  0  0  0  0  0  0  0  0
   25.7134  -16.9857  -17.4239 N   0  0  0  0  0  0  0  0  0  0  0  0
   26.5069  -16.8311  -16.2258 C   0  0  0  0  0  0  0  0  0  0  0  0
   27.0303  -18.1721  -15.8255 C   0  0  0  0  0  0  0  0  0  0  0  0
   26.0280  -18.9506  -15.0330 C   0  0  0  0  0  0  0  0  0  0  0  0
   26.6001  -20.2723  -14.6365 C   0  0  2  0  0  0  0  0  0  0  0  0
   26.5517  -21.2559  -15.6751 N   0  0  0  0  0  0  0  0  0  0  0  0
   25.7741  -20.7725  -13.4985 C   0  0  0  0  0  0  0  0  0  0  0  0
   24.9386  -21.6728  -13.7704 O   0  0  0  0  0  0  0  0  0  0  0  0
   24.5160  -17.4321  -19.6812 C   0  0  0  0  0  0  0  0  0  0  0  0
   25.5835  -20.3905   -7.2988 C   0  0  0  0  0  0  0  0  0  0  0  0
   25.1526  -21.0161   -8.5732 C   0  0  2  0  0  0  0  0  0  0  0  0
   25.7856  -20.5361   -9.8222 C   0  0  0  0  0  0  0  0  0  0  0  0
   26.2989  -19.1205   -9.6852 C   0  0  2  0  0  0  0  0  0  0  0  0
   25.1197  -20.8441  -11.1163 N   0  0  0  0  0  0  0  0  0  0  0  0
   25.9316  -20.2568  -12.1969 C   0  0  0  0  0  0  0  0  0  0  0  0
   23.7643  -20.3003  -11.2993 O   0  0  0  0  0  0  0  0  0  0  0  0
   23.5052  -19.2015  -12.1202 O   0  0  0  0  0  0  0  0  0  0  0  0
  2  1  1  0
  2  3  2  0
  4  2  1  0
  5  4  1  0
  5  6  1  1
  7  8  2  0
  7  5  1  0
 10  9  1  0
 10 12  1  0
 11 10  2  0
 12 13  1  0
 13 14  1  0
 14 15  1  0
 16 15  1  6
 16 17  1  0
 17  7  1  0
 18 19  2  0
 18 16  1  0
 21 22  1  0
 21 20  1  0
 22 23  1  6
 24 22  1  0
 24 25  1  6
 25 18  1  0
 26 24  1  0
 27 26  1  0
 28 26  2  0
M  END
$$$$
