NRI.pdb
     RDKit          3D

 28 27  0  0  1  0  0  0  0  0999 V2000
   29.7399  -23.0428  -18.0471 N   0  0  0  0  0  0  0  0  0  0  0  0
   29.9279  -23.2706  -16.6651 C   0  0  0  0  0  0  0  0  0  0  0  0
   30.7424  -24.1359  -16.2848 O   0  0  0  0  0  0  0  0  0  0  0  0
   29.1581  -22.4822  -15.6795 C   0  0  0  0  0  0  0  0  0  0  0  0
   28.1560  -21.6055  -16.3801 C   0  0  2  0  0  0  0  0  0  0  0  0
   28.8615  -20.6165  -17.1357 N   0  0  0  0  0  0  0  0  0  0  0  0
   27.2743  -20.9711  -15.3580 C   0  0  0  0  0  0  0  0  0  0  0  0
   27.6863  -19.9592  -14.7521 O   0  0  0  0  0  0  0  0  0  0  0  0
   19.4262  -21.6128  -11.8967 N   0  0  0  0  0  0  0  0  0  0  0  0
   19.6590  -20.2117  -11.9171 C   0  0  0  0  0  0  0  0  0  0  0  0
   19.0602  -19.4080  -11.1007 N   0  0  0  0  0  0  0  0  0  0  0  0
   20.5723  -19.6923  -12.8609 N   0  0  0  0  0  0  0  0  0  0  0  0
   21.3336  -20.5211  -13.7678 C   0  0  0  0  0  0  0  0  0  0  0  0
   22.7880  -20.3087  -13.4992 C   0  0  0  0  0  0  0  0  0  0  0  0
   23.6509  -21.0323  -14.4842 C   0  0  0  0  0  0  0  0  0  0  0  0
   25.0932  -20.8142  -14.1624 C   0  0  2  0  0  0  0  0  0  0  0  0
   25.9902  -21.4805  -15.0568 N   0  0  0  0  0  0  0  0  0  0  0  0
   25.3164  -21.3720  -12.7962 C   0  0  0  0  0  0  0  0  0  0  0  0
   25.3252  -22.6265  -12.7017 O   0  0  0  0  0  0  0  0  0  0  0  0
   19.2134  -18.3992  -11.0716 C   0  0  0  0  0  0  0  0  0  0  0  0
   28.0591  -20.0080   -7.5037 C   0  0  0  0  0  0  0  0  0  0  0  0
   27.1232  -20.8589   -8.2790 C   0  0  2  0  0  0  0  0  0  0  0  0
   26.7262  -20.3920   -9.6264 C   0  0  0  0  0  0  0  0  0  0  0  0
   26.5759  -18.8885   -9.6796 C   0  0  2  0  0  0  0  0  0  0  0  0
   25.6841  -21.1576  -10.3617 N   0  0  0  0  0  0  0  0  0  0  0  0
   25.5056  -20.5296  -11.6829 C   0  0  0  0  0  0  0  0  0  0  0  0
   24.3441  -21.1872   -9.7533 O   0  0  0  0  0  0  0  0  0  0  0  0
   24.0304  -22.0207   -8.6785 O   0  0  0  0  0  0  0  0  0  0  0  0
  2  1  1  0
  2  3  2  0
  4  2  1  0
  5  4  1  0
  5  6  1  1
  7  8  2  0
  7  5  1  0
 10  9  1  0
 10 12  1  0
 11 10  2  0
 12 13  1  0
 13 14  1  0
 14 15  1  0
 16 15  1  6
 16 17  1  0
 17  7  1  0
 18 19  2  0
 18 16  1  0
 21 22  1  0
 21 20  1  0
 22 23  1  6
 24 22  1  0
 24 25  1  1
 25 18  1  0
 26 24  1  0
 27 26  1  0
 28 26  2  0
M  END
$$$$
