NRI.pdb
     RDKit          3D

 28 27  0  0  1  0  0  0  0  0999 V2000
   17.2435  -22.0988  -15.2860 N   0  0  0  0  0  0  0  0  0  0  0  0
   18.0384  -21.0995  -14.6804 C   0  0  0  0  0  0  0  0  0  0  0  0
   17.6863  -19.9042  -14.7441 O   0  0  0  0  0  0  0  0  0  0  0  0
   19.2819  -21.4774  -13.9757 C   0  0  0  0  0  0  0  0  0  0  0  0
   19.4678  -22.9700  -14.0084 C   0  0  2  0  0  0  0  0  0  0  0  0
   18.6685  -23.5541  -12.9755 N   0  0  0  0  0  0  0  0  0  0  0  0
   20.9130  -23.2793  -13.8075 C   0  0  0  0  0  0  0  0  0  0  0  0
   21.3490  -23.3878  -12.6418 O   0  0  0  0  0  0  0  0  0  0  0  0
   27.6531  -27.2972  -15.9323 N   0  0  0  0  0  0  0  0  0  0  0  0
   26.3635  -27.5573  -16.4679 C   0  0  0  0  0  0  0  0  0  0  0  0
   25.8230  -28.7301  -16.4081 N   0  0  0  0  0  0  0  0  0  0  0  0
   25.6605  -26.4972  -17.0816 N   0  0  0  0  0  0  0  0  0  0  0  0
   25.9911  -25.1046  -16.8809 C   0  0  0  0  0  0  0  0  0  0  0  0
   25.2793  -24.6178  -15.6607 C   0  0  0  0  0  0  0  0  0  0  0  0
   23.8284  -24.3635  -15.9228 C   0  0  0  0  0  0  0  0  0  0  0  0
   23.1819  -23.7764  -14.7109 C   0  0  2  0  0  0  0  0  0  0  0  0
   21.8000  -23.4526  -14.8948 N   0  0  0  0  0  0  0  0  0  0  0  0
   23.9092  -22.5085  -14.4091 C   0  0  0  0  0  0  0  0  0  0  0  0
   23.5912  -21.5064  -15.0999 O   0  0  0  0  0  0  0  0  0  0  0  0
   24.9213  -28.9690  -16.8225 C   0  0  0  0  0  0  0  0  0  0  0  0
   25.2618  -20.7366   -9.2758 C   0  0  0  0  0  0  0  0  0  0  0  0
   24.9125  -20.6425  -10.7147 C   0  0  2  0  0  0  0  0  0  0  0  0
   25.9142  -21.1149  -11.6967 C   0  0  0  0  0  0  0  0  0  0  0  0
   27.2900  -20.5569  -11.4104 C   0  0  2  0  0  0  0  0  0  0  0  0
   25.5334  -21.1503  -13.1343 N   0  0  0  0  0  0  0  0  0  0  0  0
   24.8945  -22.4507  -13.4039 C   0  0  0  0  0  0  0  0  0  0  0  0
   26.6348  -21.0417  -14.1047 O   0  0  0  0  0  0  0  0  0  0  0  0
   27.3649  -22.1516  -14.5327 O   0  0  0  0  0  0  0  0  0  0  0  0
  2  1  1  0
  2  3  2  0
  4  2  1  0
  5  4  1  0
  5  6  1  1
  7  8  2  0
  7  5  1  0
 10  9  1  0
 10 12  1  0
 11 10  2  0
 12 13  1  0
 13 14  1  0
 14 15  1  0
 16 15  1  6
 16 17  1  0
 17  7  1  0
 18 19  2  0
 18 16  1  0
 21 22  1  0
 21 20  1  0
 22 23  1  6
 24 22  1  0
 24 25  1  6
 25 18  1  0
 26 24  1  0
 27 26  1  0
 28 26  2  0
M  END
$$$$
