NRI.pdb
     RDKit          3D

 28 27  0  0  1  0  0  0  0  0999 V2000
   29.6538  -21.2750  -19.8841 N   0  0  0  0  0  0  0  0  0  0  0  0
   30.2458  -20.7316  -18.7215 C   0  0  0  0  0  0  0  0  0  0  0  0
   31.4248  -21.0209  -18.4332 O   0  0  0  0  0  0  0  0  0  0  0  0
   29.4638  -19.8245  -17.8548 C   0  0  0  0  0  0  0  0  0  0  0  0
   28.0333  -19.7647  -18.3170 C   0  0  2  0  0  0  0  0  0  0  0  0
   27.9308  -18.7976  -19.3662 N   0  0  0  0  0  0  0  0  0  0  0  0
   27.1689  -19.3937  -17.1595 C   0  0  0  0  0  0  0  0  0  0  0  0
   27.4626  -18.3813  -16.4890 O   0  0  0  0  0  0  0  0  0  0  0  0
   21.4268  -21.8537  -16.1168 N   0  0  0  0  0  0  0  0  0  0  0  0
   20.4603  -21.1520  -15.3479 C   0  0  0  0  0  0  0  0  0  0  0  0
   19.6501  -21.7630  -14.5470 N   0  0  0  0  0  0  0  0  0  0  0  0
   20.3908  -19.7467  -15.4699 N   0  0  0  0  0  0  0  0  0  0  0  0
   21.2716  -18.9795  -16.3211 C   0  0  0  0  0  0  0  0  0  0  0  0
   22.6383  -18.9823  -15.7171 C   0  0  0  0  0  0  0  0  0  0  0  0
   23.6622  -19.5456  -16.6514 C   0  0  0  0  0  0  0  0  0  0  0  0
   24.9901  -19.6254  -15.9720 C   0  0  2  0  0  0  0  0  0  0  0  0
   26.0309  -20.1523  -16.8012 N   0  0  0  0  0  0  0  0  0  0  0  0
   24.8227  -20.5489  -14.8115 C   0  0  0  0  0  0  0  0  0  0  0  0
   24.8344  -21.7794  -15.0730 O   0  0  0  0  0  0  0  0  0  0  0  0
   18.9423  -21.2957  -13.9791 C   0  0  0  0  0  0  0  0  0  0  0  0
   26.6452  -21.0655   -9.1102 C   0  0  0  0  0  0  0  0  0  0  0  0
   25.6737  -21.4879  -10.1490 C   0  0  2  0  0  0  0  0  0  0  0  0
   25.6080  -20.6888  -11.3932 C   0  0  0  0  0  0  0  0  0  0  0  0
   25.7744  -19.2106  -11.1224 C   0  0  2  0  0  0  0  0  0  0  0  0
   24.5698  -21.0335  -12.4013 N   0  0  0  0  0  0  0  0  0  0  0  0
   24.6616  -20.0570  -13.5012 C   0  0  0  0  0  0  0  0  0  0  0  0
   23.1720  -20.9830  -11.9429 O   0  0  0  0  0  0  0  0  0  0  0  0
   22.2766  -20.0070  -12.3833 O   0  0  0  0  0  0  0  0  0  0  0  0
  2  1  1  0
  2  3  2  0
  4  2  1  0
  5  4  1  0
  5  6  1  6
  7  8  2  0
  7  5  1  0
 10  9  1  0
 10 12  1  0
 11 10  2  0
 12 13  1  0
 13 14  1  0
 14 15  1  0
 16 15  1  6
 16 17  1  0
 17  7  1  0
 18 19  2  0
 18 16  1  0
 21 22  1  0
 21 20  1  0
 22 23  1  6
 24 22  1  0
 24 25  1  1
 25 18  1  0
 26 24  1  0
 27 26  1  0
 28 26  2  0
M  END
$$$$
