NRI.pdb
     RDKit          3D

 28 27  0  0  1  0  0  0  0  0999 V2000
   24.1771  -30.2352  -16.7365 N   0  0  0  0  0  0  0  0  0  0  0  0
   23.9312  -28.8468  -16.8325 C   0  0  0  0  0  0  0  0  0  0  0  0
   22.8828  -28.4389  -17.3723 O   0  0  0  0  0  0  0  0  0  0  0  0
   24.9180  -27.8873  -16.2929 C   0  0  0  0  0  0  0  0  0  0  0  0
   24.4239  -26.4769  -16.4663 C   0  0  2  0  0  0  0  0  0  0  0  0
   24.5563  -26.1110  -17.8430 N   0  0  0  0  0  0  0  0  0  0  0  0
   25.2280  -25.5747  -15.5922 C   0  0  0  0  0  0  0  0  0  0  0  0
   25.3394  -25.8536  -14.3796 O   0  0  0  0  0  0  0  0  0  0  0  0
   31.1095  -24.5800  -16.0445 N   0  0  0  0  0  0  0  0  0  0  0  0
   31.2000  -24.3875  -17.4490 C   0  0  0  0  0  0  0  0  0  0  0  0
   31.8355  -25.2150  -18.2122 N   0  0  0  0  0  0  0  0  0  0  0  0
   30.5746  -23.2559  -18.0174 N   0  0  0  0  0  0  0  0  0  0  0  0
   29.6082  -22.4452  -17.3119 C   0  0  0  0  0  0  0  0  0  0  0  0
   28.6481  -23.3510  -16.6116 C   0  0  0  0  0  0  0  0  0  0  0  0
   27.5032  -22.5975  -16.0117 C   0  0  0  0  0  0  0  0  0  0  0  0
   26.6126  -23.5297  -15.2573 C   0  0  2  0  0  0  0  0  0  0  0  0
   25.8652  -24.4172  -16.0953 N   0  0  0  0  0  0  0  0  0  0  0  0
   25.6377  -22.6809  -14.5111 C   0  0  0  0  0  0  0  0  0  0  0  0
   24.4572  -22.6757  -14.9458 O   0  0  0  0  0  0  0  0  0  0  0  0
   31.9355  -25.1045  -19.2220 C   0  0  0  0  0  0  0  0  0  0  0  0
   24.8395  -20.5082   -8.8324 C   0  0  0  0  0  0  0  0  0  0  0  0
   24.5929  -20.3127  -10.2823 C   0  0  2  0  0  0  0  0  0  0  0  0
   25.4526  -21.0552  -11.2313 C   0  0  0  0  0  0  0  0  0  0  0  0
   26.9113  -20.6904  -11.0734 C   0  0  2  0  0  0  0  0  0  0  0  0
   24.9880  -21.2077  -12.6362 N   0  0  0  0  0  0  0  0  0  0  0  0
   26.0306  -21.9323  -13.3842 C   0  0  0  0  0  0  0  0  0  0  0  0
   24.7558  -19.9626  -13.3862 O   0  0  0  0  0  0  0  0  0  0  0  0
   25.6568  -19.4866  -14.3400 O   0  0  0  0  0  0  0  0  0  0  0  0
  2  1  1  0
  2  3  2  0
  4  2  1  0
  5  4  1  0
  5  6  1  6
  7  8  2  0
  7  5  1  0
 10  9  1  0
 10 12  1  0
 11 10  2  0
 12 13  1  0
 13 14  1  0
 14 15  1  0
 16 15  1  6
 16 17  1  0
 17  7  1  0
 18 19  2  0
 18 16  1  0
 21 22  1  0
 21 20  1  0
 22 23  1  6
 24 22  1  0
 24 25  1  6
 25 18  1  0
 26 24  1  0
 27 26  1  0
 28 26  2  0
M  END
$$$$
