NRI.pdb
     RDKit          3D

 28 27  0  0  1  0  0  0  0  0999 V2000
   27.8900  -18.5951  -17.9124 N   0  0  0  0  0  0  0  0  0  0  0  0
   28.3585  -17.7882  -16.8509 C   0  0  0  0  0  0  0  0  0  0  0  0
   29.3769  -17.0850  -17.0097 O   0  0  0  0  0  0  0  0  0  0  0  0
   27.6387  -17.7830  -15.5597 C   0  0  0  0  0  0  0  0  0  0  0  0
   26.5231  -18.7922  -15.5795 C   0  0  2  0  0  0  0  0  0  0  0  0
   25.5547  -18.3858  -16.5511 N   0  0  0  0  0  0  0  0  0  0  0  0
   25.9179  -18.8672  -14.2184 C   0  0  0  0  0  0  0  0  0  0  0  0
   25.8694  -17.8304  -13.5232 O   0  0  0  0  0  0  0  0  0  0  0  0
   18.4665  -20.5730  -11.6247 N   0  0  0  0  0  0  0  0  0  0  0  0
   19.0775  -20.6501  -12.9046 C   0  0  0  0  0  0  0  0  0  0  0  0
   18.4577  -20.2893  -13.9802 N   0  0  0  0  0  0  0  0  0  0  0  0
   20.4003  -21.1371  -12.9935 N   0  0  0  0  0  0  0  0  0  0  0  0
   21.1202  -21.6885  -11.8681 C   0  0  0  0  0  0  0  0  0  0  0  0
   22.3601  -20.8824  -11.6553 C   0  0  0  0  0  0  0  0  0  0  0  0
   23.2346  -20.8692  -12.8692 C   0  0  0  0  0  0  0  0  0  0  0  0
   24.4852  -20.1000  -12.5940 C   0  0  2  0  0  0  0  0  0  0  0  0
   25.3996  -20.0739  -13.6947 N   0  0  0  0  0  0  0  0  0  0  0  0
   25.1657  -20.7824  -11.4543 C   0  0  0  0  0  0  0  0  0  0  0  0
   25.3690  -22.0169  -11.5858 O   0  0  0  0  0  0  0  0  0  0  0  0
   18.8498  -20.3588  -14.9200 C   0  0  0  0  0  0  0  0  0  0  0  0
   28.5046  -19.6660   -6.3792 C   0  0  0  0  0  0  0  0  0  0  0  0
   27.6474  -20.5663   -7.1891 C   0  0  2  0  0  0  0  0  0  0  0  0
   27.0002  -19.9985   -8.3931 C   0  0  0  0  0  0  0  0  0  0  0  0
   26.5705  -18.5649   -8.1782 C   0  0  2  0  0  0  0  0  0  0  0  0
   26.0300  -20.8437   -9.1397 N   0  0  0  0  0  0  0  0  0  0  0  0
   25.5539  -20.0719  -10.3014 C   0  0  0  0  0  0  0  0  0  0  0  0
   24.8178  -21.2474   -8.4090 O   0  0  0  0  0  0  0  0  0  0  0  0
   24.8059  -22.3224   -7.5187 O   0  0  0  0  0  0  0  0  0  0  0  0
  2  1  1  0
  2  3  2  0
  4  2  1  0
  5  4  1  0
  5  6  1  6
  7  8  2  0
  7  5  1  0
 10  9  1  0
 10 12  1  0
 11 10  2  0
 12 13  1  0
 13 14  1  0
 14 15  1  0
 16 15  1  6
 16 17  1  0
 17  7  1  0
 18 19  2  0
 18 16  1  0
 21 22  1  0
 21 20  1  0
 22 23  1  6
 24 22  1  0
 24 25  1  1
 25 18  1  0
 26 24  1  0
 27 26  1  0
 28 26  2  0
M  END
$$$$
