NRI.pdb
     RDKit          3D

 28 27  0  0  1  0  0  0  0  0999 V2000
   18.7113  -22.1250  -13.7725 N   0  0  0  0  0  0  0  0  0  0  0  0
   18.6100  -20.7244  -13.6141 C   0  0  0  0  0  0  0  0  0  0  0  0
   17.5947  -20.1261  -14.0242 O   0  0  0  0  0  0  0  0  0  0  0  0
   19.7078  -19.9777  -12.9638 C   0  0  0  0  0  0  0  0  0  0  0  0
   20.8088  -20.9181  -12.5552 C   0  0  2  0  0  0  0  0  0  0  0  0
   20.6209  -21.2748  -11.1825 N   0  0  0  0  0  0  0  0  0  0  0  0
   22.1212  -20.2391  -12.7578 C   0  0  0  0  0  0  0  0  0  0  0  0
   22.4638  -19.3408  -11.9601 O   0  0  0  0  0  0  0  0  0  0  0  0
   27.8065  -20.6653  -10.9218 N   0  0  0  0  0  0  0  0  0  0  0  0
   28.8635  -21.3161  -11.6123 C   0  0  0  0  0  0  0  0  0  0  0  0
   29.7978  -21.9535  -10.9863 N   0  0  0  0  0  0  0  0  0  0  0  0
   28.8849  -21.2584  -13.0234 N   0  0  0  0  0  0  0  0  0  0  0  0
   27.7475  -21.5958  -13.8487 C   0  0  0  0  0  0  0  0  0  0  0  0
   26.5811  -20.7704  -13.4118 C   0  0  0  0  0  0  0  0  0  0  0  0
   25.3548  -21.0631  -14.2174 C   0  0  0  0  0  0  0  0  0  0  0  0
   24.3033  -20.0377  -13.9448 C   0  0  2  0  0  0  0  0  0  0  0  0
   22.9853  -20.5822  -13.8230 N   0  0  0  0  0  0  0  0  0  0  0  0
   24.3032  -19.1043  -15.1095 C   0  0  0  0  0  0  0  0  0  0  0  0
   23.4742  -19.3533  -16.0224 O   0  0  0  0  0  0  0  0  0  0  0  0
   30.6197  -22.3571  -11.4374 C   0  0  0  0  0  0  0  0  0  0  0  0
   27.5414  -14.2339  -15.3769 C   0  0  0  0  0  0  0  0  0  0  0  0
   27.0256  -15.6009  -15.6350 C   0  0  2  0  0  0  0  0  0  0  0  0
   25.5730  -15.7525  -15.8761 C   0  0  0  0  0  0  0  0  0  0  0  0
   24.7505  -15.0649  -14.8099 C   0  0  1  0  0  0  0  0  0  0  0  0
   25.0628  -17.0812  -16.3087 N   0  0  0  0  0  0  0  0  0  0  0  0
   25.1872  -18.0090  -15.1705 C   0  0  0  0  0  0  0  0  0  0  0  0
   25.7774  -17.7241  -17.4233 O   0  0  0  0  0  0  0  0  0  0  0  0
   25.5682  -17.3587  -18.7541 O   0  0  0  0  0  0  0  0  0  0  0  0
  2  1  1  0
  2  3  2  0
  4  2  1  0
  5  4  1  0
  5  6  1  1
  7  8  2  0
  7  5  1  0
 10  9  1  0
 10 12  1  0
 11 10  2  0
 12 13  1  0
 13 14  1  0
 14 15  1  0
 16 15  1  6
 16 17  1  0
 17  7  1  0
 18 19  2  0
 18 16  1  0
 21 22  1  0
 21 20  1  0
 22 23  1  6
 24 22  1  0
 24 25  1  1
 25 18  1  0
 26 24  1  0
 27 26  1  0
 28 26  2  0
M  END
$$$$
