NRI.pdb
     RDKit          3D

 28 27  0  0  1  0  0  0  0  0999 V2000
   17.5820  -24.3186  -13.8831 N   0  0  0  0  0  0  0  0  0  0  0  0
   17.0162  -23.0565  -14.1734 C   0  0  0  0  0  0  0  0  0  0  0  0
   15.8877  -22.9900  -14.7014 O   0  0  0  0  0  0  0  0  0  0  0  0
   17.7655  -21.8240  -13.8496 C   0  0  0  0  0  0  0  0  0  0  0  0
   19.1287  -22.1670  -13.3135 C   0  0  2  0  0  0  0  0  0  0  0  0
   19.0486  -22.2683  -11.8887 N   0  0  0  0  0  0  0  0  0  0  0  0
   20.0885  -21.1009  -13.7220 C   0  0  0  0  0  0  0  0  0  0  0  0
   20.1008  -20.0259  -13.0857 O   0  0  0  0  0  0  0  0  0  0  0  0
   24.9662  -23.9973  -13.1024 N   0  0  0  0  0  0  0  0  0  0  0  0
   25.0006  -23.9832  -14.5224 C   0  0  0  0  0  0  0  0  0  0  0  0
   24.7947  -25.0511  -15.2211 N   0  0  0  0  0  0  0  0  0  0  0  0
   25.2689  -22.7621  -15.1795 N   0  0  0  0  0  0  0  0  0  0  0  0
   25.3876  -21.4984  -14.4883 C   0  0  0  0  0  0  0  0  0  0  0  0
   24.0157  -20.9603  -14.2417 C   0  0  0  0  0  0  0  0  0  0  0  0
   23.2640  -20.7379  -15.5160 C   0  0  0  0  0  0  0  0  0  0  0  0
   21.8856  -20.2435  -15.2207 C   0  0  2  0  0  0  0  0  0  0  0  0
   20.9815  -21.2720  -14.8047 N   0  0  0  0  0  0  0  0  0  0  0  0
   21.3584  -19.6613  -16.4898 C   0  0  0  0  0  0  0  0  0  0  0  0
   20.6271  -20.4124  -17.1853 O   0  0  0  0  0  0  0  0  0  0  0  0
   24.8409  -25.0888  -16.2401 C   0  0  0  0  0  0  0  0  0  0  0  0
   17.2570  -17.3152  -18.2356 C   0  0  0  0  0  0  0  0  0  0  0  0
   18.5915  -17.8988  -18.5184 C   0  0  2  0  0  0  0  0  0  0  0  0
   19.7651  -17.2777  -17.8643 C   0  0  0  0  0  0  0  0  0  0  0  0
   19.6855  -15.7680  -17.8808 C   0  0  2  0  0  0  0  0  0  0  0  0
   21.1124  -17.8425  -18.1449 N   0  0  0  0  0  0  0  0  0  0  0  0
   21.6696  -18.3425  -16.8756 C   0  0  0  0  0  0  0  0  0  0  0  0
   22.1158  -16.9055  -18.6757 O   0  0  0  0  0  0  0  0  0  0  0  0
   23.2534  -16.5416  -17.9534 O   0  0  0  0  0  0  0  0  0  0  0  0
  2  1  1  0
  2  3  2  0
  4  2  1  0
  5  4  1  0
  5  6  1  1
  7  8  2  0
  7  5  1  0
 10  9  1  0
 10 12  1  0
 11 10  2  0
 12 13  1  0
 13 14  1  0
 14 15  1  0
 16 15  1  6
 16 17  1  0
 17  7  1  0
 18 19  2  0
 18 16  1  0
 21 22  1  0
 21 20  1  0
 22 23  1  1
 24 22  1  0
 24 25  1  6
 25 18  1  0
 26 24  1  0
 27 26  1  0
 28 26  2  0
M  END
$$$$
