NRI.pdb
     RDKit          3D

 28 27  0  0  1  0  0  0  0  0999 V2000
   29.8225  -23.2211  -18.3945 N   0  0  0  0  0  0  0  0  0  0  0  0
   29.3531  -22.0003  -18.9298 C   0  0  0  0  0  0  0  0  0  0  0  0
   29.3796  -21.8135  -20.1632 O   0  0  0  0  0  0  0  0  0  0  0  0
   28.8342  -20.9529  -18.0247 C   0  0  0  0  0  0  0  0  0  0  0  0
   29.0686  -21.3396  -16.5897 C   0  0  2  0  0  0  0  0  0  0  0  0
   28.7030  -22.7123  -16.4195 N   0  0  0  0  0  0  0  0  0  0  0  0
   28.2492  -20.4540  -15.7129 C   0  0  0  0  0  0  0  0  0  0  0  0
   28.4275  -19.2188  -15.7697 O   0  0  0  0  0  0  0  0  0  0  0  0
   21.8304  -22.9716  -14.2514 N   0  0  0  0  0  0  0  0  0  0  0  0
   21.4995  -21.6071  -14.0364 C   0  0  0  0  0  0  0  0  0  0  0  0
   20.5993  -21.2494  -13.1803 N   0  0  0  0  0  0  0  0  0  0  0  0
   22.1791  -20.6210  -14.7850 N   0  0  0  0  0  0  0  0  0  0  0  0
   23.1876  -20.9298  -15.7732 C   0  0  0  0  0  0  0  0  0  0  0  0
   24.4883  -21.1520  -15.0721 C   0  0  0  0  0  0  0  0  0  0  0  0
   25.1030  -19.8677  -14.6122 C   0  0  0  0  0  0  0  0  0  0  0  0
   26.4500  -20.1252  -14.0200 C   0  0  2  0  0  0  0  0  0  0  0  0
   27.2801  -20.9709  -14.8225 N   0  0  0  0  0  0  0  0  0  0  0  0
   26.2202  -20.8177  -12.7180 C   0  0  0  0  0  0  0  0  0  0  0  0
   26.1826  -22.0746  -12.7550 O   0  0  0  0  0  0  0  0  0  0  0  0
   20.3188  -20.2826  -13.0115 C   0  0  0  0  0  0  0  0  0  0  0  0
   28.3832  -20.3344   -7.3178 C   0  0  0  0  0  0  0  0  0  0  0  0
   27.5222  -21.0230   -8.3106 C   0  0  2  0  0  0  0  0  0  0  0  0
   26.7128  -20.1802   -9.2193 C   0  0  0  0  0  0  0  0  0  0  0  0
   26.0122  -19.0645   -8.4776 C   0  0  2  0  0  0  0  0  0  0  0  0
   25.8982  -20.8509  -10.2679 N   0  0  0  0  0  0  0  0  0  0  0  0
   26.0564  -20.0923  -11.5214 C   0  0  0  0  0  0  0  0  0  0  0  0
   24.4478  -20.9169  -10.0255 O   0  0  0  0  0  0  0  0  0  0  0  0
   23.8810  -21.8259   -9.1307 O   0  0  0  0  0  0  0  0  0  0  0  0
  2  1  1  0
  2  3  2  0
  4  2  1  0
  5  4  1  0
  5  6  1  6
  7  8  2  0
  7  5  1  0
 10  9  1  0
 10 12  1  0
 11 10  2  0
 12 13  1  0
 13 14  1  0
 14 15  1  0
 16 15  1  6
 16 17  1  0
 17  7  1  0
 18 19  2  0
 18 16  1  0
 21 22  1  0
 21 20  1  0
 22 23  1  6
 24 22  1  0
 24 25  1  1
 25 18  1  0
 26 24  1  0
 27 26  1  0
 28 26  2  0
M  END
$$$$
