NRI.pdb
     RDKit          3D

 28 27  0  0  1  0  0  0  0  0999 V2000
   22.8485  -18.9746  -14.8214 N   0  0  0  0  0  0  0  0  0  0  0  0
   21.7854  -18.0472  -14.9052 C   0  0  0  0  0  0  0  0  0  0  0  0
   20.6186  -18.4186  -14.6654 O   0  0  0  0  0  0  0  0  0  0  0  0
   22.0631  -16.6436  -15.2768 C   0  0  0  0  0  0  0  0  0  0  0  0
   21.2014  -16.2305  -16.4388 C   0  0  2  0  0  0  0  0  0  0  0  0
   21.5854  -16.9920  -17.5876 N   0  0  0  0  0  0  0  0  0  0  0  0
   21.3845  -14.7698  -16.6783 C   0  0  0  0  0  0  0  0  0  0  0  0
   22.4578  -14.3716  -17.1784 O   0  0  0  0  0  0  0  0  0  0  0  0
   15.9331   -7.6667  -17.7030 N   0  0  0  0  0  0  0  0  0  0  0  0
   17.2769   -7.2996  -17.9806 C   0  0  0  0  0  0  0  0  0  0  0  0
   17.5909   -6.1129  -18.3859 N   0  0  0  0  0  0  0  0  0  0  0  0
   18.2912   -8.2668  -17.8062 N   0  0  0  0  0  0  0  0  0  0  0  0
   18.0442   -9.5895  -17.2785 C   0  0  0  0  0  0  0  0  0  0  0  0
   19.3351  -10.3417  -17.2566 C   0  0  0  0  0  0  0  0  0  0  0  0
   19.1535  -11.7521  -16.7914 C   0  0  0  0  0  0  0  0  0  0  0  0
   20.4726  -12.4513  -16.7419 C   0  0  2  0  0  0  0  0  0  0  0  0
   20.3815  -13.8267  -16.3566 N   0  0  0  0  0  0  0  0  0  0  0  0
   21.2933  -11.7453  -15.7145 C   0  0  0  0  0  0  0  0  0  0  0  0
   20.9806  -11.9522  -14.5137 O   0  0  0  0  0  0  0  0  0  0  0  0
   18.5467   -5.7985  -18.5575 C   0  0  0  0  0  0  0  0  0  0  0  0
   26.4149  -12.1800  -15.3347 C   0  0  0  0  0  0  0  0  0  0  0  0
   24.9779  -11.8979  -15.0962 C   0  0  2  0  0  0  0  0  0  0  0  0
   24.5335  -10.4879  -15.1705 C   0  0  0  0  0  0  0  0  0  0  0  0
   25.4628   -9.5642  -14.4162 C   0  0  2  0  0  0  0  0  0  0  0  0
   23.0840  -10.1939  -15.0111 N   0  0  0  0  0  0  0  0  0  0  0  0
   22.3565  -10.8973  -16.0825 C   0  0  0  0  0  0  0  0  0  0  0  0
   22.6877   -8.7809  -15.1253 O   0  0  0  0  0  0  0  0  0  0  0  0
   22.3526   -8.1959  -16.3475 O   0  0  0  0  0  0  0  0  0  0  0  0
  2  1  1  0
  2  3  2  0
  4  2  1  0
  5  4  1  0
  5  6  1  6
  7  8  2  0
  7  5  1  0
 10  9  1  0
 10 12  1  0
 11 10  2  0
 12 13  1  0
 13 14  1  0
 14 15  1  0
 16 15  1  1
 16 17  1  0
 17  7  1  0
 18 19  2  0
 18 16  1  0
 21 22  1  0
 21 20  1  0
 22 23  1  6
 24 22  1  0
 24 25  1  1
 25 18  1  0
 26 24  1  0
 27 26  1  0
 28 26  2  0
M  END
$$$$
