HDC.pdb
     RDKit          3D

 25 25  0  0  1  0  0  0  0  0999 V2000
    7.6874  -17.4235   19.0777 N   0  0  0  0  0  0  0  0  0  0  0  0
    8.2488  -16.3081   19.8494 C   0  0  1  0  0  0  0  0  0  0  0  0
    7.5460  -15.0335   19.5405 C   0  0  0  0  0  0  0  0  0  0  0  0
    7.8884  -14.5371   18.2058 C   0  0  0  0  0  0  0  0  0  0  0  0
    8.7319  -15.0845   17.2734 C   0  0  0  0  0  0  0  0  0  0  0  0
    8.7377  -14.2434   16.2070 N   0  0  0  0  0  0  0  0  0  0  0  0
    7.9252  -13.2042   16.4635 C   0  0  0  0  0  0  0  0  0  0  0  0
    7.4083  -13.3802   17.6768 N   0  0  0  0  0  0  0  0  0  0  0  0
    8.1299  -16.6094   21.2953 C   0  0  0  0  0  0  0  0  0  0  0  0
    7.1549  -17.1980   21.8208 O   0  0  0  0  0  0  0  0  0  0  0  0
    9.1804  -16.2136   22.1668 N   0  0  0  0  0  0  0  0  0  0  0  0
    9.0510  -16.4576   23.5809 C   0  0  1  0  0  0  0  0  0  0  0  0
   10.2975  -17.1720   24.0356 C   0  0  0  0  0  0  0  0  0  0  0  0
   10.2105  -17.3903   25.4982 C   0  0  0  0  0  0  0  0  0  0  0  0
    9.2366  -17.9275   26.0863 O   0  0  0  0  0  0  0  0  0  0  0  0
    9.0043  -15.1804   24.3535 C   0  0  0  0  0  0  0  0  0  0  0  0
    9.8708  -14.2777   24.2604 O   0  0  0  0  0  0  0  0  0  0  0  0
   11.2775  -16.9755   26.2943 O   0  0  0  0  0  0  0  0  0  0  0  0
    7.9217  -14.9875   25.2345 N   0  0  0  0  0  0  0  0  0  0  0  0
    7.8147  -13.7882   26.0382 C   0  0  1  0  0  0  0  0  0  0  0  0
    6.3717  -13.3369   25.9810 C   0  0  0  0  0  0  0  0  0  0  0  0
    6.1392  -11.8692   27.0473 S   0  0  0  0  0  0  0  0  0  0  0  0
    8.2603  -14.0891   27.4031 C   0  0  0  0  0  0  0  0  0  0  0  0
    8.4497  -15.2729   27.7545 O   0  0  0  0  0  0  0  0  0  0  0  0
    8.4725  -13.0715   28.3047 O   0  0  0  0  0  0  0  0  0  0  0  0
  2  1  1  6
  2  9  1  0
  2  3  1  0
  4  3  1  0
  4  8  1  0
  5  6  1  0
  5  4  2  0
  6  7  1  0
  7  8  2  0
  9 10  2  0
 11 12  1  0
 11  9  1  0
 12 13  1  1
 13 14  1  0
 14 15  2  0
 14 18  1  0
 16 17  2  0
 16 12  1  0
 19 16  1  0
 20 19  1  0
 20 21  1  1
 21 22  1  0
 23 25  1  0
 23 20  1  0
 24 23  2  0
M  END
$$$$
