HDC.pdb
     RDKit          3D

 25 25  0  0  1  0  0  0  0  0999 V2000
    7.2153  -17.1275   19.7307 N   0  0  0  0  0  0  0  0  0  0  0  0
    8.0372  -16.1104   20.3978 C   0  0  1  0  0  0  0  0  0  0  0  0
    7.5235  -14.7409   20.1250 C   0  0  0  0  0  0  0  0  0  0  0  0
    7.7951  -14.3263   18.7468 C   0  0  0  0  0  0  0  0  0  0  0  0
    7.2350  -14.7863   17.5826 C   0  0  0  0  0  0  0  0  0  0  0  0
    7.8308  -14.1105   16.5663 N   0  0  0  0  0  0  0  0  0  0  0  0
    8.7336  -13.2562   17.0771 C   0  0  0  0  0  0  0  0  0  0  0  0
    8.7139  -13.3855   18.4012 N   0  0  0  0  0  0  0  0  0  0  0  0
    8.0358  -16.3657   21.8574 C   0  0  0  0  0  0  0  0  0  0  0  0
    7.0018  -16.4781   22.5583 O   0  0  0  0  0  0  0  0  0  0  0  0
    9.2801  -16.4955   22.5319 N   0  0  0  0  0  0  0  0  0  0  0  0
    9.2890  -16.7084   23.9569 C   0  0  1  0  0  0  0  0  0  0  0  0
   10.6339  -17.2811   24.3231 C   0  0  0  0  0  0  0  0  0  0  0  0
   10.5675  -17.7930   25.7116 C   0  0  0  0  0  0  0  0  0  0  0  0
   11.4560  -18.4945   26.2604 O   0  0  0  0  0  0  0  0  0  0  0  0
    9.1743  -15.4195   24.7024 C   0  0  0  0  0  0  0  0  0  0  0  0
   10.0381  -14.5106   24.6596 O   0  0  0  0  0  0  0  0  0  0  0  0
    9.4450  -17.4831   26.4787 O   0  0  0  0  0  0  0  0  0  0  0  0
    8.0270  -15.2225   25.4963 N   0  0  0  0  0  0  0  0  0  0  0  0
    7.7980  -13.9690   26.1834 C   0  0  1  0  0  0  0  0  0  0  0  0
    6.3116  -13.6916   26.1274 C   0  0  0  0  0  0  0  0  0  0  0  0
    5.9277  -12.1787   27.0807 S   0  0  0  0  0  0  0  0  0  0  0  0
    8.3020  -14.0804   27.5566 C   0  0  0  0  0  0  0  0  0  0  0  0
    8.4562  -15.2047   28.0789 O   0  0  0  0  0  0  0  0  0  0  0  0
    8.6080  -12.9493   28.2780 O   0  0  0  0  0  0  0  0  0  0  0  0
  2  1  1  6
  2  9  1  0
  2  3  1  0
  4  3  1  0
  4  8  1  0
  5  6  1  0
  5  4  2  0
  6  7  1  0
  7  8  2  0
  9 10  2  0
 11 12  1  0
 11  9  1  0
 12 13  1  1
 13 14  1  0
 14 15  2  0
 14 18  1  0
 16 17  2  0
 16 12  1  0
 19 16  1  0
 20 19  1  0
 20 21  1  1
 21 22  1  0
 23 25  1  0
 23 20  1  0
 24 23  2  0
M  END
$$$$
