HDC.pdb
     RDKit          3D

 25 25  0  0  1  0  0  0  0  0999 V2000
    8.1443  -17.1675   19.1311 N   0  0  0  0  0  0  0  0  0  0  0  0
    8.5208  -16.0324   19.9823 C   0  0  1  0  0  0  0  0  0  0  0  0
    7.6043  -14.8787   19.7758 C   0  0  0  0  0  0  0  0  0  0  0  0
    7.7535  -14.3026   18.4375 C   0  0  0  0  0  0  0  0  0  0  0  0
    8.2718  -13.0854   18.0765 C   0  0  0  0  0  0  0  0  0  0  0  0
    8.1711  -13.0010   16.7247 N   0  0  0  0  0  0  0  0  0  0  0  0
    7.6085  -14.1274   16.2553 C   0  0  0  0  0  0  0  0  0  0  0  0
    7.3538  -14.9195   17.2936 N   0  0  0  0  0  0  0  0  0  0  0  0
    8.4827  -16.4561   21.4017 C   0  0  0  0  0  0  0  0  0  0  0  0
    7.5586  -17.1286   21.9181 O   0  0  0  0  0  0  0  0  0  0  0  0
    9.5562  -16.0863   22.2567 N   0  0  0  0  0  0  0  0  0  0  0  0
    9.5144  -16.4704   23.6447 C   0  0  1  0  0  0  0  0  0  0  0  0
   10.8096  -17.1724   23.9620 C   0  0  0  0  0  0  0  0  0  0  0  0
   10.8017  -17.5549   25.3931 C   0  0  0  0  0  0  0  0  0  0  0  0
    9.7957  -17.9839   26.0150 O   0  0  0  0  0  0  0  0  0  0  0  0
    9.4638  -15.2765   24.5404 C   0  0  0  0  0  0  0  0  0  0  0  0
   10.2905  -14.3338   24.4923 O   0  0  0  0  0  0  0  0  0  0  0  0
   11.9877  -17.4366   26.1168 O   0  0  0  0  0  0  0  0  0  0  0  0
    8.4249  -15.2143   25.4903 N   0  0  0  0  0  0  0  0  0  0  0  0
    8.2794  -14.0717   26.3673 C   0  0  1  0  0  0  0  0  0  0  0  0
    6.8717  -13.5462   26.1897 C   0  0  0  0  0  0  0  0  0  0  0  0
    6.5844  -12.1471   27.3321 S   0  0  0  0  0  0  0  0  0  0  0  0
    8.5577  -14.4913   27.7452 C   0  0  0  0  0  0  0  0  0  0  0  0
    8.5546  -15.7042   28.0443 O   0  0  0  0  0  0  0  0  0  0  0  0
    8.8238  -13.5536   28.7164 O   0  0  0  0  0  0  0  0  0  0  0  0
  2  1  1  6
  2  9  1  0
  2  3  1  0
  4  3  1  0
  4  8  1  0
  5  6  1  0
  5  4  2  0
  6  7  1  0
  7  8  2  0
  9 10  2  0
 11 12  1  0
 11  9  1  0
 12 13  1  1
 13 14  1  0
 14 15  2  0
 14 18  1  0
 16 17  2  0
 16 12  1  0
 19 16  1  0
 20 19  1  0
 20 21  1  1
 21 22  1  0
 23 25  1  0
 23 20  1  0
 24 23  2  0
M  END
$$$$
