HDC.pdb
     RDKit          3D

 25 25  0  0  1  0  0  0  0  0999 V2000
    9.9704  -15.4839   20.2970 N   0  0  0  0  0  0  0  0  0  0  0  0
    9.0179  -14.9137   21.2576 C   0  0  1  0  0  0  0  0  0  0  0  0
    7.6283  -14.9590   20.7278 C   0  0  0  0  0  0  0  0  0  0  0  0
    7.5382  -14.3586   19.3950 C   0  0  0  0  0  0  0  0  0  0  0  0
    7.7424  -13.0548   19.0219 C   0  0  0  0  0  0  0  0  0  0  0  0
    7.5177  -12.9893   17.6841 N   0  0  0  0  0  0  0  0  0  0  0  0
    7.1837  -14.2110   17.2348 C   0  0  0  0  0  0  0  0  0  0  0  0
    7.1954  -15.0443   18.2720 N   0  0  0  0  0  0  0  0  0  0  0  0
    9.0960  -15.6729   22.5278 C   0  0  0  0  0  0  0  0  0  0  0  0
    8.3126  -15.5215   23.4955 O   0  0  0  0  0  0  0  0  0  0  0  0
   10.1211  -16.6448   22.6838 N   0  0  0  0  0  0  0  0  0  0  0  0
   10.2305  -17.3580   23.9309 C   0  0  1  0  0  0  0  0  0  0  0  0
   11.2055  -18.4884   23.7248 C   0  0  0  0  0  0  0  0  0  0  0  0
   11.1950  -19.3477   24.9315 C   0  0  0  0  0  0  0  0  0  0  0  0
   11.2352  -18.9224   26.1148 O   0  0  0  0  0  0  0  0  0  0  0  0
   10.8179  -16.4986   25.0018 C   0  0  0  0  0  0  0  0  0  0  0  0
   11.9438  -15.9515   24.9168 O   0  0  0  0  0  0  0  0  0  0  0  0
   11.1365  -20.7302   24.7596 O   0  0  0  0  0  0  0  0  0  0  0  0
   10.0568  -16.2968   26.1702 N   0  0  0  0  0  0  0  0  0  0  0  0
   10.5478  -15.4667   27.2498 C   0  0  1  0  0  0  0  0  0  0  0  0
    9.5233  -14.3773   27.4798 C   0  0  0  0  0  0  0  0  0  0  0  0
   10.1400  -13.2034   28.7396 S   0  0  0  0  0  0  0  0  0  0  0  0
   10.7595  -16.3045   28.4353 C   0  0  0  0  0  0  0  0  0  0  0  0
   10.1719  -17.4018   28.5411 O   0  0  0  0  0  0  0  0  0  0  0  0
   11.6054  -15.8884   29.4377 O   0  0  0  0  0  0  0  0  0  0  0  0
  2  1  1  6
  2  9  1  0
  2  3  1  0
  4  3  1  0
  4  8  1  0
  5  6  1  0
  5  4  2  0
  6  7  1  0
  7  8  2  0
  9 10  2  0
 11 12  1  0
 11  9  1  0
 12 13  1  6
 13 14  1  0
 14 15  2  0
 14 18  1  0
 16 17  2  0
 16 12  1  0
 19 16  1  0
 20 19  1  0
 20 21  1  1
 21 22  1  0
 23 25  1  0
 23 20  1  0
 24 23  2  0
M  END
$$$$
