HDC.pdb
     RDKit          3D

 25 25  0  0  1  0  0  0  0  0999 V2000
    9.6065  -17.0642   18.0878 N   0  0  0  0  0  0  0  0  0  0  0  0
    9.8703  -16.3184   19.3244 C   0  0  1  0  0  0  0  0  0  0  0  0
    8.6286  -15.6860   19.8457 C   0  0  0  0  0  0  0  0  0  0  0  0
    8.1665  -14.6033   18.9744 C   0  0  0  0  0  0  0  0  0  0  0  0
    8.7367  -14.1199   17.8247 C   0  0  0  0  0  0  0  0  0  0  0  0
    7.9497  -13.1000   17.3946 N   0  0  0  0  0  0  0  0  0  0  0  0
    6.9214  -12.9498   18.2467 C   0  0  0  0  0  0  0  0  0  0  0  0
    7.0509  -13.8615   19.2069 N   0  0  0  0  0  0  0  0  0  0  0  0
   10.4274  -17.2428   20.3396 C   0  0  0  0  0  0  0  0  0  0  0  0
   10.4997  -18.4876   20.2038 O   0  0  0  0  0  0  0  0  0  0  0  0
   10.9195  -16.7052   21.5598 N   0  0  0  0  0  0  0  0  0  0  0  0
   11.5975  -17.5736   22.4884 C   0  0  1  0  0  0  0  0  0  0  0  0
   13.0424  -17.6510   22.0673 C   0  0  0  0  0  0  0  0  0  0  0  0
   13.7644  -18.5312   23.0152 C   0  0  0  0  0  0  0  0  0  0  0  0
   13.2845  -19.5713   23.5354 O   0  0  0  0  0  0  0  0  0  0  0  0
   11.6014  -17.0015   23.8679 C   0  0  0  0  0  0  0  0  0  0  0  0
   12.3325  -16.0460   24.2239 O   0  0  0  0  0  0  0  0  0  0  0  0
   15.0717  -18.1958   23.3659 O   0  0  0  0  0  0  0  0  0  0  0  0
   10.7310  -17.5742   24.8164 N   0  0  0  0  0  0  0  0  0  0  0  0
   10.5770  -16.9980   26.1355 C   0  0  1  0  0  0  0  0  0  0  0  0
    9.1329  -16.5674   26.2713 C   0  0  0  0  0  0  0  0  0  0  0  0
    8.7621  -15.2517   25.0562 S   0  0  0  0  0  0  0  0  0  0  0  0
   10.9676  -17.9947   27.1385 C   0  0  0  0  0  0  0  0  0  0  0  0
   11.3333  -19.1344   26.7809 O   0  0  0  0  0  0  0  0  0  0  0  0
   10.9341  -17.6821   28.4781 O   0  0  0  0  0  0  0  0  0  0  0  0
  2  1  1  6
  2  9  1  0
  2  3  1  0
  4  3  1  0
  4  8  1  0
  5  6  1  0
  5  4  2  0
  6  7  1  0
  7  8  2  0
  9 10  2  0
 11 12  1  0
 11  9  1  0
 12 13  1  6
 13 14  1  0
 14 15  2  0
 14 18  1  0
 16 17  2  0
 16 12  1  0
 19 16  1  0
 20 19  1  0
 20 21  1  1
 21 22  1  0
 23 25  1  0
 23 20  1  0
 24 23  2  0
M  END
$$$$
