HDC.pdb
     RDKit          3D

 25 25  0  0  1  0  0  0  0  0999 V2000
    9.4743  -16.0337   20.3689 N   0  0  0  0  0  0  0  0  0  0  0  0
    8.8550  -14.9626   21.1588 C   0  0  1  0  0  0  0  0  0  0  0  0
    7.5536  -14.5450   20.5708 C   0  0  0  0  0  0  0  0  0  0  0  0
    7.6855  -14.2057   19.1522 C   0  0  0  0  0  0  0  0  0  0  0  0
    8.2929  -13.1177   18.5796 C   0  0  0  0  0  0  0  0  0  0  0  0
    8.1310  -13.2391   17.2365 N   0  0  0  0  0  0  0  0  0  0  0  0
    7.4451  -14.3651   16.9772 C   0  0  0  0  0  0  0  0  0  0  0  0
    7.1733  -14.9539   18.1389 N   0  0  0  0  0  0  0  0  0  0  0  0
    8.6489  -15.4396   22.5466 C   0  0  0  0  0  0  0  0  0  0  0  0
    7.5910  -15.2836   23.2019 O   0  0  0  0  0  0  0  0  0  0  0  0
    9.7091  -16.1233   23.2011 N   0  0  0  0  0  0  0  0  0  0  0  0
    9.5371  -16.5433   24.5685 C   0  0  1  0  0  0  0  0  0  0  0  0
   10.5065  -17.6683   24.8245 C   0  0  0  0  0  0  0  0  0  0  0  0
   10.1914  -18.7831   23.9012 C   0  0  0  0  0  0  0  0  0  0  0  0
    9.0862  -19.3820   23.8512 O   0  0  0  0  0  0  0  0  0  0  0  0
    9.9067  -15.4569   25.5242 C   0  0  0  0  0  0  0  0  0  0  0  0
   11.0227  -14.8835   25.5296 O   0  0  0  0  0  0  0  0  0  0  0  0
   11.1814  -19.2110   23.0173 O   0  0  0  0  0  0  0  0  0  0  0  0
    8.9403  -15.0601   26.4697 N   0  0  0  0  0  0  0  0  0  0  0  0
    9.2413  -14.0629   27.4750 C   0  0  1  0  0  0  0  0  0  0  0  0
    7.9831  -13.2512   27.6928 C   0  0  0  0  0  0  0  0  0  0  0  0
    7.3580  -12.6355   26.0880 S   0  0  0  0  0  0  0  0  0  0  0  0
    9.6971  -14.7393   28.6944 C   0  0  0  0  0  0  0  0  0  0  0  0
    9.6595  -15.9855   28.7718 O   0  0  0  0  0  0  0  0  0  0  0  0
   10.1685  -14.0071   29.7598 O   0  0  0  0  0  0  0  0  0  0  0  0
  2  1  1  6
  2  9  1  0
  2  3  1  0
  4  3  1  0
  4  8  1  0
  5  6  1  0
  5  4  2  0
  6  7  1  0
  7  8  2  0
  9 10  2  0
 11 12  1  0
 11  9  1  0
 12 13  1  1
 13 14  1  0
 14 15  2  0
 14 18  1  0
 16 17  2  0
 16 12  1  0
 19 16  1  0
 20 19  1  0
 20 21  1  1
 21 22  1  0
 23 25  1  0
 23 20  1  0
 24 23  2  0
M  END
$$$$
