HDC.pdb
     RDKit          3D

 25 25  0  0  1  0  0  0  0  0999 V2000
    6.9738  -16.5368   19.5623 N   0  0  0  0  0  0  0  0  0  0  0  0
    7.9673  -15.7140   20.2629 C   0  0  1  0  0  0  0  0  0  0  0  0
    7.8394  -14.2803   19.8863 C   0  0  0  0  0  0  0  0  0  0  0  0
    7.9878  -14.0854   18.4423 C   0  0  0  0  0  0  0  0  0  0  0  0
    7.1452  -13.4483   17.5679 C   0  0  0  0  0  0  0  0  0  0  0  0
    7.7060  -13.5526   16.3353 N   0  0  0  0  0  0  0  0  0  0  0  0
    8.8609  -14.2325   16.4348 C   0  0  0  0  0  0  0  0  0  0  0  0
    9.0342  -14.5572   17.7133 N   0  0  0  0  0  0  0  0  0  0  0  0
    7.7812  -15.8676   21.7249 C   0  0  0  0  0  0  0  0  0  0  0  0
    6.6759  -15.7903   22.3126 O   0  0  0  0  0  0  0  0  0  0  0  0
    8.9191  -16.1201   22.5382 N   0  0  0  0  0  0  0  0  0  0  0  0
    8.7489  -16.2610   23.9620 C   0  0  1  0  0  0  0  0  0  0  0  0
    9.6949  -17.3370   24.4291 C   0  0  0  0  0  0  0  0  0  0  0  0
   10.9830  -17.1766   23.7152 C   0  0  0  0  0  0  0  0  0  0  0  0
   11.1447  -17.3516   22.4799 O   0  0  0  0  0  0  0  0  0  0  0  0
    9.1506  -15.0179   24.6857 C   0  0  0  0  0  0  0  0  0  0  0  0
   10.0837  -14.2660   24.3140 O   0  0  0  0  0  0  0  0  0  0  0  0
   12.1068  -16.8048   24.4523 O   0  0  0  0  0  0  0  0  0  0  0  0
    8.4349  -14.6788   25.8511 N   0  0  0  0  0  0  0  0  0  0  0  0
    8.7552  -13.4858   26.6061 C   0  0  1  0  0  0  0  0  0  0  0  0
    7.5655  -12.5567   26.5030 C   0  0  0  0  0  0  0  0  0  0  0  0
    6.0835  -13.3683   27.2031 S   0  0  0  0  0  0  0  0  0  0  0  0
    9.0586  -13.8660   27.9901 C   0  0  0  0  0  0  0  0  0  0  0  0
    8.8668  -15.0390   28.3748 O   0  0  0  0  0  0  0  0  0  0  0  0
    9.5558  -12.9351   28.8729 O   0  0  0  0  0  0  0  0  0  0  0  0
  2  1  1  6
  2  9  1  0
  2  3  1  0
  4  3  1  0
  4  8  1  0
  5  6  1  0
  5  4  2  0
  6  7  1  0
  7  8  2  0
  9 10  2  0
 11 12  1  0
 11  9  1  0
 12 13  1  1
 13 14  1  0
 14 15  2  0
 14 18  1  0
 16 17  2  0
 16 12  1  0
 19 16  1  0
 20 19  1  0
 20 21  1  1
 21 22  1  0
 23 25  1  0
 23 20  1  0
 24 23  2  0
M  END
$$$$
