HDC.pdb
     RDKit          3D

 25 25  0  0  1  0  0  0  0  0999 V2000
    8.3762  -17.4532   16.6920 N   0  0  0  0  0  0  0  0  0  0  0  0
    9.2637  -16.4804   17.3409 C   0  0  1  0  0  0  0  0  0  0  0  0
    8.6071  -15.1507   17.4613 C   0  0  0  0  0  0  0  0  0  0  0  0
    8.3704  -14.5440   16.1494 C   0  0  0  0  0  0  0  0  0  0  0  0
    8.7338  -15.0036   14.9095 C   0  0  0  0  0  0  0  0  0  0  0  0
    8.3115  -14.0791   14.0087 N   0  0  0  0  0  0  0  0  0  0  0  0
    7.7044  -13.0744   14.6627 C   0  0  0  0  0  0  0  0  0  0  0  0
    7.7389  -13.3543   15.9629 N   0  0  0  0  0  0  0  0  0  0  0  0
    9.6333  -16.9815   18.6855 C   0  0  0  0  0  0  0  0  0  0  0  0
    8.8184  -17.4377   19.5226 O   0  0  0  0  0  0  0  0  0  0  0  0
   10.9995  -16.9530   19.0762 N   0  0  0  0  0  0  0  0  0  0  0  0
   11.3673  -17.4328   20.3840 C   0  0  1  0  0  0  0  0  0  0  0  0
   12.8615  -17.6282   20.3935 C   0  0  0  0  0  0  0  0  0  0  0  0
   13.1875  -18.8206   19.5771 C   0  0  0  0  0  0  0  0  0  0  0  0
   12.4406  -19.8241   19.4435 O   0  0  0  0  0  0  0  0  0  0  0  0
   11.0790  -16.4165   21.4396 C   0  0  0  0  0  0  0  0  0  0  0  0
   11.6194  -15.2850   21.4836 O   0  0  0  0  0  0  0  0  0  0  0  0
   14.4071  -18.8474   18.9015 O   0  0  0  0  0  0  0  0  0  0  0  0
   10.1455  -16.7571   22.4386 N   0  0  0  0  0  0  0  0  0  0  0  0
    9.7839  -15.8163   23.4778 C   0  0  1  0  0  0  0  0  0  0  0  0
    8.2775  -15.6765   23.4521 C   0  0  0  0  0  0  0  0  0  0  0  0
    7.7732  -14.6745   22.0075 S   0  0  0  0  0  0  0  0  0  0  0  0
   10.2848  -16.3128   24.7641 C   0  0  0  0  0  0  0  0  0  0  0  0
   10.7359  -17.4741   24.8556 O   0  0  0  0  0  0  0  0  0  0  0  0
   10.2613  -15.5043   25.8773 O   0  0  0  0  0  0  0  0  0  0  0  0
  2  1  1  1
  2  9  1  0
  2  3  1  0
  4  3  1  0
  4  8  1  0
  5  6  1  0
  5  4  2  0
  6  7  1  0
  7  8  2  0
  9 10  2  0
 11 12  1  0
 11  9  1  0
 12 13  1  6
 13 14  1  0
 14 15  2  0
 14 18  1  0
 16 17  2  0
 16 12  1  0
 19 16  1  0
 20 19  1  0
 20 21  1  1
 21 22  1  0
 23 25  1  0
 23 20  1  0
 24 23  2  0
M  END
$$$$
