HDC.pdb
     RDKit          3D

 25 25  0  0  1  0  0  0  0  0999 V2000
    7.6998  -17.3801   18.7423 N   0  0  0  0  0  0  0  0  0  0  0  0
    8.2046  -16.2513   19.5336 C   0  0  1  0  0  0  0  0  0  0  0  0
    7.5882  -14.9699   19.0957 C   0  0  0  0  0  0  0  0  0  0  0  0
    7.9496  -14.6402   17.7152 C   0  0  0  0  0  0  0  0  0  0  0  0
    8.7678  -15.3233   16.8524 C   0  0  0  0  0  0  0  0  0  0  0  0
    8.8078  -14.6071   15.6991 N   0  0  0  0  0  0  0  0  0  0  0  0
    8.0406  -13.5123   15.8355 C   0  0  0  0  0  0  0  0  0  0  0  0
    7.5183  -13.5301   17.0591 N   0  0  0  0  0  0  0  0  0  0  0  0
    7.9049  -16.4893   20.9652 C   0  0  0  0  0  0  0  0  0  0  0  0
    6.8346  -16.9819   21.3949 O   0  0  0  0  0  0  0  0  0  0  0  0
    8.8825  -16.1431   21.9370 N   0  0  0  0  0  0  0  0  0  0  0  0
    8.6020  -16.3760   23.3309 C   0  0  1  0  0  0  0  0  0  0  0  0
    9.6712  -17.2951   23.8630 C   0  0  0  0  0  0  0  0  0  0  0  0
   10.9802  -16.8598   23.3232 C   0  0  0  0  0  0  0  0  0  0  0  0
   11.1892  -16.5321   22.1266 O   0  0  0  0  0  0  0  0  0  0  0  0
    8.7085  -15.1172   24.1273 C   0  0  0  0  0  0  0  0  0  0  0  0
    9.5391  -14.2082   23.8860 O   0  0  0  0  0  0  0  0  0  0  0  0
   12.0695  -16.8041   24.1920 O   0  0  0  0  0  0  0  0  0  0  0  0
    7.8214  -14.9499   25.2091 N   0  0  0  0  0  0  0  0  0  0  0  0
    7.8599  -13.7596   26.0322 C   0  0  1  0  0  0  0  0  0  0  0  0
    6.4344  -13.2784   26.1924 C   0  0  0  0  0  0  0  0  0  0  0  0
    6.3817  -11.8792   27.3691 S   0  0  0  0  0  0  0  0  0  0  0  0
    8.4943  -14.0879   27.3136 C   0  0  0  0  0  0  0  0  0  0  0  0
    8.5887  -15.2784   27.6800 O   0  0  0  0  0  0  0  0  0  0  0  0
    8.9891  -13.0885   28.1197 O   0  0  0  0  0  0  0  0  0  0  0  0
  2  1  1  6
  2  9  1  0
  2  3  1  0
  4  3  1  0
  4  8  1  0
  5  6  1  0
  5  4  2  0
  6  7  1  0
  7  8  2  0
  9 10  2  0
 11 12  1  0
 11  9  1  0
 12 13  1  1
 13 14  1  0
 14 15  2  0
 14 18  1  0
 16 17  2  0
 16 12  1  0
 19 16  1  0
 20 19  1  0
 20 21  1  1
 21 22  1  0
 23 25  1  0
 23 20  1  0
 24 23  2  0
M  END
$$$$
