ELY.pdb
     RDKit          3D

 30 30  0  0  1  0  0  0  0  0999 V2000
    8.7157  -18.7504   18.1473 N   0  0  0  0  0  0  0  0  0  0  0  0
   10.0294  -18.1742   18.0613 C   0  0  1  0  0  0  0  0  0  0  0  0
   10.3082  -17.5863   16.7116 C   0  0  0  0  0  0  0  0  0  0  0  0
   10.4894  -18.5780   15.6156 C   0  0  0  0  0  0  0  0  0  0  0  0
   10.8587  -18.0151   14.3160 C   0  0  0  0  0  0  0  0  0  0  0  0
   12.0057  -17.8114   13.8803 O   0  0  0  0  0  0  0  0  0  0  0  0
   10.2555  -17.1260   19.0893 C   0  0  0  0  0  0  0  0  0  0  0  0
   11.4632  -16.7552   19.2411 O   0  0  0  0  0  0  0  0  0  0  0  0
    9.8132  -17.6575   13.4470 O   0  0  0  0  0  0  0  0  0  0  0  0
    8.8190  -12.9109   19.5459 C   0  0  0  0  0  0  0  0  0  0  0  0
    7.8318  -13.9655   19.9986 C   0  0  2  0  0  0  0  0  0  0  0  0
    6.5714  -13.2231   20.4474 C   0  0  0  0  0  0  0  0  0  0  0  0
    8.3657  -14.6769   21.1994 C   0  0  0  0  0  0  0  0  0  0  0  0
    9.5199  -15.6025   20.8907 C   0  0  2  0  0  0  0  0  0  0  0  0
    9.2173  -16.5538   19.8689 N   0  0  0  0  0  0  0  0  0  0  0  0
    9.8522  -16.2867   22.1925 C   0  0  0  0  0  0  0  0  0  0  0  0
    8.9839  -16.9829   22.7851 O   0  0  0  0  0  0  0  0  0  0  0  0
   10.7954  -22.4135   20.9779 O   0  0  0  0  0  0  0  0  0  0  0  0
   11.2168  -21.2816   21.6762 C   0  0  0  0  0  0  0  0  0  0  0  0
   11.7365  -20.1920   21.0105 C   0  0  0  0  0  0  0  0  0  0  0  0
   12.1623  -19.0576   21.6705 C   0  0  0  0  0  0  0  0  0  0  0  0
   12.0878  -18.9586   23.0439 C   0  0  0  0  0  0  0  0  0  0  0  0
   12.5375  -17.7732   23.7986 C   0  0  0  0  0  0  0  0  0  0  0  0
   11.4274  -16.7948   24.0944 C   0  0  2  0  0  0  0  0  0  0  0  0
   11.1191  -16.1815   22.7920 N   0  0  0  0  0  0  0  0  0  0  0  0
   11.9298  -15.7823   25.0449 C   0  0  0  0  0  0  0  0  0  0  0  0
   12.2224  -16.1922   26.3606 O   0  0  0  0  0  0  0  0  0  0  0  0
   11.5601  -20.0666   23.7100 C   0  0  0  0  0  0  0  0  0  0  0  0
   11.1347  -21.1995   23.0503 C   0  0  0  0  0  0  0  0  0  0  0  0
   12.1118  -14.5862   24.7566 O   0  0  0  0  0  0  0  0  0  0  0  0
  2  3  1  0
  2  1  1  6
  3  4  1  0
  4  5  1  0
  5  9  1  0
  5  6  2  0
  7  8  2  0
  7  2  1  0
 11 12  1  1
 11 10  1  0
 13 11  1  0
 14 13  1  1
 14 15  1  0
 15  7  1  0
 16 25  1  0
 16 14  1  0
 17 16  2  0
 19 18  1  0
 20 19  2  0
 21 20  1  0
 22 28  1  0
 22 21  2  0
 23 22  1  0
 24 25  1  0
 24 23  1  6
 26 24  1  0
 27 26  1  0
 28 29  2  0
 29 19  1  0
 30 26  2  0
M  END
$$$$
