ELY.pdb
     RDKit          3D

 30 30  0  0  1  0  0  0  0  0999 V2000
    9.6958  -18.7020   18.5951 N   0  0  0  0  0  0  0  0  0  0  0  0
   10.7985  -17.7913   18.7356 C   0  0  1  0  0  0  0  0  0  0  0  0
   11.1687  -17.1380   17.4389 C   0  0  0  0  0  0  0  0  0  0  0  0
   11.3023  -18.0640   16.2803 C   0  0  0  0  0  0  0  0  0  0  0  0
   12.5467  -17.9405   15.5198 C   0  0  0  0  0  0  0  0  0  0  0  0
   12.8862  -17.0039   14.7751 O   0  0  0  0  0  0  0  0  0  0  0  0
   10.5310  -16.7301   19.7400 C   0  0  0  0  0  0  0  0  0  0  0  0
   11.5509  -16.2896   20.3604 O   0  0  0  0  0  0  0  0  0  0  0  0
   13.4770  -18.9886   15.6298 O   0  0  0  0  0  0  0  0  0  0  0  0
    8.3249  -12.5600   19.6508 C   0  0  0  0  0  0  0  0  0  0  0  0
    7.4545  -13.7980   19.6824 C   0  0  2  0  0  0  0  0  0  0  0  0
    6.0037  -13.3137   19.7238 C   0  0  0  0  0  0  0  0  0  0  0  0
    7.6947  -14.5539   20.9489 C   0  0  0  0  0  0  0  0  0  0  0  0
    9.0541  -15.2113   21.0125 C   0  0  2  0  0  0  0  0  0  0  0  0
    9.2369  -16.2177   20.0153 N   0  0  0  0  0  0  0  0  0  0  0  0
    9.1609  -15.7918   22.3999 C   0  0  0  0  0  0  0  0  0  0  0  0
    8.7713  -16.9689   22.6288 O   0  0  0  0  0  0  0  0  0  0  0  0
   10.9202  -15.7888   31.2012 O   0  0  0  0  0  0  0  0  0  0  0  0
   10.7897  -15.4746   29.8482 C   0  0  0  0  0  0  0  0  0  0  0  0
   11.1555  -16.3779   28.8732 C   0  0  0  0  0  0  0  0  0  0  0  0
   11.0393  -16.0989   27.5270 C   0  0  0  0  0  0  0  0  0  0  0  0
   10.5463  -14.8885   27.0873 C   0  0  0  0  0  0  0  0  0  0  0  0
   10.4104  -14.5364   25.6609 C   0  0  0  0  0  0  0  0  0  0  0  0
    9.6211  -15.5479   24.8667 C   0  0  2  0  0  0  0  0  0  0  0  0
    9.6887  -15.0617   23.4787 N   0  0  0  0  0  0  0  0  0  0  0  0
    8.2272  -15.5491   25.3545 C   0  0  0  0  0  0  0  0  0  0  0  0
    7.8610  -16.5070   26.3206 O   0  0  0  0  0  0  0  0  0  0  0  0
   10.1781  -13.9796   28.0814 C   0  0  0  0  0  0  0  0  0  0  0  0
   10.2941  -14.2588   29.4260 C   0  0  0  0  0  0  0  0  0  0  0  0
    7.3525  -14.7551   24.9653 O   0  0  0  0  0  0  0  0  0  0  0  0
  2  3  1  0
  2  1  1  6
  3  4  1  0
  4  5  1  0
  5  9  1  0
  5  6  2  0
  7  8  2  0
  7  2  1  0
 11 12  1  1
 11 10  1  0
 13 11  1  0
 14 13  1  1
 14 15  1  0
 15  7  1  0
 16 25  1  0
 16 14  1  0
 17 16  2  0
 19 18  1  0
 20 19  2  0
 21 20  1  0
 22 28  1  0
 22 21  2  0
 23 22  1  0
 24 25  1  0
 24 23  1  1
 26 24  1  0
 27 26  1  0
 28 29  2  0
 29 19  1  0
 30 26  2  0
M  END
$$$$
