ELY.pdb
     RDKit          3D

 30 30  0  0  1  0  0  0  0  0999 V2000
   12.2319  -17.2921   17.7208 N   0  0  0  0  0  0  0  0  0  0  0  0
   11.2553  -17.7203   18.6842 C   0  0  1  0  0  0  0  0  0  0  0  0
   11.6790  -18.9572   19.4162 C   0  0  0  0  0  0  0  0  0  0  0  0
   11.8583  -20.1654   18.5643 C   0  0  0  0  0  0  0  0  0  0  0  0
   12.2079  -21.3919   19.2823 C   0  0  0  0  0  0  0  0  0  0  0  0
   12.4027  -22.5206   18.7974 O   0  0  0  0  0  0  0  0  0  0  0  0
   10.9439  -16.6642   19.6814 C   0  0  0  0  0  0  0  0  0  0  0  0
   11.9384  -15.9858   20.0935 O   0  0  0  0  0  0  0  0  0  0  0  0
   12.3436  -21.3059   20.6788 O   0  0  0  0  0  0  0  0  0  0  0  0
    8.3048  -12.9904   19.6851 C   0  0  0  0  0  0  0  0  0  0  0  0
    7.5166  -14.2598   19.9273 C   0  0  2  0  0  0  0  0  0  0  0  0
    6.0633  -13.8377   20.1536 C   0  0  0  0  0  0  0  0  0  0  0  0
    7.9798  -14.9105   21.1902 C   0  0  0  0  0  0  0  0  0  0  0  0
    9.4157  -15.3793   21.1377 C   0  0  2  0  0  0  0  0  0  0  0  0
    9.6360  -16.4017   20.1646 N   0  0  0  0  0  0  0  0  0  0  0  0
    9.7346  -15.8702   22.5271 C   0  0  0  0  0  0  0  0  0  0  0  0
    9.9491  -17.0951   22.7356 O   0  0  0  0  0  0  0  0  0  0  0  0
   10.6885  -15.3977   31.4162 O   0  0  0  0  0  0  0  0  0  0  0  0
   10.4446  -15.1380   30.0673 C   0  0  0  0  0  0  0  0  0  0  0  0
    9.5681  -15.9180   29.3435 C   0  0  0  0  0  0  0  0  0  0  0  0
    9.3046  -15.6884   28.0087 C   0  0  0  0  0  0  0  0  0  0  0  0
    9.9129  -14.6556   27.3268 C   0  0  0  0  0  0  0  0  0  0  0  0
    9.6736  -14.3728   25.8986 C   0  0  0  0  0  0  0  0  0  0  0  0
   10.1489  -15.4734   24.9823 C   0  0  2  0  0  0  0  0  0  0  0  0
    9.8055  -15.0023   23.6304 N   0  0  0  0  0  0  0  0  0  0  0  0
    9.4130  -16.7116   25.3085 C   0  0  0  0  0  0  0  0  0  0  0  0
    8.0741  -16.8214   24.8839 O   0  0  0  0  0  0  0  0  0  0  0  0
   10.7989  -13.8707   28.0676 C   0  0  0  0  0  0  0  0  0  0  0  0
   11.0617  -14.1003   29.4009 C   0  0  0  0  0  0  0  0  0  0  0  0
    9.9018  -17.6673   25.9367 O   0  0  0  0  0  0  0  0  0  0  0  0
  2  3  1  0
  2  1  1  6
  3  4  1  0
  4  5  1  0
  5  9  1  0
  5  6  2  0
  7  8  2  0
  7  2  1  0
 11 12  1  1
 11 10  1  0
 13 11  1  0
 14 13  1  1
 14 15  1  0
 15  7  1  0
 16 25  1  0
 16 14  1  0
 17 16  2  0
 19 18  1  0
 20 19  2  0
 21 20  1  0
 22 28  1  0
 22 21  2  0
 23 22  1  0
 24 25  1  0
 24 23  1  1
 26 24  1  0
 27 26  1  0
 28 29  2  0
 29 19  1  0
 30 26  2  0
M  END
$$$$
