ELY.pdb
     RDKit          3D

 30 30  0  0  1  0  0  0  0  0999 V2000
    8.8208  -18.6855   20.3120 N   0  0  0  0  0  0  0  0  0  0  0  0
   10.1633  -18.1792   20.2319 C   0  0  1  0  0  0  0  0  0  0  0  0
   10.6628  -18.1052   18.8212 C   0  0  0  0  0  0  0  0  0  0  0  0
    9.8026  -18.7800   17.8101 C   0  0  0  0  0  0  0  0  0  0  0  0
   10.3677  -18.8642   16.4627 C   0  0  0  0  0  0  0  0  0  0  0  0
   11.2132  -19.6769   16.0484 O   0  0  0  0  0  0  0  0  0  0  0  0
   10.2992  -16.8364   20.8525 C   0  0  0  0  0  0  0  0  0  0  0  0
   11.4821  -16.3699   20.9018 O   0  0  0  0  0  0  0  0  0  0  0  0
    9.9170  -17.9296   15.5143 O   0  0  0  0  0  0  0  0  0  0  0  0
    9.0803  -12.7825   19.8302 C   0  0  0  0  0  0  0  0  0  0  0  0
    7.9522  -13.5740   20.4566 C   0  0  2  0  0  0  0  0  0  0  0  0
    6.7277  -12.6566   20.4713 C   0  0  0  0  0  0  0  0  0  0  0  0
    8.2796  -13.8815   21.8818 C   0  0  0  0  0  0  0  0  0  0  0  0
    9.4240  -14.8555   22.0429 C   0  0  2  0  0  0  0  0  0  0  0  0
    9.2046  -16.0945   21.3665 N   0  0  0  0  0  0  0  0  0  0  0  0
    9.5748  -15.0639   23.5285 C   0  0  0  0  0  0  0  0  0  0  0  0
    9.9280  -14.1090   24.2724 O   0  0  0  0  0  0  0  0  0  0  0  0
    6.1209  -11.2451   27.0819 O   0  0  0  0  0  0  0  0  0  0  0  0
    6.6139  -12.5302   26.8539 C   0  0  0  0  0  0  0  0  0  0  0  0
    5.8884  -13.4475   26.1240 C   0  0  0  0  0  0  0  0  0  0  0  0
    6.3467  -14.7258   25.8803 C   0  0  0  0  0  0  0  0  0  0  0  0
    7.5668  -15.1521   26.3611 C   0  0  0  0  0  0  0  0  0  0  0  0
    8.0988  -16.5100   26.1373 C   0  0  0  0  0  0  0  0  0  0  0  0
    9.5034  -16.5197   25.5858 C   0  0  2  0  0  0  0  0  0  0  0  0
    9.3334  -16.3067   24.1390 N   0  0  0  0  0  0  0  0  0  0  0  0
   10.1079  -17.8402   25.8538 C   0  0  0  0  0  0  0  0  0  0  0  0
   10.4144  -18.1732   27.1880 O   0  0  0  0  0  0  0  0  0  0  0  0
    8.2950  -14.2167   27.0990 C   0  0  0  0  0  0  0  0  0  0  0  0
    7.8368  -12.9398   27.3421 C   0  0  0  0  0  0  0  0  0  0  0  0
   10.3646  -18.6803   24.9733 O   0  0  0  0  0  0  0  0  0  0  0  0
  2  3  1  0
  2  1  1  6
  3  4  1  0
  4  5  1  0
  5  9  1  0
  5  6  2  0
  7  8  2  0
  7  2  1  0
 11 12  1  1
 11 10  1  0
 13 11  1  0
 14 13  1  1
 14 15  1  0
 15  7  1  0
 16 25  1  0
 16 14  1  0
 17 16  2  0
 19 18  1  0
 20 19  2  0
 21 20  1  0
 22 28  1  0
 22 21  2  0
 23 22  1  0
 24 25  1  0
 24 23  1  1
 26 24  1  0
 27 26  1  0
 28 29  2  0
 29 19  1  0
 30 26  2  0
M  END
$$$$
