ELY.pdb
     RDKit          3D

 30 30  0  0  1  0  0  0  0  0999 V2000
    9.4120  -18.0865   17.5620 N   0  0  0  0  0  0  0  0  0  0  0  0
   10.6692  -17.7464   18.1693 C   0  0  1  0  0  0  0  0  0  0  0  0
   11.6635  -17.2307   17.1739 C   0  0  0  0  0  0  0  0  0  0  0  0
   11.0741  -16.5899   15.9658 C   0  0  0  0  0  0  0  0  0  0  0  0
   11.6047  -17.0598   14.6854 C   0  0  0  0  0  0  0  0  0  0  0  0
   11.2473  -18.0631   14.0429 O   0  0  0  0  0  0  0  0  0  0  0  0
   10.5203  -16.7411   19.2528 C   0  0  0  0  0  0  0  0  0  0  0  0
   11.5926  -16.4222   19.8590 O   0  0  0  0  0  0  0  0  0  0  0  0
   12.6358  -16.3059   14.0983 O   0  0  0  0  0  0  0  0  0  0  0  0
    8.5640  -12.3775   19.6071 C   0  0  0  0  0  0  0  0  0  0  0  0
    7.6393  -13.5747   19.5496 C   0  0  2  0  0  0  0  0  0  0  0  0
    6.2147  -13.0363   19.6975 C   0  0  0  0  0  0  0  0  0  0  0  0
    7.8895  -14.4649   20.7234 C   0  0  0  0  0  0  0  0  0  0  0  0
    9.2161  -15.1866   20.6633 C   0  0  2  0  0  0  0  0  0  0  0  0
    9.2802  -16.1546   19.6147 N   0  0  0  0  0  0  0  0  0  0  0  0
    9.3891  -15.8331   22.0143 C   0  0  0  0  0  0  0  0  0  0  0  0
    8.9941  -17.0145   22.2097 O   0  0  0  0  0  0  0  0  0  0  0  0
   10.8067  -15.9214   30.8315 O   0  0  0  0  0  0  0  0  0  0  0  0
   10.8220  -15.6349   29.4662 C   0  0  0  0  0  0  0  0  0  0  0  0
    9.9081  -14.7618   28.9159 C   0  0  0  0  0  0  0  0  0  0  0  0
    9.8957  -14.4569   27.5703 C   0  0  0  0  0  0  0  0  0  0  0  0
   10.8077  -15.0180   26.7013 C   0  0  0  0  0  0  0  0  0  0  0  0
   10.8320  -14.7333   25.2538 C   0  0  0  0  0  0  0  0  0  0  0  0
   10.1211  -15.7759   24.4263 C   0  0  2  0  0  0  0  0  0  0  0  0
    9.9864  -15.1617   23.0950 N   0  0  0  0  0  0  0  0  0  0  0  0
    8.7944  -16.0299   25.0232 C   0  0  0  0  0  0  0  0  0  0  0  0
    8.6589  -17.1210   25.9040 O   0  0  0  0  0  0  0  0  0  0  0  0
   11.7297  -15.9009   27.2671 C   0  0  0  0  0  0  0  0  0  0  0  0
   11.7417  -16.2051   28.6113 C   0  0  0  0  0  0  0  0  0  0  0  0
    7.7851  -15.3391   24.7968 O   0  0  0  0  0  0  0  0  0  0  0  0
  2  3  1  0
  2  1  1  6
  3  4  1  0
  4  5  1  0
  5  9  1  0
  5  6  2  0
  7  8  2  0
  7  2  1  0
 11 12  1  1
 11 10  1  0
 13 11  1  0
 14 13  1  1
 14 15  1  0
 15  7  1  0
 16 25  1  0
 16 14  1  0
 17 16  2  0
 19 18  1  0
 20 19  2  0
 21 20  1  0
 22 28  1  0
 22 21  2  0
 23 22  1  0
 24 25  1  0
 24 23  1  1
 26 24  1  0
 27 26  1  0
 28 29  2  0
 29 19  1  0
 30 26  2  0
M  END
$$$$
