ELY.pdb
     RDKit          3D

 30 30  0  0  1  0  0  0  0  0999 V2000
    9.4795  -18.1752   17.5869 N   0  0  0  0  0  0  0  0  0  0  0  0
   10.7604  -17.7153   18.0482 C   0  0  1  0  0  0  0  0  0  0  0  0
   11.5243  -16.9895   16.9830 C   0  0  0  0  0  0  0  0  0  0  0  0
   11.2477  -17.4380   15.5901 C   0  0  0  0  0  0  0  0  0  0  0  0
   12.4306  -17.6756   14.7618 C   0  0  0  0  0  0  0  0  0  0  0  0
   13.6147  -17.4236   15.0472 O   0  0  0  0  0  0  0  0  0  0  0  0
   10.6493  -16.8305   19.2362 C   0  0  0  0  0  0  0  0  0  0  0  0
   11.7429  -16.5686   19.8318 O   0  0  0  0  0  0  0  0  0  0  0  0
   12.2270  -18.2533   13.4965 O   0  0  0  0  0  0  0  0  0  0  0  0
    8.3785  -12.6856   19.8417 C   0  0  0  0  0  0  0  0  0  0  0  0
    7.5754  -13.9666   19.9178 C   0  0  2  0  0  0  0  0  0  0  0  0
    6.1316  -13.5620   20.2229 C   0  0  0  0  0  0  0  0  0  0  0  0
    8.0464  -14.7919   21.0710 C   0  0  0  0  0  0  0  0  0  0  0  0
    9.3956  -15.4342   20.8442 C   0  0  2  0  0  0  0  0  0  0  0  0
    9.4218  -16.2948   19.7043 N   0  0  0  0  0  0  0  0  0  0  0  0
    9.7021  -16.1946   22.1095 C   0  0  0  0  0  0  0  0  0  0  0  0
    9.2775  -17.3719   22.2630 O   0  0  0  0  0  0  0  0  0  0  0  0
   10.1367  -14.7602   30.5916 O   0  0  0  0  0  0  0  0  0  0  0  0
   10.5255  -14.9411   29.2640 C   0  0  0  0  0  0  0  0  0  0  0  0
   10.1471  -14.0449   28.2872 C   0  0  0  0  0  0  0  0  0  0  0  0
   10.5143  -14.1942   26.9657 C   0  0  0  0  0  0  0  0  0  0  0  0
   11.2863  -15.2601   26.5539 C   0  0  0  0  0  0  0  0  0  0  0  0
   11.6984  -15.4715   25.1530 C   0  0  0  0  0  0  0  0  0  0  0  0
   10.7696  -16.3804   24.3860 C   0  0  2  0  0  0  0  0  0  0  0  0
   10.4596  -15.6368   23.1538 N   0  0  0  0  0  0  0  0  0  0  0  0
    9.5491  -16.5964   25.1890 C   0  0  0  0  0  0  0  0  0  0  0  0
    9.5260  -17.6832   26.0852 O   0  0  0  0  0  0  0  0  0  0  0  0
   11.6652  -16.1627   27.5496 C   0  0  0  0  0  0  0  0  0  0  0  0
   11.2983  -16.0130   28.8696 C   0  0  0  0  0  0  0  0  0  0  0  0
    8.5365  -15.8772   25.1242 O   0  0  0  0  0  0  0  0  0  0  0  0
  2  3  1  0
  2  1  1  6
  3  4  1  0
  4  5  1  0
  5  9  1  0
  5  6  2  0
  7  8  2  0
  7  2  1  0
 11 12  1  1
 11 10  1  0
 13 11  1  0
 14 13  1  1
 14 15  1  0
 15  7  1  0
 16 25  1  0
 16 14  1  0
 17 16  2  0
 19 18  1  0
 20 19  2  0
 21 20  1  0
 22 28  1  0
 22 21  2  0
 23 22  1  0
 24 25  1  0
 24 23  1  1
 26 24  1  0
 27 26  1  0
 28 29  2  0
 29 19  1  0
 30 26  2  0
M  END
$$$$
