ELY.pdb
     RDKit          3D

 30 30  0  0  1  0  0  0  0  0999 V2000
   11.2027  -17.0203   15.3776 N   0  0  0  0  0  0  0  0  0  0  0  0
   10.1616  -17.1897   16.3536 C   0  0  1  0  0  0  0  0  0  0  0  0
    9.9403  -18.6284   16.7091 C   0  0  0  0  0  0  0  0  0  0  0  0
   11.1370  -19.3401   17.2373 C   0  0  0  0  0  0  0  0  0  0  0  0
   10.9370  -20.7559   17.5491 C   0  0  0  0  0  0  0  0  0  0  0  0
   11.7777  -21.5562   17.9963 O   0  0  0  0  0  0  0  0  0  0  0  0
   10.4278  -16.4299   17.6020 C   0  0  0  0  0  0  0  0  0  0  0  0
   11.6521  -16.3261   17.9328 O   0  0  0  0  0  0  0  0  0  0  0  0
    9.6569  -21.2916   17.3249 O   0  0  0  0  0  0  0  0  0  0  0  0
    8.8508  -12.1588   19.1526 C   0  0  0  0  0  0  0  0  0  0  0  0
    7.9654  -13.3836   19.2399 C   0  0  2  0  0  0  0  0  0  0  0  0
    6.6464  -12.9279   19.8674 C   0  0  0  0  0  0  0  0  0  0  0  0
    8.5690  -14.3792   20.1765 C   0  0  0  0  0  0  0  0  0  0  0  0
    9.7420  -15.1293   19.5883 C   0  0  2  0  0  0  0  0  0  0  0  0
    9.4090  -15.8452   18.3978 N   0  0  0  0  0  0  0  0  0  0  0  0
   10.2129  -16.0638   20.6737 C   0  0  0  0  0  0  0  0  0  0  0  0
    9.7578  -17.2376   20.7444 O   0  0  0  0  0  0  0  0  0  0  0  0
   16.7390  -17.2549   18.8188 O   0  0  0  0  0  0  0  0  0  0  0  0
   15.8309  -16.9683   19.8385 C   0  0  0  0  0  0  0  0  0  0  0  0
   15.7022  -17.8040   20.9273 C   0  0  0  0  0  0  0  0  0  0  0  0
   14.8143  -17.5499   21.9523 C   0  0  0  0  0  0  0  0  0  0  0  0
   14.0034  -16.4346   21.9362 C   0  0  0  0  0  0  0  0  0  0  0  0
   13.0314  -16.1214   23.0012 C   0  0  0  0  0  0  0  0  0  0  0  0
   11.6310  -16.5901   22.6908 C   0  0  2  0  0  0  0  0  0  0  0  0
   11.1613  -15.6766   21.6361 N   0  0  0  0  0  0  0  0  0  0  0  0
   10.8058  -16.4541   23.9080 C   0  0  0  0  0  0  0  0  0  0  0  0
   11.1061  -17.2775   25.0109 O   0  0  0  0  0  0  0  0  0  0  0  0
   14.1404  -15.5937   20.8300 C   0  0  0  0  0  0  0  0  0  0  0  0
   15.0276  -15.8478   19.8063 C   0  0  0  0  0  0  0  0  0  0  0  0
    9.8589  -15.6557   24.0218 O   0  0  0  0  0  0  0  0  0  0  0  0
  2  3  1  0
  2  1  1  6
  3  4  1  0
  4  5  1  0
  5  9  1  0
  5  6  2  0
  7  8  2  0
  7  2  1  0
 11 12  1  1
 11 10  1  0
 13 11  1  0
 14 13  1  1
 14 15  1  0
 15  7  1  0
 16 25  1  0
 16 14  1  0
 17 16  2  0
 19 18  1  0
 20 19  2  0
 21 20  1  0
 22 28  1  0
 22 21  2  0
 23 22  1  0
 24 25  1  0
 24 23  1  1
 26 24  1  0
 27 26  1  0
 28 29  2  0
 29 19  1  0
 30 26  2  0
M  END
$$$$
