ELY.pdb
     RDKit          3D

 30 30  0  0  1  0  0  0  0  0999 V2000
    8.4167  -18.8818   20.0159 N   0  0  0  0  0  0  0  0  0  0  0  0
    9.7722  -18.4098   19.9442 C   0  0  1  0  0  0  0  0  0  0  0  0
   10.2697  -18.3135   18.5341 C   0  0  0  0  0  0  0  0  0  0  0  0
    9.3039  -17.7311   17.5616 C   0  0  0  0  0  0  0  0  0  0  0  0
    9.7627  -17.6877   16.1725 C   0  0  0  0  0  0  0  0  0  0  0  0
   10.1934  -18.6342   15.4902 O   0  0  0  0  0  0  0  0  0  0  0  0
    9.9458  -17.0874   20.5981 C   0  0  0  0  0  0  0  0  0  0  0  0
   11.1417  -16.6573   20.6613 O   0  0  0  0  0  0  0  0  0  0  0  0
    9.7198  -16.4447   15.5173 O   0  0  0  0  0  0  0  0  0  0  0  0
    8.5102  -12.9813   19.5079 C   0  0  0  0  0  0  0  0  0  0  0  0
    7.4966  -13.8599   20.2094 C   0  0  2  0  0  0  0  0  0  0  0  0
    6.1973  -13.0554   20.2868 C   0  0  0  0  0  0  0  0  0  0  0  0
    7.9331  -14.1131   21.6159 C   0  0  0  0  0  0  0  0  0  0  0  0
    9.1138  -15.0506   21.7234 C   0  0  2  0  0  0  0  0  0  0  0  0
    8.8720  -16.3265   21.1283 N   0  0  0  0  0  0  0  0  0  0  0  0
    9.3968  -15.1810   23.1985 C   0  0  0  0  0  0  0  0  0  0  0  0
    9.9373  -14.2322   23.8290 O   0  0  0  0  0  0  0  0  0  0  0  0
    6.5487  -11.1076   27.3380 O   0  0  0  0  0  0  0  0  0  0  0  0
    6.9417  -12.4103   27.0298 C   0  0  0  0  0  0  0  0  0  0  0  0
    6.0589  -13.2981   26.4529 C   0  0  0  0  0  0  0  0  0  0  0  0
    6.4151  -14.5928   26.1356 C   0  0  0  0  0  0  0  0  0  0  0  0
    7.6863  -15.0661   26.3838 C   0  0  0  0  0  0  0  0  0  0  0  0
    8.1156  -16.4431   26.0729 C   0  0  0  0  0  0  0  0  0  0  0  0
    9.4338  -16.5088   25.3414 C   0  0  2  0  0  0  0  0  0  0  0  0
    9.0775  -16.3425   23.9227 N   0  0  0  0  0  0  0  0  0  0  0  0
   10.0405  -17.8344   25.5777 C   0  0  0  0  0  0  0  0  0  0  0  0
   10.5337  -18.1204   26.8660 O   0  0  0  0  0  0  0  0  0  0  0  0
    8.5739  -14.1603   26.9680 C   0  0  0  0  0  0  0  0  0  0  0  0
    8.2177  -12.8670   27.2846 C   0  0  0  0  0  0  0  0  0  0  0  0
   10.1440  -18.7179   24.7083 O   0  0  0  0  0  0  0  0  0  0  0  0
  2  3  1  0
  2  1  1  6
  3  4  1  0
  4  5  1  0
  5  9  1  0
  5  6  2  0
  7  8  2  0
  7  2  1  0
 11 12  1  1
 11 10  1  0
 13 11  1  0
 14 13  1  1
 14 15  1  0
 15  7  1  0
 16 25  1  0
 16 14  1  0
 17 16  2  0
 19 18  1  0
 20 19  2  0
 21 20  1  0
 22 28  1  0
 22 21  2  0
 23 22  1  0
 24 25  1  0
 24 23  1  1
 26 24  1  0
 27 26  1  0
 28 29  2  0
 29 19  1  0
 30 26  2  0
M  END
$$$$
