ELY.pdb
     RDKit          3D

 30 30  0  0  1  0  0  0  0  0999 V2000
    8.8546  -18.7706   20.2479 N   0  0  0  0  0  0  0  0  0  0  0  0
   10.1815  -18.2393   20.0988 C   0  0  1  0  0  0  0  0  0  0  0  0
   10.5783  -18.0884   18.6618 C   0  0  0  0  0  0  0  0  0  0  0  0
   10.5832  -19.3506   17.8717 C   0  0  0  0  0  0  0  0  0  0  0  0
   10.9157  -19.2013   16.4542 C   0  0  0  0  0  0  0  0  0  0  0  0
   11.9748  -18.7650   15.9695 O   0  0  0  0  0  0  0  0  0  0  0  0
   10.3442  -16.9264   20.7744 C   0  0  0  0  0  0  0  0  0  0  0  0
   11.5214  -16.4434   20.7629 O   0  0  0  0  0  0  0  0  0  0  0  0
    9.9412  -19.5893   15.5184 O   0  0  0  0  0  0  0  0  0  0  0  0
    8.8052  -12.9939   19.6758 C   0  0  0  0  0  0  0  0  0  0  0  0
    7.8389  -13.8606   20.4547 C   0  0  2  0  0  0  0  0  0  0  0  0
    6.5170  -13.0929   20.5220 C   0  0  0  0  0  0  0  0  0  0  0  0
    8.3199  -14.0182   21.8606 C   0  0  0  0  0  0  0  0  0  0  0  0
    9.5035  -14.9485   21.9944 C   0  0  2  0  0  0  0  0  0  0  0  0
    9.2797  -16.2286   21.4013 N   0  0  0  0  0  0  0  0  0  0  0  0
    9.7602  -15.0701   23.4751 C   0  0  0  0  0  0  0  0  0  0  0  0
    9.9916  -14.0419   24.1673 O   0  0  0  0  0  0  0  0  0  0  0  0
    6.1372  -11.1875   26.7298 O   0  0  0  0  0  0  0  0  0  0  0  0
    6.6621  -12.4661   26.5399 C   0  0  0  0  0  0  0  0  0  0  0  0
    5.9149  -13.4559   25.9379 C   0  0  0  0  0  0  0  0  0  0  0  0
    6.4037  -14.7301   25.7352 C   0  0  0  0  0  0  0  0  0  0  0  0
    7.6781  -15.0787   26.1302 C   0  0  0  0  0  0  0  0  0  0  0  0
    8.2453  -16.4282   25.9456 C   0  0  0  0  0  0  0  0  0  0  0  0
    9.7153  -16.4186   25.6049 C   0  0  2  0  0  0  0  0  0  0  0  0
    9.7533  -16.3099   24.1371 N   0  0  0  0  0  0  0  0  0  0  0  0
   10.3129  -17.6931   26.0518 C   0  0  0  0  0  0  0  0  0  0  0  0
   10.7980  -18.5805   25.0711 O   0  0  0  0  0  0  0  0  0  0  0  0
    8.4279  -14.0702   26.7389 C   0  0  0  0  0  0  0  0  0  0  0  0
    7.9393  -12.7974   26.9410 C   0  0  0  0  0  0  0  0  0  0  0  0
   10.4155  -18.0341   27.2435 O   0  0  0  0  0  0  0  0  0  0  0  0
  2  3  1  0
  2  1  1  6
  3  4  1  0
  4  5  1  0
  5  9  1  0
  5  6  2  0
  7  8  2  0
  7  2  1  0
 11 12  1  1
 11 10  1  0
 13 11  1  0
 14 13  1  1
 14 15  1  0
 15  7  1  0
 16 25  1  0
 16 14  1  0
 17 16  2  0
 19 18  1  0
 20 19  2  0
 21 20  1  0
 22 28  1  0
 22 21  2  0
 23 22  1  0
 24 25  1  0
 24 23  1  6
 26 24  1  0
 27 26  1  0
 28 29  2  0
 29 19  1  0
 30 26  2  0
M  END
$$$$
