ELY.pdb
     RDKit          3D

 30 30  0  0  1  0  0  0  0  0999 V2000
    9.1142  -18.2922   17.9265 N   0  0  0  0  0  0  0  0  0  0  0  0
   10.4388  -17.7671   18.1135 C   0  0  1  0  0  0  0  0  0  0  0  0
   10.9936  -17.1577   16.8621 C   0  0  0  0  0  0  0  0  0  0  0  0
   11.1097  -18.0870   15.7043 C   0  0  0  0  0  0  0  0  0  0  0  0
   11.6725  -17.5030   14.4860 C   0  0  0  0  0  0  0  0  0  0  0  0
   11.0915  -17.3113   13.4031 O   0  0  0  0  0  0  0  0  0  0  0  0
   10.4976  -16.7544   19.1986 C   0  0  0  0  0  0  0  0  0  0  0  0
   11.6579  -16.3122   19.4767 O   0  0  0  0  0  0  0  0  0  0  0  0
   13.0208  -17.1073   14.5233 O   0  0  0  0  0  0  0  0  0  0  0  0
    8.7388  -12.6612   19.6224 C   0  0  0  0  0  0  0  0  0  0  0  0
    7.7865  -13.7919   19.9481 C   0  0  2  0  0  0  0  0  0  0  0  0
    6.4419  -13.1479   20.2924 C   0  0  0  0  0  0  0  0  0  0  0  0
    8.2505  -14.5074   21.1752 C   0  0  0  0  0  0  0  0  0  0  0  0
    9.4946  -15.3375   20.9575 C   0  0  2  0  0  0  0  0  0  0  0  0
    9.3559  -16.2879   19.9001 N   0  0  0  0  0  0  0  0  0  0  0  0
    9.7632  -16.0211   22.2742 C   0  0  0  0  0  0  0  0  0  0  0  0
    8.8914  -16.7712   22.7912 O   0  0  0  0  0  0  0  0  0  0  0  0
    9.7941  -14.9887   30.6898 O   0  0  0  0  0  0  0  0  0  0  0  0
    9.8984  -14.9628   29.2989 C   0  0  0  0  0  0  0  0  0  0  0  0
   10.6446  -15.9076   28.6273 C   0  0  0  0  0  0  0  0  0  0  0  0
   10.7685  -15.9106   27.2531 C   0  0  0  0  0  0  0  0  0  0  0  0
   10.1445  -14.9569   26.4766 C   0  0  0  0  0  0  0  0  0  0  0  0
   10.2520  -14.9093   25.0059 C   0  0  0  0  0  0  0  0  0  0  0  0
   11.0730  -16.0361   24.4285 C   0  0  2  0  0  0  0  0  0  0  0  0
   10.9728  -15.8564   22.9707 N   0  0  0  0  0  0  0  0  0  0  0  0
   10.4708  -17.3199   24.8411 C   0  0  0  0  0  0  0  0  0  0  0  0
   11.2455  -18.1963   25.6264 O   0  0  0  0  0  0  0  0  0  0  0  0
    9.3908  -14.0041   27.1649 C   0  0  0  0  0  0  0  0  0  0  0  0
    9.2673  -14.0016   28.5376 C   0  0  0  0  0  0  0  0  0  0  0  0
    9.3189  -17.6781   24.5382 O   0  0  0  0  0  0  0  0  0  0  0  0
  2  3  1  0
  2  1  1  6
  3  4  1  0
  4  5  1  0
  5  9  1  0
  5  6  2  0
  7  8  2  0
  7  2  1  0
 11 12  1  1
 11 10  1  0
 13 11  1  0
 14 13  1  1
 14 15  1  0
 15  7  1  0
 16 25  1  0
 16 14  1  0
 17 16  2  0
 19 18  1  0
 20 19  2  0
 21 20  1  0
 22 28  1  0
 22 21  2  0
 23 22  1  0
 24 25  1  0
 24 23  1  1
 26 24  1  0
 27 26  1  0
 28 29  2  0
 29 19  1  0
 30 26  2  0
M  END
$$$$
