ELY.pdb
     RDKit          3D

 30 30  0  0  1  0  0  0  0  0999 V2000
   10.7133  -18.3783   17.5018 N   0  0  0  0  0  0  0  0  0  0  0  0
    9.6873  -18.2667   18.5018 C   0  0  1  0  0  0  0  0  0  0  0  0
    9.4248  -19.5670   19.1986 C   0  0  0  0  0  0  0  0  0  0  0  0
   10.6383  -20.2780   19.6877 C   0  0  0  0  0  0  0  0  0  0  0  0
   10.5009  -20.9275   20.9921 C   0  0  0  0  0  0  0  0  0  0  0  0
    9.7253  -21.8507   21.2974 O   0  0  0  0  0  0  0  0  0  0  0  0
   10.0045  -17.2377   19.5251 C   0  0  0  0  0  0  0  0  0  0  0  0
   11.2413  -16.9881   19.6899 O   0  0  0  0  0  0  0  0  0  0  0  0
   11.3306  -20.4710   22.0310 O   0  0  0  0  0  0  0  0  0  0  0  0
    8.5346  -12.9203   19.8061 C   0  0  0  0  0  0  0  0  0  0  0  0
    7.5957  -13.9518   20.3943 C   0  0  2  0  0  0  0  0  0  0  0  0
    6.3836  -13.1871   20.9303 C   0  0  0  0  0  0  0  0  0  0  0  0
    8.2421  -14.6149   21.5671 C   0  0  0  0  0  0  0  0  0  0  0  0
    9.3943  -15.5182   21.1919 C   0  0  2  0  0  0  0  0  0  0  0  0
    9.0194  -16.5580   20.2870 N   0  0  0  0  0  0  0  0  0  0  0  0
    9.9073  -16.0844   22.4917 C   0  0  0  0  0  0  0  0  0  0  0  0
    9.3357  -17.0740   23.0243 O   0  0  0  0  0  0  0  0  0  0  0  0
   10.1507  -13.4370   30.0780 O   0  0  0  0  0  0  0  0  0  0  0  0
   10.1908  -14.1633   28.8875 C   0  0  0  0  0  0  0  0  0  0  0  0
   10.6869  -15.4492   28.8591 C   0  0  0  0  0  0  0  0  0  0  0  0
   10.7407  -16.1946   27.6993 C   0  0  0  0  0  0  0  0  0  0  0  0
   10.2957  -15.6826   26.4987 C   0  0  0  0  0  0  0  0  0  0  0  0
   10.3395  -16.4333   25.2292 C   0  0  0  0  0  0  0  0  0  0  0  0
   11.5599  -16.1293   24.3954 C   0  0  2  0  0  0  0  0  0  0  0  0
   11.0233  -15.5455   23.1548 N   0  0  0  0  0  0  0  0  0  0  0  0
   12.2689  -17.3942   24.1156 C   0  0  0  0  0  0  0  0  0  0  0  0
   13.5385  -17.5875   24.6949 O   0  0  0  0  0  0  0  0  0  0  0  0
    9.7948  -14.3798   26.5365 C   0  0  0  0  0  0  0  0  0  0  0  0
    9.7411  -13.6356   27.6954 C   0  0  0  0  0  0  0  0  0  0  0  0
   11.8148  -18.3033   23.3984 O   0  0  0  0  0  0  0  0  0  0  0  0
  2  3  1  0
  2  1  1  6
  3  4  1  0
  4  5  1  0
  5  9  1  0
  5  6  2  0
  7  8  2  0
  7  2  1  0
 11 12  1  1
 11 10  1  0
 13 11  1  0
 14 13  1  1
 14 15  1  0
 15  7  1  0
 16 25  1  0
 16 14  1  0
 17 16  2  0
 19 18  1  0
 20 19  2  0
 21 20  1  0
 22 28  1  0
 22 21  2  0
 23 22  1  0
 24 25  1  0
 24 23  1  1
 26 24  1  0
 27 26  1  0
 28 29  2  0
 29 19  1  0
 30 26  2  0
M  END
$$$$
