ELY.pdb
     RDKit          3D

 30 30  0  0  1  0  0  0  0  0999 V2000
    8.5361  -18.8124   20.5265 N   0  0  0  0  0  0  0  0  0  0  0  0
    9.8920  -18.4167   20.2613 C   0  0  1  0  0  0  0  0  0  0  0  0
   10.1885  -18.3410   18.7945 C   0  0  0  0  0  0  0  0  0  0  0  0
    9.6822  -19.4856   17.9876 C   0  0  0  0  0  0  0  0  0  0  0  0
    9.9939  -19.4313   16.5586 C   0  0  0  0  0  0  0  0  0  0  0  0
   11.1188  -19.4721   16.0296 O   0  0  0  0  0  0  0  0  0  0  0  0
   10.2309  -17.1095   20.8801 C   0  0  0  0  0  0  0  0  0  0  0  0
   11.4462  -16.7480   20.7725 O   0  0  0  0  0  0  0  0  0  0  0  0
    8.9135  -19.3204   15.6662 O   0  0  0  0  0  0  0  0  0  0  0  0
    9.0431  -13.2511   19.6535 C   0  0  0  0  0  0  0  0  0  0  0  0
    8.0304  -13.8695   20.5934 C   0  0  2  0  0  0  0  0  0  0  0  0
    6.8563  -12.8920   20.6784 C   0  0  0  0  0  0  0  0  0  0  0  0
    8.6098  -13.9704   21.9671 C   0  0  0  0  0  0  0  0  0  0  0  0
    9.6803  -15.0295   22.0958 C   0  0  2  0  0  0  0  0  0  0  0  0
    9.2876  -16.2918   21.5543 N   0  0  0  0  0  0  0  0  0  0  0  0
    9.9726  -15.1355   23.5711 C   0  0  0  0  0  0  0  0  0  0  0  0
   10.5859  -14.2085   24.1664 O   0  0  0  0  0  0  0  0  0  0  0  0
    5.8564  -11.2933   26.0239 O   0  0  0  0  0  0  0  0  0  0  0  0
    6.5067  -12.5236   26.1221 C   0  0  0  0  0  0  0  0  0  0  0  0
    5.9256  -13.6727   25.6298 C   0  0  0  0  0  0  0  0  0  0  0  0
    6.5414  -14.9048   25.7108 C   0  0  0  0  0  0  0  0  0  0  0  0
    7.7823  -15.0472   26.2952 C   0  0  0  0  0  0  0  0  0  0  0  0
    8.4798  -16.3418   26.4157 C   0  0  0  0  0  0  0  0  0  0  0  0
    9.8477  -16.3468   25.7787 C   0  0  2  0  0  0  0  0  0  0  0  0
    9.5825  -16.2497   24.3338 N   0  0  0  0  0  0  0  0  0  0  0  0
   10.5167  -17.6225   26.1044 C   0  0  0  0  0  0  0  0  0  0  0  0
   10.8149  -17.8916   27.4548 O   0  0  0  0  0  0  0  0  0  0  0  0
    8.3636  -13.8784   26.7909 C   0  0  0  0  0  0  0  0  0  0  0  0
    7.7481  -12.6479   26.7097 C   0  0  0  0  0  0  0  0  0  0  0  0
   10.8349  -18.4777   25.2592 O   0  0  0  0  0  0  0  0  0  0  0  0
  2  3  1  0
  2  1  1  6
  3  4  1  0
  4  5  1  0
  5  9  1  0
  5  6  2  0
  7  8  2  0
  7  2  1  0
 11 12  1  1
 11 10  1  0
 13 11  1  0
 14 13  1  1
 14 15  1  0
 15  7  1  0
 16 25  1  0
 16 14  1  0
 17 16  2  0
 19 18  1  0
 20 19  2  0
 21 20  1  0
 22 28  1  0
 22 21  2  0
 23 22  1  0
 24 25  1  0
 24 23  1  1
 26 24  1  0
 27 26  1  0
 28 29  2  0
 29 19  1  0
 30 26  2  0
M  END
$$$$
