ELY.pdb
     RDKit          3D

 30 30  0  0  1  0  0  0  0  0999 V2000
    9.5571  -18.6438   19.3136 N   0  0  0  0  0  0  0  0  0  0  0  0
   10.8170  -18.0756   19.7075 C   0  0  1  0  0  0  0  0  0  0  0  0
   11.6380  -17.6371   18.5332 C   0  0  0  0  0  0  0  0  0  0  0  0
   12.1359  -18.7387   17.6636 C   0  0  0  0  0  0  0  0  0  0  0  0
   12.9356  -18.3160   16.5131 C   0  0  0  0  0  0  0  0  0  0  0  0
   13.4498  -17.1999   16.3206 O   0  0  0  0  0  0  0  0  0  0  0  0
   10.6536  -16.9209   20.6275 C   0  0  0  0  0  0  0  0  0  0  0  0
   11.7270  -16.4700   21.1411 O   0  0  0  0  0  0  0  0  0  0  0  0
   13.1596  -19.2640   15.4996 O   0  0  0  0  0  0  0  0  0  0  0  0
    8.8159  -12.8650   19.9786 C   0  0  0  0  0  0  0  0  0  0  0  0
    7.8271  -13.9593   20.3195 C   0  0  2  0  0  0  0  0  0  0  0  0
    6.4376  -13.3191   20.2933 C   0  0  0  0  0  0  0  0  0  0  0  0
    8.0587  -14.4338   21.7174 C   0  0  0  0  0  0  0  0  0  0  0  0
    9.3137  -15.2611   21.8753 C   0  0  2  0  0  0  0  0  0  0  0  0
    9.3992  -16.3340   20.9361 N   0  0  0  0  0  0  0  0  0  0  0  0
    9.2858  -15.7764   23.2919 C   0  0  0  0  0  0  0  0  0  0  0  0
    8.5755  -16.7740   23.5922 O   0  0  0  0  0  0  0  0  0  0  0  0
    5.9217  -10.8784   27.3245 O   0  0  0  0  0  0  0  0  0  0  0  0
    6.5446  -12.0842   27.0015 C   0  0  0  0  0  0  0  0  0  0  0  0
    7.8954  -12.2617   27.2118 C   0  0  0  0  0  0  0  0  0  0  0  0
    8.5421  -13.4409   26.9035 C   0  0  0  0  0  0  0  0  0  0  0  0
    7.8599  -14.5108   26.3637 C   0  0  0  0  0  0  0  0  0  0  0  0
    8.5046  -15.7894   26.0077 C   0  0  0  0  0  0  0  0  0  0  0  0
    9.9785  -15.6554   25.7131 C   0  0  2  0  0  0  0  0  0  0  0  0
   10.0350  -15.1802   24.3208 N   0  0  0  0  0  0  0  0  0  0  0  0
   10.6090  -16.9849   25.8393 C   0  0  0  0  0  0  0  0  0  0  0  0
   11.1829  -17.5610   24.6888 O   0  0  0  0  0  0  0  0  0  0  0  0
    6.4923  -14.3225   26.1542 C   0  0  0  0  0  0  0  0  0  0  0  0
    5.8467  -13.1444   26.4624 C   0  0  0  0  0  0  0  0  0  0  0  0
   10.6658  -17.6309   26.9006 O   0  0  0  0  0  0  0  0  0  0  0  0
  2  3  1  0
  2  1  1  6
  3  4  1  0
  4  5  1  0
  5  9  1  0
  5  6  2  0
  7  8  2  0
  7  2  1  0
 11 12  1  1
 11 10  1  0
 13 11  1  0
 14 13  1  6
 14 15  1  0
 15  7  1  0
 16 25  1  0
 16 14  1  0
 17 16  2  0
 19 18  1  0
 20 19  2  0
 21 20  1  0
 22 28  1  0
 22 21  2  0
 23 22  1  0
 24 25  1  0
 24 23  1  6
 26 24  1  0
 27 26  1  0
 28 29  2  0
 29 19  1  0
 30 26  2  0
M  END
$$$$
