ELY.pdb
     RDKit          3D

 30 30  0  0  1  0  0  0  0  0999 V2000
    7.4518  -18.8874   20.4597 N   0  0  0  0  0  0  0  0  0  0  0  0
    8.8210  -18.6839   20.0736 C   0  0  1  0  0  0  0  0  0  0  0  0
    9.0100  -18.7394   18.5882 C   0  0  0  0  0  0  0  0  0  0  0  0
    8.2599  -19.8236   17.8958 C   0  0  0  0  0  0  0  0  0  0  0  0
    8.4829  -19.9167   16.4523 C   0  0  0  0  0  0  0  0  0  0  0  0
    7.7542  -19.4753   15.5462 O   0  0  0  0  0  0  0  0  0  0  0  0
    9.3631  -17.3935   20.5711 C   0  0  0  0  0  0  0  0  0  0  0  0
   10.6103  -17.2149   20.3927 O   0  0  0  0  0  0  0  0  0  0  0  0
    9.6470  -20.5758   16.0203 O   0  0  0  0  0  0  0  0  0  0  0  0
    7.4910  -11.9837   20.3712 C   0  0  0  0  0  0  0  0  0  0  0  0
    8.4507  -13.1543   20.3613 C   0  0  2  0  0  0  0  0  0  0  0  0
    8.0844  -14.0118   19.1481 C   0  0  0  0  0  0  0  0  0  0  0  0
    8.2294  -14.0010   21.5724 C   0  0  0  0  0  0  0  0  0  0  0  0
    9.1647  -15.1849   21.6620 C   0  0  2  0  0  0  0  0  0  0  0  0
    8.5719  -16.4027   21.2079 N   0  0  0  0  0  0  0  0  0  0  0  0
    9.5634  -15.2796   23.1129 C   0  0  0  0  0  0  0  0  0  0  0  0
   10.3148  -14.4059   23.6246 O   0  0  0  0  0  0  0  0  0  0  0  0
    6.0791  -11.1529   26.7409 O   0  0  0  0  0  0  0  0  0  0  0  0
    6.5979  -12.4391   26.5890 C   0  0  0  0  0  0  0  0  0  0  0  0
    7.8848  -12.7345   26.9852 C   0  0  0  0  0  0  0  0  0  0  0  0
    8.4283  -13.9954   26.8492 C   0  0  0  0  0  0  0  0  0  0  0  0
    7.7015  -15.0325   26.3035 C   0  0  0  0  0  0  0  0  0  0  0  0
    8.2377  -16.3957   26.1271 C   0  0  0  0  0  0  0  0  0  0  0  0
    9.5329  -16.4345   25.3539 C   0  0  2  0  0  0  0  0  0  0  0  0
    9.1245  -16.3249   23.9437 N   0  0  0  0  0  0  0  0  0  0  0  0
   10.1972  -17.7288   25.6082 C   0  0  0  0  0  0  0  0  0  0  0  0
   10.3439  -18.6244   24.5306 O   0  0  0  0  0  0  0  0  0  0  0  0
    6.3991  -14.7245   25.9051 C   0  0  0  0  0  0  0  0  0  0  0  0
    5.8566  -13.4649   26.0414 C   0  0  0  0  0  0  0  0  0  0  0  0
   10.6372  -18.0797   26.7173 O   0  0  0  0  0  0  0  0  0  0  0  0
  2  3  1  0
  2  1  1  6
  3  4  1  0
  4  5  1  0
  5  9  1  0
  5  6  2  0
  7  8  2  0
  7  2  1  0
 11 12  1  6
 11 10  1  0
 13 11  1  0
 14 13  1  1
 14 15  1  0
 15  7  1  0
 16 25  1  0
 16 14  1  0
 17 16  2  0
 19 18  1  0
 20 19  2  0
 21 20  1  0
 22 28  1  0
 22 21  2  0
 23 22  1  0
 24 25  1  0
 24 23  1  1
 26 24  1  0
 27 26  1  0
 28 29  2  0
 29 19  1  0
 30 26  2  0
M  END
$$$$
