KCH.pdb
     RDKit          3D

 26 26  0  0  1  0  0  0  0  0999 V2000
   21.0271  -23.1245  -14.5016 N   0  0  0  0  0  0  0  0  0  0  0  0
   20.0738  -22.0306  -14.5619 C   0  0  1  0  0  0  0  0  0  0  0  0
   19.2143  -22.0164  -13.3645 C   0  0  0  0  0  0  0  0  0  0  0  0
   18.2723  -23.1157  -13.1062 C   0  0  0  0  0  0  0  0  0  0  0  0
   17.4761  -23.7574  -14.1407 C   0  0  0  0  0  0  0  0  0  0  0  0
   16.5160  -24.8239  -13.7802 C   0  0  0  0  0  0  0  0  0  0  0  0
   15.7522  -25.2473  -14.9763 N   0  0  0  0  0  0  0  0  0  0  0  0
   20.8672  -20.7225  -14.6334 C   0  0  0  0  0  0  0  0  0  0  0  0
   20.3040  -19.6114  -14.5219 O   0  0  0  0  0  0  0  0  0  0  0  0
   22.2509  -20.7446  -14.8266 N   0  0  0  0  0  0  0  0  0  0  0  0
   23.0362  -19.5638  -15.0296 C   0  0  1  0  0  0  0  0  0  0  0  0
   24.5137  -19.7809  -14.9329 C   0  0  0  0  0  0  0  0  0  0  0  0
   25.4310  -18.2209  -15.0671 S   0  0  0  0  0  0  0  0  0  0  0  0
   22.7352  -19.0029  -16.3608 C   0  0  0  0  0  0  0  0  0  0  0  0
   22.7227  -19.7068  -17.4136 O   0  0  0  0  0  0  0  0  0  0  0  0
   22.4423  -17.6253  -16.5149 N   0  0  0  0  0  0  0  0  0  0  0  0
   22.1607  -17.0415  -17.8173 C   0  0  1  0  0  0  0  0  0  0  0  0
   21.2742  -15.8470  -17.5789 C   0  0  0  0  0  0  0  0  0  0  0  0
   20.7827  -15.2724  -18.8436 C   0  0  0  0  0  0  0  0  0  0  0  0
   20.9746  -15.8057  -20.1185 C   0  0  0  0  0  0  0  0  0  0  0  0
   20.3742  -14.9881  -21.0008 N   0  0  0  0  0  0  0  0  0  0  0  0
   19.8251  -13.9777  -20.3047 C   0  0  0  0  0  0  0  0  0  0  0  0
   20.0728  -14.1517  -19.0057 N   0  0  0  0  0  0  0  0  0  0  0  0
   23.4040  -16.6613  -18.5107 C   0  0  0  0  0  0  0  0  0  0  0  0
   23.5639  -16.7668  -19.8887 O   0  0  0  0  0  0  0  0  0  0  0  0
   24.3665  -16.2240  -17.8536 O   0  0  0  0  0  0  0  0  0  0  0  0
  2  3  1  0
  2  1  1  1
  4  3  1  0
  5  4  1  0
  6  7  1  0
  6  5  1  0
  8  2  1  0
  8  9  2  0
 10  8  1  0
 11 10  1  0
 11 12  1  6
 12 13  1  0
 14 11  1  0
 15 14  2  0
 16 14  1  0
 17 24  1  0
 17 16  1  0
 17 18  1  1
 19 23  1  0
 19 18  1  0
 20 19  2  0
 21 20  1  0
 21 22  1  0
 22 23  2  0
 24 25  1  0
 26 24  2  0
M  END
$$$$
