KCH.pdb
     RDKit          3D

 26 26  0  0  1  0  0  0  0  0999 V2000
   16.6281  -13.2653  -18.5805 N   0  0  0  0  0  0  0  0  0  0  0  0
   15.2978  -13.0588  -18.0355 C   0  0  1  0  0  0  0  0  0  0  0  0
   14.7761  -14.3016  -17.4389 C   0  0  0  0  0  0  0  0  0  0  0  0
   15.6625  -15.1981  -16.6819 C   0  0  0  0  0  0  0  0  0  0  0  0
   15.2450  -16.4849  -16.1474 C   0  0  0  0  0  0  0  0  0  0  0  0
   16.1685  -17.2670  -15.2960 C   0  0  0  0  0  0  0  0  0  0  0  0
   15.5024  -18.5021  -14.8228 N   0  0  0  0  0  0  0  0  0  0  0  0
   15.3982  -11.9791  -16.9540 C   0  0  0  0  0  0  0  0  0  0  0  0
   14.3978  -11.6231  -16.2931 O   0  0  0  0  0  0  0  0  0  0  0  0
   16.6225  -11.3635  -16.6810 N   0  0  0  0  0  0  0  0  0  0  0  0
   16.7729  -10.2926  -15.7413 C   0  0  1  0  0  0  0  0  0  0  0  0
   17.5878  -10.6397  -14.5352 C   0  0  0  0  0  0  0  0  0  0  0  0
   17.7801   -9.2180  -13.4238 S   0  0  0  0  0  0  0  0  0  0  0  0
   17.4051   -9.1413  -16.4137 C   0  0  0  0  0  0  0  0  0  0  0  0
   18.5476   -9.2078  -16.9562 O   0  0  0  0  0  0  0  0  0  0  0  0
   16.7433   -7.8903  -16.4792 N   0  0  0  0  0  0  0  0  0  0  0  0
   17.3905   -6.7073  -17.0253 C   0  0  1  0  0  0  0  0  0  0  0  0
   16.3028   -5.8438  -17.6090 C   0  0  0  0  0  0  0  0  0  0  0  0
   16.8543   -4.6587  -18.2892 C   0  0  0  0  0  0  0  0  0  0  0  0
   17.1234   -3.4232  -17.6996 C   0  0  0  0  0  0  0  0  0  0  0  0
   17.6156   -2.6117  -18.6519 N   0  0  0  0  0  0  0  0  0  0  0  0
   17.6541   -3.3128  -19.7981 C   0  0  0  0  0  0  0  0  0  0  0  0
   17.1950   -4.5453  -19.5765 N   0  0  0  0  0  0  0  0  0  0  0  0
   18.1513   -5.9895  -15.9875 C   0  0  0  0  0  0  0  0  0  0  0  0
   19.4016   -5.4256  -16.2206 O   0  0  0  0  0  0  0  0  0  0  0  0
   17.6727   -5.8706  -14.8446 O   0  0  0  0  0  0  0  0  0  0  0  0
  2  3  1  0
  2  1  1  1
  4  3  1  0
  5  4  1  0
  6  7  1  0
  6  5  1  0
  8  2  1  0
  8  9  2  0
 10  8  1  0
 11 10  1  0
 11 12  1  1
 12 13  1  0
 14 11  1  0
 15 14  2  0
 16 14  1  0
 17 24  1  0
 17 16  1  0
 17 18  1  1
 19 23  1  0
 19 18  1  0
 20 19  2  0
 21 20  1  0
 21 22  1  0
 22 23  2  0
 24 25  1  0
 26 24  2  0
M  END
$$$$
