KCH.pdb
     RDKit          3D

 26 26  0  0  1  0  0  0  0  0999 V2000
   24.5955  -13.6037  -18.6313 N   0  0  0  0  0  0  0  0  0  0  0  0
   23.2986  -13.5223  -17.9827 C   0  0  1  0  0  0  0  0  0  0  0  0
   23.0627  -14.7017  -17.1307 C   0  0  0  0  0  0  0  0  0  0  0  0
   22.9827  -16.0468  -17.7198 C   0  0  0  0  0  0  0  0  0  0  0  0
   22.8098  -17.2618  -16.9390 C   0  0  0  0  0  0  0  0  0  0  0  0
   22.7277  -18.5730  -17.6198 C   0  0  0  0  0  0  0  0  0  0  0  0
   22.5697  -19.6560  -16.6220 N   0  0  0  0  0  0  0  0  0  0  0  0
   23.2876  -12.2594  -17.1165 C   0  0  0  0  0  0  0  0  0  0  0  0
   22.3154  -11.9822  -16.3801 O   0  0  0  0  0  0  0  0  0  0  0  0
   24.3751  -11.3821  -17.1317 N   0  0  0  0  0  0  0  0  0  0  0  0
   24.4416  -10.1970  -16.3296 C   0  0  1  0  0  0  0  0  0  0  0  0
   25.8151   -9.6179  -16.1966 C   0  0  0  0  0  0  0  0  0  0  0  0
   26.8239  -10.5497  -15.0104 S   0  0  0  0  0  0  0  0  0  0  0  0
   23.5575   -9.1675  -16.9092 C   0  0  0  0  0  0  0  0  0  0  0  0
   23.6332   -8.8025  -18.1196 O   0  0  0  0  0  0  0  0  0  0  0  0
   22.5688   -8.5346  -16.1161 N   0  0  0  0  0  0  0  0  0  0  0  0
   21.6948   -7.5047  -16.6564 C   0  0  1  0  0  0  0  0  0  0  0  0
   20.3276   -7.7386  -16.0688 C   0  0  0  0  0  0  0  0  0  0  0  0
   19.3511   -6.7452  -16.5489 C   0  0  0  0  0  0  0  0  0  0  0  0
   19.5728   -5.7851  -17.5366 C   0  0  0  0  0  0  0  0  0  0  0  0
   18.4398   -5.0764  -17.6830 N   0  0  0  0  0  0  0  0  0  0  0  0
   17.5389   -5.5739  -16.8181 C   0  0  0  0  0  0  0  0  0  0  0  0
   18.0908   -6.5789  -16.1365 N   0  0  0  0  0  0  0  0  0  0  0  0
   22.1973   -6.1574  -16.3350 C   0  0  0  0  0  0  0  0  0  0  0  0
   21.9482   -5.0468  -17.1351 O   0  0  0  0  0  0  0  0  0  0  0  0
   22.8769   -5.9826  -15.3070 O   0  0  0  0  0  0  0  0  0  0  0  0
  2  3  1  0
  2  1  1  1
  4  3  1  0
  5  4  1  0
  6  7  1  0
  6  5  1  0
  8  2  1  0
  8  9  2  0
 10  8  1  0
 11 10  1  0
 11 12  1  6
 12 13  1  0
 14 11  1  0
 15 14  2  0
 16 14  1  0
 17 24  1  0
 17 16  1  0
 17 18  1  1
 19 23  1  0
 19 18  1  0
 20 19  2  0
 21 20  1  0
 21 22  1  0
 22 23  2  0
 24 25  1  0
 26 24  2  0
M  END
$$$$
