KCH.pdb
     RDKit          3D

 26 26  0  0  1  0  0  0  0  0999 V2000
   24.4401   -9.6122  -19.9484 N   0  0  0  0  0  0  0  0  0  0  0  0
   24.2902   -8.4265  -19.1233 C   0  0  1  0  0  0  0  0  0  0  0  0
   23.9346   -7.2561  -19.9457 C   0  0  0  0  0  0  0  0  0  0  0  0
   24.5797   -7.0325  -21.2482 C   0  0  0  0  0  0  0  0  0  0  0  0
   24.0926   -7.5947  -22.4982 C   0  0  0  0  0  0  0  0  0  0  0  0
   24.7319   -7.2168  -23.7779 C   0  0  0  0  0  0  0  0  0  0  0  0
   24.1019   -7.9517  -24.8987 N   0  0  0  0  0  0  0  0  0  0  0  0
   23.1704   -8.6976  -18.1143 C   0  0  0  0  0  0  0  0  0  0  0  0
   22.0014   -8.9398  -18.4870 O   0  0  0  0  0  0  0  0  0  0  0  0
   23.4352   -8.6797  -16.7424 N   0  0  0  0  0  0  0  0  0  0  0  0
   22.4426   -8.9505  -15.7456 C   0  0  1  0  0  0  0  0  0  0  0  0
   22.9905   -9.4741  -14.4552 C   0  0  0  0  0  0  0  0  0  0  0  0
   21.7068   -9.5855  -13.1775 S   0  0  0  0  0  0  0  0  0  0  0  0
   21.6882   -7.7144  -15.4625 C   0  0  0  0  0  0  0  0  0  0  0  0
   22.2448   -6.6480  -15.0662 O   0  0  0  0  0  0  0  0  0  0  0  0
   20.2816   -7.6729  -15.6270 N   0  0  0  0  0  0  0  0  0  0  0  0
   19.5041   -6.4902  -15.2905 C   0  0  1  0  0  0  0  0  0  0  0  0
   19.1231   -5.8324  -16.5911 C   0  0  0  0  0  0  0  0  0  0  0  0
   18.3820   -4.5781  -16.3706 C   0  0  0  0  0  0  0  0  0  0  0  0
   18.3399   -3.8457  -15.1839 C   0  0  0  0  0  0  0  0  0  0  0  0
   17.5588   -2.7713  -15.3912 N   0  0  0  0  0  0  0  0  0  0  0  0
   17.1261   -2.8272  -16.6627 C   0  0  0  0  0  0  0  0  0  0  0  0
   17.6236   -3.9165  -17.2500 N   0  0  0  0  0  0  0  0  0  0  0  0
   18.3149   -6.8431  -14.4953 C   0  0  0  0  0  0  0  0  0  0  0  0
   17.7881   -6.0108  -13.5127 O   0  0  0  0  0  0  0  0  0  0  0  0
   17.7406   -7.9292  -14.6950 O   0  0  0  0  0  0  0  0  0  0  0  0
  2  3  1  0
  2  1  1  6
  4  3  1  0
  5  4  1  0
  6  7  1  0
  6  5  1  0
  8  2  1  0
  8  9  2  0
 10  8  1  0
 11 10  1  0
 11 12  1  1
 12 13  1  0
 14 11  1  0
 15 14  2  0
 16 14  1  0
 17 24  1  0
 17 16  1  0
 17 18  1  6
 19 23  1  0
 19 18  1  0
 20 19  2  0
 21 20  1  0
 21 22  1  0
 22 23  2  0
 24 25  1  0
 26 24  2  0
M  END
$$$$
