KCH.pdb
     RDKit          3D

 26 26  0  0  1  0  0  0  0  0999 V2000
   20.6526  -17.0455  -17.7927 N   0  0  0  0  0  0  0  0  0  0  0  0
   20.2838  -16.9593  -16.3906 C   0  0  1  0  0  0  0  0  0  0  0  0
   20.4506  -18.2628  -15.7228 C   0  0  0  0  0  0  0  0  0  0  0  0
   21.0721  -19.3923  -16.4303 C   0  0  0  0  0  0  0  0  0  0  0  0
   21.2111  -20.7239  -15.8616 C   0  0  0  0  0  0  0  0  0  0  0  0
   21.7870  -21.8185  -16.6738 C   0  0  0  0  0  0  0  0  0  0  0  0
   21.8613  -23.0621  -15.8731 N   0  0  0  0  0  0  0  0  0  0  0  0
   21.2020  -15.9280  -15.7283 C   0  0  0  0  0  0  0  0  0  0  0  0
   21.0928  -15.6411  -14.5158 O   0  0  0  0  0  0  0  0  0  0  0  0
   22.1907  -15.2799  -16.4732 N   0  0  0  0  0  0  0  0  0  0  0  0
   23.0765  -14.2989  -15.9206 C   0  0  1  0  0  0  0  0  0  0  0  0
   24.4783  -14.3710  -16.4393 C   0  0  0  0  0  0  0  0  0  0  0  0
   25.6912  -13.9597  -15.1537 S   0  0  0  0  0  0  0  0  0  0  0  0
   22.5456  -12.9512  -16.2023 C   0  0  0  0  0  0  0  0  0  0  0  0
   21.9400  -12.6646  -17.2770 O   0  0  0  0  0  0  0  0  0  0  0  0
   22.6968  -11.9038  -15.2603 N   0  0  0  0  0  0  0  0  0  0  0  0
   22.1652  -10.5714  -15.5021 C   0  0  1  0  0  0  0  0  0  0  0  0
   21.9928   -9.9182  -14.1556 C   0  0  0  0  0  0  0  0  0  0  0  0
   21.5338   -8.5236  -14.2814 C   0  0  0  0  0  0  0  0  0  0  0  0
   22.2370   -7.4773  -14.8792 C   0  0  0  0  0  0  0  0  0  0  0  0
   21.4802   -6.3697  -14.7906 N   0  0  0  0  0  0  0  0  0  0  0  0
   20.3425   -6.7086  -14.1599 C   0  0  0  0  0  0  0  0  0  0  0  0
   20.3778   -8.0065  -13.8545 N   0  0  0  0  0  0  0  0  0  0  0  0
   23.0626   -9.7894  -16.3706 C   0  0  0  0  0  0  0  0  0  0  0  0
   22.6031   -8.8143  -17.2502 O   0  0  0  0  0  0  0  0  0  0  0  0
   24.2898   -9.9941  -16.3316 O   0  0  0  0  0  0  0  0  0  0  0  0
  2  3  1  0
  2  1  1  6
  4  3  1  0
  5  4  1  0
  6  7  1  0
  6  5  1  0
  8  2  1  0
  8  9  2  0
 10  8  1  0
 11 10  1  0
 11 12  1  6
 12 13  1  0
 14 11  1  0
 15 14  2  0
 16 14  1  0
 17 24  1  0
 17 16  1  0
 17 18  1  1
 19 23  1  0
 19 18  1  0
 20 19  2  0
 21 20  1  0
 21 22  1  0
 22 23  2  0
 24 25  1  0
 26 24  2  0
M  END
$$$$
