KCH.pdb
     RDKit          3D

 26 26  0  0  1  0  0  0  0  0999 V2000
   29.1376  -19.0536  -16.4988 N   0  0  0  0  0  0  0  0  0  0  0  0
   27.8738  -18.6636  -17.0987 C   0  0  1  0  0  0  0  0  0  0  0  0
   27.1603  -19.8387  -17.6304 C   0  0  0  0  0  0  0  0  0  0  0  0
   27.0084  -21.0539  -16.8163 C   0  0  0  0  0  0  0  0  0  0  0  0
   26.3171  -22.2501  -17.2714 C   0  0  0  0  0  0  0  0  0  0  0  0
   26.1794  -23.4137  -16.3677 C   0  0  0  0  0  0  0  0  0  0  0  0
   24.8269  -23.4330  -15.7647 N   0  0  0  0  0  0  0  0  0  0  0  0
   27.0236  -18.0027  -16.0098 C   0  0  0  0  0  0  0  0  0  0  0  0
   27.0478  -18.4091  -14.8272 O   0  0  0  0  0  0  0  0  0  0  0  0
   26.1951  -16.9209  -16.3189 N   0  0  0  0  0  0  0  0  0  0  0  0
   25.3847  -16.2475  -15.3482 C   0  0  1  0  0  0  0  0  0  0  0  0
   25.5001  -14.7557  -15.3758 C   0  0  0  0  0  0  0  0  0  0  0  0
   25.2399  -14.0936  -17.0452 S   0  0  0  0  0  0  0  0  0  0  0  0
   23.9699  -16.6081  -15.5619 C   0  0  0  0  0  0  0  0  0  0  0  0
   23.4963  -16.8739  -16.7061 O   0  0  0  0  0  0  0  0  0  0  0  0
   23.0681  -16.6720  -14.4712 N   0  0  0  0  0  0  0  0  0  0  0  0
   21.6459  -16.9101  -14.6641 C   0  0  1  0  0  0  0  0  0  0  0  0
   21.0773  -17.2775  -13.3183 C   0  0  0  0  0  0  0  0  0  0  0  0
   19.6326  -17.5571  -13.3952 C   0  0  0  0  0  0  0  0  0  0  0  0
   18.8442  -17.5000  -14.5449 C   0  0  0  0  0  0  0  0  0  0  0  0
   17.5860  -17.8219  -14.1970 N   0  0  0  0  0  0  0  0  0  0  0  0
   17.5848  -18.0721  -12.8763 C   0  0  0  0  0  0  0  0  0  0  0  0
   18.8188  -17.9118  -12.3963 N   0  0  0  0  0  0  0  0  0  0  0  0
   20.9785  -15.7228  -15.2263 C   0  0  0  0  0  0  0  0  0  0  0  0
   19.8321  -15.8002  -16.0106 O   0  0  0  0  0  0  0  0  0  0  0  0
   21.4444  -14.5905  -15.0019 O   0  0  0  0  0  0  0  0  0  0  0  0
  2  3  1  0
  2  1  1  1
  4  3  1  0
  5  4  1  0
  6  7  1  0
  6  5  1  0
  8  2  1  0
  8  9  2  0
 10  8  1  0
 11 10  1  0
 11 12  1  6
 12 13  1  0
 14 11  1  0
 15 14  2  0
 16 14  1  0
 17 24  1  0
 17 16  1  0
 17 18  1  1
 19 23  1  0
 19 18  1  0
 20 19  2  0
 21 20  1  0
 21 22  1  0
 22 23  2  0
 24 25  1  0
 26 24  2  0
M  END
$$$$
