KCH.pdb
     RDKit          3D

 26 26  0  0  1  0  0  0  0  0999 V2000
   18.1523  -24.2173  -11.9787 N   0  0  0  0  0  0  0  0  0  0  0  0
   17.1837  -23.2729  -11.4507 C   0  0  1  0  0  0  0  0  0  0  0  0
   17.0045  -23.4605   -9.9997 C   0  0  0  0  0  0  0  0  0  0  0  0
   17.4166  -24.7140   -9.3504 C   0  0  0  0  0  0  0  0  0  0  0  0
   18.0888  -24.7734   -8.0618 C   0  0  0  0  0  0  0  0  0  0  0  0
   17.5117  -25.5791   -6.9630 C   0  0  0  0  0  0  0  0  0  0  0  0
   18.5905  -26.1002   -6.0926 N   0  0  0  0  0  0  0  0  0  0  0  0
   17.7131  -21.8611  -11.7189 C   0  0  0  0  0  0  0  0  0  0  0  0
   17.3584  -20.8876  -11.0185 O   0  0  0  0  0  0  0  0  0  0  0  0
   18.6127  -21.6299  -12.7628 N   0  0  0  0  0  0  0  0  0  0  0  0
   19.1499  -20.3371  -13.0671 C   0  0  1  0  0  0  0  0  0  0  0  0
   20.5730  -20.1452  -12.6458 C   0  0  0  0  0  0  0  0  0  0  0  0
   21.4803  -21.7165  -12.6125 S   0  0  0  0  0  0  0  0  0  0  0  0
   19.0604  -20.1037  -14.5214 C   0  0  0  0  0  0  0  0  0  0  0  0
   19.1689  -21.0353  -15.3724 O   0  0  0  0  0  0  0  0  0  0  0  0
   18.8449  -18.7997  -15.0317 N   0  0  0  0  0  0  0  0  0  0  0  0
   18.6024  -18.5594  -16.4459 C   0  0  1  0  0  0  0  0  0  0  0  0
   17.9663  -17.1982  -16.5556 C   0  0  0  0  0  0  0  0  0  0  0  0
   16.5730  -17.2078  -16.0763 C   0  0  0  0  0  0  0  0  0  0  0  0
   15.8039  -18.3403  -15.8071 C   0  0  0  0  0  0  0  0  0  0  0  0
   14.5938  -17.9264  -15.3925 N   0  0  0  0  0  0  0  0  0  0  0  0
   14.6030  -16.5823  -15.4011 C   0  0  0  0  0  0  0  0  0  0  0  0
   15.7964  -16.1524  -15.8134 N   0  0  0  0  0  0  0  0  0  0  0  0
   19.8531  -18.6350  -17.2212 C   0  0  0  0  0  0  0  0  0  0  0  0
   19.8817  -18.9037  -18.5859 O   0  0  0  0  0  0  0  0  0  0  0  0
   20.9438  -18.4535  -16.6496 O   0  0  0  0  0  0  0  0  0  0  0  0
  2  3  1  0
  2  1  1  1
  4  3  1  0
  5  4  1  0
  6  7  1  0
  6  5  1  0
  8  2  1  0
  8  9  2  0
 10  8  1  0
 11 10  1  0
 11 12  1  6
 12 13  1  0
 14 11  1  0
 15 14  2  0
 16 14  1  0
 17 24  1  0
 17 16  1  0
 17 18  1  1
 19 23  1  0
 19 18  1  0
 20 19  2  0
 21 20  1  0
 21 22  1  0
 22 23  2  0
 24 25  1  0
 26 24  2  0
M  END
$$$$
