KCH.pdb
     RDKit          3D

 26 26  0  0  1  0  0  0  0  0999 V2000
   21.3883  -13.9311  -19.0325 N   0  0  0  0  0  0  0  0  0  0  0  0
   20.2921  -13.5994  -18.1395 C   0  0  1  0  0  0  0  0  0  0  0  0
   19.8233  -14.7956  -17.4169 C   0  0  0  0  0  0  0  0  0  0  0  0
   20.0616  -16.1406  -17.9617 C   0  0  0  0  0  0  0  0  0  0  0  0
   19.6564  -17.3668  -17.2924 C   0  0  0  0  0  0  0  0  0  0  0  0
   19.9134  -18.6771  -17.9301 C   0  0  0  0  0  0  0  0  0  0  0  0
   19.4722  -19.7733  -17.0374 N   0  0  0  0  0  0  0  0  0  0  0  0
   20.8057  -12.5663  -17.1325 C   0  0  0  0  0  0  0  0  0  0  0  0
   20.0685  -12.1136  -16.2293 O   0  0  0  0  0  0  0  0  0  0  0  0
   22.1224  -12.1037  -17.2033 N   0  0  0  0  0  0  0  0  0  0  0  0
   22.6552  -11.1077  -16.3222 C   0  0  1  0  0  0  0  0  0  0  0  0
   24.1499  -11.0805  -16.2532 C   0  0  0  0  0  0  0  0  0  0  0  0
   24.7460   -9.7873  -15.1285 S   0  0  0  0  0  0  0  0  0  0  0  0
   22.1857   -9.7767  -16.7527 C   0  0  0  0  0  0  0  0  0  0  0  0
   22.3083   -9.3590  -17.9420 O   0  0  0  0  0  0  0  0  0  0  0  0
   21.5664   -8.8964  -15.8314 N   0  0  0  0  0  0  0  0  0  0  0  0
   21.1896   -7.5404  -16.2001 C   0  0  1  0  0  0  0  0  0  0  0  0
   19.7879   -7.6095  -16.7479 C   0  0  0  0  0  0  0  0  0  0  0  0
   19.2836   -6.2769  -17.1234 C   0  0  0  0  0  0  0  0  0  0  0  0
   19.7734   -5.4725  -18.1528 C   0  0  0  0  0  0  0  0  0  0  0  0
   19.0476   -4.3409  -18.1711 N   0  0  0  0  0  0  0  0  0  0  0  0
   18.1349   -4.4318  -17.1884 C   0  0  0  0  0  0  0  0  0  0  0  0
   18.2796   -5.5989  -16.5592 N   0  0  0  0  0  0  0  0  0  0  0  0
   21.2731   -6.6313  -15.0436 C   0  0  0  0  0  0  0  0  0  0  0  0
   21.4486   -5.2573  -15.1730 O   0  0  0  0  0  0  0  0  0  0  0  0
   21.1852   -7.0920  -13.8906 O   0  0  0  0  0  0  0  0  0  0  0  0
  2  3  1  0
  2  1  1  6
  4  3  1  0
  5  4  1  0
  6  7  1  0
  6  5  1  0
  8  2  1  0
  8  9  2  0
 10  8  1  0
 11 10  1  0
 11 12  1  6
 12 13  1  0
 14 11  1  0
 15 14  2  0
 16 14  1  0
 17 24  1  0
 17 16  1  0
 17 18  1  1
 19 23  1  0
 19 18  1  0
 20 19  2  0
 21 20  1  0
 21 22  1  0
 22 23  2  0
 24 25  1  0
 26 24  2  0
M  END
$$$$
