KCH.pdb
     RDKit          3D

 26 26  0  0  1  0  0  0  0  0999 V2000
   28.6592  -21.0608  -18.0054 N   0  0  0  0  0  0  0  0  0  0  0  0
   28.0615  -22.2238  -17.3736 C   0  0  1  0  0  0  0  0  0  0  0  0
   29.1002  -23.1261  -16.8449 C   0  0  0  0  0  0  0  0  0  0  0  0
   29.1786  -24.5234  -17.2965 C   0  0  0  0  0  0  0  0  0  0  0  0
   28.8913  -25.6657  -16.4429 C   0  0  0  0  0  0  0  0  0  0  0  0
   29.1181  -27.0392  -16.9443 C   0  0  0  0  0  0  0  0  0  0  0  0
   28.8603  -28.0234  -15.8682 N   0  0  0  0  0  0  0  0  0  0  0  0
   27.1829  -21.7296  -16.2206 C   0  0  0  0  0  0  0  0  0  0  0  0
   26.5182  -22.5245  -15.5203 O   0  0  0  0  0  0  0  0  0  0  0  0
   27.1055  -20.3661  -15.9249 N   0  0  0  0  0  0  0  0  0  0  0  0
   26.2462  -19.8278  -14.9129 C   0  0  1  0  0  0  0  0  0  0  0  0
   26.8394  -18.6923  -14.1394 C   0  0  0  0  0  0  0  0  0  0  0  0
   27.1144  -17.2374  -15.1885 S   0  0  0  0  0  0  0  0  0  0  0  0
   24.9935  -19.3603  -15.5372 C   0  0  0  0  0  0  0  0  0  0  0  0
   24.9478  -18.3642  -16.3180 O   0  0  0  0  0  0  0  0  0  0  0  0
   23.7677  -20.0229  -15.2811 N   0  0  0  0  0  0  0  0  0  0  0  0
   22.4992  -19.5068  -15.7720 C   0  0  1  0  0  0  0  0  0  0  0  0
   21.7581  -20.6706  -16.3769 C   0  0  0  0  0  0  0  0  0  0  0  0
   20.4478  -20.2625  -16.9133 C   0  0  0  0  0  0  0  0  0  0  0  0
   20.2168  -19.2285  -17.8210 C   0  0  0  0  0  0  0  0  0  0  0  0
   18.8944  -19.1769  -18.0578 N   0  0  0  0  0  0  0  0  0  0  0  0
   18.3160  -20.1440  -17.3249 C   0  0  0  0  0  0  0  0  0  0  0  0
   19.2541  -20.7960  -16.6367 N   0  0  0  0  0  0  0  0  0  0  0  0
   21.7245  -18.8782  -14.6876 C   0  0  0  0  0  0  0  0  0  0  0  0
   21.9707  -19.1258  -13.3408 O   0  0  0  0  0  0  0  0  0  0  0  0
   20.8045  -18.0875  -14.9663 O   0  0  0  0  0  0  0  0  0  0  0  0
  2  3  1  0
  2  1  1  1
  4  3  1  0
  5  4  1  0
  6  7  1  0
  6  5  1  0
  8  2  1  0
  8  9  2  0
 10  8  1  0
 11 10  1  0
 11 12  1  6
 12 13  1  0
 14 11  1  0
 15 14  2  0
 16 14  1  0
 17 24  1  0
 17 16  1  0
 17 18  1  1
 19 23  1  0
 19 18  1  0
 20 19  2  0
 21 20  1  0
 21 22  1  0
 22 23  2  0
 24 25  1  0
 26 24  2  0
M  END
$$$$
