KCH.pdb
     RDKit          3D

 26 26  0  0  1  0  0  0  0  0999 V2000
   16.1252  -13.9251  -13.1235 N   0  0  0  0  0  0  0  0  0  0  0  0
   15.4729  -12.6288  -13.1807 C   0  0  1  0  0  0  0  0  0  0  0  0
   14.1379  -12.6849  -12.5583 C   0  0  0  0  0  0  0  0  0  0  0  0
   13.1501  -13.6834  -12.9941 C   0  0  0  0  0  0  0  0  0  0  0  0
   11.7649  -13.6965  -12.5505 C   0  0  0  0  0  0  0  0  0  0  0  0
   10.8446  -14.7511  -13.0303 C   0  0  0  0  0  0  0  0  0  0  0  0
   10.2476  -14.3551  -14.3265 N   0  0  0  0  0  0  0  0  0  0  0  0
   16.3482  -11.6309  -12.4168 C   0  0  0  0  0  0  0  0  0  0  0  0
   16.9909  -11.9725  -11.3997 O   0  0  0  0  0  0  0  0  0  0  0  0
   16.4473  -10.3047  -12.8454 N   0  0  0  0  0  0  0  0  0  0  0  0
   17.3269   -9.3469  -12.2442 C   0  0  1  0  0  0  0  0  0  0  0  0
   18.3941   -8.8305  -13.1575 C   0  0  0  0  0  0  0  0  0  0  0  0
   19.4459   -7.6028  -12.3332 S   0  0  0  0  0  0  0  0  0  0  0  0
   16.5366   -8.1997  -11.7576 C   0  0  0  0  0  0  0  0  0  0  0  0
   15.7374   -7.5550  -12.4990 O   0  0  0  0  0  0  0  0  0  0  0  0
   16.6445   -7.7666  -10.4130 N   0  0  0  0  0  0  0  0  0  0  0  0
   15.9445   -6.5870   -9.9281 C   0  0  1  0  0  0  0  0  0  0  0  0
   15.6246   -6.8339   -8.4769 C   0  0  0  0  0  0  0  0  0  0  0  0
   14.3757   -7.5994   -8.3170 C   0  0  0  0  0  0  0  0  0  0  0  0
   13.5081   -7.9804   -9.3410 C   0  0  0  0  0  0  0  0  0  0  0  0
   12.4902   -8.6608   -8.7855 N   0  0  0  0  0  0  0  0  0  0  0  0
   12.7110   -8.7053   -7.4603 C   0  0  0  0  0  0  0  0  0  0  0  0
   13.8474   -8.0651   -7.1812 N   0  0  0  0  0  0  0  0  0  0  0  0
   16.7621   -5.3735  -10.1019 C   0  0  0  0  0  0  0  0  0  0  0  0
   16.2205   -4.0920  -10.1124 O   0  0  0  0  0  0  0  0  0  0  0  0
   17.9940   -5.4766  -10.2474 O   0  0  0  0  0  0  0  0  0  0  0  0
  2  3  1  0
  2  1  1  1
  4  3  1  0
  5  4  1  0
  6  7  1  0
  6  5  1  0
  8  2  1  0
  8  9  2  0
 10  8  1  0
 11 10  1  0
 11 12  1  6
 12 13  1  0
 14 11  1  0
 15 14  2  0
 16 14  1  0
 17 24  1  0
 17 16  1  0
 17 18  1  1
 19 23  1  0
 19 18  1  0
 20 19  2  0
 21 20  1  0
 21 22  1  0
 22 23  2  0
 24 25  1  0
 26 24  2  0
M  END
$$$$
