KCH.pdb
     RDKit          3D

 26 26  0  0  1  0  0  0  0  0999 V2000
   23.3566  -15.4388  -17.9340 N   0  0  0  0  0  0  0  0  0  0  0  0
   23.3151  -14.8084  -16.6263 C   0  0  1  0  0  0  0  0  0  0  0  0
   24.6721  -14.4598  -16.1682 C   0  0  0  0  0  0  0  0  0  0  0  0
   25.4949  -15.4434  -15.4484 C   0  0  0  0  0  0  0  0  0  0  0  0
   25.4142  -16.8792  -15.6674 C   0  0  0  0  0  0  0  0  0  0  0  0
   26.3060  -17.7927  -14.9195 C   0  0  0  0  0  0  0  0  0  0  0  0
   25.9937  -19.2001  -15.2583 N   0  0  0  0  0  0  0  0  0  0  0  0
   22.4769  -13.5325  -16.7489 C   0  0  0  0  0  0  0  0  0  0  0  0
   22.6106  -12.7552  -17.7194 O   0  0  0  0  0  0  0  0  0  0  0  0
   21.5359  -13.2079  -15.7682 N   0  0  0  0  0  0  0  0  0  0  0  0
   20.6442  -12.0914  -15.8719 C   0  0  1  0  0  0  0  0  0  0  0  0
   19.4656  -12.1552  -14.9519 C   0  0  0  0  0  0  0  0  0  0  0  0
   18.4821  -13.6556  -15.2248 S   0  0  0  0  0  0  0  0  0  0  0  0
   21.3872  -10.8482  -15.5896 C   0  0  0  0  0  0  0  0  0  0  0  0
   22.5454  -10.8441  -15.0771 O   0  0  0  0  0  0  0  0  0  0  0  0
   20.8206   -9.5844  -15.8879 N   0  0  0  0  0  0  0  0  0  0  0  0
   21.6281   -8.3757  -15.9464 C   0  0  1  0  0  0  0  0  0  0  0  0
   22.6383   -8.5773  -17.0456 C   0  0  0  0  0  0  0  0  0  0  0  0
   23.4962   -7.3922  -17.2211 C   0  0  0  0  0  0  0  0  0  0  0  0
   23.4785   -6.2406  -16.4337 C   0  0  0  0  0  0  0  0  0  0  0  0
   24.4076   -5.3976  -16.9173 N   0  0  0  0  0  0  0  0  0  0  0  0
   24.9876   -5.9986  -17.9706 C   0  0  0  0  0  0  0  0  0  0  0  0
   24.4365   -7.1998  -18.1510 N   0  0  0  0  0  0  0  0  0  0  0  0
   20.7919   -7.1879  -16.1928 C   0  0  0  0  0  0  0  0  0  0  0  0
   21.0193   -5.9619  -15.5756 O   0  0  0  0  0  0  0  0  0  0  0  0
   19.8342   -7.2624  -16.9844 O   0  0  0  0  0  0  0  0  0  0  0  0
  2  3  1  0
  2  1  1  6
  4  3  1  0
  5  4  1  0
  6  7  1  0
  6  5  1  0
  8  2  1  0
  8  9  2  0
 10  8  1  0
 11 10  1  0
 11 12  1  1
 12 13  1  0
 14 11  1  0
 15 14  2  0
 16 14  1  0
 17 24  1  0
 17 16  1  0
 17 18  1  6
 19 23  1  0
 19 18  1  0
 20 19  2  0
 21 20  1  0
 21 22  1  0
 22 23  2  0
 24 25  1  0
 26 24  2  0
M  END
$$$$
