KCH.pdb
     RDKit          3D

 26 26  0  0  1  0  0  0  0  0999 V2000
   16.8391  -16.1818  -16.9806 N   0  0  0  0  0  0  0  0  0  0  0  0
   17.1045  -15.1942  -15.9493 C   0  0  1  0  0  0  0  0  0  0  0  0
   18.1790  -15.6505  -15.0495 C   0  0  0  0  0  0  0  0  0  0  0  0
   18.9704  -16.8466  -15.3747 C   0  0  0  0  0  0  0  0  0  0  0  0
   20.1007  -17.3072  -14.5835 C   0  0  0  0  0  0  0  0  0  0  0  0
   20.7794  -18.5752  -14.9316 C   0  0  0  0  0  0  0  0  0  0  0  0
   21.7340  -18.9517  -13.8639 N   0  0  0  0  0  0  0  0  0  0  0  0
   17.5379  -13.8993  -16.6426 C   0  0  0  0  0  0  0  0  0  0  0  0
   18.3027  -13.9139  -17.6321 O   0  0  0  0  0  0  0  0  0  0  0  0
   17.0828  -12.6624  -16.1786 N   0  0  0  0  0  0  0  0  0  0  0  0
   17.3681  -11.4217  -16.8358 C   0  0  1  0  0  0  0  0  0  0  0  0
   16.1831  -10.7823  -17.4888 C   0  0  0  0  0  0  0  0  0  0  0  0
   14.7742  -10.6620  -16.3514 S   0  0  0  0  0  0  0  0  0  0  0  0
   17.9284  -10.4707  -15.8565 C   0  0  0  0  0  0  0  0  0  0  0  0
   17.6211  -10.4921  -14.6281 O   0  0  0  0  0  0  0  0  0  0  0  0
   18.8516   -9.4757  -16.2626 N   0  0  0  0  0  0  0  0  0  0  0  0
   19.3554   -8.4726  -15.3371 C   0  0  1  0  0  0  0  0  0  0  0  0
   20.5515   -7.8337  -15.9931 C   0  0  0  0  0  0  0  0  0  0  0  0
   21.1588   -6.8030  -15.1328 C   0  0  0  0  0  0  0  0  0  0  0  0
   21.9131   -7.0327  -13.9818 C   0  0  0  0  0  0  0  0  0  0  0  0
   22.2836   -5.8384  -13.4878 N   0  0  0  0  0  0  0  0  0  0  0  0
   21.7799   -4.8929  -14.2997 C   0  0  0  0  0  0  0  0  0  0  0  0
   21.1029   -5.4770  -15.2895 N   0  0  0  0  0  0  0  0  0  0  0  0
   18.3189   -7.4757  -15.0162 C   0  0  0  0  0  0  0  0  0  0  0  0
   18.2300   -6.8496  -13.7770 O   0  0  0  0  0  0  0  0  0  0  0  0
   17.4754   -7.1653  -15.8773 O   0  0  0  0  0  0  0  0  0  0  0  0
  2  3  1  0
  2  1  1  6
  4  3  1  0
  5  4  1  0
  6  7  1  0
  6  5  1  0
  8  2  1  0
  8  9  2  0
 10  8  1  0
 11 10  1  0
 11 12  1  1
 12 13  1  0
 14 11  1  0
 15 14  2  0
 16 14  1  0
 17 24  1  0
 17 16  1  0
 17 18  1  6
 19 23  1  0
 19 18  1  0
 20 19  2  0
 21 20  1  0
 21 22  1  0
 22 23  2  0
 24 25  1  0
 26 24  2  0
M  END
$$$$
