KCH.pdb
     RDKit          3D

 26 26  0  0  1  0  0  0  0  0999 V2000
   17.8200  -22.1046  -12.8338 N   0  0  0  0  0  0  0  0  0  0  0  0
   17.8475  -22.1608  -14.2847 C   0  0  1  0  0  0  0  0  0  0  0  0
   16.5336  -21.8031  -14.8490 C   0  0  0  0  0  0  0  0  0  0  0  0
   15.3080  -22.4554  -14.3642 C   0  0  0  0  0  0  0  0  0  0  0  0
   15.3002  -23.6871  -13.5903 C   0  0  0  0  0  0  0  0  0  0  0  0
   14.0187  -24.3617  -13.2869 C   0  0  0  0  0  0  0  0  0  0  0  0
   14.2675  -25.6140  -12.5366 N   0  0  0  0  0  0  0  0  0  0  0  0
   18.8991  -21.1595  -14.7714 C   0  0  0  0  0  0  0  0  0  0  0  0
   19.1512  -21.0184  -15.9883 O   0  0  0  0  0  0  0  0  0  0  0  0
   19.6055  -20.3751  -13.8560 N   0  0  0  0  0  0  0  0  0  0  0  0
   20.5518  -19.3720  -14.2443 C   0  0  1  0  0  0  0  0  0  0  0  0
   20.6123  -18.1919  -13.3260 C   0  0  0  0  0  0  0  0  0  0  0  0
   20.5589  -18.6949  -11.5832 S   0  0  0  0  0  0  0  0  0  0  0  0
   21.8969  -19.9745  -14.3157 C   0  0  0  0  0  0  0  0  0  0  0  0
   22.3992  -20.6430  -13.3645 O   0  0  0  0  0  0  0  0  0  0  0  0
   22.6948  -19.8246  -15.4768 N   0  0  0  0  0  0  0  0  0  0  0  0
   23.9354  -20.5630  -15.6561 C   0  0  1  0  0  0  0  0  0  0  0  0
   23.5963  -22.0254  -15.5301 C   0  0  0  0  0  0  0  0  0  0  0  0
   24.7455  -22.8823  -15.8707 C   0  0  0  0  0  0  0  0  0  0  0  0
   26.0255  -22.4441  -16.2118 C   0  0  0  0  0  0  0  0  0  0  0  0
   26.7818  -23.5297  -16.4503 N   0  0  0  0  0  0  0  0  0  0  0  0
   26.0045  -24.6107  -16.2655 C   0  0  0  0  0  0  0  0  0  0  0  0
   24.7787  -24.2176  -15.9165 N   0  0  0  0  0  0  0  0  0  0  0  0
   24.5507  -20.2618  -16.9606 C   0  0  0  0  0  0  0  0  0  0  0  0
   25.9170  -20.0556  -17.1226 O   0  0  0  0  0  0  0  0  0  0  0  0
   23.8348  -20.1838  -17.9758 O   0  0  0  0  0  0  0  0  0  0  0  0
  2  3  1  0
  2  1  1  1
  4  3  1  0
  5  4  1  0
  6  7  1  0
  6  5  1  0
  8  2  1  0
  8  9  2  0
 10  8  1  0
 11 10  1  0
 11 12  1  1
 12 13  1  0
 14 11  1  0
 15 14  2  0
 16 14  1  0
 17 24  1  0
 17 16  1  0
 17 18  1  6
 19 23  1  0
 19 18  1  0
 20 19  2  0
 21 20  1  0
 21 22  1  0
 22 23  2  0
 24 25  1  0
 26 24  2  0
M  END
$$$$
