KCH.pdb
     RDKit          3D

 26 26  0  0  1  0  0  0  0  0999 V2000
   28.0274  -21.2130  -16.0868 N   0  0  0  0  0  0  0  0  0  0  0  0
   27.7649  -20.2866  -14.9996 C   0  0  1  0  0  0  0  0  0  0  0  0
   27.3434  -18.9732  -15.5191 C   0  0  0  0  0  0  0  0  0  0  0  0
   28.2935  -18.1137  -16.2410 C   0  0  0  0  0  0  0  0  0  0  0  0
   29.0411  -18.5421  -17.4130 C   0  0  0  0  0  0  0  0  0  0  0  0
   29.9880  -17.6119  -18.0669 C   0  0  0  0  0  0  0  0  0  0  0  0
   30.7070  -18.3032  -19.1616 N   0  0  0  0  0  0  0  0  0  0  0  0
   26.6421  -20.8780  -14.1423 C   0  0  0  0  0  0  0  0  0  0  0  0
   25.7425  -21.5869  -14.6446 O   0  0  0  0  0  0  0  0  0  0  0  0
   26.5997  -20.6348  -12.7669 N   0  0  0  0  0  0  0  0  0  0  0  0
   25.5387  -21.0910  -11.9192 C   0  0  1  0  0  0  0  0  0  0  0  0
   25.8192  -20.9609  -10.4550 C   0  0  0  0  0  0  0  0  0  0  0  0
   27.4393  -21.6521  -10.0185 S   0  0  0  0  0  0  0  0  0  0  0  0
   24.3110  -20.3322  -12.2263 C   0  0  0  0  0  0  0  0  0  0  0  0
   24.3220  -19.0985  -12.5125 O   0  0  0  0  0  0  0  0  0  0  0  0
   23.0456  -20.9693  -12.2123 N   0  0  0  0  0  0  0  0  0  0  0  0
   21.8811  -20.3773  -12.8527 C   0  0  1  0  0  0  0  0  0  0  0  0
   22.1638  -20.3464  -14.3320 C   0  0  0  0  0  0  0  0  0  0  0  0
   21.0309  -19.7890  -15.0916 C   0  0  0  0  0  0  0  0  0  0  0  0
   19.8463  -19.2872  -14.5515 C   0  0  0  0  0  0  0  0  0  0  0  0
   19.0718  -18.8757  -15.5704 N   0  0  0  0  0  0  0  0  0  0  0  0
   19.7459  -19.1108  -16.7093 C   0  0  0  0  0  0  0  0  0  0  0  0
   20.9255  -19.6609  -16.4176 N   0  0  0  0  0  0  0  0  0  0  0  0
   20.6601  -21.1453  -12.5522 C   0  0  0  0  0  0  0  0  0  0  0  0
   19.4277  -20.5443  -12.3164 O   0  0  0  0  0  0  0  0  0  0  0  0
   20.7109  -22.3880  -12.5023 O   0  0  0  0  0  0  0  0  0  0  0  0
  2  3  1  0
  2  1  1  6
  4  3  1  0
  5  4  1  0
  6  7  1  0
  6  5  1  0
  8  2  1  0
  8  9  2  0
 10  8  1  0
 11 10  1  0
 11 12  1  1
 12 13  1  0
 14 11  1  0
 15 14  2  0
 16 14  1  0
 17 24  1  0
 17 16  1  0
 17 18  1  6
 19 23  1  0
 19 18  1  0
 20 19  2  0
 21 20  1  0
 21 22  1  0
 22 23  2  0
 24 25  1  0
 26 24  2  0
M  END
$$$$
