DPY.pdb
     RDKit          3D

 28 29  0  0  1  0  0  0  0  0999 V2000
   23.0245  -14.0620  -17.8688 N   0  0  0  0  0  0  0  0  0  0  0  0
   23.7443  -12.8656  -18.1457 C   0  0  1  0  0  0  0  0  0  0  0  0
   23.3333  -12.2812  -19.4926 C   0  0  0  0  0  0  0  0  0  0  0  0
   23.5249  -13.3389  -20.5143 C   0  0  0  0  0  0  0  0  0  0  0  0
   24.5613  -14.0199  -20.5257 O   0  0  0  0  0  0  0  0  0  0  0  0
   23.7502  -11.8507  -17.0867 C   0  0  0  0  0  0  0  0  0  0  0  0
   22.6527  -11.6752  -16.4405 O   0  0  0  0  0  0  0  0  0  0  0  0
   22.5624  -13.6042  -21.4863 O   0  0  0  0  0  0  0  0  0  0  0  0
   24.8602  -11.0444  -16.7120 N   0  0  0  0  0  0  0  0  0  0  0  0
   26.2224  -11.0151  -17.1489 C   0  0  0  0  0  0  0  0  0  0  0  0
   26.9874  -10.7669  -15.8396 C   0  0  0  0  0  0  0  0  0  0  0  0
   26.1494   -9.6518  -15.2591 C   0  0  0  0  0  0  0  0  0  0  0  0
   24.7702   -9.9971  -15.7023 C   0  0  1  0  0  0  0  0  0  0  0  0
   23.9953   -8.8299  -16.2072 C   0  0  0  0  0  0  0  0  0  0  0  0
   23.8032   -8.7039  -17.4434 O   0  0  0  0  0  0  0  0  0  0  0  0
   18.1390   -9.6028  -12.2676 O   0  0  0  0  0  0  0  0  0  0  0  0
   18.8949   -9.0190  -13.2577 C   0  0  0  0  0  0  0  0  0  0  0  0
   19.5010   -9.8128  -14.2155 C   0  0  0  0  0  0  0  0  0  0  0  0
   20.2577   -9.2335  -15.2075 C   0  0  0  0  0  0  0  0  0  0  0  0
   20.4524   -7.8512  -15.3026 C   0  0  0  0  0  0  0  0  0  0  0  0
   21.2958   -7.2809  -16.3711 C   0  0  0  0  0  0  0  0  0  0  0  0
   22.5827   -6.7579  -15.8446 C   0  0  2  0  0  0  0  0  0  0  0  0
   23.4495   -7.8317  -15.3648 N   0  0  0  0  0  0  0  0  0  0  0  0
   22.3692   -5.7311  -14.8365 C   0  0  0  0  0  0  0  0  0  0  0  0
   22.7491   -5.9271  -13.6310 O   0  0  0  0  0  0  0  0  0  0  0  0
   19.8330   -7.0869  -14.3296 C   0  0  0  0  0  0  0  0  0  0  0  0
   19.0763   -7.6611  -13.3370 C   0  0  0  0  0  0  0  0  0  0  0  0
   21.7722   -4.5128  -15.0694 O   0  0  0  0  0  0  0  0  0  0  0  0
  2  1  1  1
  2  6  1  0
  3  2  1  0
  3  4  1  0
  4  5  2  0
  6  9  1  0
  7  6  2  0
  8  4  1  0
  9 13  1  0
  9 10  1  0
 10 11  1  0
 11 12  1  0
 13 12  1  0
 13 14  1  6
 14 23  1  0
 15 14  2  0
 16 17  1  0
 17 27  2  0
 18 17  1  0
 18 19  2  0
 19 20  1  0
 20 26  2  0
 20 21  1  0
 22 21  1  1
 22 23  1  0
 22 24  1  0
 24 28  1  0
 25 24  2  0
 27 26  1  0
M  END
$$$$
