DPY.pdb
     RDKit          3D

 28 29  0  0  1  0  0  0  0  0999 V2000
   27.4327  -23.1271  -16.7411 N   0  0  0  0  0  0  0  0  0  0  0  0
   27.2027  -21.9984  -15.9050 C   0  0  1  0  0  0  0  0  0  0  0  0
   27.0385  -20.7296  -16.7343 C   0  0  0  0  0  0  0  0  0  0  0  0
   28.3111  -20.5052  -17.4620 C   0  0  0  0  0  0  0  0  0  0  0  0
   29.3986  -20.7050  -16.9004 O   0  0  0  0  0  0  0  0  0  0  0  0
   26.1420  -22.1383  -14.9014 C   0  0  0  0  0  0  0  0  0  0  0  0
   25.1548  -22.9063  -15.1989 O   0  0  0  0  0  0  0  0  0  0  0  0
   28.3335  -20.0678  -18.7847 O   0  0  0  0  0  0  0  0  0  0  0  0
   26.1084  -21.5006  -13.6307 N   0  0  0  0  0  0  0  0  0  0  0  0
   27.0460  -20.6643  -12.9459 C   0  0  0  0  0  0  0  0  0  0  0  0
   26.9279  -21.1506  -11.4932 C   0  0  0  0  0  0  0  0  0  0  0  0
   25.4238  -21.2024  -11.3603 C   0  0  0  0  0  0  0  0  0  0  0  0
   24.9766  -21.6151  -12.7195 C   0  0  1  0  0  0  0  0  0  0  0  0
   23.8037  -20.8469  -13.2213 C   0  0  0  0  0  0  0  0  0  0  0  0
   23.9724  -19.9692  -14.1056 O   0  0  0  0  0  0  0  0  0  0  0  0
   16.6129  -18.9271  -17.4283 O   0  0  0  0  0  0  0  0  0  0  0  0
   17.7451  -19.4140  -16.8170 C   0  0  0  0  0  0  0  0  0  0  0  0
   17.6596  -20.5324  -16.0067 C   0  0  0  0  0  0  0  0  0  0  0  0
   18.7890  -21.0229  -15.3934 C   0  0  0  0  0  0  0  0  0  0  0  0
   20.0504  -20.4376  -15.5486 C   0  0  0  0  0  0  0  0  0  0  0  0
   21.2272  -20.9868  -14.8472 C   0  0  0  0  0  0  0  0  0  0  0  0
   21.2995  -20.5256  -13.4369 C   0  0  2  0  0  0  0  0  0  0  0  0
   22.4820  -21.0469  -12.7552 N   0  0  0  0  0  0  0  0  0  0  0  0
   20.0723  -20.8225  -12.7145 C   0  0  0  0  0  0  0  0  0  0  0  0
   19.2309  -19.8909  -12.4695 O   0  0  0  0  0  0  0  0  0  0  0  0
   20.1008  -19.3215  -16.3650 C   0  0  0  0  0  0  0  0  0  0  0  0
   18.9754  -18.8282  -16.9795 C   0  0  0  0  0  0  0  0  0  0  0  0
   19.7146  -22.0685  -12.2513 O   0  0  0  0  0  0  0  0  0  0  0  0
  2  1  1  6
  2  6  1  0
  3  2  1  0
  3  4  1  0
  4  5  2  0
  6  9  1  0
  7  6  2  0
  8  4  1  0
  9 13  1  0
  9 10  1  0
 10 11  1  0
 11 12  1  0
 13 12  1  0
 13 14  1  6
 14 23  1  0
 15 14  2  0
 16 17  1  0
 17 27  2  0
 18 17  1  0
 18 19  2  0
 19 20  1  0
 20 26  2  0
 20 21  1  0
 22 21  1  6
 22 23  1  0
 22 24  1  0
 24 28  1  0
 25 24  2  0
 27 26  1  0
M  END
$$$$
