DPY.pdb
     RDKit          3D

 28 29  0  0  1  0  0  0  0  0999 V2000
   23.0184  -12.1836  -20.3464 N   0  0  0  0  0  0  0  0  0  0  0  0
   23.9918  -11.7502  -19.4025 C   0  0  1  0  0  0  0  0  0  0  0  0
   25.0857  -10.9344  -20.0826 C   0  0  0  0  0  0  0  0  0  0  0  0
   25.8288  -11.8489  -20.9831 C   0  0  0  0  0  0  0  0  0  0  0  0
   26.2313  -11.4523  -22.0870 O   0  0  0  0  0  0  0  0  0  0  0  0
   23.4798  -11.0851  -18.1996 C   0  0  0  0  0  0  0  0  0  0  0  0
   22.4433  -10.3380  -18.3423 O   0  0  0  0  0  0  0  0  0  0  0  0
   26.0993  -13.1691  -20.6289 O   0  0  0  0  0  0  0  0  0  0  0  0
   24.0274  -11.1927  -16.8915 N   0  0  0  0  0  0  0  0  0  0  0  0
   25.1466  -11.9162  -16.3706 C   0  0  0  0  0  0  0  0  0  0  0  0
   24.6215  -12.4121  -15.0145 C   0  0  0  0  0  0  0  0  0  0  0  0
   23.9884  -11.1394  -14.5023 C   0  0  0  0  0  0  0  0  0  0  0  0
   23.4640  -10.4988  -15.7402 C   0  0  1  0  0  0  0  0  0  0  0  0
   23.7286   -9.0351  -15.8134 C   0  0  0  0  0  0  0  0  0  0  0  0
   24.6468   -8.6098  -16.5597 O   0  0  0  0  0  0  0  0  0  0  0  0
   23.3052   -0.6320  -17.4176 O   0  0  0  0  0  0  0  0  0  0  0  0
   23.2268   -1.9950  -17.2486 C   0  0  0  0  0  0  0  0  0  0  0  0
   21.9877   -2.6052  -17.1646 C   0  0  0  0  0  0  0  0  0  0  0  0
   21.9044   -3.9679  -16.9956 C   0  0  0  0  0  0  0  0  0  0  0  0
   23.0326   -4.7902  -16.9017 C   0  0  0  0  0  0  0  0  0  0  0  0
   22.8896   -6.2444  -16.6938 C   0  0  0  0  0  0  0  0  0  0  0  0
   23.1327   -6.6307  -15.2801 C   0  0  2  0  0  0  0  0  0  0  0  0
   22.9956   -8.0715  -15.0797 N   0  0  0  0  0  0  0  0  0  0  0  0
   22.2976   -5.8663  -14.3666 C   0  0  0  0  0  0  0  0  0  0  0  0
   21.0794   -6.2055  -14.1751 O   0  0  0  0  0  0  0  0  0  0  0  0
   24.2553   -4.1484  -16.9894 C   0  0  0  0  0  0  0  0  0  0  0  0
   24.3433   -2.7879  -17.1582 C   0  0  0  0  0  0  0  0  0  0  0  0
   22.7152   -4.7641  -13.6553 O   0  0  0  0  0  0  0  0  0  0  0  0
  2  1  1  6
  2  6  1  0
  3  2  1  0
  3  4  1  0
  4  5  2  0
  6  9  1  0
  7  6  2  0
  8  4  1  0
  9 13  1  0
  9 10  1  0
 10 11  1  0
 11 12  1  0
 13 12  1  0
 13 14  1  6
 14 23  1  0
 15 14  2  0
 16 17  1  0
 17 27  2  0
 18 17  1  0
 18 19  2  0
 19 20  1  0
 20 26  2  0
 20 21  1  0
 22 21  1  6
 22 23  1  0
 22 24  1  0
 24 28  1  0
 25 24  2  0
 27 26  1  0
M  END
$$$$
