DPY.pdb
     RDKit          3D

 28 29  0  0  1  0  0  0  0  0999 V2000
   24.2889  -17.6818  -19.1776 N   0  0  0  0  0  0  0  0  0  0  0  0
   25.3375  -17.5905  -18.2194 C   0  0  1  0  0  0  0  0  0  0  0  0
   25.1709  -16.3529  -17.3447 C   0  0  0  0  0  0  0  0  0  0  0  0
   25.5051  -15.1713  -18.1764 C   0  0  0  0  0  0  0  0  0  0  0  0
   24.6419  -14.3175  -18.4291 O   0  0  0  0  0  0  0  0  0  0  0  0
   25.5959  -18.7943  -17.4221 C   0  0  0  0  0  0  0  0  0  0  0  0
   24.5727  -19.4073  -16.9422 O   0  0  0  0  0  0  0  0  0  0  0  0
   26.7825  -14.9779  -18.6980 O   0  0  0  0  0  0  0  0  0  0  0  0
   26.8758  -19.3428  -17.1328 N   0  0  0  0  0  0  0  0  0  0  0  0
   28.1993  -18.9596  -17.5190 C   0  0  0  0  0  0  0  0  0  0  0  0
   28.8787  -20.3145  -17.7709 C   0  0  0  0  0  0  0  0  0  0  0  0
   28.4252  -21.0631  -16.5393 C   0  0  0  0  0  0  0  0  0  0  0  0
   27.0586  -20.5232  -16.2976 C   0  0  1  0  0  0  0  0  0  0  0  0
   26.7820  -20.2163  -14.8668 C   0  0  0  0  0  0  0  0  0  0  0  0
   27.1494  -19.1126  -14.3894 O   0  0  0  0  0  0  0  0  0  0  0  0
   26.1650  -19.8066   -6.3091 O   0  0  0  0  0  0  0  0  0  0  0  0
   26.0439  -19.7964   -7.6794 C   0  0  0  0  0  0  0  0  0  0  0  0
   25.2067  -20.7064   -8.3004 C   0  0  0  0  0  0  0  0  0  0  0  0
   25.0824  -20.7000   -9.6704 C   0  0  0  0  0  0  0  0  0  0  0  0
   25.7739  -19.8009  -10.4897 C   0  0  0  0  0  0  0  0  0  0  0  0
   25.6263  -19.8525  -11.9574 C   0  0  0  0  0  0  0  0  0  0  0  0
   26.2581  -21.0654  -12.5376 C   0  0  2  0  0  0  0  0  0  0  0  0
   26.1173  -21.1082  -13.9913 N   0  0  0  0  0  0  0  0  0  0  0  0
   25.7687  -22.2786  -11.9014 C   0  0  0  0  0  0  0  0  0  0  0  0
   24.7169  -22.8557  -12.3446 O   0  0  0  0  0  0  0  0  0  0  0  0
   26.6021  -18.9050   -9.8371 C   0  0  0  0  0  0  0  0  0  0  0  0
   26.7293  -18.9077   -8.4692 C   0  0  0  0  0  0  0  0  0  0  0  0
   26.3595  -22.8926  -10.8202 O   0  0  0  0  0  0  0  0  0  0  0  0
  2  1  1  1
  2  6  1  0
  3  2  1  0
  3  4  1  0
  4  5  2  0
  6  9  1  0
  7  6  2  0
  8  4  1  0
  9 13  1  0
  9 10  1  0
 10 11  1  0
 11 12  1  0
 13 12  1  0
 13 14  1  1
 14 23  1  0
 15 14  2  0
 16 17  1  0
 17 27  2  0
 18 17  1  0
 18 19  2  0
 19 20  1  0
 20 26  2  0
 20 21  1  0
 22 21  1  1
 22 23  1  0
 22 24  1  0
 24 28  1  0
 25 24  2  0
 27 26  1  0
M  END
$$$$
