DPY.pdb
     RDKit          3D

 28 29  0  0  1  0  0  0  0  0999 V2000
   23.2953  -21.4960  -16.3618 N   0  0  0  0  0  0  0  0  0  0  0  0
   23.7172  -20.5791  -15.3581 C   0  0  1  0  0  0  0  0  0  0  0  0
   22.5573  -20.1989  -14.4444 C   0  0  0  0  0  0  0  0  0  0  0  0
   21.9605  -18.9505  -14.9780 C   0  0  0  0  0  0  0  0  0  0  0  0
   22.5520  -18.2944  -15.8485 O   0  0  0  0  0  0  0  0  0  0  0  0
   24.9142  -20.9534  -14.5974 C   0  0  0  0  0  0  0  0  0  0  0  0
   25.0306  -22.1895  -14.2636 O   0  0  0  0  0  0  0  0  0  0  0  0
   20.7307  -18.4739  -14.5288 O   0  0  0  0  0  0  0  0  0  0  0  0
   25.9557  -20.0718  -14.1965 N   0  0  0  0  0  0  0  0  0  0  0  0
   26.2030  -18.6875  -14.4608 C   0  0  0  0  0  0  0  0  0  0  0  0
   27.7266  -18.6521  -14.6559 C   0  0  0  0  0  0  0  0  0  0  0  0
   28.1573  -19.4875  -13.4730 C   0  0  0  0  0  0  0  0  0  0  0  0
   27.0666  -20.4942  -13.3528 C   0  0  1  0  0  0  0  0  0  0  0  0
   26.6187  -20.7252  -11.9515 C   0  0  0  0  0  0  0  0  0  0  0  0
   25.5121  -20.2639  -11.5725 O   0  0  0  0  0  0  0  0  0  0  0  0
   27.9661  -19.2664   -3.5132 O   0  0  0  0  0  0  0  0  0  0  0  0
   28.0762  -19.6867   -4.8185 C   0  0  0  0  0  0  0  0  0  0  0  0
   29.2541  -20.2673   -5.2546 C   0  0  0  0  0  0  0  0  0  0  0  0
   29.3689  -20.6892   -6.5589 C   0  0  0  0  0  0  0  0  0  0  0  0
   28.3335  -20.5597   -7.4911 C   0  0  0  0  0  0  0  0  0  0  0  0
   28.5162  -21.0042   -8.8866 C   0  0  0  0  0  0  0  0  0  0  0  0
   27.2197  -21.2864   -9.5547 C   0  0  2  0  0  0  0  0  0  0  0  0
   27.3767  -21.4471  -10.9985 N   0  0  0  0  0  0  0  0  0  0  0  0
   26.2171  -20.2877   -9.2180 C   0  0  0  0  0  0  0  0  0  0  0  0
   26.3393  -19.0875   -9.6430 O   0  0  0  0  0  0  0  0  0  0  0  0
   27.1701  -19.9752   -7.0225 C   0  0  0  0  0  0  0  0  0  0  0  0
   27.0510  -19.5524   -5.7208 C   0  0  0  0  0  0  0  0  0  0  0  0
   25.0976  -20.5245   -8.4526 O   0  0  0  0  0  0  0  0  0  0  0  0
  2  1  1  1
  2  6  1  0
  3  2  1  0
  3  4  1  0
  4  5  2  0
  6  9  1  0
  7  6  2  0
  8  4  1  0
  9 13  1  0
  9 10  1  0
 10 11  1  0
 11 12  1  0
 13 12  1  0
 13 14  1  1
 14 23  1  0
 15 14  2  0
 16 17  1  0
 17 27  2  0
 18 17  1  0
 18 19  2  0
 19 20  1  0
 20 26  2  0
 20 21  1  0
 22 21  1  6
 22 23  1  0
 22 24  1  0
 24 28  1  0
 25 24  2  0
 27 26  1  0
M  END
$$$$
