DPY.pdb
     RDKit          3D

 28 29  0  0  1  0  0  0  0  0999 V2000
   26.3733  -20.2270  -17.5259 N   0  0  0  0  0  0  0  0  0  0  0  0
   26.9025  -19.5158  -16.4122 C   0  0  1  0  0  0  0  0  0  0  0  0
   26.3303  -18.1042  -16.3445 C   0  0  0  0  0  0  0  0  0  0  0  0
   26.8761  -17.3466  -17.4967 C   0  0  0  0  0  0  0  0  0  0  0  0
   26.1298  -16.6471  -18.1979 O   0  0  0  0  0  0  0  0  0  0  0  0
   26.8357  -20.1970  -15.1148 C   0  0  0  0  0  0  0  0  0  0  0  0
   25.7412  -20.8100  -14.8332 O   0  0  0  0  0  0  0  0  0  0  0  0
   28.2281  -17.3907  -17.8306 O   0  0  0  0  0  0  0  0  0  0  0  0
   27.8722  -20.2393  -14.1420 N   0  0  0  0  0  0  0  0  0  0  0  0
   29.1900  -19.6825  -14.1116 C   0  0  0  0  0  0  0  0  0  0  0  0
   30.0098  -20.8015  -13.4509 C   0  0  0  0  0  0  0  0  0  0  0  0
   29.0947  -21.1457  -12.2990 C   0  0  0  0  0  0  0  0  0  0  0  0
   27.7355  -20.9421  -12.8725 C   0  0  1  0  0  0  0  0  0  0  0  0
   26.8033  -20.2244  -11.9593 C   0  0  0  0  0  0  0  0  0  0  0  0
   26.6340  -18.9862  -12.0978 O   0  0  0  0  0  0  0  0  0  0  0  0
   20.3724  -22.5641  -13.1174 O   0  0  0  0  0  0  0  0  0  0  0  0
   21.3210  -21.7866  -12.4944 C   0  0  0  0  0  0  0  0  0  0  0  0
   21.1932  -21.4972  -11.1473 C   0  0  0  0  0  0  0  0  0  0  0  0
   22.1392  -20.7202  -10.5200 C   0  0  0  0  0  0  0  0  0  0  0  0
   23.2509  -20.1937  -11.1870 C   0  0  0  0  0  0  0  0  0  0  0  0
   24.2239  -19.3431  -10.4742 C   0  0  0  0  0  0  0  0  0  0  0  0
   25.3374  -20.1373   -9.8944 C   0  0  2  0  0  0  0  0  0  0  0  0
   26.0802  -20.8621  -10.9228 N   0  0  0  0  0  0  0  0  0  0  0  0
   24.8707  -21.0143   -8.8318 C   0  0  0  0  0  0  0  0  0  0  0  0
   25.0666  -22.2759   -8.9088 O   0  0  0  0  0  0  0  0  0  0  0  0
   23.3484  -20.5019  -12.5324 C   0  0  0  0  0  0  0  0  0  0  0  0
   22.4059  -21.2776  -13.1630 C   0  0  0  0  0  0  0  0  0  0  0  0
   24.2107  -20.5945   -7.6990 O   0  0  0  0  0  0  0  0  0  0  0  0
  2  1  1  6
  2  6  1  0
  3  2  1  0
  3  4  1  0
  4  5  2  0
  6  9  1  0
  7  6  2  0
  8  4  1  0
  9 13  1  0
  9 10  1  0
 10 11  1  0
 11 12  1  0
 13 12  1  0
 13 14  1  1
 14 23  1  0
 15 14  2  0
 16 17  1  0
 17 27  2  0
 18 17  1  0
 18 19  2  0
 19 20  1  0
 20 26  2  0
 20 21  1  0
 22 21  1  6
 22 23  1  0
 22 24  1  0
 24 28  1  0
 25 24  2  0
 27 26  1  0
M  END
$$$$
