DPY.pdb
     RDKit          3D

 28 29  0  0  1  0  0  0  0  0999 V2000
   19.5519  -14.5502  -17.8580 N   0  0  0  0  0  0  0  0  0  0  0  0
   18.6393  -13.4882  -17.6026 C   0  0  1  0  0  0  0  0  0  0  0  0
   17.7600  -13.8026  -16.3974 C   0  0  0  0  0  0  0  0  0  0  0  0
   17.0955  -15.1026  -16.6577 C   0  0  0  0  0  0  0  0  0  0  0  0
   16.3366  -15.2360  -17.6294 O   0  0  0  0  0  0  0  0  0  0  0  0
   19.2147  -12.1412  -17.5247 C   0  0  0  0  0  0  0  0  0  0  0  0
   20.4536  -12.0542  -17.1921 O   0  0  0  0  0  0  0  0  0  0  0  0
   17.2953  -16.2077  -15.8328 O   0  0  0  0  0  0  0  0  0  0  0  0
   18.5251  -10.9246  -17.7836 N   0  0  0  0  0  0  0  0  0  0  0  0
   17.2013  -10.6466  -18.2502 C   0  0  0  0  0  0  0  0  0  0  0  0
   17.4240   -9.4557  -19.1953 C   0  0  0  0  0  0  0  0  0  0  0  0
   18.3272   -8.6067  -18.3315 C   0  0  0  0  0  0  0  0  0  0  0  0
   19.1348   -9.6149  -17.5907 C   0  0  1  0  0  0  0  0  0  0  0  0
   19.2946   -9.3052  -16.1428 C   0  0  0  0  0  0  0  0  0  0  0  0
   18.5397   -9.8614  -15.3051 O   0  0  0  0  0  0  0  0  0  0  0  0
   24.6647   -4.0957  -16.7724 O   0  0  0  0  0  0  0  0  0  0  0  0
   23.9753   -5.0311  -16.0361 C   0  0  0  0  0  0  0  0  0  0  0  0
   24.0131   -6.3625  -16.4112 C   0  0  0  0  0  0  0  0  0  0  0  0
   23.3252   -7.3014  -15.6779 C   0  0  0  0  0  0  0  0  0  0  0  0
   22.5711   -6.9747  -14.5455 C   0  0  0  0  0  0  0  0  0  0  0  0
   21.8293   -8.0161  -13.8083 C   0  0  0  0  0  0  0  0  0  0  0  0
   20.4038   -8.0813  -14.2213 C   0  0  2  0  0  0  0  0  0  0  0  0
   20.2637   -8.4046  -15.6393 N   0  0  0  0  0  0  0  0  0  0  0  0
   19.6872   -6.8680  -13.8601 C   0  0  0  0  0  0  0  0  0  0  0  0
   19.2882   -6.0636  -14.7709 O   0  0  0  0  0  0  0  0  0  0  0  0
   22.5546   -5.6355  -14.1980 C   0  0  0  0  0  0  0  0  0  0  0  0
   23.2400   -4.6944  -14.9274 C   0  0  0  0  0  0  0  0  0  0  0  0
   19.3825   -6.4887  -12.5723 O   0  0  0  0  0  0  0  0  0  0  0  0
  2  1  1  1
  2  6  1  0
  3  2  1  0
  3  4  1  0
  4  5  2  0
  6  9  1  0
  7  6  2  0
  8  4  1  0
  9 13  1  0
  9 10  1  0
 10 11  1  0
 11 12  1  0
 13 12  1  0
 13 14  1  1
 14 23  1  0
 15 14  2  0
 16 17  1  0
 17 27  2  0
 18 17  1  0
 18 19  2  0
 19 20  1  0
 20 26  2  0
 20 21  1  0
 22 21  1  6
 22 23  1  0
 22 24  1  0
 24 28  1  0
 25 24  2  0
 27 26  1  0
M  END
$$$$
