DPY.pdb
     RDKit          3D

 28 29  0  0  1  0  0  0  0  0999 V2000
   16.5261  -11.0006  -14.2284 N   0  0  0  0  0  0  0  0  0  0  0  0
   16.8252  -10.0863  -15.2774 C   0  0  1  0  0  0  0  0  0  0  0  0
   15.7840   -8.9746  -15.3455 C   0  0  0  0  0  0  0  0  0  0  0  0
   14.4679   -9.6114  -15.5940 C   0  0  0  0  0  0  0  0  0  0  0  0
   13.5441   -9.4825  -14.7768 O   0  0  0  0  0  0  0  0  0  0  0  0
   18.1934   -9.5584  -15.3092 C   0  0  0  0  0  0  0  0  0  0  0  0
   18.7934   -9.4242  -14.1801 O   0  0  0  0  0  0  0  0  0  0  0  0
   14.2223  -10.3678  -16.7381 O   0  0  0  0  0  0  0  0  0  0  0  0
   18.9140   -9.1820  -16.4761 N   0  0  0  0  0  0  0  0  0  0  0  0
   18.5812   -9.2129  -17.8674 C   0  0  0  0  0  0  0  0  0  0  0  0
   19.9005   -9.6594  -18.5162 C   0  0  0  0  0  0  0  0  0  0  0  0
   20.8654   -8.7532  -17.7878 C   0  0  0  0  0  0  0  0  0  0  0  0
   20.2669   -8.6420  -16.4287 C   0  0  1  0  0  0  0  0  0  0  0  0
   20.2727   -7.2555  -15.8852 C   0  0  0  0  0  0  0  0  0  0  0  0
   19.2303   -6.5567  -15.9638 O   0  0  0  0  0  0  0  0  0  0  0  0
   18.0706   -7.7292   -9.8810 O   0  0  0  0  0  0  0  0  0  0  0  0
   18.9642   -7.1086  -10.7229 C   0  0  0  0  0  0  0  0  0  0  0  0
   20.0721   -7.8017  -11.1778 C   0  0  0  0  0  0  0  0  0  0  0  0
   20.9684   -7.1853  -12.0200 C   0  0  0  0  0  0  0  0  0  0  0  0
   20.8164   -5.8631  -12.4518 C   0  0  0  0  0  0  0  0  0  0  0  0
   21.8209   -5.2387  -13.3347 C   0  0  0  0  0  0  0  0  0  0  0  0
   21.4161   -5.2923  -14.7631 C   0  0  2  0  0  0  0  0  0  0  0  0
   21.4022   -6.6617  -15.2724 N   0  0  0  0  0  0  0  0  0  0  0  0
   22.2310   -4.4088  -15.5824 C   0  0  0  0  0  0  0  0  0  0  0  0
   22.9682   -4.8921  -16.5091 O   0  0  0  0  0  0  0  0  0  0  0  0
   19.6984   -5.1991  -11.9786 C   0  0  0  0  0  0  0  0  0  0  0  0
   18.8007   -5.8107  -11.1374 C   0  0  0  0  0  0  0  0  0  0  0  0
   22.2834   -3.0396  -15.4496 O   0  0  0  0  0  0  0  0  0  0  0  0
  2  1  1  1
  2  6  1  0
  3  2  1  0
  3  4  1  0
  4  5  2  0
  6  9  1  0
  7  6  2  0
  8  4  1  0
  9 13  1  0
  9 10  1  0
 10 11  1  0
 11 12  1  0
 13 12  1  0
 13 14  1  6
 14 23  1  0
 15 14  2  0
 16 17  1  0
 17 27  2  0
 18 17  1  0
 18 19  2  0
 19 20  1  0
 20 26  2  0
 20 21  1  0
 22 21  1  1
 22 23  1  0
 22 24  1  0
 24 28  1  0
 25 24  2  0
 27 26  1  0
M  END
$$$$
