DPY.pdb
     RDKit          3D

 28 29  0  0  1  0  0  0  0  0999 V2000
   19.5030  -12.6472  -17.9215 N   0  0  0  0  0  0  0  0  0  0  0  0
   20.5479  -11.6927  -18.0737 C   0  0  1  0  0  0  0  0  0  0  0  0
   20.3247  -10.8324  -19.3124 C   0  0  0  0  0  0  0  0  0  0  0  0
   20.3778  -11.7286  -20.4928 C   0  0  0  0  0  0  0  0  0  0  0  0
   21.4577  -12.2102  -20.8669 O   0  0  0  0  0  0  0  0  0  0  0  0
   20.8646  -10.8819  -16.8930 C   0  0  0  0  0  0  0  0  0  0  0  0
   19.8734  -10.3717  -16.2526 O   0  0  0  0  0  0  0  0  0  0  0  0
   19.2337  -12.0591  -21.2162 O   0  0  0  0  0  0  0  0  0  0  0  0
   22.1686  -10.6100  -16.3948 N   0  0  0  0  0  0  0  0  0  0  0  0
   23.4698  -11.0280  -16.8185 C   0  0  0  0  0  0  0  0  0  0  0  0
   24.1922  -11.2733  -15.4847 C   0  0  0  0  0  0  0  0  0  0  0  0
   23.7896  -10.0220  -14.7397 C   0  0  0  0  0  0  0  0  0  0  0  0
   22.4094   -9.7612  -15.2346 C   0  0  1  0  0  0  0  0  0  0  0  0
   22.1498   -8.3299  -15.5536 C   0  0  0  0  0  0  0  0  0  0  0  0
   22.3680   -7.9068  -16.7173 O   0  0  0  0  0  0  0  0  0  0  0  0
   17.0005   -8.0693  -18.9098 O   0  0  0  0  0  0  0  0  0  0  0  0
   17.7302   -7.4798  -17.9036 C   0  0  0  0  0  0  0  0  0  0  0  0
   18.3123   -6.2421  -18.1137 C   0  0  0  0  0  0  0  0  0  0  0  0
   19.0428   -5.6486  -17.1105 C   0  0  0  0  0  0  0  0  0  0  0  0
   19.2338   -6.2437  -15.8586 C   0  0  0  0  0  0  0  0  0  0  0  0
   20.0491   -5.5773  -14.8243 C   0  0  0  0  0  0  0  0  0  0  0  0
   21.4782   -5.9756  -14.9004 C   0  0  2  0  0  0  0  0  0  0  0  0
   21.6624   -7.3954  -14.6087 N   0  0  0  0  0  0  0  0  0  0  0  0
   22.3137   -5.1290  -14.0631 C   0  0  0  0  0  0  0  0  0  0  0  0
   22.9132   -5.6233  -13.0471 O   0  0  0  0  0  0  0  0  0  0  0  0
   18.6388   -7.4803  -15.6818 C   0  0  0  0  0  0  0  0  0  0  0  0
   17.9083   -8.0767  -16.6809 C   0  0  0  0  0  0  0  0  0  0  0  0
   22.5315   -3.7859  -14.2726 O   0  0  0  0  0  0  0  0  0  0  0  0
  2  1  1  1
  2  6  1  0
  3  2  1  0
  3  4  1  0
  4  5  2  0
  6  9  1  0
  7  6  2  0
  8  4  1  0
  9 13  1  0
  9 10  1  0
 10 11  1  0
 11 12  1  0
 13 12  1  0
 13 14  1  6
 14 23  1  0
 15 14  2  0
 16 17  1  0
 17 27  2  0
 18 17  1  0
 18 19  2  0
 19 20  1  0
 20 26  2  0
 20 21  1  0
 22 21  1  1
 22 23  1  0
 22 24  1  0
 24 28  1  0
 25 24  2  0
 27 26  1  0
M  END
$$$$
