PFK.pdb
     RDKit          3D

 28 29  0  0  1  0  0  0  0  0999 V2000
   14.2220  -17.3680    4.8164 N   0  0  0  0  0  0  0  0  0  0  0  0
   14.2419  -16.5389    3.6012 C   0  0  0  0  0  0  0  0  0  0  0  0
   13.6948  -17.5241    2.5924 C   0  0  0  0  0  0  0  0  0  0  0  0
   14.4922  -18.7679    2.9240 C   0  0  0  0  0  0  0  0  0  0  0  0
   14.7762  -18.6151    4.3959 C   0  0  1  0  0  0  0  0  0  0  0  0
   16.2288  -18.6287    4.6891 C   0  0  0  0  0  0  0  0  0  0  0  0
   16.9050  -19.6154    4.3290 O   0  0  0  0  0  0  0  0  0  0  0  0
   16.8905  -17.5736    5.3601 N   0  0  0  0  0  0  0  0  0  0  0  0
   18.3111  -17.5540    5.6649 C   0  0  1  0  0  0  0  0  0  0  0  0
   19.0022  -16.3786    5.0563 C   0  0  0  0  0  0  0  0  0  0  0  0
   18.8421  -16.3303    3.5865 C   0  0  0  0  0  0  0  0  0  0  0  0
   18.3928  -15.2323    2.8878 C   0  0  0  0  0  0  0  0  0  0  0  0
   18.2802  -15.2753    1.5256 C   0  0  0  0  0  0  0  0  0  0  0  0
   18.6137  -16.4170    0.8262 C   0  0  0  0  0  0  0  0  0  0  0  0
   19.0668  -17.5303    1.5093 C   0  0  0  0  0  0  0  0  0  0  0  0
   19.1753  -17.4745    2.8758 C   0  0  0  0  0  0  0  0  0  0  0  0
   18.5094  -17.6715    7.1405 C   0  0  0  0  0  0  0  0  0  0  0  0
   17.8445  -17.0002    7.9675 O   0  0  0  0  0  0  0  0  0  0  0  0
   19.4705  -18.5590    7.6671 N   0  0  0  0  0  0  0  0  0  0  0  0
   19.7112  -18.6155    9.1665 C   0  0  1  0  0  0  0  0  0  0  0  0
   19.2880  -19.9919    9.4867 C   0  0  0  0  0  0  0  0  0  0  0  0
   17.8933  -20.4084    9.4975 C   0  0  0  0  0  0  0  0  0  0  0  0
   17.5961  -21.8195    9.7870 C   0  0  0  0  0  0  0  0  0  0  0  0
   16.0541  -22.0562    9.7394 C   0  0  0  0  0  0  0  0  0  0  0  0
   15.8887  -23.4868    9.9209 N   0  0  0  0  0  0  0  0  0  0  0  0
   21.1691  -18.3219    9.2805 C   0  0  0  0  0  0  0  0  0  0  0  0
   21.9159  -18.5004    8.2497 O   0  0  0  0  0  0  0  0  0  0  0  0
   21.7912  -17.8620   10.4115 O   0  0  0  0  0  0  0  0  0  0  0  0
  1  5  1  0
  2  3  1  0
  2  1  1  0
  3  4  1  0
  4  5  1  0
  5  6  1  6
  6  7  2  0
  8  6  1  0
  8  9  1  0
  9 17  1  0
 10 11  1  0
  9 10  1  1
 11 12  2  0
 12 13  1  0
 14 13  2  0
 15 14  1  0
 16 11  1  0
 16 15  2  0
 17 18  2  0
 19 17  1  0
 19 20  1  0
 20 26  1  0
 20 21  1  6
 22 21  1  0
 23 22  1  0
 24 23  1  0
 24 25  1  0
 26 27  2  0
 26 28  1  0
M  END
$$$$
