PFK.pdb
     RDKit          3D

 28 29  0  0  1  0  0  0  0  0999 V2000
   31.1670  -20.7507   -9.7721 N   0  0  0  0  0  0  0  0  0  0  0  0
   31.7498  -20.8588   -8.4255 C   0  0  0  0  0  0  0  0  0  0  0  0
   32.3436  -22.2479   -8.4982 C   0  0  0  0  0  0  0  0  0  0  0  0
   31.2061  -23.0288   -9.1218 C   0  0  0  0  0  0  0  0  0  0  0  0
   30.4986  -21.9981   -9.9629 C   0  0  1  0  0  0  0  0  0  0  0  0
   29.0729  -21.8519   -9.5858 C   0  0  0  0  0  0  0  0  0  0  0  0
   28.3568  -22.8743   -9.5361 O   0  0  0  0  0  0  0  0  0  0  0  0
   28.4802  -20.6049   -9.2775 N   0  0  0  0  0  0  0  0  0  0  0  0
   27.0766  -20.4184   -8.9508 C   0  0  1  0  0  0  0  0  0  0  0  0
   26.8704  -19.3276   -7.9522 C   0  0  0  0  0  0  0  0  0  0  0  0
   27.5108  -19.6256   -6.6525 C   0  0  0  0  0  0  0  0  0  0  0  0
   27.1001  -20.6184   -5.7915 C   0  0  0  0  0  0  0  0  0  0  0  0
   27.7560  -20.8269   -4.6097 C   0  0  0  0  0  0  0  0  0  0  0  0
   28.8394  -20.0485   -4.2577 C   0  0  0  0  0  0  0  0  0  0  0  0
   29.2674  -19.0463   -5.1085 C   0  0  0  0  0  0  0  0  0  0  0  0
   28.6011  -18.8471   -6.2911 C   0  0  0  0  0  0  0  0  0  0  0  0
   26.2881  -20.2419  -10.2069 C   0  0  0  0  0  0  0  0  0  0  0  0
   26.6018  -19.4063  -11.0901 O   0  0  0  0  0  0  0  0  0  0  0  0
   25.1401  -21.0240  -10.4495 N   0  0  0  0  0  0  0  0  0  0  0  0
   24.3042  -20.7800  -11.6948 C   0  0  1  0  0  0  0  0  0  0  0  0
   24.5223  -22.0272  -12.4519 C   0  0  0  0  0  0  0  0  0  0  0  0
   24.3450  -22.1185  -13.8937 C   0  0  0  0  0  0  0  0  0  0  0  0
   22.9801  -22.2977  -14.4117 C   0  0  0  0  0  0  0  0  0  0  0  0
   23.0149  -22.4081  -15.9683 C   0  0  0  0  0  0  0  0  0  0  0  0
   21.6222  -22.4854  -16.3698 N   0  0  0  0  0  0  0  0  0  0  0  0
   22.9360  -20.5665  -11.1404 C   0  0  0  0  0  0  0  0  0  0  0  0
   22.6751  -21.0017   -9.9594 O   0  0  0  0  0  0  0  0  0  0  0  0
   21.9154  -19.9265  -11.7934 O   0  0  0  0  0  0  0  0  0  0  0  0
  1  5  1  0
  2  3  1  0
  2  1  1  0
  3  4  1  0
  4  5  1  0
  5  6  1  1
  6  7  2  0
  8  6  1  0
  8  9  1  0
  9 17  1  0
 10 11  1  0
  9 10  1  1
 11 12  2  0
 12 13  1  0
 14 13  2  0
 15 14  1  0
 16 11  1  0
 16 15  2  0
 17 18  2  0
 19 17  1  0
 19 20  1  0
 20 26  1  0
 20 21  1  6
 22 21  1  0
 23 22  1  0
 24 23  1  0
 24 25  1  0
 26 27  2  0
 26 28  1  0
M  END
$$$$
