PFK.pdb
     RDKit          3D

 28 29  0  0  1  0  0  0  0  0999 V2000
   28.6695  -19.1093  -14.9630 N   0  0  0  0  0  0  0  0  0  0  0  0
   27.7888  -18.6362  -16.0424 C   0  0  0  0  0  0  0  0  0  0  0  0
   27.5274  -17.2208  -15.5777 C   0  0  0  0  0  0  0  0  0  0  0  0
   27.2229  -17.4376  -14.1104 C   0  0  0  0  0  0  0  0  0  0  0  0
   28.0240  -18.6671  -13.7684 C   0  0  1  0  0  0  0  0  0  0  0  0
   27.1733  -19.7590  -13.2391 C   0  0  0  0  0  0  0  0  0  0  0  0
   27.1333  -20.8433  -13.8582 O   0  0  0  0  0  0  0  0  0  0  0  0
   26.4003  -19.6330  -12.0610 N   0  0  0  0  0  0  0  0  0  0  0  0
   25.5264  -20.6678  -11.5346 C   0  0  1  0  0  0  0  0  0  0  0  0
   25.2267  -20.4691  -10.0854 C   0  0  0  0  0  0  0  0  0  0  0  0
   26.4235  -20.6436   -9.2338 C   0  0  0  0  0  0  0  0  0  0  0  0
   27.4826  -21.4688   -9.5387 C   0  0  0  0  0  0  0  0  0  0  0  0
   28.5530  -21.5649   -8.6930 C   0  0  0  0  0  0  0  0  0  0  0  0
   28.5927  -20.8390   -7.5204 C   0  0  0  0  0  0  0  0  0  0  0  0
   27.5390  -20.0047   -7.1959 C   0  0  0  0  0  0  0  0  0  0  0  0
   26.4710  -19.9169   -8.0526 C   0  0  0  0  0  0  0  0  0  0  0  0
   24.3084  -20.7799  -12.3916 C   0  0  0  0  0  0  0  0  0  0  0  0
   23.7511  -19.7804  -12.9082 O   0  0  0  0  0  0  0  0  0  0  0  0
   23.7301  -22.0386  -12.6558 N   0  0  0  0  0  0  0  0  0  0  0  0
   22.6245  -22.1643  -13.6906 C   0  0  1  0  0  0  0  0  0  0  0  0
   22.7653  -23.5714  -14.1108 C   0  0  0  0  0  0  0  0  0  0  0  0
   23.8556  -24.0398  -14.9538 C   0  0  0  0  0  0  0  0  0  0  0  0
   23.9229  -25.4767  -15.2608 C   0  0  0  0  0  0  0  0  0  0  0  0
   25.1499  -25.7642  -16.1818 C   0  0  0  0  0  0  0  0  0  0  0  0
   25.2199  -27.2112  -16.2718 N   0  0  0  0  0  0  0  0  0  0  0  0
   21.3997  -21.8196  -12.9123 C   0  0  0  0  0  0  0  0  0  0  0  0
   21.4595  -21.8404  -11.6285 O   0  0  0  0  0  0  0  0  0  0  0  0
   20.1940  -21.4686  -13.4607 O   0  0  0  0  0  0  0  0  0  0  0  0
  1  5  1  0
  2  3  1  0
  2  1  1  0
  3  4  1  0
  4  5  1  0
  5  6  1  6
  6  7  2  0
  8  6  1  0
  8  9  1  0
  9 17  1  0
 10 11  1  0
  9 10  1  1
 11 12  2  0
 12 13  1  0
 14 13  2  0
 15 14  1  0
 16 11  1  0
 16 15  2  0
 17 18  2  0
 19 17  1  0
 19 20  1  0
 20 26  1  0
 20 21  1  1
 22 21  1  0
 23 22  1  0
 24 23  1  0
 24 25  1  0
 26 27  2  0
 26 28  1  0
M  END
$$$$
