PFK.pdb
     RDKit          3D

 28 29  0  0  1  0  0  0  0  0999 V2000
   30.8937  -20.5767   -9.8583 N   0  0  0  0  0  0  0  0  0  0  0  0
   31.5736  -20.8744   -8.5880 C   0  0  0  0  0  0  0  0  0  0  0  0
   32.1529  -22.2355   -8.9035 C   0  0  0  0  0  0  0  0  0  0  0  0
   30.9682  -22.9245   -9.5473 C   0  0  0  0  0  0  0  0  0  0  0  0
   30.2062  -21.7871  -10.1769 C   0  0  1  0  0  0  0  0  0  0  0  0
   28.8131  -21.7042   -9.6784 C   0  0  0  0  0  0  0  0  0  0  0  0
   28.0939  -22.7242   -9.7329 O   0  0  0  0  0  0  0  0  0  0  0  0
   28.2549  -20.5206   -9.1410 N   0  0  0  0  0  0  0  0  0  0  0  0
   26.8615  -20.3669   -8.7585 C   0  0  1  0  0  0  0  0  0  0  0  0
   26.6882  -19.3941   -7.6391 C   0  0  0  0  0  0  0  0  0  0  0  0
   27.5304  -19.7260   -6.4692 C   0  0  0  0  0  0  0  0  0  0  0  0
   28.6884  -19.0628   -6.1301 C   0  0  0  0  0  0  0  0  0  0  0  0
   29.4031  -19.4354   -5.0253 C   0  0  0  0  0  0  0  0  0  0  0  0
   28.9792  -20.4807   -4.2308 C   0  0  0  0  0  0  0  0  0  0  0  0
   27.8191  -21.1596   -4.5543 C   0  0  0  0  0  0  0  0  0  0  0  0
   27.1110  -20.7761   -5.6651 C   0  0  0  0  0  0  0  0  0  0  0  0
   26.0419  -20.0481   -9.9656 C   0  0  0  0  0  0  0  0  0  0  0  0
   26.1806  -18.9821  -10.6146 O   0  0  0  0  0  0  0  0  0  0  0  0
   25.0635  -20.9522  -10.4281 N   0  0  0  0  0  0  0  0  0  0  0  0
   24.3165  -20.6673  -11.7204 C   0  0  1  0  0  0  0  0  0  0  0  0
   24.6267  -21.8693  -12.5176 C   0  0  0  0  0  0  0  0  0  0  0  0
   24.0426  -22.1226  -13.8265 C   0  0  0  0  0  0  0  0  0  0  0  0
   24.4124  -23.3666  -14.5187 C   0  0  0  0  0  0  0  0  0  0  0  0
   23.8363  -23.3564  -15.9694 C   0  0  0  0  0  0  0  0  0  0  0  0
   24.4131  -24.5243  -16.6098 N   0  0  0  0  0  0  0  0  0  0  0  0
   22.9051  -20.5163  -11.2623 C   0  0  0  0  0  0  0  0  0  0  0  0
   22.0356  -20.0537  -12.0883 O   0  0  0  0  0  0  0  0  0  0  0  0
   22.4460  -20.8421  -10.0131 O   0  0  0  0  0  0  0  0  0  0  0  0
  1  5  1  0
  2  3  1  0
  2  1  1  0
  3  4  1  0
  4  5  1  0
  5  6  1  1
  6  7  2  0
  8  6  1  0
  8  9  1  0
  9 17  1  0
 10 11  1  0
  9 10  1  1
 11 12  2  0
 12 13  1  0
 14 13  2  0
 15 14  1  0
 16 11  1  0
 16 15  2  0
 17 18  2  0
 19 17  1  0
 19 20  1  0
 20 26  1  0
 20 21  1  6
 22 21  1  0
 23 22  1  0
 24 23  1  0
 24 25  1  0
 26 27  2  0
 26 28  1  0
M  END
$$$$
