PFK.pdb
     RDKit          3D

 28 29  0  0  1  0  0  0  0  0999 V2000
   27.1891  -20.3931  -16.3253 N   0  0  0  0  0  0  0  0  0  0  0  0
   28.3675  -19.9203  -15.5819 C   0  0  0  0  0  0  0  0  0  0  0  0
   29.2888  -21.1077  -15.7515 C   0  0  0  0  0  0  0  0  0  0  0  0
   28.3543  -22.2593  -15.4458 C   0  0  0  0  0  0  0  0  0  0  0  0
   27.0076  -21.7352  -15.8726 C   0  0  1  0  0  0  0  0  0  0  0  0
   26.0255  -21.7486  -14.7628 C   0  0  0  0  0  0  0  0  0  0  0  0
   25.5679  -22.8457  -14.3789 O   0  0  0  0  0  0  0  0  0  0  0  0
   25.5786  -20.5738  -14.1136 N   0  0  0  0  0  0  0  0  0  0  0  0
   24.5616  -20.5421  -13.0762 C   0  0  1  0  0  0  0  0  0  0  0  0
   24.8474  -19.5077  -12.0380 C   0  0  0  0  0  0  0  0  0  0  0  0
   25.3194  -20.1005  -10.7675 C   0  0  0  0  0  0  0  0  0  0  0  0
   26.6153  -20.4992  -10.5283 C   0  0  0  0  0  0  0  0  0  0  0  0
   26.9645  -21.0342   -9.3191 C   0  0  0  0  0  0  0  0  0  0  0  0
   26.0275  -21.1846   -8.3176 C   0  0  0  0  0  0  0  0  0  0  0  0
   24.7208  -20.7906   -8.5380 C   0  0  0  0  0  0  0  0  0  0  0  0
   24.3831  -20.2553   -9.7552 C   0  0  0  0  0  0  0  0  0  0  0  0
   23.2114  -20.4112  -13.7009 C   0  0  0  0  0  0  0  0  0  0  0  0
   22.9625  -19.5750  -14.6039 O   0  0  0  0  0  0  0  0  0  0  0  0
   22.1469  -21.2397  -13.2897 N   0  0  0  0  0  0  0  0  0  0  0  0
   20.7671  -21.0632  -13.9012 C   0  0  1  0  0  0  0  0  0  0  0  0
   20.5633  -22.3658  -14.5630 C   0  0  0  0  0  0  0  0  0  0  0  0
   20.5272  -22.5208  -16.0099 C   0  0  0  0  0  0  0  0  0  0  0  0
   19.6413  -23.5516  -16.5722 C   0  0  0  0  0  0  0  0  0  0  0  0
   19.7419  -23.5438  -18.1297 C   0  0  0  0  0  0  0  0  0  0  0  0
   20.9507  -24.2888  -18.4309 N   0  0  0  0  0  0  0  0  0  0  0  0
   19.9112  -20.7768  -12.7138 C   0  0  0  0  0  0  0  0  0  0  0  0
   20.3706  -21.0463  -11.5439 O   0  0  0  0  0  0  0  0  0  0  0  0
   18.6544  -20.2332  -12.7647 O   0  0  0  0  0  0  0  0  0  0  0  0
  1  5  1  0
  2  3  1  0
  2  1  1  0
  3  4  1  0
  4  5  1  0
  5  6  1  1
  6  7  2  0
  8  6  1  0
  8  9  1  0
  9 17  1  0
 10 11  1  0
  9 10  1  1
 11 12  2  0
 12 13  1  0
 14 13  2  0
 15 14  1  0
 16 11  1  0
 16 15  2  0
 17 18  2  0
 19 17  1  0
 19 20  1  0
 20 26  1  0
 20 21  1  1
 22 21  1  0
 23 22  1  0
 24 23  1  0
 24 25  1  0
 26 27  2  0
 26 28  1  0
M  END
$$$$
