PFK.pdb
     RDKit          3D

 28 29  0  0  1  0  0  0  0  0999 V2000
   31.2008  -20.6340   -9.7159 N   0  0  0  0  0  0  0  0  0  0  0  0
   31.8518  -20.8022   -8.4073 C   0  0  0  0  0  0  0  0  0  0  0  0
   32.4258  -22.1924   -8.5672 C   0  0  0  0  0  0  0  0  0  0  0  0
   31.2488  -22.9371   -9.1612 C   0  0  0  0  0  0  0  0  0  0  0  0
   30.5097  -21.8666   -9.9216 C   0  0  1  0  0  0  0  0  0  0  0  0
   29.1074  -21.7234   -9.4644 C   0  0  0  0  0  0  0  0  0  0  0  0
   28.3544  -22.7189   -9.5151 O   0  0  0  0  0  0  0  0  0  0  0  0
   28.5769  -20.5084   -8.9707 N   0  0  0  0  0  0  0  0  0  0  0  0
   27.1809  -20.2989   -8.6258 C   0  0  1  0  0  0  0  0  0  0  0  0
   27.0150  -19.2991   -7.5293 C   0  0  0  0  0  0  0  0  0  0  0  0
   27.7286  -19.6933   -6.2950 C   0  0  0  0  0  0  0  0  0  0  0  0
   27.3078  -20.6822   -5.4344 C   0  0  0  0  0  0  0  0  0  0  0  0
   28.0348  -20.9842   -4.3161 C   0  0  0  0  0  0  0  0  0  0  0  0
   29.2013  -20.3056   -4.0289 C   0  0  0  0  0  0  0  0  0  0  0  0
   29.6409  -19.3091   -4.8805 C   0  0  0  0  0  0  0  0  0  0  0  0
   28.9027  -19.0156   -5.9990 C   0  0  0  0  0  0  0  0  0  0  0  0
   26.4025  -19.9754   -9.8586 C   0  0  0  0  0  0  0  0  0  0  0  0
   26.8922  -19.3288  -10.8171 O   0  0  0  0  0  0  0  0  0  0  0  0
   25.0624  -20.3938   -9.9917 N   0  0  0  0  0  0  0  0  0  0  0  0
   24.3581  -20.2711  -11.3326 C   0  0  1  0  0  0  0  0  0  0  0  0
   25.0556  -21.2955  -12.1329 C   0  0  0  0  0  0  0  0  0  0  0  0
   25.0727  -21.2859  -13.5883 C   0  0  0  0  0  0  0  0  0  0  0  0
   25.7445  -22.3975  -14.2785 C   0  0  0  0  0  0  0  0  0  0  0  0
   25.6261  -22.2102  -15.8235 C   0  0  0  0  0  0  0  0  0  0  0  0
   24.2342  -22.4864  -16.1289 N   0  0  0  0  0  0  0  0  0  0  0  0
   22.9341  -20.5497  -10.9870 C   0  0  0  0  0  0  0  0  0  0  0  0
   22.0250  -20.2757  -11.8534 O   0  0  0  0  0  0  0  0  0  0  0  0
   22.5048  -21.0906   -9.8035 O   0  0  0  0  0  0  0  0  0  0  0  0
  1  5  1  0
  2  3  1  0
  2  1  1  0
  3  4  1  0
  4  5  1  0
  5  6  1  1
  6  7  2  0
  8  6  1  0
  8  9  1  0
  9 17  1  0
 10 11  1  0
  9 10  1  1
 11 12  2  0
 12 13  1  0
 14 13  2  0
 15 14  1  0
 16 11  1  0
 16 15  2  0
 17 18  2  0
 19 17  1  0
 19 20  1  0
 20 26  1  0
 20 21  1  6
 22 21  1  0
 23 22  1  0
 24 23  1  0
 24 25  1  0
 26 27  2  0
 26 28  1  0
M  END
$$$$
