PFK.pdb
     RDKit          3D

 28 29  0  0  1  0  0  0  0  0999 V2000
   23.2275  -10.2500  -19.6720 N   0  0  0  0  0  0  0  0  0  0  0  0
   24.6651  -10.4694  -19.4489 C   0  0  0  0  0  0  0  0  0  0  0  0
   24.6690  -11.9514  -19.1469 C   0  0  0  0  0  0  0  0  0  0  0  0
   23.5145  -12.0628  -18.1736 C   0  0  0  0  0  0  0  0  0  0  0  0
   22.5984  -10.9425  -18.5931 C   0  0  1  0  0  0  0  0  0  0  0  0
   22.3365   -9.9910  -17.4875 C   0  0  0  0  0  0  0  0  0  0  0  0
   21.8378  -10.4246  -16.4274 O   0  0  0  0  0  0  0  0  0  0  0  0
   22.6251   -8.6088  -17.5743 N   0  0  0  0  0  0  0  0  0  0  0  0
   22.4071   -7.6529  -16.5018 C   0  0  1  0  0  0  0  0  0  0  0  0
   23.6867   -7.0787  -15.9896 C   0  0  0  0  0  0  0  0  0  0  0  0
   24.7019   -8.1196  -15.7176 C   0  0  0  0  0  0  0  0  0  0  0  0
   25.8581   -8.2888  -16.4458 C   0  0  0  0  0  0  0  0  0  0  0  0
   26.7452   -9.2771  -16.1195 C   0  0  0  0  0  0  0  0  0  0  0  0
   26.4996  -10.1223  -15.0569 C   0  0  0  0  0  0  0  0  0  0  0  0
   25.3442   -9.9690  -14.3132 C   0  0  0  0  0  0  0  0  0  0  0  0
   24.4624   -8.9737  -14.6506 C   0  0  0  0  0  0  0  0  0  0  0  0
   21.4180   -6.6234  -16.9405 C   0  0  0  0  0  0  0  0  0  0  0  0
   21.4937   -6.0436  -18.0516 O   0  0  0  0  0  0  0  0  0  0  0  0
   20.3423   -6.2594  -16.1044 N   0  0  0  0  0  0  0  0  0  0  0  0
   19.3419   -5.2130  -16.5662 C   0  0  1  0  0  0  0  0  0  0  0  0
   18.0915   -5.9943  -16.6153 C   0  0  0  0  0  0  0  0  0  0  0  0
   16.7955   -5.3957  -16.8999 C   0  0  0  0  0  0  0  0  0  0  0  0
   16.0615   -5.8685  -18.0836 C   0  0  0  0  0  0  0  0  0  0  0  0
   14.6733   -5.1594  -18.1636 C   0  0  0  0  0  0  0  0  0  0  0  0
   13.9630   -5.8451  -19.2276 N   0  0  0  0  0  0  0  0  0  0  0  0
   19.4363   -4.1707  -15.5034 C   0  0  0  0  0  0  0  0  0  0  0  0
   19.5131   -4.5470  -14.2768 O   0  0  0  0  0  0  0  0  0  0  0  0
   19.4558   -2.8193  -15.7287 O   0  0  0  0  0  0  0  0  0  0  0  0
  1  5  1  0
  2  3  1  0
  2  1  1  0
  3  4  1  0
  4  5  1  0
  5  6  1  1
  6  7  2  0
  8  6  1  0
  8  9  1  0
  9 17  1  0
 10 11  1  0
  9 10  1  6
 11 12  2  0
 12 13  1  0
 14 13  2  0
 15 14  1  0
 16 11  1  0
 16 15  2  0
 17 18  2  0
 19 17  1  0
 19 20  1  0
 20 26  1  0
 20 21  1  1
 22 21  1  0
 23 22  1  0
 24 23  1  0
 24 25  1  0
 26 27  2  0
 26 28  1  0
M  END
$$$$
