PFK.pdb
     RDKit          3D

 28 29  0  0  1  0  0  0  0  0999 V2000
   30.7938  -20.6525   -9.9009 N   0  0  0  0  0  0  0  0  0  0  0  0
   31.6188  -20.8627   -8.7010 C   0  0  0  0  0  0  0  0  0  0  0  0
   32.1657  -22.2435   -8.9870 C   0  0  0  0  0  0  0  0  0  0  0  0
   30.9183  -22.9731   -9.4391 C   0  0  0  0  0  0  0  0  0  0  0  0
   30.0813  -21.8806  -10.0527 C   0  0  1  0  0  0  0  0  0  0  0  0
   28.7552  -21.7605   -9.4022 C   0  0  0  0  0  0  0  0  0  0  0  0
   28.0140  -22.7652   -9.3591 O   0  0  0  0  0  0  0  0  0  0  0  0
   28.2851  -20.5577   -8.8245 N   0  0  0  0  0  0  0  0  0  0  0  0
   26.9085  -20.3186   -8.4253 C   0  0  1  0  0  0  0  0  0  0  0  0
   26.8040  -19.2858   -7.3521 C   0  0  0  0  0  0  0  0  0  0  0  0
   27.5997  -19.6351   -6.1551 C   0  0  0  0  0  0  0  0  0  0  0  0
   28.7295  -18.9621   -5.7474 C   0  0  0  0  0  0  0  0  0  0  0  0
   29.4015  -19.3525   -4.6221 C   0  0  0  0  0  0  0  0  0  0  0  0
   28.9618  -20.4259   -3.8750 C   0  0  0  0  0  0  0  0  0  0  0  0
   27.8294  -21.1151   -4.2676 C   0  0  0  0  0  0  0  0  0  0  0  0
   27.1642  -20.7136   -5.3983 C   0  0  0  0  0  0  0  0  0  0  0  0
   26.0809  -20.0192   -9.6319 C   0  0  0  0  0  0  0  0  0  0  0  0
   26.3371  -19.0656  -10.4077 O   0  0  0  0  0  0  0  0  0  0  0  0
   24.9596  -20.8136   -9.9484 N   0  0  0  0  0  0  0  0  0  0  0  0
   24.2187  -20.5947  -11.2569 C   0  0  1  0  0  0  0  0  0  0  0  0
   24.7947  -21.6527  -12.1086 C   0  0  0  0  0  0  0  0  0  0  0  0
   24.2713  -21.9793  -13.4269 C   0  0  0  0  0  0  0  0  0  0  0  0
   24.8757  -23.1089  -14.1496 C   0  0  0  0  0  0  0  0  0  0  0  0
   24.2636  -23.2093  -15.5819 C   0  0  0  0  0  0  0  0  0  0  0  0
   24.9842  -24.2945  -16.2221 N   0  0  0  0  0  0  0  0  0  0  0  0
   22.7899  -20.7601  -10.8618 C   0  0  0  0  0  0  0  0  0  0  0  0
   21.8762  -20.4493  -11.7108 O   0  0  0  0  0  0  0  0  0  0  0  0
   22.3603  -21.2315   -9.6491 O   0  0  0  0  0  0  0  0  0  0  0  0
  1  5  1  0
  2  3  1  0
  2  1  1  0
  3  4  1  0
  4  5  1  0
  5  6  1  1
  6  7  2  0
  8  6  1  0
  8  9  1  0
  9 17  1  0
 10 11  1  0
  9 10  1  1
 11 12  2  0
 12 13  1  0
 14 13  2  0
 15 14  1  0
 16 11  1  0
 16 15  2  0
 17 18  2  0
 19 17  1  0
 19 20  1  0
 20 26  1  0
 20 21  1  6
 22 21  1  0
 23 22  1  0
 24 23  1  0
 24 25  1  0
 26 27  2  0
 26 28  1  0
M  END
$$$$
