PFK.pdb
     RDKit          3D

 28 29  0  0  1  0  0  0  0  0999 V2000
   31.2294  -20.8495   -9.6482 N   0  0  0  0  0  0  0  0  0  0  0  0
   31.8440  -20.9367   -8.3143 C   0  0  0  0  0  0  0  0  0  0  0  0
   32.4333  -22.3282   -8.3783 C   0  0  0  0  0  0  0  0  0  0  0  0
   31.2797  -23.1166   -8.9614 C   0  0  0  0  0  0  0  0  0  0  0  0
   30.5542  -22.0983   -9.8024 C   0  0  1  0  0  0  0  0  0  0  0  0
   29.1383  -21.9427   -9.3937 C   0  0  0  0  0  0  0  0  0  0  0  0
   28.4140  -22.9590   -9.3379 O   0  0  0  0  0  0  0  0  0  0  0  0
   28.5637  -20.6933   -9.0618 N   0  0  0  0  0  0  0  0  0  0  0  0
   27.1613  -20.4911   -8.7397 C   0  0  1  0  0  0  0  0  0  0  0  0
   26.9650  -19.4080   -7.7308 C   0  0  0  0  0  0  0  0  0  0  0  0
   27.6637  -19.6908   -6.4580 C   0  0  0  0  0  0  0  0  0  0  0  0
   27.2854  -20.6651   -5.5617 C   0  0  0  0  0  0  0  0  0  0  0  0
   27.9947  -20.8606   -4.4090 C   0  0  0  0  0  0  0  0  0  0  0  0
   29.1007  -20.0872   -4.1219 C   0  0  0  0  0  0  0  0  0  0  0  0
   29.4969  -19.1034   -5.0089 C   0  0  0  0  0  0  0  0  0  0  0  0
   28.7770  -18.9173   -6.1618 C   0  0  0  0  0  0  0  0  0  0  0  0
   26.3812  -20.2910   -9.9974 C   0  0  0  0  0  0  0  0  0  0  0  0
   26.7081  -19.4479  -10.8687 O   0  0  0  0  0  0  0  0  0  0  0  0
   25.2264  -21.0580  -10.2555 N   0  0  0  0  0  0  0  0  0  0  0  0
   24.5037  -20.9188  -11.5850 C   0  0  1  0  0  0  0  0  0  0  0  0
   24.7443  -22.2394  -12.1970 C   0  0  0  0  0  0  0  0  0  0  0  0
   24.2078  -22.6187  -13.4959 C   0  0  0  0  0  0  0  0  0  0  0  0
   24.4828  -23.9777  -13.9866 C   0  0  0  0  0  0  0  0  0  0  0  0
   23.9375  -24.1360  -15.4405 C   0  0  0  0  0  0  0  0  0  0  0  0
   24.4267  -25.4280  -15.8856 N   0  0  0  0  0  0  0  0  0  0  0  0
   23.1019  -20.6203  -11.1718 C   0  0  0  0  0  0  0  0  0  0  0  0
   22.7531  -20.8601   -9.9581 O   0  0  0  0  0  0  0  0  0  0  0  0
   22.1371  -20.0948  -11.9907 O   0  0  0  0  0  0  0  0  0  0  0  0
  1  5  1  0
  2  3  1  0
  2  1  1  0
  3  4  1  0
  4  5  1  0
  5  6  1  1
  6  7  2  0
  8  6  1  0
  8  9  1  0
  9 17  1  0
 10 11  1  0
  9 10  1  1
 11 12  2  0
 12 13  1  0
 14 13  2  0
 15 14  1  0
 16 11  1  0
 16 15  2  0
 17 18  2  0
 19 17  1  0
 19 20  1  0
 20 26  1  0
 20 21  1  1
 22 21  1  0
 23 22  1  0
 24 23  1  0
 24 25  1  0
 26 27  2  0
 26 28  1  0
M  END
$$$$
