PFK.pdb
     RDKit          3D

 28 29  0  0  1  0  0  0  0  0999 V2000
   28.3666  -19.2588  -13.3453 N   0  0  0  0  0  0  0  0  0  0  0  0
   29.4459  -18.9592  -12.3914 C   0  0  0  0  0  0  0  0  0  0  0  0
   30.4789  -19.9759  -12.8234 C   0  0  0  0  0  0  0  0  0  0  0  0
   29.6329  -21.2242  -12.9609 C   0  0  0  0  0  0  0  0  0  0  0  0
   28.2761  -20.6839  -13.3319 C   0  0  1  0  0  0  0  0  0  0  0  0
   27.2275  -21.0985  -12.3702 C   0  0  0  0  0  0  0  0  0  0  0  0
   26.9956  -22.3171  -12.2228 O   0  0  0  0  0  0  0  0  0  0  0  0
   26.4724  -20.1771  -11.6071 N   0  0  0  0  0  0  0  0  0  0  0  0
   25.2346  -20.4984  -10.9170 C   0  0  1  0  0  0  0  0  0  0  0  0
   25.0381  -19.6645   -9.6942 C   0  0  0  0  0  0  0  0  0  0  0  0
   26.0648  -19.9276   -8.6622 C   0  0  0  0  0  0  0  0  0  0  0  0
   26.2135  -21.1251   -7.9992 C   0  0  0  0  0  0  0  0  0  0  0  0
   27.1961  -21.2812   -7.0610 C   0  0  0  0  0  0  0  0  0  0  0  0
   28.0557  -20.2445   -6.7608 C   0  0  0  0  0  0  0  0  0  0  0  0
   27.9228  -19.0339   -7.4153 C   0  0  0  0  0  0  0  0  0  0  0  0
   26.9332  -18.8899   -8.3545 C   0  0  0  0  0  0  0  0  0  0  0  0
   24.0934  -20.4358  -11.8783 C   0  0  0  0  0  0  0  0  0  0  0  0
   23.9130  -19.4627  -12.6511 O   0  0  0  0  0  0  0  0  0  0  0  0
   23.1592  -21.4896  -11.9529 N   0  0  0  0  0  0  0  0  0  0  0  0
   22.0394  -21.4406  -12.9789 C   0  0  1  0  0  0  0  0  0  0  0  0
   21.9129  -22.8619  -13.3533 C   0  0  0  0  0  0  0  0  0  0  0  0
   20.8650  -23.3578  -14.2335 C   0  0  0  0  0  0  0  0  0  0  0  0
   20.8155  -24.8030  -14.5024 C   0  0  0  0  0  0  0  0  0  0  0  0
   19.6973  -25.1088  -15.5476 C   0  0  0  0  0  0  0  0  0  0  0  0
   19.7623  -26.5437  -15.7570 N   0  0  0  0  0  0  0  0  0  0  0  0
   20.9073  -20.8505  -12.2075 C   0  0  0  0  0  0  0  0  0  0  0  0
   20.9842  -20.8228  -10.9248 O   0  0  0  0  0  0  0  0  0  0  0  0
   19.7728  -20.3181  -12.7618 O   0  0  0  0  0  0  0  0  0  0  0  0
  1  5  1  0
  2  3  1  0
  2  1  1  0
  3  4  1  0
  4  5  1  0
  5  6  1  1
  6  7  2  0
  8  6  1  0
  8  9  1  0
  9 17  1  0
 10 11  1  0
  9 10  1  1
 11 12  2  0
 12 13  1  0
 14 13  2  0
 15 14  1  0
 16 11  1  0
 16 15  2  0
 17 18  2  0
 19 17  1  0
 19 20  1  0
 20 26  1  0
 20 21  1  1
 22 21  1  0
 23 22  1  0
 24 23  1  0
 24 25  1  0
 26 27  2  0
 26 28  1  0
M  END
$$$$
