PFK.pdb
     RDKit          3D

 28 29  0  0  1  0  0  0  0  0999 V2000
   27.3377  -20.4763  -17.1007 N   0  0  0  0  0  0  0  0  0  0  0  0
   28.7369  -20.1715  -16.7628 C   0  0  0  0  0  0  0  0  0  0  0  0
   29.4308  -21.3641  -17.3821 C   0  0  0  0  0  0  0  0  0  0  0  0
   28.5511  -22.5024  -16.9097 C   0  0  0  0  0  0  0  0  0  0  0  0
   27.1949  -21.8595  -16.7761 C   0  0  1  0  0  0  0  0  0  0  0  0
   26.6491  -21.9863  -15.4041 C   0  0  0  0  0  0  0  0  0  0  0  0
   26.2252  -23.0991  -15.0267 O   0  0  0  0  0  0  0  0  0  0  0  0
   26.5845  -20.9033  -14.4962 N   0  0  0  0  0  0  0  0  0  0  0  0
   26.0403  -20.9871  -13.1515 C   0  0  1  0  0  0  0  0  0  0  0  0
   26.8963  -20.2818  -12.1519 C   0  0  0  0  0  0  0  0  0  0  0  0
   26.3220  -20.3238  -10.7893 C   0  0  0  0  0  0  0  0  0  0  0  0
   25.3386  -19.4755  -10.3323 C   0  0  0  0  0  0  0  0  0  0  0  0
   24.8620  -19.5899   -9.0555 C   0  0  0  0  0  0  0  0  0  0  0  0
   25.3562  -20.5550   -8.2023 C   0  0  0  0  0  0  0  0  0  0  0  0
   26.3440  -21.4165   -8.6420 C   0  0  0  0  0  0  0  0  0  0  0  0
   26.8137  -21.2916   -9.9250 C   0  0  0  0  0  0  0  0  0  0  0  0
   24.6185  -20.5299  -13.1560 C   0  0  0  0  0  0  0  0  0  0  0  0
   24.2715  -19.4054  -13.5940 O   0  0  0  0  0  0  0  0  0  0  0  0
   23.5952  -21.3627  -12.6582 N   0  0  0  0  0  0  0  0  0  0  0  0
   22.1451  -20.9158  -12.7402 C   0  0  1  0  0  0  0  0  0  0  0  0
   21.4467  -22.1991  -12.9446 C   0  0  0  0  0  0  0  0  0  0  0  0
   20.0135  -22.2905  -13.1818 C   0  0  0  0  0  0  0  0  0  0  0  0
   19.4382  -23.6211  -13.4308 C   0  0  0  0  0  0  0  0  0  0  0  0
   17.9360  -23.4818  -13.8311 C   0  0  0  0  0  0  0  0  0  0  0  0
   17.4638  -24.8446  -13.9946 N   0  0  0  0  0  0  0  0  0  0  0  0
   21.9304  -20.2409  -11.4275 C   0  0  0  0  0  0  0  0  0  0  0  0
   22.6458  -20.6046  -10.4235 O   0  0  0  0  0  0  0  0  0  0  0  0
   21.0220  -19.2409  -11.1982 O   0  0  0  0  0  0  0  0  0  0  0  0
  1  5  1  0
  2  3  1  0
  2  1  1  0
  3  4  1  0
  4  5  1  0
  5  6  1  1
  6  7  2  0
  8  6  1  0
  8  9  1  0
  9 17  1  0
 10 11  1  0
  9 10  1  1
 11 12  2  0
 12 13  1  0
 14 13  2  0
 15 14  1  0
 16 11  1  0
 16 15  2  0
 17 18  2  0
 19 17  1  0
 19 20  1  0
 20 26  1  0
 20 21  1  1
 22 21  1  0
 23 22  1  0
 24 23  1  0
 24 25  1  0
 26 27  2  0
 26 28  1  0
M  END
$$$$
