PFK.pdb
     RDKit          3D

 28 29  0  0  1  0  0  0  0  0999 V2000
   27.9395  -21.0422  -17.0588 N   0  0  0  0  0  0  0  0  0  0  0  0
   29.3257  -21.3172  -16.6497 C   0  0  0  0  0  0  0  0  0  0  0  0
   29.5541  -22.6428  -17.3413 C   0  0  0  0  0  0  0  0  0  0  0  0
   28.2812  -23.3859  -16.9945 C   0  0  0  0  0  0  0  0  0  0  0  0
   27.2637  -22.2834  -16.8543 C   0  0  1  0  0  0  0  0  0  0  0  0
   26.6256  -22.2786  -15.5168 C   0  0  0  0  0  0  0  0  0  0  0  0
   25.7448  -23.1289  -15.2683 O   0  0  0  0  0  0  0  0  0  0  0  0
   26.9669  -21.3536  -14.5023 N   0  0  0  0  0  0  0  0  0  0  0  0
   26.2523  -21.2086  -13.2454 C   0  0  1  0  0  0  0  0  0  0  0  0
   27.1494  -20.7741  -12.1337 C   0  0  0  0  0  0  0  0  0  0  0  0
   26.4194  -20.5896  -10.8604 C   0  0  0  0  0  0  0  0  0  0  0  0
   25.9656  -21.6191  -10.0668 C   0  0  0  0  0  0  0  0  0  0  0  0
   25.3023  -21.3552   -8.9002 C   0  0  0  0  0  0  0  0  0  0  0  0
   25.0753  -20.0555   -8.4967 C   0  0  0  0  0  0  0  0  0  0  0  0
   25.5228  -19.0076   -9.2797 C   0  0  0  0  0  0  0  0  0  0  0  0
   26.1869  -19.2854  -10.4476 C   0  0  0  0  0  0  0  0  0  0  0  0
   25.0653  -20.3239  -13.4421 C   0  0  0  0  0  0  0  0  0  0  0  0
   25.1536  -19.1757  -13.9427 O   0  0  0  0  0  0  0  0  0  0  0  0
   23.7773  -20.7564  -13.0647 N   0  0  0  0  0  0  0  0  0  0  0  0
   22.5879  -19.8229  -13.2161 C   0  0  1  0  0  0  0  0  0  0  0  0
   22.4593  -19.7362  -14.6832 C   0  0  0  0  0  0  0  0  0  0  0  0
   21.3056  -19.1417  -15.3423 C   0  0  0  0  0  0  0  0  0  0  0  0
   21.2624  -19.1643  -16.8123 C   0  0  0  0  0  0  0  0  0  0  0  0
   19.9444  -18.4951  -17.3135 C   0  0  0  0  0  0  0  0  0  0  0  0
   18.9040  -19.4721  -17.0494 N   0  0  0  0  0  0  0  0  0  0  0  0
   21.5027  -20.5467  -12.4927 C   0  0  0  0  0  0  0  0  0  0  0  0
   21.5658  -21.8279  -12.4100 O   0  0  0  0  0  0  0  0  0  0  0  0
   20.4266  -19.9493  -11.8904 O   0  0  0  0  0  0  0  0  0  0  0  0
  1  5  1  0
  2  3  1  0
  2  1  1  0
  3  4  1  0
  4  5  1  0
  5  6  1  1
  6  7  2  0
  8  6  1  0
  8  9  1  0
  9 17  1  0
 10 11  1  0
  9 10  1  1
 11 12  2  0
 12 13  1  0
 14 13  2  0
 15 14  1  0
 16 11  1  0
 16 15  2  0
 17 18  2  0
 19 17  1  0
 19 20  1  0
 20 26  1  0
 20 21  1  6
 22 21  1  0
 23 22  1  0
 24 23  1  0
 24 25  1  0
 26 27  2  0
 26 28  1  0
M  END
$$$$
