PFK.pdb
     RDKit          3D

 28 29  0  0  1  0  0  0  0  0999 V2000
   27.5384  -20.2878  -17.1252 N   0  0  0  0  0  0  0  0  0  0  0  0
   28.9894  -20.3137  -16.8833 C   0  0  0  0  0  0  0  0  0  0  0  0
   29.3810  -21.5153  -17.7142 C   0  0  0  0  0  0  0  0  0  0  0  0
   28.3188  -22.5171  -17.3132 C   0  0  0  0  0  0  0  0  0  0  0  0
   27.1357  -21.6491  -16.9708 C   0  0  1  0  0  0  0  0  0  0  0  0
   26.6668  -21.8660  -15.5818 C   0  0  0  0  0  0  0  0  0  0  0  0
   26.1175  -22.9509  -15.2958 O   0  0  0  0  0  0  0  0  0  0  0  0
   26.8116  -20.8998  -14.5587 N   0  0  0  0  0  0  0  0  0  0  0  0
   26.1446  -20.9594  -13.2691 C   0  0  1  0  0  0  0  0  0  0  0  0
   26.9472  -20.3125  -12.1889 C   0  0  0  0  0  0  0  0  0  0  0  0
   26.2653  -20.3574  -10.8770 C   0  0  0  0  0  0  0  0  0  0  0  0
   25.3363  -19.4351  -10.4503 C   0  0  0  0  0  0  0  0  0  0  0  0
   24.7511  -19.5579   -9.2204 C   0  0  0  0  0  0  0  0  0  0  0  0
   25.0793  -20.6056   -8.3848 C   0  0  0  0  0  0  0  0  0  0  0  0
   26.0100  -21.5423   -8.7946 C   0  0  0  0  0  0  0  0  0  0  0  0
   26.5899  -21.4080  -10.0307 C   0  0  0  0  0  0  0  0  0  0  0  0
   24.7584  -20.4182  -13.3955 C   0  0  0  0  0  0  0  0  0  0  0  0
   24.5132  -19.3025  -13.9166 O   0  0  0  0  0  0  0  0  0  0  0  0
   23.6537  -21.1572  -12.9242 N   0  0  0  0  0  0  0  0  0  0  0  0
   22.2428  -20.6376  -13.1441 C   0  0  1  0  0  0  0  0  0  0  0  0
   21.6728  -21.6784  -14.0206 C   0  0  0  0  0  0  0  0  0  0  0  0
   20.2610  -21.7313  -14.3710 C   0  0  0  0  0  0  0  0  0  0  0  0
   19.7974  -22.8525  -15.2025 C   0  0  0  0  0  0  0  0  0  0  0  0
   18.2800  -22.6801  -15.5251 C   0  0  0  0  0  0  0  0  0  0  0  0
   18.2302  -21.6656  -16.5619 N   0  0  0  0  0  0  0  0  0  0  0  0
   21.6971  -20.5601  -11.7581 C   0  0  0  0  0  0  0  0  0  0  0  0
   22.2299  -21.2907  -10.8446 O   0  0  0  0  0  0  0  0  0  0  0  0
   20.6600  -19.7546  -11.3666 O   0  0  0  0  0  0  0  0  0  0  0  0
  1  5  1  0
  2  3  1  0
  2  1  1  0
  3  4  1  0
  4  5  1  0
  5  6  1  1
  6  7  2  0
  8  6  1  0
  8  9  1  0
  9 17  1  0
 10 11  1  0
  9 10  1  1
 11 12  2  0
 12 13  1  0
 14 13  2  0
 15 14  1  0
 16 11  1  0
 16 15  2  0
 17 18  2  0
 19 17  1  0
 19 20  1  0
 20 26  1  0
 20 21  1  6
 22 21  1  0
 23 22  1  0
 24 23  1  0
 24 25  1  0
 26 27  2  0
 26 28  1  0
M  END
$$$$
