WHQ.pdb
     RDKit          3D

 34 36  0  0  1  0  0  0  0  0999 V2000
    9.1569  -14.6274   23.9004 N   0  0  0  0  0  0  0  0  0  0  0  0
    8.1919  -15.6563   23.7056 C   0  0  1  0  0  0  0  0  0  0  0  0
    6.9492  -15.4539   24.5395 C   0  0  0  0  0  0  0  0  0  0  0  0
    7.2674  -14.7507   25.7855 C   0  0  0  0  0  0  0  0  0  0  0  0
    8.0876  -15.2128   26.7794 C   0  0  0  0  0  0  0  0  0  0  0  0
    8.1117  -14.2649   27.7459 N   0  0  0  0  0  0  0  0  0  0  0  0
    7.3527  -13.2283   27.4199 C   0  0  0  0  0  0  0  0  0  0  0  0
    7.0423  -12.0335   28.0375 C   0  0  0  0  0  0  0  0  0  0  0  0
    6.1958  -11.1555   27.4024 C   0  0  0  0  0  0  0  0  0  0  0  0
    5.6552  -11.4304   26.1827 C   0  0  0  0  0  0  0  0  0  0  0  0
    5.9586  -12.6132   25.5643 C   0  0  0  0  0  0  0  0  0  0  0  0
    6.8045  -13.5155   26.1746 C   0  0  0  0  0  0  0  0  0  0  0  0
    7.7543  -15.7832   22.2697 C   0  0  0  0  0  0  0  0  0  0  0  0
    7.0278  -16.7503   21.9433 O   0  0  0  0  0  0  0  0  0  0  0  0
    8.1401  -14.8467   21.2909 N   0  0  0  0  0  0  0  0  0  0  0  0
    8.2472  -14.9740   19.8888 C   0  0  1  0  0  0  0  0  0  0  0  0
    7.7209  -13.7837   19.0697 C   0  0  0  0  0  0  0  0  0  0  0  0
    7.8249  -14.0396   17.6121 C   0  0  0  0  0  0  0  0  0  0  0  0
    8.6733  -13.3593   16.7624 C   0  0  0  0  0  0  0  0  0  0  0  0
    8.5188  -13.8379   15.5027 N   0  0  0  0  0  0  0  0  0  0  0  0
    7.5881  -14.8050   15.5547 C   0  0  0  0  0  0  0  0  0  0  0  0
    7.1794  -14.9157   16.8296 N   0  0  0  0  0  0  0  0  0  0  0  0
    9.4948  -15.4277   19.3181 C   0  0  0  0  0  0  0  0  0  0  0  0
   10.4734  -14.6263   19.3024 O   0  0  0  0  0  0  0  0  0  0  0  0
   13.6979  -18.8582   20.9105 N   0  0  0  0  0  0  0  0  0  0  0  0
   12.3893  -19.3969   20.7165 C   0  0  0  0  0  0  0  0  0  0  0  0
   12.0590  -20.3752   21.4158 O   0  0  0  0  0  0  0  0  0  0  0  0
   11.4739  -18.8053   19.7176 C   0  0  0  0  0  0  0  0  0  0  0  0
   11.9926  -17.5801   19.0356 C   0  0  0  0  0  0  0  0  0  0  0  0
   11.0059  -17.0409   18.0625 C   0  0  2  0  0  0  0  0  0  0  0  0
    9.7340  -16.7134   18.7616 N   0  0  0  0  0  0  0  0  0  0  0  0
   10.6542  -17.9946   16.9966 C   0  0  0  0  0  0  0  0  0  0  0  0
    9.5151  -18.4934   16.9011 O   0  0  0  0  0  0  0  0  0  0  0  0
   11.5984  -18.3645   16.0607 O   0  0  0  0  0  0  0  0  0  0  0  0
  2  1  1  6
  2 13  1  0
  2  3  1  0
  4  3  1  0
  4  5  2  0
  6  5  1  0
  7  6  1  0
  8  7  2  0
  9  8  1  0
 10  9  2  0
 10 11  1  0
 11 12  2  0
 12  7  1  0
 12  4  1  0
 13 14  2  0
 15 16  1  0
 15 13  1  0
 16 17  1  6
 18 17  1  0
 19 18  2  0
 20 21  1  0
 20 19  1  0
 21 22  2  0
 22 18  1  0
 23 31  1  0
 23 16  1  0
 24 23  2  0
 25 26  1  0
 26 27  2  0
 26 28  1  0
 28 29  1  0
 30 29  1  1
 30 31  1  0
 30 32  1  0
 32 34  1  0
 33 32  2  0
M  END
$$$$
