WHQ.pdb
     RDKit          3D

 34 36  0  0  1  0  0  0  0  0999 V2000
    6.4914  -17.2823   23.6165 N   0  0  0  0  0  0  0  0  0  0  0  0
    7.3298  -16.1495   23.4129 C   0  0  1  0  0  0  0  0  0  0  0  0
    8.0210  -15.7022   24.6789 C   0  0  0  0  0  0  0  0  0  0  0  0
    7.1052  -14.9364   25.5293 C   0  0  0  0  0  0  0  0  0  0  0  0
    6.0986  -15.4584   26.2963 C   0  0  0  0  0  0  0  0  0  0  0  0
    5.4969  -14.4188   26.9211 N   0  0  0  0  0  0  0  0  0  0  0  0
    6.0661  -13.2675   26.5927 C   0  0  0  0  0  0  0  0  0  0  0  0
    5.8406  -11.9511   26.9412 C   0  0  0  0  0  0  0  0  0  0  0  0
    6.6412  -10.9724   26.4007 C   0  0  0  0  0  0  0  0  0  0  0  0
    7.6493  -11.2642   25.5323 C   0  0  0  0  0  0  0  0  0  0  0  0
    7.8786  -12.5674   25.1823 C   0  0  0  0  0  0  0  0  0  0  0  0
    7.0935  -13.5727   25.7068 C   0  0  0  0  0  0  0  0  0  0  0  0
    8.3980  -16.3910   22.3785 C   0  0  0  0  0  0  0  0  0  0  0  0
    8.8091  -17.5604   22.1970 O   0  0  0  0  0  0  0  0  0  0  0  0
    8.9428  -15.3400   21.6152 N   0  0  0  0  0  0  0  0  0  0  0  0
   10.0954  -15.2973   20.8009 C   0  0  1  0  0  0  0  0  0  0  0  0
   10.1312  -14.1701   19.7555 C   0  0  0  0  0  0  0  0  0  0  0  0
    8.9443  -14.2161   18.8668 C   0  0  0  0  0  0  0  0  0  0  0  0
    7.9718  -13.2380   18.8178 C   0  0  0  0  0  0  0  0  0  0  0  0
    7.0330  -13.5896   17.9042 N   0  0  0  0  0  0  0  0  0  0  0  0
    7.4054  -14.7706   17.3837 C   0  0  0  0  0  0  0  0  0  0  0  0
    8.5568  -15.1356   17.9718 N   0  0  0  0  0  0  0  0  0  0  0  0
   11.3966  -15.4124   21.4188 C   0  0  0  0  0  0  0  0  0  0  0  0
   11.8200  -14.4411   22.1100 O   0  0  0  0  0  0  0  0  0  0  0  0
   10.1155  -19.2670   25.1689 N   0  0  0  0  0  0  0  0  0  0  0  0
   11.4230  -18.8683   25.5836 C   0  0  0  0  0  0  0  0  0  0  0  0
   11.6888  -18.9397   26.7999 O   0  0  0  0  0  0  0  0  0  0  0  0
   12.4113  -18.3891   24.5942 C   0  0  0  0  0  0  0  0  0  0  0  0
   11.8476  -17.5374   23.5023 C   0  0  0  0  0  0  0  0  0  0  0  0
   12.8968  -17.1402   22.5262 C   0  0  2  0  0  0  0  0  0  0  0  0
   12.2644  -16.5338   21.3236 N   0  0  0  0  0  0  0  0  0  0  0  0
   13.7016  -18.2734   22.0388 C   0  0  0  0  0  0  0  0  0  0  0  0
   14.8680  -18.4768   22.4308 O   0  0  0  0  0  0  0  0  0  0  0  0
   13.1703  -19.1533   21.1179 O   0  0  0  0  0  0  0  0  0  0  0  0
  2  1  1  1
  2 13  1  0
  2  3  1  0
  4  3  1  0
  4  5  2  0
  6  5  1  0
  7  6  1  0
  8  7  2  0
  9  8  1  0
 10  9  2  0
 10 11  1  0
 11 12  2  0
 12  7  1  0
 12  4  1  0
 13 14  2  0
 15 16  1  0
 15 13  1  0
 16 17  1  1
 18 17  1  0
 19 18  2  0
 20 21  1  0
 20 19  1  0
 21 22  2  0
 22 18  1  0
 23 31  1  0
 23 16  1  0
 24 23  2  0
 25 26  1  0
 26 27  2  0
 26 28  1  0
 28 29  1  0
 30 29  1  1
 30 31  1  0
 30 32  1  0
 32 34  1  0
 33 32  2  0
M  END
$$$$
