WHQ.pdb
     RDKit          3D

 34 36  0  0  1  0  0  0  0  0999 V2000
    6.5314  -16.4257   22.8487 N   0  0  0  0  0  0  0  0  0  0  0  0
    7.7036  -15.6333   23.0091 C   0  0  1  0  0  0  0  0  0  0  0  0
    8.2554  -15.6886   24.4139 C   0  0  0  0  0  0  0  0  0  0  0  0
    7.3467  -15.0298   25.3564 C   0  0  0  0  0  0  0  0  0  0  0  0
    6.3793  -15.6483   26.1018 C   0  0  0  0  0  0  0  0  0  0  0  0
    5.7698  -14.6873   26.8355 N   0  0  0  0  0  0  0  0  0  0  0  0
    6.2969  -13.4948   26.5965 C   0  0  0  0  0  0  0  0  0  0  0  0
    6.0471  -12.2223   27.0693 C   0  0  0  0  0  0  0  0  0  0  0  0
    6.8035  -11.1757   26.5967 C   0  0  0  0  0  0  0  0  0  0  0  0
    7.7911  -11.3581   25.6765 C   0  0  0  0  0  0  0  0  0  0  0  0
    8.0444  -12.6172   25.2032 C   0  0  0  0  0  0  0  0  0  0  0  0
    7.3037  -13.6885   25.6570 C   0  0  0  0  0  0  0  0  0  0  0  0
    8.8138  -16.0354   22.0736 C   0  0  0  0  0  0  0  0  0  0  0  0
    9.2222  -17.2196   22.0954 O   0  0  0  0  0  0  0  0  0  0  0  0
    9.4006  -15.1176   21.1808 N   0  0  0  0  0  0  0  0  0  0  0  0
   10.5284  -15.2454   20.3409 C   0  0  1  0  0  0  0  0  0  0  0  0
   10.6924  -14.1497   19.2744 C   0  0  0  0  0  0  0  0  0  0  0  0
    9.4490  -13.9695   18.4856 C   0  0  0  0  0  0  0  0  0  0  0  0
    9.1096  -14.7306   17.3855 C   0  0  0  0  0  0  0  0  0  0  0  0
    7.9153  -14.3062   16.9024 N   0  0  0  0  0  0  0  0  0  0  0  0
    7.5059  -13.2934   17.6841 C   0  0  0  0  0  0  0  0  0  0  0  0
    8.4381  -13.1018   18.6323 N   0  0  0  0  0  0  0  0  0  0  0  0
   11.8162  -15.5279   20.9324 C   0  0  0  0  0  0  0  0  0  0  0  0
   12.6094  -14.5628   21.1310 O   0  0  0  0  0  0  0  0  0  0  0  0
   12.8933  -19.0564   25.8715 N   0  0  0  0  0  0  0  0  0  0  0  0
   12.0601  -19.3196   24.7415 C   0  0  0  0  0  0  0  0  0  0  0  0
   11.0818  -20.0744   24.9098 O   0  0  0  0  0  0  0  0  0  0  0  0
   12.3626  -18.7130   23.4277 C   0  0  0  0  0  0  0  0  0  0  0  0
   13.1908  -17.4695   23.4837 C   0  0  0  0  0  0  0  0  0  0  0  0
   13.5304  -16.9808   22.1209 C   0  0  2  0  0  0  0  0  0  0  0  0
   12.2875  -16.8112   21.3207 N   0  0  0  0  0  0  0  0  0  0  0  0
   14.3833  -17.9111   21.3615 C   0  0  0  0  0  0  0  0  0  0  0  0
   13.9922  -18.4678   20.3162 O   0  0  0  0  0  0  0  0  0  0  0  0
   15.6611  -18.1924   21.8003 O   0  0  0  0  0  0  0  0  0  0  0  0
  2  1  1  1
  2 13  1  0
  2  3  1  0
  4  3  1  0
  4  5  2  0
  6  5  1  0
  7  6  1  0
  8  7  2  0
  9  8  1  0
 10  9  2  0
 10 11  1  0
 11 12  2  0
 12  7  1  0
 12  4  1  0
 13 14  2  0
 15 16  1  0
 15 13  1  0
 16 17  1  1
 18 17  1  0
 19 18  2  0
 20 21  1  0
 20 19  1  0
 21 22  2  0
 22 18  1  0
 23 31  1  0
 23 16  1  0
 24 23  2  0
 25 26  1  0
 26 27  2  0
 26 28  1  0
 28 29  1  0
 30 29  1  1
 30 31  1  0
 30 32  1  0
 32 34  1  0
 33 32  2  0
M  END
$$$$
