WHQ.pdb
     RDKit          3D

 34 36  0  0  1  0  0  0  0  0999 V2000
    6.7570  -17.6613   24.1781 N   0  0  0  0  0  0  0  0  0  0  0  0
    7.4811  -16.5549   23.6495 C   0  0  1  0  0  0  0  0  0  0  0  0
    8.1295  -15.7165   24.7254 C   0  0  0  0  0  0  0  0  0  0  0  0
    7.1221  -14.9563   25.4708 C   0  0  0  0  0  0  0  0  0  0  0  0
    6.1754  -15.4853   26.3062 C   0  0  0  0  0  0  0  0  0  0  0  0
    5.4504  -14.4491   26.7897 N   0  0  0  0  0  0  0  0  0  0  0  0
    5.8848  -13.2934   26.3072 C   0  0  0  0  0  0  0  0  0  0  0  0
    5.5039  -11.9777   26.4778 C   0  0  0  0  0  0  0  0  0  0  0  0
    6.1906  -10.9932   25.8068 C   0  0  0  0  0  0  0  0  0  0  0  0
    7.2345  -11.2784   24.9797 C   0  0  0  0  0  0  0  0  0  0  0  0
    7.6177  -12.5809   24.8058 C   0  0  0  0  0  0  0  0  0  0  0  0
    6.9497  -13.5920   25.4644 C   0  0  0  0  0  0  0  0  0  0  0  0
    8.5647  -16.9704   22.6890 C   0  0  0  0  0  0  0  0  0  0  0  0
    8.9769  -18.1531   22.7190 O   0  0  0  0  0  0  0  0  0  0  0  0
    9.1225  -16.0667   21.7638 N   0  0  0  0  0  0  0  0  0  0  0  0
   10.3962  -16.0440   21.1548 C   0  0  1  0  0  0  0  0  0  0  0  0
   10.6107  -14.9459   20.0998 C   0  0  0  0  0  0  0  0  0  0  0  0
   11.9434  -15.0622   19.4586 C   0  0  0  0  0  0  0  0  0  0  0  0
   12.9403  -14.1133   19.5607 C   0  0  0  0  0  0  0  0  0  0  0  0
   14.0239  -14.5294   18.8589 N   0  0  0  0  0  0  0  0  0  0  0  0
   13.7175  -15.7218   18.3217 C   0  0  0  0  0  0  0  0  0  0  0  0
   12.4631  -16.0301   18.6907 N   0  0  0  0  0  0  0  0  0  0  0  0
   11.5741  -16.1393   21.9864 C   0  0  0  0  0  0  0  0  0  0  0  0
   11.7188  -15.2975   22.9195 O   0  0  0  0  0  0  0  0  0  0  0  0
   12.5510  -18.9020   26.5775 N   0  0  0  0  0  0  0  0  0  0  0  0
   12.4342  -19.6616   25.3735 C   0  0  0  0  0  0  0  0  0  0  0  0
   11.9822  -20.8203   25.4644 O   0  0  0  0  0  0  0  0  0  0  0  0
   12.8411  -19.0806   24.0764 C   0  0  0  0  0  0  0  0  0  0  0  0
   13.2701  -17.6496   24.1339 C   0  0  0  0  0  0  0  0  0  0  0  0
   13.7467  -17.1714   22.8090 C   0  0  2  0  0  0  0  0  0  0  0  0
   12.6067  -17.1069   21.8551 N   0  0  0  0  0  0  0  0  0  0  0  0
   14.7477  -18.0585   22.1923 C   0  0  0  0  0  0  0  0  0  0  0  0
   14.5008  -18.7294   21.1703 O   0  0  0  0  0  0  0  0  0  0  0  0
   16.0077  -18.1686   22.7446 O   0  0  0  0  0  0  0  0  0  0  0  0
  2  1  1  1
  2 13  1  0
  2  3  1  0
  4  3  1  0
  4  5  2  0
  6  5  1  0
  7  6  1  0
  8  7  2  0
  9  8  1  0
 10  9  2  0
 10 11  1  0
 11 12  2  0
 12  7  1  0
 12  4  1  0
 13 14  2  0
 15 16  1  0
 15 13  1  0
 16 17  1  1
 18 17  1  0
 19 18  2  0
 20 21  1  0
 20 19  1  0
 21 22  2  0
 22 18  1  0
 23 31  1  0
 23 16  1  0
 24 23  2  0
 25 26  1  0
 26 27  2  0
 26 28  1  0
 28 29  1  0
 30 29  1  1
 30 31  1  0
 30 32  1  0
 32 34  1  0
 33 32  2  0
M  END
$$$$
