WHQ.pdb
     RDKit          3D

 34 36  0  0  1  0  0  0  0  0999 V2000
    6.5474  -17.1602   23.3195 N   0  0  0  0  0  0  0  0  0  0  0  0
    7.3541  -16.0015   23.1341 C   0  0  1  0  0  0  0  0  0  0  0  0
    8.0525  -15.5701   24.4016 C   0  0  0  0  0  0  0  0  0  0  0  0
    7.1081  -14.9374   25.3269 C   0  0  0  0  0  0  0  0  0  0  0  0
    6.1163  -15.5768   26.0208 C   0  0  0  0  0  0  0  0  0  0  0  0
    5.4775  -14.6362   26.7559 N   0  0  0  0  0  0  0  0  0  0  0  0
    6.0092  -13.4368   26.5664 C   0  0  0  0  0  0  0  0  0  0  0  0
    5.7382  -12.1773   27.0618 C   0  0  0  0  0  0  0  0  0  0  0  0
    6.5079  -11.1173   26.6435 C   0  0  0  0  0  0  0  0  0  0  0  0
    7.5288  -11.2741   25.7555 C   0  0  0  0  0  0  0  0  0  0  0  0
    7.8031  -12.5202   25.2601 C   0  0  0  0  0  0  0  0  0  0  0  0
    7.0499  -13.6043   25.6595 C   0  0  0  0  0  0  0  0  0  0  0  0
    8.4126  -16.1888   22.0787 C   0  0  0  0  0  0  0  0  0  0  0  0
    8.9040  -17.3292   21.9124 O   0  0  0  0  0  0  0  0  0  0  0  0
    8.8608  -15.1192   21.2794 N   0  0  0  0  0  0  0  0  0  0  0  0
    9.9619  -15.0272   20.4004 C   0  0  1  0  0  0  0  0  0  0  0  0
   10.0149  -13.7613   19.5290 C   0  0  0  0  0  0  0  0  0  0  0  0
    8.9113  -13.7379   18.5380 C   0  0  0  0  0  0  0  0  0  0  0  0
    7.9246  -12.7738   18.4964 C   0  0  0  0  0  0  0  0  0  0  0  0
    7.0773  -13.0484   17.4735 N   0  0  0  0  0  0  0  0  0  0  0  0
    7.5207  -14.1677   16.8777 C   0  0  0  0  0  0  0  0  0  0  0  0
    8.6245  -14.5715   17.5284 N   0  0  0  0  0  0  0  0  0  0  0  0
   11.2866  -15.3136   20.9018 C   0  0  0  0  0  0  0  0  0  0  0  0
   11.9830  -14.3521   21.3387 O   0  0  0  0  0  0  0  0  0  0  0  0
   11.3854  -17.1625   26.1473 N   0  0  0  0  0  0  0  0  0  0  0  0
   11.6021  -18.3826   25.4369 C   0  0  0  0  0  0  0  0  0  0  0  0
   11.6414  -19.4373   26.1012 O   0  0  0  0  0  0  0  0  0  0  0  0
   11.7737  -18.3766   23.9686 C   0  0  0  0  0  0  0  0  0  0  0  0
   11.8652  -17.0183   23.3506 C   0  0  0  0  0  0  0  0  0  0  0  0
   12.7036  -17.0352   22.1226 C   0  0  2  0  0  0  0  0  0  0  0  0
   11.8952  -16.5968   20.9529 N   0  0  0  0  0  0  0  0  0  0  0  0
   13.2207  -18.3725   21.7856 C   0  0  0  0  0  0  0  0  0  0  0  0
   12.6834  -19.0941   20.9218 O   0  0  0  0  0  0  0  0  0  0  0  0
   14.3351  -18.8662   22.4329 O   0  0  0  0  0  0  0  0  0  0  0  0
  2  1  1  1
  2 13  1  0
  2  3  1  0
  4  3  1  0
  4  5  2  0
  6  5  1  0
  7  6  1  0
  8  7  2  0
  9  8  1  0
 10  9  2  0
 10 11  1  0
 11 12  2  0
 12  7  1  0
 12  4  1  0
 13 14  2  0
 15 16  1  0
 15 13  1  0
 16 17  1  1
 18 17  1  0
 19 18  2  0
 20 21  1  0
 20 19  1  0
 21 22  2  0
 22 18  1  0
 23 31  1  0
 23 16  1  0
 24 23  2  0
 25 26  1  0
 26 27  2  0
 26 28  1  0
 28 29  1  0
 30 29  1  1
 30 31  1  0
 30 32  1  0
 32 34  1  0
 33 32  2  0
M  END
$$$$
