WHQ.pdb
     RDKit          3D

 34 36  0  0  1  0  0  0  0  0999 V2000
    6.4182  -17.0600   23.2024 N   0  0  0  0  0  0  0  0  0  0  0  0
    7.4234  -16.0525   23.1543 C   0  0  1  0  0  0  0  0  0  0  0  0
    8.0967  -15.8383   24.4891 C   0  0  0  0  0  0  0  0  0  0  0  0
    7.2465  -15.0427   25.3792 C   0  0  0  0  0  0  0  0  0  0  0  0
    6.0953  -15.4722   25.9827 C   0  0  0  0  0  0  0  0  0  0  0  0
    5.6219  -14.4365   26.7152 N   0  0  0  0  0  0  0  0  0  0  0  0
    6.4089  -13.3751   26.6095 C   0  0  0  0  0  0  0  0  0  0  0  0
    6.3787  -12.1009   27.1392 C   0  0  0  0  0  0  0  0  0  0  0  0
    7.3840  -11.2205   26.8144 C   0  0  0  0  0  0  0  0  0  0  0  0
    8.4074  -11.5692   25.9859 C   0  0  0  0  0  0  0  0  0  0  0  0
    8.4438  -12.8311   25.4570 C   0  0  0  0  0  0  0  0  0  0  0  0
    7.4508  -13.7380   25.7630 C   0  0  0  0  0  0  0  0  0  0  0  0
    8.5040  -16.3522   22.1484 C   0  0  0  0  0  0  0  0  0  0  0  0
    8.9246  -17.5279   22.0467 O   0  0  0  0  0  0  0  0  0  0  0  0
    9.0499  -15.3486   21.3247 N   0  0  0  0  0  0  0  0  0  0  0  0
   10.2202  -15.3437   20.5348 C   0  0  1  0  0  0  0  0  0  0  0  0
   10.3780  -14.1446   19.5851 C   0  0  0  0  0  0  0  0  0  0  0  0
    9.2483  -14.0583   18.6274 C   0  0  0  0  0  0  0  0  0  0  0  0
    9.1063  -14.8673   17.5183 C   0  0  0  0  0  0  0  0  0  0  0  0
    7.9697  -14.5262   16.8616 N   0  0  0  0  0  0  0  0  0  0  0  0
    7.4018  -13.5181   17.5440 C   0  0  0  0  0  0  0  0  0  0  0  0
    8.1816  -13.2470   18.6038 N   0  0  0  0  0  0  0  0  0  0  0  0
   11.4919  -15.6225   21.1618 C   0  0  0  0  0  0  0  0  0  0  0  0
   11.7398  -15.0847   22.2797 O   0  0  0  0  0  0  0  0  0  0  0  0
   11.0239  -19.7254   24.1304 N   0  0  0  0  0  0  0  0  0  0  0  0
   11.9384  -18.7766   24.6815 C   0  0  0  0  0  0  0  0  0  0  0  0
   12.0034  -18.6931   25.9240 O   0  0  0  0  0  0  0  0  0  0  0  0
   12.7679  -17.9314   23.7966 C   0  0  0  0  0  0  0  0  0  0  0  0
   12.6039  -18.1989   22.3348 C   0  0  0  0  0  0  0  0  0  0  0  0
   13.4088  -17.2542   21.5157 C   0  0  2  0  0  0  0  0  0  0  0  0
   12.5119  -16.4595   20.6338 N   0  0  0  0  0  0  0  0  0  0  0  0
   14.3706  -17.9253   20.6246 C   0  0  0  0  0  0  0  0  0  0  0  0
   14.1352  -18.1134   19.4144 O   0  0  0  0  0  0  0  0  0  0  0  0
   15.5790  -18.3699   21.1211 O   0  0  0  0  0  0  0  0  0  0  0  0
  2  1  1  1
  2 13  1  0
  2  3  1  0
  4  3  1  0
  4  5  2  0
  6  5  1  0
  7  6  1  0
  8  7  2  0
  9  8  1  0
 10  9  2  0
 10 11  1  0
 11 12  2  0
 12  7  1  0
 12  4  1  0
 13 14  2  0
 15 16  1  0
 15 13  1  0
 16 17  1  1
 18 17  1  0
 19 18  2  0
 20 21  1  0
 20 19  1  0
 21 22  2  0
 22 18  1  0
 23 31  1  0
 23 16  1  0
 24 23  2  0
 25 26  1  0
 26 27  2  0
 26 28  1  0
 28 29  1  0
 30 29  1  6
 30 31  1  0
 30 32  1  0
 32 34  1  0
 33 32  2  0
M  END
$$$$
