WHQ.pdb
     RDKit          3D

 34 36  0  0  1  0  0  0  0  0999 V2000
    6.2517  -17.4938   23.5446 N   0  0  0  0  0  0  0  0  0  0  0  0
    7.1287  -16.3886   23.3522 C   0  0  1  0  0  0  0  0  0  0  0  0
    7.8654  -16.0042   24.6133 C   0  0  0  0  0  0  0  0  0  0  0  0
    7.0173  -15.1826   25.4817 C   0  0  0  0  0  0  0  0  0  0  0  0
    5.9576  -15.6311   26.2234 C   0  0  0  0  0  0  0  0  0  0  0  0
    5.4505  -14.5597   26.8777 N   0  0  0  0  0  0  0  0  0  0  0  0
    6.1296  -13.4578   26.5920 C   0  0  0  0  0  0  0  0  0  0  0  0
    6.0261  -12.1378   26.9821 C   0  0  0  0  0  0  0  0  0  0  0  0
    6.9216  -11.2227   26.4804 C   0  0  0  0  0  0  0  0  0  0  0  0
    7.9066  -11.5808   25.6104 C   0  0  0  0  0  0  0  0  0  0  0  0
    8.0152  -12.8879   25.2191 C   0  0  0  0  0  0  0  0  0  0  0  0
    7.1328  -13.8305   25.7041 C   0  0  0  0  0  0  0  0  0  0  0  0
    8.1630  -16.6414   22.2865 C   0  0  0  0  0  0  0  0  0  0  0  0
    8.5344  -17.8187   22.0731 O   0  0  0  0  0  0  0  0  0  0  0  0
    8.7196  -15.5924   21.5291 N   0  0  0  0  0  0  0  0  0  0  0  0
    9.8200  -15.5811   20.6445 C   0  0  1  0  0  0  0  0  0  0  0  0
   10.0065  -14.2903   19.8296 C   0  0  0  0  0  0  0  0  0  0  0  0
    8.9029  -14.0982   18.8571 C   0  0  0  0  0  0  0  0  0  0  0  0
    8.0258  -13.0328   18.8777 C   0  0  0  0  0  0  0  0  0  0  0  0
    7.1445  -13.1625   17.8548 N   0  0  0  0  0  0  0  0  0  0  0  0
    7.4589  -14.2912   17.1979 C   0  0  0  0  0  0  0  0  0  0  0  0
    8.5186  -14.8438   17.8117 N   0  0  0  0  0  0  0  0  0  0  0  0
   11.1080  -16.0319   21.1200 C   0  0  0  0  0  0  0  0  0  0  0  0
   12.1245  -15.3263   20.8574 O   0  0  0  0  0  0  0  0  0  0  0  0
   10.3724  -19.0523   26.7380 N   0  0  0  0  0  0  0  0  0  0  0  0
   11.4085  -18.0691   26.7323 C   0  0  0  0  0  0  0  0  0  0  0  0
   11.6352  -17.4642   27.7990 O   0  0  0  0  0  0  0  0  0  0  0  0
   12.1726  -17.7902   25.4978 C   0  0  0  0  0  0  0  0  0  0  0  0
   11.3378  -17.5511   24.2807 C   0  0  0  0  0  0  0  0  0  0  0  0
   12.1789  -17.2066   23.1038 C   0  0  2  0  0  0  0  0  0  0  0  0
   11.3482  -17.2153   21.8693 N   0  0  0  0  0  0  0  0  0  0  0  0
   13.2743  -18.1624   22.8677 C   0  0  0  0  0  0  0  0  0  0  0  0
   14.2854  -18.2072   23.5966 O   0  0  0  0  0  0  0  0  0  0  0  0
   13.2036  -19.0480   21.8116 O   0  0  0  0  0  0  0  0  0  0  0  0
  2  1  1  1
  2 13  1  0
  2  3  1  0
  4  3  1  0
  4  5  2  0
  6  5  1  0
  7  6  1  0
  8  7  2  0
  9  8  1  0
 10  9  2  0
 10 11  1  0
 11 12  2  0
 12  7  1  0
 12  4  1  0
 13 14  2  0
 15 16  1  0
 15 13  1  0
 16 17  1  1
 18 17  1  0
 19 18  2  0
 20 21  1  0
 20 19  1  0
 21 22  2  0
 22 18  1  0
 23 31  1  0
 23 16  1  0
 24 23  2  0
 25 26  1  0
 26 27  2  0
 26 28  1  0
 28 29  1  0
 30 29  1  1
 30 31  1  0
 30 32  1  0
 32 34  1  0
 33 32  2  0
M  END
$$$$
