WHQ.pdb
     RDKit          3D

 34 36  0  0  1  0  0  0  0  0999 V2000
    6.3145  -17.3517   23.7918 N   0  0  0  0  0  0  0  0  0  0  0  0
    7.1853  -16.2768   23.4541 C   0  0  1  0  0  0  0  0  0  0  0  0
    7.8296  -15.6473   24.6663 C   0  0  0  0  0  0  0  0  0  0  0  0
    6.8567  -14.8485   25.4171 C   0  0  0  0  0  0  0  0  0  0  0  0
    5.8651  -15.3422   26.2214 C   0  0  0  0  0  0  0  0  0  0  0  0
    5.1953  -14.2779   26.7231 N   0  0  0  0  0  0  0  0  0  0  0  0
    5.7072  -13.1376   26.2816 C   0  0  0  0  0  0  0  0  0  0  0  0
    5.4034  -11.8065   26.4842 C   0  0  0  0  0  0  0  0  0  0  0  0
    6.1600  -10.8470   25.8535 C   0  0  0  0  0  0  0  0  0  0  0  0
    7.1995  -11.1719   25.0353 C   0  0  0  0  0  0  0  0  0  0  0  0
    7.5065  -12.4898   24.8298 C   0  0  0  0  0  0  0  0  0  0  0  0
    6.7671  -13.4766   25.4477 C   0  0  0  0  0  0  0  0  0  0  0  0
    8.2925  -16.6923   22.5210 C   0  0  0  0  0  0  0  0  0  0  0  0
    8.7077  -17.8735   22.5652 O   0  0  0  0  0  0  0  0  0  0  0  0
    8.8692  -15.7902   21.6058 N   0  0  0  0  0  0  0  0  0  0  0  0
   10.1561  -15.7667   21.0255 C   0  0  1  0  0  0  0  0  0  0  0  0
   10.4424  -14.5821   20.0876 C   0  0  0  0  0  0  0  0  0  0  0  0
    9.2812  -14.2900   19.2120 C   0  0  0  0  0  0  0  0  0  0  0  0
    8.8555  -15.1099   18.1866 C   0  0  0  0  0  0  0  0  0  0  0  0
    7.7737  -14.5502   17.5896 N   0  0  0  0  0  0  0  0  0  0  0  0
    7.5192  -13.3954   18.2268 C   0  0  0  0  0  0  0  0  0  0  0  0
    8.4337  -13.2517   19.2004 N   0  0  0  0  0  0  0  0  0  0  0  0
   11.3095  -15.9962   21.8652 C   0  0  0  0  0  0  0  0  0  0  0  0
   12.4454  -16.0776   21.3144 O   0  0  0  0  0  0  0  0  0  0  0  0
   11.5518  -15.6655   28.2294 N   0  0  0  0  0  0  0  0  0  0  0  0
   11.0644  -16.8160   27.5372 C   0  0  0  0  0  0  0  0  0  0  0  0
   10.3828  -17.6338   28.1867 O   0  0  0  0  0  0  0  0  0  0  0  0
   11.3680  -17.0150   26.1042 C   0  0  0  0  0  0  0  0  0  0  0  0
   12.2700  -15.9857   25.5025 C   0  0  0  0  0  0  0  0  0  0  0  0
   12.5444  -16.2742   24.0697 C   0  0  2  0  0  0  0  0  0  0  0  0
   11.2911  -16.1423   23.2787 N   0  0  0  0  0  0  0  0  0  0  0  0
   13.0371  -17.6418   23.8323 C   0  0  0  0  0  0  0  0  0  0  0  0
   14.2200  -17.9693   24.0532 O   0  0  0  0  0  0  0  0  0  0  0  0
   12.1813  -18.6108   23.3495 O   0  0  0  0  0  0  0  0  0  0  0  0
  2  1  1  1
  2 13  1  0
  2  3  1  0
  4  3  1  0
  4  5  2  0
  6  5  1  0
  7  6  1  0
  8  7  2  0
  9  8  1  0
 10  9  2  0
 10 11  1  0
 11 12  2  0
 12  7  1  0
 12  4  1  0
 13 14  2  0
 15 16  1  0
 15 13  1  0
 16 17  1  1
 18 17  1  0
 19 18  2  0
 20 21  1  0
 20 19  1  0
 21 22  2  0
 22 18  1  0
 23 31  1  0
 23 16  1  0
 24 23  2  0
 25 26  1  0
 26 27  2  0
 26 28  1  0
 28 29  1  0
 30 29  1  1
 30 31  1  0
 30 32  1  0
 32 34  1  0
 33 32  2  0
M  END
$$$$
