WHQ.pdb
     RDKit          3D

 34 36  0  0  1  0  0  0  0  0999 V2000
    7.1041  -17.4469   22.9729 N   0  0  0  0  0  0  0  0  0  0  0  0
    7.5128  -16.1747   23.4651 C   0  0  1  0  0  0  0  0  0  0  0  0
    7.7038  -16.1645   24.9631 C   0  0  0  0  0  0  0  0  0  0  0  0
    6.8248  -15.1754   25.5933 C   0  0  0  0  0  0  0  0  0  0  0  0
    5.5165  -15.3741   25.9438 C   0  0  0  0  0  0  0  0  0  0  0  0
    5.0734  -14.2184   26.4925 N   0  0  0  0  0  0  0  0  0  0  0  0
    6.0278  -13.2987   26.5091 C   0  0  0  0  0  0  0  0  0  0  0  0
    6.0941  -11.9915   26.9475 C   0  0  0  0  0  0  0  0  0  0  0  0
    7.2760  -11.3020   26.8103 C   0  0  0  0  0  0  0  0  0  0  0  0
    8.3819  -11.8710   26.2548 C   0  0  0  0  0  0  0  0  0  0  0  0
    8.3234  -13.1668   25.8178 C   0  0  0  0  0  0  0  0  0  0  0  0
    7.1530  -13.8860   25.9410 C   0  0  0  0  0  0  0  0  0  0  0  0
    8.7981  -15.6931   22.8444 C   0  0  0  0  0  0  0  0  0  0  0  0
    9.5471  -14.9433   23.5125 O   0  0  0  0  0  0  0  0  0  0  0  0
    9.1758  -16.0628   21.5388 N   0  0  0  0  0  0  0  0  0  0  0  0
   10.2998  -15.6940   20.7681 C   0  0  1  0  0  0  0  0  0  0  0  0
   10.2404  -14.2962   20.1298 C   0  0  0  0  0  0  0  0  0  0  0  0
    9.0188  -14.1275   19.3052 C   0  0  0  0  0  0  0  0  0  0  0  0
    8.1602  -13.0511   19.3994 C   0  0  0  0  0  0  0  0  0  0  0  0
    7.1499  -13.2088   18.5083 N   0  0  0  0  0  0  0  0  0  0  0  0
    7.3657  -14.3658   17.8610 C   0  0  0  0  0  0  0  0  0  0  0  0
    8.4934  -14.9078   18.3504 N   0  0  0  0  0  0  0  0  0  0  0  0
   11.6229  -15.9138   21.3059 C   0  0  0  0  0  0  0  0  0  0  0  0
   12.2431  -14.9256   21.7947 O   0  0  0  0  0  0  0  0  0  0  0  0
   10.3416  -17.8865   26.0043 N   0  0  0  0  0  0  0  0  0  0  0  0
   11.6301  -18.5022   26.0361 C   0  0  0  0  0  0  0  0  0  0  0  0
   11.9173  -19.1867   27.0381 O   0  0  0  0  0  0  0  0  0  0  0  0
   12.5764  -18.3223   24.9148 C   0  0  0  0  0  0  0  0  0  0  0  0
   11.9959  -17.6758   23.6980 C   0  0  0  0  0  0  0  0  0  0  0  0
   12.9715  -17.6547   22.5759 C   0  0  2  0  0  0  0  0  0  0  0  0
   12.3089  -17.1580   21.3397 N   0  0  0  0  0  0  0  0  0  0  0  0
   13.5120  -18.9843   22.2455 C   0  0  0  0  0  0  0  0  0  0  0  0
   14.4785  -19.4796   22.8589 O   0  0  0  0  0  0  0  0  0  0  0  0
   12.9481  -19.7265   21.2278 O   0  0  0  0  0  0  0  0  0  0  0  0
  2  1  1  6
  2 13  1  0
  2  3  1  0
  4  3  1  0
  4  5  2  0
  6  5  1  0
  7  6  1  0
  8  7  2  0
  9  8  1  0
 10  9  2  0
 10 11  1  0
 11 12  2  0
 12  7  1  0
 12  4  1  0
 13 14  2  0
 15 16  1  0
 15 13  1  0
 16 17  1  1
 18 17  1  0
 19 18  2  0
 20 21  1  0
 20 19  1  0
 21 22  2  0
 22 18  1  0
 23 31  1  0
 23 16  1  0
 24 23  2  0
 25 26  1  0
 26 27  2  0
 26 28  1  0
 28 29  1  0
 30 29  1  1
 30 31  1  0
 30 32  1  0
 32 34  1  0
 33 32  2  0
M  END
$$$$
