WHQ.pdb
     RDKit          3D

 34 36  0  0  1  0  0  0  0  0999 V2000
    9.0055  -17.9309   20.3179 N   0  0  0  0  0  0  0  0  0  0  0  0
   10.1364  -17.1686   19.9084 C   0  0  1  0  0  0  0  0  0  0  0  0
   10.4034  -15.9909   20.8154 C   0  0  0  0  0  0  0  0  0  0  0  0
    9.1470  -15.3855   21.2660 C   0  0  0  0  0  0  0  0  0  0  0  0
    8.3975  -15.7970   22.3350 C   0  0  0  0  0  0  0  0  0  0  0  0
    7.3235  -14.9756   22.4055 N   0  0  0  0  0  0  0  0  0  0  0  0
    7.3508  -14.0668   21.4409 C   0  0  0  0  0  0  0  0  0  0  0  0
    6.5190  -13.0268   21.0777 C   0  0  0  0  0  0  0  0  0  0  0  0
    6.8542  -12.2544   19.9905 C   0  0  0  0  0  0  0  0  0  0  0  0
    7.9820  -12.4856   19.2624 C   0  0  0  0  0  0  0  0  0  0  0  0
    8.8114  -13.5151   19.6169 C   0  0  0  0  0  0  0  0  0  0  0  0
    8.5038  -14.3086   20.7022 C   0  0  0  0  0  0  0  0  0  0  0  0
   11.4009  -17.9851   19.8473 C   0  0  0  0  0  0  0  0  0  0  0  0
   11.8916  -18.4186   20.9154 O   0  0  0  0  0  0  0  0  0  0  0  0
   12.0412  -18.2708   18.6257 N   0  0  0  0  0  0  0  0  0  0  0  0
   13.3581  -18.7037   18.3577 C   0  0  1  0  0  0  0  0  0  0  0  0
   13.7132  -18.8762   16.8714 C   0  0  0  0  0  0  0  0  0  0  0  0
   14.9919  -19.6085   16.7003 C   0  0  0  0  0  0  0  0  0  0  0  0
   16.1685  -19.0280   16.2721 C   0  0  0  0  0  0  0  0  0  0  0  0
   17.1399  -19.9734   16.2262 N   0  0  0  0  0  0  0  0  0  0  0  0
   16.5871  -21.1329   16.6189 C   0  0  0  0  0  0  0  0  0  0  0  0
   15.2947  -20.8986   16.9011 N   0  0  0  0  0  0  0  0  0  0  0  0
   14.4603  -18.0622   19.0372 C   0  0  0  0  0  0  0  0  0  0  0  0
   14.4971  -16.7979   19.0587 O   0  0  0  0  0  0  0  0  0  0  0  0
   16.5697  -17.8203   24.7093 N   0  0  0  0  0  0  0  0  0  0  0  0
   15.9669  -16.7657   23.9578 C   0  0  0  0  0  0  0  0  0  0  0  0
   15.5837  -15.7576   24.5840 O   0  0  0  0  0  0  0  0  0  0  0  0
   15.8092  -16.8826   22.4926 C   0  0  0  0  0  0  0  0  0  0  0  0
   16.3885  -18.1240   21.8937 C   0  0  0  0  0  0  0  0  0  0  0  0
   16.5871  -17.9784   20.4272 C   0  0  2  0  0  0  0  0  0  0  0  0
   15.5287  -18.7274   19.6972 N   0  0  0  0  0  0  0  0  0  0  0  0
   17.8727  -18.5197   19.9543 C   0  0  0  0  0  0  0  0  0  0  0  0
   17.9616  -19.6356   19.4045 O   0  0  0  0  0  0  0  0  0  0  0  0
   19.0315  -17.7873   20.1133 O   0  0  0  0  0  0  0  0  0  0  0  0
  2  1  1  1
  2 13  1  0
  2  3  1  0
  4  3  1  0
  4  5  2  0
  6  5  1  0
  7  6  1  0
  8  7  2  0
  9  8  1  0
 10  9  2  0
 10 11  1  0
 11 12  2  0
 12  7  1  0
 12  4  1  0
 13 14  2  0
 15 16  1  0
 15 13  1  0
 16 17  1  6
 18 17  1  0
 19 18  2  0
 20 21  1  0
 20 19  1  0
 21 22  2  0
 22 18  1  0
 23 31  1  0
 23 16  1  0
 24 23  2  0
 25 26  1  0
 26 27  2  0
 26 28  1  0
 28 29  1  0
 30 29  1  1
 30 31  1  0
 30 32  1  0
 32 34  1  0
 33 32  2  0
M  END
$$$$
