TNM.pdb
     RDKit          3D

 24 23  0  0  1  0  0  0  0  0999 V2000
   18.7061  -14.2064  -14.7905 C   0  0  0  0  0  0  0  0  0  0  0  0
   18.4641  -14.5277  -16.2470 C   0  0  1  0  0  0  0  0  0  0  0  0
   18.2039  -15.8601  -16.4811 O   0  0  0  0  0  0  0  0  0  0  0  0
   17.4484  -13.5980  -16.8572 C   0  0  2  0  0  0  0  0  0  0  0  0
   17.2318  -14.0423  -18.2268 N   0  0  0  0  0  0  0  0  0  0  0  0
   17.8726  -12.1686  -16.8275 C   0  0  0  0  0  0  0  0  0  0  0  0
   18.8166  -11.7402  -17.5597 O   0  0  0  0  0  0  0  0  0  0  0  0
   18.1527   -7.2890  -16.2883 N   0  0  0  0  0  0  0  0  0  0  0  0
   16.9314   -7.5587  -15.6024 C   0  0  0  0  0  0  0  0  0  0  0  0
   16.2011   -6.5920  -15.2898 O   0  0  0  0  0  0  0  0  0  0  0  0
   16.5842   -8.9533  -15.2928 C   0  0  0  0  0  0  0  0  0  0  0  0
   17.6567   -9.8311  -15.9068 C   0  0  2  0  0  0  0  0  0  0  0  0
   17.2472  -11.2141  -15.9841 N   0  0  0  0  0  0  0  0  0  0  0  0
   18.9024   -9.6375  -15.1669 C   0  0  0  0  0  0  0  0  0  0  0  0
   19.2967  -10.4239  -14.2560 O   0  0  0  0  0  0  0  0  0  0  0  0
   25.7382  -11.1701  -14.5454 C   0  0  0  0  0  0  0  0  0  0  0  0
   24.1279  -11.0730  -15.3936 S   0  0  0  0  0  0  0  0  0  0  0  0
   23.2540   -9.6448  -14.6456 C   0  0  0  0  0  0  0  0  0  0  0  0
   21.8864   -9.5918  -15.2807 C   0  0  0  0  0  0  0  0  0  0  0  0
   21.0688   -8.4116  -14.8473 C   0  0  2  0  0  0  0  0  0  0  0  0
   19.7340   -8.5232  -15.4606 N   0  0  0  0  0  0  0  0  0  0  0  0
   21.6835   -7.1473  -15.2543 C   0  0  0  0  0  0  0  0  0  0  0  0
   21.4971   -6.6618  -16.3963 O   0  0  0  0  0  0  0  0  0  0  0  0
   22.4976   -6.4433  -14.3795 O   0  0  0  0  0  0  0  0  0  0  0  0
  2  1  1  1
  2  3  1  0
  2  4  1  0
  4  5  1  6
  6  4  1  0
  6  7  2  0
  8  9  1  0
  9 11  1  0
 10  9  2  0
 12 11  1  1
 12 13  1  0
 13  6  1  0
 14 12  1  0
 15 14  2  0
 16 17  1  0
 17 18  1  0
 18 19  1  0
 20 19  1  6
 20 21  1  0
 20 22  1  0
 21 14  1  0
 22 24  1  0
 23 22  2  0
M  END
$$$$
