TNM.pdb
     RDKit          3D

 24 23  0  0  1  0  0  0  0  0999 V2000
   19.0434  -13.3174  -18.2865 C   0  0  0  0  0  0  0  0  0  0  0  0
   17.6901  -13.4016  -17.6196 C   0  0  1  0  0  0  0  0  0  0  0  0
   17.1526  -14.6700  -17.6231 O   0  0  0  0  0  0  0  0  0  0  0  0
   17.7025  -12.7549  -16.2595 C   0  0  2  0  0  0  0  0  0  0  0  0
   16.4369  -13.0840  -15.6191 N   0  0  0  0  0  0  0  0  0  0  0  0
   17.8957  -11.2772  -16.3170 C   0  0  0  0  0  0  0  0  0  0  0  0
   18.8827  -10.7592  -16.9235 O   0  0  0  0  0  0  0  0  0  0  0  0
   13.5903   -8.9620  -15.4335 N   0  0  0  0  0  0  0  0  0  0  0  0
   14.8366   -8.6367  -16.0464 C   0  0  0  0  0  0  0  0  0  0  0  0
   14.9280   -8.7317  -17.2907 O   0  0  0  0  0  0  0  0  0  0  0  0
   15.9553   -8.2063  -15.1951 C   0  0  0  0  0  0  0  0  0  0  0  0
   17.1916   -8.9442  -15.6693 C   0  0  2  0  0  0  0  0  0  0  0  0
   16.9910  -10.3743  -15.7006 N   0  0  0  0  0  0  0  0  0  0  0  0
   18.3269   -8.5376  -14.8433 C   0  0  0  0  0  0  0  0  0  0  0  0
   18.6739   -9.1518  -13.7917 O   0  0  0  0  0  0  0  0  0  0  0  0
   23.0787  -10.6645  -12.7821 C   0  0  0  0  0  0  0  0  0  0  0  0
   23.5157   -9.7306  -14.2851 S   0  0  0  0  0  0  0  0  0  0  0  0
   22.6573   -8.1168  -14.1383 C   0  0  0  0  0  0  0  0  0  0  0  0
   21.2902   -8.2952  -14.7514 C   0  0  0  0  0  0  0  0  0  0  0  0
   20.3779   -7.1247  -14.5346 C   0  0  2  0  0  0  0  0  0  0  0  0
   19.0993   -7.4030  -15.2115 N   0  0  0  0  0  0  0  0  0  0  0  0
   20.9479   -5.8868  -15.0683 C   0  0  0  0  0  0  0  0  0  0  0  0
   20.5835   -5.4166  -16.1732 O   0  0  0  0  0  0  0  0  0  0  0  0
   21.9168   -5.1918  -14.3598 O   0  0  0  0  0  0  0  0  0  0  0  0
  2  1  1  1
  2  3  1  0
  2  4  1  0
  4  5  1  6
  6  4  1  0
  6  7  2  0
  8  9  1  0
  9 11  1  0
 10  9  2  0
 12 11  1  1
 12 13  1  0
 13  6  1  0
 14 12  1  0
 15 14  2  0
 16 17  1  0
 17 18  1  0
 18 19  1  0
 20 19  1  6
 20 21  1  0
 20 22  1  0
 21 14  1  0
 22 24  1  0
 23 22  2  0
M  END
$$$$
