TNM.pdb
     RDKit          3D

 24 23  0  0  1  0  0  0  0  0999 V2000
   27.1222  -16.1043  -15.8237 C   0  0  0  0  0  0  0  0  0  0  0  0
   27.5878  -17.4576  -16.3082 C   0  0  1  0  0  0  0  0  0  0  0  0
   28.3851  -17.3964  -17.4299 O   0  0  0  0  0  0  0  0  0  0  0  0
   28.1820  -18.2715  -15.1889 C   0  0  2  0  0  0  0  0  0  0  0  0
   28.8531  -19.4105  -15.7992 N   0  0  0  0  0  0  0  0  0  0  0  0
   27.1672  -18.7276  -14.1958 C   0  0  0  0  0  0  0  0  0  0  0  0
   26.4721  -17.9016  -13.5287 O   0  0  0  0  0  0  0  0  0  0  0  0
   23.7364  -23.4678  -12.4875 N   0  0  0  0  0  0  0  0  0  0  0  0
   24.0356  -22.1006  -12.7629 C   0  0  0  0  0  0  0  0  0  0  0  0
   23.3250  -21.2193  -12.2300 O   0  0  0  0  0  0  0  0  0  0  0  0
   25.1597  -21.7860  -13.6567 C   0  0  0  0  0  0  0  0  0  0  0  0
   25.8709  -20.5791  -13.0778 C   0  0  2  0  0  0  0  0  0  0  0  0
   26.9240  -20.1028  -13.9441 N   0  0  0  0  0  0  0  0  0  0  0  0
   26.3348  -20.9086  -11.7313 C   0  0  0  0  0  0  0  0  0  0  0  0
   27.3199  -21.6714  -11.5051 O   0  0  0  0  0  0  0  0  0  0  0  0
   28.3829  -19.3357   -4.6428 C   0  0  0  0  0  0  0  0  0  0  0  0
   28.0073  -18.8373   -6.3553 S   0  0  0  0  0  0  0  0  0  0  0  0
   27.0117  -20.2031   -7.0667 C   0  0  0  0  0  0  0  0  0  0  0  0
   26.7335  -19.8348   -8.5032 C   0  0  0  0  0  0  0  0  0  0  0  0
   25.9568  -20.8774   -9.2505 C   0  0  2  0  0  0  0  0  0  0  0  0
   25.6701  -20.3618  -10.6005 N   0  0  0  0  0  0  0  0  0  0  0  0
   24.6970  -21.2003   -8.5789 C   0  0  0  0  0  0  0  0  0  0  0  0
   23.5871  -20.8962   -9.0791 O   0  0  0  0  0  0  0  0  0  0  0  0
   24.6954  -21.8583   -7.3580 O   0  0  0  0  0  0  0  0  0  0  0  0
  2  1  1  1
  2  3  1  0
  2  4  1  0
  4  5  1  6
  6  4  1  0
  6  7  2  0
  8  9  1  0
  9 11  1  0
 10  9  2  0
 12 11  1  6
 12 13  1  0
 13  6  1  0
 14 12  1  0
 15 14  2  0
 16 17  1  0
 17 18  1  0
 18 19  1  0
 20 19  1  1
 20 21  1  0
 20 22  1  0
 21 14  1  0
 22 24  1  0
 23 22  2  0
M  END
$$$$
