TNM.pdb
     RDKit          3D

 24 23  0  0  1  0  0  0  0  0999 V2000
   13.6268   -9.4948  -12.3301 C   0  0  0  0  0  0  0  0  0  0  0  0
   13.9304   -9.9154  -10.9108 C   0  0  1  0  0  0  0  0  0  0  0  0
   13.4747  -11.1781  -10.6014 O   0  0  0  0  0  0  0  0  0  0  0  0
   15.3801   -9.6957  -10.5669 C   0  0  2  0  0  0  0  0  0  0  0  0
   15.5643  -10.1384   -9.1921 N   0  0  0  0  0  0  0  0  0  0  0  0
   15.8096   -8.2764  -10.7258 C   0  0  0  0  0  0  0  0  0  0  0  0
   15.8474   -7.7170  -11.8643 O   0  0  0  0  0  0  0  0  0  0  0  0
   14.0114   -5.6191   -9.7995 N   0  0  0  0  0  0  0  0  0  0  0  0
   14.6757   -5.1553   -8.6255 C   0  0  0  0  0  0  0  0  0  0  0  0
   13.9822   -4.6667   -7.7058 O   0  0  0  0  0  0  0  0  0  0  0  0
   16.1393   -5.2698   -8.5461 C   0  0  0  0  0  0  0  0  0  0  0  0
   16.5916   -6.0932   -9.7356 C   0  0  2  0  0  0  0  0  0  0  0  0
   16.1967   -7.4777   -9.6187 N   0  0  0  0  0  0  0  0  0  0  0  0
   18.0320   -5.9155   -9.9092 C   0  0  0  0  0  0  0  0  0  0  0  0
   18.8887   -6.3574   -9.0880 O   0  0  0  0  0  0  0  0  0  0  0  0
   22.7355   -9.4261  -13.9588 C   0  0  0  0  0  0  0  0  0  0  0  0
   21.1130   -8.9954  -13.2491 S   0  0  0  0  0  0  0  0  0  0  0  0
   21.2471   -7.2445  -12.7207 C   0  0  0  0  0  0  0  0  0  0  0  0
   19.9275   -6.8805  -12.0859 C   0  0  0  0  0  0  0  0  0  0  0  0
   19.8885   -5.4836  -11.5419 C   0  0  2  0  0  0  0  0  0  0  0  0
   18.5273   -5.2186  -11.0444 N   0  0  0  0  0  0  0  0  0  0  0  0
   20.2305   -4.4936  -12.5642 C   0  0  0  0  0  0  0  0  0  0  0  0
   19.3790   -4.0719  -13.3837 O   0  0  0  0  0  0  0  0  0  0  0  0
   21.5192   -3.9889  -12.6562 O   0  0  0  0  0  0  0  0  0  0  0  0
  2  1  1  6
  2  3  1  0
  2  4  1  0
  4  5  1  1
  6  4  1  0
  6  7  2  0
  8  9  1  0
  9 11  1  0
 10  9  2  0
 12 11  1  1
 12 13  1  0
 13  6  1  0
 14 12  1  0
 15 14  2  0
 16 17  1  0
 17 18  1  0
 18 19  1  0
 20 19  1  6
 20 21  1  0
 20 22  1  0
 21 14  1  0
 22 24  1  0
 23 22  2  0
M  END
$$$$
