TNM.pdb
     RDKit          3D

 24 23  0  0  1  0  0  0  0  0999 V2000
   29.1029  -20.2266  -18.9605 C   0  0  0  0  0  0  0  0  0  0  0  0
   28.2730  -20.0517  -17.7099 C   0  0  1  0  0  0  0  0  0  0  0  0
   29.0033  -19.6361  -16.6182 O   0  0  0  0  0  0  0  0  0  0  0  0
   27.0485  -19.2147  -17.9712 C   0  0  2  0  0  0  0  0  0  0  0  0
   27.5106  -17.9244  -18.4630 N   0  0  0  0  0  0  0  0  0  0  0  0
   26.1903  -19.0421  -16.7638 C   0  0  0  0  0  0  0  0  0  0  0  0
   26.1433  -17.9415  -16.1337 O   0  0  0  0  0  0  0  0  0  0  0  0
   21.7508  -21.1301  -13.2960 N   0  0  0  0  0  0  0  0  0  0  0  0
   22.4696  -20.1002  -13.9723 C   0  0  0  0  0  0  0  0  0  0  0  0
   22.4601  -18.9496  -13.4806 O   0  0  0  0  0  0  0  0  0  0  0  0
   23.1868  -20.4318  -15.2121 C   0  0  0  0  0  0  0  0  0  0  0  0
   24.6266  -19.9943  -15.0298 C   0  0  2  0  0  0  0  0  0  0  0  0
   25.3829  -20.0930  -16.2565 N   0  0  0  0  0  0  0  0  0  0  0  0
   25.2122  -20.7540  -13.9269 C   0  0  0  0  0  0  0  0  0  0  0  0
   26.1237  -21.6182  -14.0877 O   0  0  0  0  0  0  0  0  0  0  0  0
   30.3142  -21.3272   -9.0835 C   0  0  0  0  0  0  0  0  0  0  0  0
   29.4028  -20.7463  -10.5511 S   0  0  0  0  0  0  0  0  0  0  0  0
   27.6916  -21.3768  -10.3590 C   0  0  0  0  0  0  0  0  0  0  0  0
   26.8881  -20.8061  -11.5016 C   0  0  0  0  0  0  0  0  0  0  0  0
   25.4384  -21.1883  -11.4655 C   0  0  2  0  0  0  0  0  0  0  0  0
   24.7592  -20.5348  -12.5978 N   0  0  0  0  0  0  0  0  0  0  0  0
   24.7996  -20.7750  -10.2151 C   0  0  0  0  0  0  0  0  0  0  0  0
   24.0210  -19.7921  -10.1667 O   0  0  0  0  0  0  0  0  0  0  0  0
   25.0397  -21.4660   -9.0367 O   0  0  0  0  0  0  0  0  0  0  0  0
  2  1  1  6
  2  3  1  0
  2  4  1  0
  4  5  1  1
  6  4  1  0
  6  7  2  0
  8  9  1  0
  9 11  1  0
 10  9  2  0
 12 11  1  6
 12 13  1  0
 13  6  1  0
 14 12  1  0
 15 14  2  0
 16 17  1  0
 17 18  1  0
 18 19  1  0
 20 19  1  1
 20 21  1  0
 20 22  1  0
 21 14  1  0
 22 24  1  0
 23 22  2  0
M  END
$$$$
