TNM.pdb
     RDKit          3D

 24 23  0  0  1  0  0  0  0  0999 V2000
   12.8465   -8.6901  -12.2966 C   0  0  0  0  0  0  0  0  0  0  0  0
   12.8556   -9.9296  -11.4326 C   0  0  1  0  0  0  0  0  0  0  0  0
   12.1140  -10.9680  -11.9516 O   0  0  0  0  0  0  0  0  0  0  0  0
   14.2567  -10.3233  -11.0447 C   0  0  2  0  0  0  0  0  0  0  0  0
   14.1500  -11.5083  -10.2054 N   0  0  0  0  0  0  0  0  0  0  0  0
   14.9928   -9.2383  -10.3340 C   0  0  0  0  0  0  0  0  0  0  0  0
   14.8594   -9.0522   -9.0857 O   0  0  0  0  0  0  0  0  0  0  0  0
   19.3923   -8.1633  -12.3303 N   0  0  0  0  0  0  0  0  0  0  0  0
   18.7369   -7.7852  -11.1211 C   0  0  0  0  0  0  0  0  0  0  0  0
   19.0632   -8.3676  -10.0628 O   0  0  0  0  0  0  0  0  0  0  0  0
   17.7108   -6.7334  -11.1688 C   0  0  0  0  0  0  0  0  0  0  0  0
   16.5187   -7.2313  -10.3760 C   0  0  2  0  0  0  0  0  0  0  0  0
   15.8783   -8.3599  -11.0105 N   0  0  0  0  0  0  0  0  0  0  0  0
   15.6114   -6.1102  -10.1384 C   0  0  0  0  0  0  0  0  0  0  0  0
   14.8721   -5.6141  -11.0389 O   0  0  0  0  0  0  0  0  0  0  0  0
   11.3807   -2.7525   -4.4876 C   0  0  0  0  0  0  0  0  0  0  0  0
   12.6454   -3.9762   -4.9621 S   0  0  0  0  0  0  0  0  0  0  0  0
   13.0765   -3.5998   -6.7043 C   0  0  0  0  0  0  0  0  0  0  0  0
   14.0902   -4.6318   -7.1332 C   0  0  0  0  0  0  0  0  0  0  0  0
   14.5260   -4.4878   -8.5609 C   0  0  2  0  0  0  0  0  0  0  0  0
   15.5311   -5.5268   -8.8450 N   0  0  0  0  0  0  0  0  0  0  0  0
   15.1069   -3.1697   -8.8203 C   0  0  0  0  0  0  0  0  0  0  0  0
   16.3458   -2.9755   -8.7756 O   0  0  0  0  0  0  0  0  0  0  0  0
   14.2953   -2.0873   -9.1260 O   0  0  0  0  0  0  0  0  0  0  0  0
  2  1  1  6
  2  3  1  0
  2  4  1  0
  4  5  1  1
  6  4  1  0
  6  7  2  0
  8  9  1  0
  9 11  1  0
 10  9  2  0
 12 11  1  6
 12 13  1  0
 13  6  1  0
 14 12  1  0
 15 14  2  0
 16 17  1  0
 17 18  1  0
 18 19  1  0
 20 19  1  1
 20 21  1  0
 20 22  1  0
 21 14  1  0
 22 24  1  0
 23 22  2  0
M  END
$$$$
