TNM.pdb
     RDKit          3D

 24 23  0  0  1  0  0  0  0  0999 V2000
   27.7279  -16.3807  -15.8081 C   0  0  0  0  0  0  0  0  0  0  0  0
   27.6277  -17.8000  -16.3167 C   0  0  1  0  0  0  0  0  0  0  0  0
   28.3264  -18.0172  -17.4839 O   0  0  0  0  0  0  0  0  0  0  0  0
   27.9371  -18.7991  -15.2330 C   0  0  2  0  0  0  0  0  0  0  0  0
   28.0057  -20.1083  -15.8667 N   0  0  0  0  0  0  0  0  0  0  0  0
   26.9304  -18.7980  -14.1327 C   0  0  0  0  0  0  0  0  0  0  0  0
   26.7131  -17.7626  -13.4318 O   0  0  0  0  0  0  0  0  0  0  0  0
   21.8345  -21.3898  -12.0597 N   0  0  0  0  0  0  0  0  0  0  0  0
   22.8377  -20.3930  -12.2453 C   0  0  0  0  0  0  0  0  0  0  0  0
   22.8125  -19.3821  -11.5083 O   0  0  0  0  0  0  0  0  0  0  0  0
   23.8533  -20.5937  -13.2892 C   0  0  0  0  0  0  0  0  0  0  0  0
   25.1392  -19.9626  -12.7934 C   0  0  2  0  0  0  0  0  0  0  0  0
   26.1640  -19.9481  -13.8113 N   0  0  0  0  0  0  0  0  0  0  0  0
   25.5526  -20.6409  -11.5664 C   0  0  0  0  0  0  0  0  0  0  0  0
   25.9282  -21.8499  -11.5358 O   0  0  0  0  0  0  0  0  0  0  0  0
   29.6876  -19.7526   -6.0389 C   0  0  0  0  0  0  0  0  0  0  0  0
   27.9932  -19.0854   -5.9629 S   0  0  0  0  0  0  0  0  0  0  0  0
   26.9359  -20.3057   -6.8322 C   0  0  0  0  0  0  0  0  0  0  0  0
   26.6186  -19.7187   -8.1855 C   0  0  0  0  0  0  0  0  0  0  0  0
   25.8405  -20.6437   -9.0733 C   0  0  2  0  0  0  0  0  0  0  0  0
   25.5448  -19.9371  -10.3318 N   0  0  0  0  0  0  0  0  0  0  0  0
   24.5855  -21.0658   -8.4497 C   0  0  0  0  0  0  0  0  0  0  0  0
   24.5700  -21.7444   -7.3943 O   0  0  0  0  0  0  0  0  0  0  0  0
   23.3656  -20.7235   -9.0141 O   0  0  0  0  0  0  0  0  0  0  0  0
  2  1  1  1
  2  3  1  0
  2  4  1  0
  4  5  1  6
  6  4  1  0
  6  7  2  0
  8  9  1  0
  9 11  1  0
 10  9  2  0
 12 11  1  6
 12 13  1  0
 13  6  1  0
 14 12  1  0
 15 14  2  0
 16 17  1  0
 17 18  1  0
 18 19  1  0
 20 19  1  1
 20 21  1  0
 20 22  1  0
 21 14  1  0
 22 24  1  0
 23 22  2  0
M  END
$$$$
