TNM.pdb
     RDKit          3D

 24 23  0  0  1  0  0  0  0  0999 V2000
   18.9873  -13.3908  -15.2585 C   0  0  0  0  0  0  0  0  0  0  0  0
   18.6096  -13.8304  -16.6539 C   0  0  1  0  0  0  0  0  0  0  0  0
   18.3033  -15.1704  -16.7450 O   0  0  0  0  0  0  0  0  0  0  0  0
   17.5618  -12.9295  -17.2530 C   0  0  2  0  0  0  0  0  0  0  0  0
   17.2503  -13.4571  -18.5740 N   0  0  0  0  0  0  0  0  0  0  0  0
   17.9974  -11.5061  -17.3431 C   0  0  0  0  0  0  0  0  0  0  0  0
   18.8929  -11.1358  -18.1625 O   0  0  0  0  0  0  0  0  0  0  0  0
   17.1508   -6.0727  -17.5304 N   0  0  0  0  0  0  0  0  0  0  0  0
   17.2987   -6.7945  -16.3090 C   0  0  0  0  0  0  0  0  0  0  0  0
   17.8929   -6.2371  -15.3593 O   0  0  0  0  0  0  0  0  0  0  0  0
   16.7503   -8.1555  -16.2179 C   0  0  0  0  0  0  0  0  0  0  0  0
   17.8753   -9.1169  -16.5461 C   0  0  2  0  0  0  0  0  0  0  0  0
   17.4370  -10.4930  -16.5226 N   0  0  0  0  0  0  0  0  0  0  0  0
   18.9968   -8.8520  -15.6468 C   0  0  0  0  0  0  0  0  0  0  0  0
   19.0532   -9.2927  -14.4610 O   0  0  0  0  0  0  0  0  0  0  0  0
   25.6544  -11.0070  -14.6204 C   0  0  0  0  0  0  0  0  0  0  0  0
   24.6463  -10.0907  -15.8312 S   0  0  0  0  0  0  0  0  0  0  0  0
   23.2882   -9.3199  -14.8698 C   0  0  0  0  0  0  0  0  0  0  0  0
   22.4405   -8.5529  -15.8545 C   0  0  0  0  0  0  0  0  0  0  0  0
   21.2654   -7.8647  -15.2263 C   0  0  2  0  0  0  0  0  0  0  0  0
   20.0927   -8.0660  -16.0950 N   0  0  0  0  0  0  0  0  0  0  0  0
   21.5026   -6.4301  -15.0596 C   0  0  0  0  0  0  0  0  0  0  0  0
   21.1781   -5.6015  -15.9443 O   0  0  0  0  0  0  0  0  0  0  0  0
   22.0991   -5.9417  -13.9065 O   0  0  0  0  0  0  0  0  0  0  0  0
  2  1  1  1
  2  3  1  0
  2  4  1  0
  4  5  1  6
  6  4  1  0
  6  7  2  0
  8  9  1  0
  9 11  1  0
 10  9  2  0
 12 11  1  1
 12 13  1  0
 13  6  1  0
 14 12  1  0
 15 14  2  0
 16 17  1  0
 17 18  1  0
 18 19  1  0
 20 19  1  6
 20 21  1  0
 20 22  1  0
 21 14  1  0
 22 24  1  0
 23 22  2  0
M  END
$$$$
