TNM.pdb
     RDKit          3D

 24 23  0  0  1  0  0  0  0  0999 V2000
   20.0094   -8.8348  -19.2593 C   0  0  0  0  0  0  0  0  0  0  0  0
   19.0903   -9.7473  -18.4808 C   0  0  1  0  0  0  0  0  0  0  0  0
   18.8127  -10.9314  -19.1278 O   0  0  0  0  0  0  0  0  0  0  0  0
   19.5639   -9.9307  -17.0629 C   0  0  2  0  0  0  0  0  0  0  0  0
   18.6736  -10.8984  -16.4375 N   0  0  0  0  0  0  0  0  0  0  0  0
   19.5885   -8.6579  -16.2860 C   0  0  0  0  0  0  0  0  0  0  0  0
   18.5573   -7.9264  -16.1762 O   0  0  0  0  0  0  0  0  0  0  0  0
   20.8662   -4.6998  -13.5752 N   0  0  0  0  0  0  0  0  0  0  0  0
   21.9450   -5.5861  -13.2833 C   0  0  0  0  0  0  0  0  0  0  0  0
   22.7843   -5.2356  -12.4239 O   0  0  0  0  0  0  0  0  0  0  0  0
   22.0254   -6.8669  -14.0006 C   0  0  0  0  0  0  0  0  0  0  0  0
   20.8417   -6.9286  -14.9455 C   0  0  2  0  0  0  0  0  0  0  0  0
   20.7596   -8.1979  -15.6299 N   0  0  0  0  0  0  0  0  0  0  0  0
   20.9059   -5.7851  -15.8538 C   0  0  0  0  0  0  0  0  0  0  0  0
   21.5438   -5.8039  -16.9475 O   0  0  0  0  0  0  0  0  0  0  0  0
   18.8790   -2.5994  -21.6864 C   0  0  0  0  0  0  0  0  0  0  0  0
   18.7216   -3.7696  -20.2980 S   0  0  0  0  0  0  0  0  0  0  0  0
   19.6752   -3.0352  -18.9145 C   0  0  0  0  0  0  0  0  0  0  0  0
   19.4890   -3.9471  -17.7269 C   0  0  0  0  0  0  0  0  0  0  0  0
   20.1825   -3.4669  -16.4870 C   0  0  2  0  0  0  0  0  0  0  0  0
   20.2298   -4.5797  -15.5227 N   0  0  0  0  0  0  0  0  0  0  0  0
   19.4853   -2.3316  -15.8809 C   0  0  0  0  0  0  0  0  0  0  0  0
   18.6513   -2.4881  -14.9564 O   0  0  0  0  0  0  0  0  0  0  0  0
   19.7301   -1.0377  -16.3162 O   0  0  0  0  0  0  0  0  0  0  0  0
  2  1  1  6
  2  3  1  0
  2  4  1  0
  4  5  1  1
  6  4  1  0
  6  7  2  0
  8  9  1  0
  9 11  1  0
 10  9  2  0
 12 11  1  6
 12 13  1  0
 13  6  1  0
 14 12  1  0
 15 14  2  0
 16 17  1  0
 17 18  1  0
 18 19  1  0
 20 19  1  6
 20 21  1  0
 20 22  1  0
 21 14  1  0
 22 24  1  0
 23 22  2  0
M  END
$$$$
