TNM.pdb
     RDKit          3D

 24 23  0  0  1  0  0  0  0  0999 V2000
   28.6623  -18.6757  -14.9430 C   0  0  0  0  0  0  0  0  0  0  0  0
   27.9577  -17.6437  -15.7927 C   0  0  1  0  0  0  0  0  0  0  0  0
   28.6642  -17.2821  -16.9185 O   0  0  0  0  0  0  0  0  0  0  0  0
   26.5325  -18.0401  -16.0757 C   0  0  2  0  0  0  0  0  0  0  0  0
   25.9535  -16.9896  -16.9012 N   0  0  0  0  0  0  0  0  0  0  0  0
   25.7257  -18.2428  -14.8379 C   0  0  0  0  0  0  0  0  0  0  0  0
   25.1574  -17.2730  -14.2488 O   0  0  0  0  0  0  0  0  0  0  0  0
   21.8401  -19.7630  -11.6879 N   0  0  0  0  0  0  0  0  0  0  0  0
   22.8435  -20.7207  -12.0207 C   0  0  0  0  0  0  0  0  0  0  0  0
   23.0809  -21.6387  -11.2042 O   0  0  0  0  0  0  0  0  0  0  0  0
   23.5531  -20.5895  -13.3016 C   0  0  0  0  0  0  0  0  0  0  0  0
   24.7902  -19.7514  -13.0470 C   0  0  2  0  0  0  0  0  0  0  0  0
   25.5495  -19.5243  -14.2546 N   0  0  0  0  0  0  0  0  0  0  0  0
   25.5712  -20.3784  -11.9823 C   0  0  0  0  0  0  0  0  0  0  0  0
   26.3121  -21.3881  -12.1691 O   0  0  0  0  0  0  0  0  0  0  0  0
   28.5847  -19.3022   -4.8150 C   0  0  0  0  0  0  0  0  0  0  0  0
   27.7738  -18.5973   -6.2873 S   0  0  0  0  0  0  0  0  0  0  0  0
   27.3326  -20.0269   -7.3477 C   0  0  0  0  0  0  0  0  0  0  0  0
   26.6499  -19.4657   -8.5706 C   0  0  0  0  0  0  0  0  0  0  0  0
   26.2588  -20.5110   -9.5724 C   0  0  2  0  0  0  0  0  0  0  0  0
   25.5188  -19.8527  -10.6630 N   0  0  0  0  0  0  0  0  0  0  0  0
   25.4166  -21.5476   -8.9738 C   0  0  0  0  0  0  0  0  0  0  0  0
   24.2669  -21.2931   -8.5402 O   0  0  0  0  0  0  0  0  0  0  0  0
   25.8710  -22.8538   -8.8683 O   0  0  0  0  0  0  0  0  0  0  0  0
  2  1  1  6
  2  3  1  0
  2  4  1  0
  4  5  1  6
  6  4  1  0
  6  7  2  0
  8  9  1  0
  9 11  1  0
 10  9  2  0
 12 11  1  6
 12 13  1  0
 13  6  1  0
 14 12  1  0
 15 14  2  0
 16 17  1  0
 17 18  1  0
 18 19  1  0
 20 19  1  1
 20 21  1  0
 20 22  1  0
 21 14  1  0
 22 24  1  0
 23 22  2  0
M  END
$$$$
