TNM.pdb
     RDKit          3D

 24 23  0  0  1  0  0  0  0  0999 V2000
   21.7786  -19.5923  -12.5562 C   0  0  0  0  0  0  0  0  0  0  0  0
   21.4672  -19.7092  -14.0302 C   0  0  1  0  0  0  0  0  0  0  0  0
   20.2093  -19.2580  -14.3646 O   0  0  0  0  0  0  0  0  0  0  0  0
   22.5649  -19.1191  -14.8759 C   0  0  2  0  0  0  0  0  0  0  0  0
   22.0978  -19.1379  -16.2549 N   0  0  0  0  0  0  0  0  0  0  0  0
   23.8584  -19.8501  -14.7474 C   0  0  0  0  0  0  0  0  0  0  0  0
   24.0970  -20.9015  -15.4168 O   0  0  0  0  0  0  0  0  0  0  0  0
   28.4287  -21.3604  -13.4495 N   0  0  0  0  0  0  0  0  0  0  0  0
   28.5232  -20.0996  -14.1099 C   0  0  0  0  0  0  0  0  0  0  0  0
   29.6406  -19.7391  -14.5425 O   0  0  0  0  0  0  0  0  0  0  0  0
   27.3105  -19.2808  -14.2534 C   0  0  0  0  0  0  0  0  0  0  0  0
   26.1496  -20.0994  -13.7243 C   0  0  2  0  0  0  0  0  0  0  0  0
   24.8881  -19.4121  -13.8748 N   0  0  0  0  0  0  0  0  0  0  0  0
   26.4371  -20.4845  -12.3439 C   0  0  0  0  0  0  0  0  0  0  0  0
   27.3515  -19.9483  -11.6510 O   0  0  0  0  0  0  0  0  0  0  0  0
   29.2060  -20.5503   -7.7569 C   0  0  0  0  0  0  0  0  0  0  0  0
   27.7511  -19.4711   -7.5557 S   0  0  0  0  0  0  0  0  0  0  0  0
   26.3168  -20.4503   -8.1445 C   0  0  0  0  0  0  0  0  0  0  0  0
   26.4969  -20.6324   -9.6315 C   0  0  0  0  0  0  0  0  0  0  0  0
   25.4259  -21.4673  -10.2679 C   0  0  2  0  0  0  0  0  0  0  0  0
   25.6710  -21.5060  -11.7201 N   0  0  0  0  0  0  0  0  0  0  0  0
   24.0915  -20.9206  -10.0174 C   0  0  0  0  0  0  0  0  0  0  0  0
   23.4993  -20.2130  -10.8678 O   0  0  0  0  0  0  0  0  0  0  0  0
   23.4378  -21.1723   -8.8203 O   0  0  0  0  0  0  0  0  0  0  0  0
  2  1  1  1
  2  3  1  0
  2  4  1  0
  4  5  1  6
  6  4  1  0
  6  7  2  0
  8  9  1  0
  9 11  1  0
 10  9  2  0
 12 11  1  1
 12 13  1  0
 13  6  1  0
 14 12  1  0
 15 14  2  0
 16 17  1  0
 17 18  1  0
 18 19  1  0
 20 19  1  1
 20 21  1  0
 20 22  1  0
 21 14  1  0
 22 24  1  0
 23 22  2  0
M  END
$$$$
