TNM.pdb
     RDKit          3D

 24 23  0  0  1  0  0  0  0  0999 V2000
   29.9623  -24.2377  -16.9295 C   0  0  0  0  0  0  0  0  0  0  0  0
   28.8362  -24.1182  -17.9299 C   0  0  1  0  0  0  0  0  0  0  0  0
   28.9259  -25.0173  -18.9698 O   0  0  0  0  0  0  0  0  0  0  0  0
   27.4917  -24.1123  -17.2512 C   0  0  2  0  0  0  0  0  0  0  0  0
   26.4876  -23.9623  -18.2950 N   0  0  0  0  0  0  0  0  0  0  0  0
   27.3570  -23.0329  -16.2310 C   0  0  0  0  0  0  0  0  0  0  0  0
   28.1281  -22.9693  -15.2250 O   0  0  0  0  0  0  0  0  0  0  0  0
   27.9074  -18.6476  -16.4240 N   0  0  0  0  0  0  0  0  0  0  0  0
   26.6969  -19.1897  -16.9489 C   0  0  0  0  0  0  0  0  0  0  0  0
   26.5505  -19.2197  -18.1913 O   0  0  0  0  0  0  0  0  0  0  0  0
   25.6775  -19.6870  -16.0136 C   0  0  0  0  0  0  0  0  0  0  0  0
   26.2286  -20.9466  -15.3753 C   0  0  2  0  0  0  0  0  0  0  0  0
   26.3652  -22.0229  -16.3289 N   0  0  0  0  0  0  0  0  0  0  0  0
   25.3945  -21.2944  -14.2264 C   0  0  0  0  0  0  0  0  0  0  0  0
   24.2499  -21.8248  -14.3364 O   0  0  0  0  0  0  0  0  0  0  0  0
   26.5194  -19.4697   -7.4063 C   0  0  0  0  0  0  0  0  0  0  0  0
   26.1317  -21.1960   -7.8443 S   0  0  0  0  0  0  0  0  0  0  0  0
   24.9469  -21.1035   -9.2408 C   0  0  0  0  0  0  0  0  0  0  0  0
   25.7694  -20.9982  -10.5014 C   0  0  0  0  0  0  0  0  0  0  0  0
   25.0015  -21.3232  -11.7479 C   0  0  2  0  0  0  0  0  0  0  0  0
   25.8624  -21.0388  -12.9091 N   0  0  0  0  0  0  0  0  0  0  0  0
   23.7744  -20.5321  -11.8507 C   0  0  0  0  0  0  0  0  0  0  0  0
   23.7627  -19.4026  -12.3973 O   0  0  0  0  0  0  0  0  0  0  0  0
   22.5779  -21.0144  -11.3415 O   0  0  0  0  0  0  0  0  0  0  0  0
  2  1  1  1
  2  3  1  0
  2  4  1  0
  4  5  1  6
  6  4  1  0
  6  7  2  0
  8  9  1  0
  9 11  1  0
 10  9  2  0
 12 11  1  6
 12 13  1  0
 13  6  1  0
 14 12  1  0
 15 14  2  0
 16 17  1  0
 17 18  1  0
 18 19  1  0
 20 19  1  1
 20 21  1  0
 20 22  1  0
 21 14  1  0
 22 24  1  0
 23 22  2  0
M  END
$$$$
