TNM.pdb
     RDKit          3D

 24 23  0  0  1  0  0  0  0  0999 V2000
   21.7135  -17.4045  -16.8940 C   0  0  0  0  0  0  0  0  0  0  0  0
   22.1301  -17.3642  -18.3460 C   0  0  1  0  0  0  0  0  0  0  0  0
   21.4275  -16.4461  -19.0950 O   0  0  0  0  0  0  0  0  0  0  0  0
   23.6245  -17.2435  -18.4895 C   0  0  2  0  0  0  0  0  0  0  0  0
   23.9214  -17.2901  -19.9142 N   0  0  0  0  0  0  0  0  0  0  0  0
   24.3694  -18.3101  -17.7605 C   0  0  0  0  0  0  0  0  0  0  0  0
   24.5184  -19.4708  -18.2516 O   0  0  0  0  0  0  0  0  0  0  0  0
   27.9879  -19.7988  -13.2424 N   0  0  0  0  0  0  0  0  0  0  0  0
   27.5264  -19.9520  -14.5833 C   0  0  0  0  0  0  0  0  0  0  0  0
   27.6111  -21.0819  -15.1140 O   0  0  0  0  0  0  0  0  0  0  0  0
   26.9742  -18.7822  -15.2819 C   0  0  0  0  0  0  0  0  0  0  0  0
   25.5577  -19.1311  -15.6935 C   0  0  2  0  0  0  0  0  0  0  0  0
   24.9500  -18.0868  -16.4851 N   0  0  0  0  0  0  0  0  0  0  0  0
   24.7906  -19.4694  -14.4962 C   0  0  0  0  0  0  0  0  0  0  0  0
   24.4686  -18.6179  -13.6159 O   0  0  0  0  0  0  0  0  0  0  0  0
   27.1263  -20.6970   -9.9726 C   0  0  0  0  0  0  0  0  0  0  0  0
   25.4718  -20.2482   -9.3535 S   0  0  0  0  0  0  0  0  0  0  0  0
   24.2779  -21.0320  -10.5037 C   0  0  0  0  0  0  0  0  0  0  0  0
   24.7302  -20.6858  -11.9010 C   0  0  0  0  0  0  0  0  0  0  0  0
   23.8250  -21.2149  -12.9732 C   0  0  2  0  0  0  0  0  0  0  0  0
   24.3702  -20.8097  -14.2805 N   0  0  0  0  0  0  0  0  0  0  0  0
   22.4626  -20.6979  -12.8365 C   0  0  0  0  0  0  0  0  0  0  0  0
   21.7684  -20.9320  -11.8177 O   0  0  0  0  0  0  0  0  0  0  0  0
   21.8952  -19.9267  -13.8400 O   0  0  0  0  0  0  0  0  0  0  0  0
  2  1  1  1
  2  3  1  0
  2  4  1  0
  4  5  1  6
  6  4  1  0
  6  7  2  0
  8  9  1  0
  9 11  1  0
 10  9  2  0
 12 11  1  1
 12 13  1  0
 13  6  1  0
 14 12  1  0
 15 14  2  0
 16 17  1  0
 17 18  1  0
 18 19  1  0
 20 19  1  1
 20 21  1  0
 20 22  1  0
 21 14  1  0
 22 24  1  0
 23 22  2  0
M  END
$$$$
