TNM.pdb
     RDKit          3D

 24 23  0  0  1  0  0  0  0  0999 V2000
   21.2460  -21.5884  -15.6301 C   0  0  0  0  0  0  0  0  0  0  0  0
   20.4712  -21.4836  -14.3371 C   0  0  1  0  0  0  0  0  0  0  0  0
   19.3375  -22.2656  -14.3098 O   0  0  0  0  0  0  0  0  0  0  0  0
   21.3649  -21.6739  -13.1398 C   0  0  2  0  0  0  0  0  0  0  0  0
   20.5171  -21.5984  -11.9584 N   0  0  0  0  0  0  0  0  0  0  0  0
   22.4638  -20.6684  -13.0653 C   0  0  0  0  0  0  0  0  0  0  0  0
   22.2243  -19.4338  -12.8951 O   0  0  0  0  0  0  0  0  0  0  0  0
   24.4796  -21.5244  -11.1284 N   0  0  0  0  0  0  0  0  0  0  0  0
   25.8485  -21.4337  -11.5188 C   0  0  0  0  0  0  0  0  0  0  0  0
   26.6998  -22.0545  -10.8439 O   0  0  0  0  0  0  0  0  0  0  0  0
   26.1998  -20.6189  -12.6910 C   0  0  0  0  0  0  0  0  0  0  0  0
   24.9065  -20.0760  -13.2657 C   0  0  2  0  0  0  0  0  0  0  0  0
   23.8298  -21.0350  -13.1793 N   0  0  0  0  0  0  0  0  0  0  0  0
   25.1574  -19.6097  -14.6282 C   0  0  0  0  0  0  0  0  0  0  0  0
   26.1115  -20.0376  -15.3424 O   0  0  0  0  0  0  0  0  0  0  0  0
   22.8719  -21.7202  -18.6788 C   0  0  0  0  0  0  0  0  0  0  0  0
   24.0092  -20.8197  -19.7823 S   0  0  0  0  0  0  0  0  0  0  0  0
   24.3613  -19.2266  -18.9452 C   0  0  0  0  0  0  0  0  0  0  0  0
   24.2471  -19.4810  -17.4623 C   0  0  0  0  0  0  0  0  0  0  0  0
   24.4647  -18.2562  -16.6248 C   0  0  2  0  0  0  0  0  0  0  0  0
   24.3070  -18.6301  -15.2085 N   0  0  0  0  0  0  0  0  0  0  0  0
   23.5095  -17.1973  -16.9542 C   0  0  0  0  0  0  0  0  0  0  0  0
   23.6287  -16.5023  -17.9922 O   0  0  0  0  0  0  0  0  0  0  0  0
   22.4347  -16.9301  -16.1193 O   0  0  0  0  0  0  0  0  0  0  0  0
  2  1  1  6
  2  3  1  0
  2  4  1  0
  4  5  1  1
  6  4  1  0
  6  7  2  0
  8  9  1  0
  9 11  1  0
 10  9  2  0
 12 11  1  6
 12 13  1  0
 13  6  1  0
 14 12  1  0
 15 14  2  0
 16 17  1  0
 17 18  1  0
 18 19  1  0
 20 19  1  6
 20 21  1  0
 20 22  1  0
 21 14  1  0
 22 24  1  0
 23 22  2  0
M  END
$$$$
