KMT.pdb
     RDKit          3D

 25 24  0  0  1  0  0  0  0  0999 V2000
   27.8856  -21.2068  -15.0554 N   0  0  0  0  0  0  0  0  0  0  0  0
   27.7793  -20.3629  -13.9135 C   0  0  1  0  0  0  0  0  0  0  0  0
   27.6213  -18.9260  -14.2784 C   0  0  0  0  0  0  0  0  0  0  0  0
   27.3655  -18.6248  -15.7019 C   0  0  0  0  0  0  0  0  0  0  0  0
   25.9422  -18.4223  -16.0877 C   0  0  0  0  0  0  0  0  0  0  0  0
   25.8660  -18.1392  -17.6072 C   0  0  0  0  0  0  0  0  0  0  0  0
   24.4815  -17.9046  -17.9667 N   0  0  0  0  0  0  0  0  0  0  0  0
   26.7333  -20.8226  -12.9599 C   0  0  0  0  0  0  0  0  0  0  0  0
   25.9997  -21.7722  -13.3203 O   0  0  0  0  0  0  0  0  0  0  0  0
   26.2327  -19.5539   -6.3248 C   0  0  0  0  0  0  0  0  0  0  0  0
   27.7660  -19.8412   -7.2869 S   0  0  0  0  0  0  0  0  0  0  0  0
   27.2870  -20.7747   -8.7599 C   0  0  0  0  0  0  0  0  0  0  0  0
   25.9766  -20.3625   -9.3187 C   0  0  0  0  0  0  0  0  0  0  0  0
   25.6744  -20.8636  -10.6873 C   0  0  2  0  0  0  0  0  0  0  0  0
   26.5210  -20.2621  -11.6931 N   0  0  0  0  0  0  0  0  0  0  0  0
   24.2598  -20.6954  -11.1128 C   0  0  0  0  0  0  0  0  0  0  0  0
   23.3600  -21.0506  -10.3063 O   0  0  0  0  0  0  0  0  0  0  0  0
   22.8176  -19.4023  -14.9782 C   0  0  0  0  0  0  0  0  0  0  0  0
   22.2185  -18.9018  -13.6667 C   0  0  1  0  0  0  0  0  0  0  0  0
   20.8384  -18.8207  -13.8591 O   0  0  0  0  0  0  0  0  0  0  0  0
   22.4536  -19.9958  -12.6463 C   0  0  2  0  0  0  0  0  0  0  0  0
   23.8539  -20.1705  -12.3458 N   0  0  0  0  0  0  0  0  0  0  0  0
   21.7883  -21.2534  -13.0217 C   0  0  0  0  0  0  0  0  0  0  0  0
   20.4168  -21.3850  -13.1192 O   0  0  0  0  0  0  0  0  0  0  0  0
   22.4973  -22.2583  -13.2661 O   0  0  0  0  0  0  0  0  0  0  0  0
  2  1  1  6
  2  3  1  0
  4  5  1  0
  4  3  1  0
  6  5  1  0
  6  7  1  0
  8  2  1  0
  9  8  2  0
 11 10  1  0
 11 12  1  0
 13 12  1  0
 14 13  1  1
 14 15  1  0
 15  8  1  0
 16 14  1  0
 16 17  2  0
 19 21  1  0
 19 18  1  6
 20 19  1  0
 21 22  1  6
 22 16  1  0
 23 21  1  0
 24 23  1  0
 25 23  2  0
M  END
$$$$
