KMT.pdb
     RDKit          3D

 25 24  0  0  1  0  0  0  0  0999 V2000
   23.3669  -18.3393  -17.8372 N   0  0  0  0  0  0  0  0  0  0  0  0
   23.4995  -17.0469  -18.4201 C   0  0  1  0  0  0  0  0  0  0  0  0
   23.9836  -17.1031  -19.8291 C   0  0  0  0  0  0  0  0  0  0  0  0
   25.3385  -17.6506  -20.0462 C   0  0  0  0  0  0  0  0  0  0  0  0
   26.4023  -17.1620  -19.1269 C   0  0  0  0  0  0  0  0  0  0  0  0
   27.7423  -17.8413  -19.4985 C   0  0  0  0  0  0  0  0  0  0  0  0
   28.0939  -18.7784  -18.4501 N   0  0  0  0  0  0  0  0  0  0  0  0
   22.2649  -16.2280  -18.2785 C   0  0  0  0  0  0  0  0  0  0  0  0
   21.3613  -16.3923  -19.1308 O   0  0  0  0  0  0  0  0  0  0  0  0
   15.7629  -16.0201  -16.1013 C   0  0  0  0  0  0  0  0  0  0  0  0
   17.3855  -15.7249  -15.3020 S   0  0  0  0  0  0  0  0  0  0  0  0
   18.5072  -15.1535  -16.6003 C   0  0  0  0  0  0  0  0  0  0  0  0
   19.9076  -14.9907  -16.1399 C   0  0  0  0  0  0  0  0  0  0  0  0
   20.8638  -14.4762  -17.1578 C   0  0  2  0  0  0  0  0  0  0  0  0
   22.0535  -15.2916  -17.2574 N   0  0  0  0  0  0  0  0  0  0  0  0
   21.2862  -13.0648  -16.9569 C   0  0  0  0  0  0  0  0  0  0  0  0
   22.2705  -12.8506  -16.2007 O   0  0  0  0  0  0  0  0  0  0  0  0
   22.6758  -10.6150  -19.2028 C   0  0  0  0  0  0  0  0  0  0  0  0
   21.4899   -9.8838  -18.5796 C   0  0  1  0  0  0  0  0  0  0  0  0
   20.4061  -10.0673  -19.4397 O   0  0  0  0  0  0  0  0  0  0  0  0
   21.1605  -10.6213  -17.2986 C   0  0  2  0  0  0  0  0  0  0  0  0
   20.6694  -11.9550  -17.5472 N   0  0  0  0  0  0  0  0  0  0  0  0
   20.2728   -9.8392  -16.4237 C   0  0  0  0  0  0  0  0  0  0  0  0
   19.0371  -10.2892  -16.0015 O   0  0  0  0  0  0  0  0  0  0  0  0
   20.6525   -8.7075  -16.0399 O   0  0  0  0  0  0  0  0  0  0  0  0
  2  1  1  6
  2  3  1  0
  4  5  1  0
  4  3  1  0
  6  5  1  0
  6  7  1  0
  8  2  1  0
  9  8  2  0
 11 10  1  0
 11 12  1  0
 13 12  1  0
 14 13  1  1
 14 15  1  0
 15  8  1  0
 16 14  1  0
 16 17  2  0
 19 21  1  0
 19 18  1  6
 20 19  1  0
 21 22  1  6
 22 16  1  0
 23 21  1  0
 24 23  1  0
 25 23  2  0
M  END
$$$$
