KMT.pdb
     RDKit          3D

 25 24  0  0  1  0  0  0  0  0999 V2000
   18.5174  -12.9210  -18.4496 N   0  0  0  0  0  0  0  0  0  0  0  0
   18.4689  -11.5129  -18.6554 C   0  0  1  0  0  0  0  0  0  0  0  0
   17.2153  -11.0783  -19.3353 C   0  0  0  0  0  0  0  0  0  0  0  0
   16.9135  -11.7044  -20.6390 C   0  0  0  0  0  0  0  0  0  0  0  0
   15.7945  -11.1040  -21.4155 C   0  0  0  0  0  0  0  0  0  0  0  0
   15.5621  -11.9412  -22.6963 C   0  0  0  0  0  0  0  0  0  0  0  0
   15.4373  -13.3361  -22.3226 N   0  0  0  0  0  0  0  0  0  0  0  0
   18.7312  -10.7449  -17.4079 C   0  0  0  0  0  0  0  0  0  0  0  0
   18.3237  -11.2364  -16.3299 O   0  0  0  0  0  0  0  0  0  0  0  0
   23.0864  -10.5364  -13.5049 C   0  0  0  0  0  0  0  0  0  0  0  0
   23.0549   -8.7230  -13.7690 S   0  0  0  0  0  0  0  0  0  0  0  0
   21.4039   -8.3169  -14.3851 C   0  0  0  0  0  0  0  0  0  0  0  0
   21.0458   -9.0377  -15.6308 C   0  0  0  0  0  0  0  0  0  0  0  0
   19.6693   -8.7942  -16.1420 C   0  0  2  0  0  0  0  0  0  0  0  0
   19.4013   -9.5147  -17.3664 N   0  0  0  0  0  0  0  0  0  0  0  0
   19.3328   -7.3631  -16.3646 C   0  0  0  0  0  0  0  0  0  0  0  0
   19.7272   -6.8289  -17.4348 O   0  0  0  0  0  0  0  0  0  0  0  0
   16.8764   -3.2441  -15.5508 C   0  0  0  0  0  0  0  0  0  0  0  0
   17.0795   -4.6830  -15.0844 C   0  0  1  0  0  0  0  0  0  0  0  0
   16.0126   -5.4257  -15.5925 O   0  0  0  0  0  0  0  0  0  0  0  0
   18.3293   -5.1831  -15.7781 C   0  0  2  0  0  0  0  0  0  0  0  0
   18.6087   -6.5648  -15.4707 N   0  0  0  0  0  0  0  0  0  0  0  0
   19.4828   -4.3005  -15.5421 C   0  0  0  0  0  0  0  0  0  0  0  0
   20.5632   -4.6591  -14.7599 O   0  0  0  0  0  0  0  0  0  0  0  0
   19.4898   -3.1657  -16.0753 O   0  0  0  0  0  0  0  0  0  0  0  0
  2  1  1  1
  2  3  1  0
  4  5  1  0
  4  3  1  0
  6  5  1  0
  6  7  1  0
  8  2  1  0
  9  8  2  0
 11 10  1  0
 11 12  1  0
 13 12  1  0
 14 13  1  6
 14 15  1  0
 15  8  1  0
 16 14  1  0
 16 17  2  0
 19 21  1  0
 19 18  1  6
 20 19  1  0
 21 22  1  1
 22 16  1  0
 23 21  1  0
 24 23  1  0
 25 23  2  0
M  END
$$$$
