KMT.pdb
     RDKit          3D

 25 24  0  0  1  0  0  0  0  0999 V2000
   22.3909  -25.6468  -14.3389 N   0  0  0  0  0  0  0  0  0  0  0  0
   21.9782  -24.4150  -14.9218 C   0  0  1  0  0  0  0  0  0  0  0  0
   20.5129  -24.3750  -15.1940 C   0  0  0  0  0  0  0  0  0  0  0  0
   19.6324  -25.0150  -14.1952 C   0  0  0  0  0  0  0  0  0  0  0  0
   19.5639  -24.3599  -12.8604 C   0  0  0  0  0  0  0  0  0  0  0  0
   18.5298  -25.1064  -11.9837 C   0  0  0  0  0  0  0  0  0  0  0  0
   18.4597  -24.4536  -10.6915 N   0  0  0  0  0  0  0  0  0  0  0  0
   22.4417  -23.2330  -14.1452 C   0  0  0  0  0  0  0  0  0  0  0  0
   21.5903  -22.3597  -13.8584 O   0  0  0  0  0  0  0  0  0  0  0  0
   24.0400  -20.4956   -8.9944 C   0  0  0  0  0  0  0  0  0  0  0  0
   25.7430  -20.8445   -9.5749 S   0  0  0  0  0  0  0  0  0  0  0  0
   25.6996  -20.7768  -11.3815 C   0  0  0  0  0  0  0  0  0  0  0  0
   25.1564  -22.0081  -12.0047 C   0  0  0  0  0  0  0  0  0  0  0  0
   24.2461  -21.7954  -13.1628 C   0  0  2  0  0  0  0  0  0  0  0  0
   23.7625  -23.0393  -13.7187 N   0  0  0  0  0  0  0  0  0  0  0  0
   24.8256  -20.9888  -14.2693 C   0  0  0  0  0  0  0  0  0  0  0  0
   26.0652  -21.0798  -14.4726 O   0  0  0  0  0  0  0  0  0  0  0  0
   24.8654  -21.1380  -17.7130 C   0  0  0  0  0  0  0  0  0  0  0  0
   24.3696  -19.7096  -17.5055 C   0  0  1  0  0  0  0  0  0  0  0  0
   22.9750  -19.7583  -17.5387 O   0  0  0  0  0  0  0  0  0  0  0  0
   24.7595  -19.3244  -16.0938 C   0  0  2  0  0  0  0  0  0  0  0  0
   24.0935  -20.1346  -15.1029 N   0  0  0  0  0  0  0  0  0  0  0  0
   24.6025  -17.8815  -15.8517 C   0  0  0  0  0  0  0  0  0  0  0  0
   25.2570  -16.9142  -16.5891 O   0  0  0  0  0  0  0  0  0  0  0  0
   23.8377  -17.5066  -14.9315 O   0  0  0  0  0  0  0  0  0  0  0  0
  2  1  1  1
  2  3  1  0
  4  5  1  0
  4  3  1  0
  6  5  1  0
  6  7  1  0
  8  2  1  0
  9  8  2  0
 11 10  1  0
 11 12  1  0
 13 12  1  0
 14 13  1  1
 14 15  1  0
 15  8  1  0
 16 14  1  0
 16 17  2  0
 19 21  1  0
 19 18  1  1
 20 19  1  0
 21 22  1  1
 22 16  1  0
 23 21  1  0
 24 23  1  0
 25 23  2  0
M  END
$$$$
