KMT.pdb
     RDKit          3D

 25 24  0  0  1  0  0  0  0  0999 V2000
   22.8171  -14.3295  -17.6301 N   0  0  0  0  0  0  0  0  0  0  0  0
   22.1019  -13.1010  -17.5470 C   0  0  1  0  0  0  0  0  0  0  0  0
   20.6436  -13.3042  -17.3132 C   0  0  0  0  0  0  0  0  0  0  0  0
   19.9432  -14.2227  -18.2344 C   0  0  0  0  0  0  0  0  0  0  0  0
   18.4580  -14.2462  -18.1393 C   0  0  0  0  0  0  0  0  0  0  0  0
   17.9023  -15.2647  -19.1635 C   0  0  0  0  0  0  0  0  0  0  0  0
   16.4555  -15.2695  -19.0750 N   0  0  0  0  0  0  0  0  0  0  0  0
   22.7050  -12.1549  -16.5692 C   0  0  0  0  0  0  0  0  0  0  0  0
   22.4451  -12.3332  -15.3565 O   0  0  0  0  0  0  0  0  0  0  0  0
   28.6802  -12.9968  -15.0114 C   0  0  0  0  0  0  0  0  0  0  0  0
   28.0725  -11.3844  -15.6361 S   0  0  0  0  0  0  0  0  0  0  0  0
   26.2677  -11.4353  -15.5341 C   0  0  0  0  0  0  0  0  0  0  0  0
   25.6153  -10.1900  -16.0064 C   0  0  0  0  0  0  0  0  0  0  0  0
   24.1278  -10.1836  -15.9549 C   0  0  2  0  0  0  0  0  0  0  0  0
   23.5396  -11.0851  -16.9200 N   0  0  0  0  0  0  0  0  0  0  0  0
   23.5052   -8.8452  -16.1332 C   0  0  0  0  0  0  0  0  0  0  0  0
   23.5808   -8.3117  -17.2716 O   0  0  0  0  0  0  0  0  0  0  0  0
   20.0231   -8.1065  -15.8797 C   0  0  0  0  0  0  0  0  0  0  0  0
   21.0498   -7.1611  -16.4974 C   0  0  1  0  0  0  0  0  0  0  0  0
   20.4048   -5.9392  -16.6951 O   0  0  0  0  0  0  0  0  0  0  0  0
   22.1074   -6.9303  -15.4384 C   0  0  2  0  0  0  0  0  0  0  0  0
   22.8403   -8.1335  -15.1272 N   0  0  0  0  0  0  0  0  0  0  0  0
   21.5578   -6.2706  -14.2435 C   0  0  0  0  0  0  0  0  0  0  0  0
   20.9817   -5.0155  -14.2687 O   0  0  0  0  0  0  0  0  0  0  0  0
   21.6129   -6.8738  -13.1456 O   0  0  0  0  0  0  0  0  0  0  0  0
  2  1  1  1
  2  3  1  0
  4  5  1  0
  4  3  1  0
  6  5  1  0
  6  7  1  0
  8  2  1  0
  9  8  2  0
 11 10  1  0
 11 12  1  0
 13 12  1  0
 14 13  1  6
 14 15  1  0
 15  8  1  0
 16 14  1  0
 16 17  2  0
 19 21  1  0
 19 18  1  1
 20 19  1  0
 21 22  1  1
 22 16  1  0
 23 21  1  0
 24 23  1  0
 25 23  2  0
M  END
$$$$
