KMT.pdb
     RDKit          3D

 25 24  0  0  1  0  0  0  0  0999 V2000
   27.8973  -22.1733  -16.1840 N   0  0  0  0  0  0  0  0  0  0  0  0
   27.4622  -21.0615  -15.4082 C   0  0  1  0  0  0  0  0  0  0  0  0
   26.7975  -20.0138  -16.2348 C   0  0  0  0  0  0  0  0  0  0  0  0
   27.6020  -19.4095  -17.3166 C   0  0  0  0  0  0  0  0  0  0  0  0
   28.8625  -18.7347  -16.9028 C   0  0  0  0  0  0  0  0  0  0  0  0
   29.5177  -18.0830  -18.1443 C   0  0  0  0  0  0  0  0  0  0  0  0
   30.7885  -17.5078  -17.7502 N   0  0  0  0  0  0  0  0  0  0  0  0
   26.6349  -21.4697  -14.2403 C   0  0  0  0  0  0  0  0  0  0  0  0
   25.8393  -22.4242  -14.4008 O   0  0  0  0  0  0  0  0  0  0  0  0
   27.7034  -20.5463   -7.9104 C   0  0  0  0  0  0  0  0  0  0  0  0
   25.9035  -20.2013   -7.8961 S   0  0  0  0  0  0  0  0  0  0  0  0
   25.2524  -20.7760   -9.4823 C   0  0  0  0  0  0  0  0  0  0  0  0
   26.2178  -20.6401  -10.5998 C   0  0  0  0  0  0  0  0  0  0  0  0
   25.7358  -21.1103  -11.9272 C   0  0  2  0  0  0  0  0  0  0  0  0
   26.6916  -20.8558  -12.9817 N   0  0  0  0  0  0  0  0  0  0  0  0
   24.4243  -20.5497  -12.3469 C   0  0  0  0  0  0  0  0  0  0  0  0
   24.3868  -19.3360  -12.6814 O   0  0  0  0  0  0  0  0  0  0  0  0
   22.6438  -20.7703  -15.0930 C   0  0  0  0  0  0  0  0  0  0  0  0
   21.4959  -21.0393  -14.1238 C   0  0  1  0  0  0  0  0  0  0  0  0
   21.3183  -22.4232  -14.0837 O   0  0  0  0  0  0  0  0  0  0  0  0
   21.9886  -20.6224  -12.7539 C   0  0  2  0  0  0  0  0  0  0  0  0
   23.2263  -21.2728  -12.3975 N   0  0  0  0  0  0  0  0  0  0  0  0
   20.9481  -20.7704  -11.7241 C   0  0  0  0  0  0  0  0  0  0  0  0
   19.7220  -20.1377  -11.7898 O   0  0  0  0  0  0  0  0  0  0  0  0
   21.1813  -21.5062  -10.7360 O   0  0  0  0  0  0  0  0  0  0  0  0
  2  1  1  6
  2  3  1  0
  4  5  1  0
  4  3  1  0
  6  5  1  0
  6  7  1  0
  8  2  1  0
  9  8  2  0
 11 10  1  0
 11 12  1  0
 13 12  1  0
 14 13  1  1
 14 15  1  0
 15  8  1  0
 16 14  1  0
 16 17  2  0
 19 21  1  0
 19 18  1  6
 20 19  1  0
 21 22  1  1
 22 16  1  0
 23 21  1  0
 24 23  1  0
 25 23  2  0
M  END
$$$$
