KMT.pdb
     RDKit          3D

 25 24  0  0  1  0  0  0  0  0999 V2000
   28.3151  -22.0611  -15.3865 N   0  0  0  0  0  0  0  0  0  0  0  0
   27.5842  -20.9541  -14.8690 C   0  0  1  0  0  0  0  0  0  0  0  0
   27.1819  -19.9887  -15.9315 C   0  0  0  0  0  0  0  0  0  0  0  0
   28.2610  -19.4491  -16.7841 C   0  0  0  0  0  0  0  0  0  0  0  0
   28.4325  -20.0909  -18.1160 C   0  0  0  0  0  0  0  0  0  0  0  0
   28.8191  -19.0086  -19.1524 C   0  0  0  0  0  0  0  0  0  0  0  0
   30.2472  -18.7753  -19.0691 N   0  0  0  0  0  0  0  0  0  0  0  0
   26.4348  -21.3751  -14.0226 C   0  0  0  0  0  0  0  0  0  0  0  0
   25.7680  -22.3649  -14.4040 O   0  0  0  0  0  0  0  0  0  0  0  0
   26.4462  -19.3358   -7.9135 C   0  0  0  0  0  0  0  0  0  0  0  0
   26.4207  -21.1543   -8.1400 S   0  0  0  0  0  0  0  0  0  0  0  0
   26.3403  -21.4541   -9.9216 C   0  0  0  0  0  0  0  0  0  0  0  0
   25.1569  -20.8388  -10.5701 C   0  0  0  0  0  0  0  0  0  0  0  0
   24.9586  -21.1815  -12.0049 C   0  0  2  0  0  0  0  0  0  0  0  0
   26.0560  -20.7363  -12.8340 N   0  0  0  0  0  0  0  0  0  0  0  0
   23.6944  -20.6702  -12.5974 C   0  0  0  0  0  0  0  0  0  0  0  0
   23.5973  -19.4288  -12.7871 O   0  0  0  0  0  0  0  0  0  0  0  0
   22.2224  -20.9855  -15.7551 C   0  0  0  0  0  0  0  0  0  0  0  0
   21.0484  -21.3693  -14.8586 C   0  0  1  0  0  0  0  0  0  0  0  0
   21.0303  -22.7634  -14.7932 O   0  0  0  0  0  0  0  0  0  0  0  0
   21.3920  -20.8714  -13.4704 C   0  0  2  0  0  0  0  0  0  0  0  0
   22.6026  -21.4682  -12.9604 N   0  0  0  0  0  0  0  0  0  0  0  0
   20.2575  -20.9975  -12.5418 C   0  0  0  0  0  0  0  0  0  0  0  0
   19.0228  -20.4231  -12.7723 O   0  0  0  0  0  0  0  0  0  0  0  0
   20.4147  -21.6581  -11.4877 O   0  0  0  0  0  0  0  0  0  0  0  0
  2  1  1  6
  2  3  1  0
  4  5  1  0
  4  3  1  0
  6  5  1  0
  6  7  1  0
  8  2  1  0
  9  8  2  0
 11 10  1  0
 11 12  1  0
 13 12  1  0
 14 13  1  1
 14 15  1  0
 15  8  1  0
 16 14  1  0
 16 17  2  0
 19 21  1  0
 19 18  1  6
 20 19  1  0
 21 22  1  1
 22 16  1  0
 23 21  1  0
 24 23  1  0
 25 23  2  0
M  END
$$$$
