KMT.pdb
     RDKit          3D

 25 24  0  0  1  0  0  0  0  0999 V2000
   28.7101  -20.1725  -15.9549 N   0  0  0  0  0  0  0  0  0  0  0  0
   28.0494  -19.3877  -14.9674 C   0  0  1  0  0  0  0  0  0  0  0  0
   27.4569  -18.1413  -15.5312 C   0  0  0  0  0  0  0  0  0  0  0  0
   28.2247  -17.4607  -16.5942 C   0  0  0  0  0  0  0  0  0  0  0  0
   27.7209  -17.6321  -17.9843 C   0  0  0  0  0  0  0  0  0  0  0  0
   28.5940  -16.7901  -18.9455 C   0  0  0  0  0  0  0  0  0  0  0  0
   28.1852  -17.0686  -20.3079 N   0  0  0  0  0  0  0  0  0  0  0  0
   27.0640  -20.1757  -14.1781 C   0  0  0  0  0  0  0  0  0  0  0  0
   26.5494  -21.1762  -14.7294 O   0  0  0  0  0  0  0  0  0  0  0  0
   27.0781  -20.9298   -7.7933 C   0  0  0  0  0  0  0  0  0  0  0  0
   25.2647  -21.0684   -8.0203 S   0  0  0  0  0  0  0  0  0  0  0  0
   24.9786  -21.2823   -9.7931 C   0  0  0  0  0  0  0  0  0  0  0  0
   25.9208  -20.5107  -10.6396 C   0  0  0  0  0  0  0  0  0  0  0  0
   25.7308  -20.6539  -12.1088 C   0  0  2  0  0  0  0  0  0  0  0  0
   26.6799  -19.8686  -12.8657 N   0  0  0  0  0  0  0  0  0  0  0  0
   24.3651  -20.3225  -12.5944 C   0  0  0  0  0  0  0  0  0  0  0  0
   24.0349  -19.1075  -12.6282 O   0  0  0  0  0  0  0  0  0  0  0  0
   22.7704  -20.8519  -15.7333 C   0  0  0  0  0  0  0  0  0  0  0  0
   21.7006  -21.3581  -14.7696 C   0  0  1  0  0  0  0  0  0  0  0  0
   21.8175  -22.7484  -14.7318 O   0  0  0  0  0  0  0  0  0  0  0  0
   22.0889  -20.8497  -13.3970 C   0  0  2  0  0  0  0  0  0  0  0  0
   23.4181  -21.2631  -13.0175 N   0  0  0  0  0  0  0  0  0  0  0  0
   21.0766  -21.1763  -12.3803 C   0  0  0  0  0  0  0  0  0  0  0  0
   19.7646  -20.7507  -12.4537 O   0  0  0  0  0  0  0  0  0  0  0  0
   21.4170  -21.8754  -11.3967 O   0  0  0  0  0  0  0  0  0  0  0  0
  2  1  1  6
  2  3  1  0
  4  5  1  0
  4  3  1  0
  6  5  1  0
  6  7  1  0
  8  2  1  0
  9  8  2  0
 11 10  1  0
 11 12  1  0
 13 12  1  0
 14 13  1  1
 14 15  1  0
 15  8  1  0
 16 14  1  0
 16 17  2  0
 19 21  1  0
 19 18  1  6
 20 19  1  0
 21 22  1  1
 22 16  1  0
 23 21  1  0
 24 23  1  0
 25 23  2  0
M  END
$$$$
