KMT.pdb
     RDKit          3D

 25 24  0  0  1  0  0  0  0  0999 V2000
   19.9043  -20.2026  -12.8341 N   0  0  0  0  0  0  0  0  0  0  0  0
   20.6827  -20.9616  -11.9145 C   0  0  1  0  0  0  0  0  0  0  0  0
   20.4813  -22.4303  -12.0724 C   0  0  0  0  0  0  0  0  0  0  0  0
   19.8056  -23.1328  -10.9623 C   0  0  0  0  0  0  0  0  0  0  0  0
   18.3333  -23.3088  -11.0922 C   0  0  0  0  0  0  0  0  0  0  0  0
   17.7987  -24.0372   -9.8358 C   0  0  0  0  0  0  0  0  0  0  0  0
   16.3655  -24.2060   -9.9718 N   0  0  0  0  0  0  0  0  0  0  0  0
   22.1217  -20.5824  -11.9365 C   0  0  0  0  0  0  0  0  0  0  0  0
   22.4922  -19.7706  -12.8159 O   0  0  0  0  0  0  0  0  0  0  0  0
   25.8449  -20.6677   -6.8005 C   0  0  0  0  0  0  0  0  0  0  0  0
   27.0742  -20.0162   -7.9935 S   0  0  0  0  0  0  0  0  0  0  0  0
   26.5575  -20.5816   -9.6317 C   0  0  0  0  0  0  0  0  0  0  0  0
   25.1173  -20.9269   -9.7090 C   0  0  0  0  0  0  0  0  0  0  0  0
   24.4473  -20.6073  -10.9991 C   0  0  2  0  0  0  0  0  0  0  0  0
   23.0798  -21.0746  -11.0398 N   0  0  0  0  0  0  0  0  0  0  0  0
   25.1471  -21.1196  -12.2068 C   0  0  0  0  0  0  0  0  0  0  0  0
   25.0449  -22.3481  -12.4653 O   0  0  0  0  0  0  0  0  0  0  0  0
   27.2773  -20.7353  -16.5454 C   0  0  0  0  0  0  0  0  0  0  0  0
   26.5873  -19.9800  -15.4128 C   0  0  1  0  0  0  0  0  0  0  0  0
   25.2640  -19.7802  -15.8093 O   0  0  0  0  0  0  0  0  0  0  0  0
   26.5508  -20.9256  -14.2305 C   0  0  2  0  0  0  0  0  0  0  0  0
   25.9123  -20.3357  -13.0790 N   0  0  0  0  0  0  0  0  0  0  0  0
   27.8792  -21.4804  -13.9258 C   0  0  0  0  0  0  0  0  0  0  0  0
   28.6510  -21.0566  -12.8616 O   0  0  0  0  0  0  0  0  0  0  0  0
   28.3375  -22.3827  -14.6661 O   0  0  0  0  0  0  0  0  0  0  0  0
  2  1  1  6
  2  3  1  0
  4  5  1  0
  4  3  1  0
  6  5  1  0
  6  7  1  0
  8  2  1  0
  9  8  2  0
 11 10  1  0
 11 12  1  0
 13 12  1  0
 14 13  1  1
 14 15  1  0
 15  8  1  0
 16 14  1  0
 16 17  2  0
 19 21  1  0
 19 18  1  6
 20 19  1  0
 21 22  1  1
 22 16  1  0
 23 21  1  0
 24 23  1  0
 25 23  2  0
M  END
$$$$
