KMT.pdb
     RDKit          3D

 25 24  0  0  1  0  0  0  0  0999 V2000
   27.6460  -21.3983  -16.0478 N   0  0  0  0  0  0  0  0  0  0  0  0
   27.6501  -20.5365  -14.9143 C   0  0  1  0  0  0  0  0  0  0  0  0
   27.4287  -19.1088  -15.2820 C   0  0  0  0  0  0  0  0  0  0  0  0
   28.2722  -18.5615  -16.3644 C   0  0  0  0  0  0  0  0  0  0  0  0
   27.6384  -18.4609  -17.7074 C   0  0  0  0  0  0  0  0  0  0  0  0
   28.5835  -17.6839  -18.6552 C   0  0  0  0  0  0  0  0  0  0  0  0
   28.0005  -17.6690  -19.9821 N   0  0  0  0  0  0  0  0  0  0  0  0
   26.7220  -20.9957  -13.8453 C   0  0  0  0  0  0  0  0  0  0  0  0
   25.7920  -21.7662  -14.1789 O   0  0  0  0  0  0  0  0  0  0  0  0
   26.4961  -19.1329   -7.1919 C   0  0  0  0  0  0  0  0  0  0  0  0
   26.1603  -20.9265   -7.3628 S   0  0  0  0  0  0  0  0  0  0  0  0
   25.4567  -21.1680   -9.0110 C   0  0  0  0  0  0  0  0  0  0  0  0
   26.3746  -20.7743  -10.1073 C   0  0  0  0  0  0  0  0  0  0  0  0
   25.8709  -21.0171  -11.4867 C   0  0  2  0  0  0  0  0  0  0  0  0
   26.8246  -20.6214  -12.4987 N   0  0  0  0  0  0  0  0  0  0  0  0
   24.5705  -20.3665  -11.7973 C   0  0  0  0  0  0  0  0  0  0  0  0
   24.4881  -19.1194  -11.6412 O   0  0  0  0  0  0  0  0  0  0  0  0
   22.9766  -19.5987  -14.6619 C   0  0  0  0  0  0  0  0  0  0  0  0
   21.8173  -20.2809  -13.9409 C   0  0  1  0  0  0  0  0  0  0  0  0
   21.7854  -21.6023  -14.3894 O   0  0  0  0  0  0  0  0  0  0  0  0
   22.1951  -20.3263  -12.4751 C   0  0  2  0  0  0  0  0  0  0  0  0
   23.4294  -21.0391  -12.2511 N   0  0  0  0  0  0  0  0  0  0  0  0
   21.0912  -20.8171  -11.6351 C   0  0  0  0  0  0  0  0  0  0  0  0
   21.1399  -22.0107  -10.9417 O   0  0  0  0  0  0  0  0  0  0  0  0
   20.0527  -20.1208  -11.5410 O   0  0  0  0  0  0  0  0  0  0  0  0
  2  1  1  6
  2  3  1  0
  4  5  1  0
  4  3  1  0
  6  5  1  0
  6  7  1  0
  8  2  1  0
  9  8  2  0
 11 10  1  0
 11 12  1  0
 13 12  1  0
 14 13  1  1
 14 15  1  0
 15  8  1  0
 16 14  1  0
 16 17  2  0
 19 21  1  0
 19 18  1  6
 20 19  1  0
 21 22  1  6
 22 16  1  0
 23 21  1  0
 24 23  1  0
 25 23  2  0
M  END
$$$$
