KMT.pdb
     RDKit          3D

 25 24  0  0  1  0  0  0  0  0999 V2000
   19.3897  -15.1886  -18.0844 N   0  0  0  0  0  0  0  0  0  0  0  0
   20.1282  -14.1164  -18.6610 C   0  0  1  0  0  0  0  0  0  0  0  0
   19.3557  -13.3898  -19.7088 C   0  0  0  0  0  0  0  0  0  0  0  0
   18.4489  -14.1990  -20.5488 C   0  0  0  0  0  0  0  0  0  0  0  0
   18.9296  -14.5170  -21.9211 C   0  0  0  0  0  0  0  0  0  0  0  0
   17.8176  -15.2780  -22.6823 C   0  0  0  0  0  0  0  0  0  0  0  0
   18.3177  -15.6412  -23.9933 N   0  0  0  0  0  0  0  0  0  0  0  0
   20.6938  -13.1975  -17.6360 C   0  0  0  0  0  0  0  0  0  0  0  0
   20.0874  -13.1066  -16.5434 O   0  0  0  0  0  0  0  0  0  0  0  0
   27.0598  -10.2389  -14.2564 C   0  0  0  0  0  0  0  0  0  0  0  0
   26.3588  -11.4535  -15.4363 S   0  0  0  0  0  0  0  0  0  0  0  0
   24.6067  -11.0456  -15.6213 C   0  0  0  0  0  0  0  0  0  0  0  0
   23.9029  -11.9018  -16.6067 C   0  0  0  0  0  0  0  0  0  0  0  0
   22.4497  -11.6279  -16.7751 C   0  0  2  0  0  0  0  0  0  0  0  0
   21.8548  -12.4337  -17.8176 N   0  0  0  0  0  0  0  0  0  0  0  0
   22.1119  -10.2046  -17.0414 C   0  0  0  0  0  0  0  0  0  0  0  0
   22.5552   -9.6862  -18.1002 O   0  0  0  0  0  0  0  0  0  0  0  0
   19.0561   -8.4922  -17.7148 C   0  0  0  0  0  0  0  0  0  0  0  0
   19.6433   -7.6595  -16.5786 C   0  0  1  0  0  0  0  0  0  0  0  0
   19.0671   -8.1276  -15.3966 O   0  0  0  0  0  0  0  0  0  0  0  0
   21.1160   -8.0062  -16.5136 C   0  0  2  0  0  0  0  0  0  0  0  0
   21.3362   -9.3973  -16.2005 N   0  0  0  0  0  0  0  0  0  0  0  0
   21.8591   -7.0963  -15.6276 C   0  0  0  0  0  0  0  0  0  0  0  0
   22.5756   -7.5273  -14.5282 O   0  0  0  0  0  0  0  0  0  0  0  0
   21.8440   -5.8680  -15.8788 O   0  0  0  0  0  0  0  0  0  0  0  0
  2  1  1  1
  2  3  1  0
  4  5  1  0
  4  3  1  0
  6  5  1  0
  6  7  1  0
  8  2  1  0
  9  8  2  0
 11 10  1  0
 11 12  1  0
 13 12  1  0
 14 13  1  6
 14 15  1  0
 15  8  1  0
 16 14  1  0
 16 17  2  0
 19 21  1  0
 19 18  1  6
 20 19  1  0
 21 22  1  1
 22 16  1  0
 23 21  1  0
 24 23  1  0
 25 23  2  0
M  END
$$$$
