KMT.pdb
     RDKit          3D

 25 24  0  0  1  0  0  0  0  0999 V2000
   28.7420  -22.3523  -15.4415 N   0  0  0  0  0  0  0  0  0  0  0  0
   27.6344  -21.4616  -15.5274 C   0  0  1  0  0  0  0  0  0  0  0  0
   26.9413  -21.5382  -16.8450 C   0  0  0  0  0  0  0  0  0  0  0  0
   27.6965  -21.0647  -18.0232 C   0  0  0  0  0  0  0  0  0  0  0  0
   28.3595  -19.7385  -17.8922 C   0  0  0  0  0  0  0  0  0  0  0  0
   28.9996  -19.3574  -19.2487 C   0  0  0  0  0  0  0  0  0  0  0  0
   29.8036  -18.1657  -19.0639 N   0  0  0  0  0  0  0  0  0  0  0  0
   26.6935  -21.6096  -14.3838 C   0  0  0  0  0  0  0  0  0  0  0  0
   25.7112  -22.3717  -14.5384 O   0  0  0  0  0  0  0  0  0  0  0  0
   27.3930  -20.9640   -7.5116 C   0  0  0  0  0  0  0  0  0  0  0  0
   26.1264  -19.8011   -8.1460 S   0  0  0  0  0  0  0  0  0  0  0  0
   25.4550  -20.5379   -9.6549 C   0  0  0  0  0  0  0  0  0  0  0  0
   26.3716  -20.4405  -10.8168 C   0  0  0  0  0  0  0  0  0  0  0  0
   25.8746  -21.0486  -12.0811 C   0  0  2  0  0  0  0  0  0  0  0  0
   26.8388  -20.9531  -13.1541 N   0  0  0  0  0  0  0  0  0  0  0  0
   24.5828  -20.4983  -12.5700 C   0  0  0  0  0  0  0  0  0  0  0  0
   24.5516  -19.2829  -12.8990 O   0  0  0  0  0  0  0  0  0  0  0  0
   22.7893  -20.9978  -15.4344 C   0  0  0  0  0  0  0  0  0  0  0  0
   21.6573  -21.1537  -14.4227 C   0  0  1  0  0  0  0  0  0  0  0  0
   21.4755  -22.5240  -14.2292 O   0  0  0  0  0  0  0  0  0  0  0  0
   22.1749  -20.5929  -13.1147 C   0  0  2  0  0  0  0  0  0  0  0  0
   23.3969  -21.2328  -12.6917 N   0  0  0  0  0  0  0  0  0  0  0  0
   21.1406  -20.5878  -12.0681 C   0  0  0  0  0  0  0  0  0  0  0  0
   19.9622  -19.8747  -12.1714 O   0  0  0  0  0  0  0  0  0  0  0  0
   21.3340  -21.2626  -11.0292 O   0  0  0  0  0  0  0  0  0  0  0  0
  2  1  1  6
  2  3  1  0
  4  5  1  0
  4  3  1  0
  6  5  1  0
  6  7  1  0
  8  2  1  0
  9  8  2  0
 11 10  1  0
 11 12  1  0
 13 12  1  0
 14 13  1  1
 14 15  1  0
 15  8  1  0
 16 14  1  0
 16 17  2  0
 19 21  1  0
 19 18  1  6
 20 19  1  0
 21 22  1  1
 22 16  1  0
 23 21  1  0
 24 23  1  0
 25 23  2  0
M  END
$$$$
