KMT.pdb
     RDKit          3D

 25 24  0  0  1  0  0  0  0  0999 V2000
   26.7530  -22.6719  -16.0669 N   0  0  0  0  0  0  0  0  0  0  0  0
   26.6359  -21.4827  -15.2926 C   0  0  1  0  0  0  0  0  0  0  0  0
   26.2991  -20.2915  -16.1233 C   0  0  0  0  0  0  0  0  0  0  0  0
   27.1065  -20.0800  -17.3423 C   0  0  0  0  0  0  0  0  0  0  0  0
   28.5576  -19.8207  -17.1354 C   0  0  0  0  0  0  0  0  0  0  0  0
   29.2276  -19.5743  -18.5085 C   0  0  0  0  0  0  0  0  0  0  0  0
   30.6403  -19.3275  -18.2980 N   0  0  0  0  0  0  0  0  0  0  0  0
   25.7143  -21.6441  -14.1353 C   0  0  0  0  0  0  0  0  0  0  0  0
   24.7744  -22.4640  -14.2548 O   0  0  0  0  0  0  0  0  0  0  0  0
   25.7662  -19.8536   -7.5883 C   0  0  0  0  0  0  0  0  0  0  0  0
   27.1937  -20.6110   -8.4529 S   0  0  0  0  0  0  0  0  0  0  0  0
   26.5582  -21.2981  -10.0003 C   0  0  0  0  0  0  0  0  0  0  0  0
   25.4191  -20.5320  -10.5616 C   0  0  0  0  0  0  0  0  0  0  0  0
   24.8755  -21.0394  -11.8508 C   0  0  2  0  0  0  0  0  0  0  0  0
   25.8332  -20.9401  -12.9293 N   0  0  0  0  0  0  0  0  0  0  0  0
   23.6132  -20.3895  -12.2922 C   0  0  0  0  0  0  0  0  0  0  0  0
   23.6525  -19.1608  -12.5665 O   0  0  0  0  0  0  0  0  0  0  0  0
   21.8080  -20.5442  -15.1592 C   0  0  0  0  0  0  0  0  0  0  0  0
   20.6714  -20.7561  -14.1630 C   0  0  1  0  0  0  0  0  0  0  0  0
   20.4590  -22.1332  -14.0809 O   0  0  0  0  0  0  0  0  0  0  0  0
   21.1995  -20.3147  -12.8141 C   0  0  2  0  0  0  0  0  0  0  0  0
   22.3824  -21.0438  -12.4255 N   0  0  0  0  0  0  0  0  0  0  0  0
   20.1533  -20.3296  -11.7795 C   0  0  0  0  0  0  0  0  0  0  0  0
   20.1962  -21.1524  -10.6709 O   0  0  0  0  0  0  0  0  0  0  0  0
   19.1723  -19.5590  -11.9062 O   0  0  0  0  0  0  0  0  0  0  0  0
  2  1  1  6
  2  3  1  0
  4  5  1  0
  4  3  1  0
  6  5  1  0
  6  7  1  0
  8  2  1  0
  9  8  2  0
 11 10  1  0
 11 12  1  0
 13 12  1  0
 14 13  1  1
 14 15  1  0
 15  8  1  0
 16 14  1  0
 16 17  2  0
 19 21  1  0
 19 18  1  6
 20 19  1  0
 21 22  1  1
 22 16  1  0
 23 21  1  0
 24 23  1  0
 25 23  2  0
M  END
$$$$
