KMT.pdb
     RDKit          3D

 25 24  0  0  1  0  0  0  0  0999 V2000
   27.0444  -24.7966  -16.3186 N   0  0  0  0  0  0  0  0  0  0  0  0
   27.3276  -23.4775  -15.8633 C   0  0  1  0  0  0  0  0  0  0  0  0
   27.3971  -22.4911  -16.9790 C   0  0  0  0  0  0  0  0  0  0  0  0
   28.5240  -22.6328  -17.9238 C   0  0  0  0  0  0  0  0  0  0  0  0
   29.8525  -22.9359  -17.3249 C   0  0  0  0  0  0  0  0  0  0  0  0
   30.9155  -22.9788  -18.4489 C   0  0  0  0  0  0  0  0  0  0  0  0
   31.2490  -24.3631  -18.7197 N   0  0  0  0  0  0  0  0  0  0  0  0
   26.4090  -23.0395  -14.7774 C   0  0  0  0  0  0  0  0  0  0  0  0
   25.3342  -23.6686  -14.6406 O   0  0  0  0  0  0  0  0  0  0  0  0
   23.7178  -20.7089   -8.5389 C   0  0  0  0  0  0  0  0  0  0  0  0
   24.8492  -21.5198   -9.7310 S   0  0  0  0  0  0  0  0  0  0  0  0
   25.5600  -20.2047  -10.7486 C   0  0  0  0  0  0  0  0  0  0  0  0
   26.4348  -20.7079  -11.8354 C   0  0  0  0  0  0  0  0  0  0  0  0
   25.7677  -21.5637  -12.8542 C   0  0  2  0  0  0  0  0  0  0  0  0
   26.6714  -21.9742  -13.9054 N   0  0  0  0  0  0  0  0  0  0  0  0
   24.5676  -20.9558  -13.4874 C   0  0  0  0  0  0  0  0  0  0  0  0
   24.7497  -20.0079  -14.2965 O   0  0  0  0  0  0  0  0  0  0  0  0
   20.2578  -20.9450  -15.4689 C   0  0  0  0  0  0  0  0  0  0  0  0
   21.3741  -21.7351  -14.7915 C   0  0  1  0  0  0  0  0  0  0  0  0
   22.2334  -22.1669  -15.8031 O   0  0  0  0  0  0  0  0  0  0  0  0
   22.1509  -20.7415  -13.9533 C   0  0  2  0  0  0  0  0  0  0  0  0
   23.2483  -21.3603  -13.2501 N   0  0  0  0  0  0  0  0  0  0  0  0
   21.2729  -19.9600  -13.0681 C   0  0  0  0  0  0  0  0  0  0  0  0
   20.5080  -18.8967  -13.5065 O   0  0  0  0  0  0  0  0  0  0  0  0
   21.2128  -20.2709  -11.8549 O   0  0  0  0  0  0  0  0  0  0  0  0
  2  1  1  6
  2  3  1  0
  4  5  1  0
  4  3  1  0
  6  5  1  0
  6  7  1  0
  8  2  1  0
  9  8  2  0
 11 10  1  0
 11 12  1  0
 13 12  1  0
 14 13  1  1
 14 15  1  0
 15  8  1  0
 16 14  1  0
 16 17  2  0
 19 21  1  0
 19 18  1  6
 20 19  1  0
 21 22  1  1
 22 16  1  0
 23 21  1  0
 24 23  1  0
 25 23  2  0
M  END
$$$$
