KMT.pdb
     RDKit          3D

 25 24  0  0  1  0  0  0  0  0999 V2000
   20.8229  -22.7356  -14.2927 N   0  0  0  0  0  0  0  0  0  0  0  0
   20.7449  -21.3522  -13.9648 C   0  0  1  0  0  0  0  0  0  0  0  0
   19.5197  -21.0190  -13.1835 C   0  0  0  0  0  0  0  0  0  0  0  0
   18.5713  -22.1230  -12.9293 C   0  0  0  0  0  0  0  0  0  0  0  0
   18.8325  -22.9515  -11.7207 C   0  0  0  0  0  0  0  0  0  0  0  0
   17.5609  -22.9734  -10.8388 C   0  0  0  0  0  0  0  0  0  0  0  0
   17.1086  -24.3445  -10.7107 N   0  0  0  0  0  0  0  0  0  0  0  0
   21.9851  -20.8495  -13.3137 C   0  0  0  0  0  0  0  0  0  0  0  0
   22.0343  -19.6308  -13.0269 O   0  0  0  0  0  0  0  0  0  0  0  0
   25.7759  -19.8480   -8.4531 C   0  0  0  0  0  0  0  0  0  0  0  0
   26.5927  -21.2905   -9.2348 S   0  0  0  0  0  0  0  0  0  0  0  0
   26.2749  -21.1672  -11.0108 C   0  0  0  0  0  0  0  0  0  0  0  0
   24.9331  -21.6610  -11.4052 C   0  0  0  0  0  0  0  0  0  0  0  0
   24.3972  -21.1168  -12.6827 C   0  0  2  0  0  0  0  0  0  0  0  0
   23.0926  -21.6506  -13.0041 N   0  0  0  0  0  0  0  0  0  0  0  0
   25.2809  -21.3143  -13.8620 C   0  0  0  0  0  0  0  0  0  0  0  0
   25.6202  -22.4930  -14.1481 O   0  0  0  0  0  0  0  0  0  0  0  0
   24.6451  -20.6544  -17.3604 C   0  0  0  0  0  0  0  0  0  0  0  0
   25.9771  -19.9555  -17.1027 C   0  0  1  0  0  0  0  0  0  0  0  0
   25.6815  -18.6280  -16.7885 O   0  0  0  0  0  0  0  0  0  0  0  0
   26.5521  -20.5830  -15.8502 C   0  0  2  0  0  0  0  0  0  0  0  0
   25.7642  -20.2848  -14.6789 N   0  0  0  0  0  0  0  0  0  0  0  0
   27.9778  -20.2632  -15.6766 C   0  0  0  0  0  0  0  0  0  0  0  0
   28.9752  -20.7931  -16.4717 O   0  0  0  0  0  0  0  0  0  0  0  0
   28.3087  -19.4708  -14.7629 O   0  0  0  0  0  0  0  0  0  0  0  0
  2  1  1  1
  2  3  1  0
  4  5  1  0
  4  3  1  0
  6  5  1  0
  6  7  1  0
  8  2  1  0
  9  8  2  0
 11 10  1  0
 11 12  1  0
 13 12  1  0
 14 13  1  1
 14 15  1  0
 15  8  1  0
 16 14  1  0
 16 17  2  0
 19 21  1  0
 19 18  1  1
 20 19  1  0
 21 22  1  1
 22 16  1  0
 23 21  1  0
 24 23  1  0
 25 23  2  0
M  END
$$$$
