ECE.pdb
     RDKit          3D

 25 24  0  0  1  0  0  0  0  0999 V2000
   14.2482  -12.2452  -16.6897 N   0  0  0  0  0  0  0  0  0  0  0  0
   15.1391  -11.7353  -15.6238 C   0  0  1  0  0  0  0  0  0  0  0  0
   16.3387  -12.6073  -15.5024 C   0  0  0  0  0  0  0  0  0  0  0  0
   16.1476  -13.9230  -14.8435 C   0  0  0  0  0  0  0  0  0  0  0  0
   17.4608  -14.6513  -14.7333 C   0  0  0  0  0  0  0  0  0  0  0  0
   17.4724  -15.7421  -14.1479 O   0  0  0  0  0  0  0  0  0  0  0  0
   15.5346  -10.3789  -16.0718 C   0  0  0  0  0  0  0  0  0  0  0  0
   16.1947  -10.2957  -17.1387 O   0  0  0  0  0  0  0  0  0  0  0  0
   18.6316  -14.1572  -15.2512 O   0  0  0  0  0  0  0  0  0  0  0  0
   15.1908   -9.2018  -15.3377 N   0  0  0  0  0  0  0  0  0  0  0  0
   15.5764   -7.9319  -15.8544 C   0  0  1  0  0  0  0  0  0  0  0  0
   14.3898   -7.0401  -16.1672 C   0  0  0  0  0  0  0  0  0  0  0  0
   13.4351   -7.8037  -17.4753 S   0  0  0  0  0  0  0  0  0  0  0  0
   16.5399   -7.2204  -14.9533 C   0  0  0  0  0  0  0  0  0  0  0  0
   16.3971   -7.2373  -13.7041 O   0  0  0  0  0  0  0  0  0  0  0  0
   17.6578   -6.4930  -15.4430 N   0  0  0  0  0  0  0  0  0  0  0  0
   18.5666   -5.7555  -14.5862 C   0  0  1  0  0  0  0  0  0  0  0  0
   20.0031   -6.0171  -14.9009 C   0  0  0  0  0  0  0  0  0  0  0  0
   20.9596   -5.2444  -14.0369 C   0  0  0  0  0  0  0  0  0  0  0  0
   22.3718   -5.3889  -14.3880 C   0  0  0  0  0  0  0  0  0  0  0  0
   23.2374   -4.5046  -14.4517 O   0  0  0  0  0  0  0  0  0  0  0  0
   18.2457   -4.3004  -14.5784 C   0  0  0  0  0  0  0  0  0  0  0  0
   18.5307   -3.5388  -13.6474 O   0  0  0  0  0  0  0  0  0  0  0  0
   22.8158   -6.6918  -14.6942 O   0  0  0  0  0  0  0  0  0  0  0  0
   17.5895   -3.7921  -15.6889 O   0  0  0  0  0  0  0  0  0  0  0  0
  2  1  1  6
  2  7  1  0
  3  2  1  0
  4  3  1  0
  5  4  1  0
  6  5  2  0
  7 10  1  0
  7  8  2  0
  9  5  1  0
 10 11  1  0
 11 12  1  1
 13 12  1  0
 14 11  1  0
 14 16  1  0
 15 14  2  0
 17 18  1  6
 17 22  1  0
 17 16  1  0
 19 18  1  0
 19 20  1  0
 20 24  1  0
 21 20  2  0
 22 25  1  0
 23 22  2  0
M  END
$$$$
