ECE.pdb
     RDKit          3D

 25 24  0  0  1  0  0  0  0  0999 V2000
   27.8155  -21.5672  -15.6280 N   0  0  0  0  0  0  0  0  0  0  0  0
   27.7547  -20.5365  -14.5680 C   0  0  1  0  0  0  0  0  0  0  0  0
   27.6394  -19.1844  -15.1784 C   0  0  0  0  0  0  0  0  0  0  0  0
   26.7524  -19.0559  -16.3610 C   0  0  0  0  0  0  0  0  0  0  0  0
   26.8312  -17.6633  -16.9282 C   0  0  0  0  0  0  0  0  0  0  0  0
   27.6195  -16.8663  -16.4030 O   0  0  0  0  0  0  0  0  0  0  0  0
   26.5317  -20.8554  -13.7937 C   0  0  0  0  0  0  0  0  0  0  0  0
   25.6246  -21.4916  -14.3882 O   0  0  0  0  0  0  0  0  0  0  0  0
   26.0708  -17.2493  -17.9930 O   0  0  0  0  0  0  0  0  0  0  0  0
   26.3691  -20.4660  -12.4282 N   0  0  0  0  0  0  0  0  0  0  0  0
   25.2378  -20.9435  -11.7069 C   0  0  1  0  0  0  0  0  0  0  0  0
   25.2724  -20.5608  -10.2394 C   0  0  0  0  0  0  0  0  0  0  0  0
   26.7445  -21.2658   -9.5035 S   0  0  0  0  0  0  0  0  0  0  0  0
   23.9439  -20.5112  -12.3278 C   0  0  0  0  0  0  0  0  0  0  0  0
   23.7183  -19.3018  -12.5876 O   0  0  0  0  0  0  0  0  0  0  0  0
   22.9060  -21.4236  -12.6577 N   0  0  0  0  0  0  0  0  0  0  0  0
   21.6570  -21.0210  -13.2758 C   0  0  1  0  0  0  0  0  0  0  0  0
   21.0584  -22.0918  -14.1278 C   0  0  0  0  0  0  0  0  0  0  0  0
   19.7921  -21.6733  -14.8204 C   0  0  0  0  0  0  0  0  0  0  0  0
   19.1879  -22.6896  -15.6810 C   0  0  0  0  0  0  0  0  0  0  0  0
   19.7271  -23.6886  -16.1777 O   0  0  0  0  0  0  0  0  0  0  0  0
   20.6944  -20.4985  -12.2654 C   0  0  0  0  0  0  0  0  0  0  0  0
   20.6998  -20.8309  -11.0748 O   0  0  0  0  0  0  0  0  0  0  0  0
   17.8225  -22.5230  -15.9913 O   0  0  0  0  0  0  0  0  0  0  0  0
   19.7465  -19.5883  -12.7073 O   0  0  0  0  0  0  0  0  0  0  0  0
  2  1  1  6
  2  7  1  0
  3  2  1  0
  4  3  1  0
  5  4  1  0
  6  5  2  0
  7 10  1  0
  7  8  2  0
  9  5  1  0
 10 11  1  0
 11 12  1  1
 13 12  1  0
 14 11  1  0
 14 16  1  0
 15 14  2  0
 17 18  1  1
 17 22  1  0
 17 16  1  0
 19 18  1  0
 19 20  1  0
 20 24  1  0
 21 20  2  0
 22 25  1  0
 23 22  2  0
M  END
$$$$
