ECE.pdb
     RDKit          3D

 25 24  0  0  1  0  0  0  0  0999 V2000
   28.3331  -21.1986  -15.4471 N   0  0  0  0  0  0  0  0  0  0  0  0
   27.9714  -20.3518  -14.2888 C   0  0  1  0  0  0  0  0  0  0  0  0
   27.7153  -18.9566  -14.7382 C   0  0  0  0  0  0  0  0  0  0  0  0
   26.6110  -18.7567  -15.7089 C   0  0  0  0  0  0  0  0  0  0  0  0
   26.5602  -17.3207  -16.1588 C   0  0  0  0  0  0  0  0  0  0  0  0
   27.5814  -16.8330  -16.6607 O   0  0  0  0  0  0  0  0  0  0  0  0
   26.7288  -20.9525  -13.7485 C   0  0  0  0  0  0  0  0  0  0  0  0
   26.0196  -21.6194  -14.5442 O   0  0  0  0  0  0  0  0  0  0  0  0
   25.4375  -16.5412  -16.0349 O   0  0  0  0  0  0  0  0  0  0  0  0
   26.3342  -20.7932  -12.3841 N   0  0  0  0  0  0  0  0  0  0  0  0
   25.1206  -21.3950  -11.9444 C   0  0  1  0  0  0  0  0  0  0  0  0
   25.0717  -21.5879  -10.4406 C   0  0  0  0  0  0  0  0  0  0  0  0
   25.6736  -20.0949   -9.6569 S   0  0  0  0  0  0  0  0  0  0  0  0
   23.9112  -20.6435  -12.4130 C   0  0  0  0  0  0  0  0  0  0  0  0
   23.9048  -19.3872  -12.4648 O   0  0  0  0  0  0  0  0  0  0  0  0
   22.7142  -21.2903  -12.8221 N   0  0  0  0  0  0  0  0  0  0  0  0
   21.5181  -20.5744  -13.2230 C   0  0  1  0  0  0  0  0  0  0  0  0
   20.8429  -21.1874  -14.4059 C   0  0  0  0  0  0  0  0  0  0  0  0
   21.6440  -21.0914  -15.6738 C   0  0  0  0  0  0  0  0  0  0  0  0
   20.8565  -20.9774  -16.9008 C   0  0  0  0  0  0  0  0  0  0  0  0
   20.0789  -20.0699  -17.2279 O   0  0  0  0  0  0  0  0  0  0  0  0
   20.5867  -20.3867  -12.0751 C   0  0  0  0  0  0  0  0  0  0  0  0
   20.6393  -21.0481  -11.0321 O   0  0  0  0  0  0  0  0  0  0  0  0
   20.9903  -22.0244  -17.8359 O   0  0  0  0  0  0  0  0  0  0  0  0
   19.6126  -19.4086  -12.2051 O   0  0  0  0  0  0  0  0  0  0  0  0
  2  1  1  6
  2  7  1  0
  3  2  1  0
  4  3  1  0
  5  4  1  0
  6  5  2  0
  7 10  1  0
  7  8  2  0
  9  5  1  0
 10 11  1  0
 11 12  1  1
 13 12  1  0
 14 11  1  0
 14 16  1  0
 15 14  2  0
 17 18  1  6
 17 22  1  0
 17 16  1  0
 19 18  1  0
 19 20  1  0
 20 24  1  0
 21 20  2  0
 22 25  1  0
 23 22  2  0
M  END
$$$$
