ECE.pdb
     RDKit          3D

 25 24  0  0  1  0  0  0  0  0999 V2000
   16.7652  -10.4094  -13.2521 N   0  0  0  0  0  0  0  0  0  0  0  0
   17.3700  -10.1167  -11.9336 C   0  0  1  0  0  0  0  0  0  0  0  0
   18.7905   -9.7079  -12.1044 C   0  0  0  0  0  0  0  0  0  0  0  0
   19.0674   -8.6461  -13.1031 C   0  0  0  0  0  0  0  0  0  0  0  0
   20.5385   -8.3270  -13.1368 C   0  0  0  0  0  0  0  0  0  0  0  0
   21.2956   -9.0029  -12.4279 O   0  0  0  0  0  0  0  0  0  0  0  0
   16.5745   -8.9908  -11.3891 C   0  0  0  0  0  0  0  0  0  0  0  0
   16.0767   -8.1856  -12.2166 O   0  0  0  0  0  0  0  0  0  0  0  0
   21.0655   -7.3269  -13.9149 O   0  0  0  0  0  0  0  0  0  0  0  0
   16.3691   -8.8090   -9.9864 N   0  0  0  0  0  0  0  0  0  0  0  0
   15.6149   -7.6858   -9.5417 C   0  0  1  0  0  0  0  0  0  0  0  0
   14.7899   -7.9849   -8.3044 C   0  0  0  0  0  0  0  0  0  0  0  0
   13.6727   -9.3329   -8.6793 S   0  0  0  0  0  0  0  0  0  0  0  0
   16.4734   -6.4779   -9.3162 C   0  0  0  0  0  0  0  0  0  0  0  0
   17.6645   -6.5887   -8.9290 O   0  0  0  0  0  0  0  0  0  0  0  0
   16.0056   -5.1522   -9.5216 N   0  0  0  0  0  0  0  0  0  0  0  0
   16.8848   -4.0269   -9.7761 C   0  0  1  0  0  0  0  0  0  0  0  0
   17.7929   -4.2507  -10.9407 C   0  0  0  0  0  0  0  0  0  0  0  0
   18.6584   -3.0660  -11.2661 C   0  0  0  0  0  0  0  0  0  0  0  0
   19.5803   -3.2571  -12.3851 C   0  0  0  0  0  0  0  0  0  0  0  0
   20.3820   -2.4415  -12.8622 O   0  0  0  0  0  0  0  0  0  0  0  0
   16.1185   -2.7543   -9.8934 C   0  0  0  0  0  0  0  0  0  0  0  0
   14.9465   -2.6910  -10.2813 O   0  0  0  0  0  0  0  0  0  0  0  0
   19.5644   -4.5226  -13.0068 O   0  0  0  0  0  0  0  0  0  0  0  0
   16.7767   -1.5857   -9.5421 O   0  0  0  0  0  0  0  0  0  0  0  0
  2  1  1  6
  2  7  1  0
  3  2  1  0
  4  3  1  0
  5  4  1  0
  6  5  2  0
  7 10  1  0
  7  8  2  0
  9  5  1  0
 10 11  1  0
 11 12  1  1
 13 12  1  0
 14 11  1  0
 14 16  1  0
 15 14  2  0
 17 18  1  6
 17 22  1  0
 17 16  1  0
 19 18  1  0
 19 20  1  0
 20 24  1  0
 21 20  2  0
 22 25  1  0
 23 22  2  0
M  END
$$$$
