ECE.pdb
     RDKit          3D

 25 24  0  0  1  0  0  0  0  0999 V2000
   20.3729  -12.5693  -17.5974 N   0  0  0  0  0  0  0  0  0  0  0  0
   19.5108  -11.8975  -16.5998 C   0  0  1  0  0  0  0  0  0  0  0  0
   18.8877  -12.9079  -15.7026 C   0  0  0  0  0  0  0  0  0  0  0  0
   17.9395  -13.8642  -16.3257 C   0  0  0  0  0  0  0  0  0  0  0  0
   17.3708  -14.7931  -15.2861 C   0  0  0  0  0  0  0  0  0  0  0  0
   16.3083  -14.4708  -14.7385 O   0  0  0  0  0  0  0  0  0  0  0  0
   20.4266  -11.0232  -15.8293 C   0  0  0  0  0  0  0  0  0  0  0  0
   19.9527  -10.4416  -14.8202 O   0  0  0  0  0  0  0  0  0  0  0  0
   17.9788  -15.9699  -14.9270 O   0  0  0  0  0  0  0  0  0  0  0  0
   21.7941  -10.8348  -16.1995 N   0  0  0  0  0  0  0  0  0  0  0  0
   22.5998   -9.9494  -15.4279 C   0  0  1  0  0  0  0  0  0  0  0  0
   24.0747  -10.2996  -15.4819 C   0  0  0  0  0  0  0  0  0  0  0  0
   24.3263  -11.8350  -14.5959 S   0  0  0  0  0  0  0  0  0  0  0  0
   22.3907   -8.5144  -15.8072 C   0  0  0  0  0  0  0  0  0  0  0  0
   22.3796   -8.1542  -17.0118 O   0  0  0  0  0  0  0  0  0  0  0  0
   22.1949   -7.4854  -14.8472 N   0  0  0  0  0  0  0  0  0  0  0  0
   21.8629   -6.1183  -15.2002 C   0  0  1  0  0  0  0  0  0  0  0  0
   20.4673   -5.9728  -15.7122 C   0  0  0  0  0  0  0  0  0  0  0  0
   19.4137   -6.2617  -14.6802 C   0  0  0  0  0  0  0  0  0  0  0  0
   18.0339   -6.1010  -15.1371 C   0  0  0  0  0  0  0  0  0  0  0  0
   17.1607   -6.9728  -15.2515 O   0  0  0  0  0  0  0  0  0  0  0  0
   22.1539   -5.1815  -14.0785 C   0  0  0  0  0  0  0  0  0  0  0  0
   22.4338   -5.5484  -12.9317 O   0  0  0  0  0  0  0  0  0  0  0  0
   17.6356   -4.7966  -15.4950 O   0  0  0  0  0  0  0  0  0  0  0  0
   22.1022   -3.8247  -14.3588 O   0  0  0  0  0  0  0  0  0  0  0  0
  2  1  1  6
  2  7  1  0
  3  2  1  0
  4  3  1  0
  5  4  1  0
  6  5  2  0
  7 10  1  0
  7  8  2  0
  9  5  1  0
 10 11  1  0
 11 12  1  6
 13 12  1  0
 14 11  1  0
 14 16  1  0
 15 14  2  0
 17 18  1  1
 17 22  1  0
 17 16  1  0
 19 18  1  0
 19 20  1  0
 20 24  1  0
 21 20  2  0
 22 25  1  0
 23 22  2  0
M  END
$$$$
