ECE.pdb
     RDKit          3D

 25 24  0  0  1  0  0  0  0  0999 V2000
   20.0318  -12.2975  -18.0500 N   0  0  0  0  0  0  0  0  0  0  0  0
   20.8445  -11.1182  -18.4220 C   0  0  1  0  0  0  0  0  0  0  0  0
   20.1350  -10.3162  -19.4553 C   0  0  0  0  0  0  0  0  0  0  0  0
   20.1799  -10.8264  -20.8479 C   0  0  0  0  0  0  0  0  0  0  0  0
   19.5315   -9.8453  -21.7882 C   0  0  0  0  0  0  0  0  0  0  0  0
   18.4003  -10.1111  -22.2151 O   0  0  0  0  0  0  0  0  0  0  0  0
   20.9800  -10.3364  -17.1701 C   0  0  0  0  0  0  0  0  0  0  0  0
   19.9779  -10.2864  -16.4123 O   0  0  0  0  0  0  0  0  0  0  0  0
   20.1403   -8.6811  -22.1851 O   0  0  0  0  0  0  0  0  0  0  0  0
   22.1892   -9.6601  -16.8192 N   0  0  0  0  0  0  0  0  0  0  0  0
   22.2971   -9.0697  -15.5277 C   0  0  1  0  0  0  0  0  0  0  0  0
   23.4760   -9.6018  -14.7351 C   0  0  0  0  0  0  0  0  0  0  0  0
   22.9495  -11.0654  -13.8483 S   0  0  0  0  0  0  0  0  0  0  0  0
   22.3436   -7.5727  -15.5891 C   0  0  0  0  0  0  0  0  0  0  0  0
   23.2973   -6.9732  -16.1479 O   0  0  0  0  0  0  0  0  0  0  0  0
   21.3310   -6.7478  -15.0299 N   0  0  0  0  0  0  0  0  0  0  0  0
   21.3510   -5.2994  -15.1045 C   0  0  1  0  0  0  0  0  0  0  0  0
   19.9888   -4.6938  -15.0129 C   0  0  0  0  0  0  0  0  0  0  0  0
   19.9868   -3.1952  -15.1255 C   0  0  0  0  0  0  0  0  0  0  0  0
   18.6707   -2.5651  -15.0271 C   0  0  0  0  0  0  0  0  0  0  0  0
   17.5764   -3.1097  -14.8240 O   0  0  0  0  0  0  0  0  0  0  0  0
   22.2963   -4.7172  -14.1105 C   0  0  0  0  0  0  0  0  0  0  0  0
   22.4499   -5.1601  -12.9668 O   0  0  0  0  0  0  0  0  0  0  0  0
   18.6289   -1.1641  -15.1807 O   0  0  0  0  0  0  0  0  0  0  0  0
   23.0365   -3.6158  -14.5123 O   0  0  0  0  0  0  0  0  0  0  0  0
  2  1  1  1
  2  7  1  0
  3  2  1  0
  4  3  1  0
  5  4  1  0
  6  5  2  0
  7 10  1  0
  7  8  2  0
  9  5  1  0
 10 11  1  0
 11 12  1  6
 13 12  1  0
 14 11  1  0
 14 16  1  0
 15 14  2  0
 17 18  1  1
 17 22  1  0
 17 16  1  0
 19 18  1  0
 19 20  1  0
 20 24  1  0
 21 20  2  0
 22 25  1  0
 23 22  2  0
M  END
$$$$
