ECE.pdb
     RDKit          3D

 25 24  0  0  1  0  0  0  0  0999 V2000
   24.1978  -12.0774  -19.2613 N   0  0  0  0  0  0  0  0  0  0  0  0
   22.9075  -11.9690  -18.5450 C   0  0  1  0  0  0  0  0  0  0  0  0
   22.5174  -13.2954  -17.9950 C   0  0  0  0  0  0  0  0  0  0  0  0
   22.4464  -14.4249  -18.9547 C   0  0  0  0  0  0  0  0  0  0  0  0
   22.0881  -15.7005  -18.2396 C   0  0  0  0  0  0  0  0  0  0  0  0
   22.9111  -16.1704  -17.4430 O   0  0  0  0  0  0  0  0  0  0  0  0
   23.1610  -11.0114  -17.4425 C   0  0  0  0  0  0  0  0  0  0  0  0
   22.1959  -10.7399  -16.6836 O   0  0  0  0  0  0  0  0  0  0  0  0
   20.8975  -16.3542  -18.4353 O   0  0  0  0  0  0  0  0  0  0  0  0
   24.4405  -10.4102  -17.2322 N   0  0  0  0  0  0  0  0  0  0  0  0
   24.6019   -9.4966  -16.1516 C   0  0  1  0  0  0  0  0  0  0  0  0
   26.0549   -9.1496  -15.8878 C   0  0  0  0  0  0  0  0  0  0  0  0
   26.9129  -10.6399  -15.3892 S   0  0  0  0  0  0  0  0  0  0  0  0
   23.7934   -8.2482  -16.3371 C   0  0  0  0  0  0  0  0  0  0  0  0
   23.8174   -7.6119  -17.4213 O   0  0  0  0  0  0  0  0  0  0  0  0
   22.9615   -7.7117  -15.3179 N   0  0  0  0  0  0  0  0  0  0  0  0
   22.1138   -6.5504  -15.5096 C   0  0  1  0  0  0  0  0  0  0  0  0
   20.6579   -6.8734  -15.4267 C   0  0  0  0  0  0  0  0  0  0  0  0
   19.7632   -5.6997  -15.7104 C   0  0  0  0  0  0  0  0  0  0  0  0
   18.3326   -6.0011  -15.7438 C   0  0  0  0  0  0  0  0  0  0  0  0
   17.7791   -7.0980  -15.5834 O   0  0  0  0  0  0  0  0  0  0  0  0
   22.4992   -5.4394  -14.5944 C   0  0  0  0  0  0  0  0  0  0  0  0
   23.0330   -5.6103  -13.4927 O   0  0  0  0  0  0  0  0  0  0  0  0
   17.4649   -4.9167  -15.9880 O   0  0  0  0  0  0  0  0  0  0  0  0
   22.2349   -4.1475  -15.0227 O   0  0  0  0  0  0  0  0  0  0  0  0
  2  1  1  1
  2  7  1  0
  3  2  1  0
  4  3  1  0
  5  4  1  0
  6  5  2  0
  7 10  1  0
  7  8  2  0
  9  5  1  0
 10 11  1  0
 11 12  1  6
 13 12  1  0
 14 11  1  0
 14 16  1  0
 15 14  2  0
 17 18  1  1
 17 22  1  0
 17 16  1  0
 19 18  1  0
 19 20  1  0
 20 24  1  0
 21 20  2  0
 22 25  1  0
 23 22  2  0
M  END
$$$$
