ECE.pdb
     RDKit          3D

 25 24  0  0  1  0  0  0  0  0999 V2000
   23.5474  -13.1782  -19.3161 N   0  0  0  0  0  0  0  0  0  0  0  0
   24.1511  -12.2857  -18.3018 C   0  0  1  0  0  0  0  0  0  0  0  0
   25.3245  -11.5771  -18.8808 C   0  0  0  0  0  0  0  0  0  0  0  0
   26.5230  -12.3986  -19.1812 C   0  0  0  0  0  0  0  0  0  0  0  0
   27.6101  -11.5441  -19.7771 C   0  0  0  0  0  0  0  0  0  0  0  0
   28.6132  -11.3167  -19.0882 O   0  0  0  0  0  0  0  0  0  0  0  0
   23.0834  -11.3158  -17.9612 C   0  0  0  0  0  0  0  0  0  0  0  0
   22.3420  -10.9245  -18.8983 O   0  0  0  0  0  0  0  0  0  0  0  0
   27.5316  -11.0140  -21.0406 O   0  0  0  0  0  0  0  0  0  0  0  0
   22.8867  -10.8325  -16.6306 N   0  0  0  0  0  0  0  0  0  0  0  0
   21.7903   -9.9618  -16.3702 C   0  0  1  0  0  0  0  0  0  0  0  0
   20.7462  -10.5867  -15.4644 C   0  0  0  0  0  0  0  0  0  0  0  0
   20.0813  -12.0355  -16.2797 S   0  0  0  0  0  0  0  0  0  0  0  0
   22.2327   -8.6394  -15.8205 C   0  0  0  0  0  0  0  0  0  0  0  0
   23.2126   -8.5547  -15.0371 O   0  0  0  0  0  0  0  0  0  0  0  0
   21.5853   -7.4165  -16.1431 N   0  0  0  0  0  0  0  0  0  0  0  0
   22.0361   -6.1245  -15.6620 C   0  0  1  0  0  0  0  0  0  0  0  0
   21.4076   -4.9817  -16.3898 C   0  0  0  0  0  0  0  0  0  0  0  0
   21.9420   -3.6385  -15.9789 C   0  0  0  0  0  0  0  0  0  0  0  0
   21.3130   -2.4915  -16.6325 C   0  0  0  0  0  0  0  0  0  0  0  0
   21.5478   -1.2879  -16.4553 O   0  0  0  0  0  0  0  0  0  0  0  0
   21.8780   -6.0094  -14.1848 C   0  0  0  0  0  0  0  0  0  0  0  0
   21.0179   -6.6157  -13.5363 O   0  0  0  0  0  0  0  0  0  0  0  0
   20.3134   -2.7780  -17.5849 O   0  0  0  0  0  0  0  0  0  0  0  0
   22.7565   -5.1684  -13.5189 O   0  0  0  0  0  0  0  0  0  0  0  0
  2  1  1  6
  2  7  1  0
  3  2  1  0
  4  3  1  0
  5  4  1  0
  6  5  2  0
  7 10  1  0
  7  8  2  0
  9  5  1  0
 10 11  1  0
 11 12  1  1
 13 12  1  0
 14 11  1  0
 14 16  1  0
 15 14  2  0
 17 18  1  6
 17 22  1  0
 17 16  1  0
 19 18  1  0
 19 20  1  0
 20 24  1  0
 21 20  2  0
 22 25  1  0
 23 22  2  0
M  END
$$$$
