ECE.pdb
     RDKit          3D

 25 24  0  0  1  0  0  0  0  0999 V2000
   22.4223  -14.0557  -17.3962 N   0  0  0  0  0  0  0  0  0  0  0  0
   23.5011  -13.4382  -18.1991 C   0  0  1  0  0  0  0  0  0  0  0  0
   22.9632  -12.9813  -19.5091 C   0  0  0  0  0  0  0  0  0  0  0  0
   21.9880  -13.8745  -20.1820 C   0  0  0  0  0  0  0  0  0  0  0  0
   21.6208  -13.3269  -21.5356 C   0  0  0  0  0  0  0  0  0  0  0  0
   20.7099  -12.4906  -21.5961 O   0  0  0  0  0  0  0  0  0  0  0  0
   23.9568  -12.2768  -17.3989 C   0  0  0  0  0  0  0  0  0  0  0  0
   23.1404  -11.7899  -16.5758 O   0  0  0  0  0  0  0  0  0  0  0  0
   22.2504  -13.7155  -22.6915 O   0  0  0  0  0  0  0  0  0  0  0  0
   25.2645  -11.7177  -17.5406 N   0  0  0  0  0  0  0  0  0  0  0  0
   25.6446  -10.6348  -16.6973 C   0  0  1  0  0  0  0  0  0  0  0  0
   27.1469  -10.4309  -16.6442 C   0  0  0  0  0  0  0  0  0  0  0  0
   27.8693  -11.7745  -15.7069 S   0  0  0  0  0  0  0  0  0  0  0  0
   24.9580   -9.3557  -17.0705 C   0  0  0  0  0  0  0  0  0  0  0  0
   24.7356   -9.0628  -18.2729 O   0  0  0  0  0  0  0  0  0  0  0  0
   24.5212   -8.4074  -16.1069 N   0  0  0  0  0  0  0  0  0  0  0  0
   23.7762   -7.2103  -16.4472 C   0  0  1  0  0  0  0  0  0  0  0  0
   23.1900   -6.5313  -15.2529 C   0  0  0  0  0  0  0  0  0  0  0  0
   22.3995   -5.2980  -15.5884 C   0  0  0  0  0  0  0  0  0  0  0  0
   21.9062   -4.5424  -14.4377 C   0  0  0  0  0  0  0  0  0  0  0  0
   22.1032   -4.7669  -13.2351 O   0  0  0  0  0  0  0  0  0  0  0  0
   24.5905   -6.2824  -17.2818 C   0  0  0  0  0  0  0  0  0  0  0  0
   25.7412   -5.9321  -16.9968 O   0  0  0  0  0  0  0  0  0  0  0  0
   21.1056   -3.4162  -14.7186 O   0  0  0  0  0  0  0  0  0  0  0  0
   24.0047   -5.7956  -18.4403 O   0  0  0  0  0  0  0  0  0  0  0  0
  2  1  1  1
  2  7  1  0
  3  2  1  0
  4  3  1  0
  5  4  1  0
  6  5  2  0
  7 10  1  0
  7  8  2  0
  9  5  1  0
 10 11  1  0
 11 12  1  6
 13 12  1  0
 14 11  1  0
 14 16  1  0
 15 14  2  0
 17 18  1  1
 17 22  1  0
 17 16  1  0
 19 18  1  0
 19 20  1  0
 20 24  1  0
 21 20  2  0
 22 25  1  0
 23 22  2  0
M  END
$$$$
