ECE.pdb
     RDKit          3D

 25 24  0  0  1  0  0  0  0  0999 V2000
   31.1092   -9.8198  -19.7268 N   0  0  0  0  0  0  0  0  0  0  0  0
   30.5189  -10.2133  -18.4282 C   0  0  1  0  0  0  0  0  0  0  0  0
   30.8731  -11.6241  -18.1144 C   0  0  0  0  0  0  0  0  0  0  0  0
   31.2111  -12.5019  -19.2620 C   0  0  0  0  0  0  0  0  0  0  0  0
   31.6118  -13.8699  -18.7771 C   0  0  0  0  0  0  0  0  0  0  0  0
   30.7236  -14.6155  -18.3439 O   0  0  0  0  0  0  0  0  0  0  0  0
   31.1315   -9.2982  -17.4362 C   0  0  0  0  0  0  0  0  0  0  0  0
   30.8134   -9.4611  -16.2306 O   0  0  0  0  0  0  0  0  0  0  0  0
   32.9095  -14.3160  -18.7972 O   0  0  0  0  0  0  0  0  0  0  0  0
   32.0475   -8.2674  -17.8117 N   0  0  0  0  0  0  0  0  0  0  0  0
   32.7091   -7.5292  -16.7892 C   0  0  1  0  0  0  0  0  0  0  0  0
   33.9102   -8.2606  -16.2201 C   0  0  0  0  0  0  0  0  0  0  0  0
   34.6826   -7.2128  -14.9908 S   0  0  0  0  0  0  0  0  0  0  0  0
   33.1024   -6.1560  -17.2434 C   0  0  0  0  0  0  0  0  0  0  0  0
   33.7562   -5.9830  -18.3034 O   0  0  0  0  0  0  0  0  0  0  0  0
   32.7679   -4.9806  -16.5186 N   0  0  0  0  0  0  0  0  0  0  0  0
   33.0888   -3.6426  -16.9774 C   0  0  1  0  0  0  0  0  0  0  0  0
   31.9488   -2.6887  -16.8303 C   0  0  0  0  0  0  0  0  0  0  0  0
   32.2091   -1.3402  -17.4404 C   0  0  0  0  0  0  0  0  0  0  0  0
   31.1120   -0.3805  -17.3209 C   0  0  0  0  0  0  0  0  0  0  0  0
   31.0341    0.7553  -17.8101 O   0  0  0  0  0  0  0  0  0  0  0  0
   34.3366   -3.1345  -16.3408 C   0  0  0  0  0  0  0  0  0  0  0  0
   34.6771   -3.4049  -15.1837 O   0  0  0  0  0  0  0  0  0  0  0  0
   29.9989   -0.7866  -16.5565 O   0  0  0  0  0  0  0  0  0  0  0  0
   35.1480   -2.3127  -17.1080 O   0  0  0  0  0  0  0  0  0  0  0  0
  2  1  1  6
  2  7  1  0
  3  2  1  0
  4  3  1  0
  5  4  1  0
  6  5  2  0
  7 10  1  0
  7  8  2  0
  9  5  1  0
 10 11  1  0
 11 12  1  6
 13 12  1  0
 14 11  1  0
 14 16  1  0
 15 14  2  0
 17 18  1  1
 17 22  1  0
 17 16  1  0
 19 18  1  0
 19 20  1  0
 20 24  1  0
 21 20  2  0
 22 25  1  0
 23 22  2  0
M  END
$$$$
