ECE.pdb
     RDKit          3D

 25 24  0  0  1  0  0  0  0  0999 V2000
   17.8967  -11.5556  -13.4058 N   0  0  0  0  0  0  0  0  0  0  0  0
   16.9780  -10.8528  -14.3287 C   0  0  1  0  0  0  0  0  0  0  0  0
   15.7957  -11.7082  -14.6196 C   0  0  0  0  0  0  0  0  0  0  0  0
   16.0546  -13.0019  -15.2986 C   0  0  0  0  0  0  0  0  0  0  0  0
   15.6707  -14.1509  -14.4045 C   0  0  0  0  0  0  0  0  0  0  0  0
   15.0719  -13.8927  -13.3522 O   0  0  0  0  0  0  0  0  0  0  0  0
   16.5605   -9.6328  -13.5978 C   0  0  0  0  0  0  0  0  0  0  0  0
   15.7617   -8.8575  -14.1826 O   0  0  0  0  0  0  0  0  0  0  0  0
   15.9561  -15.4583  -14.7088 O   0  0  0  0  0  0  0  0  0  0  0  0
   17.0334   -9.3306  -12.2834 N   0  0  0  0  0  0  0  0  0  0  0  0
   16.6211   -8.1149  -11.6667 C   0  0  1  0  0  0  0  0  0  0  0  0
   16.8120   -8.1254  -10.1619 C   0  0  0  0  0  0  0  0  0  0  0  0
   16.2554   -6.5542   -9.5081 S   0  0  0  0  0  0  0  0  0  0  0  0
   17.2906   -6.9165  -12.2686 C   0  0  0  0  0  0  0  0  0  0  0  0
   18.5429   -6.8465  -12.3576 O   0  0  0  0  0  0  0  0  0  0  0  0
   16.5668   -5.8011  -12.7692 N   0  0  0  0  0  0  0  0  0  0  0  0
   17.1986   -4.6618  -13.4071 C   0  0  1  0  0  0  0  0  0  0  0  0
   17.5747   -4.9262  -14.8282 C   0  0  0  0  0  0  0  0  0  0  0  0
   18.1983   -3.7446  -15.5162 C   0  0  0  0  0  0  0  0  0  0  0  0
   18.5019   -3.9381  -16.9336 C   0  0  0  0  0  0  0  0  0  0  0  0
   17.7117   -4.1715  -17.8590 O   0  0  0  0  0  0  0  0  0  0  0  0
   16.3727   -3.4302  -13.2608 C   0  0  0  0  0  0  0  0  0  0  0  0
   15.1585   -3.4403  -13.0291 O   0  0  0  0  0  0  0  0  0  0  0  0
   19.8591   -3.8506  -17.3058 O   0  0  0  0  0  0  0  0  0  0  0  0
   17.0234   -2.2134  -13.3960 O   0  0  0  0  0  0  0  0  0  0  0  0
  2  1  1  1
  2  7  1  0
  3  2  1  0
  4  3  1  0
  5  4  1  0
  6  5  2  0
  7 10  1  0
  7  8  2  0
  9  5  1  0
 10 11  1  0
 11 12  1  1
 13 12  1  0
 14 11  1  0
 14 16  1  0
 15 14  2  0
 17 18  1  6
 17 22  1  0
 17 16  1  0
 19 18  1  0
 19 20  1  0
 20 24  1  0
 21 20  2  0
 22 25  1  0
 23 22  2  0
M  END
$$$$
