ECE.pdb
     RDKit          3D

 25 24  0  0  1  0  0  0  0  0999 V2000
   18.6554  -11.3316  -17.5199 N   0  0  0  0  0  0  0  0  0  0  0  0
   17.9242  -10.7195  -16.3884 C   0  0  1  0  0  0  0  0  0  0  0  0
   17.1580  -11.7621  -15.6535 C   0  0  0  0  0  0  0  0  0  0  0  0
   16.7954  -12.9860  -16.4100 C   0  0  0  0  0  0  0  0  0  0  0  0
   15.9779  -13.9127  -15.5498 C   0  0  0  0  0  0  0  0  0  0  0  0
   16.4464  -15.0291  -15.2911 O   0  0  0  0  0  0  0  0  0  0  0  0
   18.9775  -10.1475  -15.5165 C   0  0  0  0  0  0  0  0  0  0  0  0
   18.6043   -9.5984  -14.4486 O   0  0  0  0  0  0  0  0  0  0  0  0
   14.7475  -13.5704  -15.0476 O   0  0  0  0  0  0  0  0  0  0  0  0
   20.3647  -10.2064  -15.8555 N   0  0  0  0  0  0  0  0  0  0  0  0
   21.2992   -9.4887  -15.0556 C   0  0  1  0  0  0  0  0  0  0  0  0
   22.6983  -10.0713  -15.1215 C   0  0  0  0  0  0  0  0  0  0  0  0
   23.7708   -9.0921  -14.0744 S   0  0  0  0  0  0  0  0  0  0  0  0
   21.3271   -8.0273  -15.3875 C   0  0  0  0  0  0  0  0  0  0  0  0
   21.5569   -7.6296  -16.5580 O   0  0  0  0  0  0  0  0  0  0  0  0
   21.0999   -7.0136  -14.4182 N   0  0  0  0  0  0  0  0  0  0  0  0
   21.1837   -5.5958  -14.7126 C   0  0  1  0  0  0  0  0  0  0  0  0
   19.8523   -4.9189  -14.6956 C   0  0  0  0  0  0  0  0  0  0  0  0
   19.9179   -3.4522  -15.0161 C   0  0  0  0  0  0  0  0  0  0  0  0
   18.6306   -2.7584  -15.0243 C   0  0  0  0  0  0  0  0  0  0  0  0
   17.5276   -3.1991  -15.3771 O   0  0  0  0  0  0  0  0  0  0  0  0
   22.1747   -4.9157  -13.8318 C   0  0  0  0  0  0  0  0  0  0  0  0
   22.5046   -5.3347  -12.7166 O   0  0  0  0  0  0  0  0  0  0  0  0
   18.6318   -1.4210  -14.5773 O   0  0  0  0  0  0  0  0  0  0  0  0
   22.7478   -3.7472  -14.3099 O   0  0  0  0  0  0  0  0  0  0  0  0
  2  1  1  6
  2  7  1  0
  3  2  1  0
  4  3  1  0
  5  4  1  0
  6  5  2  0
  7 10  1  0
  7  8  2  0
  9  5  1  0
 10 11  1  0
 11 12  1  6
 13 12  1  0
 14 11  1  0
 14 16  1  0
 15 14  2  0
 17 18  1  1
 17 22  1  0
 17 16  1  0
 19 18  1  0
 19 20  1  0
 20 24  1  0
 21 20  2  0
 22 25  1  0
 23 22  2  0
M  END
$$$$
