ECE.pdb
     RDKit          3D

 25 24  0  0  1  0  0  0  0  0999 V2000
   27.7989  -21.3322  -16.0497 N   0  0  0  0  0  0  0  0  0  0  0  0
   27.9580  -20.5417  -14.8089 C   0  0  1  0  0  0  0  0  0  0  0  0
   27.8949  -19.0879  -15.1198 C   0  0  0  0  0  0  0  0  0  0  0  0
   26.7412  -18.6247  -15.9298 C   0  0  0  0  0  0  0  0  0  0  0  0
   27.2164  -17.8104  -17.1038 C   0  0  0  0  0  0  0  0  0  0  0  0
   28.4110  -17.4876  -17.1410 O   0  0  0  0  0  0  0  0  0  0  0  0
   26.8112  -20.9336  -13.9556 C   0  0  0  0  0  0  0  0  0  0  0  0
   25.7977  -21.4015  -14.5342 O   0  0  0  0  0  0  0  0  0  0  0  0
   26.3848  -17.4170  -18.1221 O   0  0  0  0  0  0  0  0  0  0  0  0
   26.8349  -20.7943  -12.5334 N   0  0  0  0  0  0  0  0  0  0  0  0
   25.6843  -21.1757  -11.7858 C   0  0  1  0  0  0  0  0  0  0  0  0
   25.8700  -20.9987  -10.2907 C   0  0  0  0  0  0  0  0  0  0  0  0
   24.3331  -21.4193   -9.4741 S   0  0  0  0  0  0  0  0  0  0  0  0
   24.4469  -20.4652  -12.2449 C   0  0  0  0  0  0  0  0  0  0  0  0
   24.3964  -19.2097  -12.2918 O   0  0  0  0  0  0  0  0  0  0  0  0
   23.2709  -21.1518  -12.6500 N   0  0  0  0  0  0  0  0  0  0  0  0
   22.0504  -20.4765  -13.0480 C   0  0  1  0  0  0  0  0  0  0  0  0
   21.7085  -20.6934  -14.4857 C   0  0  0  0  0  0  0  0  0  0  0  0
   20.4197  -20.0429  -14.9032 C   0  0  0  0  0  0  0  0  0  0  0  0
   19.9937  -20.3276  -16.2730 C   0  0  0  0  0  0  0  0  0  0  0  0
   18.8612  -20.6321  -16.6730 O   0  0  0  0  0  0  0  0  0  0  0  0
   20.9193  -20.8187  -12.1402 C   0  0  0  0  0  0  0  0  0  0  0  0
   20.7952  -21.9131  -11.5792 O   0  0  0  0  0  0  0  0  0  0  0  0
   20.9861  -20.2489  -17.2716 O   0  0  0  0  0  0  0  0  0  0  0  0
   19.9622  -19.8386  -11.9263 O   0  0  0  0  0  0  0  0  0  0  0  0
  2  1  1  6
  2  7  1  0
  3  2  1  0
  4  3  1  0
  5  4  1  0
  6  5  2  0
  7 10  1  0
  7  8  2  0
  9  5  1  0
 10 11  1  0
 11 12  1  1
 13 12  1  0
 14 11  1  0
 14 16  1  0
 15 14  2  0
 17 18  1  6
 17 22  1  0
 17 16  1  0
 19 18  1  0
 19 20  1  0
 20 24  1  0
 21 20  2  0
 22 25  1  0
 23 22  2  0
M  END
$$$$
