EFR.pdb
     RDKit          3D

 32 32  0  0  1  0  0  0  0  0999 V2000
   10.7061  -17.0487   19.9861 N   0  0  0  0  0  0  0  0  0  0  0  0
    9.7327  -17.2517   21.0146 C   0  0  1  0  0  0  0  0  0  0  0  0
    9.9658  -18.6125   21.6189 C   0  0  0  0  0  0  0  0  0  0  0  0
   10.0305  -19.6384   20.5046 C   0  0  0  0  0  0  0  0  0  0  0  0
   10.1161  -21.0011   21.0595 C   0  0  0  0  0  0  0  0  0  0  0  0
   10.1466  -21.9938   20.2906 O   0  0  0  0  0  0  0  0  0  0  0  0
    9.6785  -16.1741   22.0110 C   0  0  0  0  0  0  0  0  0  0  0  0
   10.7378  -15.6242   22.4109 O   0  0  0  0  0  0  0  0  0  0  0  0
   10.1645  -21.2163   22.4213 O   0  0  0  0  0  0  0  0  0  0  0  0
    8.4742  -15.6730   22.5918 N   0  0  0  0  0  0  0  0  0  0  0  0
    8.4416  -14.8347   23.7729 C   0  0  1  0  0  0  0  0  0  0  0  0
    7.1886  -14.0056   23.8278 C   0  0  0  0  0  0  0  0  0  0  0  0
    7.0106  -13.1973   25.0164 C   0  0  0  0  0  0  0  0  0  0  0  0
    7.7703  -12.0790   25.2664 C   0  0  0  0  0  0  0  0  0  0  0  0
    7.5913  -11.3035   26.4085 C   0  0  0  0  0  0  0  0  0  0  0  0
    6.6099  -11.6927   27.3053 C   0  0  0  0  0  0  0  0  0  0  0  0
    5.8295  -12.8095   27.0857 C   0  0  0  0  0  0  0  0  0  0  0  0
    6.0386  -13.5510   25.9418 C   0  0  0  0  0  0  0  0  0  0  0  0
    8.6850  -15.6139   25.0084 C   0  0  0  0  0  0  0  0  0  0  0  0
    7.9932  -16.6143   25.3199 O   0  0  0  0  0  0  0  0  0  0  0  0
   15.5381  -16.5982   23.8478 N   0  0  0  0  0  0  0  0  0  0  0  0
   14.8011  -17.7877   23.6698 C   0  0  0  0  0  0  0  0  0  0  0  0
   14.9838  -18.5297   22.6495 N   0  0  0  0  0  0  0  0  0  0  0  0
   13.8287  -18.1912   24.6313 N   0  0  0  0  0  0  0  0  0  0  0  0
   13.4376  -17.3670   25.7350 C   0  0  0  0  0  0  0  0  0  0  0  0
   11.9550  -17.0386   25.7099 C   0  0  0  0  0  0  0  0  0  0  0  0
   11.5061  -16.5332   27.0537 C   0  0  0  0  0  0  0  0  0  0  0  0
   10.0592  -16.0966   27.0487 C   0  0  2  0  0  0  0  0  0  0  0  0
    9.7316  -15.2711   25.9279 N   0  0  0  0  0  0  0  0  0  0  0  0
    9.7047  -15.5090   28.3437 C   0  0  0  0  0  0  0  0  0  0  0  0
    9.6262  -14.2393   28.4331 O   0  0  0  0  0  0  0  0  0  0  0  0
    9.4473  -16.2240   29.4821 O   0  0  0  0  0  0  0  0  0  0  0  0
  2  1  1  6
  2  7  1  0
  2  3  1  0
  3  4  1  0
  4  5  1  0
  5  9  1  0
  6  5  2  0
  7  8  2  0
  7 10  1  0
 10 11  1  0
 11 12  1  1
 12 13  1  0
 13 18  2  0
 13 14  1  0
 14 15  2  0
 15 16  1  0
 17 16  2  0
 18 17  1  0
 19 29  1  0
 19 11  1  0
 20 19  2  0
 22 21  1  0
 22 24  1  0
 23 22  2  0
 24 25  1  0
 25 26  1  0
 26 27  1  0
 28 27  1  1
 28 29  1  0
 28 30  1  0
 30 32  1  0
 31 30  2  0
M  END
$$$$
