EFR.pdb
     RDKit          3D

 32 32  0  0  1  0  0  0  0  0999 V2000
    7.3279  -18.2674   20.5556 N   0  0  0  0  0  0  0  0  0  0  0  0
    8.2647  -17.2445   20.2054 C   0  0  1  0  0  0  0  0  0  0  0  0
    7.8532  -16.6671   18.8755 C   0  0  0  0  0  0  0  0  0  0  0  0
    7.9247  -17.7580   17.8250 C   0  0  0  0  0  0  0  0  0  0  0  0
    7.5481  -17.2285   16.5021 C   0  0  0  0  0  0  0  0  0  0  0  0
    8.3809  -16.5780   15.8233 O   0  0  0  0  0  0  0  0  0  0  0  0
    8.4595  -16.2269   21.2462 C   0  0  0  0  0  0  0  0  0  0  0  0
    9.3031  -15.3066   21.0855 O   0  0  0  0  0  0  0  0  0  0  0  0
    6.2861  -17.4330   15.9835 O   0  0  0  0  0  0  0  0  0  0  0  0
    7.7428  -16.1887   22.4805 N   0  0  0  0  0  0  0  0  0  0  0  0
    7.9588  -15.1852   23.5029 C   0  0  1  0  0  0  0  0  0  0  0  0
    6.6732  -14.8021   24.1818 C   0  0  0  0  0  0  0  0  0  0  0  0
    6.7758  -13.7987   25.2213 C   0  0  0  0  0  0  0  0  0  0  0  0
    6.4810  -12.4746   24.9976 C   0  0  0  0  0  0  0  0  0  0  0  0
    6.5770  -11.5157   26.0021 C   0  0  0  0  0  0  0  0  0  0  0  0
    6.9845  -11.9353   27.2578 C   0  0  0  0  0  0  0  0  0  0  0  0
    7.2883  -13.2563   27.5170 C   0  0  0  0  0  0  0  0  0  0  0  0
    7.1804  -14.1752   26.4944 C   0  0  0  0  0  0  0  0  0  0  0  0
    9.0266  -15.5833   24.4485 C   0  0  0  0  0  0  0  0  0  0  0  0
    9.4378  -14.8216   25.3581 O   0  0  0  0  0  0  0  0  0  0  0  0
   17.8964  -17.7085   23.5317 N   0  0  0  0  0  0  0  0  0  0  0  0
   16.7058  -17.0328   23.8720 C   0  0  0  0  0  0  0  0  0  0  0  0
   16.6310  -15.7615   23.8178 N   0  0  0  0  0  0  0  0  0  0  0  0
   15.5510  -17.7589   24.2871 N   0  0  0  0  0  0  0  0  0  0  0  0
   14.2556  -17.5547   23.7121 C   0  0  0  0  0  0  0  0  0  0  0  0
   13.4224  -16.5663   24.5094 C   0  0  0  0  0  0  0  0  0  0  0  0
   12.0350  -16.4671   23.9370 C   0  0  0  0  0  0  0  0  0  0  0  0
   10.9948  -17.0850   24.8428 C   0  0  2  0  0  0  0  0  0  0  0  0
    9.6582  -16.8697   24.3821 N   0  0  0  0  0  0  0  0  0  0  0  0
   11.2204  -16.6671   26.2293 C   0  0  0  0  0  0  0  0  0  0  0  0
   11.2603  -15.4191   26.4883 O   0  0  0  0  0  0  0  0  0  0  0  0
   11.3943  -17.5213   27.2845 O   0  0  0  0  0  0  0  0  0  0  0  0
  2  1  1  1
  2  7  1  0
  2  3  1  0
  3  4  1  0
  4  5  1  0
  5  9  1  0
  6  5  2  0
  7  8  2  0
  7 10  1  0
 10 11  1  0
 11 12  1  1
 12 13  1  0
 13 18  2  0
 13 14  1  0
 14 15  2  0
 15 16  1  0
 17 16  2  0
 18 17  1  0
 19 29  1  0
 19 11  1  0
 20 19  2  0
 22 21  1  0
 22 24  1  0
 23 22  2  0
 24 25  1  0
 25 26  1  0
 26 27  1  0
 28 27  1  6
 28 29  1  0
 28 30  1  0
 30 32  1  0
 31 30  2  0
M  END
$$$$
