EFR.pdb
     RDKit          3D

 32 32  0  0  1  0  0  0  0  0999 V2000
    5.0920  -18.7149   20.2862 N   0  0  0  0  0  0  0  0  0  0  0  0
    5.8737  -18.9776   21.4551 C   0  0  1  0  0  0  0  0  0  0  0  0
    6.8823  -20.0445   21.1148 C   0  0  0  0  0  0  0  0  0  0  0  0
    6.1456  -21.3295   20.7915 C   0  0  0  0  0  0  0  0  0  0  0  0
    6.9403  -22.5001   21.2041 C   0  0  0  0  0  0  0  0  0  0  0  0
    6.3979  -23.4372   21.8405 O   0  0  0  0  0  0  0  0  0  0  0  0
    6.4741  -17.7803   22.0575 C   0  0  0  0  0  0  0  0  0  0  0  0
    7.0928  -16.9505   21.3413 O   0  0  0  0  0  0  0  0  0  0  0  0
    8.2836  -22.5934   20.9042 O   0  0  0  0  0  0  0  0  0  0  0  0
    6.4141  -17.4609   23.4479 N   0  0  0  0  0  0  0  0  0  0  0  0
    7.0610  -16.3046   24.0339 C   0  0  1  0  0  0  0  0  0  0  0  0
    6.2714  -15.7561   25.1897 C   0  0  0  0  0  0  0  0  0  0  0  0
    6.8375  -14.6026   25.8582 C   0  0  0  0  0  0  0  0  0  0  0  0
    6.7215  -13.3290   25.3533 C   0  0  0  0  0  0  0  0  0  0  0  0
    7.2637  -12.2237   26.0029 C   0  0  0  0  0  0  0  0  0  0  0  0
    7.9366  -12.4413   27.1940 C   0  0  0  0  0  0  0  0  0  0  0  0
    8.0718  -13.7062   27.7291 C   0  0  0  0  0  0  0  0  0  0  0  0
    7.5200  -14.7749   27.0543 C   0  0  0  0  0  0  0  0  0  0  0  0
    8.4782  -16.5761   24.3668 C   0  0  0  0  0  0  0  0  0  0  0  0
    8.8369  -17.6024   24.9949 O   0  0  0  0  0  0  0  0  0  0  0  0
   13.6627  -13.6698   18.7311 N   0  0  0  0  0  0  0  0  0  0  0  0
   14.4144  -14.0876   19.8492 C   0  0  0  0  0  0  0  0  0  0  0  0
   15.6357  -13.7490   19.9860 N   0  0  0  0  0  0  0  0  0  0  0  0
   13.8238  -14.9030   20.8588 N   0  0  0  0  0  0  0  0  0  0  0  0
   14.0454  -14.6916   22.2576 C   0  0  0  0  0  0  0  0  0  0  0  0
   13.2112  -15.6239   23.1189 C   0  0  0  0  0  0  0  0  0  0  0  0
   11.7772  -15.1709   23.1466 C   0  0  0  0  0  0  0  0  0  0  0  0
   10.9050  -16.0775   23.9843 C   0  0  2  0  0  0  0  0  0  0  0  0
    9.5318  -15.6785   23.9891 N   0  0  0  0  0  0  0  0  0  0  0  0
   11.4821  -16.2383   25.3219 C   0  0  0  0  0  0  0  0  0  0  0  0
   11.7394  -17.4174   25.7341 O   0  0  0  0  0  0  0  0  0  0  0  0
   11.7715  -15.2096   26.1770 O   0  0  0  0  0  0  0  0  0  0  0  0
  2  1  1  6
  2  7  1  0
  2  3  1  0
  3  4  1  0
  4  5  1  0
  5  9  1  0
  6  5  2  0
  7  8  2  0
  7 10  1  0
 10 11  1  0
 11 12  1  1
 12 13  1  0
 13 18  2  0
 13 14  1  0
 14 15  2  0
 15 16  1  0
 17 16  2  0
 18 17  1  0
 19 29  1  0
 19 11  1  0
 20 19  2  0
 22 21  1  0
 22 24  1  0
 23 22  2  0
 24 25  1  0
 25 26  1  0
 26 27  1  0
 28 27  1  6
 28 29  1  0
 28 30  1  0
 30 32  1  0
 31 30  2  0
M  END
$$$$
