EFR.pdb
     RDKit          3D

 32 32  0  0  1  0  0  0  0  0999 V2000
    9.8282  -16.6360   19.4273 N   0  0  0  0  0  0  0  0  0  0  0  0
    8.6588  -16.5725   20.2488 C   0  0  1  0  0  0  0  0  0  0  0  0
    8.1242  -17.9720   20.4127 C   0  0  0  0  0  0  0  0  0  0  0  0
    7.7897  -18.5318   19.0440 C   0  0  0  0  0  0  0  0  0  0  0  0
    7.2795  -19.9097   19.1584 C   0  0  0  0  0  0  0  0  0  0  0  0
    8.0779  -20.8792   19.1595 O   0  0  0  0  0  0  0  0  0  0  0  0
    8.8586  -15.8729   21.5246 C   0  0  0  0  0  0  0  0  0  0  0  0
    9.9735  -15.9189   22.1070 O   0  0  0  0  0  0  0  0  0  0  0  0
    5.9279  -20.1645   19.2663 O   0  0  0  0  0  0  0  0  0  0  0  0
    7.8528  -15.1103   22.1919 N   0  0  0  0  0  0  0  0  0  0  0  0
    8.0135  -14.5612   23.5229 C   0  0  1  0  0  0  0  0  0  0  0  0
    6.9977  -13.4894   23.8051 C   0  0  0  0  0  0  0  0  0  0  0  0
    7.0180  -12.9274   25.1399 C   0  0  0  0  0  0  0  0  0  0  0  0
    8.0179  -12.0871   25.5694 C   0  0  0  0  0  0  0  0  0  0  0  0
    8.0293  -11.5463   26.8521 C   0  0  0  0  0  0  0  0  0  0  0  0
    6.9886  -11.8814   27.7028 C   0  0  0  0  0  0  0  0  0  0  0  0
    5.9691  -12.7218   27.3043 C   0  0  0  0  0  0  0  0  0  0  0  0
    5.9948  -13.2366   26.0252 C   0  0  0  0  0  0  0  0  0  0  0  0
    8.0506  -15.6220   24.5556 C   0  0  0  0  0  0  0  0  0  0  0  0
    7.1392  -16.4774   24.6741 O   0  0  0  0  0  0  0  0  0  0  0  0
   11.6676  -18.8894   21.4802 N   0  0  0  0  0  0  0  0  0  0  0  0
   12.6586  -19.3924   22.3489 C   0  0  0  0  0  0  0  0  0  0  0  0
   13.8574  -19.5649   21.9516 N   0  0  0  0  0  0  0  0  0  0  0  0
   12.3420  -19.7221   23.6995 N   0  0  0  0  0  0  0  0  0  0  0  0
   11.0287  -19.5705   24.2498 C   0  0  0  0  0  0  0  0  0  0  0  0
   10.8779  -18.2752   25.0284 C   0  0  0  0  0  0  0  0  0  0  0  0
    9.4884  -18.1603   25.5927 C   0  0  0  0  0  0  0  0  0  0  0  0
    9.2810  -16.8684   26.3490 C   0  0  2  0  0  0  0  0  0  0  0  0
    9.1358  -15.7367   25.4869 N   0  0  0  0  0  0  0  0  0  0  0  0
   10.3204  -16.7086   27.3699 C   0  0  0  0  0  0  0  0  0  0  0  0
   10.5104  -17.6605   28.1969 O   0  0  0  0  0  0  0  0  0  0  0  0
   11.1156  -15.6033   27.5092 O   0  0  0  0  0  0  0  0  0  0  0  0
  2  1  1  1
  2  7  1  0
  2  3  1  0
  3  4  1  0
  4  5  1  0
  5  9  1  0
  6  5  2  0
  7  8  2  0
  7 10  1  0
 10 11  1  0
 11 12  1  1
 12 13  1  0
 13 18  2  0
 13 14  1  0
 14 15  2  0
 15 16  1  0
 17 16  2  0
 18 17  1  0
 19 29  1  0
 19 11  1  0
 20 19  2  0
 22 21  1  0
 22 24  1  0
 23 22  2  0
 24 25  1  0
 25 26  1  0
 26 27  1  0
 28 27  1  6
 28 29  1  0
 28 30  1  0
 30 32  1  0
 31 30  2  0
M  END
$$$$
