EFR.pdb
     RDKit          3D

 32 32  0  0  1  0  0  0  0  0999 V2000
    9.5730  -16.5087   18.8120 N   0  0  0  0  0  0  0  0  0  0  0  0
    8.8222  -16.9180   19.9588 C   0  0  1  0  0  0  0  0  0  0  0  0
    9.0760  -18.3861   20.1859 C   0  0  0  0  0  0  0  0  0  0  0  0
    8.5739  -19.1614   18.9836 C   0  0  0  0  0  0  0  0  0  0  0  0
    8.7617  -20.6092   19.1857 C   0  0  0  0  0  0  0  0  0  0  0  0
    7.7683  -21.3523   19.3815 O   0  0  0  0  0  0  0  0  0  0  0  0
    9.0545  -16.0958   21.1533 C   0  0  0  0  0  0  0  0  0  0  0  0
   10.2265  -15.7932   21.4986 O   0  0  0  0  0  0  0  0  0  0  0  0
   10.0192  -21.1764   19.1644 O   0  0  0  0  0  0  0  0  0  0  0  0
    8.0198  -15.5864   21.9951 N   0  0  0  0  0  0  0  0  0  0  0  0
    8.2698  -14.8565   23.2213 C   0  0  1  0  0  0  0  0  0  0  0  0
    7.1424  -13.9157   23.5441 C   0  0  0  0  0  0  0  0  0  0  0  0
    7.2420  -13.2105   24.8053 C   0  0  0  0  0  0  0  0  0  0  0  0
    8.1609  -12.2102   25.0185 C   0  0  0  0  0  0  0  0  0  0  0  0
    8.2486  -11.5328   26.2314 C   0  0  0  0  0  0  0  0  0  0  0  0
    7.3707  -11.8974   27.2390 C   0  0  0  0  0  0  0  0  0  0  0  0
    6.4361  -12.8968   27.0591 C   0  0  0  0  0  0  0  0  0  0  0  0
    6.3818  -13.5436   25.8423 C   0  0  0  0  0  0  0  0  0  0  0  0
    8.6179  -15.7621   24.3401 C   0  0  0  0  0  0  0  0  0  0  0  0
    7.8927  -16.7321   24.6709 O   0  0  0  0  0  0  0  0  0  0  0  0
   14.4120  -20.4991   28.6729 N   0  0  0  0  0  0  0  0  0  0  0  0
   13.8462  -20.8632   27.4332 C   0  0  0  0  0  0  0  0  0  0  0  0
   13.5814  -22.0801   27.1616 N   0  0  0  0  0  0  0  0  0  0  0  0
   13.5551  -19.8739   26.4484 N   0  0  0  0  0  0  0  0  0  0  0  0
   13.4571  -18.4782   26.7533 C   0  0  0  0  0  0  0  0  0  0  0  0
   12.0197  -18.0357   26.9647 C   0  0  0  0  0  0  0  0  0  0  0  0
   11.6159  -17.0413   25.9109 C   0  0  0  0  0  0  0  0  0  0  0  0
   10.2118  -16.5223   26.1194 C   0  0  2  0  0  0  0  0  0  0  0  0
    9.8112  -15.5847   25.1166 N   0  0  0  0  0  0  0  0  0  0  0  0
   10.0540  -16.0300   27.4908 C   0  0  0  0  0  0  0  0  0  0  0  0
   10.1131  -14.7726   27.6948 O   0  0  0  0  0  0  0  0  0  0  0  0
    9.8451  -16.8230   28.5866 O   0  0  0  0  0  0  0  0  0  0  0  0
  2  1  1  6
  2  7  1  0
  2  3  1  0
  3  4  1  0
  4  5  1  0
  5  9  1  0
  6  5  2  0
  7  8  2  0
  7 10  1  0
 10 11  1  0
 11 12  1  1
 12 13  1  0
 13 18  2  0
 13 14  1  0
 14 15  2  0
 15 16  1  0
 17 16  2  0
 18 17  1  0
 19 29  1  0
 19 11  1  0
 20 19  2  0
 22 21  1  0
 22 24  1  0
 23 22  2  0
 24 25  1  0
 25 26  1  0
 26 27  1  0
 28 27  1  6
 28 29  1  0
 28 30  1  0
 30 32  1  0
 31 30  2  0
M  END
$$$$
