EFR.pdb
     RDKit          3D

 32 32  0  0  1  0  0  0  0  0999 V2000
    8.9292  -16.0225   18.8059 N   0  0  0  0  0  0  0  0  0  0  0  0
    8.2252  -16.4801   19.9641 C   0  0  1  0  0  0  0  0  0  0  0  0
    8.5261  -17.9455   20.1472 C   0  0  0  0  0  0  0  0  0  0  0  0
    8.1465  -18.6853   18.8795 C   0  0  0  0  0  0  0  0  0  0  0  0
    8.4033  -20.1292   19.0259 C   0  0  0  0  0  0  0  0  0  0  0  0
    9.2394  -20.6992   18.2819 O   0  0  0  0  0  0  0  0  0  0  0  0
    8.4710  -15.6804   21.1711 C   0  0  0  0  0  0  0  0  0  0  0  0
    9.5050  -14.9683   21.2621 O   0  0  0  0  0  0  0  0  0  0  0  0
    7.7390  -20.8806   19.9732 O   0  0  0  0  0  0  0  0  0  0  0  0
    7.5997  -15.6381   22.3014 N   0  0  0  0  0  0  0  0  0  0  0  0
    7.8010  -14.7614   23.4371 C   0  0  1  0  0  0  0  0  0  0  0  0
    6.5137  -14.1203   23.8755 C   0  0  0  0  0  0  0  0  0  0  0  0
    6.5666  -13.3624   25.1086 C   0  0  0  0  0  0  0  0  0  0  0  0
    5.9297  -13.7761   26.2547 C   0  0  0  0  0  0  0  0  0  0  0  0
    5.9883  -13.0456   27.4382 C   0  0  0  0  0  0  0  0  0  0  0  0
    6.7182  -11.8682   27.4341 C   0  0  0  0  0  0  0  0  0  0  0  0
    7.3696  -11.4235   26.3017 C   0  0  0  0  0  0  0  0  0  0  0  0
    7.2867  -12.1766   25.1493 C   0  0  0  0  0  0  0  0  0  0  0  0
    8.5230  -15.4414   24.5367 C   0  0  0  0  0  0  0  0  0  0  0  0
    8.8771  -14.8411   25.5812 O   0  0  0  0  0  0  0  0  0  0  0  0
   15.3007  -15.7142   24.3709 N   0  0  0  0  0  0  0  0  0  0  0  0
   15.7234  -16.8357   23.6271 C   0  0  0  0  0  0  0  0  0  0  0  0
   16.9504  -17.1793   23.5927 N   0  0  0  0  0  0  0  0  0  0  0  0
   14.7838  -17.6164   22.8918 N   0  0  0  0  0  0  0  0  0  0  0  0
   13.4358  -17.1941   22.6577 C   0  0  0  0  0  0  0  0  0  0  0  0
   12.5546  -17.3808   23.8806 C   0  0  0  0  0  0  0  0  0  0  0  0
   11.1336  -17.0001   23.5670 C   0  0  0  0  0  0  0  0  0  0  0  0
   10.1925  -17.3033   24.7102 C   0  0  2  0  0  0  0  0  0  0  0  0
    8.8624  -16.8339   24.4746 N   0  0  0  0  0  0  0  0  0  0  0  0
   10.7704  -16.8422   25.9757 C   0  0  0  0  0  0  0  0  0  0  0  0
   11.9336  -17.2540   26.2975 O   0  0  0  0  0  0  0  0  0  0  0  0
   10.1528  -15.9923   26.8531 O   0  0  0  0  0  0  0  0  0  0  0  0
  2  1  1  6
  2  7  1  0
  2  3  1  0
  3  4  1  0
  4  5  1  0
  5  9  1  0
  6  5  2  0
  7  8  2  0
  7 10  1  0
 10 11  1  0
 11 12  1  1
 12 13  1  0
 13 18  2  0
 13 14  1  0
 14 15  2  0
 15 16  1  0
 17 16  2  0
 18 17  1  0
 19 29  1  0
 19 11  1  0
 20 19  2  0
 22 21  1  0
 22 24  1  0
 23 22  2  0
 24 25  1  0
 25 26  1  0
 26 27  1  0
 28 27  1  6
 28 29  1  0
 28 30  1  0
 30 32  1  0
 31 30  2  0
M  END
$$$$
