EFR.pdb
     RDKit          3D

 32 32  0  0  1  0  0  0  0  0999 V2000
    9.8864  -17.3588   16.2988 N   0  0  0  0  0  0  0  0  0  0  0  0
    9.6454  -18.2012   17.4296 C   0  0  1  0  0  0  0  0  0  0  0  0
   10.3044  -19.5318   17.1720 C   0  0  0  0  0  0  0  0  0  0  0  0
   11.5155  -19.3150   16.2861 C   0  0  0  0  0  0  0  0  0  0  0  0
   11.9069  -20.5737   15.6267 C   0  0  0  0  0  0  0  0  0  0  0  0
   12.9402  -20.6168   14.9141 O   0  0  0  0  0  0  0  0  0  0  0  0
   10.0257  -17.6029   18.7158 C   0  0  0  0  0  0  0  0  0  0  0  0
   11.1906  -17.1595   18.8910 O   0  0  0  0  0  0  0  0  0  0  0  0
   11.1563  -21.7215   15.7752 O   0  0  0  0  0  0  0  0  0  0  0  0
    9.1492  -17.4744   19.8357 N   0  0  0  0  0  0  0  0  0  0  0  0
    9.5420  -16.8819   21.0980 C   0  0  1  0  0  0  0  0  0  0  0  0
    8.4233  -16.0815   21.7048 C   0  0  0  0  0  0  0  0  0  0  0  0
    8.0889  -14.8425   21.0332 C   0  0  0  0  0  0  0  0  0  0  0  0
    8.7645  -13.6694   21.2737 C   0  0  0  0  0  0  0  0  0  0  0  0
    8.4414  -12.4829   20.6215 C   0  0  0  0  0  0  0  0  0  0  0  0
    7.4023  -12.5122   19.7059 C   0  0  0  0  0  0  0  0  0  0  0  0
    6.7030  -13.6720   19.4405 C   0  0  0  0  0  0  0  0  0  0  0  0
    7.0544  -14.8265   20.1081 C   0  0  0  0  0  0  0  0  0  0  0  0
   10.1150  -17.8861   22.0233 C   0  0  0  0  0  0  0  0  0  0  0  0
    9.5430  -18.9760   22.2710 O   0  0  0  0  0  0  0  0  0  0  0  0
   14.1679  -17.7790   18.9987 N   0  0  0  0  0  0  0  0  0  0  0  0
   14.7614  -19.0537   19.1107 C   0  0  0  0  0  0  0  0  0  0  0  0
   15.1289  -19.7027   18.0770 N   0  0  0  0  0  0  0  0  0  0  0  0
   14.9659  -19.6506   20.3894 N   0  0  0  0  0  0  0  0  0  0  0  0
   15.1937  -18.8848   21.5777 C   0  0  0  0  0  0  0  0  0  0  0  0
   13.9169  -18.2592   22.1117 C   0  0  0  0  0  0  0  0  0  0  0  0
   13.2564  -19.1779   23.1027 C   0  0  0  0  0  0  0  0  0  0  0  0
   11.9260  -18.6443   23.5819 C   0  0  2  0  0  0  0  0  0  0  0  0
   11.3646  -17.6731   22.6950 N   0  0  0  0  0  0  0  0  0  0  0  0
   12.0355  -18.1884   24.9706 C   0  0  0  0  0  0  0  0  0  0  0  0
   13.0817  -17.5474   25.3182 O   0  0  0  0  0  0  0  0  0  0  0  0
   11.0912  -18.3984   25.9388 O   0  0  0  0  0  0  0  0  0  0  0  0
  2  1  1  6
  2  7  1  0
  2  3  1  0
  3  4  1  0
  4  5  1  0
  5  9  1  0
  6  5  2  0
  7  8  2  0
  7 10  1  0
 10 11  1  0
 11 12  1  1
 12 13  1  0
 13 18  2  0
 13 14  1  0
 14 15  2  0
 15 16  1  0
 17 16  2  0
 18 17  1  0
 19 29  1  0
 19 11  1  0
 20 19  2  0
 22 21  1  0
 22 24  1  0
 23 22  2  0
 24 25  1  0
 25 26  1  0
 26 27  1  0
 28 27  1  6
 28 29  1  0
 28 30  1  0
 30 32  1  0
 31 30  2  0
M  END
$$$$
