EFR.pdb
     RDKit          3D

 32 32  0  0  1  0  0  0  0  0999 V2000
    7.6677  -17.1545   19.3188 N   0  0  0  0  0  0  0  0  0  0  0  0
    8.9312  -16.5204   19.5382 C   0  0  1  0  0  0  0  0  0  0  0  0
    9.3264  -15.8108   18.2687 C   0  0  0  0  0  0  0  0  0  0  0  0
    8.3649  -16.2083   17.1660 C   0  0  0  0  0  0  0  0  0  0  0  0
    8.6821  -15.4903   15.9185 C   0  0  0  0  0  0  0  0  0  0  0  0
    9.6829  -14.7334   15.8641 O   0  0  0  0  0  0  0  0  0  0  0  0
    8.9710  -15.6557   20.7246 C   0  0  0  0  0  0  0  0  0  0  0  0
    9.9869  -14.9525   20.9649 O   0  0  0  0  0  0  0  0  0  0  0  0
    7.8963  -15.6313   14.7934 O   0  0  0  0  0  0  0  0  0  0  0  0
    7.9093  -15.5376   21.6721 N   0  0  0  0  0  0  0  0  0  0  0  0
    8.0422  -14.8592   22.9453 C   0  0  1  0  0  0  0  0  0  0  0  0
    6.7393  -14.2529   23.3871 C   0  0  0  0  0  0  0  0  0  0  0  0
    6.7303  -13.6522   24.7051 C   0  0  0  0  0  0  0  0  0  0  0  0
    6.2663  -14.3188   25.8145 C   0  0  0  0  0  0  0  0  0  0  0  0
    6.2647  -13.7377   27.0794 C   0  0  0  0  0  0  0  0  0  0  0  0
    6.7512  -12.4461   27.1967 C   0  0  0  0  0  0  0  0  0  0  0  0
    7.2243  -11.7481   26.1042 C   0  0  0  0  0  0  0  0  0  0  0  0
    7.2087  -12.3596   24.8682 C   0  0  0  0  0  0  0  0  0  0  0  0
    8.6631  -15.7288   23.9706 C   0  0  0  0  0  0  0  0  0  0  0  0
    8.0743  -16.7283   24.4509 O   0  0  0  0  0  0  0  0  0  0  0  0
   15.3163  -15.2025   21.9442 N   0  0  0  0  0  0  0  0  0  0  0  0
   14.3544  -15.5817   20.9846 C   0  0  0  0  0  0  0  0  0  0  0  0
   14.4003  -15.1328   19.7924 N   0  0  0  0  0  0  0  0  0  0  0  0
   13.3018  -16.4808   21.3263 N   0  0  0  0  0  0  0  0  0  0  0  0
   13.1226  -17.0021   22.6479 C   0  0  0  0  0  0  0  0  0  0  0  0
   12.4026  -16.0231   23.5590 C   0  0  0  0  0  0  0  0  0  0  0  0
   12.0874  -16.6696   24.8800 C   0  0  0  0  0  0  0  0  0  0  0  0
   10.6624  -16.4182   25.3166 C   0  0  2  0  0  0  0  0  0  0  0  0
    9.9816  -15.4804   24.4787 N   0  0  0  0  0  0  0  0  0  0  0  0
   10.6234  -16.0797   26.7420 C   0  0  0  0  0  0  0  0  0  0  0  0
   11.0885  -16.9220   27.5789 O   0  0  0  0  0  0  0  0  0  0  0  0
   10.1205  -14.9146   27.2551 O   0  0  0  0  0  0  0  0  0  0  0  0
  2  1  1  6
  2  7  1  0
  2  3  1  0
  3  4  1  0
  4  5  1  0
  5  9  1  0
  6  5  2  0
  7  8  2  0
  7 10  1  0
 10 11  1  0
 11 12  1  1
 12 13  1  0
 13 18  2  0
 13 14  1  0
 14 15  2  0
 15 16  1  0
 17 16  2  0
 18 17  1  0
 19 29  1  0
 19 11  1  0
 20 19  2  0
 22 21  1  0
 22 24  1  0
 23 22  2  0
 24 25  1  0
 25 26  1  0
 26 27  1  0
 28 27  1  6
 28 29  1  0
 28 30  1  0
 30 32  1  0
 31 30  2  0
M  END
$$$$
