PFY.pdb
     RDKit          3D

 31 33  0  0  1  0  0  0  0  0999 V2000
   27.6404  -20.3538  -17.1710 N   0  0  0  0  0  0  0  0  0  0  0  0
   28.9946  -20.3487  -17.6665 C   0  0  0  0  0  0  0  0  0  0  0  0
   29.2391  -21.7326  -18.2265 C   0  0  0  0  0  0  0  0  0  0  0  0
   28.4239  -22.5939  -17.2947 C   0  0  0  0  0  0  0  0  0  0  0  0
   27.2766  -21.7124  -16.8899 C   0  0  1  0  0  0  0  0  0  0  0  0
   26.9860  -21.8317  -15.4243 C   0  0  0  0  0  0  0  0  0  0  0  0
   26.6390  -22.9244  -14.9059 O   0  0  0  0  0  0  0  0  0  0  0  0
   27.0903  -20.7078  -14.5487 N   0  0  0  0  0  0  0  0  0  0  0  0
   26.8152  -20.7949  -13.1441 C   0  0  1  0  0  0  0  0  0  0  0  0
   27.7374  -19.9535  -12.3036 C   0  0  0  0  0  0  0  0  0  0  0  0
   27.5419  -20.1424  -10.8624 C   0  0  0  0  0  0  0  0  0  0  0  0
   28.3273  -21.0442  -10.1632 C   0  0  0  0  0  0  0  0  0  0  0  0
   28.1695  -21.2459   -8.8076 C   0  0  0  0  0  0  0  0  0  0  0  0
   27.2183  -20.5547   -8.0870 C   0  0  0  0  0  0  0  0  0  0  0  0
   26.4308  -19.6543   -8.7735 C   0  0  0  0  0  0  0  0  0  0  0  0
   26.5925  -19.4548  -10.1346 C   0  0  0  0  0  0  0  0  0  0  0  0
   25.3968  -20.5096  -12.8175 C   0  0  0  0  0  0  0  0  0  0  0  0
   24.9185  -19.4174  -13.2128 O   0  0  0  0  0  0  0  0  0  0  0  0
   18.6369  -19.2178  -15.8721 O   0  0  0  0  0  0  0  0  0  0  0  0
   19.5322  -19.8997  -15.0534 C   0  0  0  0  0  0  0  0  0  0  0  0
   20.7649  -20.2805  -15.5077 C   0  0  0  0  0  0  0  0  0  0  0  0
   21.6432  -20.9543  -14.6910 C   0  0  0  0  0  0  0  0  0  0  0  0
   21.3108  -21.2666  -13.3940 C   0  0  0  0  0  0  0  0  0  0  0  0
   22.2104  -21.9948  -12.4784 C   0  0  0  0  0  0  0  0  0  0  0  0
   23.1413  -21.0252  -11.8148 C   0  0  2  0  0  0  0  0  0  0  0  0
   24.5440  -21.3801  -12.0924 N   0  0  0  0  0  0  0  0  0  0  0  0
   22.9868  -20.9209  -10.3547 C   0  0  0  0  0  0  0  0  0  0  0  0
   22.0099  -20.3774   -9.7852 O   0  0  0  0  0  0  0  0  0  0  0  0
   20.0719  -20.8854  -12.9325 C   0  0  0  0  0  0  0  0  0  0  0  0
   19.1721  -20.2002  -13.7544 C   0  0  0  0  0  0  0  0  0  0  0  0
   23.9586  -21.4423   -9.4839 O   0  0  0  0  0  0  0  0  0  0  0  0
  1  2  1  0
  1  5  1  0
  2  3  1  0
  3  4  1  0
  5  6  1  1
  5  4  1  0
  6  7  2  0
  8  9  1  0
  8  6  1  0
  9 10  1  1
 11 12  2  0
 11 10  1  0
 13 12  1  0
 14 13  2  0
 15 14  1  0
 15 16  2  0
 16 11  1  0
 17  9  1  0
 18 17  2  0
 19 20  1  0
 20 21  2  0
 20 30  1  0
 21 22  1  0
 22 23  2  0
 23 24  1  0
 25 24  1  1
 25 27  1  0
 25 26  1  0
 26 17  1  0
 27 31  1  0
 28 27  2  0
 29 23  1  0
 30 29  2  0
M  END
$$$$
