PFY.pdb
     RDKit          3D

 31 33  0  0  1  0  0  0  0  0999 V2000
   22.9003   -9.3544  -19.8998 N   0  0  0  0  0  0  0  0  0  0  0  0
   23.9531   -9.9124  -20.7120 C   0  0  0  0  0  0  0  0  0  0  0  0
   23.6753  -11.3974  -20.7922 C   0  0  0  0  0  0  0  0  0  0  0  0
   23.0837  -11.6773  -19.4334 C   0  0  0  0  0  0  0  0  0  0  0  0
   22.3776  -10.4016  -19.0709 C   0  0  1  0  0  0  0  0  0  0  0  0
   22.6143  -10.0341  -17.6372 C   0  0  0  0  0  0  0  0  0  0  0  0
   22.3769  -10.8396  -16.7003 O   0  0  0  0  0  0  0  0  0  0  0  0
   23.1210   -8.7499  -17.2697 N   0  0  0  0  0  0  0  0  0  0  0  0
   23.4505   -8.4081  -15.9166 C   0  0  1  0  0  0  0  0  0  0  0  0
   24.8574   -7.8983  -15.7572 C   0  0  0  0  0  0  0  0  0  0  0  0
   25.8773   -8.8949  -16.0999 C   0  0  0  0  0  0  0  0  0  0  0  0
   26.6840   -8.7152  -17.2116 C   0  0  0  0  0  0  0  0  0  0  0  0
   27.6524   -9.6330  -17.5621 C   0  0  0  0  0  0  0  0  0  0  0  0
   27.8599  -10.7746  -16.8166 C   0  0  0  0  0  0  0  0  0  0  0  0
   27.0621  -10.9634  -15.7075 C   0  0  0  0  0  0  0  0  0  0  0  0
   26.0909  -10.0393  -15.3592 C   0  0  0  0  0  0  0  0  0  0  0  0
   22.4772   -7.4689  -15.3079 C   0  0  0  0  0  0  0  0  0  0  0  0
   22.0971   -6.4949  -16.0040 O   0  0  0  0  0  0  0  0  0  0  0  0
   16.2862   -3.5907  -10.4691 O   0  0  0  0  0  0  0  0  0  0  0  0
   17.2002   -4.5032  -10.9878 C   0  0  0  0  0  0  0  0  0  0  0  0
   17.0784   -4.9878  -12.2610 C   0  0  0  0  0  0  0  0  0  0  0  0
   17.9869   -5.8895  -12.7651 C   0  0  0  0  0  0  0  0  0  0  0  0
   19.0447   -6.3322  -12.0065 C   0  0  0  0  0  0  0  0  0  0  0  0
   20.0423   -7.3044  -12.4939 C   0  0  0  0  0  0  0  0  0  0  0  0
   20.9519   -6.6363  -13.4806 C   0  0  2  0  0  0  0  0  0  0  0  0
   21.9464   -7.5919  -13.9988 N   0  0  0  0  0  0  0  0  0  0  0  0
   21.6821   -5.4705  -12.9570 C   0  0  0  0  0  0  0  0  0  0  0  0
   21.3459   -4.2786  -13.1574 O   0  0  0  0  0  0  0  0  0  0  0  0
   19.1714   -5.8473  -10.7251 C   0  0  0  0  0  0  0  0  0  0  0  0
   18.2537   -4.9306  -10.2035 C   0  0  0  0  0  0  0  0  0  0  0  0
   22.8386   -5.6310  -12.1751 O   0  0  0  0  0  0  0  0  0  0  0  0
  1  2  1  0
  1  5  1  0
  2  3  1  0
  3  4  1  0
  5  6  1  1
  5  4  1  0
  6  7  2  0
  8  9  1  0
  8  6  1  0
  9 10  1  6
 11 12  2  0
 11 10  1  0
 13 12  1  0
 14 13  2  0
 15 14  1  0
 15 16  2  0
 16 11  1  0
 17  9  1  0
 18 17  2  0
 19 20  1  0
 20 21  2  0
 20 30  1  0
 21 22  1  0
 22 23  2  0
 23 24  1  0
 25 24  1  1
 25 27  1  0
 25 26  1  0
 26 17  1  0
 27 31  1  0
 28 27  2  0
 29 23  1  0
 30 29  2  0
M  END
$$$$
