PFY.pdb
     RDKit          3D

 31 33  0  0  1  0  0  0  0  0999 V2000
   28.4337  -20.9964  -17.4942 N   0  0  0  0  0  0  0  0  0  0  0  0
   29.8721  -20.9168  -17.5581 C   0  0  0  0  0  0  0  0  0  0  0  0
   30.3547  -22.3198  -17.8541 C   0  0  0  0  0  0  0  0  0  0  0  0
   29.3424  -23.1594  -17.1160 C   0  0  0  0  0  0  0  0  0  0  0  0
   28.0783  -22.3497  -17.1791 C   0  0  1  0  0  0  0  0  0  0  0  0
   27.3582  -22.3569  -15.8645 C   0  0  0  0  0  0  0  0  0  0  0  0
   26.8977  -23.4176  -15.3688 O   0  0  0  0  0  0  0  0  0  0  0  0
   27.1623  -21.1572  -15.1142 N   0  0  0  0  0  0  0  0  0  0  0  0
   26.4347  -21.1290  -13.8789 C   0  0  1  0  0  0  0  0  0  0  0  0
   27.1120  -20.3176  -12.8075 C   0  0  0  0  0  0  0  0  0  0  0  0
   26.4508  -20.4146  -11.5020 C   0  0  0  0  0  0  0  0  0  0  0  0
   25.3418  -19.6335  -11.2209 C   0  0  0  0  0  0  0  0  0  0  0  0
   24.6965  -19.7001  -10.0034 C   0  0  0  0  0  0  0  0  0  0  0  0
   25.1302  -20.5516   -9.0091 C   0  0  0  0  0  0  0  0  0  0  0  0
   26.2337  -21.3339   -9.2785 C   0  0  0  0  0  0  0  0  0  0  0  0
   26.8787  -21.2639  -10.5023 C   0  0  0  0  0  0  0  0  0  0  0  0
   25.0250  -20.7017  -14.0519 C   0  0  0  0  0  0  0  0  0  0  0  0
   24.8187  -19.5833  -14.5852 O   0  0  0  0  0  0  0  0  0  0  0  0
   16.5033  -19.7519  -15.3459 O   0  0  0  0  0  0  0  0  0  0  0  0
   17.8076  -20.2243  -15.2339 C   0  0  0  0  0  0  0  0  0  0  0  0
   18.8376  -19.6414  -15.9196 C   0  0  0  0  0  0  0  0  0  0  0  0
   20.1237  -20.1154  -15.8025 C   0  0  0  0  0  0  0  0  0  0  0  0
   20.4149  -21.1887  -14.9940 C   0  0  0  0  0  0  0  0  0  0  0  0
   21.7738  -21.7428  -14.8388 C   0  0  0  0  0  0  0  0  0  0  0  0
   22.5261  -20.9448  -13.8168 C   0  0  2  0  0  0  0  0  0  0  0  0
   23.8959  -21.4641  -13.6589 N   0  0  0  0  0  0  0  0  0  0  0  0
   21.9054  -20.9073  -12.4826 C   0  0  0  0  0  0  0  0  0  0  0  0
   22.0411  -21.8038  -11.6155 O   0  0  0  0  0  0  0  0  0  0  0  0
   19.3819  -21.7782  -14.3022 C   0  0  0  0  0  0  0  0  0  0  0  0
   18.0715  -21.3040  -14.4142 C   0  0  0  0  0  0  0  0  0  0  0  0
   21.0968  -19.8275  -12.0896 O   0  0  0  0  0  0  0  0  0  0  0  0
  1  2  1  0
  1  5  1  0
  2  3  1  0
  3  4  1  0
  5  6  1  1
  5  4  1  0
  6  7  2  0
  8  9  1  0
  8  6  1  0
  9 10  1  1
 11 12  2  0
 11 10  1  0
 13 12  1  0
 14 13  2  0
 15 14  1  0
 15 16  2  0
 16 11  1  0
 17  9  1  0
 18 17  2  0
 19 20  1  0
 20 21  2  0
 20 30  1  0
 21 22  1  0
 22 23  2  0
 23 24  1  0
 25 24  1  6
 25 27  1  0
 25 26  1  0
 26 17  1  0
 27 31  1  0
 28 27  2  0
 29 23  1  0
 30 29  2  0
M  END
$$$$
