PFY.pdb
     RDKit          3D

 31 33  0  0  1  0  0  0  0  0999 V2000
   28.6569  -20.6865  -14.7665 N   0  0  0  0  0  0  0  0  0  0  0  0
   28.3487  -20.0021  -15.9977 C   0  0  0  0  0  0  0  0  0  0  0  0
   28.3035  -18.5290  -15.6561 C   0  0  0  0  0  0  0  0  0  0  0  0
   27.7477  -18.5515  -14.2543 C   0  0  0  0  0  0  0  0  0  0  0  0
   28.2575  -19.8421  -13.6781 C   0  0  1  0  0  0  0  0  0  0  0  0
   27.1932  -20.5496  -12.8950 C   0  0  0  0  0  0  0  0  0  0  0  0
   26.7331  -21.6622  -13.2602 O   0  0  0  0  0  0  0  0  0  0  0  0
   26.6526  -19.9909  -11.6965 N   0  0  0  0  0  0  0  0  0  0  0  0
   25.5875  -20.6141  -10.9660 C   0  0  1  0  0  0  0  0  0  0  0  0
   25.4132  -20.0589   -9.5781 C   0  0  0  0  0  0  0  0  0  0  0  0
   26.6080  -20.2068   -8.7405 C   0  0  0  0  0  0  0  0  0  0  0  0
   26.9142  -19.2513   -7.7854 C   0  0  0  0  0  0  0  0  0  0  0  0
   28.0299  -19.3599   -6.9813 C   0  0  0  0  0  0  0  0  0  0  0  0
   28.8925  -20.4300   -7.0947 C   0  0  0  0  0  0  0  0  0  0  0  0
   28.5969  -21.3872   -8.0427 C   0  0  0  0  0  0  0  0  0  0  0  0
   27.4756  -21.2743   -8.8480 C   0  0  0  0  0  0  0  0  0  0  0  0
   24.3010  -20.6026  -11.7040 C   0  0  0  0  0  0  0  0  0  0  0  0
   24.0044  -19.5591  -12.3373 O   0  0  0  0  0  0  0  0  0  0  0  0
   17.0265  -22.5635  -16.1003 O   0  0  0  0  0  0  0  0  0  0  0  0
   18.1611  -22.6748  -15.3020 C   0  0  0  0  0  0  0  0  0  0  0  0
   18.0671  -22.9445  -13.9644 C   0  0  0  0  0  0  0  0  0  0  0  0
   19.1944  -23.0526  -13.1833 C   0  0  0  0  0  0  0  0  0  0  0  0
   20.4497  -22.8931  -13.7209 C   0  0  0  0  0  0  0  0  0  0  0  0
   21.6905  -22.9897  -12.9280 C   0  0  0  0  0  0  0  0  0  0  0  0
   22.1518  -21.6143  -12.5504 C   0  0  2  0  0  0  0  0  0  0  0  0
   23.3838  -21.6833  -11.7453 N   0  0  0  0  0  0  0  0  0  0  0  0
   21.1693  -20.8179  -11.7974 C   0  0  0  0  0  0  0  0  0  0  0  0
   21.1009  -20.7816  -10.5452 O   0  0  0  0  0  0  0  0  0  0  0  0
   20.5491  -22.6218  -15.0662 C   0  0  0  0  0  0  0  0  0  0  0  0
   19.4098  -22.5101  -15.8686 C   0  0  0  0  0  0  0  0  0  0  0  0
   20.2180  -20.0247  -12.4608 O   0  0  0  0  0  0  0  0  0  0  0  0
  1  2  1  0
  1  5  1  0
  2  3  1  0
  3  4  1  0
  5  6  1  6
  5  4  1  0
  6  7  2  0
  8  9  1  0
  8  6  1  0
  9 10  1  1
 11 12  2  0
 11 10  1  0
 13 12  1  0
 14 13  2  0
 15 14  1  0
 15 16  2  0
 16 11  1  0
 17  9  1  0
 18 17  2  0
 19 20  1  0
 20 21  2  0
 20 30  1  0
 21 22  1  0
 22 23  2  0
 23 24  1  0
 25 24  1  1
 25 27  1  0
 25 26  1  0
 26 17  1  0
 27 31  1  0
 28 27  2  0
 29 23  1  0
 30 29  2  0
M  END
$$$$
