PFY.pdb
     RDKit          3D

 31 33  0  0  1  0  0  0  0  0999 V2000
   27.8009  -20.3057  -17.0722 N   0  0  0  0  0  0  0  0  0  0  0  0
   29.2425  -20.2789  -17.0945 C   0  0  0  0  0  0  0  0  0  0  0  0
   29.6780  -21.6513  -17.5591 C   0  0  0  0  0  0  0  0  0  0  0  0
   28.6146  -22.5355  -16.9576 C   0  0  0  0  0  0  0  0  0  0  0  0
   27.3850  -21.6722  -16.9424 C   0  0  1  0  0  0  0  0  0  0  0  0
   26.6305  -21.8178  -15.6554 C   0  0  0  0  0  0  0  0  0  0  0  0
   25.9656  -22.8531  -15.3925 O   0  0  0  0  0  0  0  0  0  0  0  0
   26.6327  -20.7855  -14.6680 N   0  0  0  0  0  0  0  0  0  0  0  0
   25.9163  -20.8987  -13.4309 C   0  0  1  0  0  0  0  0  0  0  0  0
   26.5994  -20.2071  -12.2821 C   0  0  0  0  0  0  0  0  0  0  0  0
   25.9134  -20.3982  -10.9999 C   0  0  0  0  0  0  0  0  0  0  0  0
   24.9060  -19.5308  -10.6106 C   0  0  0  0  0  0  0  0  0  0  0  0
   24.2407  -19.6820   -9.4116 C   0  0  0  0  0  0  0  0  0  0  0  0
   24.5519  -20.7087   -8.5449 C   0  0  0  0  0  0  0  0  0  0  0  0
   25.5536  -21.5782   -8.9228 C   0  0  0  0  0  0  0  0  0  0  0  0
   26.2190  -21.4227  -10.1276 C   0  0  0  0  0  0  0  0  0  0  0  0
   24.5030  -20.4631  -13.5434 C   0  0  0  0  0  0  0  0  0  0  0  0
   24.2789  -19.3551  -14.0911 O   0  0  0  0  0  0  0  0  0  0  0  0
   16.0145  -19.5610  -14.8898 O   0  0  0  0  0  0  0  0  0  0  0  0
   17.3449  -19.9596  -14.7995 C   0  0  0  0  0  0  0  0  0  0  0  0
   18.3565  -19.1817  -15.2917 C   0  0  0  0  0  0  0  0  0  0  0  0
   19.6686  -19.5841  -15.1978 C   0  0  0  0  0  0  0  0  0  0  0  0
   20.0050  -20.7794  -14.6075 C   0  0  0  0  0  0  0  0  0  0  0  0
   21.3941  -21.2632  -14.4883 C   0  0  0  0  0  0  0  0  0  0  0  0
   22.0118  -20.7092  -13.2398 C   0  0  2  0  0  0  0  0  0  0  0  0
   23.3891  -21.2067  -13.0777 N   0  0  0  0  0  0  0  0  0  0  0  0
   21.2780  -21.0121  -12.0003 C   0  0  0  0  0  0  0  0  0  0  0  0
   20.4417  -20.2424  -11.4690 O   0  0  0  0  0  0  0  0  0  0  0  0
   18.9907  -21.5653  -14.1108 C   0  0  0  0  0  0  0  0  0  0  0  0
   17.6541  -21.1653  -14.2010 C   0  0  0  0  0  0  0  0  0  0  0  0
   21.4787  -22.2231  -11.3167 O   0  0  0  0  0  0  0  0  0  0  0  0
  1  2  1  0
  1  5  1  0
  2  3  1  0
  3  4  1  0
  5  6  1  1
  5  4  1  0
  6  7  2  0
  8  9  1  0
  8  6  1  0
  9 10  1  1
 11 12  2  0
 11 10  1  0
 13 12  1  0
 14 13  2  0
 15 14  1  0
 15 16  2  0
 16 11  1  0
 17  9  1  0
 18 17  2  0
 19 20  1  0
 20 21  2  0
 20 30  1  0
 21 22  1  0
 22 23  2  0
 23 24  1  0
 25 24  1  6
 25 27  1  0
 25 26  1  0
 26 17  1  0
 27 31  1  0
 28 27  2  0
 29 23  1  0
 30 29  2  0
M  END
$$$$
