PFY.pdb
     RDKit          3D

 31 33  0  0  1  0  0  0  0  0999 V2000
   27.8661  -20.8100  -16.9878 N   0  0  0  0  0  0  0  0  0  0  0  0
   29.2758  -20.6089  -17.2147 C   0  0  0  0  0  0  0  0  0  0  0  0
   29.8473  -21.9749  -17.5250 C   0  0  0  0  0  0  0  0  0  0  0  0
   29.0013  -22.8711  -16.6557 C   0  0  0  0  0  0  0  0  0  0  0  0
   27.6703  -22.1764  -16.5984 C   0  0  1  0  0  0  0  0  0  0  0  0
   27.1018  -22.1974  -15.2117 C   0  0  0  0  0  0  0  0  0  0  0  0
   26.4654  -23.1901  -14.7730 O   0  0  0  0  0  0  0  0  0  0  0  0
   27.2574  -21.0887  -14.3243 N   0  0  0  0  0  0  0  0  0  0  0  0
   26.6190  -21.0307  -13.0416 C   0  0  1  0  0  0  0  0  0  0  0  0
   27.4634  -20.3693  -11.9859 C   0  0  0  0  0  0  0  0  0  0  0  0
   26.8202  -20.3329  -10.6683 C   0  0  0  0  0  0  0  0  0  0  0  0
   26.0382  -19.2496  -10.3023 C   0  0  0  0  0  0  0  0  0  0  0  0
   25.4194  -19.1837   -9.0711 C   0  0  0  0  0  0  0  0  0  0  0  0
   25.5536  -20.1989   -8.1474 C   0  0  0  0  0  0  0  0  0  0  0  0
   26.3301  -21.2823   -8.5015 C   0  0  0  0  0  0  0  0  0  0  0  0
   26.9497  -21.3444   -9.7388 C   0  0  0  0  0  0  0  0  0  0  0  0
   25.2698  -20.4171  -13.0985 C   0  0  0  0  0  0  0  0  0  0  0  0
   25.1674  -19.2896  -13.6425 O   0  0  0  0  0  0  0  0  0  0  0  0
   17.0951  -18.6147  -14.9288 O   0  0  0  0  0  0  0  0  0  0  0  0
   18.3558  -19.1739  -14.7422 C   0  0  0  0  0  0  0  0  0  0  0  0
   18.5064  -20.4647  -14.3158 C   0  0  0  0  0  0  0  0  0  0  0  0
   19.7567  -21.0089  -14.1341 C   0  0  0  0  0  0  0  0  0  0  0  0
   20.8936  -20.2739  -14.3746 C   0  0  0  0  0  0  0  0  0  0  0  0
   22.2578  -20.8046  -14.1878 C   0  0  0  0  0  0  0  0  0  0  0  0
   22.7626  -20.4211  -12.8294 C   0  0  2  0  0  0  0  0  0  0  0  0
   24.0899  -21.0115  -12.5836 N   0  0  0  0  0  0  0  0  0  0  0  0
   21.8864  -20.8095  -11.7122 C   0  0  0  0  0  0  0  0  0  0  0  0
   20.8641  -20.1719  -11.3622 O   0  0  0  0  0  0  0  0  0  0  0  0
   20.7470  -18.9749  -14.8039 C   0  0  0  0  0  0  0  0  0  0  0  0
   19.4808  -18.4126  -14.9917 C   0  0  0  0  0  0  0  0  0  0  0  0
   22.1537  -21.9569  -10.9464 O   0  0  0  0  0  0  0  0  0  0  0  0
  1  2  1  0
  1  5  1  0
  2  3  1  0
  3  4  1  0
  5  6  1  1
  5  4  1  0
  6  7  2  0
  8  9  1  0
  8  6  1  0
  9 10  1  1
 11 12  2  0
 11 10  1  0
 13 12  1  0
 14 13  2  0
 15 14  1  0
 15 16  2  0
 16 11  1  0
 17  9  1  0
 18 17  2  0
 19 20  1  0
 20 21  2  0
 20 30  1  0
 21 22  1  0
 22 23  2  0
 23 24  1  0
 25 24  1  6
 25 27  1  0
 25 26  1  0
 26 17  1  0
 27 31  1  0
 28 27  2  0
 29 23  1  0
 30 29  2  0
M  END
$$$$
