PFY.pdb
     RDKit          3D

 31 33  0  0  1  0  0  0  0  0999 V2000
   28.7577  -20.6695  -17.5289 N   0  0  0  0  0  0  0  0  0  0  0  0
   30.1966  -20.6627  -17.6226 C   0  0  0  0  0  0  0  0  0  0  0  0
   30.5941  -22.0619  -18.0386 C   0  0  0  0  0  0  0  0  0  0  0  0
   29.5522  -22.9013  -17.3426 C   0  0  0  0  0  0  0  0  0  0  0  0
   28.3342  -22.0223  -17.3109 C   0  0  1  0  0  0  0  0  0  0  0  0
   27.6423  -22.0944  -15.9832 C   0  0  0  0  0  0  0  0  0  0  0  0
   27.1987  -23.1797  -15.5269 O   0  0  0  0  0  0  0  0  0  0  0  0
   27.4555  -20.9314  -15.1749 N   0  0  0  0  0  0  0  0  0  0  0  0
   26.7655  -20.9671  -13.9183 C   0  0  1  0  0  0  0  0  0  0  0  0
   27.4786  -20.2164  -12.8261 C   0  0  0  0  0  0  0  0  0  0  0  0
   26.7865  -20.2764  -11.5344 C   0  0  0  0  0  0  0  0  0  0  0  0
   27.1297  -21.2419  -10.6022 C   0  0  0  0  0  0  0  0  0  0  0  0
   26.4989  -21.3261   -9.3783 C   0  0  0  0  0  0  0  0  0  0  0  0
   25.4944  -20.4481   -9.0288 C   0  0  0  0  0  0  0  0  0  0  0  0
   25.1448  -19.4829   -9.9498 C   0  0  0  0  0  0  0  0  0  0  0  0
   25.7808  -19.4018  -11.1776 C   0  0  0  0  0  0  0  0  0  0  0  0
   25.3533  -20.5265  -14.0255 C   0  0  0  0  0  0  0  0  0  0  0  0
   25.1332  -19.4037  -14.5439 O   0  0  0  0  0  0  0  0  0  0  0  0
   22.5281  -26.9550  -15.0469 O   0  0  0  0  0  0  0  0  0  0  0  0
   22.4840  -25.5640  -15.0605 C   0  0  0  0  0  0  0  0  0  0  0  0
   23.4446  -24.8271  -15.6970 C   0  0  0  0  0  0  0  0  0  0  0  0
   23.3925  -23.4524  -15.7050 C   0  0  0  0  0  0  0  0  0  0  0  0
   22.3752  -22.7759  -15.0744 C   0  0  0  0  0  0  0  0  0  0  0  0
   22.2757  -21.3039  -15.0445 C   0  0  0  0  0  0  0  0  0  0  0  0
   22.8590  -20.7886  -13.7633 C   0  0  2  0  0  0  0  0  0  0  0  0
   24.2362  -21.2809  -13.5854 N   0  0  0  0  0  0  0  0  0  0  0  0
   22.0986  -21.1396  -12.5528 C   0  0  0  0  0  0  0  0  0  0  0  0
   20.9177  -20.7782  -12.3315 O   0  0  0  0  0  0  0  0  0  0  0  0
   21.4065  -23.5131  -14.4329 C   0  0  0  0  0  0  0  0  0  0  0  0
   21.4502  -24.9104  -14.4190 C   0  0  0  0  0  0  0  0  0  0  0  0
   22.6715  -21.9271  -11.5399 O   0  0  0  0  0  0  0  0  0  0  0  0
  1  2  1  0
  1  5  1  0
  2  3  1  0
  3  4  1  0
  5  6  1  1
  5  4  1  0
  6  7  2  0
  8  9  1  0
  8  6  1  0
  9 10  1  1
 11 12  2  0
 11 10  1  0
 13 12  1  0
 14 13  2  0
 15 14  1  0
 15 16  2  0
 16 11  1  0
 17  9  1  0
 18 17  2  0
 19 20  1  0
 20 21  2  0
 20 30  1  0
 21 22  1  0
 22 23  2  0
 23 24  1  0
 25 24  1  6
 25 27  1  0
 25 26  1  0
 26 17  1  0
 27 31  1  0
 28 27  2  0
 29 23  1  0
 30 29  2  0
M  END
$$$$
