PFY.pdb
     RDKit          3D

 31 33  0  0  1  0  0  0  0  0999 V2000
   22.5848  -11.4393  -15.8392 N   0  0  0  0  0  0  0  0  0  0  0  0
   23.8038  -11.6733  -16.5731 C   0  0  0  0  0  0  0  0  0  0  0  0
   24.8842  -10.9064  -15.8428 C   0  0  0  0  0  0  0  0  0  0  0  0
   24.1275   -9.7006  -15.3448 C   0  0  0  0  0  0  0  0  0  0  0  0
   22.7343  -10.2124  -15.1115 C   0  0  1  0  0  0  0  0  0  0  0  0
   21.7050   -9.2406  -15.6043 C   0  0  0  0  0  0  0  0  0  0  0  0
   21.2969   -9.2566  -16.7943 O   0  0  0  0  0  0  0  0  0  0  0  0
   21.1403   -8.2507  -14.7429 N   0  0  0  0  0  0  0  0  0  0  0  0
   20.2102   -7.2629  -15.2071 C   0  0  1  0  0  0  0  0  0  0  0  0
   18.8321   -7.4222  -14.6236 C   0  0  0  0  0  0  0  0  0  0  0  0
   18.0891   -8.5517  -15.1921 C   0  0  0  0  0  0  0  0  0  0  0  0
   17.3071   -8.3757  -16.3219 C   0  0  0  0  0  0  0  0  0  0  0  0
   16.5957   -9.4165  -16.8819 C   0  0  0  0  0  0  0  0  0  0  0  0
   16.6330  -10.6833  -16.3380 C   0  0  0  0  0  0  0  0  0  0  0  0
   17.4086  -10.8696  -15.2129 C   0  0  0  0  0  0  0  0  0  0  0  0
   18.1213   -9.8217  -14.6538 C   0  0  0  0  0  0  0  0  0  0  0  0
   20.7041   -5.8767  -15.0220 C   0  0  0  0  0  0  0  0  0  0  0  0
   21.2031   -5.5822  -13.9075 O   0  0  0  0  0  0  0  0  0  0  0  0
   26.4109   -6.7418  -16.9489 O   0  0  0  0  0  0  0  0  0  0  0  0
   25.3445   -5.8480  -16.9225 C   0  0  0  0  0  0  0  0  0  0  0  0
   24.3275   -5.9254  -17.8339 C   0  0  0  0  0  0  0  0  0  0  0  0
   23.2774   -5.0373  -17.7998 C   0  0  0  0  0  0  0  0  0  0  0  0
   23.2165   -4.0447  -16.8503 C   0  0  0  0  0  0  0  0  0  0  0  0
   22.1189   -3.0612  -16.7737 C   0  0  0  0  0  0  0  0  0  0  0  0
   21.1291   -3.4956  -15.7351 C   0  0  2  0  0  0  0  0  0  0  0  0
   20.6533   -4.8623  -16.0115 N   0  0  0  0  0  0  0  0  0  0  0  0
   19.9471   -2.6278  -15.6067 C   0  0  0  0  0  0  0  0  0  0  0  0
   18.7897   -2.9540  -15.9645 O   0  0  0  0  0  0  0  0  0  0  0  0
   24.2372   -3.9631  -15.9313 C   0  0  0  0  0  0  0  0  0  0  0  0
   25.3087   -4.8608  -15.9573 C   0  0  0  0  0  0  0  0  0  0  0  0
   20.0504   -1.3389  -15.0568 O   0  0  0  0  0  0  0  0  0  0  0  0
  1  2  1  0
  1  5  1  0
  2  3  1  0
  3  4  1  0
  5  6  1  6
  5  4  1  0
  6  7  2  0
  8  9  1  0
  8  6  1  0
  9 10  1  1
 11 12  2  0
 11 10  1  0
 13 12  1  0
 14 13  2  0
 15 14  1  0
 15 16  2  0
 16 11  1  0
 17  9  1  0
 18 17  2  0
 19 20  1  0
 20 21  2  0
 20 30  1  0
 21 22  1  0
 22 23  2  0
 23 24  1  0
 25 24  1  6
 25 27  1  0
 25 26  1  0
 26 17  1  0
 27 31  1  0
 28 27  2  0
 29 23  1  0
 30 29  2  0
M  END
$$$$
