PFY.pdb
     RDKit          3D

 31 33  0  0  1  0  0  0  0  0999 V2000
   27.6760  -20.6173  -17.9309 N   0  0  0  0  0  0  0  0  0  0  0  0
   28.7617  -19.6814  -18.0883 C   0  0  0  0  0  0  0  0  0  0  0  0
   30.0328  -20.4907  -17.9535 C   0  0  0  0  0  0  0  0  0  0  0  0
   29.6320  -21.5330  -16.9397 C   0  0  0  0  0  0  0  0  0  0  0  0
   28.1656  -21.7436  -17.1901 C   0  0  1  0  0  0  0  0  0  0  0  0
   27.3992  -21.8354  -15.9053 C   0  0  0  0  0  0  0  0  0  0  0  0
   26.5763  -22.7627  -15.6913 O   0  0  0  0  0  0  0  0  0  0  0  0
   27.5694  -20.8721  -14.8642 N   0  0  0  0  0  0  0  0  0  0  0  0
   26.8847  -20.9641  -13.6076 C   0  0  1  0  0  0  0  0  0  0  0  0
   27.5820  -20.2291  -12.4946 C   0  0  0  0  0  0  0  0  0  0  0  0
   26.8780  -20.3183  -11.2111 C   0  0  0  0  0  0  0  0  0  0  0  0
   27.2851  -21.2324  -10.2531 C   0  0  0  0  0  0  0  0  0  0  0  0
   26.6451  -21.3421   -9.0359 C   0  0  0  0  0  0  0  0  0  0  0  0
   25.5672  -20.5423   -8.7193 C   0  0  0  0  0  0  0  0  0  0  0  0
   25.1536  -19.6286   -9.6661 C   0  0  0  0  0  0  0  0  0  0  0  0
   25.7989  -19.5218  -10.8870 C   0  0  0  0  0  0  0  0  0  0  0  0
   25.4613  -20.5570  -13.6976 C   0  0  0  0  0  0  0  0  0  0  0  0
   25.2078  -19.4444  -14.2227 O   0  0  0  0  0  0  0  0  0  0  0  0
   16.8154  -20.2496  -14.6933 O   0  0  0  0  0  0  0  0  0  0  0  0
   18.1541  -20.6224  -14.6173 C   0  0  0  0  0  0  0  0  0  0  0  0
   19.0844  -20.1174  -15.4835 C   0  0  0  0  0  0  0  0  0  0  0  0
   20.4055  -20.4918  -15.4006 C   0  0  0  0  0  0  0  0  0  0  0  0
   20.8328  -21.3846  -14.4463 C   0  0  0  0  0  0  0  0  0  0  0  0
   22.2348  -21.8270  -14.3185 C   0  0  0  0  0  0  0  0  0  0  0  0
   22.9768  -20.8856  -13.4183 C   0  0  2  0  0  0  0  0  0  0  0  0
   24.3685  -21.3327  -13.2341 N   0  0  0  0  0  0  0  0  0  0  0  0
   22.3828  -20.7102  -12.0830 C   0  0  0  0  0  0  0  0  0  0  0  0
   21.5187  -19.8449  -11.8029 O   0  0  0  0  0  0  0  0  0  0  0  0
   19.9005  -21.8952  -13.5726 C   0  0  0  0  0  0  0  0  0  0  0  0
   18.5556  -21.5210  -13.6483 C   0  0  0  0  0  0  0  0  0  0  0  0
   22.7628  -21.5306  -11.0073 O   0  0  0  0  0  0  0  0  0  0  0  0
  1  2  1  0
  1  5  1  0
  2  3  1  0
  3  4  1  0
  5  6  1  1
  5  4  1  0
  6  7  2  0
  8  9  1  0
  8  6  1  0
  9 10  1  1
 11 12  2  0
 11 10  1  0
 13 12  1  0
 14 13  2  0
 15 14  1  0
 15 16  2  0
 16 11  1  0
 17  9  1  0
 18 17  2  0
 19 20  1  0
 20 21  2  0
 20 30  1  0
 21 22  1  0
 22 23  2  0
 23 24  1  0
 25 24  1  6
 25 27  1  0
 25 26  1  0
 26 17  1  0
 27 31  1  0
 28 27  2  0
 29 23  1  0
 30 29  2  0
M  END
$$$$
