PFY.pdb
     RDKit          3D

 31 33  0  0  1  0  0  0  0  0999 V2000
   28.1000  -20.9166  -17.4950 N   0  0  0  0  0  0  0  0  0  0  0  0
   29.5303  -20.7630  -17.5952 C   0  0  0  0  0  0  0  0  0  0  0  0
   30.0776  -22.1408  -17.8967 C   0  0  0  0  0  0  0  0  0  0  0  0
   29.1288  -23.0274  -17.1297 C   0  0  0  0  0  0  0  0  0  0  0  0
   27.8233  -22.2846  -17.1648 C   0  0  1  0  0  0  0  0  0  0  0  0
   27.1372  -22.3214  -15.8327 C   0  0  0  0  0  0  0  0  0  0  0  0
   26.6525  -23.3852  -15.3678 O   0  0  0  0  0  0  0  0  0  0  0  0
   27.0029  -21.1475  -15.0297 N   0  0  0  0  0  0  0  0  0  0  0  0
   26.3233  -21.1492  -13.7670 C   0  0  1  0  0  0  0  0  0  0  0  0
   26.9906  -20.2857  -12.7307 C   0  0  0  0  0  0  0  0  0  0  0  0
   26.3185  -20.3201  -11.4276 C   0  0  0  0  0  0  0  0  0  0  0  0
   25.3061  -19.4195  -11.1397 C   0  0  0  0  0  0  0  0  0  0  0  0
   24.6536  -19.4246   -9.9243 C   0  0  0  0  0  0  0  0  0  0  0  0
   24.9831  -20.3314   -8.9389 C   0  0  0  0  0  0  0  0  0  0  0  0
   25.9898  -21.2327   -9.2151 C   0  0  0  0  0  0  0  0  0  0  0  0
   26.6424  -21.2241  -10.4368 C   0  0  0  0  0  0  0  0  0  0  0  0
   24.8844  -20.8105  -13.8884 C   0  0  0  0  0  0  0  0  0  0  0  0
   24.5851  -19.7657  -14.5181 O   0  0  0  0  0  0  0  0  0  0  0  0
   16.3474  -20.5369  -15.1917 O   0  0  0  0  0  0  0  0  0  0  0  0
   17.6957  -20.8613  -15.0747 C   0  0  0  0  0  0  0  0  0  0  0  0
   18.6668  -20.0881  -15.6489 C   0  0  0  0  0  0  0  0  0  0  0  0
   19.9971  -20.4168  -15.5278 C   0  0  0  0  0  0  0  0  0  0  0  0
   20.3929  -21.5315  -14.8270 C   0  0  0  0  0  0  0  0  0  0  0  0
   21.8040  -21.9350  -14.6734 C   0  0  0  0  0  0  0  0  0  0  0  0
   22.4170  -21.1864  -13.5285 C   0  0  2  0  0  0  0  0  0  0  0  0
   23.8248  -21.5806  -13.3454 N   0  0  0  0  0  0  0  0  0  0  0  0
   21.7318  -21.3620  -12.2376 C   0  0  0  0  0  0  0  0  0  0  0  0
   21.8960  -22.3482  -11.4797 O   0  0  0  0  0  0  0  0  0  0  0  0
   19.4194  -22.3123  -14.2474 C   0  0  0  0  0  0  0  0  0  0  0  0
   18.0649  -21.9869  -14.3645 C   0  0  0  0  0  0  0  0  0  0  0  0
   20.8224  -20.4016  -11.7632 O   0  0  0  0  0  0  0  0  0  0  0  0
  1  2  1  0
  1  5  1  0
  2  3  1  0
  3  4  1  0
  5  6  1  1
  5  4  1  0
  6  7  2  0
  8  9  1  0
  8  6  1  0
  9 10  1  1
 11 12  2  0
 11 10  1  0
 13 12  1  0
 14 13  2  0
 15 14  1  0
 15 16  2  0
 16 11  1  0
 17  9  1  0
 18 17  2  0
 19 20  1  0
 20 21  2  0
 20 30  1  0
 21 22  1  0
 22 23  2  0
 23 24  1  0
 25 24  1  6
 25 27  1  0
 25 26  1  0
 26 17  1  0
 27 31  1  0
 28 27  2  0
 29 23  1  0
 30 29  2  0
M  END
$$$$
