PFY.pdb
     RDKit          3D

 31 33  0  0  1  0  0  0  0  0999 V2000
   27.4798  -18.8960  -14.2580 N   0  0  0  0  0  0  0  0  0  0  0  0
   28.8690  -18.7164  -13.9156 C   0  0  0  0  0  0  0  0  0  0  0  0
   29.6279  -19.7774  -14.6817 C   0  0  0  0  0  0  0  0  0  0  0  0
   28.6462  -20.9223  -14.6835 C   0  0  0  0  0  0  0  0  0  0  0  0
   27.3014  -20.2523  -14.6890 C   0  0  1  0  0  0  0  0  0  0  0  0
   26.3502  -20.9275  -13.7478 C   0  0  0  0  0  0  0  0  0  0  0  0
   25.9891  -22.1209  -13.9161 O   0  0  0  0  0  0  0  0  0  0  0  0
   25.8100  -20.2447  -12.6152 N   0  0  0  0  0  0  0  0  0  0  0  0
   24.8283  -20.8358  -11.7531 C   0  0  1  0  0  0  0  0  0  0  0  0
   24.8500  -20.2777  -10.3556 C   0  0  0  0  0  0  0  0  0  0  0  0
   26.1707  -20.3528   -9.7221 C   0  0  0  0  0  0  0  0  0  0  0  0
   26.4713  -19.5473   -8.6360 C   0  0  0  0  0  0  0  0  0  0  0  0
   27.7034  -19.5930   -8.0171 C   0  0  0  0  0  0  0  0  0  0  0  0
   28.6934  -20.4470   -8.4556 C   0  0  0  0  0  0  0  0  0  0  0  0
   28.4046  -21.2535   -9.5365 C   0  0  0  0  0  0  0  0  0  0  0  0
   27.1662  -21.2045  -10.1550 C   0  0  0  0  0  0  0  0  0  0  0  0
   23.4589  -20.7831  -12.3206 C   0  0  0  0  0  0  0  0  0  0  0  0
   23.0389  -19.6691  -12.7209 O   0  0  0  0  0  0  0  0  0  0  0  0
   16.0787  -22.6883  -16.6153 O   0  0  0  0  0  0  0  0  0  0  0  0
   17.2793  -22.7893  -15.9186 C   0  0  0  0  0  0  0  0  0  0  0  0
   18.4679  -22.4297  -16.4919 C   0  0  0  0  0  0  0  0  0  0  0  0
   19.6497  -22.5331  -15.7953 C   0  0  0  0  0  0  0  0  0  0  0  0
   19.6742  -23.0007  -14.5026 C   0  0  0  0  0  0  0  0  0  0  0  0
   20.9133  -23.1401  -13.7133 C   0  0  0  0  0  0  0  0  0  0  0  0
   21.3143  -21.8016  -13.1703 C   0  0  2  0  0  0  0  0  0  0  0  0
   22.5920  -21.8985  -12.4431 N   0  0  0  0  0  0  0  0  0  0  0  0
   20.3314  -21.1814  -12.2670 C   0  0  0  0  0  0  0  0  0  0  0  0
   20.3162  -21.3423  -11.0229 O   0  0  0  0  0  0  0  0  0  0  0  0
   18.4808  -23.3635  -13.9216 C   0  0  0  0  0  0  0  0  0  0  0  0
   17.2745  -23.2621  -14.6209 C   0  0  0  0  0  0  0  0  0  0  0  0
   19.3181  -20.3441  -12.7634 O   0  0  0  0  0  0  0  0  0  0  0  0
  1  2  1  0
  1  5  1  0
  2  3  1  0
  3  4  1  0
  5  6  1  1
  5  4  1  0
  6  7  2  0
  8  9  1  0
  8  6  1  0
  9 10  1  1
 11 12  2  0
 11 10  1  0
 13 12  1  0
 14 13  2  0
 15 14  1  0
 15 16  2  0
 16 11  1  0
 17  9  1  0
 18 17  2  0
 19 20  1  0
 20 21  2  0
 20 30  1  0
 21 22  1  0
 22 23  2  0
 23 24  1  0
 25 24  1  1
 25 27  1  0
 25 26  1  0
 26 17  1  0
 27 31  1  0
 28 27  2  0
 29 23  1  0
 30 29  2  0
M  END
$$$$
