PFY.pdb
     RDKit          3D

 31 33  0  0  1  0  0  0  0  0999 V2000
   18.9461  -10.0177  -16.7749 N   0  0  0  0  0  0  0  0  0  0  0  0
   17.9992  -10.9935  -17.2549 C   0  0  0  0  0  0  0  0  0  0  0  0
   16.7569  -10.2178  -17.6341 C   0  0  0  0  0  0  0  0  0  0  0  0
   16.7555   -9.1117  -16.6088 C   0  0  0  0  0  0  0  0  0  0  0  0
   18.2116   -8.8696  -16.3284 C   0  0  1  0  0  0  0  0  0  0  0  0
   18.4631   -8.6868  -14.8621 C   0  0  0  0  0  0  0  0  0  0  0  0
   18.3132   -9.6299  -14.0430 O   0  0  0  0  0  0  0  0  0  0  0  0
   18.8851   -7.4308  -14.3282 N   0  0  0  0  0  0  0  0  0  0  0  0
   19.1566   -7.2366  -12.9336 C   0  0  1  0  0  0  0  0  0  0  0  0
   20.6051   -6.9495  -12.6435 C   0  0  0  0  0  0  0  0  0  0  0  0
   21.5052   -8.0283  -13.0644 C   0  0  0  0  0  0  0  0  0  0  0  0
   22.1118   -7.9863  -14.3091 C   0  0  0  0  0  0  0  0  0  0  0  0
   22.9634   -8.9842  -14.7358 C   0  0  0  0  0  0  0  0  0  0  0  0
   23.2486  -10.0718  -13.9373 C   0  0  0  0  0  0  0  0  0  0  0  0
   22.6499  -10.1235  -12.6959 C   0  0  0  0  0  0  0  0  0  0  0  0
   21.7955   -9.1194  -12.2713 C   0  0  0  0  0  0  0  0  0  0  0  0
   18.2817   -6.2107  -12.3153 C   0  0  0  0  0  0  0  0  0  0  0  0
   18.2165   -5.0888  -12.8765 O   0  0  0  0  0  0  0  0  0  0  0  0
   13.4360  -10.3818   -8.5819 O   0  0  0  0  0  0  0  0  0  0  0  0
   13.8774   -9.2121   -9.1934 C   0  0  0  0  0  0  0  0  0  0  0  0
   14.3404   -9.2121  -10.4804 C   0  0  0  0  0  0  0  0  0  0  0  0
   14.7747   -8.0508  -11.0764 C   0  0  0  0  0  0  0  0  0  0  0  0
   14.7576   -6.8546  -10.3987 C   0  0  0  0  0  0  0  0  0  0  0  0
   15.2195   -5.5822  -10.9864 C   0  0  0  0  0  0  0  0  0  0  0  0
   16.6483   -5.3424  -10.6016 C   0  0  2  0  0  0  0  0  0  0  0  0
   17.5154   -6.4059  -11.1383 N   0  0  0  0  0  0  0  0  0  0  0  0
   16.8919   -5.2554   -9.1526 C   0  0  0  0  0  0  0  0  0  0  0  0
   17.6607   -6.0179   -8.5189 O   0  0  0  0  0  0  0  0  0  0  0  0
   14.2925   -6.8497   -9.1038 C   0  0  0  0  0  0  0  0  0  0  0  0
   13.8488   -8.0243   -8.4891 C   0  0  0  0  0  0  0  0  0  0  0  0
   16.2550   -4.2792   -8.3679 O   0  0  0  0  0  0  0  0  0  0  0  0
  1  2  1  0
  1  5  1  0
  2  3  1  0
  3  4  1  0
  5  6  1  1
  5  4  1  0
  6  7  2  0
  8  9  1  0
  8  6  1  0
  9 10  1  6
 11 12  2  0
 11 10  1  0
 13 12  1  0
 14 13  2  0
 15 14  1  0
 15 16  2  0
 16 11  1  0
 17  9  1  0
 18 17  2  0
 19 20  1  0
 20 21  2  0
 20 30  1  0
 21 22  1  0
 22 23  2  0
 23 24  1  0
 25 24  1  1
 25 27  1  0
 25 26  1  0
 26 17  1  0
 27 31  1  0
 28 27  2  0
 29 23  1  0
 30 29  2  0
M  END
$$$$
