PFY.pdb
     RDKit          3D

 31 33  0  0  1  0  0  0  0  0999 V2000
   28.1677  -20.9035  -17.4528 N   0  0  0  0  0  0  0  0  0  0  0  0
   29.6012  -20.8375  -17.5946 C   0  0  0  0  0  0  0  0  0  0  0  0
   30.0495  -22.2369  -17.9542 C   0  0  0  0  0  0  0  0  0  0  0  0
   29.0696  -23.0855  -17.1833 C   0  0  0  0  0  0  0  0  0  0  0  0
   27.8139  -22.2610  -17.1543 C   0  0  1  0  0  0  0  0  0  0  0  0
   27.1678  -22.2962  -15.8023 C   0  0  0  0  0  0  0  0  0  0  0  0
   26.6560  -23.3491  -15.3414 O   0  0  0  0  0  0  0  0  0  0  0  0
   27.1041  -21.1334  -14.9750 N   0  0  0  0  0  0  0  0  0  0  0  0
   26.4673  -21.1337  -13.6901 C   0  0  1  0  0  0  0  0  0  0  0  0
   27.2215  -20.3475  -12.6518 C   0  0  0  0  0  0  0  0  0  0  0  0
   26.5963  -20.3897  -11.3258 C   0  0  0  0  0  0  0  0  0  0  0  0
   26.9802  -21.3485  -10.4026 C   0  0  0  0  0  0  0  0  0  0  0  0
   26.4125  -21.4161   -9.1471 C   0  0  0  0  0  0  0  0  0  0  0  0
   25.4335  -20.5272   -8.7555 C   0  0  0  0  0  0  0  0  0  0  0  0
   25.0437  -19.5684   -9.6671 C   0  0  0  0  0  0  0  0  0  0  0  0
   25.6164  -19.5042  -10.9267 C   0  0  0  0  0  0  0  0  0  0  0  0
   25.0496  -20.7021  -13.7513 C   0  0  0  0  0  0  0  0  0  0  0  0
   24.8034  -19.5916  -14.2842 O   0  0  0  0  0  0  0  0  0  0  0  0
   16.5649  -19.8792  -15.0203 O   0  0  0  0  0  0  0  0  0  0  0  0
   17.8740  -20.3366  -14.9015 C   0  0  0  0  0  0  0  0  0  0  0  0
   18.1734  -21.4594  -14.1801 C   0  0  0  0  0  0  0  0  0  0  0  0
   19.4705  -21.9039  -14.0683 C   0  0  0  0  0  0  0  0  0  0  0  0
   20.5061  -21.2349  -14.6770 C   0  0  0  0  0  0  0  0  0  0  0  0
   21.9154  -21.6624  -14.5825 C   0  0  0  0  0  0  0  0  0  0  0  0
   22.5667  -20.9855  -13.4143 C   0  0  2  0  0  0  0  0  0  0  0  0
   23.9547  -21.4522  -13.2522 N   0  0  0  0  0  0  0  0  0  0  0  0
   21.8778  -21.1749  -12.1274 C   0  0  0  0  0  0  0  0  0  0  0  0
   22.0158  -22.1839  -11.3947 O   0  0  0  0  0  0  0  0  0  0  0  0
   20.2096  -20.1049  -15.4039 C   0  0  0  0  0  0  0  0  0  0  0  0
   18.8948  -19.6450  -15.5237 C   0  0  0  0  0  0  0  0  0  0  0  0
   20.9951  -20.2025  -11.6278 O   0  0  0  0  0  0  0  0  0  0  0  0
  1  2  1  0
  1  5  1  0
  2  3  1  0
  3  4  1  0
  5  6  1  1
  5  4  1  0
  6  7  2  0
  8  9  1  0
  8  6  1  0
  9 10  1  1
 11 12  2  0
 11 10  1  0
 13 12  1  0
 14 13  2  0
 15 14  1  0
 15 16  2  0
 16 11  1  0
 17  9  1  0
 18 17  2  0
 19 20  1  0
 20 21  2  0
 20 30  1  0
 21 22  1  0
 22 23  2  0
 23 24  1  0
 25 24  1  6
 25 27  1  0
 25 26  1  0
 26 17  1  0
 27 31  1  0
 28 27  2  0
 29 23  1  0
 30 29  2  0
M  END
$$$$
