PFY.pdb
     RDKit          3D

 31 33  0  0  1  0  0  0  0  0999 V2000
   31.1264  -20.6246   -9.7217 N   0  0  0  0  0  0  0  0  0  0  0  0
   32.1517  -20.9754   -8.7702 C   0  0  0  0  0  0  0  0  0  0  0  0
   32.5025  -22.4204   -9.0489 C   0  0  0  0  0  0  0  0  0  0  0  0
   31.1712  -22.9876   -9.4736 C   0  0  0  0  0  0  0  0  0  0  0  0
   30.4755  -21.8331  -10.1375 C   0  0  1  0  0  0  0  0  0  0  0  0
   29.0339  -21.7581   -9.7339 C   0  0  0  0  0  0  0  0  0  0  0  0
   28.2749  -22.7590   -9.8039 O   0  0  0  0  0  0  0  0  0  0  0  0
   28.4563  -20.5441   -9.2509 N   0  0  0  0  0  0  0  0  0  0  0  0
   27.0778  -20.4434   -8.8687 C   0  0  1  0  0  0  0  0  0  0  0  0
   26.8235  -19.3823   -7.8322 C   0  0  0  0  0  0  0  0  0  0  0  0
   27.5947  -19.5790   -6.6003 C   0  0  0  0  0  0  0  0  0  0  0  0
   28.4933  -18.6135   -6.1770 C   0  0  0  0  0  0  0  0  0  0  0  0
   29.2343  -18.7670   -5.0236 C   0  0  0  0  0  0  0  0  0  0  0  0
   29.1113  -19.8942   -4.2385 C   0  0  0  0  0  0  0  0  0  0  0  0
   28.2193  -20.8619   -4.6508 C   0  0  0  0  0  0  0  0  0  0  0  0
   27.4773  -20.7038   -5.8097 C   0  0  0  0  0  0  0  0  0  0  0  0
   26.1705  -20.2744  -10.0298 C   0  0  0  0  0  0  0  0  0  0  0  0
   26.2927  -19.2284  -10.7146 O   0  0  0  0  0  0  0  0  0  0  0  0
   20.4481  -21.3216  -16.5959 O   0  0  0  0  0  0  0  0  0  0  0  0
   21.3621  -21.5261  -15.5664 C   0  0  0  0  0  0  0  0  0  0  0  0
   22.6024  -20.9500  -15.5904 C   0  0  0  0  0  0  0  0  0  0  0  0
   23.4993  -21.1579  -14.5681 C   0  0  0  0  0  0  0  0  0  0  0  0
   23.1785  -21.9504  -13.4913 C   0  0  0  0  0  0  0  0  0  0  0  0
   24.1047  -22.2139  -12.3731 C   0  0  0  0  0  0  0  0  0  0  0  0
   24.3027  -20.9571  -11.5802 C   0  0  2  0  0  0  0  0  0  0  0  0
   25.1772  -21.2075  -10.4212 N   0  0  0  0  0  0  0  0  0  0  0  0
   23.0634  -20.3399  -11.0806 C   0  0  0  0  0  0  0  0  0  0  0  0
   22.5576  -20.5808   -9.9580 O   0  0  0  0  0  0  0  0  0  0  0  0
   21.9318  -22.5318  -13.4629 C   0  0  0  0  0  0  0  0  0  0  0  0
   21.0132  -22.3267  -14.4965 C   0  0  0  0  0  0  0  0  0  0  0  0
   22.3502  -19.4129  -11.8593 O   0  0  0  0  0  0  0  0  0  0  0  0
  1  2  1  0
  1  5  1  0
  2  3  1  0
  3  4  1  0
  5  6  1  1
  5  4  1  0
  6  7  2  0
  8  9  1  0
  8  6  1  0
  9 10  1  1
 11 12  2  0
 11 10  1  0
 13 12  1  0
 14 13  2  0
 15 14  1  0
 15 16  2  0
 16 11  1  0
 17  9  1  0
 18 17  2  0
 19 20  1  0
 20 21  2  0
 20 30  1  0
 21 22  1  0
 22 23  2  0
 23 24  1  0
 25 24  1  1
 25 27  1  0
 25 26  1  0
 26 17  1  0
 27 31  1  0
 28 27  2  0
 29 23  1  0
 30 29  2  0
M  END
$$$$
