PFY.pdb
     RDKit          3D

 31 33  0  0  1  0  0  0  0  0999 V2000
   27.4841  -18.7781  -14.1828 N   0  0  0  0  0  0  0  0  0  0  0  0
   28.8706  -19.1334  -14.3578 C   0  0  0  0  0  0  0  0  0  0  0  0
   29.0520  -19.3896  -15.8377 C   0  0  0  0  0  0  0  0  0  0  0  0
   27.7192  -19.9854  -16.2161 C   0  0  0  0  0  0  0  0  0  0  0  0
   26.7441  -19.3257  -15.2827 C   0  0  1  0  0  0  0  0  0  0  0  0
   25.7518  -20.3108  -14.7428 C   0  0  0  0  0  0  0  0  0  0  0  0
   24.8576  -20.8146  -15.4704 O   0  0  0  0  0  0  0  0  0  0  0  0
   25.7772  -20.7225  -13.3751 N   0  0  0  0  0  0  0  0  0  0  0  0
   24.7713  -21.5709  -12.8052 C   0  0  1  0  0  0  0  0  0  0  0  0
   25.2872  -22.4389  -11.6892 C   0  0  0  0  0  0  0  0  0  0  0  0
   25.8529  -21.6732  -10.5736 C   0  0  0  0  0  0  0  0  0  0  0  0
   25.0197  -21.0898   -9.6331 C   0  0  0  0  0  0  0  0  0  0  0  0
   25.5189  -20.3633   -8.5720 C   0  0  0  0  0  0  0  0  0  0  0  0
   26.8759  -20.1859   -8.4013 C   0  0  0  0  0  0  0  0  0  0  0  0
   27.7145  -20.7625   -9.3321 C   0  0  0  0  0  0  0  0  0  0  0  0
   27.2091  -21.4912  -10.3961 C   0  0  0  0  0  0  0  0  0  0  0  0
   23.5643  -20.8231  -12.3766 C   0  0  0  0  0  0  0  0  0  0  0  0
   23.7392  -19.7445  -11.7569 O   0  0  0  0  0  0  0  0  0  0  0  0
   17.0894  -15.5480  -14.0116 O   0  0  0  0  0  0  0  0  0  0  0  0
   18.1475  -16.4446  -13.8957 C   0  0  0  0  0  0  0  0  0  0  0  0
   18.3209  -17.1999  -12.7687 C   0  0  0  0  0  0  0  0  0  0  0  0
   19.3699  -18.0836  -12.6633 C   0  0  0  0  0  0  0  0  0  0  0  0
   20.2766  -18.2357  -13.6856 C   0  0  0  0  0  0  0  0  0  0  0  0
   21.4240  -19.1616  -13.6218 C   0  0  0  0  0  0  0  0  0  0  0  0
   21.1203  -20.2695  -12.6587 C   0  0  2  0  0  0  0  0  0  0  0  0
   22.2297  -21.2381  -12.6160 N   0  0  0  0  0  0  0  0  0  0  0  0
   19.8849  -21.0165  -12.9455 C   0  0  0  0  0  0  0  0  0  0  0  0
   18.8387  -20.9415  -12.2572 O   0  0  0  0  0  0  0  0  0  0  0  0
   20.1061  -17.4781  -14.8215 C   0  0  0  0  0  0  0  0  0  0  0  0
   19.0433  -16.5774  -14.9385 C   0  0  0  0  0  0  0  0  0  0  0  0
   19.8033  -21.8873  -14.0453 O   0  0  0  0  0  0  0  0  0  0  0  0
  1  2  1  0
  1  5  1  0
  2  3  1  0
  3  4  1  0
  5  6  1  1
  5  4  1  0
  6  7  2  0
  8  9  1  0
  8  6  1  0
  9 10  1  1
 11 12  2  0
 11 10  1  0
 13 12  1  0
 14 13  2  0
 15 14  1  0
 15 16  2  0
 16 11  1  0
 17  9  1  0
 18 17  2  0
 19 20  1  0
 20 21  2  0
 20 30  1  0
 21 22  1  0
 22 23  2  0
 23 24  1  0
 25 24  1  6
 25 27  1  0
 25 26  1  0
 26 17  1  0
 27 31  1  0
 28 27  2  0
 29 23  1  0
 30 29  2  0
M  END
$$$$
