ISK.pdb
     RDKit          3D

 24 23  0  0  1  0  0  0  0  0999 V2000
    6.6641  -11.4530   27.2179 C   0  0  0  0  0  0  0  0  0  0  0  0
    5.9826  -12.6007   26.5484 C   0  0  0  0  0  0  0  0  0  0  0  0
    6.8971  -13.4436   25.7175 C   0  0  2  0  0  0  0  0  0  0  0  0
    7.5869  -12.6301   24.6541 C   0  0  0  0  0  0  0  0  0  0  0  0
    6.2174  -14.6121   25.0554 C   0  0  2  0  0  0  0  0  0  0  0  0
    5.5215  -15.3942   26.0530 N   0  0  0  0  0  0  0  0  0  0  0  0
    7.1641  -15.4639   24.3004 C   0  0  0  0  0  0  0  0  0  0  0  0
    7.7972  -16.3479   24.9286 O   0  0  0  0  0  0  0  0  0  0  0  0
    9.0527  -14.7635   20.3966 O   0  0  0  0  0  0  0  0  0  0  0  0
    8.1856  -15.8431   20.6798 C   0  0  0  0  0  0  0  0  0  0  0  0
    8.2711  -16.1066   22.1875 C   0  0  2  0  0  0  0  0  0  0  0  0
    7.3452  -15.2795   22.9039 N   0  0  0  0  0  0  0  0  0  0  0  0
    9.6717  -15.9233   22.6439 C   0  0  0  0  0  0  0  0  0  0  0  0
   10.0312  -14.8098   23.1062 O   0  0  0  0  0  0  0  0  0  0  0  0
   10.6538  -16.9408   22.5928 N   0  0  0  0  0  0  0  0  0  0  0  0
   11.7365  -17.0618   23.5790 C   0  0  1  0  0  0  0  0  0  0  0  0
   11.4451  -18.1713   24.5544 C   0  0  0  0  0  0  0  0  0  0  0  0
   12.4935  -18.3834   25.5870 C   0  0  0  0  0  0  0  0  0  0  0  0
   11.9751  -19.3318   26.6532 C   0  0  0  0  0  0  0  0  0  0  0  0
   13.0341  -19.6481   27.6802 C   0  0  0  0  0  0  0  0  0  0  0  0
   12.5683  -20.6540   28.5988 N   0  0  0  0  0  0  0  0  0  0  0  0
   13.0490  -17.1391   22.9425 C   0  0  0  0  0  0  0  0  0  0  0  0
   13.3119  -17.2247   21.5976 O   0  0  0  0  0  0  0  0  0  0  0  0
   14.0690  -17.1273   23.7080 O   0  0  0  0  0  0  0  0  0  0  0  0
  2  1  1  0
  3  4  1  6
  3  2  1  0
  3  5  1  0
  5  6  1  1
  7  5  1  0
  7  8  2  0
 10  9  1  0
 11 10  1  6
 11 12  1  0
 12  7  1  0
 13 11  1  0
 14 13  2  0
 15 13  1  0
 16 15  1  0
 16 17  1  6
 18 19  1  0
 18 17  1  0
 19 20  1  0
 20 21  1  0
 22 16  1  0
 23 22  1  0
 24 22  2  0
M  END
$$$$
