ISK.pdb
     RDKit          3D

 24 23  0  0  1  0  0  0  0  0999 V2000
    7.4040  -12.1467   19.4405 C   0  0  0  0  0  0  0  0  0  0  0  0
    7.6339  -13.4245   20.1780 C   0  0  0  0  0  0  0  0  0  0  0  0
    8.7633  -14.2401   19.6339 C   0  0  2  0  0  0  0  0  0  0  0  0
    8.5017  -14.6715   18.2147 C   0  0  0  0  0  0  0  0  0  0  0  0
    9.0826  -15.4633   20.4509 C   0  0  2  0  0  0  0  0  0  0  0  0
    7.9672  -16.3822   20.4002 N   0  0  0  0  0  0  0  0  0  0  0  0
    9.4164  -15.1344   21.8553 C   0  0  0  0  0  0  0  0  0  0  0  0
   10.5325  -14.6100   22.0924 O   0  0  0  0  0  0  0  0  0  0  0  0
    7.0315  -16.4975   24.9830 O   0  0  0  0  0  0  0  0  0  0  0  0
    7.6487  -15.2423   25.1864 C   0  0  0  0  0  0  0  0  0  0  0  0
    8.8721  -15.1866   24.2644 C   0  0  2  0  0  0  0  0  0  0  0  0
    8.4937  -15.4080   22.8997 N   0  0  0  0  0  0  0  0  0  0  0  0
    9.8937  -16.1542   24.7376 C   0  0  0  0  0  0  0  0  0  0  0  0
   10.2763  -16.1139   25.9354 O   0  0  0  0  0  0  0  0  0  0  0  0
   10.4807  -17.1426   23.9125 N   0  0  0  0  0  0  0  0  0  0  0  0
   11.4668  -18.1155   24.4028 C   0  0  1  0  0  0  0  0  0  0  0  0
   11.1371  -19.4999   23.9109 C   0  0  0  0  0  0  0  0  0  0  0  0
   12.0945  -20.5554   24.3349 C   0  0  0  0  0  0  0  0  0  0  0  0
   11.6570  -21.8965   23.7735 C   0  0  0  0  0  0  0  0  0  0  0  0
   12.5249  -23.0222   24.2794 C   0  0  0  0  0  0  0  0  0  0  0  0
   12.0668  -24.2877   23.7681 N   0  0  0  0  0  0  0  0  0  0  0  0
   12.8373  -17.6850   24.1379 C   0  0  0  0  0  0  0  0  0  0  0  0
   13.9213  -17.8184   24.9701 O   0  0  0  0  0  0  0  0  0  0  0  0
   13.0646  -17.1227   23.0159 O   0  0  0  0  0  0  0  0  0  0  0  0
  2  1  1  0
  3  4  1  6
  3  2  1  0
  3  5  1  0
  5  6  1  1
  7  5  1  0
  7  8  2  0
 10  9  1  0
 11 10  1  1
 11 12  1  0
 12  7  1  0
 13 11  1  0
 14 13  2  0
 15 13  1  0
 16 15  1  0
 16 17  1  6
 18 19  1  0
 18 17  1  0
 19 20  1  0
 20 21  1  0
 22 16  1  0
 23 22  1  0
 24 22  2  0
M  END
$$$$
