ISK.pdb
     RDKit          3D

 24 23  0  0  1  0  0  0  0  0999 V2000
    8.1569  -12.1440   19.5130 C   0  0  0  0  0  0  0  0  0  0  0  0
    7.5661  -13.5106   19.6283 C   0  0  0  0  0  0  0  0  0  0  0  0
    7.6736  -14.1004   20.9985 C   0  0  2  0  0  0  0  0  0  0  0  0
    9.1074  -14.1958   21.4497 C   0  0  0  0  0  0  0  0  0  0  0  0
    7.0432  -15.4610   21.1290 C   0  0  2  0  0  0  0  0  0  0  0  0
    5.7208  -15.4383   20.5442 N   0  0  0  0  0  0  0  0  0  0  0  0
    6.9778  -15.9220   22.5343 C   0  0  0  0  0  0  0  0  0  0  0  0
    6.3868  -15.1948   23.3701 O   0  0  0  0  0  0  0  0  0  0  0  0
    6.4120  -19.4240   23.8470 O   0  0  0  0  0  0  0  0  0  0  0  0
    6.5260  -18.3595   24.7697 C   0  0  0  0  0  0  0  0  0  0  0  0
    7.6970  -17.4851   24.3070 C   0  0  2  0  0  0  0  0  0  0  0  0
    7.5700  -17.1545   22.9181 N   0  0  0  0  0  0  0  0  0  0  0  0
    8.9781  -18.1683   24.6163 C   0  0  0  0  0  0  0  0  0  0  0  0
    9.4200  -19.0420   23.8263 O   0  0  0  0  0  0  0  0  0  0  0  0
    9.7547  -17.8970   25.7678 N   0  0  0  0  0  0  0  0  0  0  0  0
   10.9104  -18.7120   26.1669 C   0  0  1  0  0  0  0  0  0  0  0  0
   12.1976  -18.0380   25.7717 C   0  0  0  0  0  0  0  0  0  0  0  0
   12.2805  -17.6454   24.3402 C   0  0  0  0  0  0  0  0  0  0  0  0
   13.6046  -16.9506   24.0775 C   0  0  0  0  0  0  0  0  0  0  0  0
   13.7157  -16.4857   22.6465 C   0  0  0  0  0  0  0  0  0  0  0  0
   14.9857  -15.8481   22.4153 N   0  0  0  0  0  0  0  0  0  0  0  0
   10.8380  -19.1125   27.5699 C   0  0  0  0  0  0  0  0  0  0  0  0
   11.6491  -20.0128   28.2155 O   0  0  0  0  0  0  0  0  0  0  0  0
    9.9269  -18.5753   28.2826 O   0  0  0  0  0  0  0  0  0  0  0  0
  2  1  1  0
  3  4  1  6
  3  2  1  0
  3  5  1  0
  5  6  1  1
  7  5  1  0
  7  8  2  0
 10  9  1  0
 11 10  1  6
 11 12  1  0
 12  7  1  0
 13 11  1  0
 14 13  2  0
 15 13  1  0
 16 15  1  0
 16 17  1  1
 18 19  1  0
 18 17  1  0
 19 20  1  0
 20 21  1  0
 22 16  1  0
 23 22  1  0
 24 22  2  0
M  END
$$$$
