ISK.pdb
     RDKit          3D

 24 23  0  0  1  0  0  0  0  0999 V2000
    8.0740  -11.6400   20.1064 C   0  0  0  0  0  0  0  0  0  0  0  0
    8.4004  -12.8900   19.3575 C   0  0  0  0  0  0  0  0  0  0  0  0
    8.4768  -14.1082   20.2217 C   0  0  2  0  0  0  0  0  0  0  0  0
    9.4688  -13.9321   21.3412 C   0  0  0  0  0  0  0  0  0  0  0  0
    8.8238  -15.3673   19.4733 C   0  0  2  0  0  0  0  0  0  0  0  0
    7.9105  -15.5372   18.3651 N   0  0  0  0  0  0  0  0  0  0  0  0
    8.8079  -16.5652   20.3431 C   0  0  0  0  0  0  0  0  0  0  0  0
    7.8364  -17.3549   20.2471 O   0  0  0  0  0  0  0  0  0  0  0  0
   11.3040  -18.9379   20.2975 O   0  0  0  0  0  0  0  0  0  0  0  0
   10.1441  -19.2259   21.0522 C   0  0  0  0  0  0  0  0  0  0  0  0
    9.9109  -18.0375   21.9919 C   0  0  2  0  0  0  0  0  0  0  0  0
    9.8668  -16.8070   21.2582 N   0  0  0  0  0  0  0  0  0  0  0  0
   10.9499  -18.0329   23.0522 C   0  0  0  0  0  0  0  0  0  0  0  0
   12.1108  -17.6320   22.7793 O   0  0  0  0  0  0  0  0  0  0  0  0
   10.7174  -18.4595   24.3813 N   0  0  0  0  0  0  0  0  0  0  0  0
   11.7510  -18.4325   25.4254 C   0  0  1  0  0  0  0  0  0  0  0  0
   11.2095  -18.9711   26.7231 C   0  0  0  0  0  0  0  0  0  0  0  0
   12.1746  -18.9568   27.8539 C   0  0  0  0  0  0  0  0  0  0  0  0
   11.5710  -19.6728   29.0489 C   0  0  0  0  0  0  0  0  0  0  0  0
   12.5606  -19.7996   30.1807 C   0  0  0  0  0  0  0  0  0  0  0  0
   11.9783  -20.5104   31.2891 N   0  0  0  0  0  0  0  0  0  0  0  0
   12.9948  -19.0551   24.9790 C   0  0  0  0  0  0  0  0  0  0  0  0
   14.2724  -18.6089   25.2112 O   0  0  0  0  0  0  0  0  0  0  0  0
   12.8968  -20.1295   24.2988 O   0  0  0  0  0  0  0  0  0  0  0  0
  2  1  1  0
  3  4  1  1
  3  2  1  0
  3  5  1  0
  5  6  1  6
  7  5  1  0
  7  8  2  0
 10  9  1  0
 11 10  1  6
 11 12  1  0
 12  7  1  0
 13 11  1  0
 14 13  2  0
 15 13  1  0
 16 15  1  0
 16 17  1  1
 18 19  1  0
 18 17  1  0
 19 20  1  0
 20 21  1  0
 22 16  1  0
 23 22  1  0
 24 22  2  0
M  END
$$$$
