ISK.pdb
     RDKit          3D

 24 23  0  0  1  0  0  0  0  0999 V2000
    6.9861  -11.7888   27.6362 C   0  0  0  0  0  0  0  0  0  0  0  0
    6.2353  -12.6548   26.6791 C   0  0  0  0  0  0  0  0  0  0  0  0
    7.1080  -13.5762   25.8876 C   0  0  2  0  0  0  0  0  0  0  0  0
    8.1384  -12.8174   25.0934 C   0  0  0  0  0  0  0  0  0  0  0  0
    6.3518  -14.4761   24.9473 C   0  0  2  0  0  0  0  0  0  0  0  0
    5.3470  -15.2095   25.6847 N   0  0  0  0  0  0  0  0  0  0  0  0
    7.2411  -15.4094   24.2194 C   0  0  0  0  0  0  0  0  0  0  0  0
    7.5682  -16.4809   24.7866 O   0  0  0  0  0  0  0  0  0  0  0  0
    7.6352  -15.7624   20.1236 O   0  0  0  0  0  0  0  0  0  0  0  0
    8.8534  -15.5352   20.8034 C   0  0  0  0  0  0  0  0  0  0  0  0
    8.6426  -15.9601   22.2610 C   0  0  2  0  0  0  0  0  0  0  0  0
    7.7069  -15.0937   22.9155 N   0  0  0  0  0  0  0  0  0  0  0  0
    9.9532  -16.0138   22.9560 C   0  0  0  0  0  0  0  0  0  0  0  0
   10.4255  -14.9663   23.4683 O   0  0  0  0  0  0  0  0  0  0  0  0
   10.7263  -17.1922   23.0842 N   0  0  0  0  0  0  0  0  0  0  0  0
   11.9652  -17.2578   23.8717 C   0  0  1  0  0  0  0  0  0  0  0  0
   11.8681  -18.3277   24.9267 C   0  0  0  0  0  0  0  0  0  0  0  0
   13.0941  -18.5039   25.7491 C   0  0  0  0  0  0  0  0  0  0  0  0
   12.8777  -19.6202   26.7550 C   0  0  0  0  0  0  0  0  0  0  0  0
   14.1043  -19.8525   27.6022 C   0  0  0  0  0  0  0  0  0  0  0  0
   13.7985  -20.7112   28.7165 N   0  0  0  0  0  0  0  0  0  0  0  0
   13.1493  -17.3467   23.0209 C   0  0  0  0  0  0  0  0  0  0  0  0
   14.4119  -16.8917   23.3110 O   0  0  0  0  0  0  0  0  0  0  0  0
   13.0080  -17.9047   21.8827 O   0  0  0  0  0  0  0  0  0  0  0  0
  2  1  1  0
  3  4  1  6
  3  2  1  0
  3  5  1  0
  5  6  1  1
  7  5  1  0
  7  8  2  0
 10  9  1  0
 11 10  1  6
 11 12  1  0
 12  7  1  0
 13 11  1  0
 14 13  2  0
 15 13  1  0
 16 15  1  0
 16 17  1  1
 18 19  1  0
 18 17  1  0
 19 20  1  0
 20 21  1  0
 22 16  1  0
 23 22  1  0
 24 22  2  0
M  END
$$$$
