ISK.pdb
     RDKit          3D

 24 23  0  0  1  0  0  0  0  0999 V2000
    7.8818  -11.5237   20.1870 C   0  0  0  0  0  0  0  0  0  0  0  0
    7.4810  -12.9373   19.9208 C   0  0  0  0  0  0  0  0  0  0  0  0
    8.5645  -13.9323   20.1906 C   0  0  2  0  0  0  0  0  0  0  0  0
    9.8232  -13.5999   19.4332 C   0  0  0  0  0  0  0  0  0  0  0  0
    8.1813  -15.3533   19.8748 C   0  0  2  0  0  0  0  0  0  0  0  0
    6.8806  -15.6390   20.4383 N   0  0  0  0  0  0  0  0  0  0  0  0
    9.1807  -16.3306   20.3626 C   0  0  0  0  0  0  0  0  0  0  0  0
    9.1144  -16.6985   21.5613 O   0  0  0  0  0  0  0  0  0  0  0  0
   12.7588  -17.2425   18.3621 O   0  0  0  0  0  0  0  0  0  0  0  0
   11.9871  -18.3365   18.8150 C   0  0  0  0  0  0  0  0  0  0  0  0
   11.1070  -17.8241   19.9607 C   0  0  2  0  0  0  0  0  0  0  0  0
   10.1836  -16.8333   19.4917 N   0  0  0  0  0  0  0  0  0  0  0  0
   11.9683  -17.3256   21.0623 C   0  0  0  0  0  0  0  0  0  0  0  0
   11.7547  -16.1844   21.5469 O   0  0  0  0  0  0  0  0  0  0  0  0
   13.0395  -18.0649   21.6176 N   0  0  0  0  0  0  0  0  0  0  0  0
   13.4398  -17.9623   23.0277 C   0  0  1  0  0  0  0  0  0  0  0  0
   12.3467  -18.4727   23.9287 C   0  0  0  0  0  0  0  0  0  0  0  0
   12.6773  -18.4580   25.3782 C   0  0  0  0  0  0  0  0  0  0  0  0
   11.5753  -19.1505   26.1599 C   0  0  0  0  0  0  0  0  0  0  0  0
   11.8514  -19.1372   27.6431 C   0  0  0  0  0  0  0  0  0  0  0  0
   10.8703  -19.9178   28.3508 N   0  0  0  0  0  0  0  0  0  0  0  0
   14.7533  -18.5550   23.2673 C   0  0  0  0  0  0  0  0  0  0  0  0
   15.7684  -18.0343   24.0312 O   0  0  0  0  0  0  0  0  0  0  0  0
   14.9958  -19.6773   22.7119 O   0  0  0  0  0  0  0  0  0  0  0  0
  2  1  1  0
  3  4  1  6
  3  2  1  0
  3  5  1  0
  5  6  1  1
  7  5  1  0
  7  8  2  0
 10  9  1  0
 11 10  1  6
 11 12  1  0
 12  7  1  0
 13 11  1  0
 14 13  2  0
 15 13  1  0
 16 15  1  0
 16 17  1  1
 18 19  1  0
 18 17  1  0
 19 20  1  0
 20 21  1  0
 22 16  1  0
 23 22  1  0
 24 22  2  0
M  END
$$$$
