ISK.pdb
     RDKit          3D

 24 23  0  0  1  0  0  0  0  0999 V2000
    8.4912  -11.7284   27.3760 C   0  0  0  0  0  0  0  0  0  0  0  0
    7.6160  -12.8625   26.9543 C   0  0  0  0  0  0  0  0  0  0  0  0
    6.9886  -12.6724   25.6100 C   0  0  2  0  0  0  0  0  0  0  0  0
    6.1036  -11.4541   25.5789 C   0  0  0  0  0  0  0  0  0  0  0  0
    6.1857  -13.8549   25.1380 C   0  0  2  0  0  0  0  0  0  0  0  0
    5.2877  -14.2791   26.1891 N   0  0  0  0  0  0  0  0  0  0  0  0
    7.0409  -14.9827   24.7039 C   0  0  0  0  0  0  0  0  0  0  0  0
    7.2190  -15.9341   25.5039 O   0  0  0  0  0  0  0  0  0  0  0  0
    9.3994  -14.6896   21.3549 O   0  0  0  0  0  0  0  0  0  0  0  0
    8.8150  -15.9666   21.5143 C   0  0  0  0  0  0  0  0  0  0  0  0
    8.4237  -16.1025   22.9902 C   0  0  2  0  0  0  0  0  0  0  0  0
    7.6397  -14.9806   23.4162 N   0  0  0  0  0  0  0  0  0  0  0  0
    9.6459  -16.2896   23.8117 C   0  0  0  0  0  0  0  0  0  0  0  0
   10.2485  -15.2817   24.2631 O   0  0  0  0  0  0  0  0  0  0  0  0
   10.1925  -17.5558   24.1290 N   0  0  0  0  0  0  0  0  0  0  0  0
   11.4138  -17.7255   24.9282 C   0  0  1  0  0  0  0  0  0  0  0  0
   11.3209  -18.9603   25.7848 C   0  0  0  0  0  0  0  0  0  0  0  0
   12.4434  -19.1388   26.7432 C   0  0  0  0  0  0  0  0  0  0  0  0
   12.1927  -20.3670   27.5997 C   0  0  0  0  0  0  0  0  0  0  0  0
   13.3353  -20.6261   28.5503 C   0  0  0  0  0  0  0  0  0  0  0  0
   13.0433  -21.7482   29.4037 N   0  0  0  0  0  0  0  0  0  0  0  0
   12.6195  -17.6424   24.1077 C   0  0  0  0  0  0  0  0  0  0  0  0
   12.7091  -17.8219   22.7493 O   0  0  0  0  0  0  0  0  0  0  0  0
   13.7138  -17.3754   24.7059 O   0  0  0  0  0  0  0  0  0  0  0  0
  2  1  1  0
  3  4  1  1
  3  2  1  0
  3  5  1  0
  5  6  1  1
  7  5  1  0
  7  8  2  0
 10  9  1  0
 11 10  1  6
 11 12  1  0
 12  7  1  0
 13 11  1  0
 14 13  2  0
 15 13  1  0
 16 15  1  0
 16 17  1  6
 18 19  1  0
 18 17  1  0
 19 20  1  0
 20 21  1  0
 22 16  1  0
 23 22  1  0
 24 22  2  0
M  END
$$$$
