ISK.pdb
     RDKit          3D

 24 23  0  0  1  0  0  0  0  0999 V2000
    7.6006  -15.8728   16.4350 C   0  0  0  0  0  0  0  0  0  0  0  0
    7.3299  -14.7356   17.3641 C   0  0  0  0  0  0  0  0  0  0  0  0
    7.9469  -14.9017   18.7163 C   0  0  2  0  0  0  0  0  0  0  0  0
    7.5064  -16.1838   19.3726 C   0  0  0  0  0  0  0  0  0  0  0  0
    7.6649  -13.7636   19.6603 C   0  0  2  0  0  0  0  0  0  0  0  0
    7.9973  -12.5109   19.0189 N   0  0  0  0  0  0  0  0  0  0  0  0
    8.3951  -13.8968   20.9413 C   0  0  0  0  0  0  0  0  0  0  0  0
    9.6371  -13.7123   20.9380 O   0  0  0  0  0  0  0  0  0  0  0  0
    6.3911  -14.9983   24.4203 O   0  0  0  0  0  0  0  0  0  0  0  0
    7.5412  -14.1914   24.5747 C   0  0  0  0  0  0  0  0  0  0  0  0
    8.4321  -14.4372   23.3516 C   0  0  2  0  0  0  0  0  0  0  0  0
    7.7018  -14.2246   22.1367 N   0  0  0  0  0  0  0  0  0  0  0  0
    9.0210  -15.7974   23.4329 C   0  0  0  0  0  0  0  0  0  0  0  0
    8.3877  -16.7754   22.9584 O   0  0  0  0  0  0  0  0  0  0  0  0
   10.2771  -16.0753   24.0226 N   0  0  0  0  0  0  0  0  0  0  0  0
   10.8123  -17.4361   24.1678 C   0  0  1  0  0  0  0  0  0  0  0  0
   11.9886  -17.6450   23.2513 C   0  0  0  0  0  0  0  0  0  0  0  0
   11.6527  -18.2518   21.9362 C   0  0  0  0  0  0  0  0  0  0  0  0
   12.9233  -18.4636   21.1327 C   0  0  0  0  0  0  0  0  0  0  0  0
   12.6277  -18.9997   19.7537 C   0  0  0  0  0  0  0  0  0  0  0  0
   13.8482  -19.2508   19.0325 N   0  0  0  0  0  0  0  0  0  0  0  0
   11.0607  -17.7791   25.5659 C   0  0  0  0  0  0  0  0  0  0  0  0
   11.3972  -19.0121   26.0674 O   0  0  0  0  0  0  0  0  0  0  0  0
   10.9564  -16.8405   26.4232 O   0  0  0  0  0  0  0  0  0  0  0  0
  2  1  1  0
  3  4  1  1
  3  2  1  0
  3  5  1  0
  5  6  1  6
  7  5  1  0
  7  8  2  0
 10  9  1  0
 11 10  1  1
 11 12  1  0
 12  7  1  0
 13 11  1  0
 14 13  2  0
 15 13  1  0
 16 15  1  0
 16 17  1  6
 18 19  1  0
 18 17  1  0
 19 20  1  0
 20 21  1  0
 22 16  1  0
 23 22  1  0
 24 22  2  0
M  END
$$$$
