ISK.pdb
     RDKit          3D

 24 23  0  0  1  0  0  0  0  0999 V2000
    6.7664  -11.2772   26.8412 C   0  0  0  0  0  0  0  0  0  0  0  0
    6.1718  -12.4619   26.1536 C   0  0  0  0  0  0  0  0  0  0  0  0
    7.1865  -13.4330   25.6397 C   0  0  2  0  0  0  0  0  0  0  0  0
    8.1631  -12.7706   24.7038 C   0  0  0  0  0  0  0  0  0  0  0  0
    6.5912  -14.6250   24.9393 C   0  0  2  0  0  0  0  0  0  0  0  0
    5.6617  -15.2906   25.8248 N   0  0  0  0  0  0  0  0  0  0  0  0
    7.6222  -15.5756   24.4647 C   0  0  0  0  0  0  0  0  0  0  0  0
    8.0529  -16.4353   25.2723 O   0  0  0  0  0  0  0  0  0  0  0  0
   10.2186  -14.9809   21.2432 O   0  0  0  0  0  0  0  0  0  0  0  0
    9.4737  -16.1818   21.2212 C   0  0  0  0  0  0  0  0  0  0  0  0
    9.0539  -16.4786   22.6653 C   0  0  2  0  0  0  0  0  0  0  0  0
    8.1053  -15.5100   23.1308 N   0  0  0  0  0  0  0  0  0  0  0  0
   10.2607  -16.5553   23.5264 C   0  0  0  0  0  0  0  0  0  0  0  0
   10.6411  -15.5317   24.1512 O   0  0  0  0  0  0  0  0  0  0  0  0
   11.0310  -17.7302   23.6959 N   0  0  0  0  0  0  0  0  0  0  0  0
   12.0533  -17.8759   24.7412 C   0  0  1  0  0  0  0  0  0  0  0  0
   11.5848  -18.8228   25.8142 C   0  0  0  0  0  0  0  0  0  0  0  0
   12.6068  -19.1531   26.8423 C   0  0  0  0  0  0  0  0  0  0  0  0
   12.0216  -20.1275   27.8488 C   0  0  0  0  0  0  0  0  0  0  0  0
   13.0136  -20.4730   28.9317 C   0  0  0  0  0  0  0  0  0  0  0  0
   12.4323  -21.3835   29.8834 N   0  0  0  0  0  0  0  0  0  0  0  0
   13.3657  -18.1901   24.1819 C   0  0  0  0  0  0  0  0  0  0  0  0
   14.5897  -17.8615   24.7100 O   0  0  0  0  0  0  0  0  0  0  0  0
   13.3906  -18.8392   23.0843 O   0  0  0  0  0  0  0  0  0  0  0  0
  2  1  1  0
  3  4  1  6
  3  2  1  0
  3  5  1  0
  5  6  1  1
  7  5  1  0
  7  8  2  0
 10  9  1  0
 11 10  1  6
 11 12  1  0
 12  7  1  0
 13 11  1  0
 14 13  2  0
 15 13  1  0
 16 15  1  0
 16 17  1  1
 18 19  1  0
 18 17  1  0
 19 20  1  0
 20 21  1  0
 22 16  1  0
 23 22  1  0
 24 22  2  0
M  END
$$$$
