ISK.pdb
     RDKit          3D

 24 23  0  0  1  0  0  0  0  0999 V2000
    6.8780  -11.3291   27.4458 C   0  0  0  0  0  0  0  0  0  0  0  0
    6.1833  -12.2883   26.5363 C   0  0  0  0  0  0  0  0  0  0  0  0
    7.0993  -13.2797   25.8922 C   0  0  2  0  0  0  0  0  0  0  0  0
    8.1606  -12.5996   25.0679 C   0  0  0  0  0  0  0  0  0  0  0  0
    6.3952  -14.2867   25.0226 C   0  0  2  0  0  0  0  0  0  0  0  0
    5.2884  -14.8643   25.7523 N   0  0  0  0  0  0  0  0  0  0  0  0
    7.3044  -15.3498   24.5379 C   0  0  0  0  0  0  0  0  0  0  0  0
    7.5742  -16.2990   25.3145 O   0  0  0  0  0  0  0  0  0  0  0  0
    9.6740  -14.8324   21.1605 O   0  0  0  0  0  0  0  0  0  0  0  0
    9.1127  -16.1212   21.3079 C   0  0  0  0  0  0  0  0  0  0  0  0
    8.7727  -16.2980   22.7921 C   0  0  2  0  0  0  0  0  0  0  0  0
    7.8520  -15.2900   23.2289 N   0  0  0  0  0  0  0  0  0  0  0  0
   10.0250  -16.3112   23.5891 C   0  0  0  0  0  0  0  0  0  0  0  0
   10.6210  -15.2283   23.8233 O   0  0  0  0  0  0  0  0  0  0  0  0
   10.6081  -17.4881   24.1160 N   0  0  0  0  0  0  0  0  0  0  0  0
   11.7875  -17.4766   24.9925 C   0  0  1  0  0  0  0  0  0  0  0  0
   11.5768  -18.3801   26.1785 C   0  0  0  0  0  0  0  0  0  0  0  0
   12.7302  -18.4593   27.1132 C   0  0  0  0  0  0  0  0  0  0  0  0
   12.4427  -19.4877   28.1924 C   0  0  0  0  0  0  0  0  0  0  0  0
   13.5758  -19.5869   29.1837 C   0  0  0  0  0  0  0  0  0  0  0  0
   13.2468  -20.5045   30.2431 N   0  0  0  0  0  0  0  0  0  0  0  0
   13.0217  -17.7226   24.2508 C   0  0  0  0  0  0  0  0  0  0  0  0
   13.1361  -18.2437   22.9856 O   0  0  0  0  0  0  0  0  0  0  0  0
   14.1184  -17.4259   24.8304 O   0  0  0  0  0  0  0  0  0  0  0  0
  2  1  1  0
  3  4  1  6
  3  2  1  0
  3  5  1  0
  5  6  1  1
  7  5  1  0
  7  8  2  0
 10  9  1  0
 11 10  1  6
 11 12  1  0
 12  7  1  0
 13 11  1  0
 14 13  2  0
 15 13  1  0
 16 15  1  0
 16 17  1  1
 18 19  1  0
 18 17  1  0
 19 20  1  0
 20 21  1  0
 22 16  1  0
 23 22  1  0
 24 22  2  0
M  END
$$$$
