ISK.pdb
     RDKit          3D

 24 23  0  0  1  0  0  0  0  0999 V2000
    8.0899  -12.3857   22.2482 C   0  0  0  0  0  0  0  0  0  0  0  0
    7.6929  -13.6483   21.5568 C   0  0  0  0  0  0  0  0  0  0  0  0
    8.1214  -13.7123   20.1253 C   0  0  2  0  0  0  0  0  0  0  0  0
    7.5690  -12.5590   19.3295 C   0  0  0  0  0  0  0  0  0  0  0  0
    7.7427  -14.9930   19.4310 C   0  0  2  0  0  0  0  0  0  0  0  0
    6.3091  -15.1711   19.4951 N   0  0  0  0  0  0  0  0  0  0  0  0
    8.4348  -16.1714   20.0004 C   0  0  0  0  0  0  0  0  0  0  0  0
    7.8703  -16.7989   20.9301 O   0  0  0  0  0  0  0  0  0  0  0  0
   11.7402  -19.5861   19.4926 O   0  0  0  0  0  0  0  0  0  0  0  0
   11.3543  -18.3099   19.0235 C   0  0  0  0  0  0  0  0  0  0  0  0
   10.3328  -17.7526   20.0214 C   0  0  2  0  0  0  0  0  0  0  0  0
    9.7025  -16.5743   19.5028 N   0  0  0  0  0  0  0  0  0  0  0  0
   10.9950  -17.5173   21.3290 C   0  0  0  0  0  0  0  0  0  0  0  0
   11.4042  -16.3629   21.6166 O   0  0  0  0  0  0  0  0  0  0  0  0
   11.2023  -18.5281   22.2974 N   0  0  0  0  0  0  0  0  0  0  0  0
   11.8896  -18.2881   23.5738 C   0  0  1  0  0  0  0  0  0  0  0  0
   11.2885  -19.1307   24.6675 C   0  0  0  0  0  0  0  0  0  0  0  0
   11.9579  -19.0049   25.9890 C   0  0  0  0  0  0  0  0  0  0  0  0
   11.2356  -19.8648   27.0107 C   0  0  0  0  0  0  0  0  0  0  0  0
   11.9434  -19.8602   28.3431 C   0  0  0  0  0  0  0  0  0  0  0  0
   11.3078  -20.7696   29.2606 N   0  0  0  0  0  0  0  0  0  0  0  0
   13.3400  -18.4033   23.4433 C   0  0  0  0  0  0  0  0  0  0  0  0
   14.2912  -17.7061   24.1464 O   0  0  0  0  0  0  0  0  0  0  0  0
   13.7832  -19.2379   22.5868 O   0  0  0  0  0  0  0  0  0  0  0  0
  2  1  1  0
  3  4  1  6
  3  2  1  0
  3  5  1  0
  5  6  1  1
  7  5  1  0
  7  8  2  0
 10  9  1  0
 11 10  1  6
 11 12  1  0
 12  7  1  0
 13 11  1  0
 14 13  2  0
 15 13  1  0
 16 15  1  0
 16 17  1  1
 18 19  1  0
 18 17  1  0
 19 20  1  0
 20 21  1  0
 22 16  1  0
 23 22  1  0
 24 22  2  0
M  END
$$$$
