KGK.pdb
     RDKit          3D

 23 22  0  0  1  0  0  0  0  0999 V2000
    9.1312  -17.7325   19.9069 N   0  0  0  0  0  0  0  0  0  0  0  0
    9.2997  -16.5465   20.7106 C   0  0  1  0  0  0  0  0  0  0  0  0
    8.5356  -15.4303   20.0311 C   0  0  0  0  0  0  0  0  0  0  0  0
    9.0639  -15.1779   18.6189 C   0  0  0  0  0  0  0  0  0  0  0  0
    8.3293  -13.9559   18.0999 C   0  0  0  0  0  0  0  0  0  0  0  0
    8.8652  -13.5153   16.7568 C   0  0  0  0  0  0  0  0  0  0  0  0
    8.1899  -12.3342   16.2805 N   0  0  0  0  0  0  0  0  0  0  0  0
    8.6820  -16.7555   22.0381 C   0  0  0  0  0  0  0  0  0  0  0  0
    7.6282  -17.4192   22.1217 O   0  0  0  0  0  0  0  0  0  0  0  0
    9.2938  -16.2015   23.1865 N   0  0  0  0  0  0  0  0  0  0  0  0
    8.7795  -16.3826   24.5174 C   0  0  0  0  0  0  0  0  0  0  0  0
    9.6649  -15.7141   25.5228 C   0  0  0  0  0  0  0  0  0  0  0  0
   10.7541  -15.2337   25.1256 O   0  0  0  0  0  0  0  0  0  0  0  0
    9.3024  -15.6184   26.8766 N   0  0  0  0  0  0  0  0  0  0  0  0
   10.0249  -14.6735   27.8146 C   0  0  1  0  0  0  0  0  0  0  0  0
    8.9133  -14.0537   28.5613 C   0  0  0  0  0  0  0  0  0  0  0  0
    8.0659  -12.9956   28.0442 C   0  0  0  0  0  0  0  0  0  0  0  0
    7.0487  -13.2344   26.9985 C   0  0  0  0  0  0  0  0  0  0  0  0
    6.3708  -11.8482   26.7261 C   0  0  0  0  0  0  0  0  0  0  0  0
    5.3178  -12.0062   25.7570 N   0  0  0  0  0  0  0  0  0  0  0  0
   10.9529  -15.5481   28.5241 C   0  0  0  0  0  0  0  0  0  0  0  0
   11.0816  -16.9239   28.2268 O   0  0  0  0  0  0  0  0  0  0  0  0
   11.6901  -15.1460   29.4341 O   0  0  0  0  0  0  0  0  0  0  0  0
  2  1  1  6
  3  4  1  0
  3  2  1  0
  5  4  1  0
  5  6  1  0
  7  6  1  0
  8  2  1  0
  8  9  2  0
 10  8  1  0
 11 10  1  0
 11 12  1  0
 12 13  2  0
 12 14  1  0
 14 15  1  0
 15 16  1  1
 15 21  1  0
 17 16  1  0
 18 17  1  0
 19 18  1  0
 20 19  1  0
 21 23  2  0
 21 22  1  0
M  END
$$$$
