KGK.pdb
     RDKit          3D

 23 22  0  0  1  0  0  0  0  0999 V2000
   10.6615  -16.6025   20.3746 N   0  0  0  0  0  0  0  0  0  0  0  0
    9.5495  -15.7595   20.7405 C   0  0  1  0  0  0  0  0  0  0  0  0
    8.3528  -16.2188   19.9353 C   0  0  0  0  0  0  0  0  0  0  0  0
    8.7657  -17.2095   18.8466 C   0  0  0  0  0  0  0  0  0  0  0  0
    7.4822  -17.6796   18.1876 C   0  0  0  0  0  0  0  0  0  0  0  0
    7.7522  -18.7267   17.1312 C   0  0  0  0  0  0  0  0  0  0  0  0
    6.5357  -19.1498   16.4841 N   0  0  0  0  0  0  0  0  0  0  0  0
    9.2215  -15.9637   22.1681 C   0  0  0  0  0  0  0  0  0  0  0  0
    8.2564  -15.3478   22.6654 O   0  0  0  0  0  0  0  0  0  0  0  0
   10.0045  -16.8505   22.9432 N   0  0  0  0  0  0  0  0  0  0  0  0
    9.6632  -17.2327   24.2872 C   0  0  0  0  0  0  0  0  0  0  0  0
   10.1830  -16.2309   25.2709 C   0  0  0  0  0  0  0  0  0  0  0  0
   11.3387  -15.7741   25.0958 O   0  0  0  0  0  0  0  0  0  0  0  0
    9.4125  -15.8030   26.3647 N   0  0  0  0  0  0  0  0  0  0  0  0
    9.9481  -14.7813   27.3464 C   0  0  1  0  0  0  0  0  0  0  0  0
    8.7379  -14.0152   27.7013 C   0  0  0  0  0  0  0  0  0  0  0  0
    8.0729  -13.0752   26.8187 C   0  0  0  0  0  0  0  0  0  0  0  0
    6.8438  -12.3534   27.2108 C   0  0  0  0  0  0  0  0  0  0  0  0
    6.4301  -11.4920   25.9689 C   0  0  0  0  0  0  0  0  0  0  0  0
    5.3037  -10.6622   26.3088 N   0  0  0  0  0  0  0  0  0  0  0  0
   10.5912  -15.6013   28.3680 C   0  0  0  0  0  0  0  0  0  0  0  0
   10.5055  -17.0121   28.3778 O   0  0  0  0  0  0  0  0  0  0  0  0
   11.2549  -15.1185   29.2951 O   0  0  0  0  0  0  0  0  0  0  0  0
  2  1  1  6
  3  4  1  0
  3  2  1  0
  5  4  1  0
  5  6  1  0
  7  6  1  0
  8  2  1  0
  8  9  2  0
 10  8  1  0
 11 10  1  0
 11 12  1  0
 12 13  2  0
 12 14  1  0
 14 15  1  0
 15 16  1  1
 15 21  1  0
 17 16  1  0
 18 17  1  0
 19 18  1  0
 20 19  1  0
 21 23  2  0
 21 22  1  0
M  END
$$$$
