KGK.pdb
     RDKit          3D

 23 22  0  0  1  0  0  0  0  0999 V2000
    6.9238  -18.7077   22.0942 N   0  0  0  0  0  0  0  0  0  0  0  0
    6.6764  -17.8454   20.9645 C   0  0  1  0  0  0  0  0  0  0  0  0
    5.2245  -18.0209   20.5740 C   0  0  0  0  0  0  0  0  0  0  0  0
    4.4790  -18.8863   21.5900 C   0  0  0  0  0  0  0  0  0  0  0  0
    3.0295  -18.9180   21.1423 C   0  0  0  0  0  0  0  0  0  0  0  0
    2.1666  -19.6946   22.1107 C   0  0  0  0  0  0  0  0  0  0  0  0
    0.7905  -19.7269   21.6828 N   0  0  0  0  0  0  0  0  0  0  0  0
    6.8536  -16.4342   21.3701 C   0  0  0  0  0  0  0  0  0  0  0  0
    6.6504  -15.5301   20.5337 O   0  0  0  0  0  0  0  0  0  0  0  0
    7.2489  -16.1339   22.6943 N   0  0  0  0  0  0  0  0  0  0  0  0
    7.4537  -14.7920   23.1698 C   0  0  0  0  0  0  0  0  0  0  0  0
    7.7451  -14.7892   24.6384 C   0  0  0  0  0  0  0  0  0  0  0  0
    6.7786  -14.6954   25.4333 O   0  0  0  0  0  0  0  0  0  0  0  0
    9.0572  -14.8880   25.1301 N   0  0  0  0  0  0  0  0  0  0  0  0
    9.3244  -15.1903   26.5901 C   0  0  1  0  0  0  0  0  0  0  0  0
    9.3388  -16.6656   26.6128 C   0  0  0  0  0  0  0  0  0  0  0  0
    9.5221  -17.4668   27.8084 C   0  0  0  0  0  0  0  0  0  0  0  0
    9.4788  -18.9443   27.7867 C   0  0  0  0  0  0  0  0  0  0  0  0
    9.7946  -19.4104   29.2491 C   0  0  0  0  0  0  0  0  0  0  0  0
    9.6037  -20.8334   29.3556 N   0  0  0  0  0  0  0  0  0  0  0  0
   10.5620  -14.4664   26.8625 C   0  0  0  0  0  0  0  0  0  0  0  0
   10.9426  -14.0715   28.1651 O   0  0  0  0  0  0  0  0  0  0  0  0
   11.3623  -14.1487   25.9727 O   0  0  0  0  0  0  0  0  0  0  0  0
  2  1  1  1
  3  4  1  0
  3  2  1  0
  5  4  1  0
  5  6  1  0
  7  6  1  0
  8  2  1  0
  8  9  2  0
 10  8  1  0
 11 10  1  0
 11 12  1  0
 12 13  2  0
 12 14  1  0
 14 15  1  0
 15 16  1  6
 15 21  1  0
 17 16  1  0
 18 17  1  0
 19 18  1  0
 20 19  1  0
 21 23  2  0
 21 22  1  0
M  END
$$$$
