KGK.pdb
     RDKit          3D

 23 22  0  0  1  0  0  0  0  0999 V2000
    7.0948  -18.3857   17.7834 N   0  0  0  0  0  0  0  0  0  0  0  0
    8.0088  -18.0570   18.8499 C   0  0  1  0  0  0  0  0  0  0  0  0
    8.6814  -16.7523   18.4798 C   0  0  0  0  0  0  0  0  0  0  0  0
    7.8866  -16.0042   17.4094 C   0  0  0  0  0  0  0  0  0  0  0  0
    8.6673  -14.7396   17.1032 C   0  0  0  0  0  0  0  0  0  0  0  0
    7.9717  -13.8977   16.0579 C   0  0  0  0  0  0  0  0  0  0  0  0
    8.7174  -12.6998   15.7630 N   0  0  0  0  0  0  0  0  0  0  0  0
    7.2504  -17.8205   20.0974 C   0  0  0  0  0  0  0  0  0  0  0  0
    6.0948  -18.2801   20.2040 O   0  0  0  0  0  0  0  0  0  0  0  0
    7.8455  -17.0800   21.1451 N   0  0  0  0  0  0  0  0  0  0  0  0
    7.2187  -16.8827   22.4245 C   0  0  0  0  0  0  0  0  0  0  0  0
    8.0785  -16.0358   23.3105 C   0  0  0  0  0  0  0  0  0  0  0  0
    9.2223  -15.7218   22.9005 O   0  0  0  0  0  0  0  0  0  0  0  0
    7.6337  -15.5962   24.5683 N   0  0  0  0  0  0  0  0  0  0  0  0
    8.4941  -14.6970   25.4316 C   0  0  1  0  0  0  0  0  0  0  0  0
    7.5038  -14.0784   26.3338 C   0  0  0  0  0  0  0  0  0  0  0  0
    6.9679  -12.7400   26.1711 C   0  0  0  0  0  0  0  0  0  0  0  0
    5.8765  -12.2148   27.0187 C   0  0  0  0  0  0  0  0  0  0  0  0
    5.5785  -10.7676   26.4971 C   0  0  0  0  0  0  0  0  0  0  0  0
    4.5206  -10.1800   27.2773 N   0  0  0  0  0  0  0  0  0  0  0  0
    9.4841  -15.6128   25.9891 C   0  0  0  0  0  0  0  0  0  0  0  0
   10.7947  -15.2049   26.3261 O   0  0  0  0  0  0  0  0  0  0  0  0
    9.2447  -16.8084   26.2047 O   0  0  0  0  0  0  0  0  0  0  0  0
  2  1  1  6
  3  4  1  0
  3  2  1  0
  5  4  1  0
  5  6  1  0
  7  6  1  0
  8  2  1  0
  8  9  2  0
 10  8  1  0
 11 10  1  0
 11 12  1  0
 12 13  2  0
 12 14  1  0
 14 15  1  0
 15 16  1  1
 15 21  1  0
 17 16  1  0
 18 17  1  0
 19 18  1  0
 20 19  1  0
 21 23  2  0
 21 22  1  0
M  END
$$$$
