KGK.pdb
     RDKit          3D

 23 22  0  0  1  0  0  0  0  0999 V2000
    8.0955  -20.8662   22.2890 N   0  0  0  0  0  0  0  0  0  0  0  0
    8.3882  -20.5772   20.9063 C   0  0  1  0  0  0  0  0  0  0  0  0
    7.2439  -21.1245   20.0803 C   0  0  0  0  0  0  0  0  0  0  0  0
    6.7310  -22.4460   20.6526 C   0  0  0  0  0  0  0  0  0  0  0  0
    5.6438  -22.9269   19.7095 C   0  0  0  0  0  0  0  0  0  0  0  0
    5.0607  -24.2463   20.1617 C   0  0  0  0  0  0  0  0  0  0  0  0
    4.0626  -24.7262   19.2392 N   0  0  0  0  0  0  0  0  0  0  0  0
    8.4155  -19.1127   20.7011 C   0  0  0  0  0  0  0  0  0  0  0  0
    8.3641  -18.6595   19.5392 O   0  0  0  0  0  0  0  0  0  0  0  0
    8.4991  -18.2534   21.8212 N   0  0  0  0  0  0  0  0  0  0  0  0
    8.7684  -16.8446   21.7144 C   0  0  0  0  0  0  0  0  0  0  0  0
    8.7404  -16.1963   23.0637 C   0  0  0  0  0  0  0  0  0  0  0  0
    8.3877  -16.8915   24.0472 O   0  0  0  0  0  0  0  0  0  0  0  0
    9.0957  -14.8490   23.2421 N   0  0  0  0  0  0  0  0  0  0  0  0
    9.1145  -14.2212   24.6205 C   0  0  1  0  0  0  0  0  0  0  0  0
    7.7161  -13.7818   24.7898 C   0  0  0  0  0  0  0  0  0  0  0  0
    7.1861  -13.1758   25.9968 C   0  0  0  0  0  0  0  0  0  0  0  0
    6.0831  -12.1919   25.9712 C   0  0  0  0  0  0  0  0  0  0  0  0
    5.8041  -11.8119   27.4656 C   0  0  0  0  0  0  0  0  0  0  0  0
    4.7347  -10.8500   27.5292 N   0  0  0  0  0  0  0  0  0  0  0  0
    9.6279  -15.2908   25.4703 C   0  0  0  0  0  0  0  0  0  0  0  0
    9.5182  -16.6570   25.1252 O   0  0  0  0  0  0  0  0  0  0  0  0
   10.1937  -15.0755   26.5504 O   0  0  0  0  0  0  0  0  0  0  0  0
  2  1  1  1
  3  4  1  0
  3  2  1  0
  5  4  1  0
  5  6  1  0
  7  6  1  0
  8  2  1  0
  8  9  2  0
 10  8  1  0
 11 10  1  0
 11 12  1  0
 12 13  2  0
 12 14  1  0
 14 15  1  0
 15 16  1  1
 15 21  1  0
 17 16  1  0
 18 17  1  0
 19 18  1  0
 20 19  1  0
 21 23  2  0
 21 22  1  0
M  END
$$$$
