KGK.pdb
     RDKit          3D

 23 22  0  0  1  0  0  0  0  0999 V2000
    8.6721  -20.1057   21.0888 N   0  0  0  0  0  0  0  0  0  0  0  0
    9.7389  -19.4993   20.3304 C   0  0  1  0  0  0  0  0  0  0  0  0
    9.6450  -20.0322   18.9167 C   0  0  0  0  0  0  0  0  0  0  0  0
    8.9172  -21.3760   18.8791 C   0  0  0  0  0  0  0  0  0  0  0  0
    8.8446  -21.7820   17.4188 C   0  0  0  0  0  0  0  0  0  0  0  0
    8.2008  -23.1395   17.2518 C   0  0  0  0  0  0  0  0  0  0  0  0
    8.1256  -23.5210   15.8637 N   0  0  0  0  0  0  0  0  0  0  0  0
    9.5292  -18.0368   20.2622 C   0  0  0  0  0  0  0  0  0  0  0  0
   10.3903  -17.3233   19.7077 O   0  0  0  0  0  0  0  0  0  0  0  0
    8.3604  -17.4733   20.8247 N   0  0  0  0  0  0  0  0  0  0  0  0
    8.0933  -16.0600   20.8334 C   0  0  0  0  0  0  0  0  0  0  0  0
    8.5723  -15.4384   22.1084 C   0  0  0  0  0  0  0  0  0  0  0  0
    9.8100  -15.3337   22.2874 O   0  0  0  0  0  0  0  0  0  0  0  0
    7.6756  -14.9799   23.0877 N   0  0  0  0  0  0  0  0  0  0  0  0
    8.1623  -14.1902   24.2852 C   0  0  1  0  0  0  0  0  0  0  0  0
    6.9404  -13.4876   24.7218 C   0  0  0  0  0  0  0  0  0  0  0  0
    6.8970  -12.4960   25.7800 C   0  0  0  0  0  0  0  0  0  0  0  0
    5.6516  -11.7957   26.1593 C   0  0  0  0  0  0  0  0  0  0  0  0
    6.0389  -10.8168   27.3199 C   0  0  0  0  0  0  0  0  0  0  0  0
    4.9058   -9.9963   27.6599 N   0  0  0  0  0  0  0  0  0  0  0  0
    8.7378  -15.2137   25.1518 C   0  0  0  0  0  0  0  0  0  0  0  0
    8.3269  -16.5654   25.1111 O   0  0  0  0  0  0  0  0  0  0  0  0
    9.6240  -14.9689   25.9811 O   0  0  0  0  0  0  0  0  0  0  0  0
  2  1  1  1
  3  4  1  0
  3  2  1  0
  5  4  1  0
  5  6  1  0
  7  6  1  0
  8  2  1  0
  8  9  2  0
 10  8  1  0
 11 10  1  0
 11 12  1  0
 12 13  2  0
 12 14  1  0
 14 15  1  0
 15 16  1  1
 15 21  1  0
 17 16  1  0
 18 17  1  0
 19 18  1  0
 20 19  1  0
 21 23  2  0
 21 22  1  0
M  END
$$$$
