KGK.pdb
     RDKit          3D

 23 22  0  0  1  0  0  0  0  0999 V2000
    7.6197  -17.3467   19.0006 N   0  0  0  0  0  0  0  0  0  0  0  0
    8.9826  -16.9028   18.8378 C   0  0  1  0  0  0  0  0  0  0  0  0
    8.9504  -15.3968   18.6884 C   0  0  0  0  0  0  0  0  0  0  0  0
    7.9665  -14.9697   17.5991 C   0  0  0  0  0  0  0  0  0  0  0  0
    8.6901  -13.9423   16.7487 C   0  0  0  0  0  0  0  0  0  0  0  0
    7.7958  -13.3940   15.6601 C   0  0  0  0  0  0  0  0  0  0  0  0
    8.4973  -12.4512   14.8254 N   0  0  0  0  0  0  0  0  0  0  0  0
    9.7522  -17.2051   20.0640 C   0  0  0  0  0  0  0  0  0  0  0  0
   10.9753  -16.9572   20.0920 O   0  0  0  0  0  0  0  0  0  0  0  0
    9.0916  -17.7683   21.1805 N   0  0  0  0  0  0  0  0  0  0  0  0
    9.7685  -18.1255   22.3982 C   0  0  0  0  0  0  0  0  0  0  0  0
    9.9415  -16.9272   23.2791 C   0  0  0  0  0  0  0  0  0  0  0  0
   11.0082  -16.2729   23.1854 O   0  0  0  0  0  0  0  0  0  0  0  0
    8.9480  -16.5322   24.1903 N   0  0  0  0  0  0  0  0  0  0  0  0
    9.2161  -15.4551   25.2210 C   0  0  1  0  0  0  0  0  0  0  0  0
    7.8843  -14.8452   25.3987 C   0  0  0  0  0  0  0  0  0  0  0  0
    7.6396  -13.5948   26.0926 C   0  0  0  0  0  0  0  0  0  0  0  0
    6.2801  -13.0457   26.2808 C   0  0  0  0  0  0  0  0  0  0  0  0
    6.4599  -11.6930   27.0510 C   0  0  0  0  0  0  0  0  0  0  0  0
    5.1741  -11.0793   27.2586 N   0  0  0  0  0  0  0  0  0  0  0  0
    9.8105  -16.1925   26.3313 C   0  0  0  0  0  0  0  0  0  0  0  0
   10.6629  -15.5841   27.2804 O   0  0  0  0  0  0  0  0  0  0  0  0
    9.6095  -17.4000   26.5179 O   0  0  0  0  0  0  0  0  0  0  0  0
  2  1  1  1
  3  4  1  0
  3  2  1  0
  5  4  1  0
  5  6  1  0
  7  6  1  0
  8  2  1  0
  8  9  2  0
 10  8  1  0
 11 10  1  0
 11 12  1  0
 12 13  2  0
 12 14  1  0
 14 15  1  0
 15 16  1  1
 15 21  1  0
 17 16  1  0
 18 17  1  0
 19 18  1  0
 20 19  1  0
 21 23  2  0
 21 22  1  0
M  END
$$$$
