KGK.pdb
     RDKit          3D

 23 22  0  0  1  0  0  0  0  0999 V2000
    9.0928  -18.2707   18.3575 N   0  0  0  0  0  0  0  0  0  0  0  0
    8.4233  -16.9970   18.2546 C   0  0  1  0  0  0  0  0  0  0  0  0
    7.2701  -17.1717   17.2896 C   0  0  0  0  0  0  0  0  0  0  0  0
    7.6921  -17.9823   16.0641 C   0  0  0  0  0  0  0  0  0  0  0  0
    6.7439  -19.1645   15.9865 C   0  0  0  0  0  0  0  0  0  0  0  0
    5.8505  -19.0802   14.7700 C   0  0  0  0  0  0  0  0  0  0  0  0
    4.8522  -20.1201   14.7751 N   0  0  0  0  0  0  0  0  0  0  0  0
    7.8455  -16.6334   19.5666 C   0  0  0  0  0  0  0  0  0  0  0  0
    7.0204  -17.4015   20.1026 O   0  0  0  0  0  0  0  0  0  0  0  0
    8.2363  -15.4254   20.1896 N   0  0  0  0  0  0  0  0  0  0  0  0
    7.8347  -15.0607   21.5216 C   0  0  0  0  0  0  0  0  0  0  0  0
    8.8247  -15.5590   22.5283 C   0  0  0  0  0  0  0  0  0  0  0  0
    9.8247  -16.1923   22.1116 O   0  0  0  0  0  0  0  0  0  0  0  0
    8.6546  -15.3331   23.9043 N   0  0  0  0  0  0  0  0  0  0  0  0
    9.6829  -15.8117   24.9082 C   0  0  1  0  0  0  0  0  0  0  0  0
    9.4546  -14.9093   26.0532 C   0  0  0  0  0  0  0  0  0  0  0  0
   10.2881  -14.8612   27.2398 C   0  0  0  0  0  0  0  0  0  0  0  0
   10.0052  -13.9521   28.3706 C   0  0  0  0  0  0  0  0  0  0  0  0
   11.1480  -14.1895   29.4162 C   0  0  0  0  0  0  0  0  0  0  0  0
   10.9340  -13.3504   30.5664 N   0  0  0  0  0  0  0  0  0  0  0  0
    9.3758  -17.2309   25.0537 C   0  0  0  0  0  0  0  0  0  0  0  0
   10.3522  -18.1891   25.4089 O   0  0  0  0  0  0  0  0  0  0  0  0
    8.2407  -17.6927   24.8761 O   0  0  0  0  0  0  0  0  0  0  0  0
  2  1  1  1
  3  4  1  0
  3  2  1  0
  5  4  1  0
  5  6  1  0
  7  6  1  0
  8  2  1  0
  8  9  2  0
 10  8  1  0
 11 10  1  0
 11 12  1  0
 12 13  2  0
 12 14  1  0
 14 15  1  0
 15 16  1  1
 15 21  1  0
 17 16  1  0
 18 17  1  0
 19 18  1  0
 20 19  1  0
 21 23  2  0
 21 22  1  0
M  END
$$$$
