KGK.pdb
     RDKit          3D

 23 22  0  0  1  0  0  0  0  0999 V2000
    8.8866  -17.4476   16.7884 N   0  0  0  0  0  0  0  0  0  0  0  0
    8.2573  -17.7771   18.0439 C   0  0  1  0  0  0  0  0  0  0  0  0
    7.6694  -19.1648   17.9020 C   0  0  0  0  0  0  0  0  0  0  0  0
    6.3553  -19.1318   17.1217 C   0  0  0  0  0  0  0  0  0  0  0  0
    6.6236  -19.8332   15.8031 C   0  0  0  0  0  0  0  0  0  0  0  0
    5.3888  -19.8678   14.9317 C   0  0  0  0  0  0  0  0  0  0  0  0
    5.6547  -20.4999   13.6639 N   0  0  0  0  0  0  0  0  0  0  0  0
    9.2809  -17.8417   19.1095 C   0  0  0  0  0  0  0  0  0  0  0  0
    8.9341  -17.6802   20.2977 O   0  0  0  0  0  0  0  0  0  0  0  0
   10.6309  -18.0845   18.7653 N   0  0  0  0  0  0  0  0  0  0  0  0
   11.6177  -18.5279   19.7132 C   0  0  0  0  0  0  0  0  0  0  0  0
   12.0330  -17.4034   20.6103 C   0  0  0  0  0  0  0  0  0  0  0  0
   12.7480  -16.4930   20.1259 O   0  0  0  0  0  0  0  0  0  0  0  0
   11.6424  -17.3530   21.9587 N   0  0  0  0  0  0  0  0  0  0  0  0
   12.2191  -16.3173   22.9017 C   0  0  1  0  0  0  0  0  0  0  0  0
   11.1850  -16.2302   23.9507 C   0  0  0  0  0  0  0  0  0  0  0  0
    9.9527  -15.4744   23.8281 C   0  0  0  0  0  0  0  0  0  0  0  0
    8.8894  -15.5204   24.8541 C   0  0  0  0  0  0  0  0  0  0  0  0
    7.7648  -14.5479   24.3593 C   0  0  0  0  0  0  0  0  0  0  0  0
    6.6866  -14.5291   25.3132 N   0  0  0  0  0  0  0  0  0  0  0  0
   13.5283  -16.8647   23.2425 C   0  0  0  0  0  0  0  0  0  0  0  0
   13.8837  -18.2077   22.9823 O   0  0  0  0  0  0  0  0  0  0  0  0
   14.4162  -16.1916   23.7825 O   0  0  0  0  0  0  0  0  0  0  0  0
  2  1  1  6
  3  4  1  0
  3  2  1  0
  5  4  1  0
  5  6  1  0
  7  6  1  0
  8  2  1  0
  8  9  2  0
 10  8  1  0
 11 10  1  0
 11 12  1  0
 12 13  2  0
 12 14  1  0
 14 15  1  0
 15 16  1  1
 15 21  1  0
 17 16  1  0
 18 17  1  0
 19 18  1  0
 20 19  1  0
 21 23  2  0
 21 22  1  0
M  END
$$$$
