EDW.pdb
     RDKit          3D

 32 33  0  0  1  0  0  0  0  0999 V2000
   31.1776  -31.5183  -19.9171 N   0  0  0  0  0  0  0  0  0  0  0  0
   30.6861  -30.6727  -18.8625 C   0  0  1  0  0  0  0  0  0  0  0  0
   31.0444  -29.2315  -19.1535 C   0  0  0  0  0  0  0  0  0  0  0  0
   32.4963  -29.0226  -18.7536 C   0  0  0  0  0  0  0  0  0  0  0  0
   32.8346  -27.6103  -19.0509 C   0  0  0  0  0  0  0  0  0  0  0  0
   33.9502  -27.1351  -18.7150 O   0  0  0  0  0  0  0  0  0  0  0  0
   29.2112  -30.7670  -18.7280 C   0  0  0  0  0  0  0  0  0  0  0  0
   28.4212  -30.3984  -19.6297 O   0  0  0  0  0  0  0  0  0  0  0  0
   31.9444  -26.7721  -19.7021 O   0  0  0  0  0  0  0  0  0  0  0  0
   28.6883  -31.3097  -17.4963 N   0  0  0  0  0  0  0  0  0  0  0  0
   27.2682  -31.4038  -17.3633 C   0  0  1  0  0  0  0  0  0  0  0  0
   26.8539  -32.0505  -16.0665 C   0  0  0  0  0  0  0  0  0  0  0  0
   25.4245  -32.3923  -16.0600 C   0  0  0  0  0  0  0  0  0  0  0  0
   24.6592  -32.1226  -17.0075 O   0  0  0  0  0  0  0  0  0  0  0  0
   26.6748  -30.0261  -17.4373 C   0  0  0  0  0  0  0  0  0  0  0  0
   27.1372  -29.1605  -16.6404 O   0  0  0  0  0  0  0  0  0  0  0  0
   24.8707  -33.0436  -14.9679 O   0  0  0  0  0  0  0  0  0  0  0  0
   25.6634  -29.7810  -18.3648 N   0  0  0  0  0  0  0  0  0  0  0  0
   25.0875  -28.4226  -18.4816 C   0  0  1  0  0  0  0  0  0  0  0  0
   25.5930  -27.9215  -19.7989 C   0  0  0  0  0  0  0  0  0  0  0  0
   25.0718  -26.6016  -20.1984 C   0  0  0  0  0  0  0  0  0  0  0  0
   24.5365  -25.6231  -19.3379 C   0  0  0  0  0  0  0  0  0  0  0  0
   24.1358  -24.5765  -20.0499 N   0  0  0  0  0  0  0  0  0  0  0  0
   24.3663  -24.7768  -21.3668 C   0  0  0  0  0  0  0  0  0  0  0  0
   24.1487  -24.0008  -22.4852 C   0  0  0  0  0  0  0  0  0  0  0  0
   24.5359  -24.5271  -23.7056 C   0  0  0  0  0  0  0  0  0  0  0  0
   25.1167  -25.7774  -23.8040 C   0  0  0  0  0  0  0  0  0  0  0  0
   25.3231  -26.5292  -22.6905 C   0  0  0  0  0  0  0  0  0  0  0  0
   24.9509  -26.0424  -21.4533 C   0  0  0  0  0  0  0  0  0  0  0  0
   23.6380  -28.5914  -18.3495 C   0  0  0  0  0  0  0  0  0  0  0  0
   23.0522  -29.6617  -18.6452 O   0  0  0  0  0  0  0  0  0  0  0  0
   22.7837  -27.5727  -17.8817 O   0  0  0  0  0  0  0  0  0  0  0  0
  2  1  1  6
  2  3  1  0
  3  4  1  0
  4  5  1  0
  5  9  1  0
  5  6  2  0
  7  2  1  0
  8  7  2  0
 10  7  1  0
 11 10  1  0
 11 12  1  1
 13 12  1  0
 14 13  2  0
 15 11  1  0
 15 18  1  0
 16 15  2  0
 17 13  1  0
 19 30  1  0
 19 18  1  0
 19 20  1  6
 21 20  1  0
 21 22  2  0
 23 22  1  0
 24 23  1  0
 25 24  2  0
 26 25  1  0
 27 26  2  0
 27 28  1  0
 28 29  2  0
 29 24  1  0
 29 21  1  0
 30 32  1  0
 31 30  2  0
M  END
$$$$
