EDW.pdb
     RDKit          3D

 32 33  0  0  1  0  0  0  0  0999 V2000
   27.6307  -23.3992  -18.1006 N   0  0  0  0  0  0  0  0  0  0  0  0
   28.0620  -23.0311  -16.7788 C   0  0  1  0  0  0  0  0  0  0  0  0
   29.4819  -22.5102  -16.8305 C   0  0  0  0  0  0  0  0  0  0  0  0
   29.5818  -21.5455  -18.0013 C   0  0  0  0  0  0  0  0  0  0  0  0
   30.5344  -22.1324  -18.9736 C   0  0  0  0  0  0  0  0  0  0  0  0
   31.0560  -23.2572  -18.7593 O   0  0  0  0  0  0  0  0  0  0  0  0
   27.1995  -21.9729  -16.1967 C   0  0  0  0  0  0  0  0  0  0  0  0
   26.9860  -20.8780  -16.7699 O   0  0  0  0  0  0  0  0  0  0  0  0
   30.8810  -21.4708  -20.1403 O   0  0  0  0  0  0  0  0  0  0  0  0
   26.5920  -22.2397  -14.9142 N   0  0  0  0  0  0  0  0  0  0  0  0
   25.5809  -21.3377  -14.4590 C   0  0  1  0  0  0  0  0  0  0  0  0
   24.3039  -21.4587  -15.2506 C   0  0  0  0  0  0  0  0  0  0  0  0
   23.2428  -20.5985  -14.7083 C   0  0  0  0  0  0  0  0  0  0  0  0
   22.0596  -20.9754  -14.5897 O   0  0  0  0  0  0  0  0  0  0  0  0
   25.2903  -21.6144  -13.0118 C   0  0  0  0  0  0  0  0  0  0  0  0
   25.0099  -22.8077  -12.7025 O   0  0  0  0  0  0  0  0  0  0  0  0
   23.5366  -19.3056  -14.3013 O   0  0  0  0  0  0  0  0  0  0  0  0
   25.3444  -20.5583  -12.1035 N   0  0  0  0  0  0  0  0  0  0  0  0
   25.1364  -20.8183  -10.6614 C   0  0  1  0  0  0  0  0  0  0  0  0
   25.9725  -19.7817   -9.9771 C   0  0  0  0  0  0  0  0  0  0  0  0
   27.2172  -20.2923   -9.3740 C   0  0  0  0  0  0  0  0  0  0  0  0
   28.1756  -21.1072  -10.0078 C   0  0  0  0  0  0  0  0  0  0  0  0
   29.1466  -21.3997   -9.1507 N   0  0  0  0  0  0  0  0  0  0  0  0
   28.9126  -20.8274   -7.9486 C   0  0  0  0  0  0  0  0  0  0  0  0
   29.6146  -20.8182   -6.7623 C   0  0  0  0  0  0  0  0  0  0  0  0
   29.0758  -20.0922   -5.7138 C   0  0  0  0  0  0  0  0  0  0  0  0
   27.8845  -19.4039   -5.8460 C   0  0  0  0  0  0  0  0  0  0  0  0
   27.2053  -19.4248   -7.0231 C   0  0  0  0  0  0  0  0  0  0  0  0
   27.7070  -20.1372   -8.0941 C   0  0  0  0  0  0  0  0  0  0  0  0
   23.6884  -20.7476  -10.4483 C   0  0  0  0  0  0  0  0  0  0  0  0
   23.1478  -21.0774   -9.3642 O   0  0  0  0  0  0  0  0  0  0  0  0
   22.7854  -20.3057  -11.4360 O   0  0  0  0  0  0  0  0  0  0  0  0
  2  1  1  6
  2  3  1  0
  3  4  1  0
  4  5  1  0
  5  9  1  0
  5  6  2  0
  7  2  1  0
  8  7  2  0
 10  7  1  0
 11 10  1  0
 11 12  1  6
 13 12  1  0
 14 13  2  0
 15 11  1  0
 15 18  1  0
 16 15  2  0
 17 13  1  0
 19 30  1  0
 19 18  1  0
 19 20  1  1
 21 20  1  0
 21 22  2  0
 23 22  1  0
 24 23  1  0
 25 24  2  0
 26 25  1  0
 27 26  2  0
 27 28  1  0
 28 29  2  0
 29 24  1  0
 29 21  1  0
 30 32  1  0
 31 30  2  0
M  END
$$$$
