EDW.pdb
     RDKit          3D

 32 33  0  0  1  0  0  0  0  0999 V2000
   25.5521  -21.8315   -7.2809 N   0  0  0  0  0  0  0  0  0  0  0  0
   25.4665  -20.6994   -8.1639 C   0  0  1  0  0  0  0  0  0  0  0  0
   26.8418  -20.0998   -8.3617 C   0  0  0  0  0  0  0  0  0  0  0  0
   27.3740  -19.6944   -6.9965 C   0  0  0  0  0  0  0  0  0  0  0  0
   26.5785  -18.5283   -6.5439 C   0  0  0  0  0  0  0  0  0  0  0  0
   25.9271  -18.5765   -5.4685 O   0  0  0  0  0  0  0  0  0  0  0  0
   24.9304  -21.0820   -9.4938 C   0  0  0  0  0  0  0  0  0  0  0  0
   25.1145  -22.2142  -10.0011 O   0  0  0  0  0  0  0  0  0  0  0  0
   26.5241  -17.3564   -7.2807 O   0  0  0  0  0  0  0  0  0  0  0  0
   24.1677  -20.0903  -10.2146 N   0  0  0  0  0  0  0  0  0  0  0  0
   23.5784  -20.4811  -11.4569 C   0  0  1  0  0  0  0  0  0  0  0  0
   22.0726  -20.5091  -11.3952 C   0  0  0  0  0  0  0  0  0  0  0  0
   21.4808  -20.8762  -12.6895 C   0  0  0  0  0  0  0  0  0  0  0  0
   22.1153  -21.4804  -13.5775 O   0  0  0  0  0  0  0  0  0  0  0  0
   24.0087  -19.5214  -12.5289 C   0  0  0  0  0  0  0  0  0  0  0  0
   23.6744  -18.3112  -12.3813 O   0  0  0  0  0  0  0  0  0  0  0  0
   20.1614  -20.5514  -12.9673 O   0  0  0  0  0  0  0  0  0  0  0  0
   24.7410  -20.0091  -13.6103 N   0  0  0  0  0  0  0  0  0  0  0  0
   25.2976  -19.0657  -14.6057 C   0  0  1  0  0  0  0  0  0  0  0  0
   26.5268  -18.5202  -13.9472 C   0  0  0  0  0  0  0  0  0  0  0  0
   27.6882  -19.4282  -13.9596 C   0  0  0  0  0  0  0  0  0  0  0  0
   28.4205  -19.8271  -15.0950 C   0  0  0  0  0  0  0  0  0  0  0  0
   29.3753  -20.6755  -14.7324 N   0  0  0  0  0  0  0  0  0  0  0  0
   29.3455  -20.8878  -13.3977 C   0  0  0  0  0  0  0  0  0  0  0  0
   30.1200  -21.6536  -12.5528 C   0  0  0  0  0  0  0  0  0  0  0  0
   29.8110  -21.6170  -11.2039 C   0  0  0  0  0  0  0  0  0  0  0  0
   28.7707  -20.8467  -10.7196 C   0  0  0  0  0  0  0  0  0  0  0  0
   28.0168  -20.0982  -11.5675 C   0  0  0  0  0  0  0  0  0  0  0  0
   28.2906  -20.1064  -12.9207 C   0  0  0  0  0  0  0  0  0  0  0  0
   25.4933  -19.8469  -15.8297 C   0  0  0  0  0  0  0  0  0  0  0  0
   25.7524  -19.3150  -16.9370 O   0  0  0  0  0  0  0  0  0  0  0  0
   25.4083  -21.2532  -15.8674 O   0  0  0  0  0  0  0  0  0  0  0  0
  2  1  1  1
  2  3  1  0
  3  4  1  0
  4  5  1  0
  5  9  1  0
  5  6  2  0
  7  2  1  0
  8  7  2  0
 10  7  1  0
 11 10  1  0
 11 12  1  1
 13 12  1  0
 14 13  2  0
 15 11  1  0
 15 18  1  0
 16 15  2  0
 17 13  1  0
 19 30  1  0
 19 18  1  0
 19 20  1  1
 21 20  1  0
 21 22  2  0
 23 22  1  0
 24 23  1  0
 25 24  2  0
 26 25  1  0
 27 26  2  0
 27 28  1  0
 28 29  2  0
 29 24  1  0
 29 21  1  0
 30 32  1  0
 31 30  2  0
M  END
$$$$
