EDW.pdb
     RDKit          3D

 32 33  0  0  1  0  0  0  0  0999 V2000
   25.5321  -17.8806  -20.0092 N   0  0  0  0  0  0  0  0  0  0  0  0
   24.3728  -17.7124  -19.1746 C   0  0  1  0  0  0  0  0  0  0  0  0
   23.2295  -17.1538  -19.9938 C   0  0  0  0  0  0  0  0  0  0  0  0
   23.7611  -15.9740  -20.7918 C   0  0  0  0  0  0  0  0  0  0  0  0
   23.6127  -14.7676  -19.9433 C   0  0  0  0  0  0  0  0  0  0  0  0
   22.4728  -14.2971  -19.6936 O   0  0  0  0  0  0  0  0  0  0  0  0
   23.9341  -19.0001  -18.5814 C   0  0  0  0  0  0  0  0  0  0  0  0
   22.9540  -19.0918  -17.8043 O   0  0  0  0  0  0  0  0  0  0  0  0
   24.7117  -14.1220  -19.4006 O   0  0  0  0  0  0  0  0  0  0  0  0
   24.6848  -20.1834  -18.9294 N   0  0  0  0  0  0  0  0  0  0  0  0
   24.2534  -21.4288  -18.3760 C   0  0  1  0  0  0  0  0  0  0  0  0
   24.5926  -22.5999  -19.2622 C   0  0  0  0  0  0  0  0  0  0  0  0
   23.9993  -23.8493  -18.7653 C   0  0  0  0  0  0  0  0  0  0  0  0
   23.3206  -23.9082  -17.7203 O   0  0  0  0  0  0  0  0  0  0  0  0
   24.9023  -21.6224  -17.0355 C   0  0  0  0  0  0  0  0  0  0  0  0
   26.1392  -21.3730  -16.9573 O   0  0  0  0  0  0  0  0  0  0  0  0
   24.1830  -25.0324  -19.4655 O   0  0  0  0  0  0  0  0  0  0  0  0
   24.1188  -22.0594  -15.9685 N   0  0  0  0  0  0  0  0  0  0  0  0
   24.7496  -22.3341  -14.6582 C   0  0  1  0  0  0  0  0  0  0  0  0
   24.8514  -20.9880  -14.0104 C   0  0  0  0  0  0  0  0  0  0  0  0
   24.8270  -21.0088  -12.5364 C   0  0  0  0  0  0  0  0  0  0  0  0
   25.9243  -21.2599  -11.6895 C   0  0  0  0  0  0  0  0  0  0  0  0
   25.5242  -21.2318  -10.4238 N   0  0  0  0  0  0  0  0  0  0  0  0
   24.1998  -20.9724  -10.3460 C   0  0  0  0  0  0  0  0  0  0  0  0
   23.3337  -20.8281   -9.2833 C   0  0  0  0  0  0  0  0  0  0  0  0
   22.0129  -20.5371   -9.5785 C   0  0  0  0  0  0  0  0  0  0  0  0
   21.5760  -20.3961  -10.8821 C   0  0  0  0  0  0  0  0  0  0  0  0
   22.4439  -20.5426  -11.9179 C   0  0  0  0  0  0  0  0  0  0  0  0
   23.7701  -20.8339  -11.6678 C   0  0  0  0  0  0  0  0  0  0  0  0
   23.8900  -23.3219  -14.0009 C   0  0  0  0  0  0  0  0  0  0  0  0
   22.6650  -23.4276  -14.2548 O   0  0  0  0  0  0  0  0  0  0  0  0
   24.3626  -24.2319  -13.0340 O   0  0  0  0  0  0  0  0  0  0  0  0
  2  1  1  6
  2  3  1  0
  3  4  1  0
  4  5  1  0
  5  9  1  0
  5  6  2  0
  7  2  1  0
  8  7  2  0
 10  7  1  0
 11 10  1  0
 11 12  1  6
 13 12  1  0
 14 13  2  0
 15 11  1  0
 15 18  1  0
 16 15  2  0
 17 13  1  0
 19 30  1  0
 19 18  1  0
 19 20  1  1
 21 20  1  0
 21 22  2  0
 23 22  1  0
 24 23  1  0
 25 24  2  0
 26 25  1  0
 27 26  2  0
 27 28  1  0
 28 29  2  0
 29 24  1  0
 29 21  1  0
 30 32  1  0
 31 30  2  0
M  END
$$$$
