EDW.pdb
     RDKit          3D

 32 33  0  0  1  0  0  0  0  0999 V2000
   27.0097  -18.9235  -15.6913 N   0  0  0  0  0  0  0  0  0  0  0  0
   26.3285  -20.0353  -15.0840 C   0  0  1  0  0  0  0  0  0  0  0  0
   27.1294  -21.3021  -15.2935 C   0  0  0  0  0  0  0  0  0  0  0  0
   28.6007  -20.9554  -15.1308 C   0  0  0  0  0  0  0  0  0  0  0  0
   29.3762  -22.1841  -15.4244 C   0  0  0  0  0  0  0  0  0  0  0  0
   29.7098  -22.4635  -16.6050 O   0  0  0  0  0  0  0  0  0  0  0  0
   26.1479  -19.8354  -13.6246 C   0  0  0  0  0  0  0  0  0  0  0  0
   26.5774  -18.8249  -13.0184 O   0  0  0  0  0  0  0  0  0  0  0  0
   29.7574  -23.0593  -14.4205 O   0  0  0  0  0  0  0  0  0  0  0  0
   25.4444  -20.8630  -12.8939 N   0  0  0  0  0  0  0  0  0  0  0  0
   24.4707  -20.4456  -11.9342 C   0  0  1  0  0  0  0  0  0  0  0  0
   23.0630  -20.7672  -12.3665 C   0  0  0  0  0  0  0  0  0  0  0  0
   22.0662  -20.1482  -11.4815 C   0  0  0  0  0  0  0  0  0  0  0  0
   22.3668  -19.3250  -10.5937 O   0  0  0  0  0  0  0  0  0  0  0  0
   24.7496  -21.1238  -10.6236 C   0  0  0  0  0  0  0  0  0  0  0  0
   24.9122  -22.3772  -10.6512 O   0  0  0  0  0  0  0  0  0  0  0  0
   20.7240  -20.4717  -11.6130 O   0  0  0  0  0  0  0  0  0  0  0  0
   24.8129  -20.3475   -9.4674 N   0  0  0  0  0  0  0  0  0  0  0  0
   25.0533  -20.9965   -8.1592 C   0  0  1  0  0  0  0  0  0  0  0  0
   25.4176  -19.8646   -7.2493 C   0  0  0  0  0  0  0  0  0  0  0  0
   26.8605  -19.5711   -7.1764 C   0  0  0  0  0  0  0  0  0  0  0  0
   27.6515  -19.0241   -8.2058 C   0  0  0  0  0  0  0  0  0  0  0  0
   28.9110  -18.9305   -7.7963 N   0  0  0  0  0  0  0  0  0  0  0  0
   29.0376  -19.3854   -6.5296 C   0  0  0  0  0  0  0  0  0  0  0  0
   30.1120  -19.4817   -5.6712 C   0  0  0  0  0  0  0  0  0  0  0  0
   29.8682  -19.9904   -4.4070 C   0  0  0  0  0  0  0  0  0  0  0  0
   28.6027  -20.3863   -4.0170 C   0  0  0  0  0  0  0  0  0  0  0  0
   27.5550  -20.2849   -4.8770 C   0  0  0  0  0  0  0  0  0  0  0  0
   27.7544  -19.7836   -6.1478 C   0  0  0  0  0  0  0  0  0  0  0  0
   23.8238  -21.7291   -7.8454 C   0  0  0  0  0  0  0  0  0  0  0  0
   22.7089  -21.4182   -8.3318 O   0  0  0  0  0  0  0  0  0  0  0  0
   23.7887  -22.8382   -6.9766 O   0  0  0  0  0  0  0  0  0  0  0  0
  2  1  1  1
  2  3  1  0
  3  4  1  0
  4  5  1  0
  5  9  1  0
  5  6  2  0
  7  2  1  0
  8  7  2  0
 10  7  1  0
 11 10  1  0
 11 12  1  6
 13 12  1  0
 14 13  2  0
 15 11  1  0
 15 18  1  0
 16 15  2  0
 17 13  1  0
 19 30  1  0
 19 18  1  0
 19 20  1  1
 21 20  1  0
 21 22  2  0
 23 22  1  0
 24 23  1  0
 25 24  2  0
 26 25  1  0
 27 26  2  0
 27 28  1  0
 28 29  2  0
 29 24  1  0
 29 21  1  0
 30 32  1  0
 31 30  2  0
M  END
$$$$
