EDW.pdb
     RDKit          3D

 32 33  0  0  1  0  0  0  0  0999 V2000
   28.6644  -20.0647  -16.0086 N   0  0  0  0  0  0  0  0  0  0  0  0
   28.5986  -18.8498  -15.2417 C   0  0  1  0  0  0  0  0  0  0  0  0
   28.5728  -17.6575  -16.1733 C   0  0  0  0  0  0  0  0  0  0  0  0
   29.1465  -18.0986  -17.5104 C   0  0  0  0  0  0  0  0  0  0  0  0
   28.0450  -18.7331  -18.2728 C   0  0  0  0  0  0  0  0  0  0  0  0
   27.0050  -18.0835  -18.5550 O   0  0  0  0  0  0  0  0  0  0  0  0
   27.3817  -18.8034  -14.3934 C   0  0  0  0  0  0  0  0  0  0  0  0
   27.0382  -17.7815  -13.7525 O   0  0  0  0  0  0  0  0  0  0  0  0
   28.1200  -20.0497  -18.6972 O   0  0  0  0  0  0  0  0  0  0  0  0
   26.5759  -19.9992  -14.3192 N   0  0  0  0  0  0  0  0  0  0  0  0
   25.4061  -19.9606  -13.4986 C   0  0  1  0  0  0  0  0  0  0  0  0
   24.2178  -20.6097  -14.1606 C   0  0  0  0  0  0  0  0  0  0  0  0
   23.5934  -19.7217  -15.1514 C   0  0  0  0  0  0  0  0  0  0  0  0
   24.1263  -19.4463  -16.2452 O   0  0  0  0  0  0  0  0  0  0  0  0
   25.6913  -20.6633  -12.2023 C   0  0  0  0  0  0  0  0  0  0  0  0
   26.2410  -21.7994  -12.2763 O   0  0  0  0  0  0  0  0  0  0  0  0
   22.3578  -19.1486  -14.8899 O   0  0  0  0  0  0  0  0  0  0  0  0
   25.3403  -20.0354  -11.0082 N   0  0  0  0  0  0  0  0  0  0  0  0
   25.4365  -20.7783   -9.7318 C   0  0  1  0  0  0  0  0  0  0  0  0
   26.6385  -20.1941   -9.0567 C   0  0  0  0  0  0  0  0  0  0  0  0
   26.7670  -20.5290   -7.6266 C   0  0  0  0  0  0  0  0  0  0  0  0
   25.9785  -21.4540   -6.9146 C   0  0  0  0  0  0  0  0  0  0  0  0
   26.3548  -21.4713   -5.6414 N   0  0  0  0  0  0  0  0  0  0  0  0
   27.3692  -20.6030   -5.4302 C   0  0  0  0  0  0  0  0  0  0  0  0
   28.1018  -20.2719   -4.3104 C   0  0  0  0  0  0  0  0  0  0  0  0
   29.1061  -19.3320   -4.4664 C   0  0  0  0  0  0  0  0  0  0  0  0
   29.3671  -18.7472   -5.6913 C   0  0  0  0  0  0  0  0  0  0  0  0
   28.6340  -19.0852   -6.7848 C   0  0  0  0  0  0  0  0  0  0  0  0
   27.6223  -20.0180   -6.6730 C   0  0  0  0  0  0  0  0  0  0  0  0
   24.1458  -20.5919   -9.0636 C   0  0  0  0  0  0  0  0  0  0  0  0
   23.3884  -19.6227   -9.3146 O   0  0  0  0  0  0  0  0  0  0  0  0
   23.6482  -21.4798   -8.0888 O   0  0  0  0  0  0  0  0  0  0  0  0
  2  1  1  6
  2  3  1  0
  3  4  1  0
  4  5  1  0
  5  9  1  0
  5  6  2  0
  7  2  1  0
  8  7  2  0
 10  7  1  0
 11 10  1  0
 11 12  1  6
 13 12  1  0
 14 13  2  0
 15 11  1  0
 15 18  1  0
 16 15  2  0
 17 13  1  0
 19 30  1  0
 19 18  1  0
 19 20  1  1
 21 20  1  0
 21 22  2  0
 23 22  1  0
 24 23  1  0
 25 24  2  0
 26 25  1  0
 27 26  2  0
 27 28  1  0
 28 29  2  0
 29 24  1  0
 29 21  1  0
 30 32  1  0
 31 30  2  0
M  END
$$$$
