EDW.pdb
     RDKit          3D

 32 33  0  0  1  0  0  0  0  0999 V2000
   27.4221  -22.6422  -17.3201 N   0  0  0  0  0  0  0  0  0  0  0  0
   28.7226  -22.3943  -16.7581 C   0  0  1  0  0  0  0  0  0  0  0  0
   29.6114  -21.7407  -17.7940 C   0  0  0  0  0  0  0  0  0  0  0  0
   29.0331  -22.0497  -19.1656 C   0  0  0  0  0  0  0  0  0  0  0  0
   29.7524  -21.2021  -20.1463 C   0  0  0  0  0  0  0  0  0  0  0  0
   30.6765  -20.4344  -19.7723 O   0  0  0  0  0  0  0  0  0  0  0  0
   28.6469  -21.4975  -15.5780 C   0  0  0  0  0  0  0  0  0  0  0  0
   29.6624  -21.1090  -14.9529 O   0  0  0  0  0  0  0  0  0  0  0  0
   29.4364  -21.2246  -21.4949 O   0  0  0  0  0  0  0  0  0  0  0  0
   27.3360  -21.0681  -15.1512 N   0  0  0  0  0  0  0  0  0  0  0  0
   27.2551  -20.2427  -13.9869 C   0  0  1  0  0  0  0  0  0  0  0  0
   26.5267  -18.9494  -14.2486 C   0  0  0  0  0  0  0  0  0  0  0  0
   27.3086  -18.0471  -15.1056 C   0  0  0  0  0  0  0  0  0  0  0  0
   28.4672  -17.6802  -14.8239 O   0  0  0  0  0  0  0  0  0  0  0  0
   26.5450  -20.9955  -12.8986 C   0  0  0  0  0  0  0  0  0  0  0  0
   25.4899  -21.6113  -13.2236 O   0  0  0  0  0  0  0  0  0  0  0  0
   26.7638  -17.5644  -16.2862 O   0  0  0  0  0  0  0  0  0  0  0  0
   27.0787  -20.9745  -11.6110 N   0  0  0  0  0  0  0  0  0  0  0  0
   26.4058  -21.7212  -10.5247 C   0  0  1  0  0  0  0  0  0  0  0  0
   27.4626  -21.8744   -9.4751 C   0  0  0  0  0  0  0  0  0  0  0  0
   27.3921  -20.8900   -8.3799 C   0  0  0  0  0  0  0  0  0  0  0  0
   26.4926  -19.8098   -8.2886 C   0  0  0  0  0  0  0  0  0  0  0  0
   26.7421  -19.1159   -7.1844 N   0  0  0  0  0  0  0  0  0  0  0  0
   27.7727  -19.6603   -6.4996 C   0  0  0  0  0  0  0  0  0  0  0  0
   28.3888  -19.3277   -5.3121 C   0  0  0  0  0  0  0  0  0  0  0  0
   29.4269  -20.1399   -4.8887 C   0  0  0  0  0  0  0  0  0  0  0  0
   29.8323  -21.2390   -5.6221 C   0  0  0  0  0  0  0  0  0  0  0  0
   29.2137  -21.5516   -6.7914 C   0  0  0  0  0  0  0  0  0  0  0  0
   28.1741  -20.7675   -7.2505 C   0  0  0  0  0  0  0  0  0  0  0  0
   25.2269  -20.9281  -10.1665 C   0  0  0  0  0  0  0  0  0  0  0  0
   24.2821  -21.3924   -9.4824 O   0  0  0  0  0  0  0  0  0  0  0  0
   25.0549  -19.5849  -10.5570 O   0  0  0  0  0  0  0  0  0  0  0  0
  2  1  1  6
  2  3  1  0
  3  4  1  0
  4  5  1  0
  5  9  1  0
  5  6  2  0
  7  2  1  0
  8  7  2  0
 10  7  1  0
 11 10  1  0
 11 12  1  6
 13 12  1  0
 14 13  2  0
 15 11  1  0
 15 18  1  0
 16 15  2  0
 17 13  1  0
 19 30  1  0
 19 18  1  0
 19 20  1  1
 21 20  1  0
 21 22  2  0
 23 22  1  0
 24 23  1  0
 25 24  2  0
 26 25  1  0
 27 26  2  0
 27 28  1  0
 28 29  2  0
 29 24  1  0
 29 21  1  0
 30 32  1  0
 31 30  2  0
M  END
$$$$
