EDW.pdb
     RDKit          3D

 32 33  0  0  1  0  0  0  0  0999 V2000
   29.1092  -19.4113  -15.2219 N   0  0  0  0  0  0  0  0  0  0  0  0
   28.4535  -18.3814  -14.4617 C   0  0  1  0  0  0  0  0  0  0  0  0
   27.9420  -17.3046  -15.3939 C   0  0  0  0  0  0  0  0  0  0  0  0
   27.3376  -17.9893  -16.6094 C   0  0  0  0  0  0  0  0  0  0  0  0
   26.8342  -16.9237  -17.5084 C   0  0  0  0  0  0  0  0  0  0  0  0
   27.6190  -16.0604  -17.9798 O   0  0  0  0  0  0  0  0  0  0  0  0
   27.3019  -18.9170  -13.6939 C   0  0  0  0  0  0  0  0  0  0  0  0
   26.4707  -18.1799  -13.1119 O   0  0  0  0  0  0  0  0  0  0  0  0
   25.4963  -16.8407  -17.8580 O   0  0  0  0  0  0  0  0  0  0  0  0
   27.1546  -20.3520  -13.6291 N   0  0  0  0  0  0  0  0  0  0  0  0
   25.9922  -20.8704  -12.9784 C   0  0  1  0  0  0  0  0  0  0  0  0
   25.5071  -22.1530  -13.6042 C   0  0  0  0  0  0  0  0  0  0  0  0
   25.0235  -21.9415  -14.9758 C   0  0  0  0  0  0  0  0  0  0  0  0
   24.3966  -20.9205  -15.3232 O   0  0  0  0  0  0  0  0  0  0  0  0
   26.3078  -21.1181  -11.5312 C   0  0  0  0  0  0  0  0  0  0  0  0
   27.3757  -21.7455  -11.2778 O   0  0  0  0  0  0  0  0  0  0  0  0
   25.2579  -22.8997  -15.9508 O   0  0  0  0  0  0  0  0  0  0  0  0
   25.4211  -20.6507  -10.5624 N   0  0  0  0  0  0  0  0  0  0  0  0
   25.5651  -21.0967   -9.1585 C   0  0  1  0  0  0  0  0  0  0  0  0
   26.6653  -20.2404   -8.6124 C   0  0  0  0  0  0  0  0  0  0  0  0
   26.9078  -20.3950   -7.1663 C   0  0  0  0  0  0  0  0  0  0  0  0
   26.1877  -21.2263   -6.2861 C   0  0  0  0  0  0  0  0  0  0  0  0
   26.6615  -21.0847   -5.0538 N   0  0  0  0  0  0  0  0  0  0  0  0
   27.6787  -20.1946   -5.0314 C   0  0  0  0  0  0  0  0  0  0  0  0
   28.4916  -19.7255   -4.0217 C   0  0  0  0  0  0  0  0  0  0  0  0
   29.4695  -18.8099   -4.3706 C   0  0  0  0  0  0  0  0  0  0  0  0
   29.6282  -18.3810   -5.6749 C   0  0  0  0  0  0  0  0  0  0  0  0
   28.8169  -18.8537   -6.6577 C   0  0  0  0  0  0  0  0  0  0  0  0
   27.8280  -19.7677   -6.3529 C   0  0  0  0  0  0  0  0  0  0  0  0
   24.2405  -20.9396   -8.5522 C   0  0  0  0  0  0  0  0  0  0  0  0
   23.9110  -21.5189   -7.4883 O   0  0  0  0  0  0  0  0  0  0  0  0
   23.2304  -20.1293   -9.1084 O   0  0  0  0  0  0  0  0  0  0  0  0
  2  1  1  6
  2  3  1  0
  3  4  1  0
  4  5  1  0
  5  9  1  0
  5  6  2  0
  7  2  1  0
  8  7  2  0
 10  7  1  0
 11 10  1  0
 11 12  1  6
 13 12  1  0
 14 13  2  0
 15 11  1  0
 15 18  1  0
 16 15  2  0
 17 13  1  0
 19 30  1  0
 19 18  1  0
 19 20  1  1
 21 20  1  0
 21 22  2  0
 23 22  1  0
 24 23  1  0
 25 24  2  0
 26 25  1  0
 27 26  2  0
 27 28  1  0
 28 29  2  0
 29 24  1  0
 29 21  1  0
 30 32  1  0
 31 30  2  0
M  END
$$$$
