EDW.pdb
     RDKit          3D

 32 33  0  0  1  0  0  0  0  0999 V2000
   15.0693  -22.8621    2.5955 N   0  0  0  0  0  0  0  0  0  0  0  0
   15.7523  -22.8828    3.8611 C   0  0  1  0  0  0  0  0  0  0  0  0
   17.2324  -23.1080    3.6400 C   0  0  0  0  0  0  0  0  0  0  0  0
   17.4125  -24.5131    3.0882 C   0  0  0  0  0  0  0  0  0  0  0  0
   17.6874  -25.4050    4.2398 C   0  0  0  0  0  0  0  0  0  0  0  0
   17.6372  -26.6553    4.1073 O   0  0  0  0  0  0  0  0  0  0  0  0
   15.5812  -21.6051    4.5963 C   0  0  0  0  0  0  0  0  0  0  0  0
   15.1933  -20.5487    4.0426 O   0  0  0  0  0  0  0  0  0  0  0  0
   18.0059  -24.8997    5.4897 O   0  0  0  0  0  0  0  0  0  0  0  0
   15.8809  -21.6043    6.0087 N   0  0  0  0  0  0  0  0  0  0  0  0
   15.6080  -20.4092    6.7438 C   0  0  1  0  0  0  0  0  0  0  0  0
   15.6345  -20.6323    8.2342 C   0  0  0  0  0  0  0  0  0  0  0  0
   14.5578  -21.5327    8.6699 C   0  0  0  0  0  0  0  0  0  0  0  0
   13.4191  -21.5231    8.1606 O   0  0  0  0  0  0  0  0  0  0  0  0
   16.6278  -19.3669    6.3845 C   0  0  0  0  0  0  0  0  0  0  0  0
   17.7805  -19.7792    6.0691 O   0  0  0  0  0  0  0  0  0  0  0  0
   14.7849  -22.4452    9.6895 O   0  0  0  0  0  0  0  0  0  0  0  0
   16.2543  -18.0243    6.4178 N   0  0  0  0  0  0  0  0  0  0  0  0
   17.2362  -16.9794    6.0509 C   0  0  1  0  0  0  0  0  0  0  0  0
   16.5194  -16.1413    5.0382 C   0  0  0  0  0  0  0  0  0  0  0  0
   17.3947  -15.4810    4.0525 C   0  0  0  0  0  0  0  0  0  0  0  0
   17.7931  -16.0083    2.8085 C   0  0  0  0  0  0  0  0  0  0  0  0
   18.6079  -15.1522    2.2035 N   0  0  0  0  0  0  0  0  0  0  0  0
   18.7972  -14.0516    2.9652 C   0  0  0  0  0  0  0  0  0  0  0  0
   19.5259  -12.8964    2.7786 C   0  0  0  0  0  0  0  0  0  0  0  0
   19.4740  -11.9461    3.7839 C   0  0  0  0  0  0  0  0  0  0  0  0
   18.7245  -12.1425    4.9285 C   0  0  0  0  0  0  0  0  0  0  0  0
   18.0125  -13.2882    5.0960 C   0  0  0  0  0  0  0  0  0  0  0  0
   18.0372  -14.2624    4.1180 C   0  0  0  0  0  0  0  0  0  0  0  0
   17.6099  -16.3246    7.3073 C   0  0  0  0  0  0  0  0  0  0  0  0
   16.9428  -16.4561    8.3627 O   0  0  0  0  0  0  0  0  0  0  0  0
   18.7433  -15.4971    7.4368 O   0  0  0  0  0  0  0  0  0  0  0  0
  2  1  1  6
  2  3  1  0
  3  4  1  0
  4  5  1  0
  5  9  1  0
  5  6  2  0
  7  2  1  0
  8  7  2  0
 10  7  1  0
 11 10  1  0
 11 12  1  1
 13 12  1  0
 14 13  2  0
 15 11  1  0
 15 18  1  0
 16 15  2  0
 17 13  1  0
 19 30  1  0
 19 18  1  0
 19 20  1  6
 21 20  1  0
 21 22  2  0
 23 22  1  0
 24 23  1  0
 25 24  2  0
 26 25  1  0
 27 26  2  0
 27 28  1  0
 28 29  2  0
 29 24  1  0
 29 21  1  0
 30 32  1  0
 31 30  2  0
M  END
$$$$
