EDW.pdb
     RDKit          3D

 32 33  0  0  1  0  0  0  0  0999 V2000
   28.5893  -19.5325  -17.9736 N   0  0  0  0  0  0  0  0  0  0  0  0
   28.9801  -18.6745  -16.8874 C   0  0  1  0  0  0  0  0  0  0  0  0
   29.4224  -17.3325  -17.4292 C   0  0  0  0  0  0  0  0  0  0  0  0
   29.3682  -17.4023  -18.9470 C   0  0  0  0  0  0  0  0  0  0  0  0
   30.6856  -17.8990  -19.4108 C   0  0  0  0  0  0  0  0  0  0  0  0
   31.7109  -17.1754  -19.3190 O   0  0  0  0  0  0  0  0  0  0  0  0
   27.8609  -18.4473  -15.9396 C   0  0  0  0  0  0  0  0  0  0  0  0
   27.9389  -17.6512  -14.9736 O   0  0  0  0  0  0  0  0  0  0  0  0
   30.8337  -19.1639  -19.9560 O   0  0  0  0  0  0  0  0  0  0  0  0
   26.6406  -19.1868  -16.1607 N   0  0  0  0  0  0  0  0  0  0  0  0
   25.5855  -19.0247  -15.2101 C   0  0  1  0  0  0  0  0  0  0  0  0
   24.2979  -18.5749  -15.8515 C   0  0  0  0  0  0  0  0  0  0  0  0
   23.2111  -18.4584  -14.8690 C   0  0  0  0  0  0  0  0  0  0  0  0
   23.1368  -17.5213  -14.0490 O   0  0  0  0  0  0  0  0  0  0  0  0
   25.3538  -20.3304  -14.5051 C   0  0  0  0  0  0  0  0  0  0  0  0
   25.0648  -21.3270  -15.2271 O   0  0  0  0  0  0  0  0  0  0  0  0
   22.2083  -19.4155  -14.8254 O   0  0  0  0  0  0  0  0  0  0  0  0
   25.4678  -20.3716  -13.1163 N   0  0  0  0  0  0  0  0  0  0  0  0
   25.2805  -21.6541  -12.4017 C   0  0  1  0  0  0  0  0  0  0  0  0
   26.4437  -21.7238  -11.4615 C   0  0  0  0  0  0  0  0  0  0  0  0
   26.2899  -20.9287  -10.2295 C   0  0  0  0  0  0  0  0  0  0  0  0
   25.1001  -20.3337   -9.7661 C   0  0  0  0  0  0  0  0  0  0  0  0
   25.3441  -19.6679   -8.6437 N   0  0  0  0  0  0  0  0  0  0  0  0
   26.6476  -19.7698   -8.3003 C   0  0  0  0  0  0  0  0  0  0  0  0
   27.3779  -19.2822   -7.2377 C   0  0  0  0  0  0  0  0  0  0  0  0
   28.7228  -19.6076   -7.1918 C   0  0  0  0  0  0  0  0  0  0  0  0
   29.3130  -20.3880   -8.1679 C   0  0  0  0  0  0  0  0  0  0  0  0
   28.5776  -20.8596   -9.2092 C   0  0  0  0  0  0  0  0  0  0  0  0
   27.2329  -20.5582   -9.2937 C   0  0  0  0  0  0  0  0  0  0  0  0
   23.9462  -21.5844  -11.8004 C   0  0  0  0  0  0  0  0  0  0  0  0
   23.3557  -20.4967  -11.5894 O   0  0  0  0  0  0  0  0  0  0  0  0
   23.2168  -22.7255  -11.4105 O   0  0  0  0  0  0  0  0  0  0  0  0
  2  1  1  6
  2  3  1  0
  3  4  1  0
  4  5  1  0
  5  9  1  0
  5  6  2  0
  7  2  1  0
  8  7  2  0
 10  7  1  0
 11 10  1  0
 11 12  1  6
 13 12  1  0
 14 13  2  0
 15 11  1  0
 15 18  1  0
 16 15  2  0
 17 13  1  0
 19 30  1  0
 19 18  1  0
 19 20  1  1
 21 20  1  0
 21 22  2  0
 23 22  1  0
 24 23  1  0
 25 24  2  0
 26 25  1  0
 27 26  2  0
 27 28  1  0
 28 29  2  0
 29 24  1  0
 29 21  1  0
 30 32  1  0
 31 30  2  0
M  END
$$$$
