EDW.pdb
     RDKit          3D

 32 33  0  0  1  0  0  0  0  0999 V2000
   25.8084  -17.0763  -15.9154 N   0  0  0  0  0  0  0  0  0  0  0  0
   26.7993  -17.5722  -14.9984 C   0  0  1  0  0  0  0  0  0  0  0  0
   27.1389  -16.5018  -13.9841 C   0  0  0  0  0  0  0  0  0  0  0  0
   26.3207  -15.2652  -14.3202 C   0  0  0  0  0  0  0  0  0  0  0  0
   26.6015  -14.9243  -15.7352 C   0  0  0  0  0  0  0  0  0  0  0  0
   27.4535  -15.5756  -16.3934 O   0  0  0  0  0  0  0  0  0  0  0  0
   26.3169  -18.7698  -14.2666 C   0  0  0  0  0  0  0  0  0  0  0  0
   25.1001  -19.0505  -14.1491 O   0  0  0  0  0  0  0  0  0  0  0  0
   25.9433  -13.8879  -16.3767 O   0  0  0  0  0  0  0  0  0  0  0  0
   27.3109  -19.6327  -13.6732 N   0  0  0  0  0  0  0  0  0  0  0  0
   26.8696  -20.8823  -13.1376 C   0  0  1  0  0  0  0  0  0  0  0  0
   27.6864  -22.0445  -13.6416 C   0  0  0  0  0  0  0  0  0  0  0  0
   27.6011  -22.1777  -15.1027 C   0  0  0  0  0  0  0  0  0  0  0  0
   28.5536  -21.9138  -15.8638 O   0  0  0  0  0  0  0  0  0  0  0  0
   26.9567  -20.8333  -11.6391 C   0  0  0  0  0  0  0  0  0  0  0  0
   28.0903  -20.5806  -11.1398 O   0  0  0  0  0  0  0  0  0  0  0  0
   26.4243  -22.6137  -15.6932 O   0  0  0  0  0  0  0  0  0  0  0  0
   25.8023  -21.0654  -10.8927 N   0  0  0  0  0  0  0  0  0  0  0  0
   25.8665  -21.0417   -9.4143 C   0  0  1  0  0  0  0  0  0  0  0  0
   26.7523  -19.8752   -9.1039 C   0  0  0  0  0  0  0  0  0  0  0  0
   27.8445  -20.1644   -8.1566 C   0  0  0  0  0  0  0  0  0  0  0  0
   28.9812  -20.9557   -8.4137 C   0  0  0  0  0  0  0  0  0  0  0  0
   29.7320  -21.0231   -7.3207 N   0  0  0  0  0  0  0  0  0  0  0  0
   29.1743  -20.3160   -6.3125 C   0  0  0  0  0  0  0  0  0  0  0  0
   29.5643  -20.0683   -5.0137 C   0  0  0  0  0  0  0  0  0  0  0  0
   28.7388  -19.2631   -4.2478 C   0  0  0  0  0  0  0  0  0  0  0  0
   27.5717  -18.7277   -4.7591 C   0  0  0  0  0  0  0  0  0  0  0  0
   27.2023  -18.9832   -6.0420 C   0  0  0  0  0  0  0  0  0  0  0  0
   27.9966  -19.7821   -6.8403 C   0  0  0  0  0  0  0  0  0  0  0  0
   24.4772  -20.9586   -8.9561 C   0  0  0  0  0  0  0  0  0  0  0  0
   23.5634  -20.4572   -9.6559 O   0  0  0  0  0  0  0  0  0  0  0  0
   24.0515  -21.4319   -7.6987 O   0  0  0  0  0  0  0  0  0  0  0  0
  2  1  1  6
  2  3  1  0
  3  4  1  0
  4  5  1  0
  5  9  1  0
  5  6  2  0
  7  2  1  0
  8  7  2  0
 10  7  1  0
 11 10  1  0
 11 12  1  6
 13 12  1  0
 14 13  2  0
 15 11  1  0
 15 18  1  0
 16 15  2  0
 17 13  1  0
 19 30  1  0
 19 18  1  0
 19 20  1  6
 21 20  1  0
 21 22  2  0
 23 22  1  0
 24 23  1  0
 25 24  2  0
 26 25  1  0
 27 26  2  0
 27 28  1  0
 28 29  2  0
 29 24  1  0
 29 21  1  0
 30 32  1  0
 31 30  2  0
M  END
$$$$
