EDW.pdb
     RDKit          3D

 32 33  0  0  1  0  0  0  0  0999 V2000
   21.2243  -20.0914  -16.9971 N   0  0  0  0  0  0  0  0  0  0  0  0
   22.5547  -19.5685  -17.1559 C   0  0  1  0  0  0  0  0  0  0  0  0
   22.6215  -18.1627  -16.5996 C   0  0  0  0  0  0  0  0  0  0  0  0
   22.1363  -17.2104  -17.6809 C   0  0  0  0  0  0  0  0  0  0  0  0
   21.5376  -16.0390  -16.9976 C   0  0  0  0  0  0  0  0  0  0  0  0
   22.2625  -15.2256  -16.3683 O   0  0  0  0  0  0  0  0  0  0  0  0
   23.5576  -20.3986  -16.4433 C   0  0  0  0  0  0  0  0  0  0  0  0
   23.2573  -21.1643  -15.4965 O   0  0  0  0  0  0  0  0  0  0  0  0
   20.1733  -15.8004  -17.0270 O   0  0  0  0  0  0  0  0  0  0  0  0
   24.9313  -20.3021  -16.8776 N   0  0  0  0  0  0  0  0  0  0  0  0
   25.9066  -21.0685  -16.1672 C   0  0  1  0  0  0  0  0  0  0  0  0
   27.1510  -21.3121  -16.9820 C   0  0  0  0  0  0  0  0  0  0  0  0
   28.0793  -22.2247  -16.2997 C   0  0  0  0  0  0  0  0  0  0  0  0
   28.5498  -21.9911  -15.1682 O   0  0  0  0  0  0  0  0  0  0  0  0
   26.2789  -20.3431  -14.9060 C   0  0  0  0  0  0  0  0  0  0  0  0
   26.4229  -19.0898  -14.9881 O   0  0  0  0  0  0  0  0  0  0  0  0
   28.4693  -23.4058  -16.9132 O   0  0  0  0  0  0  0  0  0  0  0  0
   26.4427  -21.0787  -13.7333 N   0  0  0  0  0  0  0  0  0  0  0  0
   26.9567  -20.4139  -12.5149 C   0  0  1  0  0  0  0  0  0  0  0  0
   25.8839  -19.4350  -12.1505 C   0  0  0  0  0  0  0  0  0  0  0  0
   24.8172  -19.9799  -11.2910 C   0  0  0  0  0  0  0  0  0  0  0  0
   24.9276  -20.2849   -9.9201 C   0  0  0  0  0  0  0  0  0  0  0  0
   23.7793  -20.7880   -9.4830 N   0  0  0  0  0  0  0  0  0  0  0  0
   22.8716  -20.8485  -10.4830 C   0  0  0  0  0  0  0  0  0  0  0  0
   21.5597  -21.2688  -10.5340 C   0  0  0  0  0  0  0  0  0  0  0  0
   20.9099  -21.1678  -11.7522 C   0  0  0  0  0  0  0  0  0  0  0  0
   21.5452  -20.6674  -12.8730 C   0  0  0  0  0  0  0  0  0  0  0  0
   22.8396  -20.2583  -12.8045 C   0  0  0  0  0  0  0  0  0  0  0  0
   23.5251  -20.3425  -11.6090 C   0  0  0  0  0  0  0  0  0  0  0  0
   27.2250  -21.4894  -11.5567 C   0  0  0  0  0  0  0  0  0  0  0  0
   26.8307  -22.6679  -11.7353 O   0  0  0  0  0  0  0  0  0  0  0  0
   27.9445  -21.2934  -10.3608 O   0  0  0  0  0  0  0  0  0  0  0  0
  2  1  1  1
  2  3  1  0
  3  4  1  0
  4  5  1  0
  5  9  1  0
  5  6  2  0
  7  2  1  0
  8  7  2  0
 10  7  1  0
 11 10  1  0
 11 12  1  6
 13 12  1  0
 14 13  2  0
 15 11  1  0
 15 18  1  0
 16 15  2  0
 17 13  1  0
 19 30  1  0
 19 18  1  0
 19 20  1  1
 21 20  1  0
 21 22  2  0
 23 22  1  0
 24 23  1  0
 25 24  2  0
 26 25  1  0
 27 26  2  0
 27 28  1  0
 28 29  2  0
 29 24  1  0
 29 21  1  0
 30 32  1  0
 31 30  2  0
M  END
$$$$
