GMD.pdb
     RDKit          3D

 21 20  0  0  1  0  0  0  0  0999 V2000
   21.6661  -12.6553  -18.5306 N   0  0  0  0  0  0  0  0  0  0  0  0
   21.1997  -11.3265  -18.2874 C   0  0  0  0  0  0  0  0  0  0  0  0
   21.7254  -10.7606  -17.0178 C   0  0  0  0  0  0  0  0  0  0  0  0
   21.0172  -10.8579  -15.9794 O   0  0  0  0  0  0  0  0  0  0  0  0
   27.6671  -13.1300  -15.2676 C   0  0  0  0  0  0  0  0  0  0  0  0
   27.1643  -11.4103  -15.5231 S   0  0  0  0  0  0  0  0  0  0  0  0
   25.3630  -11.2199  -15.4599 C   0  0  0  0  0  0  0  0  0  0  0  0
   25.0482   -9.7558  -15.7082 C   0  0  0  0  0  0  0  0  0  0  0  0
   23.5320   -9.5444  -15.7799 C   0  0  2  0  0  0  0  0  0  0  0  0
   22.9944  -10.1295  -16.9913 N   0  0  0  0  0  0  0  0  0  0  0  0
   23.3195   -8.0661  -15.7578 C   0  0  0  0  0  0  0  0  0  0  0  0
   23.8856   -7.3883  -16.6482 O   0  0  0  0  0  0  0  0  0  0  0  0
   22.5301   -7.4112  -14.8044 N   0  0  0  0  0  0  0  0  0  0  0  0
   22.3672   -5.9785  -14.8804 C   0  0  1  0  0  0  0  0  0  0  0  0
   21.2184   -5.6016  -15.7514 C   0  0  0  0  0  0  0  0  0  0  0  0
   19.9529   -6.1113  -15.1934 C   0  0  0  0  0  0  0  0  0  0  0  0
   19.4932   -7.1948  -15.6948 O   0  0  0  0  0  0  0  0  0  0  0  0
   22.1864   -5.5037  -13.4722 C   0  0  0  0  0  0  0  0  0  0  0  0
   22.1871   -4.2956  -13.1349 O   0  0  0  0  0  0  0  0  0  0  0  0
   19.2078   -5.5531  -14.1932 O   0  0  0  0  0  0  0  0  0  0  0  0
   22.0070   -6.4500  -12.4777 O   0  0  0  0  0  0  0  0  0  0  0  0
  2  1  1  0
  3  2  1  0
  4  3  2  0
  6  7  1  0
  6  5  1  0
  7  8  1  0
  9  8  1  6
  9 11  1  0
  9 10  1  0
 10  3  1  0
 11 13  1  0
 12 11  2  0
 13 14  1  0
 14 15  1  6
 14 18  1  0
 16 17  2  0
 16 15  1  0
 18 19  2  0
 18 21  1  0
 20 16  1  0
M  END
$$$$
