GMD.pdb
     RDKit          3D

 21 20  0  0  1  0  0  0  0  0999 V2000
   25.9325  -25.4453  -11.0012 N   0  0  0  0  0  0  0  0  0  0  0  0
   24.6513  -24.8131  -11.0346 C   0  0  0  0  0  0  0  0  0  0  0  0
   24.7432  -23.3495  -11.2747 C   0  0  0  0  0  0  0  0  0  0  0  0
   23.6764  -22.6781  -11.3012 O   0  0  0  0  0  0  0  0  0  0  0  0
   27.1947  -19.7087   -8.5544 C   0  0  0  0  0  0  0  0  0  0  0  0
   26.9044  -18.6907  -10.0223 S   0  0  0  0  0  0  0  0  0  0  0  0
   27.7299  -19.3703  -11.4859 C   0  0  0  0  0  0  0  0  0  0  0  0
   27.6067  -20.8819  -11.4207 C   0  0  0  0  0  0  0  0  0  0  0  0
   26.1472  -21.3039  -11.6212 C   0  0  2  0  0  0  0  0  0  0  0  0
   26.0072  -22.7376  -11.4675 N   0  0  0  0  0  0  0  0  0  0  0  0
   25.7789  -20.8738  -13.0034 C   0  0  0  0  0  0  0  0  0  0  0  0
   26.3569  -21.4448  -13.9586 O   0  0  0  0  0  0  0  0  0  0  0  0
   24.8332  -19.8783  -13.2788 N   0  0  0  0  0  0  0  0  0  0  0  0
   24.1397  -19.8886  -14.5452 C   0  0  1  0  0  0  0  0  0  0  0  0
   22.7553  -19.3523  -14.4178 C   0  0  0  0  0  0  0  0  0  0  0  0
   22.0830  -19.3296  -15.7294 C   0  0  0  0  0  0  0  0  0  0  0  0
   22.7847  -19.6627  -16.7460 O   0  0  0  0  0  0  0  0  0  0  0  0
   24.9748  -19.0757  -15.4849 C   0  0  0  0  0  0  0  0  0  0  0  0
   25.7903  -18.1970  -15.1159 O   0  0  0  0  0  0  0  0  0  0  0  0
   20.7846  -18.9898  -15.9856 O   0  0  0  0  0  0  0  0  0  0  0  0
   24.8436  -19.3026  -16.8444 O   0  0  0  0  0  0  0  0  0  0  0  0
  2  1  1  0
  3  2  1  0
  4  3  2  0
  6  7  1  0
  6  5  1  0
  7  8  1  0
  9  8  1  6
  9 11  1  0
  9 10  1  0
 10  3  1  0
 11 13  1  0
 12 11  2  0
 13 14  1  0
 14 15  1  1
 14 18  1  0
 16 17  2  0
 16 15  1  0
 18 19  2  0
 18 21  1  0
 20 16  1  0
M  END
$$$$
