GMD.pdb
     RDKit          3D

 21 20  0  0  1  0  0  0  0  0999 V2000
   22.6985  -13.2060  -19.6678 N   0  0  0  0  0  0  0  0  0  0  0  0
   22.4388  -11.8008  -19.6519 C   0  0  0  0  0  0  0  0  0  0  0  0
   22.4619  -11.2316  -18.2794 C   0  0  0  0  0  0  0  0  0  0  0  0
   21.6824  -11.7174  -17.4157 O   0  0  0  0  0  0  0  0  0  0  0  0
   27.9262  -12.0918  -14.7895 C   0  0  0  0  0  0  0  0  0  0  0  0
   27.1687  -10.5581  -15.3805 S   0  0  0  0  0  0  0  0  0  0  0  0
   25.4425  -10.8073  -15.8739 C   0  0  0  0  0  0  0  0  0  0  0  0
   24.8498   -9.4420  -16.1724 C   0  0  0  0  0  0  0  0  0  0  0  0
   23.3972   -9.5853  -16.6392 C   0  0  2  0  0  0  0  0  0  0  0  0
   23.3447  -10.1683  -17.9644 N   0  0  0  0  0  0  0  0  0  0  0  0
   22.8244   -8.2059  -16.6366 C   0  0  0  0  0  0  0  0  0  0  0  0
   23.1243   -7.4547  -17.5949 O   0  0  0  0  0  0  0  0  0  0  0  0
   21.9813   -7.7191  -15.6300 N   0  0  0  0  0  0  0  0  0  0  0  0
   21.4537   -6.3789  -15.7321 C   0  0  1  0  0  0  0  0  0  0  0  0
   20.0748   -6.2873  -15.1745 C   0  0  0  0  0  0  0  0  0  0  0  0
   19.5836   -4.8986  -15.2260 C   0  0  0  0  0  0  0  0  0  0  0  0
   19.5144   -4.3508  -16.3801 O   0  0  0  0  0  0  0  0  0  0  0  0
   22.4165   -5.4946  -15.0027 C   0  0  0  0  0  0  0  0  0  0  0  0
   22.5242   -4.2611  -15.2030 O   0  0  0  0  0  0  0  0  0  0  0  0
   19.1909   -4.1223  -14.1723 O   0  0  0  0  0  0  0  0  0  0  0  0
   23.2403   -6.0666  -14.0482 O   0  0  0  0  0  0  0  0  0  0  0  0
  2  1  1  0
  3  2  1  0
  4  3  2  0
  6  7  1  0
  6  5  1  0
  7  8  1  0
  9  8  1  6
  9 11  1  0
  9 10  1  0
 10  3  1  0
 11 13  1  0
 12 11  2  0
 13 14  1  0
 14 15  1  1
 14 18  1  0
 16 17  2  0
 16 15  1  0
 18 19  2  0
 18 21  1  0
 20 16  1  0
M  END
$$$$
