GMD.pdb
     RDKit          3D

 21 20  0  0  1  0  0  0  0  0999 V2000
   22.1708  -11.1175  -18.7429 N   0  0  0  0  0  0  0  0  0  0  0  0
   22.1828   -9.6903  -18.6687 C   0  0  0  0  0  0  0  0  0  0  0  0
   21.4905   -9.1759  -17.4586 C   0  0  0  0  0  0  0  0  0  0  0  0
   20.2711   -9.4548  -17.3014 O   0  0  0  0  0  0  0  0  0  0  0  0
   21.8003   -9.3012  -10.9517 C   0  0  0  0  0  0  0  0  0  0  0  0
   22.6391  -10.3096  -12.1987 S   0  0  0  0  0  0  0  0  0  0  0  0
   22.1039   -9.8856  -13.8776 C   0  0  0  0  0  0  0  0  0  0  0  0
   22.3242   -8.3954  -14.0659 C   0  0  0  0  0  0  0  0  0  0  0  0
   21.5689   -7.9003  -15.3040 C   0  0  2  0  0  0  0  0  0  0  0  0
   22.1979   -8.3918  -16.5130 N   0  0  0  0  0  0  0  0  0  0  0  0
   21.6120   -6.4084  -15.2451 C   0  0  0  0  0  0  0  0  0  0  0  0
   22.6682   -5.8463  -15.6209 O   0  0  0  0  0  0  0  0  0  0  0  0
   20.5452   -5.6197  -14.7967 N   0  0  0  0  0  0  0  0  0  0  0  0
   20.6487   -4.1810  -14.8633 C   0  0  1  0  0  0  0  0  0  0  0  0
   19.3197   -3.5266  -14.7022 C   0  0  0  0  0  0  0  0  0  0  0  0
   19.4335   -2.0673  -14.8759 C   0  0  0  0  0  0  0  0  0  0  0  0
   20.5731   -1.6142  -15.2404 O   0  0  0  0  0  0  0  0  0  0  0  0
   21.6080   -3.7813  -13.7859 C   0  0  0  0  0  0  0  0  0  0  0  0
   22.2311   -2.6927  -13.7714 O   0  0  0  0  0  0  0  0  0  0  0  0
   18.4521   -1.1350  -14.6898 O   0  0  0  0  0  0  0  0  0  0  0  0
   21.8250   -4.6616  -12.7395 O   0  0  0  0  0  0  0  0  0  0  0  0
  2  1  1  0
  3  2  1  0
  4  3  2  0
  6  7  1  0
  6  5  1  0
  7  8  1  0
  9  8  1  1
  9 11  1  0
  9 10  1  0
 10  3  1  0
 11 13  1  0
 12 11  2  0
 13 14  1  0
 14 15  1  1
 14 18  1  0
 16 17  2  0
 16 15  1  0
 18 19  2  0
 18 21  1  0
 20 16  1  0
M  END
$$$$
