GMD.pdb
     RDKit          3D

 21 20  0  0  1  0  0  0  0  0999 V2000
   28.3373  -21.7635  -16.4228 N   0  0  0  0  0  0  0  0  0  0  0  0
   27.7104  -20.7054  -15.6950 C   0  0  0  0  0  0  0  0  0  0  0  0
   26.8233  -21.2048  -14.6124 C   0  0  0  0  0  0  0  0  0  0  0  0
   26.1746  -22.2674  -14.8111 O   0  0  0  0  0  0  0  0  0  0  0  0
   25.0489  -20.6604   -6.8946 C   0  0  0  0  0  0  0  0  0  0  0  0
   25.9936  -20.0878   -8.3281 S   0  0  0  0  0  0  0  0  0  0  0  0
   25.3660  -20.7964   -9.8737 C   0  0  0  0  0  0  0  0  0  0  0  0
   26.2110  -20.2438  -11.0073 C   0  0  0  0  0  0  0  0  0  0  0  0
   25.8325  -20.9205  -12.3292 C   0  0  2  0  0  0  0  0  0  0  0  0
   26.7197  -20.4922  -13.3913 N   0  0  0  0  0  0  0  0  0  0  0  0
   24.4227  -20.5158  -12.6116 C   0  0  0  0  0  0  0  0  0  0  0  0
   24.2223  -19.3286  -12.9623 O   0  0  0  0  0  0  0  0  0  0  0  0
   23.3308  -21.3862  -12.5049 N   0  0  0  0  0  0  0  0  0  0  0  0
   22.0280  -20.9486  -12.9479 C   0  0  1  0  0  0  0  0  0  0  0  0
   21.2614  -22.0587  -13.5807 C   0  0  0  0  0  0  0  0  0  0  0  0
   21.7446  -22.3104  -14.9503 C   0  0  0  0  0  0  0  0  0  0  0  0
   21.5410  -23.4784  -15.4311 O   0  0  0  0  0  0  0  0  0  0  0  0
   21.3362  -20.4049  -11.7367 C   0  0  0  0  0  0  0  0  0  0  0  0
   21.6032  -20.7539  -10.5619 O   0  0  0  0  0  0  0  0  0  0  0  0
   22.3916  -21.4310  -15.7719 O   0  0  0  0  0  0  0  0  0  0  0  0
   20.3410  -19.4595  -11.9175 O   0  0  0  0  0  0  0  0  0  0  0  0
  2  1  1  0
  3  2  1  0
  4  3  2  0
  6  7  1  0
  6  5  1  0
  7  8  1  0
  9  8  1  1
  9 11  1  0
  9 10  1  0
 10  3  1  0
 11 13  1  0
 12 11  2  0
 13 14  1  0
 14 15  1  1
 14 18  1  0
 16 17  2  0
 16 15  1  0
 18 19  2  0
 18 21  1  0
 20 16  1  0
M  END
$$$$
