GMD.pdb
     RDKit          3D

 21 20  0  0  1  0  0  0  0  0999 V2000
   26.3896  -25.1503  -15.9750 N   0  0  0  0  0  0  0  0  0  0  0  0
   26.2322  -23.7363  -15.8399 C   0  0  0  0  0  0  0  0  0  0  0  0
   25.2287  -23.3700  -14.8068 C   0  0  0  0  0  0  0  0  0  0  0  0
   24.4660  -24.2716  -14.3654 O   0  0  0  0  0  0  0  0  0  0  0  0
   25.9177  -20.6846   -9.5099 C   0  0  0  0  0  0  0  0  0  0  0  0
   24.2471  -21.1009  -10.0677 S   0  0  0  0  0  0  0  0  0  0  0  0
   23.7204  -20.0557  -11.4517 C   0  0  0  0  0  0  0  0  0  0  0  0
   24.6327  -20.3578  -12.6269 C   0  0  0  0  0  0  0  0  0  0  0  0
   24.1746  -21.6352  -13.3388 C   0  0  2  0  0  0  0  0  0  0  0  0
   25.1435  -22.0345  -14.3391 N   0  0  0  0  0  0  0  0  0  0  0  0
   22.8588  -21.3094  -13.9661 C   0  0  0  0  0  0  0  0  0  0  0  0
   22.8570  -20.4770  -14.9040 O   0  0  0  0  0  0  0  0  0  0  0  0
   21.6456  -21.8807  -13.5625 N   0  0  0  0  0  0  0  0  0  0  0  0
   20.4323  -21.5440  -14.2693 C   0  0  1  0  0  0  0  0  0  0  0  0
   19.5025  -22.7058  -14.3489 C   0  0  0  0  0  0  0  0  0  0  0  0
   19.9579  -23.6681  -15.3682 C   0  0  0  0  0  0  0  0  0  0  0  0
   20.9387  -23.3090  -16.1070 O   0  0  0  0  0  0  0  0  0  0  0  0
   19.8283  -20.3881  -13.5343 C   0  0  0  0  0  0  0  0  0  0  0  0
   20.1744  -20.0327  -12.3823 O   0  0  0  0  0  0  0  0  0  0  0  0
   19.4470  -24.9108  -15.6168 O   0  0  0  0  0  0  0  0  0  0  0  0
   18.8269  -19.6637  -14.1583 O   0  0  0  0  0  0  0  0  0  0  0  0
  2  1  1  0
  3  2  1  0
  4  3  2  0
  6  7  1  0
  6  5  1  0
  7  8  1  0
  9  8  1  6
  9 11  1  0
  9 10  1  0
 10  3  1  0
 11 13  1  0
 12 11  2  0
 13 14  1  0
 14 15  1  1
 14 18  1  0
 16 17  2  0
 16 15  1  0
 18 19  2  0
 18 21  1  0
 20 16  1  0
M  END
$$$$
