GMD.pdb
     RDKit          3D

 21 20  0  0  1  0  0  0  0  0999 V2000
   27.6893  -24.2906  -16.5867 N   0  0  0  0  0  0  0  0  0  0  0  0
   27.4472  -22.9268  -16.2349 C   0  0  0  0  0  0  0  0  0  0  0  0
   26.4245  -22.7860  -15.1660 C   0  0  0  0  0  0  0  0  0  0  0  0
   25.6771  -23.7706  -14.9178 O   0  0  0  0  0  0  0  0  0  0  0  0
   24.2268  -21.2371   -8.6084 C   0  0  0  0  0  0  0  0  0  0  0  0
   25.3855  -21.1353   -9.9949 S   0  0  0  0  0  0  0  0  0  0  0  0
   24.7398  -20.1013  -11.3362 C   0  0  0  0  0  0  0  0  0  0  0  0
   25.7054  -20.2085  -12.5027 C   0  0  0  0  0  0  0  0  0  0  0  0
   25.3249  -21.3920  -13.3987 C   0  0  2  0  0  0  0  0  0  0  0  0
   26.3045  -21.5676  -14.4515 N   0  0  0  0  0  0  0  0  0  0  0  0
   23.9814  -21.0665  -13.9646 C   0  0  0  0  0  0  0  0  0  0  0  0
   23.9101  -20.1031  -14.7643 O   0  0  0  0  0  0  0  0  0  0  0  0
   22.8156  -21.7754  -13.6493 N   0  0  0  0  0  0  0  0  0  0  0  0
   21.5696  -21.4101  -14.2811 C   0  0  1  0  0  0  0  0  0  0  0  0
   20.6403  -22.5711  -14.3750 C   0  0  0  0  0  0  0  0  0  0  0  0
   21.1824  -23.6000  -15.2805 C   0  0  0  0  0  0  0  0  0  0  0  0
   21.9044  -23.1922  -16.2549 O   0  0  0  0  0  0  0  0  0  0  0  0
   20.9975  -20.2951  -13.4622 C   0  0  0  0  0  0  0  0  0  0  0  0
   21.3283  -20.0561  -12.2761 O   0  0  0  0  0  0  0  0  0  0  0  0
   20.9998  -24.9516  -15.1977 O   0  0  0  0  0  0  0  0  0  0  0  0
   20.0456  -19.4746  -14.0432 O   0  0  0  0  0  0  0  0  0  0  0  0
  2  1  1  0
  3  2  1  0
  4  3  2  0
  6  7  1  0
  6  5  1  0
  7  8  1  0
  9  8  1  1
  9 11  1  0
  9 10  1  0
 10  3  1  0
 11 13  1  0
 12 11  2  0
 13 14  1  0
 14 15  1  1
 14 18  1  0
 16 17  2  0
 16 15  1  0
 18 19  2  0
 18 21  1  0
 20 16  1  0
M  END
$$$$
