GMD.pdb
     RDKit          3D

 21 20  0  0  1  0  0  0  0  0999 V2000
   22.2639  -21.2029  -14.3456 N   0  0  0  0  0  0  0  0  0  0  0  0
   21.4437  -20.0915  -14.7122 C   0  0  0  0  0  0  0  0  0  0  0  0
   22.2374  -18.8739  -15.0217 C   0  0  0  0  0  0  0  0  0  0  0  0
   21.6529  -17.7570  -15.0054 O   0  0  0  0  0  0  0  0  0  0  0  0
   26.9068  -14.0144  -14.9297 C   0  0  0  0  0  0  0  0  0  0  0  0
   25.9158  -15.5283  -14.8922 S   0  0  0  0  0  0  0  0  0  0  0  0
   26.7417  -16.8942  -15.7507 C   0  0  0  0  0  0  0  0  0  0  0  0
   25.9120  -18.1453  -15.5254 C   0  0  0  0  0  0  0  0  0  0  0  0
   24.4199  -17.8232  -15.6606 C   0  0  2  0  0  0  0  0  0  0  0  0
   23.6177  -18.9821  -15.3258 N   0  0  0  0  0  0  0  0  0  0  0  0
   24.2117  -17.4193  -17.0835 C   0  0  0  0  0  0  0  0  0  0  0  0
   24.5379  -18.2431  -17.9708 O   0  0  0  0  0  0  0  0  0  0  0  0
   23.6777  -16.1829  -17.4675 N   0  0  0  0  0  0  0  0  0  0  0  0
   23.3964  -15.9332  -18.8616 C   0  0  1  0  0  0  0  0  0  0  0  0
   22.2470  -15.0001  -19.0315 C   0  0  0  0  0  0  0  0  0  0  0  0
   21.0247  -15.5652  -18.4322 C   0  0  0  0  0  0  0  0  0  0  0  0
   20.5546  -16.6278  -18.9677 O   0  0  0  0  0  0  0  0  0  0  0  0
   24.6589  -15.3853  -19.4506 C   0  0  0  0  0  0  0  0  0  0  0  0
   25.6992  -15.1567  -18.7882 O   0  0  0  0  0  0  0  0  0  0  0  0
   20.3299  -15.0790  -17.3608 O   0  0  0  0  0  0  0  0  0  0  0  0
   24.6864  -15.1124  -20.8077 O   0  0  0  0  0  0  0  0  0  0  0  0
  2  1  1  0
  3  2  1  0
  4  3  2  0
  6  7  1  0
  6  5  1  0
  7  8  1  0
  9  8  1  6
  9 11  1  0
  9 10  1  0
 10  3  1  0
 11 13  1  0
 12 11  2  0
 13 14  1  0
 14 15  1  1
 14 18  1  0
 16 17  2  0
 16 15  1  0
 18 19  2  0
 18 21  1  0
 20 16  1  0
M  END
$$$$
