GMD.pdb
     RDKit          3D

 21 20  0  0  1  0  0  0  0  0999 V2000
   18.9365  -11.3661  -18.6044 N   0  0  0  0  0  0  0  0  0  0  0  0
   18.7550  -11.0225  -17.2291 C   0  0  0  0  0  0  0  0  0  0  0  0
   19.9554  -10.3748  -16.6394 C   0  0  0  0  0  0  0  0  0  0  0  0
   19.8999   -9.9874  -15.4410 O   0  0  0  0  0  0  0  0  0  0  0  0
   26.5206  -10.3164  -14.6414 C   0  0  0  0  0  0  0  0  0  0  0  0
   25.0087  -10.6711  -15.5707 S   0  0  0  0  0  0  0  0  0  0  0  0
   24.8230   -9.5701  -16.9984 C   0  0  0  0  0  0  0  0  0  0  0  0
   23.5474   -9.9665  -17.7196 C   0  0  0  0  0  0  0  0  0  0  0  0
   22.3237   -9.5932  -16.8760 C   0  0  2  0  0  0  0  0  0  0  0  0
   21.1273  -10.2040  -17.4185 N   0  0  0  0  0  0  0  0  0  0  0  0
   22.2319   -8.1030  -16.9181 C   0  0  0  0  0  0  0  0  0  0  0  0
   22.1753   -7.5599  -18.0470 O   0  0  0  0  0  0  0  0  0  0  0  0
   22.2064   -7.2959  -15.7739 N   0  0  0  0  0  0  0  0  0  0  0  0
   21.9995   -5.8736  -15.9127 C   0  0  1  0  0  0  0  0  0  0  0  0
   20.5910   -5.5568  -16.2819 C   0  0  0  0  0  0  0  0  0  0  0  0
   20.3818   -4.0987  -16.3340 C   0  0  0  0  0  0  0  0  0  0  0  0
   21.2405   -3.4131  -16.9893 O   0  0  0  0  0  0  0  0  0  0  0  0
   22.3888   -5.2652  -14.6015 C   0  0  0  0  0  0  0  0  0  0  0  0
   22.7967   -5.9259  -13.6164 O   0  0  0  0  0  0  0  0  0  0  0  0
   19.3667   -3.3894  -15.7565 O   0  0  0  0  0  0  0  0  0  0  0  0
   22.2954   -3.8910  -14.4613 O   0  0  0  0  0  0  0  0  0  0  0  0
  2  1  1  0
  3  2  1  0
  4  3  2  0
  6  7  1  0
  6  5  1  0
  7  8  1  0
  9  8  1  6
  9 11  1  0
  9 10  1  0
 10  3  1  0
 11 13  1  0
 12 11  2  0
 13 14  1  0
 14 15  1  1
 14 18  1  0
 16 17  2  0
 16 15  1  0
 18 19  2  0
 18 21  1  0
 20 16  1  0
M  END
$$$$
