GMD.pdb
     RDKit          3D

 21 20  0  0  1  0  0  0  0  0999 V2000
   21.8360  -12.3483  -19.7178 N   0  0  0  0  0  0  0  0  0  0  0  0
   21.3568  -11.0146  -19.5337 C   0  0  0  0  0  0  0  0  0  0  0  0
   21.6371  -10.4903  -18.1717 C   0  0  0  0  0  0  0  0  0  0  0  0
   20.8119  -10.7398  -17.2517 O   0  0  0  0  0  0  0  0  0  0  0  0
   26.9531  -11.7227  -14.5391 C   0  0  0  0  0  0  0  0  0  0  0  0
   26.8007  -10.9947  -16.1889 S   0  0  0  0  0  0  0  0  0  0  0  0
   25.0673  -10.8154  -16.6873 C   0  0  0  0  0  0  0  0  0  0  0  0
   24.6279   -9.4097  -16.3192 C   0  0  0  0  0  0  0  0  0  0  0  0
   23.1341   -9.2283  -16.6092 C   0  0  2  0  0  0  0  0  0  0  0  0
   22.8083   -9.7297  -17.9287 N   0  0  0  0  0  0  0  0  0  0  0  0
   22.8696   -7.7614  -16.5121 C   0  0  0  0  0  0  0  0  0  0  0  0
   23.3464   -7.0283  -17.4108 O   0  0  0  0  0  0  0  0  0  0  0  0
   22.1257   -7.1751  -15.4806 N   0  0  0  0  0  0  0  0  0  0  0  0
   21.8407   -5.7603  -15.5263 C   0  0  1  0  0  0  0  0  0  0  0  0
   20.3750   -5.4966  -15.5783 C   0  0  0  0  0  0  0  0  0  0  0  0
   19.8076   -5.9600  -16.8573 C   0  0  0  0  0  0  0  0  0  0  0  0
   20.1594   -5.3255  -17.9111 O   0  0  0  0  0  0  0  0  0  0  0  0
   22.4773   -5.1667  -14.3084 C   0  0  0  0  0  0  0  0  0  0  0  0
   23.0029   -5.8434  -13.3924 O   0  0  0  0  0  0  0  0  0  0  0  0
   18.9406   -6.9989  -17.0475 O   0  0  0  0  0  0  0  0  0  0  0  0
   22.4899   -3.7882  -14.1792 O   0  0  0  0  0  0  0  0  0  0  0  0
  2  1  1  0
  3  2  1  0
  4  3  2  0
  6  7  1  0
  6  5  1  0
  7  8  1  0
  9  8  1  6
  9 11  1  0
  9 10  1  0
 10  3  1  0
 11 13  1  0
 12 11  2  0
 13 14  1  0
 14 15  1  1
 14 18  1  0
 16 17  2  0
 16 15  1  0
 18 19  2  0
 18 21  1  0
 20 16  1  0
M  END
$$$$
