GMD.pdb
     RDKit          3D

 21 20  0  0  1  0  0  0  0  0999 V2000
   25.1052  -14.6760  -19.5934 N   0  0  0  0  0  0  0  0  0  0  0  0
   24.6376  -13.3477  -19.8375 C   0  0  0  0  0  0  0  0  0  0  0  0
   24.5450  -12.5379  -18.5949 C   0  0  0  0  0  0  0  0  0  0  0  0
   23.7552  -12.9182  -17.6889 O   0  0  0  0  0  0  0  0  0  0  0  0
   28.4845  -13.1498  -14.7941 C   0  0  0  0  0  0  0  0  0  0  0  0
   27.2808  -11.8661  -15.2165 S   0  0  0  0  0  0  0  0  0  0  0  0
   27.7330  -10.9956  -16.7406 C   0  0  0  0  0  0  0  0  0  0  0  0
   26.6797   -9.9312  -16.9899 C   0  0  0  0  0  0  0  0  0  0  0  0
   25.3137  -10.5832  -17.2297 C   0  0  2  0  0  0  0  0  0  0  0  0
   25.3324  -11.3685  -18.4470 N   0  0  0  0  0  0  0  0  0  0  0  0
   24.3324   -9.4616  -17.3297 C   0  0  0  0  0  0  0  0  0  0  0  0
   24.2864   -8.8298  -18.4120 O   0  0  0  0  0  0  0  0  0  0  0  0
   23.4744   -9.0878  -16.2879 N   0  0  0  0  0  0  0  0  0  0  0  0
   22.5552   -7.9916  -16.4838 C   0  0  1  0  0  0  0  0  0  0  0  0
   21.4200   -8.0478  -15.5201 C   0  0  0  0  0  0  0  0  0  0  0  0
   20.4945   -6.9218  -15.7397 C   0  0  0  0  0  0  0  0  0  0  0  0
   20.2771   -6.1478  -14.7445 O   0  0  0  0  0  0  0  0  0  0  0  0
   23.3611   -6.7391  -16.3328 C   0  0  0  0  0  0  0  0  0  0  0  0
   22.9468   -5.5976  -16.6469 O   0  0  0  0  0  0  0  0  0  0  0  0
   19.8359   -6.6079  -16.8951 O   0  0  0  0  0  0  0  0  0  0  0  0
   24.6415   -6.8399  -15.8158 O   0  0  0  0  0  0  0  0  0  0  0  0
  2  1  1  0
  3  2  1  0
  4  3  2  0
  6  7  1  0
  6  5  1  0
  7  8  1  0
  9  8  1  6
  9 11  1  0
  9 10  1  0
 10  3  1  0
 11 13  1  0
 12 11  2  0
 13 14  1  0
 14 15  1  1
 14 18  1  0
 16 17  2  0
 16 15  1  0
 18 19  2  0
 18 21  1  0
 20 16  1  0
M  END
$$$$
