GMD.pdb
     RDKit          3D

 21 20  0  0  1  0  0  0  0  0999 V2000
   21.8532  -12.5025  -19.5232 N   0  0  0  0  0  0  0  0  0  0  0  0
   21.9105  -11.0755  -19.5779 C   0  0  0  0  0  0  0  0  0  0  0  0
   22.0047  -10.4561  -18.2304 C   0  0  0  0  0  0  0  0  0  0  0  0
   21.0800  -10.6778  -17.4026 O   0  0  0  0  0  0  0  0  0  0  0  0
   27.5660  -12.2383  -15.2735 C   0  0  0  0  0  0  0  0  0  0  0  0
   26.9289  -10.5623  -15.5194 S   0  0  0  0  0  0  0  0  0  0  0  0
   25.1729  -10.5695  -15.9685 C   0  0  0  0  0  0  0  0  0  0  0  0
   24.7372   -9.1251  -16.1365 C   0  0  0  0  0  0  0  0  0  0  0  0
   23.2714   -9.0617  -16.5791 C   0  0  2  0  0  0  0  0  0  0  0  0
   23.1140   -9.6381  -17.8989 N   0  0  0  0  0  0  0  0  0  0  0  0
   22.9017   -7.6145  -16.5780 C   0  0  0  0  0  0  0  0  0  0  0  0
   23.2976   -6.9170  -17.5420 O   0  0  0  0  0  0  0  0  0  0  0  0
   22.1454   -7.0090  -15.5667 N   0  0  0  0  0  0  0  0  0  0  0  0
   21.7942   -5.6132  -15.6818 C   0  0  1  0  0  0  0  0  0  0  0  0
   20.3499   -5.4347  -16.0021 C   0  0  0  0  0  0  0  0  0  0  0  0
   20.0033   -4.0034  -16.0637 C   0  0  0  0  0  0  0  0  0  0  0  0
   19.2494   -3.5492  -15.1351 O   0  0  0  0  0  0  0  0  0  0  0  0
   22.1643   -4.9807  -14.3764 C   0  0  0  0  0  0  0  0  0  0  0  0
   22.0843   -3.7502  -14.1468 O   0  0  0  0  0  0  0  0  0  0  0  0
   20.3982   -3.0985  -17.0083 O   0  0  0  0  0  0  0  0  0  0  0  0
   22.6232   -5.7976  -13.3572 O   0  0  0  0  0  0  0  0  0  0  0  0
  2  1  1  0
  3  2  1  0
  4  3  2  0
  6  7  1  0
  6  5  1  0
  7  8  1  0
  9  8  1  6
  9 11  1  0
  9 10  1  0
 10  3  1  0
 11 13  1  0
 12 11  2  0
 13 14  1  0
 14 15  1  1
 14 18  1  0
 16 17  2  0
 16 15  1  0
 18 19  2  0
 18 21  1  0
 20 16  1  0
M  END
$$$$
