GMD.pdb
     RDKit          3D

 21 20  0  0  1  0  0  0  0  0999 V2000
   28.5293  -21.1992  -15.9815 N   0  0  0  0  0  0  0  0  0  0  0  0
   28.0282  -20.4284  -14.8873 C   0  0  0  0  0  0  0  0  0  0  0  0
   26.8861  -21.0866  -14.2013 C   0  0  0  0  0  0  0  0  0  0  0  0
   26.3588  -22.0936  -14.7466 O   0  0  0  0  0  0  0  0  0  0  0  0
   24.6236  -20.8467   -7.7189 C   0  0  0  0  0  0  0  0  0  0  0  0
   26.3073  -20.6048   -8.3371 S   0  0  0  0  0  0  0  0  0  0  0  0
   26.4809  -21.1651  -10.0521 C   0  0  0  0  0  0  0  0  0  0  0  0
   25.2491  -20.7055  -10.8110 C   0  0  0  0  0  0  0  0  0  0  0  0
   25.3054  -21.1981  -12.2610 C   0  0  2  0  0  0  0  0  0  0  0  0
   26.4126  -20.5825  -12.9639 N   0  0  0  0  0  0  0  0  0  0  0  0
   23.9996  -20.8170  -12.8779 C   0  0  0  0  0  0  0  0  0  0  0  0
   23.8258  -19.6075  -13.1600 O   0  0  0  0  0  0  0  0  0  0  0  0
   22.9758  -21.7324  -13.1519 N   0  0  0  0  0  0  0  0  0  0  0  0
   21.8096  -21.2956  -13.8827 C   0  0  1  0  0  0  0  0  0  0  0  0
   21.5194  -22.1892  -15.0393 C   0  0  0  0  0  0  0  0  0  0  0  0
   20.3115  -21.7396  -15.7544 C   0  0  0  0  0  0  0  0  0  0  0  0
   20.2111  -20.4863  -15.9912 O   0  0  0  0  0  0  0  0  0  0  0  0
   20.6845  -21.2682  -12.8955 C   0  0  0  0  0  0  0  0  0  0  0  0
   20.7214  -21.8322  -11.7757 O   0  0  0  0  0  0  0  0  0  0  0  0
   19.2772  -22.5154  -16.1966 O   0  0  0  0  0  0  0  0  0  0  0  0
   19.5310  -20.5808  -13.2328 O   0  0  0  0  0  0  0  0  0  0  0  0
  2  1  1  0
  3  2  1  0
  4  3  2  0
  6  7  1  0
  6  5  1  0
  7  8  1  0
  9  8  1  1
  9 11  1  0
  9 10  1  0
 10  3  1  0
 11 13  1  0
 12 11  2  0
 13 14  1  0
 14 15  1  6
 14 18  1  0
 16 17  2  0
 16 15  1  0
 18 19  2  0
 18 21  1  0
 20 16  1  0
M  END
$$$$
