GMD.pdb
     RDKit          3D

 21 20  0  0  1  0  0  0  0  0999 V2000
   28.3977  -22.0883  -16.1235 N   0  0  0  0  0  0  0  0  0  0  0  0
   27.9827  -21.0513  -15.2319 C   0  0  0  0  0  0  0  0  0  0  0  0
   26.9969  -21.5245  -14.2256 C   0  0  0  0  0  0  0  0  0  0  0  0
   26.2780  -22.5197  -14.5125 O   0  0  0  0  0  0  0  0  0  0  0  0
   27.3138  -20.0342   -7.9312 C   0  0  0  0  0  0  0  0  0  0  0  0
   25.5263  -20.2883   -8.0552 S   0  0  0  0  0  0  0  0  0  0  0  0
   25.0545  -20.9722   -9.6661 C   0  0  0  0  0  0  0  0  0  0  0  0
   26.1224  -20.5674  -10.6661 C   0  0  0  0  0  0  0  0  0  0  0  0
   25.8264  -21.1852  -12.0369 C   0  0  2  0  0  0  0  0  0  0  0  0
   26.8796  -20.8623  -12.9778 N   0  0  0  0  0  0  0  0  0  0  0  0
   24.5197  -20.6099  -12.4759 C   0  0  0  0  0  0  0  0  0  0  0  0
   24.5156  -19.4176  -12.8645 O   0  0  0  0  0  0  0  0  0  0  0  0
   23.3174  -21.3280  -12.4740 N   0  0  0  0  0  0  0  0  0  0  0  0
   22.1516  -20.7625  -13.1111 C   0  0  1  0  0  0  0  0  0  0  0  0
   21.7263  -21.5662  -14.2916 C   0  0  0  0  0  0  0  0  0  0  0  0
   20.4750  -21.0340  -14.8603 C   0  0  0  0  0  0  0  0  0  0  0  0
   20.5105  -19.8428  -15.3257 O   0  0  0  0  0  0  0  0  0  0  0  0
   21.0889  -20.7017  -12.0583 C   0  0  0  0  0  0  0  0  0  0  0  0
   20.9790  -21.5327  -11.1253 O   0  0  0  0  0  0  0  0  0  0  0  0
   19.2704  -21.6732  -14.9473 O   0  0  0  0  0  0  0  0  0  0  0  0
   20.1690  -19.6684  -12.1123 O   0  0  0  0  0  0  0  0  0  0  0  0
  2  1  1  0
  3  2  1  0
  4  3  2  0
  6  7  1  0
  6  5  1  0
  7  8  1  0
  9  8  1  1
  9 11  1  0
  9 10  1  0
 10  3  1  0
 11 13  1  0
 12 11  2  0
 13 14  1  0
 14 15  1  6
 14 18  1  0
 16 17  2  0
 16 15  1  0
 18 19  2  0
 18 21  1  0
 20 16  1  0
M  END
$$$$
