GMD.pdb
     RDKit          3D

 21 20  0  0  1  0  0  0  0  0999 V2000
   13.3105   -9.8416  -12.4579 N   0  0  0  0  0  0  0  0  0  0  0  0
   14.4274  -10.2290  -13.2610 C   0  0  0  0  0  0  0  0  0  0  0  0
   15.6296   -9.3929  -13.0080 C   0  0  0  0  0  0  0  0  0  0  0  0
   15.6886   -8.7374  -11.9326 O   0  0  0  0  0  0  0  0  0  0  0  0
   23.3387   -8.6358  -14.3228 C   0  0  0  0  0  0  0  0  0  0  0  0
   21.7495   -9.3649  -14.7899 S   0  0  0  0  0  0  0  0  0  0  0  0
   20.3564   -8.4688  -14.0541 C   0  0  0  0  0  0  0  0  0  0  0  0
   19.1020   -9.2860  -14.3054 C   0  0  0  0  0  0  0  0  0  0  0  0
   17.8750   -8.5602  -13.7432 C   0  0  2  0  0  0  0  0  0  0  0  0
   16.6765   -9.3440  -13.9624 N   0  0  0  0  0  0  0  0  0  0  0  0
   17.8014   -7.2541  -14.4639 C   0  0  0  0  0  0  0  0  0  0  0  0
   17.3819   -7.2699  -15.6456 O   0  0  0  0  0  0  0  0  0  0  0  0
   18.1730   -6.0313  -13.8913 N   0  0  0  0  0  0  0  0  0  0  0  0
   18.0458   -4.8178  -14.6634 C   0  0  1  0  0  0  0  0  0  0  0  0
   16.8972   -3.9894  -14.1998 C   0  0  0  0  0  0  0  0  0  0  0  0
   16.8610   -2.7020  -14.9165 C   0  0  0  0  0  0  0  0  0  0  0  0
   17.0230   -2.7402  -16.1850 O   0  0  0  0  0  0  0  0  0  0  0  0
   19.3512   -4.0977  -14.5272 C   0  0  0  0  0  0  0  0  0  0  0  0
   19.6031   -2.9955  -15.0704 O   0  0  0  0  0  0  0  0  0  0  0  0
   16.6731   -1.4613  -14.3758 O   0  0  0  0  0  0  0  0  0  0  0  0
   20.3444   -4.6780  -13.7565 O   0  0  0  0  0  0  0  0  0  0  0  0
  2  1  1  0
  3  2  1  0
  4  3  2  0
  6  7  1  0
  6  5  1  0
  7  8  1  0
  9  8  1  6
  9 11  1  0
  9 10  1  0
 10  3  1  0
 11 13  1  0
 12 11  2  0
 13 14  1  0
 14 15  1  1
 14 18  1  0
 16 17  2  0
 16 15  1  0
 18 19  2  0
 18 21  1  0
 20 16  1  0
M  END
$$$$
