WNN.pdb
     RDKit          3D

 31 32  0  0  1  0  0  0  0  0999 V2000
    6.4264  -17.7103   24.3428 N   0  0  0  0  0  0  0  0  0  0  0  0
    7.3956  -16.6533   24.0206 C   0  0  1  0  0  0  0  0  0  0  0  0
    8.0021  -16.1702   25.3289 C   0  0  0  0  0  0  0  0  0  0  0  0
    7.0967  -15.1164   25.8596 C   0  0  0  0  0  0  0  0  0  0  0  0
    5.9718  -15.3442   26.6220 C   0  0  0  0  0  0  0  0  0  0  0  0
    5.4172  -14.1303   26.9019 N   0  0  0  0  0  0  0  0  0  0  0  0
    6.1435  -13.1431   26.3490 C   0  0  0  0  0  0  0  0  0  0  0  0
    5.9908  -11.7582   26.3522 C   0  0  0  0  0  0  0  0  0  0  0  0
    6.9136  -10.9753   25.6862 C   0  0  0  0  0  0  0  0  0  0  0  0
    7.9767  -11.5693   25.0245 C   0  0  0  0  0  0  0  0  0  0  0  0
    8.1016  -12.9588   25.0399 C   0  0  0  0  0  0  0  0  0  0  0  0
    7.1912  -13.7520   25.6982 C   0  0  0  0  0  0  0  0  0  0  0  0
    8.4181  -17.1815   23.0950 C   0  0  0  0  0  0  0  0  0  0  0  0
    8.7279  -18.4167   23.2054 O   0  0  0  0  0  0  0  0  0  0  0  0
   11.3961  -17.3396   18.1627 N   0  0  0  0  0  0  0  0  0  0  0  0
   11.6441  -16.5803   19.3308 C   0  0  0  0  0  0  0  0  0  0  0  0
   12.8265  -16.3449   19.6596 O   0  0  0  0  0  0  0  0  0  0  0  0
   10.5302  -16.0855   20.1327 C   0  0  0  0  0  0  0  0  0  0  0  0
   10.2023  -16.9809   21.3341 C   0  0  2  0  0  0  0  0  0  0  0  0
    9.0910  -16.4492   22.0933 N   0  0  0  0  0  0  0  0  0  0  0  0
   11.4242  -17.1530   22.1502 C   0  0  0  0  0  0  0  0  0  0  0  0
   11.8668  -16.2042   22.8852 O   0  0  0  0  0  0  0  0  0  0  0  0
   15.4441  -18.9723   24.7241 N   0  0  0  0  0  0  0  0  0  0  0  0
   14.6550  -20.0952   24.3760 C   0  0  0  0  0  0  0  0  0  0  0  0
   14.9498  -21.2163   24.8405 O   0  0  0  0  0  0  0  0  0  0  0  0
   13.5006  -19.9602   23.4807 C   0  0  0  0  0  0  0  0  0  0  0  0
   13.3278  -18.5014   23.1126 C   0  0  2  0  0  0  0  0  0  0  0  0
   12.1997  -18.3398   22.2023 N   0  0  0  0  0  0  0  0  0  0  0  0
   14.5618  -17.9485   22.5731 C   0  0  0  0  0  0  0  0  0  0  0  0
   14.9177  -18.2294   21.2500 O   0  0  0  0  0  0  0  0  0  0  0  0
   15.3401  -17.2264   23.2244 O   0  0  0  0  0  0  0  0  0  0  0  0
  2  1  1  1
  2  3  1  0
  2 13  1  0
  3  4  1  0
  4  5  2  0
  6  5  1  0
  7  6  1  0
  8  7  2  0
  9  8  1  0
 10  9  2  0
 10 11  1  0
 11 12  2  0
 12  7  1  0
 12  4  1  0
 13 14  2  0
 15 16  1  0
 16 17  2  0
 19 18  1  6
 18 16  1  0
 20 13  1  0
 20 19  1  0
 21 22  2  0
 21 19  1  0
 23 24  1  0
 24 26  1  0
 24 25  2  0
 27 26  1  6
 27 28  1  0
 28 21  1  0
 29 27  1  0
 29 30  1  0
 31 29  2  0
M  END
$$$$
