WNN.pdb
     RDKit          3D

 31 32  0  0  1  0  0  0  0  0999 V2000
    7.3468  -16.9485   23.1453 N   0  0  0  0  0  0  0  0  0  0  0  0
    8.3353  -15.8610   23.1719 C   0  0  1  0  0  0  0  0  0  0  0  0
    8.8525  -15.7435   24.5973 C   0  0  0  0  0  0  0  0  0  0  0  0
    7.7604  -15.1340   25.4022 C   0  0  0  0  0  0  0  0  0  0  0  0
    6.7669  -15.8325   26.0530 C   0  0  0  0  0  0  0  0  0  0  0  0
    5.9633  -14.9188   26.6685 N   0  0  0  0  0  0  0  0  0  0  0  0
    6.4059  -13.6708   26.4349 C   0  0  0  0  0  0  0  0  0  0  0  0
    5.9361  -12.4231   26.8398 C   0  0  0  0  0  0  0  0  0  0  0  0
    6.6102  -11.2854   26.4407 C   0  0  0  0  0  0  0  0  0  0  0  0
    7.7407  -11.3931   25.6460 C   0  0  0  0  0  0  0  0  0  0  0  0
    8.1856  -12.6570   25.2573 C   0  0  0  0  0  0  0  0  0  0  0  0
    7.5255  -13.7991   25.6463 C   0  0  0  0  0  0  0  0  0  0  0  0
    9.4178  -16.1494   22.2095 C   0  0  0  0  0  0  0  0  0  0  0  0
    9.6442  -17.3761   21.9308 O   0  0  0  0  0  0  0  0  0  0  0  0
   12.8667  -15.6015   18.3192 N   0  0  0  0  0  0  0  0  0  0  0  0
   13.1084  -14.5552   19.2408 C   0  0  0  0  0  0  0  0  0  0  0  0
   14.1212  -13.8388   19.0909 O   0  0  0  0  0  0  0  0  0  0  0  0
   12.1841  -14.3251   20.3461 C   0  0  0  0  0  0  0  0  0  0  0  0
   11.3253  -15.5502   20.6841 C   0  0  2  0  0  0  0  0  0  0  0  0
   10.2321  -15.1946   21.5631 N   0  0  0  0  0  0  0  0  0  0  0  0
   12.1964  -16.6039   21.2497 C   0  0  0  0  0  0  0  0  0  0  0  0
   12.6705  -17.5354   20.5122 O   0  0  0  0  0  0  0  0  0  0  0  0
   16.8408  -17.7883   22.3629 N   0  0  0  0  0  0  0  0  0  0  0  0
   16.2936  -16.5697   22.8321 C   0  0  0  0  0  0  0  0  0  0  0  0
   16.9668  -15.8552   23.6041 O   0  0  0  0  0  0  0  0  0  0  0  0
   14.9521  -16.1367   22.4257 C   0  0  0  0  0  0  0  0  0  0  0  0
   13.9263  -17.0757   23.0253 C   0  0  2  0  0  0  0  0  0  0  0  0
   12.5825  -16.6868   22.6122 N   0  0  0  0  0  0  0  0  0  0  0  0
   14.0649  -17.1462   24.4728 C   0  0  0  0  0  0  0  0  0  0  0  0
   14.9808  -18.0442   25.0305 O   0  0  0  0  0  0  0  0  0  0  0  0
   13.4084  -16.4459   25.2664 O   0  0  0  0  0  0  0  0  0  0  0  0
  2  1  1  1
  2  3  1  0
  2 13  1  0
  3  4  1  0
  4  5  2  0
  6  5  1  0
  7  6  1  0
  8  7  2  0
  9  8  1  0
 10  9  2  0
 10 11  1  0
 11 12  2  0
 12  7  1  0
 12  4  1  0
 13 14  2  0
 15 16  1  0
 16 17  2  0
 19 18  1  1
 18 16  1  0
 20 13  1  0
 20 19  1  0
 21 22  2  0
 21 19  1  0
 23 24  1  0
 24 26  1  0
 24 25  2  0
 27 26  1  1
 27 28  1  0
 28 21  1  0
 29 27  1  0
 29 30  1  0
 31 29  2  0
M  END
$$$$
