WNN.pdb
     RDKit          3D

 31 32  0  0  1  0  0  0  0  0999 V2000
    6.5195  -17.6881   23.8328 N   0  0  0  0  0  0  0  0  0  0  0  0
    7.0599  -16.3458   23.5745 C   0  0  1  0  0  0  0  0  0  0  0  0
    8.1872  -16.1045   24.5663 C   0  0  0  0  0  0  0  0  0  0  0  0
    7.6351  -15.2399   25.6432 C   0  0  0  0  0  0  0  0  0  0  0  0
    6.9499  -15.6890   26.7510 C   0  0  0  0  0  0  0  0  0  0  0  0
    6.6084  -14.5948   27.4896 N   0  0  0  0  0  0  0  0  0  0  0  0
    7.0483  -13.4713   26.8961 C   0  0  0  0  0  0  0  0  0  0  0  0
    6.9522  -12.1281   27.2536 C   0  0  0  0  0  0  0  0  0  0  0  0
    7.5136  -11.1689   26.4334 C   0  0  0  0  0  0  0  0  0  0  0  0
    8.1635  -11.5474   25.2692 C   0  0  0  0  0  0  0  0  0  0  0  0
    8.2426  -12.9006   24.9391 C   0  0  0  0  0  0  0  0  0  0  0  0
    7.6888  -13.8676   25.7451 C   0  0  0  0  0  0  0  0  0  0  0  0
    7.5220  -16.2568   22.1746 C   0  0  0  0  0  0  0  0  0  0  0  0
    7.8124  -17.3512   21.5815 O   0  0  0  0  0  0  0  0  0  0  0  0
    9.0104  -12.6962   17.5262 N   0  0  0  0  0  0  0  0  0  0  0  0
    8.0835  -13.6776   17.9509 C   0  0  0  0  0  0  0  0  0  0  0  0
    7.6201  -14.4767   17.1092 O   0  0  0  0  0  0  0  0  0  0  0  0
    7.6805  -13.7466   19.3515 C   0  0  0  0  0  0  0  0  0  0  0  0
    8.0801  -15.0609   20.0338 C   0  0  2  0  0  0  0  0  0  0  0  0
    7.6750  -15.0718   21.4231 N   0  0  0  0  0  0  0  0  0  0  0  0
    9.5345  -15.2680   19.8590 C   0  0  0  0  0  0  0  0  0  0  0  0
   10.0335  -15.5105   18.7063 O   0  0  0  0  0  0  0  0  0  0  0  0
   12.7343  -15.3728   18.3062 N   0  0  0  0  0  0  0  0  0  0  0  0
   13.1970  -14.5271   19.3433 C   0  0  0  0  0  0  0  0  0  0  0  0
   13.8773  -13.5209   19.0529 O   0  0  0  0  0  0  0  0  0  0  0  0
   12.8895  -14.8156   20.7485 C   0  0  0  0  0  0  0  0  0  0  0  0
   11.7951  -15.8607   20.8109 C   0  0  2  0  0  0  0  0  0  0  0  0
   10.4887  -15.2194   20.9077 N   0  0  0  0  0  0  0  0  0  0  0  0
   12.0338  -16.8037   21.8941 C   0  0  0  0  0  0  0  0  0  0  0  0
   12.1607  -16.3264   23.2026 O   0  0  0  0  0  0  0  0  0  0  0  0
   12.1354  -18.0343   21.7312 O   0  0  0  0  0  0  0  0  0  0  0  0
  2  1  1  1
  2  3  1  0
  2 13  1  0
  3  4  1  0
  4  5  2  0
  6  5  1  0
  7  6  1  0
  8  7  2  0
  9  8  1  0
 10  9  2  0
 10 11  1  0
 11 12  2  0
 12  7  1  0
 12  4  1  0
 13 14  2  0
 15 16  1  0
 16 17  2  0
 19 18  1  1
 18 16  1  0
 20 13  1  0
 20 19  1  0
 21 22  2  0
 21 19  1  0
 23 24  1  0
 24 26  1  0
 24 25  2  0
 27 26  1  1
 27 28  1  0
 28 21  1  0
 29 27  1  0
 29 30  1  0
 31 29  2  0
M  END
$$$$
