WNN.pdb
     RDKit          3D

 31 32  0  0  1  0  0  0  0  0999 V2000
    6.0367  -17.0074   23.2143 N   0  0  0  0  0  0  0  0  0  0  0  0
    7.0734  -15.9817   23.0299 C   0  0  1  0  0  0  0  0  0  0  0  0
    7.9375  -15.9701   24.2813 C   0  0  0  0  0  0  0  0  0  0  0  0
    7.2149  -15.1570   25.2955 C   0  0  0  0  0  0  0  0  0  0  0  0
    6.1661  -15.6012   26.0709 C   0  0  0  0  0  0  0  0  0  0  0  0
    5.7786  -14.5625   26.8650 N   0  0  0  0  0  0  0  0  0  0  0  0
    6.5378  -13.4790   26.6252 C   0  0  0  0  0  0  0  0  0  0  0  0
    6.5340  -12.1974   27.1720 C   0  0  0  0  0  0  0  0  0  0  0  0
    7.4529  -11.2688   26.7233 C   0  0  0  0  0  0  0  0  0  0  0  0
    8.3651  -11.6166   25.7394 C   0  0  0  0  0  0  0  0  0  0  0  0
    8.3430  -12.9081   25.2120 C   0  0  0  0  0  0  0  0  0  0  0  0
    7.4345  -13.8439   25.6480 C   0  0  0  0  0  0  0  0  0  0  0  0
    7.8579  -16.2806   21.8149 C   0  0  0  0  0  0  0  0  0  0  0  0
    7.8788  -17.4939   21.4132 O   0  0  0  0  0  0  0  0  0  0  0  0
    7.5389  -13.0031   18.6682 N   0  0  0  0  0  0  0  0  0  0  0  0
    8.1109  -14.2587   18.3538 C   0  0  0  0  0  0  0  0  0  0  0  0
    7.4654  -15.0560   17.6402 O   0  0  0  0  0  0  0  0  0  0  0  0
    9.4338  -14.6081   18.8605 C   0  0  0  0  0  0  0  0  0  0  0  0
    9.4054  -15.7242   19.9122 C   0  0  2  0  0  0  0  0  0  0  0  0
    8.5921  -15.3495   21.0490 N   0  0  0  0  0  0  0  0  0  0  0  0
   10.7957  -16.0625   20.2885 C   0  0  0  0  0  0  0  0  0  0  0  0
   11.6067  -16.5659   19.4369 O   0  0  0  0  0  0  0  0  0  0  0  0
   13.9863  -13.7298   20.6305 N   0  0  0  0  0  0  0  0  0  0  0  0
   14.1570  -15.0885   20.9906 C   0  0  0  0  0  0  0  0  0  0  0  0
   14.7288  -15.8636   20.1957 O   0  0  0  0  0  0  0  0  0  0  0  0
   13.6732  -15.5960   22.2793 C   0  0  0  0  0  0  0  0  0  0  0  0
   12.5452  -16.5761   22.0330 C   0  0  2  0  0  0  0  0  0  0  0  0
   11.3522  -15.8703   21.5792 N   0  0  0  0  0  0  0  0  0  0  0  0
   12.2943  -17.3918   23.2125 C   0  0  0  0  0  0  0  0  0  0  0  0
   11.0237  -17.3790   23.7969 O   0  0  0  0  0  0  0  0  0  0  0  0
   13.1537  -18.1163   23.7491 O   0  0  0  0  0  0  0  0  0  0  0  0
  2  1  1  1
  2  3  1  0
  2 13  1  0
  3  4  1  0
  4  5  2  0
  6  5  1  0
  7  6  1  0
  8  7  2  0
  9  8  1  0
 10  9  2  0
 10 11  1  0
 11 12  2  0
 12  7  1  0
 12  4  1  0
 13 14  2  0
 15 16  1  0
 16 17  2  0
 19 18  1  6
 18 16  1  0
 20 13  1  0
 20 19  1  0
 21 22  2  0
 21 19  1  0
 23 24  1  0
 24 26  1  0
 24 25  2  0
 27 26  1  1
 27 28  1  0
 28 21  1  0
 29 27  1  0
 29 30  1  0
 31 29  2  0
M  END
$$$$
