WNN.pdb
     RDKit          3D

 31 32  0  0  1  0  0  0  0  0999 V2000
    6.9502  -16.3295   23.2083 N   0  0  0  0  0  0  0  0  0  0  0  0
    8.3488  -16.0284   23.5452 C   0  0  1  0  0  0  0  0  0  0  0  0
    8.5084  -16.2025   25.0475 C   0  0  0  0  0  0  0  0  0  0  0  0
    7.5411  -15.2754   25.6932 C   0  0  0  0  0  0  0  0  0  0  0  0
    6.3810  -15.6550   26.3324 C   0  0  0  0  0  0  0  0  0  0  0  0
    5.7735  -14.5196   26.7813 N   0  0  0  0  0  0  0  0  0  0  0  0
    6.5001  -13.4368   26.4533 C   0  0  0  0  0  0  0  0  0  0  0  0
    6.3046  -12.0768   26.6849 C   0  0  0  0  0  0  0  0  0  0  0  0
    7.2402  -11.1716   26.2231 C   0  0  0  0  0  0  0  0  0  0  0  0
    8.3583  -11.6201   25.5376 C   0  0  0  0  0  0  0  0  0  0  0  0
    8.5251  -12.9883   25.3217 C   0  0  0  0  0  0  0  0  0  0  0  0
    7.6026  -13.9021   25.7751 C   0  0  0  0  0  0  0  0  0  0  0  0
    9.2468  -16.9198   22.7834 C   0  0  0  0  0  0  0  0  0  0  0  0
    9.4852  -18.0744   23.2773 O   0  0  0  0  0  0  0  0  0  0  0  0
    8.7300  -16.2841   18.3181 N   0  0  0  0  0  0  0  0  0  0  0  0
    9.3448  -17.4390   18.8573 C   0  0  0  0  0  0  0  0  0  0  0  0
    8.7005  -18.5093   18.8876 O   0  0  0  0  0  0  0  0  0  0  0  0
   10.7098  -17.3708   19.3683 C   0  0  0  0  0  0  0  0  0  0  0  0
   10.7949  -17.5147   20.8930 C   0  0  2  0  0  0  0  0  0  0  0  0
    9.8714  -16.6180   21.5541 N   0  0  0  0  0  0  0  0  0  0  0  0
   12.1975  -17.3074   21.3157 C   0  0  0  0  0  0  0  0  0  0  0  0
   13.1571  -17.9397   20.7539 O   0  0  0  0  0  0  0  0  0  0  0  0
   16.5551  -15.2860   23.4422 N   0  0  0  0  0  0  0  0  0  0  0  0
   15.4996  -15.2844   24.3860 C   0  0  0  0  0  0  0  0  0  0  0  0
   15.7694  -15.2215   25.6036 O   0  0  0  0  0  0  0  0  0  0  0  0
   14.0991  -15.3553   23.9546 C   0  0  0  0  0  0  0  0  0  0  0  0
   13.9673  -16.4070   22.8729 C   0  0  2  0  0  0  0  0  0  0  0  0
   12.6079  -16.4209   22.3443 N   0  0  0  0  0  0  0  0  0  0  0  0
   14.3886  -17.7130   23.3592 C   0  0  0  0  0  0  0  0  0  0  0  0
   15.6557  -18.1957   23.0163 O   0  0  0  0  0  0  0  0  0  0  0  0
   13.6815  -18.4465   24.0755 O   0  0  0  0  0  0  0  0  0  0  0  0
  2  1  1  6
  2  3  1  0
  2 13  1  0
  3  4  1  0
  4  5  2  0
  6  5  1  0
  7  6  1  0
  8  7  2  0
  9  8  1  0
 10  9  2  0
 10 11  1  0
 11 12  2  0
 12  7  1  0
 12  4  1  0
 13 14  2  0
 15 16  1  0
 16 17  2  0
 19 18  1  6
 18 16  1  0
 20 13  1  0
 20 19  1  0
 21 22  2  0
 21 19  1  0
 23 24  1  0
 24 26  1  0
 24 25  2  0
 27 26  1  1
 27 28  1  0
 28 21  1  0
 29 27  1  0
 29 30  1  0
 31 29  2  0
M  END
$$$$
