WNN.pdb
     RDKit          3D

 31 32  0  0  1  0  0  0  0  0999 V2000
    6.6805  -17.5268   24.7718 N   0  0  0  0  0  0  0  0  0  0  0  0
    7.3665  -16.5276   23.9403 C   0  0  1  0  0  0  0  0  0  0  0  0
    8.2110  -15.6622   24.8627 C   0  0  0  0  0  0  0  0  0  0  0  0
    7.2659  -14.8716   25.6956 C   0  0  0  0  0  0  0  0  0  0  0  0
    6.1966  -15.3890   26.3938 C   0  0  0  0  0  0  0  0  0  0  0  0
    5.5786  -14.3481   27.0217 N   0  0  0  0  0  0  0  0  0  0  0  0
    6.2114  -13.1931   26.7505 C   0  0  0  0  0  0  0  0  0  0  0  0
    5.9693  -11.8805   27.1501 C   0  0  0  0  0  0  0  0  0  0  0  0
    6.8058  -10.8744   26.7071 C   0  0  0  0  0  0  0  0  0  0  0  0
    7.8718  -11.1764   25.8744 C   0  0  0  0  0  0  0  0  0  0  0  0
    8.0873  -12.5007   25.4922 C   0  0  0  0  0  0  0  0  0  0  0  0
    7.2636  -13.5136   25.9246 C   0  0  0  0  0  0  0  0  0  0  0  0
    8.1827  -17.2093   22.9156 C   0  0  0  0  0  0  0  0  0  0  0  0
    7.6890  -18.2558   22.3724 O   0  0  0  0  0  0  0  0  0  0  0  0
   10.5004  -17.1268   18.3884 N   0  0  0  0  0  0  0  0  0  0  0  0
    9.2679  -16.5203   18.7288 C   0  0  0  0  0  0  0  0  0  0  0  0
    8.4974  -16.1607   17.8131 O   0  0  0  0  0  0  0  0  0  0  0  0
    8.9120  -16.3214   20.1297 C   0  0  0  0  0  0  0  0  0  0  0  0
    9.9103  -16.9568   21.1056 C   0  0  2  0  0  0  0  0  0  0  0  0
    9.4642  -16.8143   22.4748 N   0  0  0  0  0  0  0  0  0  0  0  0
   11.2473  -16.3673   20.8738 C   0  0  0  0  0  0  0  0  0  0  0  0
   11.3759  -15.2038   20.3579 O   0  0  0  0  0  0  0  0  0  0  0  0
   14.6530  -16.1269   24.8685 N   0  0  0  0  0  0  0  0  0  0  0  0
   13.5292  -16.2725   24.0196 C   0  0  0  0  0  0  0  0  0  0  0  0
   12.6642  -17.1306   24.2934 O   0  0  0  0  0  0  0  0  0  0  0  0
   13.3676  -15.4325   22.8277 C   0  0  0  0  0  0  0  0  0  0  0  0
   13.6632  -16.2609   21.5948 C   0  0  2  0  0  0  0  0  0  0  0  0
   12.4756  -17.0036   21.1881 N   0  0  0  0  0  0  0  0  0  0  0  0
   14.8142  -17.1261   21.8098 C   0  0  0  0  0  0  0  0  0  0  0  0
   14.6845  -18.5032   21.6026 O   0  0  0  0  0  0  0  0  0  0  0  0
   15.9317  -16.7143   22.1743 O   0  0  0  0  0  0  0  0  0  0  0  0
  2  1  1  1
  2  3  1  0
  2 13  1  0
  3  4  1  0
  4  5  2  0
  6  5  1  0
  7  6  1  0
  8  7  2  0
  9  8  1  0
 10  9  2  0
 10 11  1  0
 11 12  2  0
 12  7  1  0
 12  4  1  0
 13 14  2  0
 15 16  1  0
 16 17  2  0
 19 18  1  6
 18 16  1  0
 20 13  1  0
 20 19  1  0
 21 22  2  0
 21 19  1  0
 23 24  1  0
 24 26  1  0
 24 25  2  0
 27 26  1  1
 27 28  1  0
 28 21  1  0
 29 27  1  0
 29 30  1  0
 31 29  2  0
M  END
$$$$
