WNN.pdb
     RDKit          3D

 31 32  0  0  1  0  0  0  0  0999 V2000
    6.3706  -14.6884   23.8117 N   0  0  0  0  0  0  0  0  0  0  0  0
    7.5095  -15.5958   24.0119 C   0  0  1  0  0  0  0  0  0  0  0  0
    7.3935  -16.1786   25.4117 C   0  0  0  0  0  0  0  0  0  0  0  0
    7.6691  -15.0697   26.3637 C   0  0  0  0  0  0  0  0  0  0  0  0
    8.4565  -15.1656   27.4903 C   0  0  0  0  0  0  0  0  0  0  0  0
    8.4539  -13.9429   28.0940 N   0  0  0  0  0  0  0  0  0  0  0  0
    7.6979  -13.0764   27.3972 C   0  0  0  0  0  0  0  0  0  0  0  0
    7.3896  -11.7331   27.6017 C   0  0  0  0  0  0  0  0  0  0  0  0
    6.5704  -11.0831   26.6993 C   0  0  0  0  0  0  0  0  0  0  0  0
    6.0649  -11.7674   25.6051 C   0  0  0  0  0  0  0  0  0  0  0  0
    6.3923  -13.1121   25.4285 C   0  0  0  0  0  0  0  0  0  0  0  0
    7.2064  -13.7733   26.3180 C   0  0  0  0  0  0  0  0  0  0  0  0
    7.4998  -16.6431   22.9707 C   0  0  0  0  0  0  0  0  0  0  0  0
    6.4894  -17.4251   22.9340 O   0  0  0  0  0  0  0  0  0  0  0  0
    7.9205  -12.6120   19.7781 N   0  0  0  0  0  0  0  0  0  0  0  0
    7.7877  -14.0156   19.6555 C   0  0  0  0  0  0  0  0  0  0  0  0
    7.7464  -14.5220   18.5138 O   0  0  0  0  0  0  0  0  0  0  0  0
    7.7003  -14.8498   20.8493 C   0  0  0  0  0  0  0  0  0  0  0  0
    8.6930  -16.0191   20.8467 C   0  0  2  0  0  0  0  0  0  0  0  0
    8.5053  -16.8655   22.0053 N   0  0  0  0  0  0  0  0  0  0  0  0
   10.0672  -15.4799   20.7470 C   0  0  0  0  0  0  0  0  0  0  0  0
   10.5229  -15.0337   19.6381 O   0  0  0  0  0  0  0  0  0  0  0  0
   11.6050  -20.0078   23.4876 N   0  0  0  0  0  0  0  0  0  0  0  0
   12.0481  -18.8066   22.8832 C   0  0  0  0  0  0  0  0  0  0  0  0
   13.2564  -18.6774   22.5953 O   0  0  0  0  0  0  0  0  0  0  0  0
   11.1110  -17.7160   22.5917 C   0  0  0  0  0  0  0  0  0  0  0  0
   11.8938  -16.4923   22.1634 C   0  0  2  0  0  0  0  0  0  0  0  0
   10.9844  -15.4029   21.8265 N   0  0  0  0  0  0  0  0  0  0  0  0
   12.8081  -16.8105   21.0762 C   0  0  0  0  0  0  0  0  0  0  0  0
   14.1872  -16.7359   21.2966 O   0  0  0  0  0  0  0  0  0  0  0  0
   12.4375  -17.1519   19.9371 O   0  0  0  0  0  0  0  0  0  0  0  0
  2  1  1  6
  2  3  1  0
  2 13  1  0
  3  4  1  0
  4  5  2  0
  6  5  1  0
  7  6  1  0
  8  7  2  0
  9  8  1  0
 10  9  2  0
 10 11  1  0
 11 12  2  0
 12  7  1  0
 12  4  1  0
 13 14  2  0
 15 16  1  0
 16 17  2  0
 19 18  1  1
 18 16  1  0
 20 13  1  0
 20 19  1  0
 21 22  2  0
 21 19  1  0
 23 24  1  0
 24 26  1  0
 24 25  2  0
 27 26  1  6
 27 28  1  0
 28 21  1  0
 29 27  1  0
 29 30  1  0
 31 29  2  0
M  END
$$$$
