WNN.pdb
     RDKit          3D

 31 32  0  0  1  0  0  0  0  0999 V2000
    7.0164  -17.1693   23.1658 N   0  0  0  0  0  0  0  0  0  0  0  0
    8.0364  -16.1115   23.2024 C   0  0  1  0  0  0  0  0  0  0  0  0
    8.5024  -15.9707   24.6432 C   0  0  0  0  0  0  0  0  0  0  0  0
    7.4533  -15.1985   25.3611 C   0  0  0  0  0  0  0  0  0  0  0  0
    6.3087  -15.7330   25.9113 C   0  0  0  0  0  0  0  0  0  0  0  0
    5.6080  -14.7056   26.4707 N   0  0  0  0  0  0  0  0  0  0  0  0
    6.2606  -13.5427   26.2979 C   0  0  0  0  0  0  0  0  0  0  0  0
    5.9594  -12.2377   26.6821 C   0  0  0  0  0  0  0  0  0  0  0  0
    6.8369  -11.2199   26.3626 C   0  0  0  0  0  0  0  0  0  0  0  0
    8.0019  -11.5027   25.6670 C   0  0  0  0  0  0  0  0  0  0  0  0
    8.2746  -12.8198   25.2964 C   0  0  0  0  0  0  0  0  0  0  0  0
    7.4112  -13.8441   25.6070 C   0  0  0  0  0  0  0  0  0  0  0  0
    9.1452  -16.4583   22.2906 C   0  0  0  0  0  0  0  0  0  0  0  0
    9.2802  -17.6888   21.9719 O   0  0  0  0  0  0  0  0  0  0  0  0
   13.9520  -14.3979   19.0785 N   0  0  0  0  0  0  0  0  0  0  0  0
   12.7758  -15.1825   19.1367 C   0  0  0  0  0  0  0  0  0  0  0  0
   12.6875  -16.1953   18.4100 O   0  0  0  0  0  0  0  0  0  0  0  0
   11.6882  -14.8062   20.0336 C   0  0  0  0  0  0  0  0  0  0  0  0
   11.1751  -15.9723   20.8879 C   0  0  2  0  0  0  0  0  0  0  0  0
   10.0766  -15.5561   21.7330 N   0  0  0  0  0  0  0  0  0  0  0  0
   12.3067  -16.5376   21.6552 C   0  0  0  0  0  0  0  0  0  0  0  0
   13.1631  -17.3077   21.0986 O   0  0  0  0  0  0  0  0  0  0  0  0
   15.2925  -14.3412   22.7615 N   0  0  0  0  0  0  0  0  0  0  0  0
   15.3312  -15.7249   23.0593 C   0  0  0  0  0  0  0  0  0  0  0  0
   15.9440  -16.4974   22.2930 O   0  0  0  0  0  0  0  0  0  0  0  0
   14.6640  -16.2612   24.2507 C   0  0  0  0  0  0  0  0  0  0  0  0
   13.4780  -17.0982   23.8189 C   0  0  2  0  0  0  0  0  0  0  0  0
   12.5513  -16.2932   23.0310 N   0  0  0  0  0  0  0  0  0  0  0  0
   12.8351  -17.7249   24.9650 C   0  0  0  0  0  0  0  0  0  0  0  0
   13.5783  -18.5808   25.7842 O   0  0  0  0  0  0  0  0  0  0  0  0
   11.6413  -17.5470   25.2724 O   0  0  0  0  0  0  0  0  0  0  0  0
  2  1  1  1
  2  3  1  0
  2 13  1  0
  3  4  1  0
  4  5  2  0
  6  5  1  0
  7  6  1  0
  8  7  2  0
  9  8  1  0
 10  9  2  0
 10 11  1  0
 11 12  2  0
 12  7  1  0
 12  4  1  0
 13 14  2  0
 15 16  1  0
 16 17  2  0
 19 18  1  1
 18 16  1  0
 20 13  1  0
 20 19  1  0
 21 22  2  0
 21 19  1  0
 23 24  1  0
 24 26  1  0
 24 25  2  0
 27 26  1  1
 27 28  1  0
 28 21  1  0
 29 27  1  0
 29 30  1  0
 31 29  2  0
M  END
$$$$
