WNN.pdb
     RDKit          3D

 31 32  0  0  1  0  0  0  0  0999 V2000
    6.6033  -17.7490   23.8047 N   0  0  0  0  0  0  0  0  0  0  0  0
    7.4582  -16.6673   23.2951 C   0  0  1  0  0  0  0  0  0  0  0  0
    8.2901  -16.1507   24.4587 C   0  0  0  0  0  0  0  0  0  0  0  0
    7.4028  -15.2698   25.2642 C   0  0  0  0  0  0  0  0  0  0  0  0
    6.4169  -15.7050   26.1228 C   0  0  0  0  0  0  0  0  0  0  0  0
    5.8294  -14.5987   26.6619 N   0  0  0  0  0  0  0  0  0  0  0  0
    6.4017  -13.4811   26.1809 C   0  0  0  0  0  0  0  0  0  0  0  0
    6.1599  -12.1305   26.4231 C   0  0  0  0  0  0  0  0  0  0  0  0
    6.9235  -11.1804   25.7733 C   0  0  0  0  0  0  0  0  0  0  0  0
    7.9172  -11.5752   24.8914 C   0  0  0  0  0  0  0  0  0  0  0  0
    8.1345  -12.9355   24.6703 C   0  0  0  0  0  0  0  0  0  0  0  0
    7.3828  -13.8935   25.3095 C   0  0  0  0  0  0  0  0  0  0  0  0
    8.2991  -17.1757   22.1926 C   0  0  0  0  0  0  0  0  0  0  0  0
    8.6197  -18.4127   22.2211 O   0  0  0  0  0  0  0  0  0  0  0  0
    7.3889  -17.6119   18.5317 N   0  0  0  0  0  0  0  0  0  0  0  0
    8.2124  -16.5687   18.0460 C   0  0  0  0  0  0  0  0  0  0  0  0
    7.8635  -15.9517   17.0169 O   0  0  0  0  0  0  0  0  0  0  0  0
    9.4482  -16.2269   18.7424 C   0  0  0  0  0  0  0  0  0  0  0  0
    9.6274  -16.9809   20.0660 C   0  0  2  0  0  0  0  0  0  0  0  0
    8.7863  -16.4224   21.1028 N   0  0  0  0  0  0  0  0  0  0  0  0
   11.0619  -16.9783   20.4279 C   0  0  0  0  0  0  0  0  0  0  0  0
   11.9364  -17.5185   19.6664 O   0  0  0  0  0  0  0  0  0  0  0  0
   13.0596  -13.8268   19.9553 N   0  0  0  0  0  0  0  0  0  0  0  0
   13.8848  -14.8119   20.5497 C   0  0  0  0  0  0  0  0  0  0  0  0
   14.7836  -15.3478   19.8683 O   0  0  0  0  0  0  0  0  0  0  0  0
   13.6989  -15.2102   21.9495 C   0  0  0  0  0  0  0  0  0  0  0  0
   12.9943  -16.5500   21.9933 C   0  0  2  0  0  0  0  0  0  0  0  0
   11.5958  -16.3986   21.6075 N   0  0  0  0  0  0  0  0  0  0  0  0
   13.1468  -17.1787   23.2975 C   0  0  0  0  0  0  0  0  0  0  0  0
   12.6283  -16.5423   24.4298 O   0  0  0  0  0  0  0  0  0  0  0  0
   13.7210  -18.2692   23.4778 O   0  0  0  0  0  0  0  0  0  0  0  0
  2  1  1  1
  2  3  1  0
  2 13  1  0
  3  4  1  0
  4  5  2  0
  6  5  1  0
  7  6  1  0
  8  7  2  0
  9  8  1  0
 10  9  2  0
 10 11  1  0
 11 12  2  0
 12  7  1  0
 12  4  1  0
 13 14  2  0
 15 16  1  0
 16 17  2  0
 19 18  1  6
 18 16  1  0
 20 13  1  0
 20 19  1  0
 21 22  2  0
 21 19  1  0
 23 24  1  0
 24 26  1  0
 24 25  2  0
 27 26  1  1
 27 28  1  0
 28 21  1  0
 29 27  1  0
 29 30  1  0
 31 29  2  0
M  END
$$$$
