WNN.pdb
     RDKit          3D

 31 32  0  0  1  0  0  0  0  0999 V2000
    7.4696  -17.1736   24.1542 N   0  0  0  0  0  0  0  0  0  0  0  0
    8.6552  -16.3307   23.9435 C   0  0  1  0  0  0  0  0  0  0  0  0
    8.8804  -15.5266   25.2146 C   0  0  0  0  0  0  0  0  0  0  0  0
    7.5623  -14.9574   25.6028 C   0  0  0  0  0  0  0  0  0  0  0  0
    6.3887  -15.6709   25.7116 C   0  0  0  0  0  0  0  0  0  0  0  0
    5.4121  -14.7940   26.0814 N   0  0  0  0  0  0  0  0  0  0  0  0
    5.9178  -13.5550   26.2115 C   0  0  0  0  0  0  0  0  0  0  0  0
    5.3330  -12.3409   26.5657 C   0  0  0  0  0  0  0  0  0  0  0  0
    6.1162  -11.2044   26.6206 C   0  0  0  0  0  0  0  0  0  0  0  0
    7.4682  -11.2800   26.3250 C   0  0  0  0  0  0  0  0  0  0  0  0
    8.0237  -12.5106   25.9736 C   0  0  0  0  0  0  0  0  0  0  0  0
    7.2574  -13.6511   25.9143 C   0  0  0  0  0  0  0  0  0  0  0  0
    9.8162  -17.1802   23.6096 C   0  0  0  0  0  0  0  0  0  0  0  0
    9.6305  -18.1237   22.7676 O   0  0  0  0  0  0  0  0  0  0  0  0
   13.7890  -17.3430   20.5369 N   0  0  0  0  0  0  0  0  0  0  0  0
   13.4837  -16.2104   21.3284 C   0  0  0  0  0  0  0  0  0  0  0  0
   14.2680  -15.2377   21.3208 O   0  0  0  0  0  0  0  0  0  0  0  0
   12.2701  -16.1887   22.1381 C   0  0  0  0  0  0  0  0  0  0  0  0
   12.3148  -17.1598   23.3246 C   0  0  2  0  0  0  0  0  0  0  0  0
   11.1203  -17.0499   24.1341 N   0  0  0  0  0  0  0  0  0  0  0  0
   13.5541  -16.9169   24.0954 C   0  0  0  0  0  0  0  0  0  0  0  0
   14.7050  -17.0303   23.5487 O   0  0  0  0  0  0  0  0  0  0  0  0
   12.5809  -15.8154   28.1097 N   0  0  0  0  0  0  0  0  0  0  0  0
   12.0901  -17.1370   27.9784 C   0  0  0  0  0  0  0  0  0  0  0  0
   11.0497  -17.4651   28.5862 O   0  0  0  0  0  0  0  0  0  0  0  0
   12.7842  -18.1220   27.1416 C   0  0  0  0  0  0  0  0  0  0  0  0
   14.0003  -17.4709   26.5165 C   0  0  2  0  0  0  0  0  0  0  0  0
   13.5939  -16.5463   25.4641 N   0  0  0  0  0  0  0  0  0  0  0  0
   14.9446  -18.4727   26.0430 C   0  0  0  0  0  0  0  0  0  0  0  0
   16.1509  -18.6548   26.7269 O   0  0  0  0  0  0  0  0  0  0  0  0
   14.7471  -19.1948   25.0475 O   0  0  0  0  0  0  0  0  0  0  0  0
  2  1  1  1
  2  3  1  0
  2 13  1  0
  3  4  1  0
  4  5  2  0
  6  5  1  0
  7  6  1  0
  8  7  2  0
  9  8  1  0
 10  9  2  0
 10 11  1  0
 11 12  2  0
 12  7  1  0
 12  4  1  0
 13 14  2  0
 15 16  1  0
 16 17  2  0
 19 18  1  6
 18 16  1  0
 20 13  1  0
 20 19  1  0
 21 22  2  0
 21 19  1  0
 23 24  1  0
 24 26  1  0
 24 25  2  0
 27 26  1  6
 27 28  1  0
 28 21  1  0
 29 27  1  0
 29 30  1  0
 31 29  2  0
M  END
$$$$
