END.pdb
     RDKit          3D

 26 25  0  0  1  0  0  0  0  0999 V2000
    8.9959  -15.5851   14.4391 N   0  0  0  0  0  0  0  0  0  0  0  0
    9.2031  -16.2160   15.7282 C   0  0  1  0  0  0  0  0  0  0  0  0
   10.3314  -17.2260   15.6581 C   0  0  0  0  0  0  0  0  0  0  0  0
   10.7651  -17.5840   14.2829 C   0  0  0  0  0  0  0  0  0  0  0  0
   12.1844  -17.4324   14.0122 C   0  0  0  0  0  0  0  0  0  0  0  0
   12.6642  -16.4225   13.4468 O   0  0  0  0  0  0  0  0  0  0  0  0
    9.7263  -15.1495   16.6526 C   0  0  0  0  0  0  0  0  0  0  0  0
    9.9264  -14.0332   16.1772 O   0  0  0  0  0  0  0  0  0  0  0  0
   13.0702  -18.4294   14.3835 O   0  0  0  0  0  0  0  0  0  0  0  0
    7.4389  -12.2591   18.8354 N   0  0  0  0  0  0  0  0  0  0  0  0
    7.4468  -13.6007   18.4104 C   0  0  0  0  0  0  0  0  0  0  0  0
    7.0280  -13.8197   17.2140 O   0  0  0  0  0  0  0  0  0  0  0  0
    7.8955  -14.7276   19.2400 C   0  0  0  0  0  0  0  0  0  0  0  0
    9.3875  -14.9643   19.1766 C   0  0  2  0  0  0  0  0  0  0  0  0
    9.9769  -15.4100   17.9972 N   0  0  0  0  0  0  0  0  0  0  0  0
    9.8602  -15.5236   20.4473 C   0  0  0  0  0  0  0  0  0  0  0  0
    9.2648  -15.2569   21.5526 O   0  0  0  0  0  0  0  0  0  0  0  0
   10.9789  -16.3785   20.5485 N   0  0  0  0  0  0  0  0  0  0  0  0
   11.6911  -16.5307   21.8128 C   0  0  1  0  0  0  0  0  0  0  0  0
   12.5150  -15.2830   21.9953 C   0  0  0  0  0  0  0  0  0  0  0  0
   13.7516  -15.3939   21.2070 C   0  0  0  0  0  0  0  0  0  0  0  0
   14.6094  -16.2476   21.5399 O   0  0  0  0  0  0  0  0  0  0  0  0
   10.7661  -16.8122   22.9178 C   0  0  0  0  0  0  0  0  0  0  0  0
   10.8221  -17.8452   23.6146 O   0  0  0  0  0  0  0  0  0  0  0  0
   13.9462  -14.5598   20.1188 O   0  0  0  0  0  0  0  0  0  0  0  0
    9.7742  -15.8660   23.1963 O   0  0  0  0  0  0  0  0  0  0  0  0
  2  1  1  6
  2  7  1  0
  3  2  1  0
  4  3  1  0
  5  6  2  0
  5  4  1  0
  7  8  2  0
  9  5  1  0
 10 11  1  0
 11 13  1  0
 12 11  2  0
 14 13  1  6
 15  7  1  0
 15 14  1  0
 16 14  1  0
 16 17  2  0
 18 16  1  0
 19 18  1  0
 19 20  1  1
 21 20  1  0
 21 25  1  0
 22 21  2  0
 23 26  1  0
 23 19  1  0
 24 23  2  0
M  END
$$$$
