END.pdb
     RDKit          3D

 26 25  0  0  1  0  0  0  0  0999 V2000
    7.6534  -12.9092   17.1051 N   0  0  0  0  0  0  0  0  0  0  0  0
    7.6094  -14.1762   17.8091 C   0  0  1  0  0  0  0  0  0  0  0  0
    8.2046  -15.2835   16.9621 C   0  0  0  0  0  0  0  0  0  0  0  0
    9.0333  -14.8197   15.8195 C   0  0  0  0  0  0  0  0  0  0  0  0
    9.5550  -15.8653   14.9563 C   0  0  0  0  0  0  0  0  0  0  0  0
   10.4817  -16.6335   15.3036 O   0  0  0  0  0  0  0  0  0  0  0  0
    8.5576  -14.0578   18.9722 C   0  0  0  0  0  0  0  0  0  0  0  0
    9.4421  -13.2065   18.9003 O   0  0  0  0  0  0  0  0  0  0  0  0
    9.0255  -16.0457   13.6900 O   0  0  0  0  0  0  0  0  0  0  0  0
    9.8926  -14.3046   24.5115 N   0  0  0  0  0  0  0  0  0  0  0  0
    9.4004  -15.3600   23.7213 C   0  0  0  0  0  0  0  0  0  0  0  0
    9.8033  -16.5405   24.0357 O   0  0  0  0  0  0  0  0  0  0  0  0
    8.4782  -15.1851   22.5906 C   0  0  0  0  0  0  0  0  0  0  0  0
    9.1810  -14.9897   21.2661 C   0  0  2  0  0  0  0  0  0  0  0  0
    8.4436  -14.8785   20.0911 N   0  0  0  0  0  0  0  0  0  0  0  0
   10.4234  -15.7687   21.2390 C   0  0  0  0  0  0  0  0  0  0  0  0
   10.4070  -17.0483   21.3366 O   0  0  0  0  0  0  0  0  0  0  0  0
   11.7012  -15.1839   21.1053 N   0  0  0  0  0  0  0  0  0  0  0  0
   12.9089  -15.9969   21.2023 C   0  0  1  0  0  0  0  0  0  0  0  0
   14.0273  -15.1778   20.6129 C   0  0  0  0  0  0  0  0  0  0  0  0
   13.7845  -14.9812   19.1758 C   0  0  0  0  0  0  0  0  0  0  0  0
   13.3895  -15.9541   18.4881 O   0  0  0  0  0  0  0  0  0  0  0  0
   13.1459  -16.4410   22.5817 C   0  0  0  0  0  0  0  0  0  0  0  0
   12.4113  -16.1284   23.5400 O   0  0  0  0  0  0  0  0  0  0  0  0
   13.9947  -13.7345   18.6109 O   0  0  0  0  0  0  0  0  0  0  0  0
   14.2558  -17.2574   22.8233 O   0  0  0  0  0  0  0  0  0  0  0  0
  2  1  1  6
  2  7  1  0
  3  2  1  0
  4  3  1  0
  5  6  2  0
  5  4  1  0
  7  8  2  0
  9  5  1  0
 10 11  1  0
 11 13  1  0
 12 11  2  0
 14 13  1  1
 15  7  1  0
 15 14  1  0
 16 14  1  0
 16 17  2  0
 18 16  1  0
 19 18  1  0
 19 20  1  1
 21 20  1  0
 21 25  1  0
 22 21  2  0
 23 26  1  0
 23 19  1  0
 24 23  2  0
M  END
$$$$
