END.pdb
     RDKit          3D

 26 25  0  0  1  0  0  0  0  0999 V2000
    8.6423  -17.4341   21.2738 N   0  0  0  0  0  0  0  0  0  0  0  0
   10.0197  -17.3117   21.7103 C   0  0  1  0  0  0  0  0  0  0  0  0
   10.9061  -16.8486   20.5711 C   0  0  0  0  0  0  0  0  0  0  0  0
   10.6060  -17.4675   19.2542 C   0  0  0  0  0  0  0  0  0  0  0  0
   11.4044  -16.9894   18.1386 C   0  0  0  0  0  0  0  0  0  0  0  0
   11.1123  -15.9608   17.4857 O   0  0  0  0  0  0  0  0  0  0  0  0
   10.0627  -16.1714   22.6918 C   0  0  0  0  0  0  0  0  0  0  0  0
   11.1667  -15.7180   22.9886 O   0  0  0  0  0  0  0  0  0  0  0  0
   12.5429  -17.6782   17.7569 O   0  0  0  0  0  0  0  0  0  0  0  0
    7.7601  -11.8359   25.9588 N   0  0  0  0  0  0  0  0  0  0  0  0
    7.3537  -13.1411   25.6243 C   0  0  0  0  0  0  0  0  0  0  0  0
    6.7302  -13.7940   26.5407 O   0  0  0  0  0  0  0  0  0  0  0  0
    7.5989  -13.7744   24.3211 C   0  0  0  0  0  0  0  0  0  0  0  0
    8.6560  -14.8546   24.3670 C   0  0  2  0  0  0  0  0  0  0  0  0
    8.8999  -15.6445   23.2475 N   0  0  0  0  0  0  0  0  0  0  0  0
    8.6607  -15.4946   25.6867 C   0  0  0  0  0  0  0  0  0  0  0  0
    7.6865  -16.2383   26.0675 O   0  0  0  0  0  0  0  0  0  0  0  0
    9.7131  -15.3456   26.6157 N   0  0  0  0  0  0  0  0  0  0  0  0
    9.8592  -16.2712   27.7340 C   0  0  1  0  0  0  0  0  0  0  0  0
   10.8217  -17.3395   27.2852 C   0  0  0  0  0  0  0  0  0  0  0  0
   11.0425  -18.2917   28.3841 C   0  0  0  0  0  0  0  0  0  0  0  0
   10.0475  -18.8019   28.9544 O   0  0  0  0  0  0  0  0  0  0  0  0
   10.2615  -15.5704   28.9600 C   0  0  0  0  0  0  0  0  0  0  0  0
   10.4734  -14.3423   29.0114 O   0  0  0  0  0  0  0  0  0  0  0  0
   12.3355  -18.6061   28.7673 O   0  0  0  0  0  0  0  0  0  0  0  0
   10.4116  -16.3283   30.1261 O   0  0  0  0  0  0  0  0  0  0  0  0
  2  1  1  6
  2  7  1  0
  3  2  1  0
  4  3  1  0
  5  6  2  0
  5  4  1  0
  7  8  2  0
  9  5  1  0
 10 11  1  0
 11 13  1  0
 12 11  2  0
 14 13  1  6
 15  7  1  0
 15 14  1  0
 16 14  1  0
 16 17  2  0
 18 16  1  0
 19 18  1  0
 19 20  1  6
 21 20  1  0
 21 25  1  0
 22 21  2  0
 23 26  1  0
 23 19  1  0
 24 23  2  0
M  END
$$$$
