END.pdb
     RDKit          3D

 26 25  0  0  1  0  0  0  0  0999 V2000
    9.4468  -17.6275   17.6556 N   0  0  0  0  0  0  0  0  0  0  0  0
   10.6864  -16.8833   17.5445 C   0  0  1  0  0  0  0  0  0  0  0  0
   10.7117  -16.0671   16.2673 C   0  0  0  0  0  0  0  0  0  0  0  0
   10.6660  -16.8650   15.0148 C   0  0  0  0  0  0  0  0  0  0  0  0
   10.7882  -16.1065   13.7818 C   0  0  0  0  0  0  0  0  0  0  0  0
    9.9806  -16.2209   12.8309 O   0  0  0  0  0  0  0  0  0  0  0  0
   10.6691  -15.8485   18.6375 C   0  0  0  0  0  0  0  0  0  0  0  0
   11.6975  -15.2001   18.8229 O   0  0  0  0  0  0  0  0  0  0  0  0
   11.8312  -15.2105   13.6209 O   0  0  0  0  0  0  0  0  0  0  0  0
    7.3299  -12.5248   18.6600 N   0  0  0  0  0  0  0  0  0  0  0  0
    7.3653  -13.7833   19.2890 C   0  0  0  0  0  0  0  0  0  0  0  0
    6.8118  -14.7530   18.6504 O   0  0  0  0  0  0  0  0  0  0  0  0
    7.9840  -14.0357   20.5979 C   0  0  0  0  0  0  0  0  0  0  0  0
    9.2790  -14.8113   20.5113 C   0  0  2  0  0  0  0  0  0  0  0  0
    9.5346  -15.6282   19.4139 N   0  0  0  0  0  0  0  0  0  0  0  0
    9.6656  -15.2904   21.8425 C   0  0  0  0  0  0  0  0  0  0  0  0
    9.6682  -14.5036   22.8565 O   0  0  0  0  0  0  0  0  0  0  0  0
   10.0540  -16.6222   22.1035 N   0  0  0  0  0  0  0  0  0  0  0  0
   10.6570  -16.9881   23.3807 C   0  0  1  0  0  0  0  0  0  0  0  0
   10.2544  -18.4137   23.6538 C   0  0  0  0  0  0  0  0  0  0  0  0
   10.8532  -18.8565   24.9220 C   0  0  0  0  0  0  0  0  0  0  0  0
   12.0122  -19.3381   24.9107 O   0  0  0  0  0  0  0  0  0  0  0  0
   12.1074  -16.7596   23.3730 C   0  0  0  0  0  0  0  0  0  0  0  0
   12.7821  -16.5915   24.4085 O   0  0  0  0  0  0  0  0  0  0  0  0
   10.1322  -18.7351   26.0980 O   0  0  0  0  0  0  0  0  0  0  0  0
   12.7575  -16.7316   22.1347 O   0  0  0  0  0  0  0  0  0  0  0  0
  2  1  1  6
  2  7  1  0
  3  2  1  0
  4  3  1  0
  5  6  2  0
  5  4  1  0
  7  8  2  0
  9  5  1  0
 10 11  1  0
 11 13  1  0
 12 11  2  0
 14 13  1  1
 15  7  1  0
 15 14  1  0
 16 14  1  0
 16 17  2  0
 18 16  1  0
 19 18  1  0
 19 20  1  6
 21 20  1  0
 21 25  1  0
 22 21  2  0
 23 26  1  0
 23 19  1  0
 24 23  2  0
M  END
$$$$
