END.pdb
     RDKit          3D

 26 25  0  0  1  0  0  0  0  0999 V2000
    7.8780  -12.4994   18.5386 N   0  0  0  0  0  0  0  0  0  0  0  0
    7.2955  -13.7494   18.9871 C   0  0  1  0  0  0  0  0  0  0  0  0
    7.6808  -14.8858   18.0609 C   0  0  0  0  0  0  0  0  0  0  0  0
    8.9238  -14.6604   17.2787 C   0  0  0  0  0  0  0  0  0  0  0  0
    9.2794  -15.7160   16.3460 C   0  0  0  0  0  0  0  0  0  0  0  0
    9.6403  -15.4886   15.1680 O   0  0  0  0  0  0  0  0  0  0  0  0
    7.9668  -14.0970   20.2887 C   0  0  0  0  0  0  0  0  0  0  0  0
    9.1294  -13.7279   20.4451 O   0  0  0  0  0  0  0  0  0  0  0  0
    9.2276  -17.0401   16.7468 O   0  0  0  0  0  0  0  0  0  0  0  0
    7.6642  -15.4226   25.8155 N   0  0  0  0  0  0  0  0  0  0  0  0
    7.2381  -16.2695   24.7754 C   0  0  0  0  0  0  0  0  0  0  0  0
    7.3771  -17.5321   24.9784 O   0  0  0  0  0  0  0  0  0  0  0  0
    6.6607  -15.7972   23.5093 C   0  0  0  0  0  0  0  0  0  0  0  0
    7.6947  -15.2934   22.5279 C   0  0  2  0  0  0  0  0  0  0  0  0
    7.3025  -14.8100   21.2831 N   0  0  0  0  0  0  0  0  0  0  0  0
    8.9037  -16.1202   22.6058 C   0  0  0  0  0  0  0  0  0  0  0  0
    9.0454  -17.1605   21.8677 O   0  0  0  0  0  0  0  0  0  0  0  0
    9.9783  -15.8402   23.4773 N   0  0  0  0  0  0  0  0  0  0  0  0
   11.1745  -16.6754   23.4808 C   0  0  1  0  0  0  0  0  0  0  0  0
   12.3079  -15.8055   23.0036 C   0  0  0  0  0  0  0  0  0  0  0  0
   13.5490  -16.5939   22.9707 C   0  0  0  0  0  0  0  0  0  0  0  0
   13.7667  -17.3427   21.9872 O   0  0  0  0  0  0  0  0  0  0  0  0
   11.3952  -17.2891   24.7964 C   0  0  0  0  0  0  0  0  0  0  0  0
   10.8407  -16.8929   25.8411 O   0  0  0  0  0  0  0  0  0  0  0  0
   14.4492  -16.4966   24.0185 O   0  0  0  0  0  0  0  0  0  0  0  0
   12.2743  -18.3746   24.8715 O   0  0  0  0  0  0  0  0  0  0  0  0
  2  1  1  6
  2  7  1  0
  3  2  1  0
  4  3  1  0
  5  6  2  0
  5  4  1  0
  7  8  2  0
  9  5  1  0
 10 11  1  0
 11 13  1  0
 12 11  2  0
 14 13  1  6
 15  7  1  0
 15 14  1  0
 16 14  1  0
 16 17  2  0
 18 16  1  0
 19 18  1  0
 19 20  1  1
 21 20  1  0
 21 25  1  0
 22 21  2  0
 23 26  1  0
 23 19  1  0
 24 23  2  0
M  END
$$$$
