END.pdb
     RDKit          3D

 26 25  0  0  1  0  0  0  0  0999 V2000
    8.3772  -12.2877   18.6293 N   0  0  0  0  0  0  0  0  0  0  0  0
    7.6991  -13.4671   19.1312 C   0  0  1  0  0  0  0  0  0  0  0  0
    7.8557  -14.6283   18.1695 C   0  0  0  0  0  0  0  0  0  0  0  0
    9.2411  -14.8537   17.6823 C   0  0  0  0  0  0  0  0  0  0  0  0
    9.4005  -15.9264   16.7155 C   0  0  0  0  0  0  0  0  0  0  0  0
   10.1780  -16.8924   16.8945 O   0  0  0  0  0  0  0  0  0  0  0  0
    8.4496  -13.9078   20.3593 C   0  0  0  0  0  0  0  0  0  0  0  0
    9.6467  -13.6336   20.4229 O   0  0  0  0  0  0  0  0  0  0  0  0
    8.6753  -15.9088   15.5364 O   0  0  0  0  0  0  0  0  0  0  0  0
    9.2467  -15.7825   25.2208 N   0  0  0  0  0  0  0  0  0  0  0  0
    7.8725  -15.8991   24.9406 C   0  0  0  0  0  0  0  0  0  0  0  0
    7.1290  -16.3102   25.9065 O   0  0  0  0  0  0  0  0  0  0  0  0
    7.2647  -15.5844   23.6401 C   0  0  0  0  0  0  0  0  0  0  0  0
    8.2597  -15.0865   22.6162 C   0  0  2  0  0  0  0  0  0  0  0  0
    7.8186  -14.6007   21.3890 N   0  0  0  0  0  0  0  0  0  0  0  0
    9.4660  -15.9204   22.6436 C   0  0  0  0  0  0  0  0  0  0  0  0
    9.4778  -17.0885   22.1121 O   0  0  0  0  0  0  0  0  0  0  0  0
   10.6772  -15.5104   23.2414 N   0  0  0  0  0  0  0  0  0  0  0  0
   11.8475  -16.3816   23.2322 C   0  0  1  0  0  0  0  0  0  0  0  0
   12.9847  -15.5686   22.6712 C   0  0  0  0  0  0  0  0  0  0  0  0
   14.2016  -16.3933   22.6298 C   0  0  0  0  0  0  0  0  0  0  0  0
   14.0872  -17.6417   22.5680 O   0  0  0  0  0  0  0  0  0  0  0  0
   12.1056  -16.9456   24.5631 C   0  0  0  0  0  0  0  0  0  0  0  0
   13.0933  -17.6602   24.8268 O   0  0  0  0  0  0  0  0  0  0  0  0
   15.4437  -15.7818   22.6597 O   0  0  0  0  0  0  0  0  0  0  0  0
   11.1905  -16.6603   25.5819 O   0  0  0  0  0  0  0  0  0  0  0  0
  2  1  1  6
  2  7  1  0
  3  2  1  0
  4  3  1  0
  5  6  2  0
  5  4  1  0
  7  8  2  0
  9  5  1  0
 10 11  1  0
 11 13  1  0
 12 11  2  0
 14 13  1  6
 15  7  1  0
 15 14  1  0
 16 14  1  0
 16 17  2  0
 18 16  1  0
 19 18  1  0
 19 20  1  1
 21 20  1  0
 21 25  1  0
 22 21  2  0
 23 26  1  0
 23 19  1  0
 24 23  2  0
M  END
$$$$
