END.pdb
     RDKit          3D

 26 25  0  0  1  0  0  0  0  0999 V2000
   12.4649  -21.1645   17.9656 N   0  0  0  0  0  0  0  0  0  0  0  0
   13.5064  -20.1778   17.7548 C   0  0  1  0  0  0  0  0  0  0  0  0
   13.4520  -19.6311   16.3419 C   0  0  0  0  0  0  0  0  0  0  0  0
   12.1011  -19.6311   15.7234 C   0  0  0  0  0  0  0  0  0  0  0  0
   12.0440  -19.1948   14.3388 C   0  0  0  0  0  0  0  0  0  0  0  0
   10.9907  -18.7842   13.7988 O   0  0  0  0  0  0  0  0  0  0  0  0
   13.1607  -18.9933   18.6169 C   0  0  0  0  0  0  0  0  0  0  0  0
   13.8509  -17.9825   18.4975 O   0  0  0  0  0  0  0  0  0  0  0  0
   13.1861  -19.2219   13.5570 O   0  0  0  0  0  0  0  0  0  0  0  0
    8.5862  -18.7119   18.7612 N   0  0  0  0  0  0  0  0  0  0  0  0
    9.4183  -17.7408   19.3488 C   0  0  0  0  0  0  0  0  0  0  0  0
    9.5437  -16.6350   18.7037 O   0  0  0  0  0  0  0  0  0  0  0  0
   10.1284  -17.9226   20.6226 C   0  0  0  0  0  0  0  0  0  0  0  0
   11.6174  -18.1264   20.4570 C   0  0  2  0  0  0  0  0  0  0  0  0
   12.1006  -19.0334   19.5186 N   0  0  0  0  0  0  0  0  0  0  0  0
   12.2809  -18.0539   21.7631 C   0  0  0  0  0  0  0  0  0  0  0  0
   12.5610  -19.1169   22.4254 O   0  0  0  0  0  0  0  0  0  0  0  0
   12.6541  -16.8381   22.3755 N   0  0  0  0  0  0  0  0  0  0  0  0
   13.2523  -16.8245   23.7062 C   0  0  1  0  0  0  0  0  0  0  0  0
   14.1684  -15.6297   23.7538 C   0  0  0  0  0  0  0  0  0  0  0  0
   15.3790  -15.9101   22.9672 C   0  0  0  0  0  0  0  0  0  0  0  0
   16.1707  -14.9693   22.7152 O   0  0  0  0  0  0  0  0  0  0  0  0
   12.2250  -16.8416   24.7552 C   0  0  0  0  0  0  0  0  0  0  0  0
   12.4816  -16.9988   25.9657 O   0  0  0  0  0  0  0  0  0  0  0  0
   15.6219  -17.1984   22.5213 O   0  0  0  0  0  0  0  0  0  0  0  0
   10.8920  -16.6713   24.3668 O   0  0  0  0  0  0  0  0  0  0  0  0
  2  1  1  6
  2  7  1  0
  3  2  1  0
  4  3  1  0
  5  6  2  0
  5  4  1  0
  7  8  2  0
  9  5  1  0
 10 11  1  0
 11 13  1  0
 12 11  2  0
 14 13  1  1
 15  7  1  0
 15 14  1  0
 16 14  1  0
 16 17  2  0
 18 16  1  0
 19 18  1  0
 19 20  1  6
 21 20  1  0
 21 25  1  0
 22 21  2  0
 23 26  1  0
 23 19  1  0
 24 23  2  0
M  END
$$$$
