END.pdb
     RDKit          3D

 26 25  0  0  1  0  0  0  0  0999 V2000
   11.3533  -16.1273   16.0213 N   0  0  0  0  0  0  0  0  0  0  0  0
   10.4867  -16.6328   17.0683 C   0  0  1  0  0  0  0  0  0  0  0  0
   11.0065  -17.9507   17.6078 C   0  0  0  0  0  0  0  0  0  0  0  0
   12.3748  -17.8939   18.1840 C   0  0  0  0  0  0  0  0  0  0  0  0
   12.9347  -19.1683   18.6001 C   0  0  0  0  0  0  0  0  0  0  0  0
   14.0102  -19.6197   18.1427 O   0  0  0  0  0  0  0  0  0  0  0  0
   10.6165  -15.6866   18.2317 C   0  0  0  0  0  0  0  0  0  0  0  0
   11.7030  -15.1347   18.3972 O   0  0  0  0  0  0  0  0  0  0  0  0
   12.2749  -19.9398   19.5415 O   0  0  0  0  0  0  0  0  0  0  0  0
    7.1405  -12.2568   18.9713 N   0  0  0  0  0  0  0  0  0  0  0  0
    7.3469  -13.5924   19.3637 C   0  0  0  0  0  0  0  0  0  0  0  0
    6.8296  -14.4934   18.6052 O   0  0  0  0  0  0  0  0  0  0  0  0
    8.1003  -13.9954   20.5594 C   0  0  0  0  0  0  0  0  0  0  0  0
    9.4173  -14.6670   20.2421 C   0  0  2  0  0  0  0  0  0  0  0  0
    9.5505  -15.4406   19.0929 N   0  0  0  0  0  0  0  0  0  0  0  0
   10.0487  -15.1401   21.4785 C   0  0  0  0  0  0  0  0  0  0  0  0
    9.9931  -14.4494   22.5588 O   0  0  0  0  0  0  0  0  0  0  0  0
   10.7478  -16.3628   21.5721 N   0  0  0  0  0  0  0  0  0  0  0  0
   11.5151  -16.6953   22.7678 C   0  0  1  0  0  0  0  0  0  0  0  0
   11.1527  -18.1114   23.1315 C   0  0  0  0  0  0  0  0  0  0  0  0
   11.9204  -18.5237   24.3162 C   0  0  0  0  0  0  0  0  0  0  0  0
   13.1731  -18.4528   24.2828 O   0  0  0  0  0  0  0  0  0  0  0  0
   12.9516  -16.4721   22.5613 C   0  0  0  0  0  0  0  0  0  0  0  0
   13.6995  -15.9682   23.4231 O   0  0  0  0  0  0  0  0  0  0  0  0
   11.2518  -18.9798   25.4398 O   0  0  0  0  0  0  0  0  0  0  0  0
   13.5008  -16.8481   21.3310 O   0  0  0  0  0  0  0  0  0  0  0  0
  2  1  1  6
  2  7  1  0
  3  2  1  0
  4  3  1  0
  5  6  2  0
  5  4  1  0
  7  8  2  0
  9  5  1  0
 10 11  1  0
 11 13  1  0
 12 11  2  0
 14 13  1  1
 15  7  1  0
 15 14  1  0
 16 14  1  0
 16 17  2  0
 18 16  1  0
 19 18  1  0
 19 20  1  6
 21 20  1  0
 21 25  1  0
 22 21  2  0
 23 26  1  0
 23 19  1  0
 24 23  2  0
M  END
$$$$
