ENG.pdb
     RDKit          3D

 22 21  0  0  1  0  0  0  0  0999 V2000
   28.0734  -12.0740  -18.9927 N   0  0  0  0  0  0  0  0  0  0  0  0
   28.5661  -12.4185  -17.6834 C   0  0  1  0  0  0  0  0  0  0  0  0
   28.2272  -13.8391  -17.3667 C   0  0  0  0  0  0  0  0  0  0  0  0
   26.8615  -14.2188  -17.8647 C   0  0  0  0  0  0  0  0  0  0  0  0
   26.5468  -15.5988  -17.4770 C   0  0  0  0  0  0  0  0  0  0  0  0
   26.8544  -16.5220  -18.2776 O   0  0  0  0  0  0  0  0  0  0  0  0
   30.0170  -12.1323  -17.5251 C   0  0  0  0  0  0  0  0  0  0  0  0
   30.5989  -12.3654  -16.4529 O   0  0  0  0  0  0  0  0  0  0  0  0
   25.9335  -15.9607  -16.2887 O   0  0  0  0  0  0  0  0  0  0  0  0
   33.3801  -14.3538  -18.3085 N   0  0  0  0  0  0  0  0  0  0  0  0
   32.7963  -13.6313  -19.3563 C   0  0  0  0  0  0  0  0  0  0  0  0
   32.1025  -14.2893  -20.1997 O   0  0  0  0  0  0  0  0  0  0  0  0
   32.8962  -12.1931  -19.5906 C   0  0  0  0  0  0  0  0  0  0  0  0
   32.1659  -11.3476  -18.5949 C   0  0  2  0  0  0  0  0  0  0  0  0
   30.7414  -11.5937  -18.5950 N   0  0  0  0  0  0  0  0  0  0  0  0
   32.5055   -9.9213  -18.6779 C   0  0  0  0  0  0  0  0  0  0  0  0
   33.6800   -9.5285  -18.7495 O   0  0  0  0  0  0  0  0  0  0  0  0
   31.4515   -8.9713  -18.6751 N   0  0  0  0  0  0  0  0  0  0  0  0
   31.6721   -7.5534  -18.7288 C   0  0  0  0  0  0  0  0  0  0  0  0
   31.4692   -6.9796  -17.3849 C   0  0  0  0  0  0  0  0  0  0  0  0
   31.4683   -5.6310  -17.1885 O   0  0  0  0  0  0  0  0  0  0  0  0
   31.2950   -7.7512  -16.4120 O   0  0  0  0  0  0  0  0  0  0  0  0
  2  1  1  6
  2  7  1  0
  2  3  1  0
  3  4  1  0
  4  5  1  0
  5  9  1  0
  6  5  2  0
  7 15  1  0
  8  7  2  0
 10 11  1  0
 11 13  1  0
 12 11  2  0
 14 13  1  6
 14 16  1  0
 15 14  1  0
 16 18  1  0
 16 17  2  0
 18 19  1  0
 19 20  1  0
 20 21  1  0
 22 20  2  0
M  END
$$$$
