ENG.pdb
     RDKit          3D

 22 21  0  0  1  0  0  0  0  0999 V2000
   28.6006  -21.1297  -16.3443 N   0  0  0  0  0  0  0  0  0  0  0  0
   27.9519  -20.1783  -15.4783 C   0  0  1  0  0  0  0  0  0  0  0  0
   27.3266  -19.0908  -16.2904 C   0  0  0  0  0  0  0  0  0  0  0  0
   28.3176  -18.0267  -16.6686 C   0  0  0  0  0  0  0  0  0  0  0  0
   28.6733  -18.1471  -18.0873 C   0  0  0  0  0  0  0  0  0  0  0  0
   27.7843  -18.5440  -18.8874 O   0  0  0  0  0  0  0  0  0  0  0  0
   26.9848  -20.8191  -14.5476 C   0  0  0  0  0  0  0  0  0  0  0  0
   26.3617  -21.8406  -14.8805 O   0  0  0  0  0  0  0  0  0  0  0  0
   29.9213  -17.8539  -18.6120 O   0  0  0  0  0  0  0  0  0  0  0  0
   24.1735  -21.7834  -10.1058 N   0  0  0  0  0  0  0  0  0  0  0  0
   25.3119  -20.9980   -9.8868 C   0  0  0  0  0  0  0  0  0  0  0  0
   25.5915  -20.7047   -8.6779 O   0  0  0  0  0  0  0  0  0  0  0  0
   26.2224  -20.4734  -10.9013 C   0  0  0  0  0  0  0  0  0  0  0  0
   25.8109  -20.7542  -12.3125 C   0  0  2  0  0  0  0  0  0  0  0  0
   26.7702  -20.2684  -13.2786 N   0  0  0  0  0  0  0  0  0  0  0  0
   24.4324  -20.3458  -12.6120 C   0  0  0  0  0  0  0  0  0  0  0  0
   24.1016  -19.1524  -12.6851 O   0  0  0  0  0  0  0  0  0  0  0  0
   23.4564  -21.3540  -12.8225 N   0  0  0  0  0  0  0  0  0  0  0  0
   22.1807  -21.0976  -13.4300 C   0  0  0  0  0  0  0  0  0  0  0  0
   21.1642  -20.9341  -12.3733 C   0  0  0  0  0  0  0  0  0  0  0  0
   21.2101  -19.8807  -11.5098 O   0  0  0  0  0  0  0  0  0  0  0  0
   20.2455  -21.7817  -12.2741 O   0  0  0  0  0  0  0  0  0  0  0  0
  2  1  1  6
  2  7  1  0
  2  3  1  0
  3  4  1  0
  4  5  1  0
  5  9  1  0
  6  5  2  0
  7 15  1  0
  8  7  2  0
 10 11  1  0
 11 13  1  0
 12 11  2  0
 14 13  1  1
 14 16  1  0
 15 14  1  0
 16 18  1  0
 16 17  2  0
 18 19  1  0
 19 20  1  0
 20 21  1  0
 22 20  2  0
M  END
$$$$
