ENG.pdb
     RDKit          3D

 22 21  0  0  1  0  0  0  0  0999 V2000
   26.2283  -14.0387  -14.7127 N   0  0  0  0  0  0  0  0  0  0  0  0
   25.8466  -13.4978  -15.9924 C   0  0  1  0  0  0  0  0  0  0  0  0
   25.8548  -14.5763  -17.0267 C   0  0  0  0  0  0  0  0  0  0  0  0
   26.3951  -15.8710  -16.4890 C   0  0  0  0  0  0  0  0  0  0  0  0
   26.3499  -16.9084  -17.5261 C   0  0  0  0  0  0  0  0  0  0  0  0
   26.7794  -18.0561  -17.2325 O   0  0  0  0  0  0  0  0  0  0  0  0
   24.5505  -12.7699  -15.9418 C   0  0  0  0  0  0  0  0  0  0  0  0
   24.1033  -12.1950  -16.9477 O   0  0  0  0  0  0  0  0  0  0  0  0
   25.8665  -16.7155  -18.8098 O   0  0  0  0  0  0  0  0  0  0  0  0
   21.3675  -15.3509  -13.7080 N   0  0  0  0  0  0  0  0  0  0  0  0
   21.2142  -14.0945  -14.3069 C   0  0  0  0  0  0  0  0  0  0  0  0
   20.6914  -14.0650  -15.4694 O   0  0  0  0  0  0  0  0  0  0  0  0
   21.5910  -12.8022  -13.7399 C   0  0  0  0  0  0  0  0  0  0  0  0
   22.5726  -12.0249  -14.5595 C   0  0  2  0  0  0  0  0  0  0  0  0
   23.8209  -12.7292  -14.7478 N   0  0  0  0  0  0  0  0  0  0  0  0
   22.7536  -10.6421  -14.0993 C   0  0  0  0  0  0  0  0  0  0  0  0
   23.3941  -10.3698  -13.0725 O   0  0  0  0  0  0  0  0  0  0  0  0
   22.1743   -9.5927  -14.8587 N   0  0  0  0  0  0  0  0  0  0  0  0
   22.2786   -8.2081  -14.4924 C   0  0  0  0  0  0  0  0  0  0  0  0
   21.6502   -7.3806  -15.5396 C   0  0  0  0  0  0  0  0  0  0  0  0
   21.5805   -6.0249  -15.4177 O   0  0  0  0  0  0  0  0  0  0  0  0
   21.1747   -7.9401  -16.5560 O   0  0  0  0  0  0  0  0  0  0  0  0
  2  1  1  1
  2  7  1  0
  2  3  1  0
  3  4  1  0
  4  5  1  0
  5  9  1  0
  6  5  2  0
  7 15  1  0
  8  7  2  0
 10 11  1  0
 11 13  1  0
 12 11  2  0
 14 13  1  1
 14 16  1  0
 15 14  1  0
 16 18  1  0
 16 17  2  0
 18 19  1  0
 19 20  1  0
 20 21  1  0
 22 20  2  0
M  END
$$$$
