ENG.pdb
     RDKit          3D

 22 21  0  0  1  0  0  0  0  0999 V2000
   17.4301  -12.8094  -16.6025 N   0  0  0  0  0  0  0  0  0  0  0  0
   18.2566  -12.1762  -15.6065 C   0  0  1  0  0  0  0  0  0  0  0  0
   19.5937  -12.8413  -15.5532 C   0  0  0  0  0  0  0  0  0  0  0  0
   19.9935  -13.4142  -16.8833 C   0  0  0  0  0  0  0  0  0  0  0  0
   21.3527  -13.9628  -16.8106 C   0  0  0  0  0  0  0  0  0  0  0  0
   22.3107  -13.2128  -17.1388 O   0  0  0  0  0  0  0  0  0  0  0  0
   18.3618  -10.7055  -15.8018 C   0  0  0  0  0  0  0  0  0  0  0  0
   18.4086  -10.2162  -16.9424 O   0  0  0  0  0  0  0  0  0  0  0  0
   21.6593  -15.2513  -16.4048 O   0  0  0  0  0  0  0  0  0  0  0  0
   15.3256   -6.8623  -15.4199 N   0  0  0  0  0  0  0  0  0  0  0  0
   16.1171   -7.8757  -14.8654 C   0  0  0  0  0  0  0  0  0  0  0  0
   15.7062   -9.0748  -15.0033 O   0  0  0  0  0  0  0  0  0  0  0  0
   17.3735   -7.7075  -14.1399 C   0  0  0  0  0  0  0  0  0  0  0  0
   18.5426   -8.4187  -14.7457 C   0  0  2  0  0  0  0  0  0  0  0  0
   18.4086   -9.8569  -14.6895 N   0  0  0  0  0  0  0  0  0  0  0  0
   19.8394   -7.9397  -14.2501 C   0  0  0  0  0  0  0  0  0  0  0  0
   20.2618   -8.2356  -13.1219 O   0  0  0  0  0  0  0  0  0  0  0  0
   20.6258   -7.1140  -15.0946 N   0  0  0  0  0  0  0  0  0  0  0  0
   21.9595   -6.6966  -14.7642 C   0  0  0  0  0  0  0  0  0  0  0  0
   21.8939   -5.5673  -13.8172 C   0  0  0  0  0  0  0  0  0  0  0  0
   23.0286   -4.9966  -13.3229 O   0  0  0  0  0  0  0  0  0  0  0  0
   20.7725   -5.1300  -13.4659 O   0  0  0  0  0  0  0  0  0  0  0  0
  2  1  1  6
  2  7  1  0
  2  3  1  0
  3  4  1  0
  4  5  1  0
  5  9  1  0
  6  5  2  0
  7 15  1  0
  8  7  2  0
 10 11  1  0
 11 13  1  0
 12 11  2  0
 14 13  1  1
 14 16  1  0
 15 14  1  0
 16 18  1  0
 16 17  2  0
 18 19  1  0
 19 20  1  0
 20 21  1  0
 22 20  2  0
M  END
$$$$
