ENG.pdb
     RDKit          3D

 22 21  0  0  1  0  0  0  0  0999 V2000
   18.1123  -11.3709  -17.9525 N   0  0  0  0  0  0  0  0  0  0  0  0
   17.4595  -10.7221  -16.8440 C   0  0  1  0  0  0  0  0  0  0  0  0
   17.4540  -11.6254  -15.6536 C   0  0  0  0  0  0  0  0  0  0  0  0
   16.7649  -12.9300  -15.9373 C   0  0  0  0  0  0  0  0  0  0  0  0
   16.9918  -13.8727  -14.8357 C   0  0  0  0  0  0  0  0  0  0  0  0
   17.6968  -13.4878  -13.8647 O   0  0  0  0  0  0  0  0  0  0  0  0
   18.0403   -9.3869  -16.5404 C   0  0  0  0  0  0  0  0  0  0  0  0
   19.0372   -8.9716  -17.1537 O   0  0  0  0  0  0  0  0  0  0  0  0
   16.4839  -15.1606  -14.7864 O   0  0  0  0  0  0  0  0  0  0  0  0
   15.9069   -4.9840  -16.9531 N   0  0  0  0  0  0  0  0  0  0  0  0
   15.8683   -6.0840  -16.0875 C   0  0  0  0  0  0  0  0  0  0  0  0
   14.9845   -6.9736  -16.3177 O   0  0  0  0  0  0  0  0  0  0  0  0
   16.7381   -6.3257  -14.9393 C   0  0  0  0  0  0  0  0  0  0  0  0
   17.8871   -7.2452  -15.2109 C   0  0  2  0  0  0  0  0  0  0  0  0
   17.4599   -8.5834  -15.5519 N   0  0  0  0  0  0  0  0  0  0  0  0
   18.9185   -7.2169  -14.1659 C   0  0  0  0  0  0  0  0  0  0  0  0
   18.8184   -7.8850  -13.1255 O   0  0  0  0  0  0  0  0  0  0  0  0
   20.0604   -6.3975  -14.3612 N   0  0  0  0  0  0  0  0  0  0  0  0
   21.2176   -6.4478  -13.5124 C   0  0  0  0  0  0  0  0  0  0  0  0
   22.2503   -5.5392  -14.0456 C   0  0  0  0  0  0  0  0  0  0  0  0
   23.4103   -5.3163  -13.3658 O   0  0  0  0  0  0  0  0  0  0  0  0
   22.0512   -4.9663  -15.1431 O   0  0  0  0  0  0  0  0  0  0  0  0
  2  1  1  6
  2  7  1  0
  2  3  1  0
  3  4  1  0
  4  5  1  0
  5  9  1  0
  6  5  2  0
  7 15  1  0
  8  7  2  0
 10 11  1  0
 11 13  1  0
 12 11  2  0
 14 13  1  1
 14 16  1  0
 15 14  1  0
 16 18  1  0
 16 17  2  0
 18 19  1  0
 19 20  1  0
 20 21  1  0
 22 20  2  0
M  END
$$$$
