ENG.pdb
     RDKit          3D

 22 21  0  0  1  0  0  0  0  0999 V2000
   21.9548  -20.9806  -15.0022 N   0  0  0  0  0  0  0  0  0  0  0  0
   22.0272  -19.9793  -13.9687 C   0  0  1  0  0  0  0  0  0  0  0  0
   20.9642  -20.2214  -12.9466 C   0  0  0  0  0  0  0  0  0  0  0  0
   20.5368  -21.6612  -12.9058 C   0  0  0  0  0  0  0  0  0  0  0  0
   19.0730  -21.7538  -12.8576 C   0  0  0  0  0  0  0  0  0  0  0  0
   18.5526  -22.9011  -12.8836 O   0  0  0  0  0  0  0  0  0  0  0  0
   23.3826  -19.8779  -13.3648 C   0  0  0  0  0  0  0  0  0  0  0  0
   23.6557  -18.9710  -12.5616 O   0  0  0  0  0  0  0  0  0  0  0  0
   18.2188  -20.6656  -12.7848 O   0  0  0  0  0  0  0  0  0  0  0  0
   25.8251  -20.6834   -9.7311 N   0  0  0  0  0  0  0  0  0  0  0  0
   25.2732  -21.3092  -10.8556 C   0  0  0  0  0  0  0  0  0  0  0  0
   24.0274  -21.5778  -10.8180 O   0  0  0  0  0  0  0  0  0  0  0  0
   25.9754  -21.6912  -12.0781 C   0  0  0  0  0  0  0  0  0  0  0  0
   25.7374  -20.7824  -13.2429 C   0  0  2  0  0  0  0  0  0  0  0  0
   24.3671  -20.8141  -13.7022 N   0  0  0  0  0  0  0  0  0  0  0  0
   26.7137  -20.9526  -14.3266 C   0  0  0  0  0  0  0  0  0  0  0  0
   27.2298  -22.0519  -14.5795 O   0  0  0  0  0  0  0  0  0  0  0  0
   27.0714  -19.8195  -15.1022 N   0  0  0  0  0  0  0  0  0  0  0  0
   27.9518  -19.8889  -16.2345 C   0  0  0  0  0  0  0  0  0  0  0  0
   28.1677  -18.5295  -16.7654 C   0  0  0  0  0  0  0  0  0  0  0  0
   29.3842  -18.1468  -17.2461 O   0  0  0  0  0  0  0  0  0  0  0  0
   27.2117  -17.7181  -16.7718 O   0  0  0  0  0  0  0  0  0  0  0  0
  2  1  1  6
  2  7  1  0
  2  3  1  0
  3  4  1  0
  4  5  1  0
  5  9  1  0
  6  5  2  0
  7 15  1  0
  8  7  2  0
 10 11  1  0
 11 13  1  0
 12 11  2  0
 14 13  1  1
 14 16  1  0
 15 14  1  0
 16 18  1  0
 16 17  2  0
 18 19  1  0
 19 20  1  0
 20 21  1  0
 22 20  2  0
M  END
$$$$
