ENG.pdb
     RDKit          3D

 22 21  0  0  1  0  0  0  0  0999 V2000
   15.2303  -10.9828  -10.5619 N   0  0  0  0  0  0  0  0  0  0  0  0
   14.3666  -10.1362  -11.3450 C   0  0  1  0  0  0  0  0  0  0  0  0
   12.9418  -10.3541  -10.9503 C   0  0  0  0  0  0  0  0  0  0  0  0
   12.8006  -11.4357   -9.9171 C   0  0  0  0  0  0  0  0  0  0  0  0
   11.3845  -11.6468   -9.5952 C   0  0  0  0  0  0  0  0  0  0  0  0
   10.7920  -12.6144  -10.1436 O   0  0  0  0  0  0  0  0  0  0  0  0
   14.7601   -8.7033  -11.2819 C   0  0  0  0  0  0  0  0  0  0  0  0
   14.0464   -7.8238  -11.7913 O   0  0  0  0  0  0  0  0  0  0  0  0
   10.6495  -10.8556   -8.7276 O   0  0  0  0  0  0  0  0  0  0  0  0
   15.2704   -7.1901   -7.2781 N   0  0  0  0  0  0  0  0  0  0  0  0
   15.6407   -6.3743   -8.3543 C   0  0  0  0  0  0  0  0  0  0  0  0
   14.8861   -5.3807   -8.6166 O   0  0  0  0  0  0  0  0  0  0  0  0
   16.8079   -6.5388   -9.2168 C   0  0  0  0  0  0  0  0  0  0  0  0
   16.4956   -6.9974  -10.6067 C   0  0  2  0  0  0  0  0  0  0  0  0
   15.9491   -8.3352  -10.6412 N   0  0  0  0  0  0  0  0  0  0  0  0
   17.6041   -6.8019  -11.5500 C   0  0  0  0  0  0  0  0  0  0  0  0
   18.6797   -7.4090  -11.4349 O   0  0  0  0  0  0  0  0  0  0  0  0
   17.4299   -5.8888  -12.6221 N   0  0  0  0  0  0  0  0  0  0  0  0
   18.4867   -5.5258  -13.5240 C   0  0  0  0  0  0  0  0  0  0  0  0
   18.2184   -6.1170  -14.8488 C   0  0  0  0  0  0  0  0  0  0  0  0
   18.3934   -7.4498  -15.0731 O   0  0  0  0  0  0  0  0  0  0  0  0
   17.8226   -5.3752  -15.7791 O   0  0  0  0  0  0  0  0  0  0  0  0
  2  1  1  1
  2  7  1  0
  2  3  1  0
  3  4  1  0
  4  5  1  0
  5  9  1  0
  6  5  2  0
  7 15  1  0
  8  7  2  0
 10 11  1  0
 11 13  1  0
 12 11  2  0
 14 13  1  1
 14 16  1  0
 15 14  1  0
 16 18  1  0
 16 17  2  0
 18 19  1  0
 19 20  1  0
 20 21  1  0
 22 20  2  0
M  END
$$$$
