ENG.pdb
     RDKit          3D

 22 21  0  0  1  0  0  0  0  0999 V2000
   19.4205  -24.1509  -14.5975 N   0  0  0  0  0  0  0  0  0  0  0  0
   20.3724  -23.1954  -15.1042 C   0  0  1  0  0  0  0  0  0  0  0  0
   20.4482  -23.2894  -16.5937 C   0  0  0  0  0  0  0  0  0  0  0  0
   20.6948  -24.6965  -17.0594 C   0  0  0  0  0  0  0  0  0  0  0  0
   19.4597  -25.2740  -17.6022 C   0  0  0  0  0  0  0  0  0  0  0  0
   18.8920  -24.6691  -18.5508 O   0  0  0  0  0  0  0  0  0  0  0  0
   20.0967  -21.8107  -14.6364 C   0  0  0  0  0  0  0  0  0  0  0  0
   18.9376  -21.3656  -14.6120 O   0  0  0  0  0  0  0  0  0  0  0  0
   18.8711  -26.4417  -17.1450 O   0  0  0  0  0  0  0  0  0  0  0  0
   19.4757  -20.7032  -11.4730 N   0  0  0  0  0  0  0  0  0  0  0  0
   20.6901  -20.0292  -11.2951 C   0  0  0  0  0  0  0  0  0  0  0  0
   21.1036  -19.8834  -10.0978 O   0  0  0  0  0  0  0  0  0  0  0  0
   21.5427  -19.4699  -12.3408 C   0  0  0  0  0  0  0  0  0  0  0  0
   21.0157  -19.6396  -13.7312 C   0  0  2  0  0  0  0  0  0  0  0  0
   21.1535  -20.9942  -14.2167 N   0  0  0  0  0  0  0  0  0  0  0  0
   21.5205  -18.6339  -14.6747 C   0  0  0  0  0  0  0  0  0  0  0  0
   22.6895  -18.6501  -15.0895 O   0  0  0  0  0  0  0  0  0  0  0  0
   20.6369  -17.6166  -15.1196 N   0  0  0  0  0  0  0  0  0  0  0  0
   21.0129  -16.6118  -16.0741 C   0  0  0  0  0  0  0  0  0  0  0  0
   19.8769  -15.6949  -16.2865 C   0  0  0  0  0  0  0  0  0  0  0  0
   20.0502  -14.4901  -16.8995 O   0  0  0  0  0  0  0  0  0  0  0  0
   18.7358  -16.0362  -15.8945 O   0  0  0  0  0  0  0  0  0  0  0  0
  2  1  1  6
  2  7  1  0
  2  3  1  0
  3  4  1  0
  4  5  1  0
  5  9  1  0
  6  5  2  0
  7 15  1  0
  8  7  2  0
 10 11  1  0
 11 13  1  0
 12 11  2  0
 14 13  1  1
 14 16  1  0
 15 14  1  0
 16 18  1  0
 16 17  2  0
 18 19  1  0
 19 20  1  0
 20 21  1  0
 22 20  2  0
M  END
$$$$
