ENG.pdb
     RDKit          3D

 22 21  0  0  1  0  0  0  0  0999 V2000
   18.3507   -9.8557  -17.3467 N   0  0  0  0  0  0  0  0  0  0  0  0
   18.2915   -9.9870  -15.9132 C   0  0  1  0  0  0  0  0  0  0  0  0
   18.3282  -11.4309  -15.5298 C   0  0  0  0  0  0  0  0  0  0  0  0
   17.1924  -12.2056  -16.1358 C   0  0  0  0  0  0  0  0  0  0  0  0
   16.2967  -12.6983  -15.0828 C   0  0  0  0  0  0  0  0  0  0  0  0
   16.3105  -13.9317  -14.8250 O   0  0  0  0  0  0  0  0  0  0  0  0
   19.3398   -9.1896  -15.2223 C   0  0  0  0  0  0  0  0  0  0  0  0
   19.4399   -9.2058  -13.9845 O   0  0  0  0  0  0  0  0  0  0  0  0
   15.4339  -11.9011  -14.3486 O   0  0  0  0  0  0  0  0  0  0  0  0
   22.4822   -9.9331  -13.9546 N   0  0  0  0  0  0  0  0  0  0  0  0
   23.1183   -9.3739  -15.0696 C   0  0  0  0  0  0  0  0  0  0  0  0
   24.2073   -9.9169  -15.4503 O   0  0  0  0  0  0  0  0  0  0  0  0
   22.6663   -8.2260  -15.8516 C   0  0  0  0  0  0  0  0  0  0  0  0
   21.3438   -7.6669  -15.4297 C   0  0  2  0  0  0  0  0  0  0  0  0
   20.2279   -8.4090  -15.9716 N   0  0  0  0  0  0  0  0  0  0  0  0
   21.2286   -6.2176  -15.6369 C   0  0  0  0  0  0  0  0  0  0  0  0
   22.1015   -5.4266  -15.2479 O   0  0  0  0  0  0  0  0  0  0  0  0
   20.0804   -5.7163  -16.3031 N   0  0  0  0  0  0  0  0  0  0  0  0
   19.8035   -4.3143  -16.4439 C   0  0  0  0  0  0  0  0  0  0  0  0
   18.7873   -3.9182  -15.4505 C   0  0  0  0  0  0  0  0  0  0  0  0
   18.2951   -2.6478  -15.4157 O   0  0  0  0  0  0  0  0  0  0  0  0
   18.3738   -4.7695  -14.6280 O   0  0  0  0  0  0  0  0  0  0  0  0
  2  1  1  6
  2  7  1  0
  2  3  1  0
  3  4  1  0
  4  5  1  0
  5  9  1  0
  6  5  2  0
  7 15  1  0
  8  7  2  0
 10 11  1  0
 11 13  1  0
 12 11  2  0
 14 13  1  6
 14 16  1  0
 15 14  1  0
 16 18  1  0
 16 17  2  0
 18 19  1  0
 19 20  1  0
 20 21  1  0
 22 20  2  0
M  END
$$$$
