ENG.pdb
     RDKit          3D

 22 21  0  0  1  0  0  0  0  0999 V2000
   17.6917  -10.7563  -17.3718 N   0  0  0  0  0  0  0  0  0  0  0  0
   17.4699  -10.6898  -15.9497 C   0  0  1  0  0  0  0  0  0  0  0  0
   17.7350  -12.0225  -15.3277 C   0  0  0  0  0  0  0  0  0  0  0  0
   17.4527  -13.1543  -16.2745 C   0  0  0  0  0  0  0  0  0  0  0  0
   16.8065  -14.2622  -15.5612 C   0  0  0  0  0  0  0  0  0  0  0  0
   17.4481  -14.8196  -14.6308 O   0  0  0  0  0  0  0  0  0  0  0  0
   18.2427   -9.5970  -15.3011 C   0  0  0  0  0  0  0  0  0  0  0  0
   18.1319   -9.3740  -14.0844 O   0  0  0  0  0  0  0  0  0  0  0  0
   15.5364  -14.7405  -15.8383 O   0  0  0  0  0  0  0  0  0  0  0  0
   21.4291   -5.6475  -14.1558 N   0  0  0  0  0  0  0  0  0  0  0  0
   21.9341   -6.9129  -14.4791 C   0  0  0  0  0  0  0  0  0  0  0  0
   23.1185   -7.1821  -14.0915 O   0  0  0  0  0  0  0  0  0  0  0  0
   21.2457   -7.9678  -15.2185 C   0  0  0  0  0  0  0  0  0  0  0  0
   19.8286   -7.6516  -15.5807 C   0  0  2  0  0  0  0  0  0  0  0  0
   19.1078   -8.8065  -16.0668 N   0  0  0  0  0  0  0  0  0  0  0  0
   19.6960   -6.4785  -16.4542 C   0  0  0  0  0  0  0  0  0  0  0  0
   20.1539   -6.4624  -17.6070 O   0  0  0  0  0  0  0  0  0  0  0  0
   19.0224   -5.3335  -15.9555 N   0  0  0  0  0  0  0  0  0  0  0  0
   18.8551   -4.1272  -16.7164 C   0  0  0  0  0  0  0  0  0  0  0  0
   19.8436   -3.1287  -16.2664 C   0  0  0  0  0  0  0  0  0  0  0  0
   19.8697   -1.8747  -16.7994 O   0  0  0  0  0  0  0  0  0  0  0  0
   20.6701   -3.4457  -15.3783 O   0  0  0  0  0  0  0  0  0  0  0  0
  2  1  1  6
  2  7  1  0
  2  3  1  0
  3  4  1  0
  4  5  1  0
  5  9  1  0
  6  5  2  0
  7 15  1  0
  8  7  2  0
 10 11  1  0
 11 13  1  0
 12 11  2  0
 14 13  1  6
 14 16  1  0
 15 14  1  0
 16 18  1  0
 16 17  2  0
 18 19  1  0
 19 20  1  0
 20 21  1  0
 22 20  2  0
M  END
$$$$
