ITI.pdb
     RDKit          3D

 24 23  0  0  1  0  0  0  0  0999 V2000
   17.8215  -12.0310  -17.2869 C   0  0  0  0  0  0  0  0  0  0  0  0
   16.8399  -11.5733  -16.2524 C   0  0  0  0  0  0  0  0  0  0  0  0
   17.5053  -10.7714  -15.1457 C   0  0  2  0  0  0  0  0  0  0  0  0
   18.6368  -11.5478  -14.5402 C   0  0  0  0  0  0  0  0  0  0  0  0
   16.4533  -10.3485  -14.1418 C   0  0  2  0  0  0  0  0  0  0  0  0
   15.3650   -9.7500  -14.9405 N   0  0  0  0  0  0  0  0  0  0  0  0
   16.9048   -9.2936  -13.2159 C   0  0  0  0  0  0  0  0  0  0  0  0
   17.7994   -9.5230  -12.3368 O   0  0  0  0  0  0  0  0  0  0  0  0
   18.6716   -6.1708  -13.9933 C   0  0  0  0  0  0  0  0  0  0  0  0
   17.4538   -5.7645  -13.2145 C   0  0  1  0  0  0  0  0  0  0  0  0
   16.4429   -5.4771  -14.1405 O   0  0  0  0  0  0  0  0  0  0  0  0
   16.9153   -6.9266  -12.3713 C   0  0  2  0  0  0  0  0  0  0  0  0
   16.3828   -7.9676  -13.2431 N   0  0  0  0  0  0  0  0  0  0  0  0
   15.8111   -6.4013  -11.5305 C   0  0  0  0  0  0  0  0  0  0  0  0
   14.6073   -6.4543  -11.8903 O   0  0  0  0  0  0  0  0  0  0  0  0
   13.7166   -8.0010   -7.1931 C   0  0  0  0  0  0  0  0  0  0  0  0
   13.9835   -7.2956   -8.4945 C   0  0  0  0  0  0  0  0  0  0  0  0
   14.6215   -5.9835   -8.2837 C   0  0  2  0  0  0  0  0  0  0  0  0
   13.7624   -5.1212   -7.3533 C   0  0  0  0  0  0  0  0  0  0  0  0
   14.9836   -5.1656   -9.4642 C   0  0  2  0  0  0  0  0  0  0  0  0
   16.0468   -5.8031  -10.2606 N   0  0  0  0  0  0  0  0  0  0  0  0
   15.3696   -3.7774   -9.2421 C   0  0  0  0  0  0  0  0  0  0  0  0
   14.4398   -2.7537   -9.2702 O   0  0  0  0  0  0  0  0  0  0  0  0
   16.5664   -3.4780   -9.0198 O   0  0  0  0  0  0  0  0  0  0  0  0
  2  3  1  0
  2  1  1  0
  3  4  1  1
  5  3  1  0
  5  6  1  6
  7  5  1  0
  7  8  2  0
 10  9  1  6
 10 12  1  0
 10 11  1  0
 12 13  1  6
 13  7  1  0
 14 12  1  0
 15 14  2  0
 17 16  1  0
 18 17  1  0
 18 20  1  0
 18 19  1  1
 20 22  1  0
 20 21  1  1
 21 14  1  0
 22 23  1  0
 24 22  2  0
M  END
$$$$
