ITI.pdb
     RDKit          3D

 24 23  0  0  1  0  0  0  0  0999 V2000
   24.6168  -16.6728  -17.5299 C   0  0  0  0  0  0  0  0  0  0  0  0
   24.1960  -15.5508  -16.6313 C   0  0  0  0  0  0  0  0  0  0  0  0
   24.8267  -14.2273  -17.0327 C   0  0  2  0  0  0  0  0  0  0  0  0
   26.3228  -14.3197  -16.9808 C   0  0  0  0  0  0  0  0  0  0  0  0
   24.2558  -13.1253  -16.1649 C   0  0  2  0  0  0  0  0  0  0  0  0
   22.7942  -13.3353  -16.1728 N   0  0  0  0  0  0  0  0  0  0  0  0
   24.4743  -11.7704  -16.7039 C   0  0  0  0  0  0  0  0  0  0  0  0
   25.6314  -11.2350  -16.6995 O   0  0  0  0  0  0  0  0  0  0  0  0
   24.4135  -10.3752  -20.0847 C   0  0  0  0  0  0  0  0  0  0  0  0
   23.3737   -9.6278  -19.3004 C   0  0  1  0  0  0  0  0  0  0  0  0
   22.1650  -10.3209  -19.4436 O   0  0  0  0  0  0  0  0  0  0  0  0
   23.6814   -9.6516  -17.7984 C   0  0  2  0  0  0  0  0  0  0  0  0
   23.4248  -10.9826  -17.2600 N   0  0  0  0  0  0  0  0  0  0  0  0
   22.7691   -8.6875  -17.1349 C   0  0  0  0  0  0  0  0  0  0  0  0
   22.7306   -7.4707  -17.4501 O   0  0  0  0  0  0  0  0  0  0  0  0
   17.7713  -10.2658  -14.7387 C   0  0  0  0  0  0  0  0  0  0  0  0
   19.2309   -9.9064  -14.6853 C   0  0  0  0  0  0  0  0  0  0  0  0
   19.5327   -8.7233  -15.5113 C   0  0  2  0  0  0  0  0  0  0  0  0
   19.1561   -8.9886  -16.9724 C   0  0  0  0  0  0  0  0  0  0  0  0
   20.9032   -8.1621  -15.4845 C   0  0  2  0  0  0  0  0  0  0  0  0
   21.8780   -9.0815  -16.0971 N   0  0  0  0  0  0  0  0  0  0  0  0
   21.4433   -7.7375  -14.1986 C   0  0  0  0  0  0  0  0  0  0  0  0
   22.5447   -8.3565  -13.6356 O   0  0  0  0  0  0  0  0  0  0  0  0
   20.9142   -6.7923  -13.5677 O   0  0  0  0  0  0  0  0  0  0  0  0
  2  3  1  0
  2  1  1  0
  3  4  1  1
  5  3  1  0
  5  6  1  6
  7  5  1  0
  7  8  2  0
 10  9  1  6
 10 12  1  0
 10 11  1  0
 12 13  1  1
 13  7  1  0
 14 12  1  0
 15 14  2  0
 17 16  1  0
 18 17  1  0
 18 20  1  0
 18 19  1  6
 20 22  1  0
 20 21  1  1
 21 14  1  0
 22 23  1  0
 24 22  2  0
M  END
$$$$
