ITI.pdb
     RDKit          3D

 24 23  0  0  1  0  0  0  0  0999 V2000
   21.7849  -18.5761  -14.7944 C   0  0  0  0  0  0  0  0  0  0  0  0
   21.7760  -19.5923  -13.6941 C   0  0  0  0  0  0  0  0  0  0  0  0
   23.1790  -20.0324  -13.3087 C   0  0  2  0  0  0  0  0  0  0  0  0
   23.9314  -20.5094  -14.5154 C   0  0  0  0  0  0  0  0  0  0  0  0
   23.0866  -21.0640  -12.2038 C   0  0  2  0  0  0  0  0  0  0  0  0
   22.2802  -20.4312  -11.1409 N   0  0  0  0  0  0  0  0  0  0  0  0
   24.3849  -21.3928  -11.5871 C   0  0  0  0  0  0  0  0  0  0  0  0
   25.1464  -22.2865  -12.0844 O   0  0  0  0  0  0  0  0  0  0  0  0
   27.0065  -21.2775  -12.2347 C   0  0  0  0  0  0  0  0  0  0  0  0
   27.2703  -20.6549  -10.8939 C   0  0  1  0  0  0  0  0  0  0  0  0
   27.1566  -19.2674  -11.0485 O   0  0  0  0  0  0  0  0  0  0  0  0
   26.1910  -21.0411   -9.8754 C   0  0  2  0  0  0  0  0  0  0  0  0
   24.8694  -20.7424  -10.4152 N   0  0  0  0  0  0  0  0  0  0  0  0
   26.4032  -20.2190   -8.6583 C   0  0  0  0  0  0  0  0  0  0  0  0
   25.6402  -19.2695   -8.3458 O   0  0  0  0  0  0  0  0  0  0  0  0
   29.3994  -21.0791   -3.2995 C   0  0  0  0  0  0  0  0  0  0  0  0
   28.5207  -20.1622   -4.1055 C   0  0  0  0  0  0  0  0  0  0  0  0
   28.3845  -20.6221   -5.4994 C   0  0  2  0  0  0  0  0  0  0  0  0
   29.7668  -20.8697   -6.1119 C   0  0  0  0  0  0  0  0  0  0  0  0
   27.6006  -19.8011   -6.4508 C   0  0  2  0  0  0  0  0  0  0  0  0
   27.4872  -20.4549   -7.7663 N   0  0  0  0  0  0  0  0  0  0  0  0
   28.0239  -18.4244   -6.6763 C   0  0  0  0  0  0  0  0  0  0  0  0
   28.7316  -18.0602   -7.8076 O   0  0  0  0  0  0  0  0  0  0  0  0
   27.7538  -17.5311   -5.8394 O   0  0  0  0  0  0  0  0  0  0  0  0
  2  3  1  0
  2  1  1  0
  3  4  1  6
  5  3  1  0
  5  6  1  1
  7  5  1  0
  7  8  2  0
 10  9  1  6
 10 12  1  0
 10 11  1  0
 12 13  1  6
 13  7  1  0
 14 12  1  0
 15 14  2  0
 17 16  1  0
 18 17  1  0
 18 20  1  0
 18 19  1  6
 20 22  1  0
 20 21  1  6
 21 14  1  0
 22 23  1  0
 24 22  2  0
M  END
$$$$
