ITI.pdb
     RDKit          3D

 24 23  0  0  1  0  0  0  0  0999 V2000
   19.5284  -15.6033  -20.4242 C   0  0  0  0  0  0  0  0  0  0  0  0
   19.2211  -16.0905  -19.0416 C   0  0  0  0  0  0  0  0  0  0  0  0
   19.3401  -14.9855  -18.0046 C   0  0  2  0  0  0  0  0  0  0  0  0
   18.4638  -13.8242  -18.3696 C   0  0  0  0  0  0  0  0  0  0  0  0
   20.7999  -14.6170  -17.8414 C   0  0  2  0  0  0  0  0  0  0  0  0
   21.4829  -15.8711  -17.4658 N   0  0  0  0  0  0  0  0  0  0  0  0
   21.0548  -13.6702  -16.7402 C   0  0  0  0  0  0  0  0  0  0  0  0
   20.5377  -13.8413  -15.5873 O   0  0  0  0  0  0  0  0  0  0  0  0
   24.0918  -12.7682  -14.8790 C   0  0  0  0  0  0  0  0  0  0  0  0
   23.5696  -11.4793  -15.4454 C   0  0  1  0  0  0  0  0  0  0  0  0
   24.2188  -11.2677  -16.6685 O   0  0  0  0  0  0  0  0  0  0  0  0
   22.0785  -11.5819  -15.7881 C   0  0  2  0  0  0  0  0  0  0  0  0
   21.8851  -12.5212  -16.8870 N   0  0  0  0  0  0  0  0  0  0  0  0
   21.6219  -10.2394  -16.2256 C   0  0  0  0  0  0  0  0  0  0  0  0
   21.4785   -9.9393  -17.4384 O   0  0  0  0  0  0  0  0  0  0  0  0
   17.2518   -6.8538  -16.6900 C   0  0  0  0  0  0  0  0  0  0  0  0
   18.7166   -6.6467  -16.4187 C   0  0  0  0  0  0  0  0  0  0  0  0
   19.3727   -7.8925  -15.9820 C   0  0  2  0  0  0  0  0  0  0  0  0
   18.6618   -8.4602  -14.7492 C   0  0  0  0  0  0  0  0  0  0  0  0
   20.8279   -7.8768  -15.7068 C   0  0  2  0  0  0  0  0  0  0  0  0
   21.3169   -9.2049  -15.2967 N   0  0  0  0  0  0  0  0  0  0  0  0
   21.3318   -6.9038  -14.7452 C   0  0  0  0  0  0  0  0  0  0  0  0
   21.4596   -5.5651  -15.0687 O   0  0  0  0  0  0  0  0  0  0  0  0
   21.6651   -7.2639  -13.5917 O   0  0  0  0  0  0  0  0  0  0  0  0
  2  3  1  0
  2  1  1  0
  3  4  1  6
  5  3  1  0
  5  6  1  1
  7  5  1  0
  7  8  2  0
 10  9  1  6
 10 12  1  0
 10 11  1  0
 12 13  1  6
 13  7  1  0
 14 12  1  0
 15 14  2  0
 17 16  1  0
 18 17  1  0
 18 20  1  0
 18 19  1  1
 20 22  1  0
 20 21  1  1
 21 14  1  0
 22 23  1  0
 24 22  2  0
M  END
$$$$
