ITI.pdb
     RDKit          3D

 24 23  0  0  1  0  0  0  0  0999 V2000
   28.8103  -19.4955  -17.1158 C   0  0  0  0  0  0  0  0  0  0  0  0
   27.6792  -20.2300  -16.4642 C   0  0  0  0  0  0  0  0  0  0  0  0
   27.2828  -19.6093  -15.1346 C   0  0  2  0  0  0  0  0  0  0  0  0
   28.4814  -19.4585  -14.2456 C   0  0  0  0  0  0  0  0  0  0  0  0
   26.1696  -20.4308  -14.5187 C   0  0  2  0  0  0  0  0  0  0  0  0
   25.0501  -20.3594  -15.4790 N   0  0  0  0  0  0  0  0  0  0  0  0
   25.6540  -19.8792  -13.2523 C   0  0  0  0  0  0  0  0  0  0  0  0
   24.8488  -18.8907  -13.2401 O   0  0  0  0  0  0  0  0  0  0  0  0
   23.2240  -19.5068  -11.8555 C   0  0  0  0  0  0  0  0  0  0  0  0
   23.9378  -20.1488  -10.7009 C   0  0  1  0  0  0  0  0  0  0  0  0
   23.8137  -21.5357  -10.8527 O   0  0  0  0  0  0  0  0  0  0  0  0
   25.4444  -19.8671  -10.7479 C   0  0  2  0  0  0  0  0  0  0  0  0
   26.0124  -20.4074  -11.9779 N   0  0  0  0  0  0  0  0  0  0  0  0
   26.0697  -20.5582   -9.5931 C   0  0  0  0  0  0  0  0  0  0  0  0
   26.5337  -21.7240   -9.6770 O   0  0  0  0  0  0  0  0  0  0  0  0
   29.4149  -19.1750   -4.7184 C   0  0  0  0  0  0  0  0  0  0  0  0
   28.5098  -20.2242   -5.3033 C   0  0  0  0  0  0  0  0  0  0  0  0
   27.8249  -19.7406   -6.5158 C   0  0  2  0  0  0  0  0  0  0  0  0
   27.1869  -18.3728   -6.2525 C   0  0  0  0  0  0  0  0  0  0  0  0
   26.8085  -20.6061   -7.1573 C   0  0  2  0  0  0  0  0  0  0  0  0
   26.1833  -19.9425   -8.3148 N   0  0  0  0  0  0  0  0  0  0  0  0
   25.7389  -21.1392   -6.3224 C   0  0  0  0  0  0  0  0  0  0  0  0
   25.9545  -22.1956   -5.4559 O   0  0  0  0  0  0  0  0  0  0  0  0
   24.5872  -20.6470   -6.3735 O   0  0  0  0  0  0  0  0  0  0  0  0
  2  3  1  0
  2  1  1  0
  3  4  1  1
  5  3  1  0
  5  6  1  6
  7  5  1  0
  7  8  2  0
 10  9  1  6
 10 12  1  0
 10 11  1  0
 12 13  1  6
 13  7  1  0
 14 12  1  0
 15 14  2  0
 17 16  1  0
 18 17  1  0
 18 20  1  0
 18 19  1  1
 20 22  1  0
 20 21  1  6
 21 14  1  0
 22 23  1  0
 24 22  2  0
M  END
$$$$
