ITI.pdb
     RDKit          3D

 24 23  0  0  1  0  0  0  0  0999 V2000
   17.3573  -18.8133  -16.1617 C   0  0  0  0  0  0  0  0  0  0  0  0
   18.7394  -19.2995  -16.4729 C   0  0  0  0  0  0  0  0  0  0  0  0
   19.3100  -20.1583  -15.3562 C   0  0  2  0  0  0  0  0  0  0  0  0
   19.2315  -19.4361  -14.0439 C   0  0  0  0  0  0  0  0  0  0  0  0
   20.7136  -20.5862  -15.7307 C   0  0  2  0  0  0  0  0  0  0  0  0
   20.5492  -21.5497  -16.8377 N   0  0  0  0  0  0  0  0  0  0  0  0
   21.4191  -21.3143  -14.6601 C   0  0  0  0  0  0  0  0  0  0  0  0
   20.8506  -22.2549  -14.0137 O   0  0  0  0  0  0  0  0  0  0  0  0
   23.3314  -23.9605  -14.6118 C   0  0  0  0  0  0  0  0  0  0  0  0
   24.2505  -22.9470  -13.9928 C   0  0  1  0  0  0  0  0  0  0  0  0
   24.9410  -22.3177  -15.0364 O   0  0  0  0  0  0  0  0  0  0  0  0
   23.4640  -21.8316  -13.2938 C   0  0  2  0  0  0  0  0  0  0  0  0
   22.7627  -21.0227  -14.2845 N   0  0  0  0  0  0  0  0  0  0  0  0
   24.4391  -20.9691  -12.5815 C   0  0  0  0  0  0  0  0  0  0  0  0
   24.6514  -19.7753  -12.9151 O   0  0  0  0  0  0  0  0  0  0  0  0
   26.2821  -19.5283   -7.0963 C   0  0  0  0  0  0  0  0  0  0  0  0
   26.7284  -19.5552   -8.5324 C   0  0  0  0  0  0  0  0  0  0  0  0
   25.8893  -20.4513   -9.3485 C   0  0  2  0  0  0  0  0  0  0  0  0
   25.8244  -21.8422   -8.7093 C   0  0  0  0  0  0  0  0  0  0  0  0
   26.2087  -20.6201  -10.7849 C   0  0  2  0  0  0  0  0  0  0  0  0
   25.1970  -21.4411  -11.4729 N   0  0  0  0  0  0  0  0  0  0  0  0
   27.5210  -21.1493  -11.1361 C   0  0  0  0  0  0  0  0  0  0  0  0
   28.6557  -20.3595  -11.0933 O   0  0  0  0  0  0  0  0  0  0  0  0
   27.6504  -22.3449  -11.4900 O   0  0  0  0  0  0  0  0  0  0  0  0
  2  3  1  0
  2  1  1  0
  3  4  1  1
  5  3  1  0
  5  6  1  6
  7  5  1  0
  7  8  2  0
 10  9  1  6
 10 12  1  0
 10 11  1  0
 12 13  1  6
 13  7  1  0
 14 12  1  0
 15 14  2  0
 17 16  1  0
 18 17  1  0
 18 20  1  0
 18 19  1  1
 20 22  1  0
 20 21  1  1
 21 14  1  0
 22 23  1  0
 24 22  2  0
M  END
$$$$
