ITI.pdb
     RDKit          3D

 24 23  0  0  1  0  0  0  0  0999 V2000
   23.0384  -22.4407  -19.6377 C   0  0  0  0  0  0  0  0  0  0  0  0
   22.7608  -22.3766  -18.1673 C   0  0  0  0  0  0  0  0  0  0  0  0
   24.0167  -22.5855  -17.3370 C   0  0  2  0  0  0  0  0  0  0  0  0
   24.6657  -23.8926  -17.6834 C   0  0  0  0  0  0  0  0  0  0  0  0
   23.6665  -22.4515  -15.8698 C   0  0  2  0  0  0  0  0  0  0  0  0
   23.0016  -21.1392  -15.7420 N   0  0  0  0  0  0  0  0  0  0  0  0
   24.8411  -22.3998  -14.9802 C   0  0  0  0  0  0  0  0  0  0  0  0
   25.8974  -23.0653  -15.2393 O   0  0  0  0  0  0  0  0  0  0  0  0
   27.4462  -20.2184  -14.5621 C   0  0  0  0  0  0  0  0  0  0  0  0
   26.8197  -20.2462  -13.1977 C   0  0  1  0  0  0  0  0  0  0  0  0
   25.8398  -19.2457  -13.1680 O   0  0  0  0  0  0  0  0  0  0  0  0
   26.0678  -21.5602  -12.9538 C   0  0  2  0  0  0  0  0  0  0  0  0
   24.8756  -21.6130  -13.7923 N   0  0  0  0  0  0  0  0  0  0  0  0
   25.6482  -21.5833  -11.5306 C   0  0  0  0  0  0  0  0  0  0  0  0
   24.5036  -21.9615  -11.1723 O   0  0  0  0  0  0  0  0  0  0  0  0
   28.2046  -20.2822   -5.9681 C   0  0  0  0  0  0  0  0  0  0  0  0
   26.9702  -20.6902   -6.7245 C   0  0  0  0  0  0  0  0  0  0  0  0
   27.2074  -20.7248   -8.1790 C   0  0  2  0  0  0  0  0  0  0  0  0
   27.8422  -19.4097   -8.6425 C   0  0  0  0  0  0  0  0  0  0  0  0
   26.0741  -21.0315   -9.0820 C   0  0  2  0  0  0  0  0  0  0  0  0
   26.5180  -21.1775  -10.4794 N   0  0  0  0  0  0  0  0  0  0  0  0
   24.9293  -20.1288   -9.0737 C   0  0  0  0  0  0  0  0  0  0  0  0
   24.9041  -18.9838   -9.8492 O   0  0  0  0  0  0  0  0  0  0  0  0
   23.9323  -20.3731   -8.3541 O   0  0  0  0  0  0  0  0  0  0  0  0
  2  3  1  0
  2  1  1  0
  3  4  1  1
  5  3  1  0
  5  6  1  6
  7  5  1  0
  7  8  2  0
 10  9  1  6
 10 12  1  0
 10 11  1  0
 12 13  1  6
 13  7  1  0
 14 12  1  0
 15 14  2  0
 17 16  1  0
 18 17  1  0
 18 20  1  0
 18 19  1  6
 20 22  1  0
 20 21  1  6
 21 14  1  0
 22 23  1  0
 24 22  2  0
M  END
$$$$
