ITI.pdb
     RDKit          3D

 24 23  0  0  1  0  0  0  0  0999 V2000
   22.1841  -19.1157  -15.0929 C   0  0  0  0  0  0  0  0  0  0  0  0
   22.2619  -20.0074  -13.8919 C   0  0  0  0  0  0  0  0  0  0  0  0
   23.6303  -20.6523  -13.7443 C   0  0  2  0  0  0  0  0  0  0  0  0
   24.0280  -21.3408  -15.0162 C   0  0  0  0  0  0  0  0  0  0  0  0
   23.6174  -21.5668  -12.5373 C   0  0  2  0  0  0  0  0  0  0  0  0
   22.7294  -20.9112  -11.5563 N   0  0  0  0  0  0  0  0  0  0  0  0
   24.9284  -21.6963  -11.8751 C   0  0  0  0  0  0  0  0  0  0  0  0
   25.7441  -22.6218  -12.1973 O   0  0  0  0  0  0  0  0  0  0  0  0
   28.0325  -20.5427  -12.2793 C   0  0  0  0  0  0  0  0  0  0  0  0
   27.6966  -20.0544  -10.8996 C   0  0  1  0  0  0  0  0  0  0  0  0
   27.0576  -18.8159  -11.0394 O   0  0  0  0  0  0  0  0  0  0  0  0
   26.6708  -20.9673  -10.2172 C   0  0  2  0  0  0  0  0  0  0  0  0
   25.3663  -20.8083  -10.8499 N   0  0  0  0  0  0  0  0  0  0  0  0
   26.5643  -20.5461   -8.7982 C   0  0  0  0  0  0  0  0  0  0  0  0
   25.4780  -20.1721   -8.2867 O   0  0  0  0  0  0  0  0  0  0  0  0
   29.9300  -21.1002   -3.6068 C   0  0  0  0  0  0  0  0  0  0  0  0
   28.6391  -20.6491   -4.2332 C   0  0  0  0  0  0  0  0  0  0  0  0
   28.6557  -20.8144   -5.6980 C   0  0  2  0  0  0  0  0  0  0  0  0
   30.0152  -20.3900   -6.2626 C   0  0  0  0  0  0  0  0  0  0  0  0
   27.5989  -20.1610   -6.5042 C   0  0  2  0  0  0  0  0  0  0  0  0
   27.6887  -20.5392   -7.9254 N   0  0  0  0  0  0  0  0  0  0  0  0
   27.4888  -18.7087   -6.4392 C   0  0  0  0  0  0  0  0  0  0  0  0
   26.9008  -18.0744   -5.3598 O   0  0  0  0  0  0  0  0  0  0  0  0
   27.9284  -17.9955   -7.3717 O   0  0  0  0  0  0  0  0  0  0  0  0
  2  3  1  0
  2  1  1  0
  3  4  1  6
  5  3  1  0
  5  6  1  1
  7  5  1  0
  7  8  2  0
 10  9  1  6
 10 12  1  0
 10 11  1  0
 12 13  1  6
 13  7  1  0
 14 12  1  0
 15 14  2  0
 17 16  1  0
 18 17  1  0
 18 20  1  0
 18 19  1  6
 20 22  1  0
 20 21  1  6
 21 14  1  0
 22 23  1  0
 24 22  2  0
M  END
$$$$
