ITI.pdb
     RDKit          3D

 24 23  0  0  1  0  0  0  0  0999 V2000
   28.7325  -19.0575  -17.0296 C   0  0  0  0  0  0  0  0  0  0  0  0
   27.9323  -20.0159  -16.2022 C   0  0  0  0  0  0  0  0  0  0  0  0
   27.4075  -19.3739  -14.9282 C   0  0  2  0  0  0  0  0  0  0  0  0
   28.5214  -18.7071  -14.1770 C   0  0  0  0  0  0  0  0  0  0  0  0
   26.6683  -20.4180  -14.1177 C   0  0  2  0  0  0  0  0  0  0  0  0
   25.5761  -20.8933  -14.9905 N   0  0  0  0  0  0  0  0  0  0  0  0
   26.0174  -19.8812  -12.9085 C   0  0  0  0  0  0  0  0  0  0  0  0
   25.1081  -18.9908  -12.9863 O   0  0  0  0  0  0  0  0  0  0  0  0
   23.5737  -19.4030  -11.7522 C   0  0  0  0  0  0  0  0  0  0  0  0
   24.1592  -20.0579  -10.5343 C   0  0  1  0  0  0  0  0  0  0  0  0
   24.0424  -21.4428  -10.7084 O   0  0  0  0  0  0  0  0  0  0  0  0
   25.6643  -19.7869  -10.4221 C   0  0  2  0  0  0  0  0  0  0  0  0
   26.3529  -20.3168  -11.5936 N   0  0  0  0  0  0  0  0  0  0  0  0
   26.1626  -20.4963   -9.2177 C   0  0  0  0  0  0  0  0  0  0  0  0
   26.6696  -21.6457   -9.2750 O   0  0  0  0  0  0  0  0  0  0  0  0
   29.3017  -18.1034   -5.5125 C   0  0  0  0  0  0  0  0  0  0  0  0
   28.6772  -19.1102   -6.4393 C   0  0  0  0  0  0  0  0  0  0  0  0
   27.4276  -19.6616   -5.8847 C   0  0  2  0  0  0  0  0  0  0  0  0
   27.7019  -20.3454   -4.5414 C   0  0  0  0  0  0  0  0  0  0  0  0
   26.6225  -20.5866   -6.7154 C   0  0  2  0  0  0  0  0  0  0  0  0
   26.0975  -19.9178   -7.9187 N   0  0  0  0  0  0  0  0  0  0  0  0
   25.5134  -21.2874   -6.0796 C   0  0  0  0  0  0  0  0  0  0  0  0
   24.2413  -20.7458   -6.0409 O   0  0  0  0  0  0  0  0  0  0  0  0
   25.6913  -22.4081   -5.5469 O   0  0  0  0  0  0  0  0  0  0  0  0
  2  3  1  0
  2  1  1  0
  3  4  1  1
  5  3  1  0
  5  6  1  6
  7  5  1  0
  7  8  2  0
 10  9  1  6
 10 12  1  0
 10 11  1  0
 12 13  1  6
 13  7  1  0
 14 12  1  0
 15 14  2  0
 17 16  1  0
 18 17  1  0
 18 20  1  0
 18 19  1  1
 20 22  1  0
 20 21  1  6
 21 14  1  0
 22 23  1  0
 24 22  2  0
M  END
$$$$
