ITI.pdb
     RDKit          3D

 24 23  0  0  1  0  0  0  0  0999 V2000
   26.3280  -22.1296   -9.0286 C   0  0  0  0  0  0  0  0  0  0  0  0
   25.4951  -21.7638  -10.2185 C   0  0  0  0  0  0  0  0  0  0  0  0
   24.4948  -20.6639   -9.9020 C   0  0  2  0  0  0  0  0  0  0  0  0
   23.4811  -21.1445   -8.9065 C   0  0  0  0  0  0  0  0  0  0  0  0
   23.8859  -20.1634  -11.1951 C   0  0  2  0  0  0  0  0  0  0  0  0
   23.1103  -21.3000  -11.7308 N   0  0  0  0  0  0  0  0  0  0  0  0
   24.8808  -19.8271  -12.2300 C   0  0  0  0  0  0  0  0  0  0  0  0
   25.8888  -19.0926  -11.9652 O   0  0  0  0  0  0  0  0  0  0  0  0
   26.6002  -22.2488  -14.8864 C   0  0  0  0  0  0  0  0  0  0  0  0
   25.9880  -21.0582  -15.5666 C   0  0  1  0  0  0  0  0  0  0  0  0
   24.7087  -21.4348  -15.9952 O   0  0  0  0  0  0  0  0  0  0  0  0
   25.7644  -19.9046  -14.5815 C   0  0  2  0  0  0  0  0  0  0  0  0
   24.7861  -20.2956  -13.5727 N   0  0  0  0  0  0  0  0  0  0  0  0
   25.2223  -18.7549  -15.3474 C   0  0  0  0  0  0  0  0  0  0  0  0
   24.0033  -18.4467  -15.3264 O   0  0  0  0  0  0  0  0  0  0  0  0
   26.4312  -13.0435  -16.1239 C   0  0  0  0  0  0  0  0  0  0  0  0
   25.8519  -14.1931  -16.9017 C   0  0  0  0  0  0  0  0  0  0  0  0
   26.1153  -15.4857  -16.2436 C   0  0  2  0  0  0  0  0  0  0  0  0
   27.6228  -15.6876  -16.0594 C   0  0  0  0  0  0  0  0  0  0  0  0
   25.5559  -16.7202  -16.8408 C   0  0  2  0  0  0  0  0  0  0  0  0
   26.0513  -17.9270  -16.1559 N   0  0  0  0  0  0  0  0  0  0  0  0
   25.7256  -16.9243  -18.2743 C   0  0  0  0  0  0  0  0  0  0  0  0
   26.5057  -17.9522  -18.7723 O   0  0  0  0  0  0  0  0  0  0  0  0
   25.1628  -16.1629  -19.0958 O   0  0  0  0  0  0  0  0  0  0  0  0
  2  3  1  0
  2  1  1  0
  3  4  1  1
  5  3  1  0
  5  6  1  6
  7  5  1  0
  7  8  2  0
 10  9  1  1
 10 12  1  0
 10 11  1  0
 12 13  1  1
 13  7  1  0
 14 12  1  0
 15 14  2  0
 17 16  1  0
 18 17  1  0
 18 20  1  0
 18 19  1  6
 20 22  1  0
 20 21  1  1
 21 14  1  0
 22 23  1  0
 24 22  2  0
M  END
$$$$
