ITI.pdb
     RDKit          3D

 24 23  0  0  1  0  0  0  0  0999 V2000
   28.9049  -18.8486  -16.6108 C   0  0  0  0  0  0  0  0  0  0  0  0
   27.9291  -19.7772  -15.9559 C   0  0  0  0  0  0  0  0  0  0  0  0
   27.4716  -19.2650  -14.5999 C   0  0  2  0  0  0  0  0  0  0  0  0
   28.6490  -19.0320  -13.7003 C   0  0  0  0  0  0  0  0  0  0  0  0
   26.4512  -20.2266  -14.0277 C   0  0  2  0  0  0  0  0  0  0  0  0
   25.3460  -20.2564  -15.0067 N   0  0  0  0  0  0  0  0  0  0  0  0
   25.8556  -19.7751  -12.7567 C   0  0  0  0  0  0  0  0  0  0  0  0
   24.9261  -18.9026  -12.7344 O   0  0  0  0  0  0  0  0  0  0  0  0
   23.4176  -19.5789  -11.3843 C   0  0  0  0  0  0  0  0  0  0  0  0
   24.1598  -20.2171  -10.2456 C   0  0  1  0  0  0  0  0  0  0  0  0
   24.1411  -21.6013  -10.4590 O   0  0  0  0  0  0  0  0  0  0  0  0
   25.6418  -19.8238  -10.2531 C   0  0  2  0  0  0  0  0  0  0  0  0
   26.2697  -20.2777  -11.4889 N   0  0  0  0  0  0  0  0  0  0  0  0
   26.2965  -20.5067   -9.1098 C   0  0  0  0  0  0  0  0  0  0  0  0
   26.8415  -21.6344   -9.2218 O   0  0  0  0  0  0  0  0  0  0  0  0
   29.4333  -17.8458   -5.5182 C   0  0  0  0  0  0  0  0  0  0  0  0
   28.8358  -18.8456   -6.4699 C   0  0  0  0  0  0  0  0  0  0  0  0
   27.7564  -19.6248   -5.8368 C   0  0  2  0  0  0  0  0  0  0  0  0
   28.2921  -20.3708   -4.6106 C   0  0  0  0  0  0  0  0  0  0  0  0
   26.9897  -20.5870   -6.6615 C   0  0  2  0  0  0  0  0  0  0  0  0
   26.3483  -19.9257   -7.8114 N   0  0  0  0  0  0  0  0  0  0  0  0
   25.9780  -21.4014   -5.9990 C   0  0  0  0  0  0  0  0  0  0  0  0
   26.3097  -22.5653   -5.3294 O   0  0  0  0  0  0  0  0  0  0  0  0
   24.7718  -21.0611   -6.0236 O   0  0  0  0  0  0  0  0  0  0  0  0
  2  3  1  0
  2  1  1  0
  3  4  1  1
  5  3  1  0
  5  6  1  6
  7  5  1  0
  7  8  2  0
 10  9  1  6
 10 12  1  0
 10 11  1  0
 12 13  1  6
 13  7  1  0
 14 12  1  0
 15 14  2  0
 17 16  1  0
 18 17  1  0
 18 20  1  0
 18 19  1  1
 20 22  1  0
 20 21  1  6
 21 14  1  0
 22 23  1  0
 24 22  2  0
M  END
$$$$
