FAA.pdb
     RDKit          3D

 22 22  0  0  1  0  0  0  0  0999 V2000
    6.9683  -16.5484   26.3404 N   0  0  0  0  0  0  0  0  0  0  0  0
    6.9822  -16.0530   24.9860 C   0  0  1  0  0  0  0  0  0  0  0  0
    7.9209  -14.8459   24.8907 C   0  0  0  0  0  0  0  0  0  0  0  0
    7.4459  -13.7219   25.7046 C   0  0  0  0  0  0  0  0  0  0  0  0
    6.0792  -13.4251   25.7000 C   0  0  0  0  0  0  0  0  0  0  0  0
    5.6436  -12.3661   26.4691 C   0  0  0  0  0  0  0  0  0  0  0  0
    6.5018  -11.6014   27.2320 C   0  0  0  0  0  0  0  0  0  0  0  0
    7.8518  -11.9160   27.2195 C   0  0  0  0  0  0  0  0  0  0  0  0
    8.2938  -12.9629   26.4612 C   0  0  0  0  0  0  0  0  0  0  0  0
    7.5701  -17.0744   24.0467 C   0  0  0  0  0  0  0  0  0  0  0  0
    8.1794  -18.0795   24.4885 O   0  0  0  0  0  0  0  0  0  0  0  0
    7.3337  -17.7365   20.3463 C   0  0  0  0  0  0  0  0  0  0  0  0
    8.0048  -17.8274   21.6750 C   0  0  2  0  0  0  0  0  0  0  0  0
    7.4493  -16.9245   22.6610 N   0  0  0  0  0  0  0  0  0  0  0  0
    9.4530  -17.7216   21.6644 C   0  0  0  0  0  0  0  0  0  0  0  0
   10.1228  -18.5803   21.0329 O   0  0  0  0  0  0  0  0  0  0  0  0
   12.1380  -15.2894   21.9580 C   0  0  0  0  0  0  0  0  0  0  0  0
   11.6470  -16.6878   22.2556 C   0  0  2  0  0  0  0  0  0  0  0  0
   10.2052  -16.7116   22.3181 N   0  0  0  0  0  0  0  0  0  0  0  0
   12.2598  -17.1524   23.5080 C   0  0  0  0  0  0  0  0  0  0  0  0
   11.5460  -17.4670   24.5037 O   0  0  0  0  0  0  0  0  0  0  0  0
   13.6198  -17.2581   23.6336 O   0  0  0  0  0  0  0  0  0  0  0  0
  2  1  1  1
  2 10  1  0
  3  2  1  0
  4  3  1  0
  5  4  2  0
  6  5  1  0
  7  8  1  0
  7  6  2  0
  8  9  2  0
  9  4  1  0
 10 14  1  0
 10 11  2  0
 13 12  1  6
 14 13  1  0
 15 13  1  0
 15 19  1  0
 16 15  2  0
 18 17  1  1
 18 19  1  0
 18 20  1  0
 20 22  1  0
 21 20  2  0
M  END
$$$$
