FAA.pdb
     RDKit          3D

 22 22  0  0  1  0  0  0  0  0999 V2000
    6.6977  -16.6431   25.9491 N   0  0  0  0  0  0  0  0  0  0  0  0
    6.9742  -15.8457   24.7797 C   0  0  1  0  0  0  0  0  0  0  0  0
    7.9313  -14.7078   25.1491 C   0  0  0  0  0  0  0  0  0  0  0  0
    7.2574  -13.6600   25.9234 C   0  0  0  0  0  0  0  0  0  0  0  0
    7.6769  -13.4265   27.2369 C   0  0  0  0  0  0  0  0  0  0  0  0
    7.0362  -12.4387   27.9557 C   0  0  0  0  0  0  0  0  0  0  0  0
    6.0090  -11.6847   27.4268 C   0  0  0  0  0  0  0  0  0  0  0  0
    5.6119  -11.9356   26.1227 C   0  0  0  0  0  0  0  0  0  0  0  0
    6.2398  -12.9117   25.4020 C   0  0  0  0  0  0  0  0  0  0  0  0
    7.7141  -16.6514   23.7431 C   0  0  0  0  0  0  0  0  0  0  0  0
    8.2185  -17.7642   24.0325 O   0  0  0  0  0  0  0  0  0  0  0  0
    7.9999  -16.4199   19.9955 C   0  0  0  0  0  0  0  0  0  0  0  0
    8.4206  -16.9266   21.3335 C   0  0  2  0  0  0  0  0  0  0  0  0
    7.8548  -16.1762   22.4348 N   0  0  0  0  0  0  0  0  0  0  0  0
    9.8496  -17.0948   21.5291 C   0  0  0  0  0  0  0  0  0  0  0  0
   10.4891  -17.8423   20.7436 O   0  0  0  0  0  0  0  0  0  0  0  0
   12.8481  -15.5295   22.5361 C   0  0  0  0  0  0  0  0  0  0  0  0
   12.0154  -16.7764   22.7289 C   0  0  2  0  0  0  0  0  0  0  0  0
   10.6144  -16.4775   22.5524 N   0  0  0  0  0  0  0  0  0  0  0  0
   12.2953  -17.3363   24.0587 C   0  0  0  0  0  0  0  0  0  0  0  0
   11.3731  -17.4748   24.9133 O   0  0  0  0  0  0  0  0  0  0  0  0
   13.5611  -17.7238   24.4111 O   0  0  0  0  0  0  0  0  0  0  0  0
  2  1  1  1
  2 10  1  0
  3  2  1  0
  4  3  1  0
  5  4  2  0
  6  5  1  0
  7  8  1  0
  7  6  2  0
  8  9  2  0
  9  4  1  0
 10 14  1  0
 10 11  2  0
 13 12  1  6
 14 13  1  0
 15 13  1  0
 15 19  1  0
 16 15  2  0
 18 17  1  1
 18 19  1  0
 18 20  1  0
 20 22  1  0
 21 20  2  0
M  END
$$$$
