FAA.pdb
     RDKit          3D

 22 22  0  0  1  0  0  0  0  0999 V2000
    9.2273  -15.0168   24.2704 N   0  0  0  0  0  0  0  0  0  0  0  0
    8.2654  -15.6694   25.1241 C   0  0  1  0  0  0  0  0  0  0  0  0
    6.8705  -15.0941   24.8593 C   0  0  0  0  0  0  0  0  0  0  0  0
    6.7099  -13.7622   25.4524 C   0  0  0  0  0  0  0  0  0  0  0  0
    7.1808  -12.6538   24.7414 C   0  0  0  0  0  0  0  0  0  0  0  0
    7.0245  -11.4061   25.3086 C   0  0  0  0  0  0  0  0  0  0  0  0
    6.4265  -11.2201   26.5379 C   0  0  0  0  0  0  0  0  0  0  0  0
    5.9681  -12.3349   27.2225 C   0  0  0  0  0  0  0  0  0  0  0  0
    6.1180  -13.5752   26.6697 C   0  0  0  0  0  0  0  0  0  0  0  0
    8.1507  -17.1329   24.7830 C   0  0  0  0  0  0  0  0  0  0  0  0
    7.3007  -17.8615   25.3516 O   0  0  0  0  0  0  0  0  0  0  0  0
    9.2472  -19.4073   22.0670 C   0  0  0  0  0  0  0  0  0  0  0  0
    9.0520  -19.1252   23.5183 C   0  0  2  0  0  0  0  0  0  0  0  0
    8.9894  -17.7115   23.8244 N   0  0  0  0  0  0  0  0  0  0  0  0
    9.9719  -19.7895   24.4244 C   0  0  0  0  0  0  0  0  0  0  0  0
   10.0718  -21.0436   24.3813 O   0  0  0  0  0  0  0  0  0  0  0  0
   13.0054  -19.2021   26.3748 C   0  0  0  0  0  0  0  0  0  0  0  0
   11.6612  -19.8843   26.2600 C   0  0  2  0  0  0  0  0  0  0  0  0
   10.7924  -19.1381   25.3815 N   0  0  0  0  0  0  0  0  0  0  0  0
   11.0864  -20.0354   27.6041 C   0  0  0  0  0  0  0  0  0  0  0  0
    9.9899  -19.4831   27.9085 O   0  0  0  0  0  0  0  0  0  0  0  0
   11.7202  -20.7778   28.5653 O   0  0  0  0  0  0  0  0  0  0  0  0
  2  1  1  6
  2 10  1  0
  3  2  1  0
  4  3  1  0
  5  4  2  0
  6  5  1  0
  7  8  1  0
  7  6  2  0
  8  9  2  0
  9  4  1  0
 10 14  1  0
 10 11  2  0
 13 12  1  6
 14 13  1  0
 15 13  1  0
 15 19  1  0
 16 15  2  0
 18 17  1  1
 18 19  1  0
 18 20  1  0
 20 22  1  0
 21 20  2  0
M  END
$$$$
