FAA.pdb
     RDKit          3D

 22 22  0  0  1  0  0  0  0  0999 V2000
    6.8859  -18.1109   19.2757 N   0  0  0  0  0  0  0  0  0  0  0  0
    7.4552  -16.8851   19.7790 C   0  0  1  0  0  0  0  0  0  0  0  0
    6.4703  -16.2209   20.7463 C   0  0  0  0  0  0  0  0  0  0  0  0
    7.0067  -14.9712   21.2958 C   0  0  0  0  0  0  0  0  0  0  0  0
    7.2351  -14.8916   22.6733 C   0  0  0  0  0  0  0  0  0  0  0  0
    7.7398  -13.7117   23.1792 C   0  0  0  0  0  0  0  0  0  0  0  0
    8.0224  -12.6231   22.3801 C   0  0  0  0  0  0  0  0  0  0  0  0
    7.7872  -12.7274   21.0180 C   0  0  0  0  0  0  0  0  0  0  0  0
    7.2874  -13.8916   20.5067 C   0  0  0  0  0  0  0  0  0  0  0  0
    8.6824  -17.1638   20.6082 C   0  0  0  0  0  0  0  0  0  0  0  0
    8.7263  -18.1531   21.3803 O   0  0  0  0  0  0  0  0  0  0  0  0
   12.2277  -15.9876   20.3858 C   0  0  0  0  0  0  0  0  0  0  0  0
   11.0913  -16.6074   21.1263 C   0  0  2  0  0  0  0  0  0  0  0  0
    9.7999  -16.3255   20.5355 N   0  0  0  0  0  0  0  0  0  0  0  0
   11.0499  -16.3536   22.5554 C   0  0  0  0  0  0  0  0  0  0  0  0
   12.1332  -16.2378   23.1862 O   0  0  0  0  0  0  0  0  0  0  0  0
    9.4608  -14.6671   25.1491 C   0  0  0  0  0  0  0  0  0  0  0  0
    9.9224  -16.0538   24.7624 C   0  0  2  0  0  0  0  0  0  0  0  0
    9.8683  -16.2202   23.3297 N   0  0  0  0  0  0  0  0  0  0  0  0
    9.0940  -17.0452   25.4631 C   0  0  0  0  0  0  0  0  0  0  0  0
    8.3517  -17.8429   24.8209 O   0  0  0  0  0  0  0  0  0  0  0  0
    9.1016  -17.1341   26.8301 O   0  0  0  0  0  0  0  0  0  0  0  0
  2  1  1  1
  2 10  1  0
  3  2  1  0
  4  3  1  0
  5  4  2  0
  6  5  1  0
  7  8  1  0
  7  6  2  0
  8  9  2  0
  9  4  1  0
 10 14  1  0
 10 11  2  0
 13 12  1  6
 14 13  1  0
 15 13  1  0
 15 19  1  0
 16 15  2  0
 18 17  1  6
 18 19  1  0
 18 20  1  0
 20 22  1  0
 21 20  2  0
M  END
$$$$
