FAA.pdb
     RDKit          3D

 22 22  0  0  1  0  0  0  0  0999 V2000
    6.0050  -16.9761   24.4030 N   0  0  0  0  0  0  0  0  0  0  0  0
    7.0730  -16.0177   24.5471 C   0  0  1  0  0  0  0  0  0  0  0  0
    6.9812  -15.3499   25.9229 C   0  0  0  0  0  0  0  0  0  0  0  0
    6.6877  -13.9170   25.8134 C   0  0  0  0  0  0  0  0  0  0  0  0
    5.4822  -13.4406   26.3385 C   0  0  0  0  0  0  0  0  0  0  0  0
    5.2166  -12.0913   26.2302 C   0  0  0  0  0  0  0  0  0  0  0  0
    6.0906  -11.2096   25.6285 C   0  0  0  0  0  0  0  0  0  0  0  0
    7.2787  -11.7068   25.1159 C   0  0  0  0  0  0  0  0  0  0  0  0
    7.5516  -13.0415   25.2180 C   0  0  0  0  0  0  0  0  0  0  0  0
    8.4148  -16.7039   24.5397 C   0  0  0  0  0  0  0  0  0  0  0  0
    8.5740  -17.8120   25.1085 O   0  0  0  0  0  0  0  0  0  0  0  0
   11.7751  -16.0303   22.9476 C   0  0  0  0  0  0  0  0  0  0  0  0
   10.8808  -16.5816   24.0059 C   0  0  2  0  0  0  0  0  0  0  0  0
    9.5126  -16.1206   23.8982 N   0  0  0  0  0  0  0  0  0  0  0  0
   11.3481  -16.4354   25.3729 C   0  0  0  0  0  0  0  0  0  0  0  0
   12.4218  -16.9971   25.7140 O   0  0  0  0  0  0  0  0  0  0  0  0
   10.9648  -14.2423   28.3118 C   0  0  0  0  0  0  0  0  0  0  0  0
   11.2261  -15.6113   27.7262 C   0  0  2  0  0  0  0  0  0  0  0  0
   10.6886  -15.6970   26.3894 N   0  0  0  0  0  0  0  0  0  0  0  0
   10.6509  -16.6291   28.6168 C   0  0  0  0  0  0  0  0  0  0  0  0
    9.7455  -17.4129   28.2096 O   0  0  0  0  0  0  0  0  0  0  0  0
   11.0777  -16.7585   29.9121 O   0  0  0  0  0  0  0  0  0  0  0  0
  2  1  1  1
  2 10  1  0
  3  2  1  0
  4  3  1  0
  5  4  2  0
  6  5  1  0
  7  8  1  0
  7  6  2  0
  8  9  2  0
  9  4  1  0
 10 14  1  0
 10 11  2  0
 13 12  1  6
 14 13  1  0
 15 13  1  0
 15 19  1  0
 16 15  2  0
 18 17  1  1
 18 19  1  0
 18 20  1  0
 20 22  1  0
 21 20  2  0
M  END
$$$$
