FAA.pdb
     RDKit          3D

 22 22  0  0  1  0  0  0  0  0999 V2000
    6.4442  -16.6236   25.2451 N   0  0  0  0  0  0  0  0  0  0  0  0
    6.7212  -16.2464   23.8809 C   0  0  1  0  0  0  0  0  0  0  0  0
    6.2640  -14.8035   23.6445 C   0  0  0  0  0  0  0  0  0  0  0  0
    6.5900  -13.9364   24.7817 C   0  0  0  0  0  0  0  0  0  0  0  0
    5.7471  -13.9540   25.8976 C   0  0  0  0  0  0  0  0  0  0  0  0
    6.0633  -13.1347   26.9614 C   0  0  0  0  0  0  0  0  0  0  0  0
    7.1693  -12.3101   26.9589 C   0  0  0  0  0  0  0  0  0  0  0  0
    7.9889  -12.3109   25.8410 C   0  0  0  0  0  0  0  0  0  0  0  0
    7.6848  -13.1187   24.7819 C   0  0  0  0  0  0  0  0  0  0  0  0
    8.2053  -16.2290   23.6195 C   0  0  0  0  0  0  0  0  0  0  0  0
    8.6568  -15.9005   22.4948 O   0  0  0  0  0  0  0  0  0  0  0  0
   11.0189  -15.8553   23.2565 C   0  0  0  0  0  0  0  0  0  0  0  0
   10.5541  -16.5471   24.4932 C   0  0  2  0  0  0  0  0  0  0  0  0
    9.1126  -16.5787   24.6253 N   0  0  0  0  0  0  0  0  0  0  0  0
   11.1572  -16.1007   25.7363 C   0  0  0  0  0  0  0  0  0  0  0  0
   12.4014  -16.2181   25.8875 O   0  0  0  0  0  0  0  0  0  0  0  0
   10.6072  -13.8438   28.5684 C   0  0  0  0  0  0  0  0  0  0  0  0
   11.1311  -15.1637   28.0501 C   0  0  2  0  0  0  0  0  0  0  0  0
   10.4548  -15.5279   26.8281 N   0  0  0  0  0  0  0  0  0  0  0  0
   10.9685  -16.1850   29.0944 C   0  0  0  0  0  0  0  0  0  0  0  0
   11.4748  -16.0273   30.2427 O   0  0  0  0  0  0  0  0  0  0  0  0
   10.2649  -17.3358   28.8551 O   0  0  0  0  0  0  0  0  0  0  0  0
  2  1  1  1
  2 10  1  0
  3  2  1  0
  4  3  1  0
  5  4  2  0
  6  5  1  0
  7  8  1  0
  7  6  2  0
  8  9  2  0
  9  4  1  0
 10 14  1  0
 10 11  2  0
 13 12  1  6
 14 13  1  0
 15 13  1  0
 15 19  1  0
 16 15  2  0
 18 17  1  1
 18 19  1  0
 18 20  1  0
 20 22  1  0
 21 20  2  0
M  END
$$$$
