FAA.pdb
     RDKit          3D

 22 22  0  0  1  0  0  0  0  0999 V2000
    5.9443  -16.5328   25.3199 N   0  0  0  0  0  0  0  0  0  0  0  0
    7.1463  -15.9010   24.8343 C   0  0  1  0  0  0  0  0  0  0  0  0
    7.6898  -14.9442   25.9003 C   0  0  0  0  0  0  0  0  0  0  0  0
    7.0613  -13.6216   25.8154 C   0  0  0  0  0  0  0  0  0  0  0  0
    6.1168  -13.2680   26.7843 C   0  0  0  0  0  0  0  0  0  0  0  0
    5.5321  -12.0218   26.6947 C   0  0  0  0  0  0  0  0  0  0  0  0
    5.8456  -11.1260   25.6934 C   0  0  0  0  0  0  0  0  0  0  0  0
    6.7848  -11.5005   24.7451 C   0  0  0  0  0  0  0  0  0  0  0  0
    7.3699  -12.7325   24.8247 C   0  0  0  0  0  0  0  0  0  0  0  0
    8.2419  -16.9157   24.6316 C   0  0  0  0  0  0  0  0  0  0  0  0
    8.3149  -17.9377   25.3575 O   0  0  0  0  0  0  0  0  0  0  0  0
   10.9055  -17.3886   21.9833 C   0  0  0  0  0  0  0  0  0  0  0  0
   10.2051  -17.7166   23.2584 C   0  0  2  0  0  0  0  0  0  0  0  0
    9.2020  -16.7407   23.6292 N   0  0  0  0  0  0  0  0  0  0  0  0
   11.0591  -18.0081   24.3961 C   0  0  0  0  0  0  0  0  0  0  0  0
   11.8206  -17.1065   24.8343 O   0  0  0  0  0  0  0  0  0  0  0  0
   11.5645  -20.5922   27.0512 C   0  0  0  0  0  0  0  0  0  0  0  0
   12.0493  -19.4723   26.1589 C   0  0  2  0  0  0  0  0  0  0  0  0
   11.1171  -19.2502   25.0797 N   0  0  0  0  0  0  0  0  0  0  0  0
   13.3936  -19.8031   25.6656 C   0  0  0  0  0  0  0  0  0  0  0  0
   13.5780  -20.1502   24.4633 O   0  0  0  0  0  0  0  0  0  0  0  0
   14.4846  -19.7453   26.4921 O   0  0  0  0  0  0  0  0  0  0  0  0
  2  1  1  1
  2 10  1  0
  3  2  1  0
  4  3  1  0
  5  4  2  0
  6  5  1  0
  7  8  1  0
  7  6  2  0
  8  9  2  0
  9  4  1  0
 10 14  1  0
 10 11  2  0
 13 12  1  6
 14 13  1  0
 15 13  1  0
 15 19  1  0
 16 15  2  0
 18 17  1  1
 18 19  1  0
 18 20  1  0
 20 22  1  0
 21 20  2  0
M  END
$$$$
