FAA.pdb
     RDKit          3D

 22 22  0  0  1  0  0  0  0  0999 V2000
    6.4237  -18.2972   20.4476 N   0  0  0  0  0  0  0  0  0  0  0  0
    7.2732  -17.1605   20.7050 C   0  0  1  0  0  0  0  0  0  0  0  0
    6.5509  -16.1799   21.6344 C   0  0  0  0  0  0  0  0  0  0  0  0
    7.0561  -14.8116   21.4798 C   0  0  0  0  0  0  0  0  0  0  0  0
    7.5485  -14.1503   22.6095 C   0  0  0  0  0  0  0  0  0  0  0  0
    8.0211  -12.8639   22.4525 C   0  0  0  0  0  0  0  0  0  0  0  0
    8.0233  -12.2184   21.2332 C   0  0  0  0  0  0  0  0  0  0  0  0
    7.5300  -12.8955   20.1288 C   0  0  0  0  0  0  0  0  0  0  0  0
    7.0595  -14.1700   20.2734 C   0  0  0  0  0  0  0  0  0  0  0  0
    8.5077  -17.5739   21.4642 C   0  0  0  0  0  0  0  0  0  0  0  0
    8.4523  -18.4659   22.3462 O   0  0  0  0  0  0  0  0  0  0  0  0
   12.1949  -16.8919   21.0860 C   0  0  0  0  0  0  0  0  0  0  0  0
   10.9891  -17.3107   21.8573 C   0  0  2  0  0  0  0  0  0  0  0  0
    9.7432  -16.9722   21.2021 N   0  0  0  0  0  0  0  0  0  0  0  0
   10.9480  -16.8951   23.2480 C   0  0  0  0  0  0  0  0  0  0  0  0
   11.9159  -17.1832   23.9997 O   0  0  0  0  0  0  0  0  0  0  0  0
    8.8864  -14.7209   25.5217 C   0  0  0  0  0  0  0  0  0  0  0  0
    9.9660  -15.7383   25.2302 C   0  0  2  0  0  0  0  0  0  0  0  0
    9.8883  -16.1739   23.8563 N   0  0  0  0  0  0  0  0  0  0  0  0
    9.8320  -16.8591   26.1712 C   0  0  0  0  0  0  0  0  0  0  0  0
    9.9468  -16.6789   27.4180 O   0  0  0  0  0  0  0  0  0  0  0  0
    9.5794  -18.1300   25.7265 O   0  0  0  0  0  0  0  0  0  0  0  0
  2  1  1  1
  2 10  1  0
  3  2  1  0
  4  3  1  0
  5  4  2  0
  6  5  1  0
  7  8  1  0
  7  6  2  0
  8  9  2  0
  9  4  1  0
 10 14  1  0
 10 11  2  0
 13 12  1  6
 14 13  1  0
 15 13  1  0
 15 19  1  0
 16 15  2  0
 18 17  1  1
 18 19  1  0
 18 20  1  0
 20 22  1  0
 21 20  2  0
M  END
$$$$
