FAA.pdb
     RDKit          3D

 22 22  0  0  1  0  0  0  0  0999 V2000
    6.0095  -16.6497   25.0821 N   0  0  0  0  0  0  0  0  0  0  0  0
    7.2253  -15.9761   24.6973 C   0  0  1  0  0  0  0  0  0  0  0  0
    7.8050  -15.2334   25.9054 C   0  0  0  0  0  0  0  0  0  0  0  0
    7.2555  -13.8788   26.0260 C   0  0  0  0  0  0  0  0  0  0  0  0
    7.8393  -12.8525   25.2764 C   0  0  0  0  0  0  0  0  0  0  0  0
    7.3144  -11.5826   25.3975 C   0  0  0  0  0  0  0  0  0  0  0  0
    6.2467  -11.2973   26.2233 C   0  0  0  0  0  0  0  0  0  0  0  0
    5.6858  -12.3320   26.9557 C   0  0  0  0  0  0  0  0  0  0  0  0
    6.1981  -13.5935   26.8431 C   0  0  0  0  0  0  0  0  0  0  0  0
    8.2894  -16.9697   24.3078 C   0  0  0  0  0  0  0  0  0  0  0  0
    8.3354  -18.1056   24.8412 O   0  0  0  0  0  0  0  0  0  0  0  0
   10.9463  -17.0824   21.6215 C   0  0  0  0  0  0  0  0  0  0  0  0
   10.3028  -17.5316   22.8896 C   0  0  2  0  0  0  0  0  0  0  0  0
    9.2495  -16.6477   23.3427 N   0  0  0  0  0  0  0  0  0  0  0  0
   11.2038  -17.8344   23.9872 C   0  0  0  0  0  0  0  0  0  0  0  0
   11.6931  -16.8856   24.6544 O   0  0  0  0  0  0  0  0  0  0  0  0
   12.5459  -20.7939   25.8868 C   0  0  0  0  0  0  0  0  0  0  0  0
   12.5349  -19.3418   25.4664 C   0  0  2  0  0  0  0  0  0  0  0  0
   11.5956  -19.1374   24.3897 N   0  0  0  0  0  0  0  0  0  0  0  0
   13.8986  -18.9436   25.0899 C   0  0  0  0  0  0  0  0  0  0  0  0
   14.2583  -18.9214   23.8774 O   0  0  0  0  0  0  0  0  0  0  0  0
   14.8187  -18.5855   26.0396 O   0  0  0  0  0  0  0  0  0  0  0  0
  2  1  1  1
  2 10  1  0
  3  2  1  0
  4  3  1  0
  5  4  2  0
  6  5  1  0
  7  8  1  0
  7  6  2  0
  8  9  2  0
  9  4  1  0
 10 14  1  0
 10 11  2  0
 13 12  1  6
 14 13  1  0
 15 13  1  0
 15 19  1  0
 16 15  2  0
 18 17  1  6
 18 19  1  0
 18 20  1  0
 20 22  1  0
 21 20  2  0
M  END
$$$$
