FAA.pdb
     RDKit          3D

 22 22  0  0  1  0  0  0  0  0999 V2000
    6.0995  -16.8896   24.3913 N   0  0  0  0  0  0  0  0  0  0  0  0
    7.1804  -15.9441   24.5239 C   0  0  1  0  0  0  0  0  0  0  0  0
    7.0548  -15.2052   25.8601 C   0  0  0  0  0  0  0  0  0  0  0  0
    6.5924  -13.8253   25.6771 C   0  0  0  0  0  0  0  0  0  0  0  0
    5.4178  -13.4240   26.3215 C   0  0  0  0  0  0  0  0  0  0  0  0
    4.9923  -12.1241   26.1426 C   0  0  0  0  0  0  0  0  0  0  0  0
    5.6794  -11.2202   25.3588 C   0  0  0  0  0  0  0  0  0  0  0  0
    6.8408  -11.6426   24.7309 C   0  0  0  0  0  0  0  0  0  0  0  0
    7.2711  -12.9280   24.9015 C   0  0  0  0  0  0  0  0  0  0  0  0
    8.5080  -16.6533   24.5981 C   0  0  0  0  0  0  0  0  0  0  0  0
    8.6033  -17.7867   25.1301 O   0  0  0  0  0  0  0  0  0  0  0  0
   11.9293  -16.1059   23.1282 C   0  0  0  0  0  0  0  0  0  0  0  0
   10.9982  -16.6163   24.1754 C   0  0  2  0  0  0  0  0  0  0  0  0
    9.6639  -16.0635   24.0753 N   0  0  0  0  0  0  0  0  0  0  0  0
   11.4716  -16.5269   25.5452 C   0  0  0  0  0  0  0  0  0  0  0  0
   12.5761  -17.0514   25.8445 O   0  0  0  0  0  0  0  0  0  0  0  0
   10.7331  -14.6081   28.6713 C   0  0  0  0  0  0  0  0  0  0  0  0
   11.3859  -15.7415   27.9133 C   0  0  2  0  0  0  0  0  0  0  0  0
   10.7855  -15.8849   26.6085 N   0  0  0  0  0  0  0  0  0  0  0  0
   11.2759  -16.9729   28.7079 C   0  0  0  0  0  0  0  0  0  0  0  0
   11.8002  -17.0550   29.8561 O   0  0  0  0  0  0  0  0  0  0  0  0
   10.6033  -18.0661   28.2292 O   0  0  0  0  0  0  0  0  0  0  0  0
  2  1  1  1
  2 10  1  0
  3  2  1  0
  4  3  1  0
  5  4  2  0
  6  5  1  0
  7  8  1  0
  7  6  2  0
  8  9  2  0
  9  4  1  0
 10 14  1  0
 10 11  2  0
 13 12  1  6
 14 13  1  0
 15 13  1  0
 15 19  1  0
 16 15  2  0
 18 17  1  1
 18 19  1  0
 18 20  1  0
 20 22  1  0
 21 20  2  0
M  END
$$$$
