FAA.pdb
     RDKit          3D

 22 22  0  0  1  0  0  0  0  0999 V2000
    5.6950  -16.8404   24.8689 N   0  0  0  0  0  0  0  0  0  0  0  0
    6.7295  -15.8890   24.5458 C   0  0  1  0  0  0  0  0  0  0  0  0
    7.2179  -15.2067   25.8276 C   0  0  0  0  0  0  0  0  0  0  0  0
    6.7800  -13.8087   25.9004 C   0  0  0  0  0  0  0  0  0  0  0  0
    7.6293  -12.8163   25.4006 C   0  0  0  0  0  0  0  0  0  0  0  0
    7.2073  -11.5051   25.4741 C   0  0  0  0  0  0  0  0  0  0  0  0
    5.9908  -11.1471   26.0175 C   0  0  0  0  0  0  0  0  0  0  0  0
    5.1672  -12.1494   26.5060 C   0  0  0  0  0  0  0  0  0  0  0  0
    5.5756  -13.4514   26.4380 C   0  0  0  0  0  0  0  0  0  0  0  0
    7.9457  -16.5857   23.9918 C   0  0  0  0  0  0  0  0  0  0  0  0
    8.2122  -17.7694   24.3149 O   0  0  0  0  0  0  0  0  0  0  0  0
   10.5414  -15.7530   21.3775 C   0  0  0  0  0  0  0  0  0  0  0  0
   10.0386  -16.4750   22.5816 C   0  0  2  0  0  0  0  0  0  0  0  0
    8.8044  -15.9279   23.1047 N   0  0  0  0  0  0  0  0  0  0  0  0
   10.9956  -16.6598   23.6579 C   0  0  0  0  0  0  0  0  0  0  0  0
   12.1177  -17.1670   23.3961 O   0  0  0  0  0  0  0  0  0  0  0  0
   11.8367  -15.3865   26.9938 C   0  0  0  0  0  0  0  0  0  0  0  0
   11.7856  -16.5444   26.0231 C   0  0  2  0  0  0  0  0  0  0  0  0
   10.7780  -16.3119   25.0162 N   0  0  0  0  0  0  0  0  0  0  0  0
   11.5390  -17.7845   26.7722 C   0  0  0  0  0  0  0  0  0  0  0  0
   10.5283  -18.5038   26.5249 O   0  0  0  0  0  0  0  0  0  0  0  0
   12.3951  -18.1973   27.7589 O   0  0  0  0  0  0  0  0  0  0  0  0
  2  1  1  1
  2 10  1  0
  3  2  1  0
  4  3  1  0
  5  4  2  0
  6  5  1  0
  7  8  1  0
  7  6  2  0
  8  9  2  0
  9  4  1  0
 10 14  1  0
 10 11  2  0
 13 12  1  6
 14 13  1  0
 15 13  1  0
 15 19  1  0
 16 15  2  0
 18 17  1  1
 18 19  1  0
 18 20  1  0
 20 22  1  0
 21 20  2  0
M  END
$$$$
