FAA.pdb
     RDKit          3D

 22 22  0  0  1  0  0  0  0  0999 V2000
    6.2894  -17.1723   25.8228 N   0  0  0  0  0  0  0  0  0  0  0  0
    6.6672  -15.9935   25.0828 C   0  0  1  0  0  0  0  0  0  0  0  0
    7.7272  -15.2132   25.8668 C   0  0  0  0  0  0  0  0  0  0  0  0
    7.2076  -13.9322   26.3572 C   0  0  0  0  0  0  0  0  0  0  0  0
    8.1203  -12.9480   26.7499 C   0  0  0  0  0  0  0  0  0  0  0  0
    7.6206  -11.7471   27.2093 C   0  0  0  0  0  0  0  0  0  0  0  0
    6.2676  -11.4903   27.2923 C   0  0  0  0  0  0  0  0  0  0  0  0
    5.3836  -12.4821   26.8970 C   0  0  0  0  0  0  0  0  0  0  0  0
    5.8681  -13.6751   26.4404 C   0  0  0  0  0  0  0  0  0  0  0  0
    7.3414  -16.3659   23.7874 C   0  0  0  0  0  0  0  0  0  0  0  0
    7.8059  -17.5192   23.6120 O   0  0  0  0  0  0  0  0  0  0  0  0
    7.7295  -14.6477   20.4401 C   0  0  0  0  0  0  0  0  0  0  0  0
    8.0210  -15.7111   21.4443 C   0  0  2  0  0  0  0  0  0  0  0  0
    7.4642  -15.4337   22.7516 N   0  0  0  0  0  0  0  0  0  0  0  0
    9.4137  -16.1020   21.5702 C   0  0  0  0  0  0  0  0  0  0  0  0
   10.0240  -16.5221   20.5524 O   0  0  0  0  0  0  0  0  0  0  0  0
   12.4928  -15.3753   22.9847 C   0  0  0  0  0  0  0  0  0  0  0  0
   11.5339  -16.5318   22.8160 C   0  0  2  0  0  0  0  0  0  0  0  0
   10.1730  -16.0533   22.7679 N   0  0  0  0  0  0  0  0  0  0  0  0
   11.7424  -17.4883   23.9122 C   0  0  0  0  0  0  0  0  0  0  0  0
   10.7984  -17.7947   24.6964 O   0  0  0  0  0  0  0  0  0  0  0  0
   12.9633  -18.0752   24.1164 O   0  0  0  0  0  0  0  0  0  0  0  0
  2  1  1  1
  2 10  1  0
  3  2  1  0
  4  3  1  0
  5  4  2  0
  6  5  1  0
  7  8  1  0
  7  6  2  0
  8  9  2  0
  9  4  1  0
 10 14  1  0
 10 11  2  0
 13 12  1  6
 14 13  1  0
 15 13  1  0
 15 19  1  0
 16 15  2  0
 18 17  1  1
 18 19  1  0
 18 20  1  0
 20 22  1  0
 21 20  2  0
M  END
$$$$
