FAA.pdb
     RDKit          3D

 22 22  0  0  1  0  0  0  0  0999 V2000
    6.6186  -16.4478   25.9389 N   0  0  0  0  0  0  0  0  0  0  0  0
    6.8521  -15.5527   24.8324 C   0  0  1  0  0  0  0  0  0  0  0  0
    7.8893  -14.4994   25.2345 C   0  0  0  0  0  0  0  0  0  0  0  0
    7.3146  -13.4798   26.1186 C   0  0  0  0  0  0  0  0  0  0  0  0
    5.9752  -13.1193   25.9394 C   0  0  0  0  0  0  0  0  0  0  0  0
    5.4450  -12.1596   26.7765 C   0  0  0  0  0  0  0  0  0  0  0  0
    6.1843  -11.5528   27.7709 C   0  0  0  0  0  0  0  0  0  0  0  0
    7.5096  -11.9276   27.9280 C   0  0  0  0  0  0  0  0  0  0  0  0
    8.0445  -12.8773   27.1042 C   0  0  0  0  0  0  0  0  0  0  0  0
    7.4751  -16.2849   23.6718 C   0  0  0  0  0  0  0  0  0  0  0  0
    7.8010  -17.4933   23.7734 O   0  0  0  0  0  0  0  0  0  0  0  0
    7.9317  -15.5033   20.0135 C   0  0  0  0  0  0  0  0  0  0  0  0
    8.2340  -16.2600   21.2626 C   0  0  2  0  0  0  0  0  0  0  0  0
    7.7040  -15.6332   22.4553 N   0  0  0  0  0  0  0  0  0  0  0  0
    9.6259  -16.6196   21.4670 C   0  0  0  0  0  0  0  0  0  0  0  0
   10.2214  -17.2832   20.5782 O   0  0  0  0  0  0  0  0  0  0  0  0
   12.6691  -15.5827   23.1048 C   0  0  0  0  0  0  0  0  0  0  0  0
   11.7612  -16.7395   22.7546 C   0  0  2  0  0  0  0  0  0  0  0  0
   10.3997  -16.2833   22.6078 N   0  0  0  0  0  0  0  0  0  0  0  0
   11.8859  -17.7746   23.7905 C   0  0  0  0  0  0  0  0  0  0  0  0
   13.0054  -18.3027   24.0508 O   0  0  0  0  0  0  0  0  0  0  0  0
   10.7950  -18.1972   24.5033 O   0  0  0  0  0  0  0  0  0  0  0  0
  2  1  1  1
  2 10  1  0
  3  2  1  0
  4  3  1  0
  5  4  2  0
  6  5  1  0
  7  8  1  0
  7  6  2  0
  8  9  2  0
  9  4  1  0
 10 14  1  0
 10 11  2  0
 13 12  1  6
 14 13  1  0
 15 13  1  0
 15 19  1  0
 16 15  2  0
 18 17  1  1
 18 19  1  0
 18 20  1  0
 20 22  1  0
 21 20  2  0
M  END
$$$$
