FAA.pdb
     RDKit          3D

 22 22  0  0  1  0  0  0  0  0999 V2000
    6.0654  -16.8127   25.7137 N   0  0  0  0  0  0  0  0  0  0  0  0
    6.7294  -15.9759   24.7449 C   0  0  1  0  0  0  0  0  0  0  0  0
    7.8787  -15.2211   25.4206 C   0  0  0  0  0  0  0  0  0  0  0  0
    7.4753  -13.8726   25.8334 C   0  0  0  0  0  0  0  0  0  0  0  0
    7.1033  -13.6657   27.1656 C   0  0  0  0  0  0  0  0  0  0  0  0
    6.7259  -12.3936   27.5427 C   0  0  0  0  0  0  0  0  0  0  0  0
    6.7043  -11.3341   26.6594 C   0  0  0  0  0  0  0  0  0  0  0  0
    7.0775  -11.5653   25.3446 C   0  0  0  0  0  0  0  0  0  0  0  0
    7.4530  -12.8215   24.9605 C   0  0  0  0  0  0  0  0  0  0  0  0
    7.3901  -16.8103   23.6778 C   0  0  0  0  0  0  0  0  0  0  0  0
    7.7306  -17.9968   23.9076 O   0  0  0  0  0  0  0  0  0  0  0  0
    7.9670  -16.4505   19.9795 C   0  0  0  0  0  0  0  0  0  0  0  0
    8.3108  -16.9778   21.3315 C   0  0  2  0  0  0  0  0  0  0  0  0
    7.6383  -16.2801   22.4072 N   0  0  0  0  0  0  0  0  0  0  0  0
    9.7276  -17.0972   21.6259 C   0  0  0  0  0  0  0  0  0  0  0  0
   10.4536  -17.7861   20.8622 O   0  0  0  0  0  0  0  0  0  0  0  0
   12.4756  -15.2731   22.9490 C   0  0  0  0  0  0  0  0  0  0  0  0
   11.8133  -16.6317   22.9163 C   0  0  2  0  0  0  0  0  0  0  0  0
   10.3894  -16.4923   22.7257 N   0  0  0  0  0  0  0  0  0  0  0  0
   12.1346  -17.3492   24.1581 C   0  0  0  0  0  0  0  0  0  0  0  0
   11.2273  -17.6609   24.9825 O   0  0  0  0  0  0  0  0  0  0  0  0
   13.4241  -17.7008   24.4587 O   0  0  0  0  0  0  0  0  0  0  0  0
  2  1  1  1
  2 10  1  0
  3  2  1  0
  4  3  1  0
  5  4  2  0
  6  5  1  0
  7  8  1  0
  7  6  2  0
  8  9  2  0
  9  4  1  0
 10 14  1  0
 10 11  2  0
 13 12  1  6
 14 13  1  0
 15 13  1  0
 15 19  1  0
 16 15  2  0
 18 17  1  1
 18 19  1  0
 18 20  1  0
 20 22  1  0
 21 20  2  0
M  END
$$$$
