FAA.pdb
     RDKit          3D

 22 22  0  0  1  0  0  0  0  0999 V2000
    5.9799  -16.6446   25.1395 N   0  0  0  0  0  0  0  0  0  0  0  0
    7.1359  -15.8999   24.7049 C   0  0  1  0  0  0  0  0  0  0  0  0
    7.7455  -15.1562   25.8975 C   0  0  0  0  0  0  0  0  0  0  0  0
    7.2743  -13.7691   25.9720 C   0  0  0  0  0  0  0  0  0  0  0  0
    8.0728  -12.7624   25.4200 C   0  0  0  0  0  0  0  0  0  0  0  0
    7.6198  -11.4616   25.4956 C   0  0  0  0  0  0  0  0  0  0  0  0
    6.4207  -11.1275   26.0904 C   0  0  0  0  0  0  0  0  0  0  0  0
    5.6477  -12.1437   26.6302 C   0  0  0  0  0  0  0  0  0  0  0  0
    6.0870  -13.4354   26.5606 C   0  0  0  0  0  0  0  0  0  0  0  0
    8.2249  -16.8274   24.2306 C   0  0  0  0  0  0  0  0  0  0  0  0
    8.4037  -17.9432   24.7783 O   0  0  0  0  0  0  0  0  0  0  0  0
   10.6250  -16.7808   21.3024 C   0  0  0  0  0  0  0  0  0  0  0  0
   10.0769  -17.3136   22.5829 C   0  0  2  0  0  0  0  0  0  0  0  0
    9.0608  -16.4649   23.1690 N   0  0  0  0  0  0  0  0  0  0  0  0
   11.0566  -17.6830   23.5889 C   0  0  0  0  0  0  0  0  0  0  0  0
   11.5954  -16.7773   24.2775 O   0  0  0  0  0  0  0  0  0  0  0  0
   12.1814  -20.7084   25.4572 C   0  0  0  0  0  0  0  0  0  0  0  0
   12.3774  -19.2917   24.9672 C   0  0  2  0  0  0  0  0  0  0  0  0
   11.4755  -19.0079   23.8767 N   0  0  0  0  0  0  0  0  0  0  0  0
   13.7835  -19.1111   24.5795 C   0  0  0  0  0  0  0  0  0  0  0  0
   14.1168  -19.0266   23.3623 O   0  0  0  0  0  0  0  0  0  0  0  0
   14.7727  -19.0291   25.5236 O   0  0  0  0  0  0  0  0  0  0  0  0
  2  1  1  1
  2 10  1  0
  3  2  1  0
  4  3  1  0
  5  4  2  0
  6  5  1  0
  7  8  1  0
  7  6  2  0
  8  9  2  0
  9  4  1  0
 10 14  1  0
 10 11  2  0
 13 12  1  6
 14 13  1  0
 15 13  1  0
 15 19  1  0
 16 15  2  0
 18 17  1  6
 18 19  1  0
 18 20  1  0
 20 22  1  0
 21 20  2  0
M  END
$$$$
