QLL.pdb
     RDKit          3D

 26 25  0  0  1  0  0  0  0  0999 V2000
   13.9910   -7.4547  -18.1569 N   0  0  0  0  0  0  0  0  0  0  0  0
   14.4260   -8.0865  -19.3581 C   0  0  0  0  0  0  0  0  0  0  0  0
   13.6284   -8.1374  -20.3249 O   0  0  0  0  0  0  0  0  0  0  0  0
   15.7667   -8.6764  -19.5030 C   0  0  0  0  0  0  0  0  0  0  0  0
   16.5716   -8.4404  -18.2706 C   0  0  0  0  0  0  0  0  0  0  0  0
   17.1073   -9.7067  -17.6570 C   0  0  2  0  0  0  0  0  0  0  0  0
   16.0344  -10.4873  -17.1092 N   0  0  0  0  0  0  0  0  0  0  0  0
   18.1641   -9.3947  -16.6721 C   0  0  0  0  0  0  0  0  0  0  0  0
   17.8092   -8.8215  -15.6108 O   0  0  0  0  0  0  0  0  0  0  0  0
   22.3539  -10.0900  -13.6208 C   0  0  0  0  0  0  0  0  0  0  0  0
   22.8610   -9.9942  -15.0481 C   0  0  1  0  0  0  0  0  0  0  0  0
   24.1557  -10.7054  -15.2240 C   0  0  0  0  0  0  0  0  0  0  0  0
   21.7977  -10.2913  -16.0415 C   0  0  0  0  0  0  0  0  0  0  0  0
   20.5847   -9.3925  -15.9756 C   0  0  2  0  0  0  0  0  0  0  0  0
   19.5393   -9.7170  -16.8858 N   0  0  0  0  0  0  0  0  0  0  0  0
   21.0130   -7.9848  -16.0374 C   0  0  0  0  0  0  0  0  0  0  0  0
   21.4847   -7.4725  -17.1064 O   0  0  0  0  0  0  0  0  0  0  0  0
   21.3785   -3.2137  -16.8127 C   0  0  0  0  0  0  0  0  0  0  0  0
   20.6046   -3.3425  -15.4781 C   0  0  1  0  0  0  0  0  0  0  0  0
   19.3576   -2.5070  -15.6527 C   0  0  0  0  0  0  0  0  0  0  0  0
   20.2511   -4.7730  -15.3562 C   0  0  0  0  0  0  0  0  0  0  0  0
   21.3227   -5.7442  -15.0234 C   0  0  2  0  0  0  0  0  0  0  0  0
   20.9233   -7.1251  -14.9142 N   0  0  0  0  0  0  0  0  0  0  0  0
   21.9742   -5.3233  -13.7663 C   0  0  0  0  0  0  0  0  0  0  0  0
   22.7662   -4.1931  -13.7357 O   0  0  0  0  0  0  0  0  0  0  0  0
   21.8051   -5.9947  -12.7312 O   0  0  0  0  0  0  0  0  0  0  0  0
  2  1  1  0
  3  2  2  0
  4  2  1  0
  5  4  1  0
  5  6  1  0
  6  8  1  0
  6  7  1  1
  8  9  2  0
 11 10  1  1
 12 11  1  0
 13 11  1  0
 14 13  1  6
 15  8  1  0
 15 14  1  0
 16 14  1  0
 16 17  2  0
 19 18  1  6
 19 21  1  0
 19 20  1  0
 22 21  1  1
 22 23  1  0
 23 16  1  0
 24 25  1  0
 24 22  1  0
 26 24  2  0
M  END
$$$$
