QLL.pdb
     RDKit          3D

 26 25  0  0  1  0  0  0  0  0999 V2000
   22.2388  -18.4534  -18.5659 N   0  0  0  0  0  0  0  0  0  0  0  0
   23.2649  -17.4918  -18.3344 C   0  0  0  0  0  0  0  0  0  0  0  0
   23.7239  -16.8644  -19.3187 O   0  0  0  0  0  0  0  0  0  0  0  0
   23.8004  -17.2113  -16.9923 C   0  0  0  0  0  0  0  0  0  0  0  0
   24.2034  -18.4797  -16.3208 C   0  0  0  0  0  0  0  0  0  0  0  0
   25.5330  -18.3868  -15.6202 C   0  0  2  0  0  0  0  0  0  0  0  0
   26.5598  -18.0077  -16.5488 N   0  0  0  0  0  0  0  0  0  0  0  0
   25.8279  -19.6467  -14.9061 C   0  0  0  0  0  0  0  0  0  0  0  0
   25.1929  -20.6715  -15.2630 O   0  0  0  0  0  0  0  0  0  0  0  0
   30.8993  -20.3198  -12.7521 C   0  0  0  0  0  0  0  0  0  0  0  0
   29.5809  -20.4968  -13.4828 C   0  0  1  0  0  0  0  0  0  0  0  0
   29.7559  -21.2148  -14.7738 C   0  0  0  0  0  0  0  0  0  0  0  0
   28.5056  -20.9918  -12.5858 C   0  0  0  0  0  0  0  0  0  0  0  0
   27.1092  -20.9334  -13.1604 C   0  0  2  0  0  0  0  0  0  0  0  0
   26.7875  -19.7308  -13.8512 N   0  0  0  0  0  0  0  0  0  0  0  0
   26.1344  -21.3018  -12.1198 C   0  0  0  0  0  0  0  0  0  0  0  0
   26.1051  -22.4711  -11.6105 O   0  0  0  0  0  0  0  0  0  0  0  0
   25.8103  -19.4033   -7.4009 C   0  0  0  0  0  0  0  0  0  0  0  0
   25.7295  -20.4470   -8.5415 C   0  0  1  0  0  0  0  0  0  0  0  0
   25.6512  -21.7905   -7.8541 C   0  0  0  0  0  0  0  0  0  0  0  0
   24.4671  -20.1620   -9.2567 C   0  0  0  0  0  0  0  0  0  0  0  0
   24.2549  -20.7698  -10.5938 C   0  0  2  0  0  0  0  0  0  0  0  0
   25.1786  -20.3777  -11.6288 N   0  0  0  0  0  0  0  0  0  0  0  0
   22.8752  -20.4810  -11.0353 C   0  0  0  0  0  0  0  0  0  0  0  0
   21.7988  -20.9050  -10.2821 O   0  0  0  0  0  0  0  0  0  0  0  0
   22.6871  -19.8514  -12.0931 O   0  0  0  0  0  0  0  0  0  0  0  0
  2  1  1  0
  3  2  2  0
  4  2  1  0
  5  4  1  0
  5  6  1  0
  6  8  1  0
  6  7  1  6
  8  9  2  0
 11 10  1  1
 12 11  1  0
 13 11  1  0
 14 13  1  1
 15  8  1  0
 15 14  1  0
 16 14  1  0
 16 17  2  0
 19 18  1  1
 19 21  1  0
 19 20  1  0
 22 21  1  1
 22 23  1  0
 23 16  1  0
 24 25  1  0
 24 22  1  0
 26 24  2  0
M  END
$$$$
