QLL.pdb
     RDKit          3D

 26 25  0  0  1  0  0  0  0  0999 V2000
   24.3603  -25.4446  -20.4440 N   0  0  0  0  0  0  0  0  0  0  0  0
   24.9649  -24.1564  -20.3647 C   0  0  0  0  0  0  0  0  0  0  0  0
   24.4010  -23.1989  -20.9466 O   0  0  0  0  0  0  0  0  0  0  0  0
   26.2168  -23.9120  -19.6303 C   0  0  0  0  0  0  0  0  0  0  0  0
   25.9219  -23.4108  -18.2577 C   0  0  0  0  0  0  0  0  0  0  0  0
   25.1268  -22.1322  -18.2480 C   0  0  2  0  0  0  0  0  0  0  0  0
   25.7691  -21.1402  -19.0626 N   0  0  0  0  0  0  0  0  0  0  0  0
   24.8900  -21.6836  -16.8598 C   0  0  0  0  0  0  0  0  0  0  0  0
   24.4762  -22.5432  -16.0409 O   0  0  0  0  0  0  0  0  0  0  0  0
   28.1085  -17.7233  -14.7638 C   0  0  0  0  0  0  0  0  0  0  0  0
   27.2814  -18.9705  -15.0165 C   0  0  1  0  0  0  0  0  0  0  0  0
   27.9446  -20.1912  -14.4846 C   0  0  0  0  0  0  0  0  0  0  0  0
   25.8533  -18.7780  -14.6566 C   0  0  0  0  0  0  0  0  0  0  0  0
   24.9227  -19.8836  -15.0982 C   0  0  2  0  0  0  0  0  0  0  0  0
   25.1118  -20.3382  -16.4340 N   0  0  0  0  0  0  0  0  0  0  0  0
   23.5328  -19.5085  -14.7876 C   0  0  0  0  0  0  0  0  0  0  0  0
   23.1876  -19.1125  -13.6250 O   0  0  0  0  0  0  0  0  0  0  0  0
   20.3920  -16.9694  -18.2943 C   0  0  0  0  0  0  0  0  0  0  0  0
   20.9221  -17.1638  -16.8529 C   0  0  1  0  0  0  0  0  0  0  0  0
   20.3305  -16.0291  -16.0491 C   0  0  0  0  0  0  0  0  0  0  0  0
   20.3729  -18.4580  -16.3950 C   0  0  0  0  0  0  0  0  0  0  0  0
   21.1464  -19.2482  -15.4052 C   0  0  2  0  0  0  0  0  0  0  0  0
   22.5061  -19.5668  -15.7628 N   0  0  0  0  0  0  0  0  0  0  0  0
   20.4126  -20.4965  -15.1135 C   0  0  0  0  0  0  0  0  0  0  0  0
   19.2121  -20.4572  -14.4332 O   0  0  0  0  0  0  0  0  0  0  0  0
   20.8835  -21.5878  -15.4854 O   0  0  0  0  0  0  0  0  0  0  0  0
  2  1  1  0
  3  2  2  0
  4  2  1  0
  5  4  1  0
  5  6  1  0
  6  8  1  0
  6  7  1  6
  8  9  2  0
 11 10  1  1
 12 11  1  0
 13 11  1  0
 14 13  1  6
 15  8  1  0
 15 14  1  0
 16 14  1  0
 16 17  2  0
 19 18  1  6
 19 21  1  0
 19 20  1  0
 22 21  1  6
 22 23  1  0
 23 16  1  0
 24 25  1  0
 24 22  1  0
 26 24  2  0
M  END
$$$$
