QLL.pdb
     RDKit          3D

 26 25  0  0  1  0  0  0  0  0999 V2000
   20.5486  -21.8902  -15.2910 N   0  0  0  0  0  0  0  0  0  0  0  0
   20.8743  -20.5667  -15.7075 C   0  0  0  0  0  0  0  0  0  0  0  0
   19.9638  -19.8581  -16.1997 O   0  0  0  0  0  0  0  0  0  0  0  0
   22.2296  -20.0068  -15.5814 C   0  0  0  0  0  0  0  0  0  0  0  0
   23.1549  -21.0187  -14.9965 C   0  0  0  0  0  0  0  0  0  0  0  0
   23.6033  -20.6794  -13.5997 C   0  0  2  0  0  0  0  0  0  0  0  0
   23.8353  -19.2680  -13.4801 N   0  0  0  0  0  0  0  0  0  0  0  0
   24.7747  -21.4976  -13.2219 C   0  0  0  0  0  0  0  0  0  0  0  0
   24.7307  -22.7243  -13.4943 O   0  0  0  0  0  0  0  0  0  0  0  0
   30.1957  -20.0804  -13.3012 C   0  0  0  0  0  0  0  0  0  0  0  0
   28.7485  -20.1701  -12.8529 C   0  0  1  0  0  0  0  0  0  0  0  0
   27.8541  -19.3370  -13.7007 C   0  0  0  0  0  0  0  0  0  0  0  0
   28.3224  -21.5724  -12.6127 C   0  0  0  0  0  0  0  0  0  0  0  0
   26.9568  -21.7328  -11.9859 C   0  0  2  0  0  0  0  0  0  0  0  0
   25.9238  -20.9493  -12.5740 N   0  0  0  0  0  0  0  0  0  0  0  0
   27.0655  -21.5758  -10.5256 C   0  0  0  0  0  0  0  0  0  0  0  0
   27.8319  -22.3175   -9.8255 O   0  0  0  0  0  0  0  0  0  0  0  0
   28.1743  -18.6693   -6.2349 C   0  0  0  0  0  0  0  0  0  0  0  0
   27.8964  -19.9295   -7.0901 C   0  0  1  0  0  0  0  0  0  0  0  0
   28.1528  -21.1035   -6.1737 C   0  0  0  0  0  0  0  0  0  0  0  0
   26.4637  -19.8622   -7.4494 C   0  0  0  0  0  0  0  0  0  0  0  0
   25.9365  -20.8207   -8.4521 C   0  0  2  0  0  0  0  0  0  0  0  0
   26.3260  -20.5931   -9.8213 N   0  0  0  0  0  0  0  0  0  0  0  0
   24.4623  -20.8435   -8.3610 C   0  0  0  0  0  0  0  0  0  0  0  0
   23.8420  -21.2104   -7.1836 O   0  0  0  0  0  0  0  0  0  0  0  0
   23.7798  -20.5293   -9.3541 O   0  0  0  0  0  0  0  0  0  0  0  0
  2  1  1  0
  3  2  2  0
  4  2  1  0
  5  4  1  0
  5  6  1  0
  6  8  1  0
  6  7  1  6
  8  9  2  0
 11 10  1  6
 12 11  1  0
 13 11  1  0
 14 13  1  6
 15  8  1  0
 15 14  1  0
 16 14  1  0
 16 17  2  0
 19 18  1  1
 19 21  1  0
 19 20  1  0
 22 21  1  1
 22 23  1  0
 23 16  1  0
 24 25  1  0
 24 22  1  0
 26 24  2  0
M  END
$$$$
