QLL.pdb
     RDKit          3D

 26 25  0  0  1  0  0  0  0  0999 V2000
   20.7824  -20.0747  -17.6948 N   0  0  0  0  0  0  0  0  0  0  0  0
   19.9989  -19.8405  -16.5275 C   0  0  0  0  0  0  0  0  0  0  0  0
   19.0302  -19.0481  -16.6116 O   0  0  0  0  0  0  0  0  0  0  0  0
   20.2839  -20.4901  -15.2379 C   0  0  0  0  0  0  0  0  0  0  0  0
   21.7184  -20.8894  -15.1657 C   0  0  0  0  0  0  0  0  0  0  0  0
   22.5754  -19.9010  -14.4201 C   0  0  2  0  0  0  0  0  0  0  0  0
   22.5757  -18.6339  -15.0944 N   0  0  0  0  0  0  0  0  0  0  0  0
   23.9311  -20.4507  -14.2099 C   0  0  0  0  0  0  0  0  0  0  0  0
   24.0570  -21.7009  -14.2518 O   0  0  0  0  0  0  0  0  0  0  0  0
   28.5074  -17.5465  -15.6152 C   0  0  0  0  0  0  0  0  0  0  0  0
   27.5068  -18.6711  -15.4215 C   0  0  1  0  0  0  0  0  0  0  0  0
   27.5915  -19.6808  -16.5107 C   0  0  0  0  0  0  0  0  0  0  0  0
   27.5104  -19.1905  -14.0301 C   0  0  0  0  0  0  0  0  0  0  0  0
   26.3739  -20.1259  -13.6883 C   0  0  2  0  0  0  0  0  0  0  0  0
   25.0710  -19.6245  -13.9672 N   0  0  0  0  0  0  0  0  0  0  0  0
   26.5405  -20.6178  -12.3102 C   0  0  0  0  0  0  0  0  0  0  0  0
   27.6198  -21.1766  -11.9222 O   0  0  0  0  0  0  0  0  0  0  0  0
   28.0118  -21.3253   -7.6980 C   0  0  0  0  0  0  0  0  0  0  0  0
   26.8868  -20.2641   -7.7685 C   0  0  1  0  0  0  0  0  0  0  0  0
   27.4426  -19.0404   -7.0778 C   0  0  0  0  0  0  0  0  0  0  0  0
   26.6817  -19.9925   -9.2075 C   0  0  0  0  0  0  0  0  0  0  0  0
   25.7581  -20.8675   -9.9714 C   0  0  2  0  0  0  0  0  0  0  0  0
   25.5122  -20.4959  -11.3425 N   0  0  0  0  0  0  0  0  0  0  0  0
   24.4721  -20.9492   -9.2493 C   0  0  0  0  0  0  0  0  0  0  0  0
   23.2924  -20.6203   -9.8864 O   0  0  0  0  0  0  0  0  0  0  0  0
   24.4571  -21.3172   -8.0597 O   0  0  0  0  0  0  0  0  0  0  0  0
  2  1  1  0
  3  2  2  0
  4  2  1  0
  5  4  1  0
  5  6  1  0
  6  8  1  0
  6  7  1  6
  8  9  2  0
 11 10  1  1
 12 11  1  0
 13 11  1  0
 14 13  1  1
 15  8  1  0
 15 14  1  0
 16 14  1  0
 16 17  2  0
 19 18  1  6
 19 21  1  0
 19 20  1  0
 22 21  1  1
 22 23  1  0
 23 16  1  0
 24 25  1  0
 24 22  1  0
 26 24  2  0
M  END
$$$$
