QLL.pdb
     RDKit          3D

 26 25  0  0  1  0  0  0  0  0999 V2000
   26.8664  -21.8194  -17.7760 N   0  0  0  0  0  0  0  0  0  0  0  0
   28.2399  -21.5175  -17.5446 C   0  0  0  0  0  0  0  0  0  0  0  0
   28.9457  -21.1749  -18.5233 O   0  0  0  0  0  0  0  0  0  0  0  0
   28.8543  -21.5931  -16.2092 C   0  0  0  0  0  0  0  0  0  0  0  0
   27.8465  -22.0270  -15.2001 C   0  0  0  0  0  0  0  0  0  0  0  0
   26.8247  -20.9672  -14.8843 C   0  0  2  0  0  0  0  0  0  0  0  0
   27.4741  -19.7224  -14.5859 N   0  0  0  0  0  0  0  0  0  0  0  0
   25.9216  -21.4270  -13.8085 C   0  0  0  0  0  0  0  0  0  0  0  0
   25.3512  -22.5355  -13.9717 O   0  0  0  0  0  0  0  0  0  0  0  0
   26.2480  -19.9341   -8.3902 C   0  0  0  0  0  0  0  0  0  0  0  0
   26.0145  -20.7299   -9.6613 C   0  0  1  0  0  0  0  0  0  0  0  0
   26.2281  -22.1867   -9.4490 C   0  0  0  0  0  0  0  0  0  0  0  0
   24.7579  -20.3340  -10.3471 C   0  0  0  0  0  0  0  0  0  0  0  0
   24.5849  -20.8844  -11.7437 C   0  0  2  0  0  0  0  0  0  0  0  0
   25.6848  -20.6685  -12.6213 N   0  0  0  0  0  0  0  0  0  0  0  0
   23.2912  -20.4402  -12.2895 C   0  0  0  0  0  0  0  0  0  0  0  0
   23.1771  -19.3528  -12.9468 O   0  0  0  0  0  0  0  0  0  0  0  0
   20.4564  -20.8773  -16.0985 C   0  0  0  0  0  0  0  0  0  0  0  0
   20.1787  -22.1667  -15.2880 C   0  0  1  0  0  0  0  0  0  0  0  0
   20.4277  -23.3076  -16.2471 C   0  0  0  0  0  0  0  0  0  0  0  0
   21.1819  -22.1811  -14.2018 C   0  0  0  0  0  0  0  0  0  0  0  0
   21.0729  -21.1709  -13.1201 C   0  0  2  0  0  0  0  0  0  0  0  0
   22.1055  -21.1966  -12.1144 N   0  0  0  0  0  0  0  0  0  0  0  0
   19.7540  -21.3091  -12.4697 C   0  0  0  0  0  0  0  0  0  0  0  0
   19.6452  -21.9183  -11.2358 O   0  0  0  0  0  0  0  0  0  0  0  0
   18.7376  -20.8721  -13.0414 O   0  0  0  0  0  0  0  0  0  0  0  0
  2  1  1  0
  3  2  2  0
  4  2  1  0
  5  4  1  0
  5  6  1  0
  6  8  1  0
  6  7  1  1
  8  9  2  0
 11 10  1  1
 12 11  1  0
 13 11  1  0
 14 13  1  1
 15  8  1  0
 15 14  1  0
 16 14  1  0
 16 17  2  0
 19 18  1  6
 19 21  1  0
 19 20  1  0
 22 21  1  6
 22 23  1  0
 23 16  1  0
 24 25  1  0
 24 22  1  0
 26 24  2  0
M  END
$$$$
