QLL.pdb
     RDKit          3D

 26 25  0  0  1  0  0  0  0  0999 V2000
   18.4418  -18.0334  -12.6112 N   0  0  0  0  0  0  0  0  0  0  0  0
   18.8606  -17.9458  -13.9707 C   0  0  0  0  0  0  0  0  0  0  0  0
   18.6050  -16.8939  -14.6043 O   0  0  0  0  0  0  0  0  0  0  0  0
   19.5763  -19.0369  -14.6516 C   0  0  0  0  0  0  0  0  0  0  0  0
   19.8215  -20.1635  -13.7067 C   0  0  0  0  0  0  0  0  0  0  0  0
   21.2538  -20.2592  -13.2521 C   0  0  2  0  0  0  0  0  0  0  0  0
   22.0956  -20.6677  -14.3406 N   0  0  0  0  0  0  0  0  0  0  0  0
   21.3609  -21.1390  -12.0694 C   0  0  0  0  0  0  0  0  0  0  0  0
   21.1641  -22.3679  -12.2477 O   0  0  0  0  0  0  0  0  0  0  0  0
   24.8940  -20.1215   -7.7234 C   0  0  0  0  0  0  0  0  0  0  0  0
   24.1017  -20.7594   -8.8498 C   0  0  1  0  0  0  0  0  0  0  0  0
   24.7861  -21.9623   -9.3953 C   0  0  0  0  0  0  0  0  0  0  0  0
   22.6639  -20.9085   -8.5087 C   0  0  0  0  0  0  0  0  0  0  0  0
   21.7949  -21.4695   -9.6103 C   0  0  2  0  0  0  0  0  0  0  0  0
   21.6732  -20.6462  -10.7654 N   0  0  0  0  0  0  0  0  0  0  0  0
   20.5042  -21.8995   -9.0465 C   0  0  0  0  0  0  0  0  0  0  0  0
   19.5199  -21.0959   -8.9320 O   0  0  0  0  0  0  0  0  0  0  0  0
   16.1659  -24.5595   -8.9766 C   0  0  0  0  0  0  0  0  0  0  0  0
   17.1603  -25.4050   -8.1442 C   0  0  1  0  0  0  0  0  0  0  0  0
   16.9228  -26.8370   -8.5648 C   0  0  0  0  0  0  0  0  0  0  0  0
   18.5085  -24.9643   -8.5617 C   0  0  0  0  0  0  0  0  0  0  0  0
   18.9873  -23.6296   -8.1242 C   0  0  2  0  0  0  0  0  0  0  0  0
   20.2867  -23.2277   -8.6022 N   0  0  0  0  0  0  0  0  0  0  0  0
   18.9724  -23.5780   -6.6481 C   0  0  0  0  0  0  0  0  0  0  0  0
   17.7808  -23.6795   -5.9587 O   0  0  0  0  0  0  0  0  0  0  0  0
   20.0430  -23.4420   -6.0266 O   0  0  0  0  0  0  0  0  0  0  0  0
  2  1  1  0
  3  2  2  0
  4  2  1  0
  5  4  1  0
  5  6  1  0
  6  8  1  0
  6  7  1  6
  8  9  2  0
 11 10  1  1
 12 11  1  0
 13 11  1  0
 14 13  1  1
 15  8  1  0
 15 14  1  0
 16 14  1  0
 16 17  2  0
 19 18  1  6
 19 21  1  0
 19 20  1  0
 22 21  1  1
 22 23  1  0
 23 16  1  0
 24 25  1  0
 24 22  1  0
 26 24  2  0
M  END
$$$$
