QLL.pdb
     RDKit          3D

 26 25  0  0  1  0  0  0  0  0999 V2000
   24.1155  -15.6829  -18.1885 N   0  0  0  0  0  0  0  0  0  0  0  0
   22.7503  -15.2744  -18.1622 C   0  0  0  0  0  0  0  0  0  0  0  0
   22.4976  -14.0459  -18.1755 O   0  0  0  0  0  0  0  0  0  0  0  0
   21.6360  -16.2351  -18.1203 C   0  0  0  0  0  0  0  0  0  0  0  0
   22.1577  -17.6308  -18.0761 C   0  0  0  0  0  0  0  0  0  0  0  0
   22.2647  -18.1832  -16.6795 C   0  0  2  0  0  0  0  0  0  0  0  0
   22.3393  -17.1136  -15.7252 N   0  0  0  0  0  0  0  0  0  0  0  0
   23.3960  -19.1295  -16.5853 C   0  0  0  0  0  0  0  0  0  0  0  0
   23.3280  -20.1770  -17.2773 O   0  0  0  0  0  0  0  0  0  0  0  0
   26.7851  -18.2017  -17.4441 C   0  0  0  0  0  0  0  0  0  0  0  0
   27.6361  -19.0276  -16.4969 C   0  0  1  0  0  0  0  0  0  0  0  0
   29.0032  -18.4612  -16.3448 C   0  0  0  0  0  0  0  0  0  0  0  0
   26.9126  -19.3666  -15.2449 C   0  0  0  0  0  0  0  0  0  0  0  0
   25.5054  -19.8839  -15.4336 C   0  0  2  0  0  0  0  0  0  0  0  0
   24.5332  -18.8942  -15.7532 N   0  0  0  0  0  0  0  0  0  0  0  0
   25.1369  -20.7331  -14.2882 C   0  0  0  0  0  0  0  0  0  0  0  0
   25.6988  -21.8591  -14.0784 O   0  0  0  0  0  0  0  0  0  0  0  0
   25.8104  -20.2609   -9.2857 C   0  0  0  0  0  0  0  0  0  0  0  0
   25.6573  -20.8413  -10.7127 C   0  0  1  0  0  0  0  0  0  0  0  0
   26.2821  -22.2161  -10.6582 C   0  0  0  0  0  0  0  0  0  0  0  0
   24.2014  -20.9482  -10.9479 C   0  0  0  0  0  0  0  0  0  0  0  0
   23.7233  -21.2528  -12.3194 C   0  0  2  0  0  0  0  0  0  0  0  0
   24.1401  -20.3446  -13.3586 N   0  0  0  0  0  0  0  0  0  0  0  0
   22.2485  -21.3332  -12.3034 C   0  0  0  0  0  0  0  0  0  0  0  0
   21.6062  -22.1893  -11.4315 O   0  0  0  0  0  0  0  0  0  0  0  0
   21.5854  -20.6229  -13.0823 O   0  0  0  0  0  0  0  0  0  0  0  0
  2  1  1  0
  3  2  2  0
  4  2  1  0
  5  4  1  0
  5  6  1  0
  6  8  1  0
  6  7  1  1
  8  9  2  0
 11 10  1  1
 12 11  1  0
 13 11  1  0
 14 13  1  1
 15  8  1  0
 15 14  1  0
 16 14  1  0
 16 17  2  0
 19 18  1  1
 19 21  1  0
 19 20  1  0
 22 21  1  1
 22 23  1  0
 23 16  1  0
 24 25  1  0
 24 22  1  0
 26 24  2  0
M  END
$$$$
