QLL.pdb
     RDKit          3D

 26 25  0  0  1  0  0  0  0  0999 V2000
   22.2520   -6.9748  -20.5460 N   0  0  0  0  0  0  0  0  0  0  0  0
   21.0347   -6.8405  -21.2750 C   0  0  0  0  0  0  0  0  0  0  0  0
   20.6508   -5.6867  -21.5825 O   0  0  0  0  0  0  0  0  0  0  0  0
   20.2191   -7.9982  -21.6764 C   0  0  0  0  0  0  0  0  0  0  0  0
   20.8897   -9.2675  -21.2749 C   0  0  0  0  0  0  0  0  0  0  0  0
   20.1154  -10.0522  -20.2492 C   0  0  2  0  0  0  0  0  0  0  0  0
   18.7342  -10.1418  -20.6294 N   0  0  0  0  0  0  0  0  0  0  0  0
   20.3140   -9.4762  -18.9027 C   0  0  0  0  0  0  0  0  0  0  0  0
   19.4341   -8.6831  -18.4815 O   0  0  0  0  0  0  0  0  0  0  0  0
   21.2944   -9.5748  -13.7979 C   0  0  0  0  0  0  0  0  0  0  0  0
   22.6445   -9.7156  -14.4768 C   0  0  1  0  0  0  0  0  0  0  0  0
   23.6173  -10.4521  -13.6258 C   0  0  0  0  0  0  0  0  0  0  0  0
   22.5183  -10.1658  -15.8865 C   0  0  0  0  0  0  0  0  0  0  0  0
   21.6243   -9.3142  -16.7575 C   0  0  2  0  0  0  0  0  0  0  0  0
   21.4463   -9.7865  -18.0887 N   0  0  0  0  0  0  0  0  0  0  0  0
   22.0554   -7.9083  -16.6769 C   0  0  0  0  0  0  0  0  0  0  0  0
   23.1095   -7.4941  -17.2642 O   0  0  0  0  0  0  0  0  0  0  0  0
   22.2175   -3.0294  -17.8966 C   0  0  0  0  0  0  0  0  0  0  0  0
   21.2310   -3.1829  -16.7135 C   0  0  1  0  0  0  0  0  0  0  0  0
   20.0320   -2.3374  -17.0757 C   0  0  0  0  0  0  0  0  0  0  0  0
   20.8600   -4.6139  -16.6841 C   0  0  0  0  0  0  0  0  0  0  0  0
   21.7357   -5.5603  -15.9494 C   0  0  2  0  0  0  0  0  0  0  0  0
   21.3226   -6.9415  -15.9441 N   0  0  0  0  0  0  0  0  0  0  0  0
   21.8845   -5.0897  -14.5572 C   0  0  0  0  0  0  0  0  0  0  0  0
   22.7822   -4.0862  -14.2525 O   0  0  0  0  0  0  0  0  0  0  0  0
   21.1944   -5.6038  -13.6571 O   0  0  0  0  0  0  0  0  0  0  0  0
  2  1  1  0
  3  2  2  0
  4  2  1  0
  5  4  1  0
  5  6  1  0
  6  8  1  0
  6  7  1  6
  8  9  2  0
 11 10  1  1
 12 11  1  0
 13 11  1  0
 14 13  1  6
 15  8  1  0
 15 14  1  0
 16 14  1  0
 16 17  2  0
 19 18  1  6
 19 21  1  0
 19 20  1  0
 22 21  1  1
 22 23  1  0
 23 16  1  0
 24 25  1  0
 24 22  1  0
 26 24  2  0
M  END
$$$$
