QLL.pdb
     RDKit          3D

 26 25  0  0  1  0  0  0  0  0999 V2000
   27.4625  -16.8181  -14.9072 N   0  0  0  0  0  0  0  0  0  0  0  0
   27.9969  -17.1860  -16.1762 C   0  0  0  0  0  0  0  0  0  0  0  0
   29.0714  -16.6540  -16.5449 O   0  0  0  0  0  0  0  0  0  0  0  0
   27.3383  -18.1598  -17.0617 C   0  0  0  0  0  0  0  0  0  0  0  0
   26.5475  -19.1362  -16.2595 C   0  0  0  0  0  0  0  0  0  0  0  0
   27.3949  -19.9833  -15.3477 C   0  0  2  0  0  0  0  0  0  0  0  0
   28.1073  -20.9722  -16.1060 N   0  0  0  0  0  0  0  0  0  0  0  0
   26.5693  -20.5603  -14.2661 C   0  0  0  0  0  0  0  0  0  0  0  0
   25.8180  -21.5223  -14.5677 O   0  0  0  0  0  0  0  0  0  0  0  0
   25.4082  -22.2013   -9.3032 C   0  0  0  0  0  0  0  0  0  0  0  0
   25.3476  -20.6869   -9.3833 C   0  0  1  0  0  0  0  0  0  0  0  0
   25.5115  -20.0552   -8.0466 C   0  0  0  0  0  0  0  0  0  0  0  0
   26.1908  -20.1499  -10.4817 C   0  0  0  0  0  0  0  0  0  0  0  0
   25.7808  -20.5707  -11.8739 C   0  0  2  0  0  0  0  0  0  0  0  0
   26.5999  -20.0695  -12.9249 N   0  0  0  0  0  0  0  0  0  0  0  0
   24.3437  -20.3096  -12.0623 C   0  0  0  0  0  0  0  0  0  0  0  0
   23.8852  -19.1243  -12.1735 O   0  0  0  0  0  0  0  0  0  0  0  0
   20.6943  -22.3531  -15.9635 C   0  0  0  0  0  0  0  0  0  0  0  0
   21.7068  -21.5016  -15.1594 C   0  0  1  0  0  0  0  0  0  0  0  0
   21.1844  -20.0851  -15.2250 C   0  0  0  0  0  0  0  0  0  0  0  0
   21.6435  -22.0082  -13.7717 C   0  0  0  0  0  0  0  0  0  0  0  0
   22.0797  -21.1162  -12.6688 C   0  0  2  0  0  0  0  0  0  0  0  0
   23.3948  -21.3601  -12.1309 N   0  0  0  0  0  0  0  0  0  0  0  0
   21.0855  -21.1849  -11.5785 C   0  0  0  0  0  0  0  0  0  0  0  0
   19.9239  -20.4422  -11.6461 O   0  0  0  0  0  0  0  0  0  0  0  0
   21.3009  -21.9182  -10.5952 O   0  0  0  0  0  0  0  0  0  0  0  0
  2  1  1  0
  3  2  2  0
  4  2  1  0
  5  4  1  0
  5  6  1  0
  6  8  1  0
  6  7  1  6
  8  9  2  0
 11 10  1  1
 12 11  1  0
 13 11  1  0
 14 13  1  1
 15  8  1  0
 15 14  1  0
 16 14  1  0
 16 17  2  0
 19 18  1  6
 19 21  1  0
 19 20  1  0
 22 21  1  6
 22 23  1  0
 23 16  1  0
 24 25  1  0
 24 22  1  0
 26 24  2  0
M  END
$$$$
