KWF.pdb
     RDKit          3D

 35 37  0  0  1  0  0  0  0  0999 V2000
   28.0861  -22.0545  -15.3969 N   0  0  0  0  0  0  0  0  0  0  0  0
   27.8946  -20.9217  -14.5617 C   0  0  1  0  0  0  0  0  0  0  0  0
   27.2803  -19.7556  -15.1755 C   0  0  0  0  0  0  0  0  0  0  0  0
   27.9176  -18.8951  -16.1676 C   0  0  0  0  0  0  0  0  0  0  0  0
   29.0684  -18.0383  -15.9265 C   0  0  0  0  0  0  0  0  0  0  0  0
   29.6597  -17.1618  -16.9455 C   0  0  0  0  0  0  0  0  0  0  0  0
   29.9350  -17.7903  -18.2279 N   0  0  0  0  0  0  0  0  0  0  0  0
   27.2340  -21.3798  -13.3011 C   0  0  0  0  0  0  0  0  0  0  0  0
   26.1666  -22.0469  -13.3255 O   0  0  0  0  0  0  0  0  0  0  0  0
   27.7570  -21.0983  -12.0129 N   0  0  0  0  0  0  0  0  0  0  0  0
   26.9162  -21.1254  -10.8348 C   0  0  1  0  0  0  0  0  0  0  0  0
   27.8679  -20.8641   -9.6789 C   0  0  0  0  0  0  0  0  0  0  0  0
   27.2155  -20.6590   -8.3847 C   0  0  0  0  0  0  0  0  0  0  0  0
   25.8444  -20.8554   -8.1574 C   0  0  0  0  0  0  0  0  0  0  0  0
   25.6413  -20.5971   -6.8694 N   0  0  0  0  0  0  0  0  0  0  0  0
   26.7716  -20.2456   -6.2310 C   0  0  0  0  0  0  0  0  0  0  0  0
   27.0404  -19.8888   -4.9125 C   0  0  0  0  0  0  0  0  0  0  0  0
   28.3293  -19.5683   -4.5659 C   0  0  0  0  0  0  0  0  0  0  0  0
   29.3582  -19.5877   -5.4727 C   0  0  0  0  0  0  0  0  0  0  0  0
   29.0484  -19.9471   -6.7682 C   0  0  0  0  0  0  0  0  0  0  0  0
   27.7725  -20.2851   -7.1975 C   0  0  0  0  0  0  0  0  0  0  0  0
   25.7200  -20.3215  -10.8665 C   0  0  0  0  0  0  0  0  0  0  0  0
   25.7164  -19.0612  -10.9288 O   0  0  0  0  0  0  0  0  0  0  0  0
   24.4602  -21.0253  -10.8302 N   0  0  0  0  0  0  0  0  0  0  0  0
   23.2463  -20.4292  -11.3478 C   0  0  1  0  0  0  0  0  0  0  0  0
   23.5472  -20.1694  -12.8334 C   0  0  0  0  0  0  0  0  0  0  0  0
   22.3984  -19.5333  -13.4951 C   0  0  0  0  0  0  0  0  0  0  0  0
   22.3399  -18.1405  -13.4909 C   0  0  0  0  0  0  0  0  0  0  0  0
   21.2819  -17.5403  -14.1066 C   0  0  0  0  0  0  0  0  0  0  0  0
   20.2859  -18.2879  -14.7229 C   0  0  0  0  0  0  0  0  0  0  0  0
   20.3557  -19.6696  -14.7202 C   0  0  0  0  0  0  0  0  0  0  0  0
   21.4152  -20.2887  -14.1044 C   0  0  0  0  0  0  0  0  0  0  0  0
   22.1008  -21.3423  -11.2011 C   0  0  0  0  0  0  0  0  0  0  0  0
   21.0123  -20.8820  -10.7791 O   0  0  0  0  0  0  0  0  0  0  0  0
   22.1423  -22.6940  -11.5025 O   0  0  0  0  0  0  0  0  0  0  0  0
  2  1  1  6
  2  3  1  0
  3  4  1  0
  4  5  1  0
  5  6  1  0
  7  6  1  0
  8  2  1  0
  8  9  2  0
 10  8  1  0
 11 10  1  0
 11 12  1  1
 12 13  1  0
 13 21  1  0
 14 13  2  0
 14 15  1  0
 15 16  1  0
 16 17  1  0
 17 18  2  0
 19 18  1  0
 20 19  2  0
 21 16  2  0
 21 20  1  0
 22 11  1  0
 23 22  2  0
 24 22  1  0
 25 24  1  0
 25 26  1  6
 26 27  1  0
 27 28  2  0
 28 29  1  0
 30 29  2  0
 31 30  1  0
 32 27  1  0
 32 31  2  0
 33 25  1  0
 34 33  2  0
 35 33  1  0
M  END
$$$$
