KWF.pdb
     RDKit          3D

 35 37  0  0  1  0  0  0  0  0999 V2000
   27.2628  -20.6453  -18.4443 N   0  0  0  0  0  0  0  0  0  0  0  0
   27.1115  -21.7054  -17.5112 C   0  0  1  0  0  0  0  0  0  0  0  0
   28.2993  -22.4912  -17.2189 C   0  0  0  0  0  0  0  0  0  0  0  0
   29.2049  -23.0482  -18.2193 C   0  0  0  0  0  0  0  0  0  0  0  0
   30.4502  -22.4400  -18.6617 C   0  0  0  0  0  0  0  0  0  0  0  0
   31.3528  -23.0533  -19.6441 C   0  0  0  0  0  0  0  0  0  0  0  0
   32.5544  -22.2929  -19.9499 N   0  0  0  0  0  0  0  0  0  0  0  0
   26.4115  -21.1667  -16.3049 C   0  0  0  0  0  0  0  0  0  0  0  0
   26.4910  -19.9505  -15.9895 O   0  0  0  0  0  0  0  0  0  0  0  0
   25.6229  -21.9767  -15.4479 N   0  0  0  0  0  0  0  0  0  0  0  0
   24.9334  -21.4170  -14.3047 C   0  0  1  0  0  0  0  0  0  0  0  0
   23.4713  -21.7650  -14.5313 C   0  0  0  0  0  0  0  0  0  0  0  0
   22.8057  -20.9666  -15.5620 C   0  0  0  0  0  0  0  0  0  0  0  0
   22.7102  -21.3476  -16.9095 C   0  0  0  0  0  0  0  0  0  0  0  0
   22.0204  -20.3881  -17.5181 N   0  0  0  0  0  0  0  0  0  0  0  0
   21.6547  -19.4048  -16.6766 C   0  0  0  0  0  0  0  0  0  0  0  0
   20.9434  -18.2219  -16.8575 C   0  0  0  0  0  0  0  0  0  0  0  0
   20.7367  -17.4046  -15.7742 C   0  0  0  0  0  0  0  0  0  0  0  0
   21.2063  -17.7138  -14.5231 C   0  0  0  0  0  0  0  0  0  0  0  0
   21.9057  -18.8953  -14.3877 C   0  0  0  0  0  0  0  0  0  0  0  0
   22.1560  -19.7748  -15.4319 C   0  0  0  0  0  0  0  0  0  0  0  0
   25.4660  -21.7299  -13.0022 C   0  0  0  0  0  0  0  0  0  0  0  0
   25.7690  -22.8948  -12.6232 O   0  0  0  0  0  0  0  0  0  0  0  0
   25.6620  -20.6243  -12.0950 N   0  0  0  0  0  0  0  0  0  0  0  0
   26.1581  -20.8290  -10.7501 C   0  0  1  0  0  0  0  0  0  0  0  0
   27.2260  -19.7385  -10.5628 C   0  0  0  0  0  0  0  0  0  0  0  0
   27.7772  -19.7765   -9.2000 C   0  0  0  0  0  0  0  0  0  0  0  0
   27.3084  -18.8334   -8.2867 C   0  0  0  0  0  0  0  0  0  0  0  0
   27.8087  -18.8632   -7.0188 C   0  0  0  0  0  0  0  0  0  0  0  0
   28.7589  -19.8033   -6.6394 C   0  0  0  0  0  0  0  0  0  0  0  0
   29.2160  -20.7340   -7.5553 C   0  0  0  0  0  0  0  0  0  0  0  0
   28.7215  -20.7168   -8.8360 C   0  0  0  0  0  0  0  0  0  0  0  0
   25.0814  -20.6786   -9.7573 C   0  0  0  0  0  0  0  0  0  0  0  0
   24.1012  -19.9464  -10.0363 O   0  0  0  0  0  0  0  0  0  0  0  0
   25.0754  -21.2997   -8.5188 O   0  0  0  0  0  0  0  0  0  0  0  0
  2  1  1  6
  2  3  1  0
  3  4  1  0
  4  5  1  0
  5  6  1  0
  7  6  1  0
  8  2  1  0
  8  9  2  0
 10  8  1  0
 11 10  1  0
 11 12  1  1
 12 13  1  0
 13 21  1  0
 14 13  2  0
 14 15  1  0
 15 16  1  0
 16 17  1  0
 17 18  2  0
 19 18  1  0
 20 19  2  0
 21 16  2  0
 21 20  1  0
 22 11  1  0
 23 22  2  0
 24 22  1  0
 25 24  1  0
 25 26  1  1
 26 27  1  0
 27 28  2  0
 28 29  1  0
 30 29  2  0
 31 30  1  0
 32 27  1  0
 32 31  2  0
 33 25  1  0
 34 33  2  0
 35 33  1  0
M  END
$$$$
