KWF.pdb
     RDKit          3D

 35 37  0  0  1  0  0  0  0  0999 V2000
   25.8622  -19.3144  -15.6459 N   0  0  0  0  0  0  0  0  0  0  0  0
   26.7370  -20.0560  -14.8081 C   0  0  1  0  0  0  0  0  0  0  0  0
   28.1621  -19.8424  -15.0018 C   0  0  0  0  0  0  0  0  0  0  0  0
   28.9858  -20.5237  -15.9959 C   0  0  0  0  0  0  0  0  0  0  0  0
   29.0920  -21.9654  -16.1588 C   0  0  0  0  0  0  0  0  0  0  0  0
   29.9453  -22.6114  -17.1640 C   0  0  0  0  0  0  0  0  0  0  0  0
   29.8737  -24.0635  -17.2055 N   0  0  0  0  0  0  0  0  0  0  0  0
   26.2724  -19.8991  -13.3956 C   0  0  0  0  0  0  0  0  0  0  0  0
   26.1397  -18.7619  -12.8719 O   0  0  0  0  0  0  0  0  0  0  0  0
   25.9547  -21.0031  -12.5636 N   0  0  0  0  0  0  0  0  0  0  0  0
   25.5413  -20.8173  -11.1887 C   0  0  1  0  0  0  0  0  0  0  0  0
   24.1883  -21.5039  -11.0995 C   0  0  0  0  0  0  0  0  0  0  0  0
   23.0698  -20.7212  -11.6278 C   0  0  0  0  0  0  0  0  0  0  0  0
   22.2590  -19.8846  -10.8451 C   0  0  0  0  0  0  0  0  0  0  0  0
   21.3825  -19.3326  -11.6781 N   0  0  0  0  0  0  0  0  0  0  0  0
   21.5527  -19.7409  -12.9482 C   0  0  0  0  0  0  0  0  0  0  0  0
   20.8858  -19.4442  -14.1336 C   0  0  0  0  0  0  0  0  0  0  0  0
   21.3054  -20.0452  -15.2942 C   0  0  0  0  0  0  0  0  0  0  0  0
   22.3566  -20.9257  -15.3248 C   0  0  0  0  0  0  0  0  0  0  0  0
   22.9897  -21.1914  -14.1281 C   0  0  0  0  0  0  0  0  0  0  0  0
   22.6270  -20.6252  -12.9139 C   0  0  0  0  0  0  0  0  0  0  0  0
   26.4971  -21.1625  -10.1662 C   0  0  0  0  0  0  0  0  0  0  0  0
   27.1405  -22.2475  -10.1367 O   0  0  0  0  0  0  0  0  0  0  0  0
   26.7194  -20.1871   -9.1255 N   0  0  0  0  0  0  0  0  0  0  0  0
   27.4691  -20.5143   -7.9307 C   0  0  1  0  0  0  0  0  0  0  0  0
   28.0111  -19.1638   -7.4334 C   0  0  0  0  0  0  0  0  0  0  0  0
   28.7029  -19.3213   -6.1455 C   0  0  0  0  0  0  0  0  0  0  0  0
   28.3587  -18.4469   -5.1157 C   0  0  0  0  0  0  0  0  0  0  0  0
   28.9901  -18.5878   -3.9156 C   0  0  0  0  0  0  0  0  0  0  0  0
   29.9503  -19.5721   -3.7161 C   0  0  0  0  0  0  0  0  0  0  0  0
   30.2828  -20.4338   -4.7460 C   0  0  0  0  0  0  0  0  0  0  0  0
   29.6556  -20.3045   -5.9605 C   0  0  0  0  0  0  0  0  0  0  0  0
   26.6044  -21.1341   -6.9131 C   0  0  0  0  0  0  0  0  0  0  0  0
   27.1398  -21.6926   -5.9250 O   0  0  0  0  0  0  0  0  0  0  0  0
   25.2200  -21.1424   -6.9717 O   0  0  0  0  0  0  0  0  0  0  0  0
  2  1  1  6
  2  3  1  0
  3  4  1  0
  4  5  1  0
  5  6  1  0
  7  6  1  0
  8  2  1  0
  8  9  2  0
 10  8  1  0
 11 10  1  0
 11 12  1  1
 12 13  1  0
 13 21  1  0
 14 13  2  0
 14 15  1  0
 15 16  1  0
 16 17  1  0
 17 18  2  0
 19 18  1  0
 20 19  2  0
 21 16  2  0
 21 20  1  0
 22 11  1  0
 23 22  2  0
 24 22  1  0
 25 24  1  0
 25 26  1  1
 26 27  1  0
 27 28  2  0
 28 29  1  0
 30 29  2  0
 31 30  1  0
 32 27  1  0
 32 31  2  0
 33 25  1  0
 34 33  2  0
 35 33  1  0
M  END
$$$$
