KWF.pdb
     RDKit          3D

 35 37  0  0  1  0  0  0  0  0999 V2000
   28.9252  -22.5042  -14.9941 N   0  0  0  0  0  0  0  0  0  0  0  0
   27.9040  -21.5409  -15.2094 C   0  0  1  0  0  0  0  0  0  0  0  0
   27.2411  -21.5716  -16.5031 C   0  0  0  0  0  0  0  0  0  0  0  0
   27.9008  -21.3710  -17.7897 C   0  0  0  0  0  0  0  0  0  0  0  0
   29.2649  -20.9000  -17.9739 C   0  0  0  0  0  0  0  0  0  0  0  0
   29.8876  -20.7005  -19.2887 C   0  0  0  0  0  0  0  0  0  0  0  0
   31.2735  -20.2598  -19.2641 N   0  0  0  0  0  0  0  0  0  0  0  0
   26.9775  -21.5752  -14.0365 C   0  0  0  0  0  0  0  0  0  0  0  0
   26.0343  -22.4065  -13.9704 O   0  0  0  0  0  0  0  0  0  0  0  0
   27.0967  -20.6878  -12.9363 N   0  0  0  0  0  0  0  0  0  0  0  0
   26.0477  -20.5689  -11.9457 C   0  0  1  0  0  0  0  0  0  0  0  0
   26.6484  -19.6983  -10.8543 C   0  0  0  0  0  0  0  0  0  0  0  0
   27.7516  -20.3167  -10.1172 C   0  0  0  0  0  0  0  0  0  0  0  0
   28.7434  -21.1125  -10.7113 C   0  0  0  0  0  0  0  0  0  0  0  0
   29.5726  -21.4631   -9.7334 N   0  0  0  0  0  0  0  0  0  0  0  0
   29.2039  -20.9607   -8.5416 C   0  0  0  0  0  0  0  0  0  0  0  0
   29.7478  -21.0621   -7.2642 C   0  0  0  0  0  0  0  0  0  0  0  0
   29.1162  -20.4234   -6.2262 C   0  0  0  0  0  0  0  0  0  0  0  0
   27.9704  -19.6909   -6.4052 C   0  0  0  0  0  0  0  0  0  0  0  0
   27.4653  -19.6161   -7.6869 C   0  0  0  0  0  0  0  0  0  0  0  0
   28.0442  -20.2316   -8.7881 C   0  0  0  0  0  0  0  0  0  0  0  0
   24.7420  -20.1829  -12.4192 C   0  0  0  0  0  0  0  0  0  0  0  0
   24.5377  -19.2654  -13.2610 O   0  0  0  0  0  0  0  0  0  0  0  0
   23.6142  -20.9102  -11.8873 N   0  0  0  0  0  0  0  0  0  0  0  0
   22.2951  -20.7930  -12.4729 C   0  0  1  0  0  0  0  0  0  0  0  0
   22.4602  -21.3277  -13.9053 C   0  0  0  0  0  0  0  0  0  0  0  0
   21.1754  -21.3096  -14.6204 C   0  0  0  0  0  0  0  0  0  0  0  0
   20.5097  -22.5234  -14.7842 C   0  0  0  0  0  0  0  0  0  0  0  0
   19.3149  -22.5172  -15.4409 C   0  0  0  0  0  0  0  0  0  0  0  0
   18.7693  -21.3391  -15.9360 C   0  0  0  0  0  0  0  0  0  0  0  0
   19.4398  -20.1409  -15.7667 C   0  0  0  0  0  0  0  0  0  0  0  0
   20.6440  -20.1310  -15.1073 C   0  0  0  0  0  0  0  0  0  0  0  0
   21.3096  -21.5946  -11.7289 C   0  0  0  0  0  0  0  0  0  0  0  0
   20.1749  -21.1052  -11.5104 O   0  0  0  0  0  0  0  0  0  0  0  0
   21.5520  -22.8711  -11.2475 O   0  0  0  0  0  0  0  0  0  0  0  0
  2  1  1  1
  2  3  1  0
  3  4  1  0
  4  5  1  0
  5  6  1  0
  7  6  1  0
  8  2  1  0
  8  9  2  0
 10  8  1  0
 11 10  1  0
 11 12  1  1
 12 13  1  0
 13 21  1  0
 14 13  2  0
 14 15  1  0
 15 16  1  0
 16 17  1  0
 17 18  2  0
 19 18  1  0
 20 19  2  0
 21 16  2  0
 21 20  1  0
 22 11  1  0
 23 22  2  0
 24 22  1  0
 25 24  1  0
 25 26  1  6
 26 27  1  0
 27 28  2  0
 28 29  1  0
 30 29  2  0
 31 30  1  0
 32 27  1  0
 32 31  2  0
 33 25  1  0
 34 33  2  0
 35 33  1  0
M  END
$$$$
