KWF.pdb
     RDKit          3D

 35 37  0  0  1  0  0  0  0  0999 V2000
   28.3884  -23.4529  -16.9448 N   0  0  0  0  0  0  0  0  0  0  0  0
   29.0294  -22.2595  -16.5182 C   0  0  1  0  0  0  0  0  0  0  0  0
   29.5451  -21.3877  -17.5613 C   0  0  0  0  0  0  0  0  0  0  0  0
   30.3734  -21.8194  -18.6831 C   0  0  0  0  0  0  0  0  0  0  0  0
   29.9639  -22.7472  -19.7261 C   0  0  0  0  0  0  0  0  0  0  0  0
   30.7802  -23.0588  -20.9062 C   0  0  0  0  0  0  0  0  0  0  0  0
   31.9766  -23.8450  -20.6495 N   0  0  0  0  0  0  0  0  0  0  0  0
   28.1383  -21.5816  -15.5273 C   0  0  0  0  0  0  0  0  0  0  0  0
   28.4112  -20.4389  -15.0748 O   0  0  0  0  0  0  0  0  0  0  0  0
   26.9442  -22.1706  -15.0382 N   0  0  0  0  0  0  0  0  0  0  0  0
   26.0940  -21.4786  -14.0927 C   0  0  1  0  0  0  0  0  0  0  0  0
   24.7155  -21.4967  -14.7327 C   0  0  0  0  0  0  0  0  0  0  0  0
   23.9228  -20.2863  -14.5107 C   0  0  0  0  0  0  0  0  0  0  0  0
   24.2031  -19.0453  -15.1036 C   0  0  0  0  0  0  0  0  0  0  0  0
   23.2562  -18.2118  -14.6846 N   0  0  0  0  0  0  0  0  0  0  0  0
   22.3745  -18.8071  -13.8618 C   0  0  0  0  0  0  0  0  0  0  0  0
   21.2474  -18.3431  -13.1894 C   0  0  0  0  0  0  0  0  0  0  0  0
   20.5447  -19.2180  -12.3987 C   0  0  0  0  0  0  0  0  0  0  0  0
   20.9151  -20.5302  -12.2496 C   0  0  0  0  0  0  0  0  0  0  0  0
   22.0378  -20.9487  -12.9336 C   0  0  0  0  0  0  0  0  0  0  0  0
   22.8009  -20.1275  -13.7521 C   0  0  0  0  0  0  0  0  0  0  0  0
   26.1613  -21.9065  -12.7177 C   0  0  0  0  0  0  0  0  0  0  0  0
   25.9850  -23.0969  -12.3381 O   0  0  0  0  0  0  0  0  0  0  0  0
   26.4564  -20.8930  -11.7331 N   0  0  0  0  0  0  0  0  0  0  0  0
   26.3719  -21.1703  -10.3144 C   0  0  1  0  0  0  0  0  0  0  0  0
   27.3218  -20.1502   -9.6648 C   0  0  0  0  0  0  0  0  0  0  0  0
   28.7150  -20.6150   -9.7366 C   0  0  0  0  0  0  0  0  0  0  0  0
   29.4058  -20.7745   -8.5363 C   0  0  0  0  0  0  0  0  0  0  0  0
   30.6965  -21.2104   -8.5911 C   0  0  0  0  0  0  0  0  0  0  0  0
   31.3132  -21.4900   -9.8045 C   0  0  0  0  0  0  0  0  0  0  0  0
   30.6166  -21.3279  -10.9887 C   0  0  0  0  0  0  0  0  0  0  0  0
   29.3160  -20.8897  -10.9498 C   0  0  0  0  0  0  0  0  0  0  0  0
   24.9975  -20.9905   -9.8181 C   0  0  0  0  0  0  0  0  0  0  0  0
   24.2260  -20.2225  -10.4425 O   0  0  0  0  0  0  0  0  0  0  0  0
   24.4897  -21.6211   -8.6937 O   0  0  0  0  0  0  0  0  0  0  0  0
  2  1  1  6
  2  3  1  0
  3  4  1  0
  4  5  1  0
  5  6  1  0
  7  6  1  0
  8  2  1  0
  8  9  2  0
 10  8  1  0
 11 10  1  0
 11 12  1  6
 12 13  1  0
 13 21  1  0
 14 13  2  0
 14 15  1  0
 15 16  1  0
 16 17  1  0
 17 18  2  0
 19 18  1  0
 20 19  2  0
 21 16  2  0
 21 20  1  0
 22 11  1  0
 23 22  2  0
 24 22  1  0
 25 24  1  0
 25 26  1  1
 26 27  1  0
 27 28  2  0
 28 29  1  0
 30 29  2  0
 31 30  1  0
 32 27  1  0
 32 31  2  0
 33 25  1  0
 34 33  2  0
 35 33  1  0
M  END
$$$$
