KWF.pdb
     RDKit          3D

 35 37  0  0  1  0  0  0  0  0999 V2000
   28.4478  -21.1886  -13.8809 N   0  0  0  0  0  0  0  0  0  0  0  0
   27.1221  -20.9824  -14.3469 C   0  0  1  0  0  0  0  0  0  0  0  0
   26.7795  -21.5837  -15.6256 C   0  0  0  0  0  0  0  0  0  0  0  0
   27.5797  -21.4827  -16.8422 C   0  0  0  0  0  0  0  0  0  0  0  0
   28.7698  -22.2659  -17.1367 C   0  0  0  0  0  0  0  0  0  0  0  0
   29.5356  -22.1472  -18.3839 C   0  0  0  0  0  0  0  0  0  0  0  0
   30.6647  -23.0548  -18.5135 N   0  0  0  0  0  0  0  0  0  0  0  0
   26.1809  -21.3137  -13.2334 C   0  0  0  0  0  0  0  0  0  0  0  0
   25.4829  -22.3612  -13.2551 O   0  0  0  0  0  0  0  0  0  0  0  0
   26.0138  -20.4836  -12.0953 N   0  0  0  0  0  0  0  0  0  0  0  0
   24.9653  -20.7313  -11.1283 C   0  0  1  0  0  0  0  0  0  0  0  0
   25.4719  -20.0971   -9.8433 C   0  0  0  0  0  0  0  0  0  0  0  0
   26.8102  -20.5277   -9.4356 C   0  0  0  0  0  0  0  0  0  0  0  0
   27.6359  -21.3594  -10.2079 C   0  0  0  0  0  0  0  0  0  0  0  0
   28.7658  -21.5004   -9.5221 N   0  0  0  0  0  0  0  0  0  0  0  0
   28.7483  -20.8267   -8.3582 C   0  0  0  0  0  0  0  0  0  0  0  0
   29.6797  -20.6869   -7.3331 C   0  0  0  0  0  0  0  0  0  0  0  0
   29.3515  -19.9180   -6.2445 C   0  0  0  0  0  0  0  0  0  0  0  0
   28.1399  -19.2846   -6.1333 C   0  0  0  0  0  0  0  0  0  0  0  0
   27.2463  -19.4492   -7.1716 C   0  0  0  0  0  0  0  0  0  0  0  0
   27.5023  -20.2085   -8.3049 C   0  0  0  0  0  0  0  0  0  0  0  0
   23.6209  -20.3875  -11.5190 C   0  0  0  0  0  0  0  0  0  0  0  0
   23.1985  -19.2040  -11.6335 O   0  0  0  0  0  0  0  0  0  0  0  0
   22.7226  -21.4825  -11.7974 N   0  0  0  0  0  0  0  0  0  0  0  0
   21.3415  -21.2519  -12.1666 C   0  0  1  0  0  0  0  0  0  0  0  0
   21.2311  -21.7907  -13.6027 C   0  0  0  0  0  0  0  0  0  0  0  0
   21.7222  -20.7991  -14.5712 C   0  0  0  0  0  0  0  0  0  0  0  0
   22.9665  -21.0284  -15.1563 C   0  0  0  0  0  0  0  0  0  0  0  0
   23.4289  -20.1181  -16.0599 C   0  0  0  0  0  0  0  0  0  0  0  0
   22.6873  -18.9915  -16.3938 C   0  0  0  0  0  0  0  0  0  0  0  0
   21.4536  -18.7756  -15.8062 C   0  0  0  0  0  0  0  0  0  0  0  0
   20.9744  -19.6833  -14.8944 C   0  0  0  0  0  0  0  0  0  0  0  0
   20.4235  -21.9722  -11.2689 C   0  0  0  0  0  0  0  0  0  0  0  0
   19.1875  -21.8086  -11.4118 O   0  0  0  0  0  0  0  0  0  0  0  0
   20.8363  -22.8316  -10.2635 O   0  0  0  0  0  0  0  0  0  0  0  0
  2  1  1  1
  2  3  1  0
  3  4  1  0
  4  5  1  0
  5  6  1  0
  7  6  1  0
  8  2  1  0
  8  9  2  0
 10  8  1  0
 11 10  1  0
 11 12  1  1
 12 13  1  0
 13 21  1  0
 14 13  2  0
 14 15  1  0
 15 16  1  0
 16 17  1  0
 17 18  2  0
 19 18  1  0
 20 19  2  0
 21 16  2  0
 21 20  1  0
 22 11  1  0
 23 22  2  0
 24 22  1  0
 25 24  1  0
 25 26  1  6
 26 27  1  0
 27 28  2  0
 28 29  1  0
 30 29  2  0
 31 30  1  0
 32 27  1  0
 32 31  2  0
 33 25  1  0
 34 33  2  0
 35 33  1  0
M  END
$$$$
