KWF.pdb
     RDKit          3D

 35 37  0  0  1  0  0  0  0  0999 V2000
   28.5372  -20.8941  -14.2471 N   0  0  0  0  0  0  0  0  0  0  0  0
   27.1451  -20.6156  -14.2919 C   0  0  1  0  0  0  0  0  0  0  0  0
   26.4329  -21.0425  -15.4854 C   0  0  0  0  0  0  0  0  0  0  0  0
   27.0161  -21.1451  -16.8196 C   0  0  0  0  0  0  0  0  0  0  0  0
   27.2377  -20.0332  -17.7312 C   0  0  0  0  0  0  0  0  0  0  0  0
   26.7681  -20.0137  -19.1224 C   0  0  0  0  0  0  0  0  0  0  0  0
   27.5800  -19.2370  -20.0459 N   0  0  0  0  0  0  0  0  0  0  0  0
   26.5367  -21.0790  -13.0072 C   0  0  0  0  0  0  0  0  0  0  0  0
   25.3875  -21.5921  -12.9738 O   0  0  0  0  0  0  0  0  0  0  0  0
   27.2024  -20.9736  -11.7590 N   0  0  0  0  0  0  0  0  0  0  0  0
   26.4926  -21.1423  -10.5087 C   0  0  1  0  0  0  0  0  0  0  0  0
   27.5570  -20.9693   -9.4376 C   0  0  0  0  0  0  0  0  0  0  0  0
   27.0393  -20.8698   -8.0721 C   0  0  0  0  0  0  0  0  0  0  0  0
   25.7338  -21.2266   -7.7001 C   0  0  0  0  0  0  0  0  0  0  0  0
   25.6529  -21.0228   -6.3891 N   0  0  0  0  0  0  0  0  0  0  0  0
   26.8033  -20.5594   -5.8688 C   0  0  0  0  0  0  0  0  0  0  0  0
   27.1808  -20.2047   -4.5767 C   0  0  0  0  0  0  0  0  0  0  0  0
   28.4576  -19.7473   -4.3651 C   0  0  0  0  0  0  0  0  0  0  0  0
   29.3711  -19.6283   -5.3813 C   0  0  0  0  0  0  0  0  0  0  0  0
   28.9559  -19.9908   -6.6462 C   0  0  0  0  0  0  0  0  0  0  0  0
   27.6844  -20.4622   -6.9419 C   0  0  0  0  0  0  0  0  0  0  0  0
   25.2850  -20.3746  -10.3335 C   0  0  0  0  0  0  0  0  0  0  0  0
   25.2573  -19.1198  -10.2037 O   0  0  0  0  0  0  0  0  0  0  0  0
   24.0424  -21.1090  -10.3153 N   0  0  0  0  0  0  0  0  0  0  0  0
   22.7819  -20.4696  -10.6301 C   0  0  1  0  0  0  0  0  0  0  0  0
   22.9985  -19.8551  -12.0231 C   0  0  0  0  0  0  0  0  0  0  0  0
   21.7818  -19.1718  -12.4870 C   0  0  0  0  0  0  0  0  0  0  0  0
   21.4651  -17.9472  -11.9012 C   0  0  0  0  0  0  0  0  0  0  0  0
   20.3421  -17.3024  -12.3279 C   0  0  0  0  0  0  0  0  0  0  0  0
   19.5310  -17.8434  -13.3178 C   0  0  0  0  0  0  0  0  0  0  0  0
   19.8565  -19.0596  -13.8915 C   0  0  0  0  0  0  0  0  0  0  0  0
   20.9844  -19.7209  -13.4724 C   0  0  0  0  0  0  0  0  0  0  0  0
   21.6818  -21.4475  -10.6584 C   0  0  0  0  0  0  0  0  0  0  0  0
   21.8825  -22.5665  -11.1899 O   0  0  0  0  0  0  0  0  0  0  0  0
   20.4224  -21.2143  -10.1298 O   0  0  0  0  0  0  0  0  0  0  0  0
  2  1  1  6
  2  3  1  0
  3  4  1  0
  4  5  1  0
  5  6  1  0
  7  6  1  0
  8  2  1  0
  8  9  2  0
 10  8  1  0
 11 10  1  0
 11 12  1  1
 12 13  1  0
 13 21  1  0
 14 13  2  0
 14 15  1  0
 15 16  1  0
 16 17  1  0
 17 18  2  0
 19 18  1  0
 20 19  2  0
 21 16  2  0
 21 20  1  0
 22 11  1  0
 23 22  2  0
 24 22  1  0
 25 24  1  0
 25 26  1  6
 26 27  1  0
 27 28  2  0
 28 29  1  0
 30 29  2  0
 31 30  1  0
 32 27  1  0
 32 31  2  0
 33 25  1  0
 34 33  2  0
 35 33  1  0
M  END
$$$$
