KWF.pdb
     RDKit          3D

 35 37  0  0  1  0  0  0  0  0999 V2000
   27.1115  -22.6582  -15.1991 N   0  0  0  0  0  0  0  0  0  0  0  0
   27.4562  -21.5354  -14.4005 C   0  0  1  0  0  0  0  0  0  0  0  0
   27.3551  -20.2300  -15.0327 C   0  0  0  0  0  0  0  0  0  0  0  0
   28.0912  -19.8140  -16.2227 C   0  0  0  0  0  0  0  0  0  0  0  0
   29.1663  -20.5633  -16.8545 C   0  0  0  0  0  0  0  0  0  0  0  0
   29.8813  -20.1087  -18.0538 C   0  0  0  0  0  0  0  0  0  0  0  0
   31.0574  -20.8852  -18.4130 N   0  0  0  0  0  0  0  0  0  0  0  0
   26.7321  -21.6515  -13.0976 C   0  0  0  0  0  0  0  0  0  0  0  0
   25.5199  -21.9880  -13.0492 O   0  0  0  0  0  0  0  0  0  0  0  0
   27.3521  -21.3946  -11.8479 N   0  0  0  0  0  0  0  0  0  0  0  0
   26.5709  -21.1762  -10.6489 C   0  0  1  0  0  0  0  0  0  0  0  0
   27.6021  -20.9388   -9.5578 C   0  0  0  0  0  0  0  0  0  0  0  0
   27.0401  -20.6089   -8.2471 C   0  0  0  0  0  0  0  0  0  0  0  0
   25.6755  -20.7035   -7.9324 C   0  0  0  0  0  0  0  0  0  0  0  0
   25.5639  -20.3494   -6.6561 N   0  0  0  0  0  0  0  0  0  0  0  0
   26.7485  -20.0286   -6.1059 C   0  0  0  0  0  0  0  0  0  0  0  0
   27.1147  -19.6041   -4.8317 C   0  0  0  0  0  0  0  0  0  0  0  0
   28.4384  -19.3433   -4.5789 C   0  0  0  0  0  0  0  0  0  0  0  0
   29.4095  -19.4865   -5.5370 C   0  0  0  0  0  0  0  0  0  0  0  0
   29.0035  -19.9096   -6.7859 C   0  0  0  0  0  0  0  0  0  0  0  0
   27.6868  -20.1941   -7.1206 C   0  0  0  0  0  0  0  0  0  0  0  0
   25.5012  -20.2134  -10.7317 C   0  0  0  0  0  0  0  0  0  0  0  0
   25.6753  -18.9762  -10.9084 O   0  0  0  0  0  0  0  0  0  0  0  0
   24.1557  -20.7214  -10.6084 N   0  0  0  0  0  0  0  0  0  0  0  0
   23.0395  -20.0717  -11.2633 C   0  0  1  0  0  0  0  0  0  0  0  0
   23.3669  -20.1614  -12.7632 C   0  0  0  0  0  0  0  0  0  0  0  0
   22.2951  -19.5570  -13.5684 C   0  0  0  0  0  0  0  0  0  0  0  0
   22.2801  -18.1680  -13.6860 C   0  0  0  0  0  0  0  0  0  0  0  0
   21.2939  -17.5975  -14.4349 C   0  0  0  0  0  0  0  0  0  0  0  0
   20.3276  -18.3710  -15.0662 C   0  0  0  0  0  0  0  0  0  0  0  0
   20.3537  -19.7486  -14.9418 C   0  0  0  0  0  0  0  0  0  0  0  0
   21.3407  -20.3379  -14.1910 C   0  0  0  0  0  0  0  0  0  0  0  0
   21.7732  -20.7609  -10.9652 C   0  0  0  0  0  0  0  0  0  0  0  0
   21.7745  -22.0125  -10.8729 O   0  0  0  0  0  0  0  0  0  0  0  0
   20.5631  -20.1133  -10.7757 O   0  0  0  0  0  0  0  0  0  0  0  0
  2  1  1  6
  2  3  1  0
  3  4  1  0
  4  5  1  0
  5  6  1  0
  7  6  1  0
  8  2  1  0
  8  9  2  0
 10  8  1  0
 11 10  1  0
 11 12  1  1
 12 13  1  0
 13 21  1  0
 14 13  2  0
 14 15  1  0
 15 16  1  0
 16 17  1  0
 17 18  2  0
 19 18  1  0
 20 19  2  0
 21 16  2  0
 21 20  1  0
 22 11  1  0
 23 22  2  0
 24 22  1  0
 25 24  1  0
 25 26  1  6
 26 27  1  0
 27 28  2  0
 28 29  1  0
 30 29  2  0
 31 30  1  0
 32 27  1  0
 32 31  2  0
 33 25  1  0
 34 33  2  0
 35 33  1  0
M  END
$$$$
