KWF.pdb
     RDKit          3D

 35 37  0  0  1  0  0  0  0  0999 V2000
   28.5776  -19.8616  -13.5136 N   0  0  0  0  0  0  0  0  0  0  0  0
   27.7179  -20.9605  -13.7794 C   0  0  1  0  0  0  0  0  0  0  0  0
   28.2987  -22.0839  -14.4968 C   0  0  0  0  0  0  0  0  0  0  0  0
   28.7240  -22.0592  -15.8930 C   0  0  0  0  0  0  0  0  0  0  0  0
   28.2300  -21.1429  -16.9093 C   0  0  0  0  0  0  0  0  0  0  0  0
   28.7438  -21.0968  -18.2841 C   0  0  0  0  0  0  0  0  0  0  0  0
   28.6336  -22.3375  -19.0351 N   0  0  0  0  0  0  0  0  0  0  0  0
   27.0260  -21.3283  -12.5061 C   0  0  0  0  0  0  0  0  0  0  0  0
   26.4509  -22.4399  -12.3702 O   0  0  0  0  0  0  0  0  0  0  0  0
   26.9719  -20.4635  -11.3830 N   0  0  0  0  0  0  0  0  0  0  0  0
   25.8631  -20.5031  -10.4531 C   0  0  1  0  0  0  0  0  0  0  0  0
   26.3608  -19.7483   -9.2313 C   0  0  0  0  0  0  0  0  0  0  0  0
   27.5126  -20.3572   -8.5641 C   0  0  0  0  0  0  0  0  0  0  0  0
   28.2589  -21.4184   -9.0999 C   0  0  0  0  0  0  0  0  0  0  0  0
   29.2262  -21.6710   -8.2240 N   0  0  0  0  0  0  0  0  0  0  0  0
   29.1749  -20.8591   -7.1530 C   0  0  0  0  0  0  0  0  0  0  0  0
   29.9567  -20.7578   -6.0056 C   0  0  0  0  0  0  0  0  0  0  0  0
   29.6341  -19.8066   -5.0700 C   0  0  0  0  0  0  0  0  0  0  0  0
   28.5703  -18.9553   -5.2273 C   0  0  0  0  0  0  0  0  0  0  0  0
   27.8221  -19.0894   -6.3787 C   0  0  0  0  0  0  0  0  0  0  0  0
   28.0831  -20.0239   -7.3713 C   0  0  0  0  0  0  0  0  0  0  0  0
   24.5712  -20.1112  -10.9587 C   0  0  0  0  0  0  0  0  0  0  0  0
   24.3269  -18.9889  -11.4810 O   0  0  0  0  0  0  0  0  0  0  0  0
   23.5086  -21.0828  -10.8557 N   0  0  0  0  0  0  0  0  0  0  0  0
   22.1987  -20.8328  -11.4200 C   0  0  1  0  0  0  0  0  0  0  0  0
   22.0730  -21.8481  -12.5681 C   0  0  0  0  0  0  0  0  0  0  0  0
   20.7922  -21.6844  -13.2718 C   0  0  0  0  0  0  0  0  0  0  0  0
   20.5144  -22.5599  -14.3204 C   0  0  0  0  0  0  0  0  0  0  0  0
   19.3272  -22.4204  -14.9761 C   0  0  0  0  0  0  0  0  0  0  0  0
   18.4146  -21.4365  -14.6158 C   0  0  0  0  0  0  0  0  0  0  0  0
   18.7022  -20.5740  -13.5731 C   0  0  0  0  0  0  0  0  0  0  0  0
   19.8937  -20.7019  -12.9030 C   0  0  0  0  0  0  0  0  0  0  0  0
   21.1393  -21.0448  -10.4198 C   0  0  0  0  0  0  0  0  0  0  0  0
   21.2477  -22.0063   -9.6206 O   0  0  0  0  0  0  0  0  0  0  0  0
   20.0154  -20.2437  -10.2979 O   0  0  0  0  0  0  0  0  0  0  0  0
  2  1  1  1
  2  3  1  0
  3  4  1  0
  4  5  1  0
  5  6  1  0
  7  6  1  0
  8  2  1  0
  8  9  2  0
 10  8  1  0
 11 10  1  0
 11 12  1  1
 12 13  1  0
 13 21  1  0
 14 13  2  0
 14 15  1  0
 15 16  1  0
 16 17  1  0
 17 18  2  0
 19 18  1  0
 20 19  2  0
 21 16  2  0
 21 20  1  0
 22 11  1  0
 23 22  2  0
 24 22  1  0
 25 24  1  0
 25 26  1  6
 26 27  1  0
 27 28  2  0
 28 29  1  0
 30 29  2  0
 31 30  1  0
 32 27  1  0
 32 31  2  0
 33 25  1  0
 34 33  2  0
 35 33  1  0
M  END
$$$$
