KWF.pdb
     RDKit          3D

 35 37  0  0  1  0  0  0  0  0999 V2000
   28.0323  -18.9229  -14.6147 N   0  0  0  0  0  0  0  0  0  0  0  0
   27.5275  -20.1793  -15.0435 C   0  0  1  0  0  0  0  0  0  0  0  0
   28.4948  -21.1202  -15.5847 C   0  0  0  0  0  0  0  0  0  0  0  0
   29.2080  -20.9579  -16.8480 C   0  0  0  0  0  0  0  0  0  0  0  0
   28.6300  -20.4543  -18.0845 C   0  0  0  0  0  0  0  0  0  0  0  0
   28.8243  -21.0907  -19.3934 C   0  0  0  0  0  0  0  0  0  0  0  0
   29.2512  -20.2029  -20.4634 N   0  0  0  0  0  0  0  0  0  0  0  0
   26.6678  -20.7320  -13.9523 C   0  0  0  0  0  0  0  0  0  0  0  0
   26.1756  -21.8883  -14.0277 O   0  0  0  0  0  0  0  0  0  0  0  0
   26.3537  -20.0027  -12.7769 N   0  0  0  0  0  0  0  0  0  0  0  0
   25.3379  -20.4615  -11.8531 C   0  0  1  0  0  0  0  0  0  0  0  0
   25.7102  -19.8216  -10.5257 C   0  0  0  0  0  0  0  0  0  0  0  0
   26.7952  -20.4918   -9.8071 C   0  0  0  0  0  0  0  0  0  0  0  0
   27.5265  -21.5735  -10.3222 C   0  0  0  0  0  0  0  0  0  0  0  0
   28.4301  -21.8838   -9.3981 N   0  0  0  0  0  0  0  0  0  0  0  0
   28.3506  -21.0911   -8.3145 C   0  0  0  0  0  0  0  0  0  0  0  0
   29.0682  -21.0453   -7.1225 C   0  0  0  0  0  0  0  0  0  0  0  0
   28.7317  -20.0993   -6.1865 C   0  0  0  0  0  0  0  0  0  0  0  0
   27.7151  -19.2003   -6.3860 C   0  0  0  0  0  0  0  0  0  0  0  0
   27.0299  -19.2804   -7.5808 C   0  0  0  0  0  0  0  0  0  0  0  0
   27.3089  -20.2060   -8.5768 C   0  0  0  0  0  0  0  0  0  0  0  0
   23.9645  -20.3147  -12.2656 C   0  0  0  0  0  0  0  0  0  0  0  0
   23.4718  -19.2437  -12.7154 O   0  0  0  0  0  0  0  0  0  0  0  0
   23.1218  -21.4813  -12.1538 N   0  0  0  0  0  0  0  0  0  0  0  0
   21.7046  -21.4207  -12.4449 C   0  0  1  0  0  0  0  0  0  0  0  0
   21.4482  -22.6252  -13.3659 C   0  0  0  0  0  0  0  0  0  0  0  0
   21.8866  -22.3348  -14.7392 C   0  0  0  0  0  0  0  0  0  0  0  0
   23.1268  -22.8295  -15.1399 C   0  0  0  0  0  0  0  0  0  0  0  0
   23.5405  -22.5708  -16.4129 C   0  0  0  0  0  0  0  0  0  0  0  0
   22.7547  -21.8360  -17.2923 C   0  0  0  0  0  0  0  0  0  0  0  0
   21.5257  -21.3508  -16.8824 C   0  0  0  0  0  0  0  0  0  0  0  0
   21.0952  -21.6031  -15.6033 C   0  0  0  0  0  0  0  0  0  0  0  0
   20.9037  -21.5272  -11.2142 C   0  0  0  0  0  0  0  0  0  0  0  0
   19.6541  -21.4481  -11.2986 O   0  0  0  0  0  0  0  0  0  0  0  0
   21.4425  -21.7127   -9.9512 O   0  0  0  0  0  0  0  0  0  0  0  0
  2  1  1  1
  2  3  1  0
  3  4  1  0
  4  5  1  0
  5  6  1  0
  7  6  1  0
  8  2  1  0
  8  9  2  0
 10  8  1  0
 11 10  1  0
 11 12  1  1
 12 13  1  0
 13 21  1  0
 14 13  2  0
 14 15  1  0
 15 16  1  0
 16 17  1  0
 17 18  2  0
 19 18  1  0
 20 19  2  0
 21 16  2  0
 21 20  1  0
 22 11  1  0
 23 22  2  0
 24 22  1  0
 25 24  1  0
 25 26  1  6
 26 27  1  0
 27 28  2  0
 28 29  1  0
 30 29  2  0
 31 30  1  0
 32 27  1  0
 32 31  2  0
 33 25  1  0
 34 33  2  0
 35 33  1  0
M  END
$$$$
