KWF.pdb
     RDKit          3D

 35 37  0  0  1  0  0  0  0  0999 V2000
   20.6888  -19.8566  -21.0450 N   0  0  0  0  0  0  0  0  0  0  0  0
   19.3414  -19.9335  -20.6022 C   0  0  1  0  0  0  0  0  0  0  0  0
   18.9584  -21.1396  -19.8861 C   0  0  0  0  0  0  0  0  0  0  0  0
   19.3334  -22.4977  -20.2678 C   0  0  0  0  0  0  0  0  0  0  0  0
   18.4450  -23.4812  -20.8678 C   0  0  0  0  0  0  0  0  0  0  0  0
   18.8029  -24.8921  -21.0613 C   0  0  0  0  0  0  0  0  0  0  0  0
   17.7591  -25.7299  -21.6303 N   0  0  0  0  0  0  0  0  0  0  0  0
   19.0115  -18.6595  -19.8927 C   0  0  0  0  0  0  0  0  0  0  0  0
   19.8369  -18.1078  -19.1186 O   0  0  0  0  0  0  0  0  0  0  0  0
   17.7662  -17.9968  -20.0417 N   0  0  0  0  0  0  0  0  0  0  0  0
   17.4722  -16.7736  -19.3254 C   0  0  1  0  0  0  0  0  0  0  0  0
   16.7589  -15.8968  -20.3416 C   0  0  0  0  0  0  0  0  0  0  0  0
   17.5476  -15.5757  -21.5322 C   0  0  0  0  0  0  0  0  0  0  0  0
   17.9552  -16.5248  -22.4826 C   0  0  0  0  0  0  0  0  0  0  0  0
   18.6196  -15.8522  -23.4170 N   0  0  0  0  0  0  0  0  0  0  0  0
   18.6815  -14.5343  -23.1558 C   0  0  0  0  0  0  0  0  0  0  0  0
   19.2632  -13.4638  -23.8293 C   0  0  0  0  0  0  0  0  0  0  0  0
   19.1564  -12.2073  -23.2869 C   0  0  0  0  0  0  0  0  0  0  0  0
   18.4977  -11.9722  -22.1070 C   0  0  0  0  0  0  0  0  0  0  0  0
   17.9356  -13.0607  -21.4725 C   0  0  0  0  0  0  0  0  0  0  0  0
   17.9990  -14.3605  -21.9553 C   0  0  0  0  0  0  0  0  0  0  0  0
   16.8320  -16.9059  -18.0406 C   0  0  0  0  0  0  0  0  0  0  0  0
   16.4129  -15.9325  -17.3557 O   0  0  0  0  0  0  0  0  0  0  0  0
   16.6656  -18.2457  -17.5299 N   0  0  0  0  0  0  0  0  0  0  0  0
   15.9892  -18.4974  -16.2745 C   0  0  1  0  0  0  0  0  0  0  0  0
   14.8869  -19.5103  -16.6266 C   0  0  0  0  0  0  0  0  0  0  0  0
   13.7501  -18.8400  -17.2753 C   0  0  0  0  0  0  0  0  0  0  0  0
   13.5495  -19.0776  -18.6342 C   0  0  0  0  0  0  0  0  0  0  0  0
   12.4950  -18.4655  -19.2444 C   0  0  0  0  0  0  0  0  0  0  0  0
   11.6399  -17.6274  -18.5393 C   0  0  0  0  0  0  0  0  0  0  0  0
   11.8498  -17.4000  -17.1909 C   0  0  0  0  0  0  0  0  0  0  0  0
   12.9074  -18.0094  -16.5623 C   0  0  0  0  0  0  0  0  0  0  0  0
   16.9130  -19.0603  -15.2760 C   0  0  0  0  0  0  0  0  0  0  0  0
   18.1292  -19.1613  -15.5683 O   0  0  0  0  0  0  0  0  0  0  0  0
   16.5266  -19.4913  -14.0171 O   0  0  0  0  0  0  0  0  0  0  0  0
  2  1  1  1
  2  3  1  0
  3  4  1  0
  4  5  1  0
  5  6  1  0
  7  6  1  0
  8  2  1  0
  8  9  2  0
 10  8  1  0
 11 10  1  0
 11 12  1  6
 12 13  1  0
 13 21  1  0
 14 13  2  0
 14 15  1  0
 15 16  1  0
 16 17  1  0
 17 18  2  0
 19 18  1  0
 20 19  2  0
 21 16  2  0
 21 20  1  0
 22 11  1  0
 23 22  2  0
 24 22  1  0
 25 24  1  0
 25 26  1  6
 26 27  1  0
 27 28  2  0
 28 29  1  0
 30 29  2  0
 31 30  1  0
 32 27  1  0
 32 31  2  0
 33 25  1  0
 34 33  2  0
 35 33  1  0
M  END
$$$$
