KWF.pdb
     RDKit          3D

 35 37  0  0  1  0  0  0  0  0999 V2000
   26.1512  -18.6980  -15.8492 N   0  0  0  0  0  0  0  0  0  0  0  0
   27.0659  -19.3560  -14.9845 C   0  0  1  0  0  0  0  0  0  0  0  0
   28.4406  -18.8832  -15.0079 C   0  0  0  0  0  0  0  0  0  0  0  0
   29.4068  -19.1627  -16.0659 C   0  0  0  0  0  0  0  0  0  0  0  0
   29.0824  -19.6516  -17.3971 C   0  0  0  0  0  0  0  0  0  0  0  0
   30.0839  -19.8913  -18.4438 C   0  0  0  0  0  0  0  0  0  0  0  0
   29.5816  -20.5107  -19.6602 N   0  0  0  0  0  0  0  0  0  0  0  0
   26.4545  -19.4187  -13.6215 C   0  0  0  0  0  0  0  0  0  0  0  0
   26.0828  -18.3763  -13.0214 O   0  0  0  0  0  0  0  0  0  0  0  0
   26.2550  -20.6374  -12.9237 N   0  0  0  0  0  0  0  0  0  0  0  0
   25.6291  -20.6658  -11.6186 C   0  0  1  0  0  0  0  0  0  0  0  0
   24.4004  -21.5414  -11.8021 C   0  0  0  0  0  0  0  0  0  0  0  0
   23.2768  -20.8850  -12.4724 C   0  0  0  0  0  0  0  0  0  0  0  0
   23.0957  -20.8671  -13.8642 C   0  0  0  0  0  0  0  0  0  0  0  0
   21.9632  -20.2061  -14.0823 N   0  0  0  0  0  0  0  0  0  0  0  0
   21.3848  -19.7871  -12.9428 C   0  0  0  0  0  0  0  0  0  0  0  0
   20.2206  -19.0696  -12.6822 C   0  0  0  0  0  0  0  0  0  0  0  0
   19.8993  -18.7853  -11.3783 C   0  0  0  0  0  0  0  0  0  0  0  0
   20.6847  -19.1834  -10.3267 C   0  0  0  0  0  0  0  0  0  0  0  0
   21.8291  -19.8923  -10.6291 C   0  0  0  0  0  0  0  0  0  0  0  0
   22.2228  -20.2199  -11.9192 C   0  0  0  0  0  0  0  0  0  0  0  0
   26.4740  -20.9848  -10.4950 C   0  0  0  0  0  0  0  0  0  0  0  0
   27.3494  -21.8936  -10.5039 O   0  0  0  0  0  0  0  0  0  0  0  0
   26.2929  -20.1976   -9.2987 N   0  0  0  0  0  0  0  0  0  0  0  0
   26.9439  -20.5521   -8.0548 C   0  0  1  0  0  0  0  0  0  0  0  0
   27.7914  -19.3195   -7.6980 C   0  0  0  0  0  0  0  0  0  0  0  0
   28.4018  -19.4728   -6.3690 C   0  0  0  0  0  0  0  0  0  0  0  0
   27.9010  -18.6858   -5.3330 C   0  0  0  0  0  0  0  0  0  0  0  0
   28.4561  -18.8241   -4.0954 C   0  0  0  0  0  0  0  0  0  0  0  0
   29.4916  -19.7213   -3.8647 C   0  0  0  0  0  0  0  0  0  0  0  0
   29.9796  -20.4968   -4.9012 C   0  0  0  0  0  0  0  0  0  0  0  0
   29.4308  -20.3690   -6.1533 C   0  0  0  0  0  0  0  0  0  0  0  0
   25.9572  -20.8286   -6.9979 C   0  0  0  0  0  0  0  0  0  0  0  0
   26.2377  -21.6777   -6.1174 O   0  0  0  0  0  0  0  0  0  0  0  0
   24.7228  -20.2058   -6.9064 O   0  0  0  0  0  0  0  0  0  0  0  0
  2  1  1  6
  2  3  1  0
  3  4  1  0
  4  5  1  0
  5  6  1  0
  7  6  1  0
  8  2  1  0
  8  9  2  0
 10  8  1  0
 11 10  1  0
 11 12  1  6
 12 13  1  0
 13 21  1  0
 14 13  2  0
 14 15  1  0
 15 16  1  0
 16 17  1  0
 17 18  2  0
 19 18  1  0
 20 19  2  0
 21 16  2  0
 21 20  1  0
 22 11  1  0
 23 22  2  0
 24 22  1  0
 25 24  1  0
 25 26  1  1
 26 27  1  0
 27 28  2  0
 28 29  1  0
 30 29  2  0
 31 30  1  0
 32 27  1  0
 32 31  2  0
 33 25  1  0
 34 33  2  0
 35 33  1  0
M  END
$$$$
