KWF.pdb
     RDKit          3D

 35 37  0  0  1  0  0  0  0  0999 V2000
   27.0764  -20.9155  -18.1909 N   0  0  0  0  0  0  0  0  0  0  0  0
   26.8946  -19.8136  -17.3134 C   0  0  1  0  0  0  0  0  0  0  0  0
   25.8974  -18.8291  -17.7011 C   0  0  0  0  0  0  0  0  0  0  0  0
   25.9894  -17.9547  -18.8663 C   0  0  0  0  0  0  0  0  0  0  0  0
   27.0846  -17.0401  -19.1504 C   0  0  0  0  0  0  0  0  0  0  0  0
   27.1383  -16.1766  -20.3368 C   0  0  0  0  0  0  0  0  0  0  0  0
   26.0204  -15.2596  -20.4942 N   0  0  0  0  0  0  0  0  0  0  0  0
   26.7342  -20.3459  -15.9254 C   0  0  0  0  0  0  0  0  0  0  0  0
   25.8934  -21.2450  -15.6614 O   0  0  0  0  0  0  0  0  0  0  0  0
   27.5063  -19.8814  -14.8299 N   0  0  0  0  0  0  0  0  0  0  0  0
   27.2163  -20.2952  -13.4733 C   0  0  1  0  0  0  0  0  0  0  0  0
   28.4797  -19.9671  -12.6945 C   0  0  0  0  0  0  0  0  0  0  0  0
   28.5418  -20.5546  -11.3552 C   0  0  0  0  0  0  0  0  0  0  0  0
   29.2484  -21.7271  -11.0449 C   0  0  0  0  0  0  0  0  0  0  0  0
   29.0895  -21.9213   -9.7396 N   0  0  0  0  0  0  0  0  0  0  0  0
   28.3331  -20.9684   -9.1662 C   0  0  0  0  0  0  0  0  0  0  0  0
   27.9027  -20.7633   -7.8584 C   0  0  0  0  0  0  0  0  0  0  0  0
   27.1138  -19.6731   -7.5873 C   0  0  0  0  0  0  0  0  0  0  0  0
   26.7366  -18.7819   -8.5593 C   0  0  0  0  0  0  0  0  0  0  0  0
   27.1851  -19.0223   -9.8417 C   0  0  0  0  0  0  0  0  0  0  0  0
   27.9851  -20.0997  -10.1965 C   0  0  0  0  0  0  0  0  0  0  0  0
   25.9780  -19.8319  -12.8988 C   0  0  0  0  0  0  0  0  0  0  0  0
   25.4777  -18.6947  -13.1198 O   0  0  0  0  0  0  0  0  0  0  0  0
   25.2824  -20.7460  -12.0246 N   0  0  0  0  0  0  0  0  0  0  0  0
   24.0953  -20.3431  -11.2998 C   0  0  1  0  0  0  0  0  0  0  0  0
   22.9553  -20.4741  -12.3236 C   0  0  0  0  0  0  0  0  0  0  0  0
   21.6586  -20.1643  -11.7032 C   0  0  0  0  0  0  0  0  0  0  0  0
   20.9253  -21.2253  -11.1742 C   0  0  0  0  0  0  0  0  0  0  0  0
   19.7241  -20.9485  -10.5916 C   0  0  0  0  0  0  0  0  0  0  0  0
   19.2374  -19.6488  -10.5229 C   0  0  0  0  0  0  0  0  0  0  0  0
   19.9749  -18.6046  -11.0516 C   0  0  0  0  0  0  0  0  0  0  0  0
   21.1866  -18.8674  -11.6414 C   0  0  0  0  0  0  0  0  0  0  0  0
   23.8568  -21.2189  -10.1408 C   0  0  0  0  0  0  0  0  0  0  0  0
   24.2185  -22.4188  -10.2065 O   0  0  0  0  0  0  0  0  0  0  0  0
   23.2527  -20.8033   -8.9652 O   0  0  0  0  0  0  0  0  0  0  0  0
  2  1  1  6
  2  3  1  0
  3  4  1  0
  4  5  1  0
  5  6  1  0
  7  6  1  0
  8  2  1  0
  8  9  2  0
 10  8  1  0
 11 10  1  0
 11 12  1  1
 12 13  1  0
 13 21  1  0
 14 13  2  0
 14 15  1  0
 15 16  1  0
 16 17  1  0
 17 18  2  0
 19 18  1  0
 20 19  2  0
 21 16  2  0
 21 20  1  0
 22 11  1  0
 23 22  2  0
 24 22  1  0
 25 24  1  0
 25 26  1  6
 26 27  1  0
 27 28  2  0
 28 29  1  0
 30 29  2  0
 31 30  1  0
 32 27  1  0
 32 31  2  0
 33 25  1  0
 34 33  2  0
 35 33  1  0
M  END
$$$$
