MSP.pdb
     RDKit          3D

 22 22  0  0  1  0  0  0  0  0999 V2000
    7.8693  -11.8525   18.6331 C   0  0  0  0  0  0  0  0  0  0  0  0
    6.8297  -13.2160   19.1222 S   0  0  0  0  0  0  0  0  0  0  0  0
    7.6454  -14.5317   20.0178 C   0  0  0  0  0  0  0  0  0  0  0  0
    8.9692  -14.1242   20.5659 C   0  0  0  0  0  0  0  0  0  0  0  0
    9.5745  -15.2086   21.4071 C   0  0  2  0  0  0  0  0  0  0  0  0
    9.2362  -16.5265   20.9048 N   0  0  0  0  0  0  0  0  0  0  0  0
    9.0546  -15.1073   22.8131 C   0  0  0  0  0  0  0  0  0  0  0  0
    9.0649  -14.0002   23.4171 O   0  0  0  0  0  0  0  0  0  0  0  0
    6.6714  -17.3005   26.3458 O   0  0  0  0  0  0  0  0  0  0  0  0
    7.1298  -17.3386   25.0035 C   0  0  0  0  0  0  0  0  0  0  0  0
    8.0547  -16.1438   24.8530 C   0  0  2  0  0  0  0  0  0  0  0  0
    8.5534  -16.2429   23.4660 N   0  0  0  0  0  0  0  0  0  0  0  0
    9.2202  -16.1767   25.7466 C   0  0  0  0  0  0  0  0  0  0  0  0
   10.1792  -16.9910   25.4621 O   0  0  0  0  0  0  0  0  0  0  0  0
    9.4050  -15.3902   26.9120 N   0  0  0  0  0  0  0  0  0  0  0  0
    8.4843  -14.2826   27.2569 C   0  0  0  0  0  0  0  0  0  0  0  0
    9.5319  -13.2944   27.7988 C   0  0  0  0  0  0  0  0  0  0  0  0
   10.2353  -14.2120   28.7670 C   0  0  0  0  0  0  0  0  0  0  0  0
   10.4248  -15.4738   27.9103 C   0  0  1  0  0  0  0  0  0  0  0  0
   10.2868  -16.6791   28.7690 C   0  0  0  0  0  0  0  0  0  0  0  0
    9.2436  -17.3471   28.7016 O   0  0  0  0  0  0  0  0  0  0  0  0
   11.2922  -17.0584   29.6285 O   0  0  0  0  0  0  0  0  0  0  0  0
  2  1  1  0
  3  2  1  0
  4  3  1  0
  4  5  1  0
  5  7  1  0
  5  6  1  6
  7  8  2  0
  9 10  1  0
 11 10  1  1
 11 13  1  0
 12 11  1  0
 12  7  1  0
 13 15  1  0
 14 13  2  0
 15 19  1  0
 15 16  1  0
 16 17  1  0
 18 17  1  0
 19 18  1  0
 20 22  1  0
 19 20  1  1
 21 20  2  0
M  END
$$$$
