MSP.pdb
     RDKit          3D

 22 22  0  0  1  0  0  0  0  0999 V2000
    9.9847  -12.3529   28.2340 C   0  0  0  0  0  0  0  0  0  0  0  0
   10.6336  -14.0101   28.3420 S   0  0  0  0  0  0  0  0  0  0  0  0
    9.5983  -15.2956   27.6532 C   0  0  0  0  0  0  0  0  0  0  0  0
    9.7202  -15.4053   26.1726 C   0  0  0  0  0  0  0  0  0  0  0  0
    8.7897  -16.4432   25.6188 C   0  0  2  0  0  0  0  0  0  0  0  0
    9.0283  -17.7457   26.2107 N   0  0  0  0  0  0  0  0  0  0  0  0
    8.9978  -16.5692   24.1362 C   0  0  0  0  0  0  0  0  0  0  0  0
    9.6236  -17.5568   23.6632 O   0  0  0  0  0  0  0  0  0  0  0  0
    6.5092  -15.0606   21.3691 O   0  0  0  0  0  0  0  0  0  0  0  0
    7.8473  -14.6156   21.2115 C   0  0  0  0  0  0  0  0  0  0  0  0
    8.7151  -15.7091   21.8091 C   0  0  2  0  0  0  0  0  0  0  0  0
    8.4980  -15.5900   23.2654 N   0  0  0  0  0  0  0  0  0  0  0  0
   10.1519  -15.5323   21.5591 C   0  0  0  0  0  0  0  0  0  0  0  0
   10.8296  -14.8216   22.3953 O   0  0  0  0  0  0  0  0  0  0  0  0
   10.8862  -16.0733   20.4732 N   0  0  0  0  0  0  0  0  0  0  0  0
   10.2609  -16.9874   19.4900 C   0  0  0  0  0  0  0  0  0  0  0  0
   11.4533  -17.9404   19.2954 C   0  0  0  0  0  0  0  0  0  0  0  0
   12.5238  -16.9160   19.0149 C   0  0  0  0  0  0  0  0  0  0  0  0
   12.2597  -15.8856   20.1241 C   0  0  1  0  0  0  0  0  0  0  0  0
   12.5365  -14.5203   19.6061 C   0  0  0  0  0  0  0  0  0  0  0  0
   11.6322  -13.9073   19.0181 O   0  0  0  0  0  0  0  0  0  0  0  0
   13.7709  -13.9347   19.7694 O   0  0  0  0  0  0  0  0  0  0  0  0
  2  1  1  0
  3  2  1  0
  4  3  1  0
  4  5  1  0
  5  7  1  0
  5  6  1  1
  7  8  2  0
  9 10  1  0
 11 10  1  6
 11 13  1  0
 12 11  1  0
 12  7  1  0
 13 15  1  0
 14 13  2  0
 15 19  1  0
 15 16  1  0
 16 17  1  0
 18 17  1  0
 19 18  1  0
 20 22  1  0
 19 20  1  6
 21 20  2  0
M  END
$$$$
