MSP.pdb
     RDKit          3D

 22 22  0  0  1  0  0  0  0  0999 V2000
    9.4148  -13.0713   18.9317 C   0  0  0  0  0  0  0  0  0  0  0  0
    7.9139  -12.5938   19.7676 S   0  0  0  0  0  0  0  0  0  0  0  0
    7.0803  -13.8941   20.6691 C   0  0  0  0  0  0  0  0  0  0  0  0
    7.8052  -15.1942   20.6120 C   0  0  0  0  0  0  0  0  0  0  0  0
    7.0758  -16.2651   21.3675 C   0  0  2  0  0  0  0  0  0  0  0  0
    5.7229  -16.4401   20.8747 N   0  0  0  0  0  0  0  0  0  0  0  0
    6.9889  -15.8895   22.8197 C   0  0  0  0  0  0  0  0  0  0  0  0
    6.1826  -14.9970   23.1988 O   0  0  0  0  0  0  0  0  0  0  0  0
    8.0722  -18.5435   25.4389 O   0  0  0  0  0  0  0  0  0  0  0  0
    7.0967  -17.5673   25.7690 C   0  0  0  0  0  0  0  0  0  0  0  0
    7.6217  -16.2580   25.2069 C   0  0  2  0  0  0  0  0  0  0  0  0
    7.8035  -16.5282   23.7660 N   0  0  0  0  0  0  0  0  0  0  0  0
    8.9261  -15.8570   25.7508 C   0  0  0  0  0  0  0  0  0  0  0  0
    9.9876  -16.2581   25.1378 O   0  0  0  0  0  0  0  0  0  0  0  0
    9.1440  -15.0580   26.9020 N   0  0  0  0  0  0  0  0  0  0  0  0
    8.0461  -14.2942   27.5380 C   0  0  0  0  0  0  0  0  0  0  0  0
    8.8466  -13.0316   27.9020 C   0  0  0  0  0  0  0  0  0  0  0  0
   10.0075  -13.6892   28.6048 C   0  0  0  0  0  0  0  0  0  0  0  0
   10.3530  -14.8247   27.6284 C   0  0  1  0  0  0  0  0  0  0  0  0
   10.7981  -16.0174   28.3956 C   0  0  0  0  0  0  0  0  0  0  0  0
   10.0245  -16.9806   28.5087 O   0  0  0  0  0  0  0  0  0  0  0  0
   12.0451  -16.0648   28.9755 O   0  0  0  0  0  0  0  0  0  0  0  0
  2  1  1  0
  3  2  1  0
  4  3  1  0
  4  5  1  0
  5  7  1  0
  5  6  1  6
  7  8  2  0
  9 10  1  0
 11 10  1  1
 11 13  1  0
 12 11  1  0
 12  7  1  0
 13 15  1  0
 14 13  2  0
 15 19  1  0
 15 16  1  0
 16 17  1  0
 18 17  1  0
 19 18  1  0
 20 22  1  0
 19 20  1  1
 21 20  2  0
M  END
$$$$
