MSP.pdb
     RDKit          3D

 22 22  0  0  1  0  0  0  0  0999 V2000
    7.0353  -11.0332   25.9411 C   0  0  0  0  0  0  0  0  0  0  0  0
    7.1542  -12.2907   27.1996 S   0  0  0  0  0  0  0  0  0  0  0  0
    6.9606  -13.9761   26.6334 C   0  0  0  0  0  0  0  0  0  0  0  0
    6.4017  -14.0629   25.2554 C   0  0  0  0  0  0  0  0  0  0  0  0
    6.1784  -15.4868   24.8403 C   0  0  2  0  0  0  0  0  0  0  0  0
    5.6777  -16.2915   25.9383 N   0  0  0  0  0  0  0  0  0  0  0  0
    7.4770  -16.0904   24.3856 C   0  0  0  0  0  0  0  0  0  0  0  0
    8.1715  -16.7796   25.1814 O   0  0  0  0  0  0  0  0  0  0  0  0
    8.9806  -15.0793   20.8495 O   0  0  0  0  0  0  0  0  0  0  0  0
    8.9828  -16.4853   21.0407 C   0  0  0  0  0  0  0  0  0  0  0  0
    9.0510  -16.6936   22.5433 C   0  0  2  0  0  0  0  0  0  0  0  0
    7.9280  -15.8928   23.0723 N   0  0  0  0  0  0  0  0  0  0  0  0
   10.2850  -16.1878   23.1592 C   0  0  0  0  0  0  0  0  0  0  0  0
   10.3346  -14.9395   23.4802 O   0  0  0  0  0  0  0  0  0  0  0  0
   11.4502  -16.9441   23.4442 N   0  0  0  0  0  0  0  0  0  0  0  0
   11.4841  -18.4148   23.2730 C   0  0  0  0  0  0  0  0  0  0  0  0
   12.3367  -18.7544   24.5080 C   0  0  0  0  0  0  0  0  0  0  0  0
   13.4770  -17.7963   24.2716 C   0  0  0  0  0  0  0  0  0  0  0  0
   12.7231  -16.5033   23.9229 C   0  0  1  0  0  0  0  0  0  0  0  0
   13.4884  -15.7464   22.8981 C   0  0  0  0  0  0  0  0  0  0  0  0
   13.1642  -15.8557   21.7055 O   0  0  0  0  0  0  0  0  0  0  0  0
   14.5411  -14.9344   23.2530 O   0  0  0  0  0  0  0  0  0  0  0  0
  2  1  1  0
  3  2  1  0
  4  3  1  0
  4  5  1  0
  5  7  1  0
  5  6  1  1
  7  8  2  0
  9 10  1  0
 11 10  1  6
 11 13  1  0
 12 11  1  0
 12  7  1  0
 13 15  1  0
 14 13  2  0
 15 19  1  0
 15 16  1  0
 16 17  1  0
 18 17  1  0
 19 18  1  0
 20 22  1  0
 19 20  1  6
 21 20  2  0
M  END
$$$$
