MSP.pdb
     RDKit          3D

 22 22  0  0  1  0  0  0  0  0999 V2000
    8.9783  -11.7009   20.0089 C   0  0  0  0  0  0  0  0  0  0  0  0
    8.0136  -12.7580   18.9454 S   0  0  0  0  0  0  0  0  0  0  0  0
    7.3560  -14.2355   19.7091 C   0  0  0  0  0  0  0  0  0  0  0  0
    8.4143  -15.2186   20.0730 C   0  0  0  0  0  0  0  0  0  0  0  0
    7.8326  -16.4380   20.7246 C   0  0  2  0  0  0  0  0  0  0  0  0
    6.7209  -16.9729   19.9619 N   0  0  0  0  0  0  0  0  0  0  0  0
    7.3213  -16.0849   22.0926 C   0  0  0  0  0  0  0  0  0  0  0  0
    6.2100  -15.5037   22.2260 O   0  0  0  0  0  0  0  0  0  0  0  0
    7.9051  -18.1838   25.5256 O   0  0  0  0  0  0  0  0  0  0  0  0
    6.8713  -17.3452   25.0345 C   0  0  0  0  0  0  0  0  0  0  0  0
    7.5600  -16.0711   24.5781 C   0  0  2  0  0  0  0  0  0  0  0  0
    8.0752  -16.3985   23.2329 N   0  0  0  0  0  0  0  0  0  0  0  0
    8.7072  -15.6838   25.4100 C   0  0  0  0  0  0  0  0  0  0  0  0
    9.8671  -16.1558   25.1007 O   0  0  0  0  0  0  0  0  0  0  0  0
    8.6718  -14.8271   26.5395 N   0  0  0  0  0  0  0  0  0  0  0  0
    7.4059  -14.2296   27.0232 C   0  0  0  0  0  0  0  0  0  0  0  0
    7.9564  -12.8455   27.4093 C   0  0  0  0  0  0  0  0  0  0  0  0
    9.1217  -13.2892   28.2575 C   0  0  0  0  0  0  0  0  0  0  0  0
    9.7435  -14.3832   27.3752 C   0  0  1  0  0  0  0  0  0  0  0  0
   10.2820  -15.4669   28.2381 C   0  0  0  0  0  0  0  0  0  0  0  0
   11.3110  -15.2531   28.8973 O   0  0  0  0  0  0  0  0  0  0  0  0
    9.6589  -16.6915   28.3134 O   0  0  0  0  0  0  0  0  0  0  0  0
  2  1  1  0
  3  2  1  0
  4  3  1  0
  4  5  1  0
  5  7  1  0
  5  6  1  6
  7  8  2  0
  9 10  1  0
 11 10  1  1
 11 13  1  0
 12 11  1  0
 12  7  1  0
 13 15  1  0
 14 13  2  0
 15 19  1  0
 15 16  1  0
 16 17  1  0
 18 17  1  0
 19 18  1  0
 20 22  1  0
 19 20  1  1
 21 20  2  0
M  END
$$$$
