MSP.pdb
     RDKit          3D

 22 22  0  0  1  0  0  0  0  0999 V2000
    9.2425  -11.8197   19.9283 C   0  0  0  0  0  0  0  0  0  0  0  0
    8.0618  -12.7053   18.9279 S   0  0  0  0  0  0  0  0  0  0  0  0
    7.3586  -14.1716   19.6725 C   0  0  0  0  0  0  0  0  0  0  0  0
    8.3926  -15.1055   20.1993 C   0  0  0  0  0  0  0  0  0  0  0  0
    7.7716  -16.3246   20.8141 C   0  0  2  0  0  0  0  0  0  0  0  0
    6.6278  -16.7849   20.0502 N   0  0  0  0  0  0  0  0  0  0  0  0
    7.2955  -16.0039   22.2026 C   0  0  0  0  0  0  0  0  0  0  0  0
    6.1875  -15.4276   22.3781 O   0  0  0  0  0  0  0  0  0  0  0  0
    7.8614  -18.2716   25.2677 O   0  0  0  0  0  0  0  0  0  0  0  0
    6.8698  -17.2667   25.1251 C   0  0  0  0  0  0  0  0  0  0  0  0
    7.6126  -16.0195   24.6794 C   0  0  2  0  0  0  0  0  0  0  0  0
    8.0790  -16.3426   23.3155 N   0  0  0  0  0  0  0  0  0  0  0  0
    8.7970  -15.7098   25.4913 C   0  0  0  0  0  0  0  0  0  0  0  0
    9.9356  -16.1769   25.1051 O   0  0  0  0  0  0  0  0  0  0  0  0
    8.8197  -14.9344   26.6784 N   0  0  0  0  0  0  0  0  0  0  0  0
    7.5794  -14.3832   27.2712 C   0  0  0  0  0  0  0  0  0  0  0  0
    8.1435  -13.0248   27.7230 C   0  0  0  0  0  0  0  0  0  0  0  0
    9.3559  -13.5165   28.4730 C   0  0  0  0  0  0  0  0  0  0  0  0
    9.9335  -14.5407   27.4835 C   0  0  1  0  0  0  0  0  0  0  0  0
   10.5239  -15.6773   28.2375 C   0  0  0  0  0  0  0  0  0  0  0  0
   11.5797  -15.4976   28.8637 O   0  0  0  0  0  0  0  0  0  0  0  0
    9.9194  -16.9134   28.2488 O   0  0  0  0  0  0  0  0  0  0  0  0
  2  1  1  0
  3  2  1  0
  4  3  1  0
  4  5  1  0
  5  7  1  0
  5  6  1  6
  7  8  2  0
  9 10  1  0
 11 10  1  1
 11 13  1  0
 12 11  1  0
 12  7  1  0
 13 15  1  0
 14 13  2  0
 15 19  1  0
 15 16  1  0
 16 17  1  0
 18 17  1  0
 19 18  1  0
 20 22  1  0
 19 20  1  1
 21 20  2  0
M  END
$$$$
