MSP.pdb
     RDKit          3D

 22 22  0  0  1  0  0  0  0  0999 V2000
    8.2775  -11.5610   19.7192 C   0  0  0  0  0  0  0  0  0  0  0  0
    8.4619  -13.3343   19.7030 S   0  0  0  0  0  0  0  0  0  0  0  0
    7.0198  -14.2600   19.1911 C   0  0  0  0  0  0  0  0  0  0  0  0
    7.2502  -15.7317   19.1821 C   0  0  0  0  0  0  0  0  0  0  0  0
    8.0418  -16.1725   20.3775 C   0  0  2  0  0  0  0  0  0  0  0  0
    8.3216  -17.5951   20.3384 N   0  0  0  0  0  0  0  0  0  0  0  0
    7.2618  -15.8937   21.6311 C   0  0  0  0  0  0  0  0  0  0  0  0
    6.0057  -16.0062   21.6372 O   0  0  0  0  0  0  0  0  0  0  0  0
    7.5376  -17.3969   25.2195 O   0  0  0  0  0  0  0  0  0  0  0  0
    6.6301  -16.7820   24.3185 C   0  0  0  0  0  0  0  0  0  0  0  0
    7.1779  -15.3868   24.0747 C   0  0  2  0  0  0  0  0  0  0  0  0
    7.9238  -15.5062   22.8052 N   0  0  0  0  0  0  0  0  0  0  0  0
    8.1226  -14.9301   25.1028 C   0  0  0  0  0  0  0  0  0  0  0  0
    9.3274  -15.3890   25.0656 O   0  0  0  0  0  0  0  0  0  0  0  0
    7.8426  -14.0182   26.1522 N   0  0  0  0  0  0  0  0  0  0  0  0
    6.4882  -13.4528   26.3506 C   0  0  0  0  0  0  0  0  0  0  0  0
    6.9079  -12.0276   26.7511 C   0  0  0  0  0  0  0  0  0  0  0  0
    7.9030  -12.3748   27.8298 C   0  0  0  0  0  0  0  0  0  0  0  0
    8.7186  -13.4847   27.1480 C   0  0  1  0  0  0  0  0  0  0  0  0
    9.1174  -14.4973   28.1602 C   0  0  0  0  0  0  0  0  0  0  0  0
    8.4747  -15.5559   28.2350 O   0  0  0  0  0  0  0  0  0  0  0  0
   10.1799  -14.2765   29.0063 O   0  0  0  0  0  0  0  0  0  0  0  0
  2  1  1  0
  3  2  1  0
  4  3  1  0
  4  5  1  0
  5  7  1  0
  5  6  1  6
  7  8  2  0
  9 10  1  0
 11 10  1  1
 11 13  1  0
 12 11  1  0
 12  7  1  0
 13 15  1  0
 14 13  2  0
 15 19  1  0
 15 16  1  0
 16 17  1  0
 18 17  1  0
 19 18  1  0
 20 22  1  0
 19 20  1  1
 21 20  2  0
M  END
$$$$
