MSP.pdb
     RDKit          3D

 22 22  0  0  1  0  0  0  0  0999 V2000
    7.0476  -11.4377   27.5372 C   0  0  0  0  0  0  0  0  0  0  0  0
    6.9162  -12.8233   26.4228 S   0  0  0  0  0  0  0  0  0  0  0  0
    6.5190  -14.3939   27.1807 C   0  0  0  0  0  0  0  0  0  0  0  0
    6.3021  -15.4790   26.1835 C   0  0  0  0  0  0  0  0  0  0  0  0
    7.5384  -16.3067   25.9927 C   0  0  2  0  0  0  0  0  0  0  0  0
    8.2923  -16.4335   27.2252 N   0  0  0  0  0  0  0  0  0  0  0  0
    8.4312  -15.6548   24.9751 C   0  0  0  0  0  0  0  0  0  0  0  0
    9.4040  -14.9427   25.3454 O   0  0  0  0  0  0  0  0  0  0  0  0
    9.9585  -17.2358   22.4637 O   0  0  0  0  0  0  0  0  0  0  0  0
   10.3140  -15.8658   22.5653 C   0  0  0  0  0  0  0  0  0  0  0  0
    9.0008  -15.1045   22.6070 C   0  0  2  0  0  0  0  0  0  0  0  0
    8.1904  -15.8324   23.6049 N   0  0  0  0  0  0  0  0  0  0  0  0
    8.2617  -15.1222   21.3376 C   0  0  0  0  0  0  0  0  0  0  0  0
    7.4045  -16.0672   21.1484 O   0  0  0  0  0  0  0  0  0  0  0  0
    8.3944  -14.1893   20.2777 N   0  0  0  0  0  0  0  0  0  0  0  0
    9.1491  -12.9258   20.4435 C   0  0  0  0  0  0  0  0  0  0  0  0
    8.2241  -12.0142   19.6182 C   0  0  0  0  0  0  0  0  0  0  0  0
    8.1350  -12.8493   18.3657 C   0  0  0  0  0  0  0  0  0  0  0  0
    7.8731  -14.2473   18.9479 C   0  0  1  0  0  0  0  0  0  0  0  0
    8.5564  -15.2672   18.1100 C   0  0  0  0  0  0  0  0  0  0  0  0
    9.6661  -15.6914   18.4676 O   0  0  0  0  0  0  0  0  0  0  0  0
    7.9785  -15.7412   16.9547 O   0  0  0  0  0  0  0  0  0  0  0  0
  2  1  1  0
  3  2  1  0
  4  3  1  0
  4  5  1  0
  5  7  1  0
  5  6  1  1
  7  8  2  0
  9 10  1  0
 11 10  1  6
 11 13  1  0
 12 11  1  0
 12  7  1  0
 13 15  1  0
 14 13  2  0
 15 19  1  0
 15 16  1  0
 16 17  1  0
 18 17  1  0
 19 18  1  0
 20 22  1  0
 19 20  1  6
 21 20  2  0
M  END
$$$$
