MSP.pdb
     RDKit          3D

 22 22  0  0  1  0  0  0  0  0999 V2000
    8.3011  -12.4258   27.8589 C   0  0  0  0  0  0  0  0  0  0  0  0
    7.8190  -13.6813   26.6882 S   0  0  0  0  0  0  0  0  0  0  0  0
    6.5176  -14.7843   27.2251 C   0  0  0  0  0  0  0  0  0  0  0  0
    6.0670  -15.7132   26.1512 C   0  0  0  0  0  0  0  0  0  0  0  0
    7.2260  -16.4164   25.5093 C   0  0  2  0  0  0  0  0  0  0  0  0
    8.1801  -16.8851   26.4961 N   0  0  0  0  0  0  0  0  0  0  0  0
    7.9455  -15.4701   24.5904 C   0  0  0  0  0  0  0  0  0  0  0  0
    8.3471  -14.3527   25.0154 O   0  0  0  0  0  0  0  0  0  0  0  0
   10.4620  -16.5841   22.4585 O   0  0  0  0  0  0  0  0  0  0  0  0
   10.3380  -15.1732   22.5455 C   0  0  0  0  0  0  0  0  0  0  0  0
    8.8619  -14.8791   22.3441 C   0  0  2  0  0  0  0  0  0  0  0  0
    8.1766  -15.8212   23.2524 N   0  0  0  0  0  0  0  0  0  0  0  0
    8.3817  -15.1478   20.9820 C   0  0  0  0  0  0  0  0  0  0  0  0
    7.8563  -16.3008   20.7410 O   0  0  0  0  0  0  0  0  0  0  0  0
    8.4358  -14.2533   19.8829 N   0  0  0  0  0  0  0  0  0  0  0  0
    8.9808  -12.8832   20.0211 C   0  0  0  0  0  0  0  0  0  0  0  0
    7.9804  -12.1611   19.1017 C   0  0  0  0  0  0  0  0  0  0  0  0
    8.0927  -13.0545   17.8920 C   0  0  0  0  0  0  0  0  0  0  0  0
    8.0094  -14.4490   18.5325 C   0  0  1  0  0  0  0  0  0  0  0  0
    8.8869  -15.3884   17.7864 C   0  0  0  0  0  0  0  0  0  0  0  0
   10.0084  -15.6542   18.2456 O   0  0  0  0  0  0  0  0  0  0  0  0
    8.4740  -15.9605   16.6051 O   0  0  0  0  0  0  0  0  0  0  0  0
  2  1  1  0
  3  2  1  0
  4  3  1  0
  4  5  1  0
  5  7  1  0
  5  6  1  1
  7  8  2  0
  9 10  1  0
 11 10  1  6
 11 13  1  0
 12 11  1  0
 12  7  1  0
 13 15  1  0
 14 13  2  0
 15 19  1  0
 15 16  1  0
 16 17  1  0
 18 17  1  0
 19 18  1  0
 20 22  1  0
 19 20  1  6
 21 20  2  0
M  END
$$$$
