MSP.pdb
     RDKit          3D

 22 22  0  0  1  0  0  0  0  0999 V2000
    9.5296  -12.0191   19.3368 C   0  0  0  0  0  0  0  0  0  0  0  0
    7.8913  -12.5563   18.8824 S   0  0  0  0  0  0  0  0  0  0  0  0
    7.4347  -14.1984   19.4242 C   0  0  0  0  0  0  0  0  0  0  0  0
    8.5745  -14.9480   20.0225 C   0  0  0  0  0  0  0  0  0  0  0  0
    8.1318  -16.2652   20.5869 C   0  0  2  0  0  0  0  0  0  0  0  0
    7.3003  -16.9961   19.6498 N   0  0  0  0  0  0  0  0  0  0  0  0
    7.3239  -16.0355   21.8328 C   0  0  0  0  0  0  0  0  0  0  0  0
    6.0665  -15.9598   21.7708 O   0  0  0  0  0  0  0  0  0  0  0  0
    7.6270  -17.5471   25.5566 O   0  0  0  0  0  0  0  0  0  0  0  0
    6.6376  -16.9928   24.7039 C   0  0  0  0  0  0  0  0  0  0  0  0
    7.1687  -15.6312   24.2920 C   0  0  2  0  0  0  0  0  0  0  0  0
    7.9610  -15.9034   23.0752 N   0  0  0  0  0  0  0  0  0  0  0  0
    8.0683  -15.0195   25.2792 C   0  0  0  0  0  0  0  0  0  0  0  0
    9.3017  -15.3965   25.2908 O   0  0  0  0  0  0  0  0  0  0  0  0
    7.7151  -14.0373   26.2391 N   0  0  0  0  0  0  0  0  0  0  0  0
    6.3370  -13.5033   26.3348 C   0  0  0  0  0  0  0  0  0  0  0  0
    6.6959  -12.0377   26.6365 C   0  0  0  0  0  0  0  0  0  0  0  0
    7.6522  -12.2652   27.7801 C   0  0  0  0  0  0  0  0  0  0  0  0
    8.5299  -13.3978   27.2245 C   0  0  1  0  0  0  0  0  0  0  0  0
    8.9136  -14.3133   28.3307 C   0  0  0  0  0  0  0  0  0  0  0  0
    8.3122  -15.3916   28.4525 O   0  0  0  0  0  0  0  0  0  0  0  0
    9.9174  -13.9821   29.2116 O   0  0  0  0  0  0  0  0  0  0  0  0
  2  1  1  0
  3  2  1  0
  4  3  1  0
  4  5  1  0
  5  7  1  0
  5  6  1  6
  7  8  2  0
  9 10  1  0
 11 10  1  1
 11 13  1  0
 12 11  1  0
 12  7  1  0
 13 15  1  0
 14 13  2  0
 15 19  1  0
 15 16  1  0
 16 17  1  0
 18 17  1  0
 19 18  1  0
 20 22  1  0
 19 20  1  1
 21 20  2  0
M  END
$$$$
