MSP.pdb
     RDKit          3D

 22 22  0  0  1  0  0  0  0  0999 V2000
    8.6845  -12.1630   17.8409 C   0  0  0  0  0  0  0  0  0  0  0  0
    7.8427  -12.5399   19.3669 S   0  0  0  0  0  0  0  0  0  0  0  0
    7.7953  -14.2692   19.8206 C   0  0  0  0  0  0  0  0  0  0  0  0
    7.1775  -14.5001   21.1562 C   0  0  0  0  0  0  0  0  0  0  0  0
    7.1529  -15.9582   21.5070 C   0  0  2  0  0  0  0  0  0  0  0  0
    6.1039  -16.6620   20.7943 N   0  0  0  0  0  0  0  0  0  0  0  0
    6.8946  -16.1200   22.9783 C   0  0  0  0  0  0  0  0  0  0  0  0
    5.7138  -16.1146   23.4213 O   0  0  0  0  0  0  0  0  0  0  0  0
    8.0430  -18.4751   25.5616 O   0  0  0  0  0  0  0  0  0  0  0  0
    7.0537  -17.4676   25.7014 C   0  0  0  0  0  0  0  0  0  0  0  0
    7.7400  -16.1657   25.3274 C   0  0  2  0  0  0  0  0  0  0  0  0
    7.9641  -16.2785   23.8716 N   0  0  0  0  0  0  0  0  0  0  0  0
    9.0505  -15.9790   25.9645 C   0  0  0  0  0  0  0  0  0  0  0  0
   10.0662  -16.5855   25.4505 O   0  0  0  0  0  0  0  0  0  0  0  0
    9.3207  -15.1848   27.1079 N   0  0  0  0  0  0  0  0  0  0  0  0
    8.3214  -14.2351   27.6491 C   0  0  0  0  0  0  0  0  0  0  0  0
    9.2894  -13.1031   28.0355 C   0  0  0  0  0  0  0  0  0  0  0  0
   10.2833  -13.9112   28.8312 C   0  0  0  0  0  0  0  0  0  0  0  0
   10.5032  -15.1205   27.9086 C   0  0  1  0  0  0  0  0  0  0  0  0
   10.7023  -16.3410   28.7331 C   0  0  0  0  0  0  0  0  0  0  0  0
    9.7660  -17.1470   28.8471 O   0  0  0  0  0  0  0  0  0  0  0  0
   11.9003  -16.5846   29.3646 O   0  0  0  0  0  0  0  0  0  0  0  0
  2  1  1  0
  3  2  1  0
  4  3  1  0
  4  5  1  0
  5  7  1  0
  5  6  1  6
  7  8  2  0
  9 10  1  0
 11 10  1  1
 11 13  1  0
 12 11  1  0
 12  7  1  0
 13 15  1  0
 14 13  2  0
 15 19  1  0
 15 16  1  0
 16 17  1  0
 18 17  1  0
 19 18  1  0
 20 22  1  0
 19 20  1  1
 21 20  2  0
M  END
$$$$
