MSP.pdb
     RDKit          3D

 22 22  0  0  1  0  0  0  0  0999 V2000
    9.0984  -11.6547   19.7957 C   0  0  0  0  0  0  0  0  0  0  0  0
    7.9970  -12.6416   18.7997 S   0  0  0  0  0  0  0  0  0  0  0  0
    7.4170  -14.1566   19.5527 C   0  0  0  0  0  0  0  0  0  0  0  0
    8.5156  -14.9575   20.1614 C   0  0  0  0  0  0  0  0  0  0  0  0
    7.9929  -16.2029   20.8137 C   0  0  2  0  0  0  0  0  0  0  0  0
    6.8852  -16.7716   20.0698 N   0  0  0  0  0  0  0  0  0  0  0  0
    7.4986  -15.8806   22.1955 C   0  0  0  0  0  0  0  0  0  0  0  0
    6.2687  -15.6952   22.4042 O   0  0  0  0  0  0  0  0  0  0  0  0
    6.8443  -17.5435   25.9916 O   0  0  0  0  0  0  0  0  0  0  0  0
    7.2725  -17.3270   24.6563 C   0  0  0  0  0  0  0  0  0  0  0  0
    7.9286  -15.9575   24.6541 C   0  0  2  0  0  0  0  0  0  0  0  0
    8.4006  -15.7832   23.2651 N   0  0  0  0  0  0  0  0  0  0  0  0
    9.0991  -15.8566   25.5360 C   0  0  0  0  0  0  0  0  0  0  0  0
   10.1670  -16.4982   25.2017 O   0  0  0  0  0  0  0  0  0  0  0  0
    9.1793  -15.1117   26.7400 N   0  0  0  0  0  0  0  0  0  0  0  0
    8.0590  -14.2617   27.2048 C   0  0  0  0  0  0  0  0  0  0  0  0
    8.8925  -13.0918   27.7563 C   0  0  0  0  0  0  0  0  0  0  0  0
    9.8448  -13.8759   28.6238 C   0  0  0  0  0  0  0  0  0  0  0  0
   10.2550  -15.0145   27.6765 C   0  0  1  0  0  0  0  0  0  0  0  0
   10.4461  -16.2635   28.4592 C   0  0  0  0  0  0  0  0  0  0  0  0
    9.5569  -17.1284   28.4348 O   0  0  0  0  0  0  0  0  0  0  0  0
   11.5856  -16.4692   29.2025 O   0  0  0  0  0  0  0  0  0  0  0  0
  2  1  1  0
  3  2  1  0
  4  3  1  0
  4  5  1  0
  5  7  1  0
  5  6  1  6
  7  8  2  0
  9 10  1  0
 11 10  1  6
 11 13  1  0
 12 11  1  0
 12  7  1  0
 13 15  1  0
 14 13  2  0
 15 19  1  0
 15 16  1  0
 16 17  1  0
 18 17  1  0
 19 18  1  0
 20 22  1  0
 19 20  1  1
 21 20  2  0
M  END
$$$$
