RPE.pdb
     RDKit          3D

 28 28  0  0  1  0  0  0  0  0999 V2000
   17.7829  -13.7888    2.8020 N   0  0  0  0  0  0  0  0  0  0  0  0
   17.2160  -14.3150    4.0144 C   0  0  0  0  0  0  0  0  0  0  0  0
   16.8107  -13.4644    4.8686 N   0  0  0  0  0  0  0  0  0  0  0  0
   17.1146  -15.6997    4.2517 N   0  0  0  0  0  0  0  0  0  0  0  0
   17.5113  -16.6397    3.2461 C   0  0  0  0  0  0  0  0  0  0  0  0
   17.4200  -18.0860    3.6582 C   0  0  0  0  0  0  0  0  0  0  0  0
   17.8679  -19.0517    2.6163 C   0  0  0  0  0  0  0  0  0  0  0  0
   17.2135  -20.4127    2.8388 C   0  0  2  0  0  0  0  0  0  0  0  0
   15.7783  -20.3163    2.6610 N   0  0  0  0  0  0  0  0  0  0  0  0
   17.4954  -20.9103    4.1925 C   0  0  0  0  0  0  0  0  0  0  0  0
   16.8662  -20.2796    5.1305 O   0  0  0  0  0  0  0  0  0  0  0  0
   16.4050  -13.7530    5.7957 N   0  0  0  0  0  0  0  0  0  0  0  0
   18.3275  -21.9498    4.6003 C   0  0  0  0  0  0  0  0  0  0  0  0
   18.2571  -23.3262    3.9773 C   0  0  0  0  0  0  0  0  0  0  0  0
   19.7321  -23.4776    3.5760 C   0  0  0  0  0  0  0  0  0  0  0  0
   20.5115  -22.4795    4.4727 C   0  0  2  0  0  0  0  0  0  0  0  0
   19.4442  -22.1566    5.4623 C   0  0  0  0  0  0  0  0  0  0  0  0
   19.7107  -21.2593    6.5467 O   0  0  0  0  0  0  0  0  0  0  0  0
   19.8224  -20.0231    6.3654 N   0  0  0  0  0  0  0  0  0  0  0  0
   19.8712  -21.6897    7.9162 C   0  0  1  0  0  0  0  0  0  0  0  0
   20.1818  -20.7599    8.9781 C   0  0  0  0  0  0  0  0  0  0  0  0
   19.0739  -20.9252   10.0309 C   0  0  0  0  0  0  0  0  0  0  0  0
   17.8710  -20.1052    9.6712 C   0  0  0  0  0  0  0  0  0  0  0  0
   16.8665  -20.2223   10.7514 O   0  0  0  0  0  0  0  0  0  0  0  0
   17.1766  -20.8086   11.8145 C   0  0  0  0  0  0  0  0  0  0  0  0
   21.4583  -21.0878    9.6268 O   0  0  0  0  0  0  0  0  0  0  0  0
   22.0415  -22.1976    9.5620 O   0  0  0  0  0  0  0  0  0  0  0  0
   15.5793  -19.7012   10.6306 O   0  0  0  0  0  0  0  0  0  0  0  0
  2  1  1  0
  3  2  2  0
  4  2  1  0
  5  4  1  0
  6  5  1  0
  7  6  1  0
  8  9  1  1
  8  7  1  0
 10  8  1  0
 11 10  2  0
 12 16  1  0
 12 10  1  0
 13 12  1  0
 14 13  1  0
 14 15  1  0
 15 16  1  0
 17 19  1  0
 16 17  1  6
 18 17  2  0
 20 19  1  0
 20 25  1  0
 20 21  1  1
 22 21  1  0
 23 22  1  0
 24 23  2  0
 25 26  2  0
 25 28  1  0
 27 23  1  0
M  END
$$$$
