RPE.pdb
     RDKit          3D

 28 28  0  0  1  0  0  0  0  0999 V2000
   19.2645  -24.2271   -6.4846 N   0  0  0  0  0  0  0  0  0  0  0  0
   17.9577  -24.1313   -7.0770 C   0  0  0  0  0  0  0  0  0  0  0  0
   16.9664  -24.2223   -6.2856 N   0  0  0  0  0  0  0  0  0  0  0  0
   17.7773  -23.9493   -8.4621 N   0  0  0  0  0  0  0  0  0  0  0  0
   18.9046  -23.7317   -9.3187 C   0  0  0  0  0  0  0  0  0  0  0  0
   19.7129  -22.5000   -9.0033 C   0  0  0  0  0  0  0  0  0  0  0  0
   20.8436  -22.2500   -9.9402 C   0  0  0  0  0  0  0  0  0  0  0  0
   21.5933  -20.9821   -9.5395 C   0  0  2  0  0  0  0  0  0  0  0  0
   20.6697  -19.9953   -9.0160 N   0  0  0  0  0  0  0  0  0  0  0  0
   22.3013  -20.4098  -10.6932 C   0  0  0  0  0  0  0  0  0  0  0  0
   21.5274  -19.8474  -11.5640 O   0  0  0  0  0  0  0  0  0  0  0  0
   15.9729  -24.2310   -6.6327 N   0  0  0  0  0  0  0  0  0  0  0  0
   23.6650  -20.3852  -10.9742 C   0  0  0  0  0  0  0  0  0  0  0  0
   24.6897  -19.9667   -9.9436 C   0  0  0  0  0  0  0  0  0  0  0  0
   25.5964  -21.2054   -9.9980 C   0  0  0  0  0  0  0  0  0  0  0  0
   25.3087  -21.8712  -11.3697 C   0  0  2  0  0  0  0  0  0  0  0  0
   24.5525  -20.7651  -12.0234 C   0  0  0  0  0  0  0  0  0  0  0  0
   24.0807  -20.9075  -13.3685 O   0  0  0  0  0  0  0  0  0  0  0  0
   23.6179  -21.9939  -13.7918 N   0  0  0  0  0  0  0  0  0  0  0  0
   24.0963  -19.8353  -14.3363 C   0  0  1  0  0  0  0  0  0  0  0  0
   23.5424  -19.9939  -15.6616 C   0  0  0  0  0  0  0  0  0  0  0  0
   22.5447  -18.8397  -15.8507 C   0  0  0  0  0  0  0  0  0  0  0  0
   23.1376  -17.7579  -16.7033 C   0  0  0  0  0  0  0  0  0  0  0  0
   22.0438  -16.9944  -17.3439 O   0  0  0  0  0  0  0  0  0  0  0  0
   22.3268  -16.0197  -18.0789 C   0  0  0  0  0  0  0  0  0  0  0  0
   24.5744  -19.8584  -16.6981 O   0  0  0  0  0  0  0  0  0  0  0  0
   24.4430  -20.1919  -17.9012 O   0  0  0  0  0  0  0  0  0  0  0  0
   20.7012  -17.3206  -17.1600 O   0  0  0  0  0  0  0  0  0  0  0  0
  2  1  1  0
  3  2  2  0
  4  2  1  0
  5  4  1  0
  6  5  1  0
  7  6  1  0
  8  9  1  6
  8  7  1  0
 10  8  1  0
 11 10  2  0
 12 16  1  0
 12 10  1  0
 13 12  1  0
 14 13  1  0
 14 15  1  0
 15 16  1  0
 17 19  1  0
 16 17  1  1
 18 17  2  0
 20 19  1  0
 20 25  1  0
 20 21  1  6
 22 21  1  0
 23 22  1  0
 24 23  2  0
 25 26  2  0
 25 28  1  0
 27 23  1  0
M  END
$$$$
