RPE.pdb
     RDKit          3D

 28 28  0  0  1  0  0  0  0  0999 V2000
   14.6905  -23.4943   -5.6248 N   0  0  0  0  0  0  0  0  0  0  0  0
   13.5168  -22.9786   -6.2763 C   0  0  0  0  0  0  0  0  0  0  0  0
   13.4970  -23.0423   -7.5463 N   0  0  0  0  0  0  0  0  0  0  0  0
   12.4421  -22.4270   -5.5518 N   0  0  0  0  0  0  0  0  0  0  0  0
   12.6238  -21.9983   -4.1970 C   0  0  0  0  0  0  0  0  0  0  0  0
   13.9578  -22.3527   -3.5928 C   0  0  0  0  0  0  0  0  0  0  0  0
   14.2096  -21.7422   -2.2576 C   0  0  0  0  0  0  0  0  0  0  0  0
   13.9826  -22.7712   -1.1532 C   0  0  2  0  0  0  0  0  0  0  0  0
   12.7012  -23.4250   -1.3299 N   0  0  0  0  0  0  0  0  0  0  0  0
   14.0143  -22.1306    0.1691 C   0  0  0  0  0  0  0  0  0  0  0  0
   13.4675  -20.9587    0.2033 O   0  0  0  0  0  0  0  0  0  0  0  0
   12.6977  -22.6580   -8.1128 N   0  0  0  0  0  0  0  0  0  0  0  0
   14.5381  -22.6011    1.3705 C   0  0  0  0  0  0  0  0  0  0  0  0
   14.4739  -24.0619    1.7570 C   0  0  0  0  0  0  0  0  0  0  0  0
   15.9670  -24.2981    2.0301 C   0  0  0  0  0  0  0  0  0  0  0  0
   16.5677  -22.8929    2.2991 C   0  0  2  0  0  0  0  0  0  0  0  0
   15.3060  -22.1174    2.4701 C   0  0  0  0  0  0  0  0  0  0  0  0
   15.3525  -20.7182    2.7741 O   0  0  0  0  0  0  0  0  0  0  0  0
   15.9185  -19.8979    2.0123 N   0  0  0  0  0  0  0  0  0  0  0  0
   14.7643  -20.1404    3.9601 C   0  0  1  0  0  0  0  0  0  0  0  0
   14.9216  -18.7416    4.2874 C   0  0  0  0  0  0  0  0  0  0  0  0
   13.7513  -18.3843    5.2180 C   0  0  0  0  0  0  0  0  0  0  0  0
   12.4412  -18.5157    4.5003 C   0  0  0  0  0  0  0  0  0  0  0  0
   11.3446  -18.1620    5.4288 O   0  0  0  0  0  0  0  0  0  0  0  0
   11.6243  -17.7845    6.5905 C   0  0  0  0  0  0  0  0  0  0  0  0
   16.1652  -18.4971    5.0300 O   0  0  0  0  0  0  0  0  0  0  0  0
   16.5603  -17.3766    5.4353 O   0  0  0  0  0  0  0  0  0  0  0  0
   10.0029  -18.2331    5.0577 O   0  0  0  0  0  0  0  0  0  0  0  0
  2  1  1  0
  3  2  2  0
  4  2  1  0
  5  4  1  0
  6  5  1  0
  7  6  1  0
  8  9  1  6
  8  7  1  0
 10  8  1  0
 11 10  2  0
 12 16  1  0
 12 10  1  0
 13 12  1  0
 14 13  1  0
 14 15  1  0
 15 16  1  0
 17 19  1  0
 16 17  1  6
 18 17  2  0
 20 19  1  0
 20 25  1  0
 20 21  1  1
 22 21  1  0
 23 22  1  0
 24 23  2  0
 25 26  2  0
 25 28  1  0
 27 23  1  0
M  END
$$$$
