RPE.pdb
     RDKit          3D

 28 28  0  0  1  0  0  0  0  0999 V2000
   25.1902  -16.4078  -18.1555 N   0  0  0  0  0  0  0  0  0  0  0  0
   24.8801  -15.1856  -17.4639 C   0  0  0  0  0  0  0  0  0  0  0  0
   23.9142  -14.4998  -17.9265 N   0  0  0  0  0  0  0  0  0  0  0  0
   25.6065  -14.7622  -16.3339 N   0  0  0  0  0  0  0  0  0  0  0  0
   26.4903  -15.6649  -15.6587 C   0  0  0  0  0  0  0  0  0  0  0  0
   25.8118  -16.6545  -14.7473 C   0  0  0  0  0  0  0  0  0  0  0  0
   26.7342  -17.3736  -13.8249 C   0  0  0  0  0  0  0  0  0  0  0  0
   27.0559  -18.7615  -14.3729 C   0  0  2  0  0  0  0  0  0  0  0  0
   26.5014  -18.9186  -15.7028 N   0  0  0  0  0  0  0  0  0  0  0  0
   26.5051  -19.8065  -13.4987 C   0  0  0  0  0  0  0  0  0  0  0  0
   25.2224  -19.9491  -13.5866 O   0  0  0  0  0  0  0  0  0  0  0  0
   23.6648  -13.5534  -17.5396 N   0  0  0  0  0  0  0  0  0  0  0  0
   27.1590  -20.6528  -12.6068 C   0  0  0  0  0  0  0  0  0  0  0  0
   28.2671  -21.5828  -13.0480 C   0  0  0  0  0  0  0  0  0  0  0  0
   29.3533  -21.1408  -12.0558 C   0  0  0  0  0  0  0  0  0  0  0  0
   28.5948  -20.4639  -10.8836 C   0  0  2  0  0  0  0  0  0  0  0  0
   27.2073  -20.9049  -11.2044 C   0  0  0  0  0  0  0  0  0  0  0  0
   26.1157  -20.5345  -10.3538 O   0  0  0  0  0  0  0  0  0  0  0  0
   25.9044  -19.3391  -10.0375 N   0  0  0  0  0  0  0  0  0  0  0  0
   25.1814  -21.4848   -9.7967 C   0  0  1  0  0  0  0  0  0  0  0  0
   24.2362  -21.1143   -8.7682 C   0  0  0  0  0  0  0  0  0  0  0  0
   23.0592  -22.0954   -8.8934 C   0  0  0  0  0  0  0  0  0  0  0  0
   22.0203  -21.8167   -7.8486 C   0  0  0  0  0  0  0  0  0  0  0  0
   20.8610  -22.7090   -8.0707 O   0  0  0  0  0  0  0  0  0  0  0  0
   21.0102  -23.9475   -7.9511 C   0  0  0  0  0  0  0  0  0  0  0  0
   24.8069  -21.2802   -7.4249 O   0  0  0  0  0  0  0  0  0  0  0  0
   25.7689  -22.0319   -7.1328 O   0  0  0  0  0  0  0  0  0  0  0  0
   19.6002  -22.2210   -8.4099 O   0  0  0  0  0  0  0  0  0  0  0  0
  2  1  1  0
  3  2  2  0
  4  2  1  0
  5  4  1  0
  6  5  1  0
  7  6  1  0
  8  9  1  6
  8  7  1  0
 10  8  1  0
 11 10  2  0
 12 16  1  0
 12 10  1  0
 13 12  1  0
 14 13  1  0
 14 15  1  0
 15 16  1  0
 17 19  1  0
 16 17  1  1
 18 17  2  0
 20 19  1  0
 20 25  1  0
 20 21  1  1
 22 21  1  0
 23 22  1  0
 24 23  2  0
 25 26  2  0
 25 28  1  0
 27 23  1  0
M  END
$$$$
