RPE.pdb
     RDKit          3D

 28 28  0  0  1  0  0  0  0  0999 V2000
   26.6278  -25.6908  -16.2139 N   0  0  0  0  0  0  0  0  0  0  0  0
   25.2805  -25.4105  -16.6314 C   0  0  0  0  0  0  0  0  0  0  0  0
   24.6559  -26.3556  -17.2092 N   0  0  0  0  0  0  0  0  0  0  0  0
   24.6784  -24.1552  -16.4176 N   0  0  0  0  0  0  0  0  0  0  0  0
   25.3553  -23.1447  -15.6607 C   0  0  0  0  0  0  0  0  0  0  0  0
   25.3474  -23.3573  -14.1690 C   0  0  0  0  0  0  0  0  0  0  0  0
   24.0198  -23.1519  -13.5257 C   0  0  0  0  0  0  0  0  0  0  0  0
   23.8390  -21.6861  -13.1397 C   0  0  2  0  0  0  0  0  0  0  0  0
   24.8986  -21.2671  -12.2439 N   0  0  0  0  0  0  0  0  0  0  0  0
   22.5434  -21.4784  -12.4781 C   0  0  0  0  0  0  0  0  0  0  0  0
   22.4853  -21.9386  -11.2705 O   0  0  0  0  0  0  0  0  0  0  0  0
   23.7059  -26.2166  -17.6400 N   0  0  0  0  0  0  0  0  0  0  0  0
   21.3902  -20.8632  -12.9588 C   0  0  0  0  0  0  0  0  0  0  0  0
   21.3803  -19.4214  -13.4158 C   0  0  0  0  0  0  0  0  0  0  0  0
   20.7990  -19.6255  -14.8229 C   0  0  0  0  0  0  0  0  0  0  0  0
   20.0697  -20.9943  -14.7769 C   0  0  2  0  0  0  0  0  0  0  0  0
   20.0508  -21.2106  -13.3020 C   0  0  0  0  0  0  0  0  0  0  0  0
   19.4308  -22.3782  -12.7500 O   0  0  0  0  0  0  0  0  0  0  0  0
   19.5036  -23.4934  -13.3198 N   0  0  0  0  0  0  0  0  0  0  0  0
   18.6825  -22.3747  -11.5146 C   0  0  1  0  0  0  0  0  0  0  0  0
   18.2033  -23.5956  -10.9077 C   0  0  0  0  0  0  0  0  0  0  0  0
   18.4715  -23.4594   -9.4001 C   0  0  0  0  0  0  0  0  0  0  0  0
   18.1338  -24.7319   -8.6822 C   0  0  0  0  0  0  0  0  0  0  0  0
   18.5179  -24.5999   -7.2593 O   0  0  0  0  0  0  0  0  0  0  0  0
   18.9551  -23.5018   -6.8429 C   0  0  0  0  0  0  0  0  0  0  0  0
   16.7538  -23.7541  -11.0847 O   0  0  0  0  0  0  0  0  0  0  0  0
   15.9145  -22.8206  -11.0710 O   0  0  0  0  0  0  0  0  0  0  0  0
   18.4109  -25.6578   -6.3581 O   0  0  0  0  0  0  0  0  0  0  0  0
  2  1  1  0
  3  2  2  0
  4  2  1  0
  5  4  1  0
  6  5  1  0
  7  6  1  0
  8  9  1  1
  8  7  1  0
 10  8  1  0
 11 10  2  0
 12 16  1  0
 12 10  1  0
 13 12  1  0
 14 13  1  0
 14 15  1  0
 15 16  1  0
 17 19  1  0
 16 17  1  6
 18 17  2  0
 20 19  1  0
 20 25  1  0
 20 21  1  6
 22 21  1  0
 23 22  1  0
 24 23  2  0
 25 26  2  0
 25 28  1  0
 27 23  1  0
M  END
$$$$
