RPE.pdb
     RDKit          3D

 28 28  0  0  1  0  0  0  0  0999 V2000
   22.5373  -17.8764  -17.5468 N   0  0  0  0  0  0  0  0  0  0  0  0
   21.2806  -17.2239  -17.2960 C   0  0  0  0  0  0  0  0  0  0  0  0
   20.7677  -16.5846  -18.2684 N   0  0  0  0  0  0  0  0  0  0  0  0
   20.6462  -17.2829  -16.0398 N   0  0  0  0  0  0  0  0  0  0  0  0
   20.6613  -18.4940  -15.2749 C   0  0  0  0  0  0  0  0  0  0  0  0
   21.7938  -19.4340  -15.5972 C   0  0  0  0  0  0  0  0  0  0  0  0
   21.7486  -20.7271  -14.8592 C   0  0  0  0  0  0  0  0  0  0  0  0
   22.9200  -20.8226  -13.8852 C   0  0  2  0  0  0  0  0  0  0  0  0
   24.0554  -21.4578  -14.5242 N   0  0  0  0  0  0  0  0  0  0  0  0
   22.5451  -21.5989  -12.6950 C   0  0  0  0  0  0  0  0  0  0  0  0
   22.0785  -22.7768  -12.9562 O   0  0  0  0  0  0  0  0  0  0  0  0
   19.8588  -16.0621  -18.1766 N   0  0  0  0  0  0  0  0  0  0  0  0
   22.6233  -21.2520  -11.3486 C   0  0  0  0  0  0  0  0  0  0  0  0
   23.8771  -20.6610  -10.7433 C   0  0  0  0  0  0  0  0  0  0  0  0
   23.2652  -19.3939  -10.1272 C   0  0  0  0  0  0  0  0  0  0  0  0
   21.7500  -19.6936   -9.9792 C   0  0  2  0  0  0  0  0  0  0  0  0
   21.7694  -21.1663  -10.2102 C   0  0  0  0  0  0  0  0  0  0  0  0
   20.5560  -21.9250  -10.1438 O   0  0  0  0  0  0  0  0  0  0  0  0
   19.6887  -21.8591  -11.0477 N   0  0  0  0  0  0  0  0  0  0  0  0
   20.2306  -22.8140   -9.0529 C   0  0  2  0  0  0  0  0  0  0  0  0
   18.9701  -23.5181   -8.9907 C   0  0  0  0  0  0  0  0  0  0  0  0
   18.9316  -24.2087   -7.6178 C   0  0  0  0  0  0  0  0  0  0  0  0
   17.6119  -24.8867   -7.3997 C   0  0  0  0  0  0  0  0  0  0  0  0
   17.6414  -25.5935   -6.1000 O   0  0  0  0  0  0  0  0  0  0  0  0
   18.6975  -25.5901   -5.4254 C   0  0  0  0  0  0  0  0  0  0  0  0
   17.8309  -22.5927   -9.0504 O   0  0  0  0  0  0  0  0  0  0  0  0
   16.6498  -22.9125   -9.3308 O   0  0  0  0  0  0  0  0  0  0  0  0
   16.5313  -26.2675   -5.5938 O   0  0  0  0  0  0  0  0  0  0  0  0
  2  1  1  0
  3  2  2  0
  4  2  1  0
  5  4  1  0
  6  5  1  0
  7  6  1  0
  8  9  1  6
  8  7  1  0
 10  8  1  0
 11 10  2  0
 12 16  1  0
 12 10  1  0
 13 12  1  0
 14 13  1  0
 14 15  1  0
 15 16  1  0
 17 19  1  0
 16 17  1  1
 18 17  2  0
 20 19  1  0
 20 25  1  0
 20 21  1  1
 22 21  1  0
 23 22  1  0
 24 23  2  0
 25 26  2  0
 25 28  1  0
 27 23  1  0
M  END
$$$$
