RPE.pdb
     RDKit          3D

 28 28  0  0  1  0  0  0  0  0999 V2000
   22.7789  -21.1593   -6.4782 N   0  0  0  0  0  0  0  0  0  0  0  0
   21.8039  -21.5294   -7.4684 C   0  0  0  0  0  0  0  0  0  0  0  0
   20.9098  -22.3573   -7.1045 N   0  0  0  0  0  0  0  0  0  0  0  0
   21.8334  -21.0082   -8.7766 N   0  0  0  0  0  0  0  0  0  0  0  0
   23.0713  -20.9078   -9.4905 C   0  0  0  0  0  0  0  0  0  0  0  0
   23.6337  -22.2196   -9.9732 C   0  0  0  0  0  0  0  0  0  0  0  0
   24.3438  -22.1405  -11.2801 C   0  0  0  0  0  0  0  0  0  0  0  0
   25.4601  -21.1014  -11.2146 C   0  0  2  0  0  0  0  0  0  0  0  0
   25.2894  -20.2517  -10.0529 N   0  0  0  0  0  0  0  0  0  0  0  0
   25.4635  -20.2647  -12.4227 C   0  0  0  0  0  0  0  0  0  0  0  0
   24.3299  -19.6952  -12.6759 O   0  0  0  0  0  0  0  0  0  0  0  0
   20.1845  -22.7260   -7.7719 N   0  0  0  0  0  0  0  0  0  0  0  0
   26.4985  -20.0003  -13.3160 C   0  0  0  0  0  0  0  0  0  0  0  0
   27.8236  -19.4288  -12.8631 C   0  0  0  0  0  0  0  0  0  0  0  0
   28.7553  -20.4913  -13.4650 C   0  0  0  0  0  0  0  0  0  0  0  0
   27.9349  -21.1736  -14.5915 C   0  0  2  0  0  0  0  0  0  0  0  0
   26.8072  -20.2037  -14.6930 C   0  0  0  0  0  0  0  0  0  0  0  0
   25.7664  -20.4027  -15.6570 O   0  0  0  0  0  0  0  0  0  0  0  0
   25.6944  -21.4523  -16.3402 N   0  0  0  0  0  0  0  0  0  0  0  0
   24.7297  -19.4326  -15.9223 C   0  0  1  0  0  0  0  0  0  0  0  0
   23.6488  -19.7016  -16.8431 C   0  0  0  0  0  0  0  0  0  0  0  0
   22.4322  -18.9237  -16.3156 C   0  0  0  0  0  0  0  0  0  0  0  0
   22.2427  -17.6484  -17.0813 C   0  0  0  0  0  0  0  0  0  0  0  0
   20.8886  -17.1181  -16.8082 O   0  0  0  0  0  0  0  0  0  0  0  0
   20.1586  -17.7038  -15.9749 C   0  0  0  0  0  0  0  0  0  0  0  0
   23.9465  -19.1937  -18.1888 O   0  0  0  0  0  0  0  0  0  0  0  0
   23.3273  -19.5048  -19.2355 O   0  0  0  0  0  0  0  0  0  0  0  0
   20.3906  -15.9836  -17.4468 O   0  0  0  0  0  0  0  0  0  0  0  0
  2  1  1  0
  3  2  2  0
  4  2  1  0
  5  4  1  0
  6  5  1  0
  7  6  1  0
  8  9  1  1
  8  7  1  0
 10  8  1  0
 11 10  2  0
 12 16  1  0
 12 10  1  0
 13 12  1  0
 14 13  1  0
 14 15  1  0
 15 16  1  0
 17 19  1  0
 16 17  1  1
 18 17  2  0
 20 19  1  0
 20 25  1  0
 20 21  1  6
 22 21  1  0
 23 22  1  0
 24 23  2  0
 25 26  2  0
 25 28  1  0
 27 23  1  0
M  END
$$$$
