RPE.pdb
     RDKit          3D

 28 28  0  0  1  0  0  0  0  0999 V2000
   28.9506  -28.2854  -16.9737 N   0  0  0  0  0  0  0  0  0  0  0  0
   27.7055  -28.3920  -17.6853 C   0  0  0  0  0  0  0  0  0  0  0  0
   26.9468  -29.3601  -17.3621 N   0  0  0  0  0  0  0  0  0  0  0  0
   27.3399  -27.4768  -18.6917 N   0  0  0  0  0  0  0  0  0  0  0  0
   27.9041  -26.1603  -18.7157 C   0  0  0  0  0  0  0  0  0  0  0  0
   27.0960  -25.1104  -17.9982 C   0  0  0  0  0  0  0  0  0  0  0  0
   27.6307  -23.7264  -18.1300 C   0  0  0  0  0  0  0  0  0  0  0  0
   28.0806  -23.2005  -16.7695 C   0  0  2  0  0  0  0  0  0  0  0  0
   28.2822  -24.2996  -15.8464 N   0  0  0  0  0  0  0  0  0  0  0  0
   27.0786  -22.2830  -16.2091 C   0  0  0  0  0  0  0  0  0  0  0  0
   25.9395  -22.8379  -15.9482 O   0  0  0  0  0  0  0  0  0  0  0  0
   26.0417  -29.5525  -17.8634 N   0  0  0  0  0  0  0  0  0  0  0  0
   27.1822  -20.9245  -15.9212 C   0  0  0  0  0  0  0  0  0  0  0  0
   28.3737  -20.3474  -15.1898 C   0  0  0  0  0  0  0  0  0  0  0  0
   28.7691  -19.2637  -16.2041 C   0  0  0  0  0  0  0  0  0  0  0  0
   27.4961  -19.0039  -17.0524 C   0  0  2  0  0  0  0  0  0  0  0  0
   26.4917  -19.7103  -16.2068 C   0  0  0  0  0  0  0  0  0  0  0  0
   25.1096  -19.7228  -16.5836 O   0  0  0  0  0  0  0  0  0  0  0  0
   24.7144  -20.3167  -17.6154 N   0  0  0  0  0  0  0  0  0  0  0  0
   24.0707  -19.0663  -15.8247 C   0  0  1  0  0  0  0  0  0  0  0  0
   22.6781  -19.1541  -16.2005 C   0  0  0  0  0  0  0  0  0  0  0  0
   21.8804  -19.1896  -14.8868 C   0  0  0  0  0  0  0  0  0  0  0  0
   22.0974  -20.4871  -14.1671 C   0  0  0  0  0  0  0  0  0  0  0  0
   21.2446  -20.5169  -12.9582 O   0  0  0  0  0  0  0  0  0  0  0  0
   20.0398  -20.1851  -13.0509 C   0  0  0  0  0  0  0  0  0  0  0  0
   22.2442  -17.9659  -16.9473 O   0  0  0  0  0  0  0  0  0  0  0  0
   22.8876  -16.8919  -17.0400 O   0  0  0  0  0  0  0  0  0  0  0  0
   21.7339  -20.9031  -11.7115 O   0  0  0  0  0  0  0  0  0  0  0  0
  2  1  1  0
  3  2  2  0
  4  2  1  0
  5  4  1  0
  6  5  1  0
  7  6  1  0
  8  9  1  1
  8  7  1  0
 10  8  1  0
 11 10  2  0
 12 16  1  0
 12 10  1  0
 13 12  1  0
 14 13  1  0
 14 15  1  0
 15 16  1  0
 17 19  1  0
 16 17  1  6
 18 17  2  0
 20 19  1  0
 20 25  1  0
 20 21  1  6
 22 21  1  0
 23 22  1  0
 24 23  2  0
 25 26  2  0
 25 28  1  0
 27 23  1  0
M  END
$$$$
