RPE.pdb
     RDKit          3D

 28 28  0  0  1  0  0  0  0  0999 V2000
   18.8232  -14.3951  -22.0599 N   0  0  0  0  0  0  0  0  0  0  0  0
   18.2936  -15.7247  -21.9197 C   0  0  0  0  0  0  0  0  0  0  0  0
   17.0995  -15.9062  -22.3178 N   0  0  0  0  0  0  0  0  0  0  0  0
   19.0514  -16.7759  -21.3677 N   0  0  0  0  0  0  0  0  0  0  0  0
   20.2193  -16.4968  -20.5866 C   0  0  0  0  0  0  0  0  0  0  0  0
   21.5158  -16.9673  -21.1931 C   0  0  0  0  0  0  0  0  0  0  0  0
   22.1204  -18.1467  -20.5133 C   0  0  0  0  0  0  0  0  0  0  0  0
   22.8811  -17.7066  -19.2652 C   0  0  2  0  0  0  0  0  0  0  0  0
   24.1609  -18.3828  -19.1912 N   0  0  0  0  0  0  0  0  0  0  0  0
   22.1093  -18.0095  -18.0518 C   0  0  0  0  0  0  0  0  0  0  0  0
   21.5550  -19.1784  -18.0544 O   0  0  0  0  0  0  0  0  0  0  0  0
   16.6474  -16.8565  -22.3145 N   0  0  0  0  0  0  0  0  0  0  0  0
   21.8973  -17.2299  -16.9175 C   0  0  0  0  0  0  0  0  0  0  0  0
   23.0107  -16.4399  -16.2667 C   0  0  0  0  0  0  0  0  0  0  0  0
   22.3462  -15.0550  -16.2661 C   0  0  0  0  0  0  0  0  0  0  0  0
   20.8229  -15.3248  -16.3858 C   0  0  2  0  0  0  0  0  0  0  0  0
   20.8121  -16.7889  -16.1048 C   0  0  0  0  0  0  0  0  0  0  0  0
   19.5752  -17.5110  -16.0767 O   0  0  0  0  0  0  0  0  0  0  0  0
   18.8422  -17.6001  -17.0908 N   0  0  0  0  0  0  0  0  0  0  0  0
   19.0729  -18.1859  -14.9025 C   0  0  1  0  0  0  0  0  0  0  0  0
   17.8601  -18.9713  -14.9326 C   0  0  0  0  0  0  0  0  0  0  0  0
   18.2206  -20.3405  -14.3336 C   0  0  0  0  0  0  0  0  0  0  0  0
   17.0319  -21.2545  -14.3411 C   0  0  0  0  0  0  0  0  0  0  0  0
   17.4066  -22.5284  -14.9941 O   0  0  0  0  0  0  0  0  0  0  0  0
   18.6035  -22.7259  -15.3085 C   0  0  0  0  0  0  0  0  0  0  0  0
   16.8139  -18.3820  -14.0865 O   0  0  0  0  0  0  0  0  0  0  0  0
   17.0011  -17.5131  -13.2001 O   0  0  0  0  0  0  0  0  0  0  0  0
   16.4725  -23.5242  -15.2746 O   0  0  0  0  0  0  0  0  0  0  0  0
  2  1  1  0
  3  2  2  0
  4  2  1  0
  5  4  1  0
  6  5  1  0
  7  6  1  0
  8  9  1  1
  8  7  1  0
 10  8  1  0
 11 10  2  0
 12 16  1  0
 12 10  1  0
 13 12  1  0
 14 13  1  0
 14 15  1  0
 15 16  1  0
 17 19  1  0
 16 17  1  6
 18 17  2  0
 20 19  1  0
 20 25  1  0
 20 21  1  1
 22 21  1  0
 23 22  1  0
 24 23  2  0
 25 26  2  0
 25 28  1  0
 27 23  1  0
M  END
$$$$
