RPE.pdb
     RDKit          3D

 28 28  0  0  1  0  0  0  0  0999 V2000
   19.2340  -22.1972   -8.7535 N   0  0  0  0  0  0  0  0  0  0  0  0
   20.0651  -22.5899   -7.6476 C   0  0  0  0  0  0  0  0  0  0  0  0
   19.5628  -23.4199   -6.8253 N   0  0  0  0  0  0  0  0  0  0  0  0
   21.3681  -22.0831   -7.4759 N   0  0  0  0  0  0  0  0  0  0  0  0
   21.9395  -21.2036   -8.4516 C   0  0  0  0  0  0  0  0  0  0  0  0
   23.3849  -20.8486   -8.2168 C   0  0  0  0  0  0  0  0  0  0  0  0
   24.3550  -21.6902   -8.9713 C   0  0  0  0  0  0  0  0  0  0  0  0
   25.3792  -20.8097   -9.6826 C   0  0  2  0  0  0  0  0  0  0  0  0
   25.7534  -19.6914   -8.8399 N   0  0  0  0  0  0  0  0  0  0  0  0
   24.8340  -20.2946  -10.9464 C   0  0  0  0  0  0  0  0  0  0  0  0
   23.7559  -19.5925  -10.8112 O   0  0  0  0  0  0  0  0  0  0  0  0
   20.0909  -23.7592   -5.9806 N   0  0  0  0  0  0  0  0  0  0  0  0
   25.3084  -20.4506  -12.2463 C   0  0  0  0  0  0  0  0  0  0  0  0
   26.7870  -20.5011  -12.5607 C   0  0  0  0  0  0  0  0  0  0  0  0
   26.8180  -21.8307  -13.3293 C   0  0  0  0  0  0  0  0  0  0  0  0
   25.3627  -22.0643  -13.8146 C   0  0  2  0  0  0  0  0  0  0  0  0
   24.7981  -20.7097  -13.5521 C   0  0  0  0  0  0  0  0  0  0  0  0
   23.4338  -20.4191  -13.8782 O   0  0  0  0  0  0  0  0  0  0  0  0
   22.4837  -21.0495  -13.3553 N   0  0  0  0  0  0  0  0  0  0  0  0
   23.0397  -19.3960  -14.8186 C   0  0  1  0  0  0  0  0  0  0  0  0
   21.6513  -19.0889  -15.0766 C   0  0  0  0  0  0  0  0  0  0  0  0
   21.6396  -17.7369  -15.8084 C   0  0  0  0  0  0  0  0  0  0  0  0
   20.2356  -17.3117  -16.1189 C   0  0  0  0  0  0  0  0  0  0  0  0
   20.2702  -16.0134  -16.8280 O   0  0  0  0  0  0  0  0  0  0  0  0
   21.1658  -15.8048  -17.6793 C   0  0  0  0  0  0  0  0  0  0  0  0
   21.0362  -20.0789  -15.9705 O   0  0  0  0  0  0  0  0  0  0  0  0
   21.6521  -20.7813  -16.8092 O   0  0  0  0  0  0  0  0  0  0  0  0
   19.3376  -15.0067  -16.5837 O   0  0  0  0  0  0  0  0  0  0  0  0
  2  1  1  0
  3  2  2  0
  4  2  1  0
  5  4  1  0
  6  5  1  0
  7  6  1  0
  8  9  1  1
  8  7  1  0
 10  8  1  0
 11 10  2  0
 12 16  1  0
 12 10  1  0
 13 12  1  0
 14 13  1  0
 14 15  1  0
 15 16  1  0
 17 19  1  0
 16 17  1  6
 18 17  2  0
 20 19  1  0
 20 25  1  0
 20 21  1  6
 22 21  1  0
 23 22  1  0
 24 23  2  0
 25 26  2  0
 25 28  1  0
 27 23  1  0
M  END
$$$$
