RPE.pdb
     RDKit          3D

 28 28  0  0  1  0  0  0  0  0999 V2000
   10.6207  -18.4656   -0.9180 N   0  0  0  0  0  0  0  0  0  0  0  0
   11.0413  -19.0245   -2.1745 C   0  0  0  0  0  0  0  0  0  0  0  0
   11.1224  -18.2201   -3.1561 N   0  0  0  0  0  0  0  0  0  0  0  0
   11.3464  -20.3921   -2.3186 N   0  0  0  0  0  0  0  0  0  0  0  0
   10.7912  -21.3587   -1.4188 C   0  0  0  0  0  0  0  0  0  0  0  0
   11.8044  -22.1465   -0.6297 C   0  0  0  0  0  0  0  0  0  0  0  0
   12.7955  -22.8825   -1.4631 C   0  0  0  0  0  0  0  0  0  0  0  0
   14.1779  -22.2500   -1.3249 C   0  0  2  0  0  0  0  0  0  0  0  0
   15.0483  -22.7042   -2.3912 N   0  0  0  0  0  0  0  0  0  0  0  0
   14.7830  -22.5995   -0.0321 C   0  0  0  0  0  0  0  0  0  0  0  0
   14.5893  -23.8265    0.3291 O   0  0  0  0  0  0  0  0  0  0  0  0
   11.4956  -18.5182   -4.0938 N   0  0  0  0  0  0  0  0  0  0  0  0
   15.5258  -21.8101    0.8422 C   0  0  0  0  0  0  0  0  0  0  0  0
   16.2767  -20.5831    0.3752 C   0  0  0  0  0  0  0  0  0  0  0  0
   15.6815  -19.5580    1.3520 C   0  0  0  0  0  0  0  0  0  0  0  0
   15.1319  -20.3882    2.5421 C   0  0  2  0  0  0  0  0  0  0  0  0
   15.7746  -21.6994    2.2417 C   0  0  0  0  0  0  0  0  0  0  0  0
   15.5764  -22.8188    3.1134 O   0  0  0  0  0  0  0  0  0  0  0  0
   14.4596  -23.3800    3.2199 N   0  0  0  0  0  0  0  0  0  0  0  0
   16.6230  -23.3881    3.9300 C   0  0  1  0  0  0  0  0  0  0  0  0
   16.3398  -24.3335    4.9857 C   0  0  0  0  0  0  0  0  0  0  0  0
   17.7027  -24.7758    5.5427 C   0  0  0  0  0  0  0  0  0  0  0  0
   17.5294  -25.8065    6.6179 C   0  0  0  0  0  0  0  0  0  0  0  0
   18.8622  -26.2148    7.1145 O   0  0  0  0  0  0  0  0  0  0  0  0
   19.8834  -25.6417    6.6683 C   0  0  0  0  0  0  0  0  0  0  0  0
   15.5963  -23.7070    6.0868 O   0  0  0  0  0  0  0  0  0  0  0  0
   15.6865  -22.5031    6.4309 O   0  0  0  0  0  0  0  0  0  0  0  0
   19.0262  -27.2195    8.0666 O   0  0  0  0  0  0  0  0  0  0  0  0
  2  1  1  0
  3  2  2  0
  4  2  1  0
  5  4  1  0
  6  5  1  0
  7  6  1  0
  8  9  1  6
  8  7  1  0
 10  8  1  0
 11 10  2  0
 12 16  1  0
 12 10  1  0
 13 12  1  0
 14 13  1  0
 14 15  1  0
 15 16  1  0
 17 19  1  0
 16 17  1  1
 18 17  2  0
 20 19  1  0
 20 25  1  0
 20 21  1  1
 22 21  1  0
 23 22  1  0
 24 23  2  0
 25 26  2  0
 25 28  1  0
 27 23  1  0
M  END
$$$$
