NHW.pdb
     RDKit          3D

 33 35  0  0  1  0  0  0  0  0999 V2000
    8.5806  -14.8584   17.9070 N   0  0  0  0  0  0  0  0  0  0  0  0
    7.5250  -15.7538   18.3154 C   0  0  0  0  0  0  0  0  0  0  0  0
    6.6425  -16.0665   17.5044 O   0  0  0  0  0  0  0  0  0  0  0  0
    7.5539  -16.2528   19.6881 C   0  0  0  0  0  0  0  0  0  0  0  0
    8.6437  -15.6638   20.5054 C   0  0  2  0  0  0  0  0  0  0  0  0
    9.8808  -15.4524   19.8130 N   0  0  0  0  0  0  0  0  0  0  0  0
    8.8395  -16.3685   21.8192 C   0  0  0  0  0  0  0  0  0  0  0  0
    7.8839  -16.6256   22.5677 O   0  0  0  0  0  0  0  0  0  0  0  0
   10.1487  -16.7345   22.1862 N   0  0  0  0  0  0  0  0  0  0  0  0
   10.5612  -17.4515   23.3388 C   0  0  1  0  0  0  0  0  0  0  0  0
   11.7440  -18.3787   23.1650 C   0  0  0  0  0  0  0  0  0  0  0  0
   11.5081  -19.4385   22.1487 C   0  0  0  0  0  0  0  0  0  0  0  0
   10.5088  -20.3964   22.0817 C   0  0  0  0  0  0  0  0  0  0  0  0
   10.7593  -21.1539   21.0067 N   0  0  0  0  0  0  0  0  0  0  0  0
   11.8625  -20.7217   20.3958 C   0  0  0  0  0  0  0  0  0  0  0  0
   12.3151  -19.6802   21.0911 N   0  0  0  0  0  0  0  0  0  0  0  0
   10.6103  -16.7221   24.6000 C   0  0  0  0  0  0  0  0  0  0  0  0
   11.3569  -15.7015   24.7845 O   0  0  0  0  0  0  0  0  0  0  0  0
    9.8203  -17.1167   25.6907 N   0  0  0  0  0  0  0  0  0  0  0  0
    9.9515  -16.4154   26.9691 C   0  0  1  0  0  0  0  0  0  0  0  0
    8.5364  -16.2051   27.4384 C   0  0  0  0  0  0  0  0  0  0  0  0
    7.6848  -15.3635   26.5925 C   0  0  0  0  0  0  0  0  0  0  0  0
    6.7956  -15.8434   25.6424 C   0  0  0  0  0  0  0  0  0  0  0  0
    6.2357  -14.7953   25.0548 N   0  0  0  0  0  0  0  0  0  0  0  0
    6.7145  -13.6651   25.5742 C   0  0  0  0  0  0  0  0  0  0  0  0
    6.4455  -12.3232   25.3249 C   0  0  0  0  0  0  0  0  0  0  0  0
    7.0736  -11.3193   26.0296 C   0  0  0  0  0  0  0  0  0  0  0  0
    7.9985  -11.6295   27.0143 C   0  0  0  0  0  0  0  0  0  0  0  0
    8.2454  -12.9710   27.2388 C   0  0  0  0  0  0  0  0  0  0  0  0
    7.6206  -13.9843   26.5366 C   0  0  0  0  0  0  0  0  0  0  0  0
   10.7360  -17.1545   27.9495 C   0  0  0  0  0  0  0  0  0  0  0  0
   11.1019  -18.3250   27.7148 O   0  0  0  0  0  0  0  0  0  0  0  0
   11.0950  -16.5790   29.1481 O   0  0  0  0  0  0  0  0  0  0  0  0
  2  1  1  0
  3  2  2  0
  4  2  1  0
  5  4  1  0
  5  6  1  6
  7  5  1  0
  7  8  2  0
  9  7  1  0
 10  9  1  0
 10 11  1  6
 11 12  1  0
 12 16  1  0
 12 13  2  0
 13 14  1  0
 15 14  1  0
 16 15  2  0
 17 10  1  0
 18 17  2  0
 19 17  1  0
 20 21  1  1
 20 19  1  0
 21 22  1  0
 22 30  1  0
 23 24  1  0
 23 22  2  0
 24 25  1  0
 25 30  2  0
 25 26  1  0
 26 27  2  0
 27 28  1  0
 29 28  2  0
 30 29  1  0
 31 20  1  0
 31 33  1  0
 32 31  2  0
M  END
$$$$
