NHW.pdb
     RDKit          3D

 33 35  0  0  1  0  0  0  0  0999 V2000
   12.6742  -20.0234   18.9796 N   0  0  0  0  0  0  0  0  0  0  0  0
   12.7210  -18.6769   18.4622 C   0  0  0  0  0  0  0  0  0  0  0  0
   13.6172  -18.3594   17.6684 O   0  0  0  0  0  0  0  0  0  0  0  0
   11.6904  -17.7435   18.9101 C   0  0  0  0  0  0  0  0  0  0  0  0
   11.3124  -17.9232   20.3340 C   0  0  2  0  0  0  0  0  0  0  0  0
   10.3366  -18.9432   20.5830 N   0  0  0  0  0  0  0  0  0  0  0  0
   10.9712  -16.6291   21.0193 C   0  0  0  0  0  0  0  0  0  0  0  0
   11.8259  -15.7505   21.2121 O   0  0  0  0  0  0  0  0  0  0  0  0
    9.6427  -16.4340   21.4434 N   0  0  0  0  0  0  0  0  0  0  0  0
    9.1037  -15.3156   22.1301 C   0  0  1  0  0  0  0  0  0  0  0  0
    7.7830  -14.7853   21.6168 C   0  0  0  0  0  0  0  0  0  0  0  0
    7.8201  -14.4305   20.1731 C   0  0  0  0  0  0  0  0  0  0  0  0
    8.8863  -14.4278   19.2876 C   0  0  0  0  0  0  0  0  0  0  0  0
    8.4237  -13.9795   18.1140 N   0  0  0  0  0  0  0  0  0  0  0  0
    7.1241  -13.7013   18.2164 C   0  0  0  0  0  0  0  0  0  0  0  0
    6.7602  -13.9760   19.4675 N   0  0  0  0  0  0  0  0  0  0  0  0
    9.1662  -15.3295   23.5864 C   0  0  0  0  0  0  0  0  0  0  0  0
    8.5501  -14.4810   24.3170 O   0  0  0  0  0  0  0  0  0  0  0  0
    9.9210  -16.2985   24.2651 N   0  0  0  0  0  0  0  0  0  0  0  0
    9.9971  -16.2620   25.7267 C   0  0  1  0  0  0  0  0  0  0  0  0
    8.5978  -16.5670   26.1915 C   0  0  0  0  0  0  0  0  0  0  0  0
    7.6209  -15.4792   26.0838 C   0  0  0  0  0  0  0  0  0  0  0  0
    6.3590  -15.6043   25.5220 C   0  0  0  0  0  0  0  0  0  0  0  0
    5.7822  -14.4117   25.5673 N   0  0  0  0  0  0  0  0  0  0  0  0
    6.6027  -13.5237   26.1281 C   0  0  0  0  0  0  0  0  0  0  0  0
    6.4715  -12.1698   26.4200 C   0  0  0  0  0  0  0  0  0  0  0  0
    7.4817  -11.4646   27.0374 C   0  0  0  0  0  0  0  0  0  0  0  0
    8.6648  -12.0975   27.3850 C   0  0  0  0  0  0  0  0  0  0  0  0
    8.7661  -13.4424   27.0817 C   0  0  0  0  0  0  0  0  0  0  0  0
    7.7585  -14.1574   26.4623 C   0  0  0  0  0  0  0  0  0  0  0  0
   10.9606  -17.2082   26.2736 C   0  0  0  0  0  0  0  0  0  0  0  0
   11.6103  -17.9588   25.5162 O   0  0  0  0  0  0  0  0  0  0  0  0
   11.1795  -17.2909   27.6308 O   0  0  0  0  0  0  0  0  0  0  0  0
  2  1  1  0
  3  2  2  0
  4  2  1  0
  5  4  1  0
  5  6  1  6
  7  5  1  0
  7  8  2  0
  9  7  1  0
 10  9  1  0
 10 11  1  1
 11 12  1  0
 12 16  1  0
 12 13  2  0
 13 14  1  0
 15 14  1  0
 16 15  2  0
 17 10  1  0
 18 17  2  0
 19 17  1  0
 20 21  1  1
 20 19  1  0
 21 22  1  0
 22 30  1  0
 23 24  1  0
 23 22  2  0
 24 25  1  0
 25 30  2  0
 25 26  1  0
 26 27  2  0
 27 28  1  0
 29 28  2  0
 30 29  1  0
 31 20  1  0
 31 33  1  0
 32 31  2  0
M  END
$$$$
