NHW.pdb
     RDKit          3D

 33 35  0  0  1  0  0  0  0  0999 V2000
   11.7195  -20.6407   18.1571 N   0  0  0  0  0  0  0  0  0  0  0  0
   12.8620  -19.9177   18.6621 C   0  0  0  0  0  0  0  0  0  0  0  0
   13.9944  -20.2000   18.2472 O   0  0  0  0  0  0  0  0  0  0  0  0
   12.6177  -18.8729   19.6535 C   0  0  0  0  0  0  0  0  0  0  0  0
   11.7352  -17.7871   19.1588 C   0  0  2  0  0  0  0  0  0  0  0  0
   12.1672  -17.1524   17.9484 N   0  0  0  0  0  0  0  0  0  0  0  0
   11.3734  -16.7917   20.2261 C   0  0  0  0  0  0  0  0  0  0  0  0
   12.2190  -16.0261   20.7146 O   0  0  0  0  0  0  0  0  0  0  0  0
   10.0362  -16.7474   20.6650 N   0  0  0  0  0  0  0  0  0  0  0  0
    9.4922  -15.9722   21.7214 C   0  0  1  0  0  0  0  0  0  0  0  0
    8.1123  -15.3967   21.4900 C   0  0  0  0  0  0  0  0  0  0  0  0
    8.0060  -14.6334   20.2182 C   0  0  0  0  0  0  0  0  0  0  0  0
    8.3382  -13.3161   19.9439 C   0  0  0  0  0  0  0  0  0  0  0  0
    8.0075  -13.0829   18.6678 N   0  0  0  0  0  0  0  0  0  0  0  0
    7.4859  -14.1841   18.1271 C   0  0  0  0  0  0  0  0  0  0  0  0
    7.4861  -15.1238   19.0704 N   0  0  0  0  0  0  0  0  0  0  0  0
    9.6611  -16.4766   23.0786 C   0  0  0  0  0  0  0  0  0  0  0  0
    9.6659  -17.7228   23.3618 O   0  0  0  0  0  0  0  0  0  0  0  0
    9.8318  -15.5957   24.1576 N   0  0  0  0  0  0  0  0  0  0  0  0
   10.0910  -16.1326   25.4948 C   0  0  1  0  0  0  0  0  0  0  0  0
    9.6631  -15.0389   26.4370 C   0  0  0  0  0  0  0  0  0  0  0  0
    8.2450  -14.6684   26.4085 C   0  0  0  0  0  0  0  0  0  0  0  0
    7.2024  -15.5535   26.1777 C   0  0  0  0  0  0  0  0  0  0  0  0
    6.0760  -14.8547   26.1891 N   0  0  0  0  0  0  0  0  0  0  0  0
    6.3346  -13.5670   26.4152 C   0  0  0  0  0  0  0  0  0  0  0  0
    5.5180  -12.4474   26.5382 C   0  0  0  0  0  0  0  0  0  0  0  0
    6.0406  -11.1996   26.8002 C   0  0  0  0  0  0  0  0  0  0  0  0
    7.4084  -11.0314   26.9485 C   0  0  0  0  0  0  0  0  0  0  0  0
    8.1940  -12.1617   26.8201 C   0  0  0  0  0  0  0  0  0  0  0  0
    7.6786  -13.4168   26.5570 C   0  0  0  0  0  0  0  0  0  0  0  0
    9.3795  -17.3761   25.7601 C   0  0  0  0  0  0  0  0  0  0  0  0
    8.3881  -17.6972   25.0721 O   0  0  0  0  0  0  0  0  0  0  0  0
    9.7865  -18.2237   26.7665 O   0  0  0  0  0  0  0  0  0  0  0  0
  2  1  1  0
  3  2  2  0
  4  2  1  0
  5  4  1  0
  5  6  1  6
  7  5  1  0
  7  8  2  0
  9  7  1  0
 10  9  1  0
 10 11  1  6
 11 12  1  0
 12 16  1  0
 12 13  2  0
 13 14  1  0
 15 14  1  0
 16 15  2  0
 17 10  1  0
 18 17  2  0
 19 17  1  0
 20 21  1  1
 20 19  1  0
 21 22  1  0
 22 30  1  0
 23 24  1  0
 23 22  2  0
 24 25  1  0
 25 30  2  0
 25 26  1  0
 26 27  2  0
 27 28  1  0
 29 28  2  0
 30 29  1  0
 31 20  1  0
 31 33  1  0
 32 31  2  0
M  END
$$$$
