NHW.pdb
     RDKit          3D

 33 35  0  0  1  0  0  0  0  0999 V2000
    8.7740  -12.6894   17.5586 N   0  0  0  0  0  0  0  0  0  0  0  0
    7.6912  -13.6435   17.5421 C   0  0  0  0  0  0  0  0  0  0  0  0
    6.8838  -13.6335   16.6027 O   0  0  0  0  0  0  0  0  0  0  0  0
    7.6033  -14.5870   18.6539 C   0  0  0  0  0  0  0  0  0  0  0  0
    8.5387  -14.2773   19.7638 C   0  0  2  0  0  0  0  0  0  0  0  0
    9.8927  -14.0224   19.3685 N   0  0  0  0  0  0  0  0  0  0  0  0
    8.4519  -15.2614   20.8973 C   0  0  0  0  0  0  0  0  0  0  0  0
    7.3618  -15.5912   21.3898 O   0  0  0  0  0  0  0  0  0  0  0  0
    9.6510  -15.8072   21.3943 N   0  0  0  0  0  0  0  0  0  0  0  0
    9.8061  -16.7966   22.3992 C   0  0  1  0  0  0  0  0  0  0  0  0
   10.6086  -18.0210   22.0176 C   0  0  0  0  0  0  0  0  0  0  0  0
    9.9586  -18.8351   20.9563 C   0  0  0  0  0  0  0  0  0  0  0  0
    8.6367  -19.2311   20.8269 C   0  0  0  0  0  0  0  0  0  0  0  0
    8.5592  -19.9965   19.7312 N   0  0  0  0  0  0  0  0  0  0  0  0
    9.7622  -20.1012   19.1665 C   0  0  0  0  0  0  0  0  0  0  0  0
   10.6099  -19.3953   19.9122 N   0  0  0  0  0  0  0  0  0  0  0  0
   10.1044  -16.3384   23.7505 C   0  0  0  0  0  0  0  0  0  0  0  0
   11.0445  -15.5136   24.0136 O   0  0  0  0  0  0  0  0  0  0  0  0
    9.3537  -16.7917   24.8462 N   0  0  0  0  0  0  0  0  0  0  0  0
    9.7465  -16.4025   26.2018 C   0  0  1  0  0  0  0  0  0  0  0  0
    8.4482  -16.2547   26.9499 C   0  0  0  0  0  0  0  0  0  0  0  0
    7.4824  -15.2978   26.4017 C   0  0  0  0  0  0  0  0  0  0  0  0
    6.4051  -15.6370   25.5967 C   0  0  0  0  0  0  0  0  0  0  0  0
    5.7842  -14.5132   25.2667 N   0  0  0  0  0  0  0  0  0  0  0  0
    6.4016  -13.4672   25.8153 C   0  0  0  0  0  0  0  0  0  0  0  0
    6.1443  -12.1002   25.7922 C   0  0  0  0  0  0  0  0  0  0  0  0
    6.9392  -11.2057   26.4754 C   0  0  0  0  0  0  0  0  0  0  0  0
    8.0258  -11.6548   27.2094 C   0  0  0  0  0  0  0  0  0  0  0  0
    8.2566  -13.0178   27.2128 C   0  0  0  0  0  0  0  0  0  0  0  0
    7.4651  -13.9220   26.5303 C   0  0  0  0  0  0  0  0  0  0  0  0
   10.6262  -17.3707   26.8431 C   0  0  0  0  0  0  0  0  0  0  0  0
   10.8946  -18.4523   26.2798 O   0  0  0  0  0  0  0  0  0  0  0  0
   11.1836  -17.1130   28.0758 O   0  0  0  0  0  0  0  0  0  0  0  0
  2  1  1  0
  3  2  2  0
  4  2  1  0
  5  4  1  0
  5  6  1  6
  7  5  1  0
  7  8  2  0
  9  7  1  0
 10  9  1  0
 10 11  1  6
 11 12  1  0
 12 16  1  0
 12 13  2  0
 13 14  1  0
 15 14  1  0
 16 15  2  0
 17 10  1  0
 18 17  2  0
 19 17  1  0
 20 21  1  1
 20 19  1  0
 21 22  1  0
 22 30  1  0
 23 24  1  0
 23 22  2  0
 24 25  1  0
 25 30  2  0
 25 26  1  0
 26 27  2  0
 27 28  1  0
 29 28  2  0
 30 29  1  0
 31 20  1  0
 31 33  1  0
 32 31  2  0
M  END
$$$$
