NHW.pdb
     RDKit          3D

 33 35  0  0  1  0  0  0  0  0999 V2000
    8.9146  -15.2956   18.3138 N   0  0  0  0  0  0  0  0  0  0  0  0
    7.4716  -15.3217   18.3236 C   0  0  0  0  0  0  0  0  0  0  0  0
    6.8636  -15.7923   17.3524 O   0  0  0  0  0  0  0  0  0  0  0  0
    6.7928  -14.7821   19.4992 C   0  0  0  0  0  0  0  0  0  0  0  0
    7.7252  -14.3381   20.5650 C   0  0  2  0  0  0  0  0  0  0  0  0
    8.8532  -13.5782   20.1125 N   0  0  0  0  0  0  0  0  0  0  0  0
    8.1236  -15.4485   21.4973 C   0  0  0  0  0  0  0  0  0  0  0  0
    7.2869  -16.2368   21.9644 O   0  0  0  0  0  0  0  0  0  0  0  0
    9.4851  -15.5753   21.8332 N   0  0  0  0  0  0  0  0  0  0  0  0
   10.0696  -16.4556   22.7799 C   0  0  1  0  0  0  0  0  0  0  0  0
   11.3269  -17.1741   22.3417 C   0  0  0  0  0  0  0  0  0  0  0  0
   11.1281  -18.0042   21.1238 C   0  0  0  0  0  0  0  0  0  0  0  0
    9.9600  -18.3268   20.4513 C   0  0  0  0  0  0  0  0  0  0  0  0
   10.2960  -19.1445   19.4460 N   0  0  0  0  0  0  0  0  0  0  0  0
   11.6129  -19.3515   19.4521 C   0  0  0  0  0  0  0  0  0  0  0  0
   12.1156  -18.6581   20.4717 N   0  0  0  0  0  0  0  0  0  0  0  0
   10.1466  -15.9984   24.1620 C   0  0  0  0  0  0  0  0  0  0  0  0
   10.7489  -14.9254   24.5069 O   0  0  0  0  0  0  0  0  0  0  0  0
    9.5473  -16.7323   25.1971 N   0  0  0  0  0  0  0  0  0  0  0  0
   10.0826  -16.6340   26.5563 C   0  0  1  0  0  0  0  0  0  0  0  0
    8.9887  -15.9735   27.3526 C   0  0  0  0  0  0  0  0  0  0  0  0
    7.9143  -15.3363   26.5854 C   0  0  0  0  0  0  0  0  0  0  0  0
    6.9971  -16.0156   25.7974 C   0  0  0  0  0  0  0  0  0  0  0  0
    6.2090  -15.1113   25.2331 N   0  0  0  0  0  0  0  0  0  0  0  0
    6.5671  -13.8854   25.6142 C   0  0  0  0  0  0  0  0  0  0  0  0
    6.0613  -12.6218   25.3266 C   0  0  0  0  0  0  0  0  0  0  0  0
    6.6092  -11.4838   25.8776 C   0  0  0  0  0  0  0  0  0  0  0  0
    7.6898  -11.5753   26.7408 C   0  0  0  0  0  0  0  0  0  0  0  0
    8.1708  -12.8438   27.0068 C   0  0  0  0  0  0  0  0  0  0  0  0
    7.6279  -13.9904   26.4585 C   0  0  0  0  0  0  0  0  0  0  0  0
   10.4504  -17.9256   27.1214 C   0  0  0  0  0  0  0  0  0  0  0  0
   10.2308  -18.9791   26.4882 O   0  0  0  0  0  0  0  0  0  0  0  0
   11.0514  -18.0121   28.3576 O   0  0  0  0  0  0  0  0  0  0  0  0
  2  1  1  0
  3  2  2  0
  4  2  1  0
  5  4  1  0
  5  6  1  6
  7  5  1  0
  7  8  2  0
  9  7  1  0
 10  9  1  0
 10 11  1  6
 11 12  1  0
 12 16  1  0
 12 13  2  0
 13 14  1  0
 15 14  1  0
 16 15  2  0
 17 10  1  0
 18 17  2  0
 19 17  1  0
 20 21  1  1
 20 19  1  0
 21 22  1  0
 22 30  1  0
 23 24  1  0
 23 22  2  0
 24 25  1  0
 25 30  2  0
 25 26  1  0
 26 27  2  0
 27 28  1  0
 29 28  2  0
 30 29  1  0
 31 20  1  0
 31 33  1  0
 32 31  2  0
M  END
$$$$
