NHW.pdb
     RDKit          3D

 33 35  0  0  1  0  0  0  0  0999 V2000
    7.2901  -12.7493   17.1523 N   0  0  0  0  0  0  0  0  0  0  0  0
    8.4753  -13.2944   17.7698 C   0  0  0  0  0  0  0  0  0  0  0  0
    9.4371  -13.6210   17.0610 O   0  0  0  0  0  0  0  0  0  0  0  0
    8.4774  -13.4345   19.2239 C   0  0  0  0  0  0  0  0  0  0  0  0
    9.2661  -14.5973   19.7019 C   0  0  2  0  0  0  0  0  0  0  0  0
    9.4446  -15.6494   18.7450 N   0  0  0  0  0  0  0  0  0  0  0  0
    8.8025  -15.1133   21.0360 C   0  0  0  0  0  0  0  0  0  0  0  0
    8.3061  -14.3598   21.8877 O   0  0  0  0  0  0  0  0  0  0  0  0
    8.9465  -16.4888   21.3008 N   0  0  0  0  0  0  0  0  0  0  0  0
    8.7342  -17.1653   22.5297 C   0  0  1  0  0  0  0  0  0  0  0  0
    8.4628  -18.6509   22.4399 C   0  0  0  0  0  0  0  0  0  0  0  0
    7.3132  -18.9799   21.5558 C   0  0  0  0  0  0  0  0  0  0  0  0
    6.3911  -18.1407   20.9507 C   0  0  0  0  0  0  0  0  0  0  0  0
    5.5178  -18.9182   20.2986 N   0  0  0  0  0  0  0  0  0  0  0  0
    5.8436  -20.2004   20.4624 C   0  0  0  0  0  0  0  0  0  0  0  0
    6.9338  -20.2351   21.2260 N   0  0  0  0  0  0  0  0  0  0  0  0
    9.6166  -16.8300   23.6405 C   0  0  0  0  0  0  0  0  0  0  0  0
   10.8557  -16.5573   23.4866 O   0  0  0  0  0  0  0  0  0  0  0  0
    9.1325  -16.7890   24.9570 N   0  0  0  0  0  0  0  0  0  0  0  0
   10.0633  -16.5530   26.0622 C   0  0  1  0  0  0  0  0  0  0  0  0
    9.2912  -15.7080   27.0404 C   0  0  0  0  0  0  0  0  0  0  0  0
    8.0377  -15.1241   26.5537 C   0  0  0  0  0  0  0  0  0  0  0  0
    6.9624  -15.8542   26.0697 C   0  0  0  0  0  0  0  0  0  0  0  0
    6.0319  -14.9898   25.6899 N   0  0  0  0  0  0  0  0  0  0  0  0
    6.4477  -13.7415   25.9030 C   0  0  0  0  0  0  0  0  0  0  0  0
    5.8534  -12.5005   25.6980 C   0  0  0  0  0  0  0  0  0  0  0  0
    6.4990  -11.3289   26.0288 C   0  0  0  0  0  0  0  0  0  0  0  0
    7.7704  -11.3628   26.5798 C   0  0  0  0  0  0  0  0  0  0  0  0
    8.3352  -12.6100   26.7708 C   0  0  0  0  0  0  0  0  0  0  0  0
    7.6953  -13.7900   26.4416 C   0  0  0  0  0  0  0  0  0  0  0  0
   10.5426  -17.7827   26.6794 C   0  0  0  0  0  0  0  0  0  0  0  0
   10.0856  -18.8890   26.3239 O   0  0  0  0  0  0  0  0  0  0  0  0
   11.5101  -17.7526   27.6591 O   0  0  0  0  0  0  0  0  0  0  0  0
  2  1  1  0
  3  2  2  0
  4  2  1  0
  5  4  1  0
  5  6  1  6
  7  5  1  0
  7  8  2  0
  9  7  1  0
 10  9  1  0
 10 11  1  6
 11 12  1  0
 12 16  1  0
 12 13  2  0
 13 14  1  0
 15 14  1  0
 16 15  2  0
 17 10  1  0
 18 17  2  0
 19 17  1  0
 20 21  1  1
 20 19  1  0
 21 22  1  0
 22 30  1  0
 23 24  1  0
 23 22  2  0
 24 25  1  0
 25 30  2  0
 25 26  1  0
 26 27  2  0
 27 28  1  0
 29 28  2  0
 30 29  1  0
 31 20  1  0
 31 33  1  0
 32 31  2  0
M  END
$$$$
