NHW.pdb
     RDKit          3D

 33 35  0  0  1  0  0  0  0  0999 V2000
    7.6296  -12.2439   17.5767 N   0  0  0  0  0  0  0  0  0  0  0  0
    7.8964  -13.6491   17.3838 C   0  0  0  0  0  0  0  0  0  0  0  0
    8.2557  -14.0543   16.2698 O   0  0  0  0  0  0  0  0  0  0  0  0
    7.7255  -14.5345   18.5331 C   0  0  0  0  0  0  0  0  0  0  0  0
    8.8051  -14.4030   19.5429 C   0  0  2  0  0  0  0  0  0  0  0  0
   10.1351  -14.3460   19.0116 N   0  0  0  0  0  0  0  0  0  0  0  0
    8.6826  -15.3945   20.6666 C   0  0  0  0  0  0  0  0  0  0  0  0
    7.5878  -15.6500   21.1918 O   0  0  0  0  0  0  0  0  0  0  0  0
    9.8534  -16.0349   21.1158 N   0  0  0  0  0  0  0  0  0  0  0  0
    9.9779  -16.9909   22.1567 C   0  0  1  0  0  0  0  0  0  0  0  0
   10.8175  -18.2115   21.8503 C   0  0  0  0  0  0  0  0  0  0  0  0
   10.3679  -18.9360   20.6319 C   0  0  0  0  0  0  0  0  0  0  0  0
    9.1154  -19.4324   20.3067 C   0  0  0  0  0  0  0  0  0  0  0  0
    9.2304  -20.0512   19.1252 N   0  0  0  0  0  0  0  0  0  0  0  0
   10.4885  -19.9690   18.6920 C   0  0  0  0  0  0  0  0  0  0  0  0
   11.1769  -19.2915   19.6086 N   0  0  0  0  0  0  0  0  0  0  0  0
   10.2051  -16.4871   23.5057 C   0  0  0  0  0  0  0  0  0  0  0  0
   11.0136  -15.5317   23.7643 O   0  0  0  0  0  0  0  0  0  0  0  0
    9.5291  -17.0406   24.6039 N   0  0  0  0  0  0  0  0  0  0  0  0
    9.8308  -16.5620   25.9542 C   0  0  1  0  0  0  0  0  0  0  0  0
    8.5057  -16.5696   26.6690 C   0  0  0  0  0  0  0  0  0  0  0  0
    7.5247  -15.5686   26.2393 C   0  0  0  0  0  0  0  0  0  0  0  0
    6.3455  -15.8564   25.5682 C   0  0  0  0  0  0  0  0  0  0  0  0
    5.7399  -14.7049   25.3141 N   0  0  0  0  0  0  0  0  0  0  0  0
    6.4635  -13.6896   25.7852 C   0  0  0  0  0  0  0  0  0  0  0  0
    6.2657  -12.3126   25.7926 C   0  0  0  0  0  0  0  0  0  0  0  0
    7.1747  -11.4571   26.3764 C   0  0  0  0  0  0  0  0  0  0  0  0
    8.3199  -11.9570   26.9761 C   0  0  0  0  0  0  0  0  0  0  0  0
    8.4894  -13.3287   26.9522 C   0  0  0  0  0  0  0  0  0  0  0  0
    7.5834  -14.1941   26.3688 C   0  0  0  0  0  0  0  0  0  0  0  0
   10.8164  -17.3827   26.6455 C   0  0  0  0  0  0  0  0  0  0  0  0
   11.2444  -18.4326   26.1226 O   0  0  0  0  0  0  0  0  0  0  0  0
   11.2999  -17.0170   27.8821 O   0  0  0  0  0  0  0  0  0  0  0  0
  2  1  1  0
  3  2  2  0
  4  2  1  0
  5  4  1  0
  5  6  1  6
  7  5  1  0
  7  8  2  0
  9  7  1  0
 10  9  1  0
 10 11  1  6
 11 12  1  0
 12 16  1  0
 12 13  2  0
 13 14  1  0
 15 14  1  0
 16 15  2  0
 17 10  1  0
 18 17  2  0
 19 17  1  0
 20 21  1  1
 20 19  1  0
 21 22  1  0
 22 30  1  0
 23 24  1  0
 23 22  2  0
 24 25  1  0
 25 30  2  0
 25 26  1  0
 26 27  2  0
 27 28  1  0
 29 28  2  0
 30 29  1  0
 31 20  1  0
 31 33  1  0
 32 31  2  0
M  END
$$$$
