NHW.pdb
     RDKit          3D

 33 35  0  0  1  0  0  0  0  0999 V2000
    9.2520  -15.2190   16.1091 N   0  0  0  0  0  0  0  0  0  0  0  0
    7.9675  -15.4500   16.7253 C   0  0  0  0  0  0  0  0  0  0  0  0
    6.9750  -15.6470   16.0109 O   0  0  0  0  0  0  0  0  0  0  0  0
    7.9051  -15.4389   18.1848 C   0  0  0  0  0  0  0  0  0  0  0  0
    9.2244  -15.2206   18.8285 C   0  0  2  0  0  0  0  0  0  0  0  0
   10.3597  -15.4076   17.9738 N   0  0  0  0  0  0  0  0  0  0  0  0
    9.3687  -15.9507   20.1351 C   0  0  0  0  0  0  0  0  0  0  0  0
    8.4705  -15.9353   20.9910 O   0  0  0  0  0  0  0  0  0  0  0  0
   10.5617  -16.6612   20.3689 N   0  0  0  0  0  0  0  0  0  0  0  0
   10.9742  -17.2990   21.5672 C   0  0  1  0  0  0  0  0  0  0  0  0
   12.2067  -18.1713   21.4734 C   0  0  0  0  0  0  0  0  0  0  0  0
   12.0586  -19.2849   20.4989 C   0  0  0  0  0  0  0  0  0  0  0  0
   10.9218  -19.7678   19.8700 C   0  0  0  0  0  0  0  0  0  0  0  0
   11.2971  -20.8155   19.1258 N   0  0  0  0  0  0  0  0  0  0  0  0
   12.6088  -21.0150   19.2544 C   0  0  0  0  0  0  0  0  0  0  0  0
   13.0686  -20.0845   20.0885 N   0  0  0  0  0  0  0  0  0  0  0  0
   10.9482  -16.5074   22.7910 C   0  0  0  0  0  0  0  0  0  0  0  0
   11.2019  -15.2551   22.8147 O   0  0  0  0  0  0  0  0  0  0  0  0
   10.6342  -17.0991   24.0241 N   0  0  0  0  0  0  0  0  0  0  0  0
    9.9665  -16.3053   25.0573 C   0  0  1  0  0  0  0  0  0  0  0  0
    8.6021  -16.0105   24.4929 C   0  0  0  0  0  0  0  0  0  0  0  0
    7.6857  -15.2588   25.3555 C   0  0  0  0  0  0  0  0  0  0  0  0
    6.6967  -15.8291   26.1432 C   0  0  0  0  0  0  0  0  0  0  0  0
    6.0502  -14.8426   26.7482 N   0  0  0  0  0  0  0  0  0  0  0  0
    6.5682  -13.6666   26.3944 C   0  0  0  0  0  0  0  0  0  0  0  0
    6.2691  -12.3565   26.7542 C   0  0  0  0  0  0  0  0  0  0  0  0
    6.9841  -11.2904   26.2532 C   0  0  0  0  0  0  0  0  0  0  0  0
    8.0298  -11.5038   25.3688 C   0  0  0  0  0  0  0  0  0  0  0  0
    8.3028  -12.8158   25.0294 C   0  0  0  0  0  0  0  0  0  0  0  0
    7.5908  -13.8909   25.5266 C   0  0  0  0  0  0  0  0  0  0  0  0
    9.8782  -16.9922   26.3392 C   0  0  0  0  0  0  0  0  0  0  0  0
    9.6802  -18.2242   26.3846 O   0  0  0  0  0  0  0  0  0  0  0  0
   10.0169  -16.3022   27.5231 O   0  0  0  0  0  0  0  0  0  0  0  0
  2  1  1  0
  3  2  2  0
  4  2  1  0
  5  4  1  0
  5  6  1  6
  7  5  1  0
  7  8  2  0
  9  7  1  0
 10  9  1  0
 10 11  1  6
 11 12  1  0
 12 16  1  0
 12 13  2  0
 13 14  1  0
 15 14  1  0
 16 15  2  0
 17 10  1  0
 18 17  2  0
 19 17  1  0
 20 21  1  6
 20 19  1  0
 21 22  1  0
 22 30  1  0
 23 24  1  0
 23 22  2  0
 24 25  1  0
 25 30  2  0
 25 26  1  0
 26 27  2  0
 27 28  1  0
 29 28  2  0
 30 29  1  0
 31 20  1  0
 31 33  1  0
 32 31  2  0
M  END
$$$$
