NHW.pdb
     RDKit          3D

 33 35  0  0  1  0  0  0  0  0999 V2000
    7.8737  -12.1428   17.0855 N   0  0  0  0  0  0  0  0  0  0  0  0
    7.6478  -13.5681   17.1068 C   0  0  0  0  0  0  0  0  0  0  0  0
    7.5575  -14.1873   16.0378 O   0  0  0  0  0  0  0  0  0  0  0  0
    7.5358  -14.2163   18.4112 C   0  0  0  0  0  0  0  0  0  0  0  0
    8.8481  -14.5686   19.0079 C   0  0  2  0  0  0  0  0  0  0  0  0
    9.7690  -15.2154   18.1202 N   0  0  0  0  0  0  0  0  0  0  0  0
    8.7219  -15.2890   20.3216 C   0  0  0  0  0  0  0  0  0  0  0  0
    8.0074  -14.8515   21.2369 O   0  0  0  0  0  0  0  0  0  0  0  0
    9.4424  -16.4866   20.4925 N   0  0  0  0  0  0  0  0  0  0  0  0
    9.4426  -17.3489   21.6191 C   0  0  1  0  0  0  0  0  0  0  0  0
    9.6499  -18.8209   21.3378 C   0  0  0  0  0  0  0  0  0  0  0  0
    8.6380  -19.3829   20.4042 C   0  0  0  0  0  0  0  0  0  0  0  0
    7.4297  -18.8517   19.9813 C   0  0  0  0  0  0  0  0  0  0  0  0
    6.8558  -19.7613   19.1840 N   0  0  0  0  0  0  0  0  0  0  0  0
    7.6402  -20.8345   19.0843 C   0  0  0  0  0  0  0  0  0  0  0  0
    8.7214  -20.6022   19.8259 N   0  0  0  0  0  0  0  0  0  0  0  0
   10.1672  -16.9044   22.8034 C   0  0  0  0  0  0  0  0  0  0  0  0
   11.4385  -16.7763   22.8335 O   0  0  0  0  0  0  0  0  0  0  0  0
    9.4848  -16.5885   23.9882 N   0  0  0  0  0  0  0  0  0  0  0  0
   10.2455  -16.2319   25.1871 C   0  0  1  0  0  0  0  0  0  0  0  0
    9.9113  -14.7853   25.4376 C   0  0  0  0  0  0  0  0  0  0  0  0
    8.4941  -14.4657   25.6338 C   0  0  0  0  0  0  0  0  0  0  0  0
    7.4619  -15.3907   25.5828 C   0  0  0  0  0  0  0  0  0  0  0  0
    6.3265  -14.7321   25.7681 N   0  0  0  0  0  0  0  0  0  0  0  0
    6.5695  -13.4326   25.9366 C   0  0  0  0  0  0  0  0  0  0  0  0
    5.7418  -12.3408   26.1781 C   0  0  0  0  0  0  0  0  0  0  0  0
    6.2525  -11.0712   26.3400 C   0  0  0  0  0  0  0  0  0  0  0  0
    7.6192  -10.8524   26.2646 C   0  0  0  0  0  0  0  0  0  0  0  0
    8.4158  -11.9561   26.0229 C   0  0  0  0  0  0  0  0  0  0  0  0
    7.9123  -13.2327   25.8589 C   0  0  0  0  0  0  0  0  0  0  0  0
    9.9212  -17.0631   26.3390 C   0  0  0  0  0  0  0  0  0  0  0  0
   10.4931  -16.8786   27.4336 O   0  0  0  0  0  0  0  0  0  0  0  0
    8.9769  -18.0615   26.2482 O   0  0  0  0  0  0  0  0  0  0  0  0
  2  1  1  0
  3  2  2  0
  4  2  1  0
  5  4  1  0
  5  6  1  6
  7  5  1  0
  7  8  2  0
  9  7  1  0
 10  9  1  0
 10 11  1  6
 11 12  1  0
 12 16  1  0
 12 13  2  0
 13 14  1  0
 15 14  1  0
 16 15  2  0
 17 10  1  0
 18 17  2  0
 19 17  1  0
 20 21  1  1
 20 19  1  0
 21 22  1  0
 22 30  1  0
 23 24  1  0
 23 22  2  0
 24 25  1  0
 25 30  2  0
 25 26  1  0
 26 27  2  0
 27 28  1  0
 29 28  2  0
 30 29  1  0
 31 20  1  0
 31 33  1  0
 32 31  2  0
M  END
$$$$
