NHW.pdb
     RDKit          3D

 33 35  0  0  1  0  0  0  0  0999 V2000
    8.6212  -12.6498   17.7626 N   0  0  0  0  0  0  0  0  0  0  0  0
    7.6009  -13.6703   17.7895 C   0  0  0  0  0  0  0  0  0  0  0  0
    6.7036  -13.6581   16.9358 O   0  0  0  0  0  0  0  0  0  0  0  0
    7.6823  -14.6812   18.8410 C   0  0  0  0  0  0  0  0  0  0  0  0
    8.7341  -14.3983   19.8491 C   0  0  2  0  0  0  0  0  0  0  0  0
   10.0561  -14.2292   19.3218 N   0  0  0  0  0  0  0  0  0  0  0  0
    8.7026  -15.3489   21.0137 C   0  0  0  0  0  0  0  0  0  0  0  0
    7.6585  -15.5651   21.6483 O   0  0  0  0  0  0  0  0  0  0  0  0
    9.9003  -15.9964   21.3731 N   0  0  0  0  0  0  0  0  0  0  0  0
   10.0930  -16.9697   22.3871 C   0  0  1  0  0  0  0  0  0  0  0  0
   11.0028  -18.1280   22.0417 C   0  0  0  0  0  0  0  0  0  0  0  0
   10.5533  -18.8831   20.8419 C   0  0  0  0  0  0  0  0  0  0  0  0
    9.2844  -19.3151   20.4898 C   0  0  0  0  0  0  0  0  0  0  0  0
    9.4035  -19.9988   19.3449 N   0  0  0  0  0  0  0  0  0  0  0  0
   10.6797  -20.0181   18.9602 C   0  0  0  0  0  0  0  0  0  0  0  0
   11.3756  -19.3401   19.8707 N   0  0  0  0  0  0  0  0  0  0  0  0
   10.3018  -16.4884   23.7472 C   0  0  0  0  0  0  0  0  0  0  0  0
   11.1472  -15.5757   24.0398 O   0  0  0  0  0  0  0  0  0  0  0  0
    9.5654  -17.0168   24.8186 N   0  0  0  0  0  0  0  0  0  0  0  0
    9.8507  -16.5679   26.1826 C   0  0  1  0  0  0  0  0  0  0  0  0
    8.5013  -16.4628   26.8421 C   0  0  0  0  0  0  0  0  0  0  0  0
    7.5645  -15.4943   26.2647 C   0  0  0  0  0  0  0  0  0  0  0  0
    6.5199  -15.8184   25.4117 C   0  0  0  0  0  0  0  0  0  0  0  0
    5.9195  -14.6875   25.0686 N   0  0  0  0  0  0  0  0  0  0  0  0
    6.5191  -13.6511   25.6540 C   0  0  0  0  0  0  0  0  0  0  0  0
    6.2704  -12.2825   25.6352 C   0  0  0  0  0  0  0  0  0  0  0  0
    7.0409  -11.4001   26.3609 C   0  0  0  0  0  0  0  0  0  0  0  0
    8.0934  -11.8635   27.1346 C   0  0  0  0  0  0  0  0  0  0  0  0
    8.3165  -13.2278   27.1326 C   0  0  0  0  0  0  0  0  0  0  0  0
    7.5493  -14.1199   26.4076 C   0  0  0  0  0  0  0  0  0  0  0  0
   10.7327  -17.4713   26.9098 C   0  0  0  0  0  0  0  0  0  0  0  0
   11.0929  -18.5520   26.3984 O   0  0  0  0  0  0  0  0  0  0  0  0
   11.1914  -17.1519   28.1685 O   0  0  0  0  0  0  0  0  0  0  0  0
  2  1  1  0
  3  2  2  0
  4  2  1  0
  5  4  1  0
  5  6  1  6
  7  5  1  0
  7  8  2  0
  9  7  1  0
 10  9  1  0
 10 11  1  6
 11 12  1  0
 12 16  1  0
 12 13  2  0
 13 14  1  0
 15 14  1  0
 16 15  2  0
 17 10  1  0
 18 17  2  0
 19 17  1  0
 20 21  1  1
 20 19  1  0
 21 22  1  0
 22 30  1  0
 23 24  1  0
 23 22  2  0
 24 25  1  0
 25 30  2  0
 25 26  1  0
 26 27  2  0
 27 28  1  0
 29 28  2  0
 30 29  1  0
 31 20  1  0
 31 33  1  0
 32 31  2  0
M  END
$$$$
