NHW.pdb
     RDKit          3D

 33 35  0  0  1  0  0  0  0  0999 V2000
    9.0004  -16.6663   16.0397 N   0  0  0  0  0  0  0  0  0  0  0  0
    9.2897  -15.4860   16.8184 C   0  0  0  0  0  0  0  0  0  0  0  0
    9.6318  -14.4442   16.2424 O   0  0  0  0  0  0  0  0  0  0  0  0
    9.1615  -15.5847   18.2702 C   0  0  0  0  0  0  0  0  0  0  0  0
    8.7260  -16.9260   18.7327 C   0  0  2  0  0  0  0  0  0  0  0  0
    7.5789  -17.4614   18.0605 N   0  0  0  0  0  0  0  0  0  0  0  0
    8.6057  -17.0215   20.2284 C   0  0  0  0  0  0  0  0  0  0  0  0
    8.0361  -16.1415   20.8923 O   0  0  0  0  0  0  0  0  0  0  0  0
    9.1616  -18.1464   20.8674 N   0  0  0  0  0  0  0  0  0  0  0  0
    9.0686  -18.5035   22.2373 C   0  0  1  0  0  0  0  0  0  0  0  0
    9.1794  -19.9784   22.5556 C   0  0  0  0  0  0  0  0  0  0  0  0
    8.9590  -20.2812   23.9948 C   0  0  0  0  0  0  0  0  0  0  0  0
    9.8646  -20.6757   24.9670 C   0  0  0  0  0  0  0  0  0  0  0  0
    9.1711  -20.8769   26.0943 N   0  0  0  0  0  0  0  0  0  0  0  0
    7.8788  -20.6293   25.8808 C   0  0  0  0  0  0  0  0  0  0  0  0
    7.7527  -20.2678   24.6055 N   0  0  0  0  0  0  0  0  0  0  0  0
    9.7885  -17.6747   23.1965 C   0  0  0  0  0  0  0  0  0  0  0  0
   10.9019  -17.1077   22.9278 O   0  0  0  0  0  0  0  0  0  0  0  0
    9.2777  -17.4567   24.4852 N   0  0  0  0  0  0  0  0  0  0  0  0
   10.0249  -16.6211   25.4269 C   0  0  1  0  0  0  0  0  0  0  0  0
    9.6453  -15.2082   25.0710 C   0  0  0  0  0  0  0  0  0  0  0  0
    8.2699  -14.8035   25.3767 C   0  0  0  0  0  0  0  0  0  0  0  0
    7.1892  -15.6701   25.4473 C   0  0  0  0  0  0  0  0  0  0  0  0
    6.1113  -14.9433   25.7060 N   0  0  0  0  0  0  0  0  0  0  0  0
    6.4372  -13.6549   25.8069 C   0  0  0  0  0  0  0  0  0  0  0  0
    5.6933  -12.5115   26.0798 C   0  0  0  0  0  0  0  0  0  0  0  0
    6.2833  -11.2682   26.1521 C   0  0  0  0  0  0  0  0  0  0  0  0
    7.6478  -11.1291   25.9520 C   0  0  0  0  0  0  0  0  0  0  0  0
    8.3601  -12.2827   25.6820 C   0  0  0  0  0  0  0  0  0  0  0  0
    7.7767  -13.5334   25.6071 C   0  0  0  0  0  0  0  0  0  0  0  0
    9.7249  -16.9207   26.8208 C   0  0  0  0  0  0  0  0  0  0  0  0
    8.7506  -17.6432   27.1173 O   0  0  0  0  0  0  0  0  0  0  0  0
   10.5091  -16.4212   27.8369 O   0  0  0  0  0  0  0  0  0  0  0  0
  2  1  1  0
  3  2  2  0
  4  2  1  0
  5  4  1  0
  5  6  1  6
  7  5  1  0
  7  8  2  0
  9  7  1  0
 10  9  1  0
 10 11  1  6
 11 12  1  0
 12 16  1  0
 12 13  2  0
 13 14  1  0
 15 14  1  0
 16 15  2  0
 17 10  1  0
 18 17  2  0
 19 17  1  0
 20 21  1  6
 20 19  1  0
 21 22  1  0
 22 30  1  0
 23 24  1  0
 23 22  2  0
 24 25  1  0
 25 30  2  0
 25 26  1  0
 26 27  2  0
 27 28  1  0
 29 28  2  0
 30 29  1  0
 31 20  1  0
 31 33  1  0
 32 31  2  0
M  END
$$$$
