NHW.pdb
     RDKit          3D

 33 35  0  0  1  0  0  0  0  0999 V2000
    8.8021  -12.7902   17.3096 N   0  0  0  0  0  0  0  0  0  0  0  0
    7.5240  -13.3708   17.6446 C   0  0  0  0  0  0  0  0  0  0  0  0
    6.5372  -13.1220   16.9385 O   0  0  0  0  0  0  0  0  0  0  0  0
    7.4610  -14.2366   18.8196 C   0  0  0  0  0  0  0  0  0  0  0  0
    8.7013  -14.2141   19.6343 C   0  0  2  0  0  0  0  0  0  0  0  0
    9.9212  -14.3486   18.8939 N   0  0  0  0  0  0  0  0  0  0  0  0
    8.6460  -15.1438   20.8147 C   0  0  0  0  0  0  0  0  0  0  0  0
    7.7710  -15.0347   21.6877 O   0  0  0  0  0  0  0  0  0  0  0  0
    9.6223  -16.1541   20.9087 N   0  0  0  0  0  0  0  0  0  0  0  0
    9.7752  -17.1239   21.9329 C   0  0  1  0  0  0  0  0  0  0  0  0
   10.5304  -18.3807   21.5600 C   0  0  0  0  0  0  0  0  0  0  0  0
   10.3896  -19.4648   22.5682 C   0  0  0  0  0  0  0  0  0  0  0  0
    9.7400  -19.4585   23.7924 C   0  0  0  0  0  0  0  0  0  0  0  0
    9.9430  -20.6571   24.3534 N   0  0  0  0  0  0  0  0  0  0  0  0
   10.6851  -21.4147   23.5457 C   0  0  0  0  0  0  0  0  0  0  0  0
   10.9548  -20.6885   22.4627 N   0  0  0  0  0  0  0  0  0  0  0  0
   10.1235  -16.6435   23.2644 C   0  0  0  0  0  0  0  0  0  0  0  0
   11.0230  -15.7596   23.4715 O   0  0  0  0  0  0  0  0  0  0  0  0
    9.4698  -17.1403   24.4025 N   0  0  0  0  0  0  0  0  0  0  0  0
    9.7412  -16.5417   25.7107 C   0  0  1  0  0  0  0  0  0  0  0  0
    8.3932  -16.4416   26.3740 C   0  0  0  0  0  0  0  0  0  0  0  0
    7.4604  -15.4585   25.8151 C   0  0  0  0  0  0  0  0  0  0  0  0
    6.4067  -15.7637   24.9664 C   0  0  0  0  0  0  0  0  0  0  0  0
    5.8134  -14.6237   24.6412 N   0  0  0  0  0  0  0  0  0  0  0  0
    6.4262  -13.5994   25.2342 C   0  0  0  0  0  0  0  0  0  0  0  0
    6.1890  -12.2287   25.2335 C   0  0  0  0  0  0  0  0  0  0  0  0
    6.9725  -11.3614   25.9636 C   0  0  0  0  0  0  0  0  0  0  0  0
    8.0268  -11.8429   26.7237 C   0  0  0  0  0  0  0  0  0  0  0  0
    8.2382  -13.2088   26.7039 C   0  0  0  0  0  0  0  0  0  0  0  0
    7.4580  -14.0858   25.9744 C   0  0  0  0  0  0  0  0  0  0  0  0
   10.6760  -17.3193   26.5133 C   0  0  0  0  0  0  0  0  0  0  0  0
   11.0938  -18.4232   26.1059 O   0  0  0  0  0  0  0  0  0  0  0  0
   11.1221  -16.8534   27.7301 O   0  0  0  0  0  0  0  0  0  0  0  0
  2  1  1  0
  3  2  2  0
  4  2  1  0
  5  4  1  0
  5  6  1  6
  7  5  1  0
  7  8  2  0
  9  7  1  0
 10  9  1  0
 10 11  1  6
 11 12  1  0
 12 16  1  0
 12 13  2  0
 13 14  1  0
 15 14  1  0
 16 15  2  0
 17 10  1  0
 18 17  2  0
 19 17  1  0
 20 21  1  1
 20 19  1  0
 21 22  1  0
 22 30  1  0
 23 24  1  0
 23 22  2  0
 24 25  1  0
 25 30  2  0
 25 26  1  0
 26 27  2  0
 27 28  1  0
 29 28  2  0
 30 29  1  0
 31 20  1  0
 31 33  1  0
 32 31  2  0
M  END
$$$$
