NHW.pdb
     RDKit          3D

 33 35  0  0  1  0  0  0  0  0999 V2000
    7.9356  -12.1070   16.5352 N   0  0  0  0  0  0  0  0  0  0  0  0
    7.6300  -13.5174   16.5134 C   0  0  0  0  0  0  0  0  0  0  0  0
    7.5710  -14.1119   15.4284 O   0  0  0  0  0  0  0  0  0  0  0  0
    7.4026  -14.1805   17.7951 C   0  0  0  0  0  0  0  0  0  0  0  0
    8.6567  -14.5381   18.5034 C   0  0  2  0  0  0  0  0  0  0  0  0
    9.6287  -15.2331   17.7118 N   0  0  0  0  0  0  0  0  0  0  0  0
    8.4134  -15.2105   19.8261 C   0  0  0  0  0  0  0  0  0  0  0  0
    7.6743  -14.7058   20.6856 O   0  0  0  0  0  0  0  0  0  0  0  0
    9.0515  -16.4415   20.0710 N   0  0  0  0  0  0  0  0  0  0  0  0
    8.9853  -17.2381   21.2431 C   0  0  1  0  0  0  0  0  0  0  0  0
    8.9913  -18.7369   21.0374 C   0  0  0  0  0  0  0  0  0  0  0  0
    7.8675  -19.2119   20.1869 C   0  0  0  0  0  0  0  0  0  0  0  0
    6.7651  -18.5222   19.7076 C   0  0  0  0  0  0  0  0  0  0  0  0
    6.0123  -19.4004   19.0335 N   0  0  0  0  0  0  0  0  0  0  0  0
    6.5844  -20.6041   19.0645 C   0  0  0  0  0  0  0  0  0  0  0  0
    7.7104  -20.4869   19.7653 N   0  0  0  0  0  0  0  0  0  0  0  0
    9.8065  -16.8318   22.3770 C   0  0  0  0  0  0  0  0  0  0  0  0
   11.0717  -16.6700   22.2968 O   0  0  0  0  0  0  0  0  0  0  0  0
    9.2302  -16.5931   23.6341 N   0  0  0  0  0  0  0  0  0  0  0  0
   10.0924  -16.2983   24.7800 C   0  0  1  0  0  0  0  0  0  0  0  0
    9.8363  -14.8472   25.0896 C   0  0  0  0  0  0  0  0  0  0  0  0
    8.4514  -14.4785   25.3977 C   0  0  0  0  0  0  0  0  0  0  0  0
    7.3849  -15.3648   25.4201 C   0  0  0  0  0  0  0  0  0  0  0  0
    6.2923  -14.6674   25.6980 N   0  0  0  0  0  0  0  0  0  0  0  0
    6.5955  -13.3793   25.8568 C   0  0  0  0  0  0  0  0  0  0  0  0
    5.8299  -12.2608   26.1699 C   0  0  0  0  0  0  0  0  0  0  0  0
    6.3982  -11.0123   26.3011 C   0  0  0  0  0  0  0  0  0  0  0  0
    7.7620  -10.8425   26.1213 C   0  0  0  0  0  0  0  0  0  0  0  0
    8.4962  -11.9717   25.8103 C   0  0  0  0  0  0  0  0  0  0  0  0
    7.9348  -13.2275   25.6764 C   0  0  0  0  0  0  0  0  0  0  0  0
    9.8222  -17.1471   25.9330 C   0  0  0  0  0  0  0  0  0  0  0  0
   10.5115  -17.0453   26.9691 O   0  0  0  0  0  0  0  0  0  0  0  0
    8.8015  -18.0714   25.9079 O   0  0  0  0  0  0  0  0  0  0  0  0
  2  1  1  0
  3  2  2  0
  4  2  1  0
  5  4  1  0
  5  6  1  6
  7  5  1  0
  7  8  2  0
  9  7  1  0
 10  9  1  0
 10 11  1  6
 11 12  1  0
 12 16  1  0
 12 13  2  0
 13 14  1  0
 15 14  1  0
 16 15  2  0
 17 10  1  0
 18 17  2  0
 19 17  1  0
 20 21  1  1
 20 19  1  0
 21 22  1  0
 22 30  1  0
 23 24  1  0
 23 22  2  0
 24 25  1  0
 25 30  2  0
 25 26  1  0
 26 27  2  0
 27 28  1  0
 29 28  2  0
 30 29  1  0
 31 20  1  0
 31 33  1  0
 32 31  2  0
M  END
$$$$
