NHW.pdb
     RDKit          3D

 33 35  0  0  1  0  0  0  0  0999 V2000
    9.7795  -20.2600   18.6763 N   0  0  0  0  0  0  0  0  0  0  0  0
   10.4374  -19.1590   18.0145 C   0  0  0  0  0  0  0  0  0  0  0  0
   11.0133  -19.3526   16.9351 O   0  0  0  0  0  0  0  0  0  0  0  0
   10.3884  -17.8517   18.6645 C   0  0  0  0  0  0  0  0  0  0  0  0
    9.8552  -17.9023   20.0485 C   0  0  2  0  0  0  0  0  0  0  0  0
    8.4853  -18.3087   20.1611 N   0  0  0  0  0  0  0  0  0  0  0  0
   10.1457  -16.6549   20.8362 C   0  0  0  0  0  0  0  0  0  0  0  0
   11.2948  -16.1951   20.9252 O   0  0  0  0  0  0  0  0  0  0  0  0
    9.0707  -16.0119   21.4794 N   0  0  0  0  0  0  0  0  0  0  0  0
    9.0956  -14.7968   22.2115 C   0  0  1  0  0  0  0  0  0  0  0  0
    8.1599  -13.7073   21.7358 C   0  0  0  0  0  0  0  0  0  0  0  0
    8.0133  -13.6713   20.2563 C   0  0  0  0  0  0  0  0  0  0  0  0
    7.0056  -14.1801   19.4523 C   0  0  0  0  0  0  0  0  0  0  0  0
    7.3557  -13.9422   18.1822 N   0  0  0  0  0  0  0  0  0  0  0  0
    8.5293  -13.3110   18.1471 C   0  0  0  0  0  0  0  0  0  0  0  0
    8.9263  -13.1478   19.4075 N   0  0  0  0  0  0  0  0  0  0  0  0
    9.1415  -14.8912   23.6654 C   0  0  0  0  0  0  0  0  0  0  0  0
    9.0167  -13.8766   24.4325 O   0  0  0  0  0  0  0  0  0  0  0  0
    9.3267  -16.1287   24.3008 N   0  0  0  0  0  0  0  0  0  0  0  0
   10.2523  -16.2295   25.4307 C   0  0  1  0  0  0  0  0  0  0  0  0
    9.5472  -15.5378   26.5671 C   0  0  0  0  0  0  0  0  0  0  0  0
    8.1693  -15.1051   26.3158 C   0  0  0  0  0  0  0  0  0  0  0  0
    7.1534  -15.9314   25.8587 C   0  0  0  0  0  0  0  0  0  0  0  0
    6.0668  -15.1857   25.7156 N   0  0  0  0  0  0  0  0  0  0  0  0
    6.3256  -13.9234   26.0559 C   0  0  0  0  0  0  0  0  0  0  0  0
    5.5387  -12.7771   26.1000 C   0  0  0  0  0  0  0  0  0  0  0  0
    6.0497  -11.5679   26.5189 C   0  0  0  0  0  0  0  0  0  0  0  0
    7.3756  -11.4669   26.9101 C   0  0  0  0  0  0  0  0  0  0  0  0
    8.1326  -12.6223   26.8547 C   0  0  0  0  0  0  0  0  0  0  0  0
    7.6286  -13.8391   26.4356 C   0  0  0  0  0  0  0  0  0  0  0  0
   10.5933  -17.6046   25.7704 C   0  0  0  0  0  0  0  0  0  0  0  0
   11.4206  -17.8468   26.6738 O   0  0  0  0  0  0  0  0  0  0  0  0
   10.0088  -18.6626   25.1102 O   0  0  0  0  0  0  0  0  0  0  0  0
  2  1  1  0
  3  2  2  0
  4  2  1  0
  5  4  1  0
  5  6  1  6
  7  5  1  0
  7  8  2  0
  9  7  1  0
 10  9  1  0
 10 11  1  1
 11 12  1  0
 12 16  1  0
 12 13  2  0
 13 14  1  0
 15 14  1  0
 16 15  2  0
 17 10  1  0
 18 17  2  0
 19 17  1  0
 20 21  1  1
 20 19  1  0
 21 22  1  0
 22 30  1  0
 23 24  1  0
 23 22  2  0
 24 25  1  0
 25 30  2  0
 25 26  1  0
 26 27  2  0
 27 28  1  0
 29 28  2  0
 30 29  1  0
 31 20  1  0
 31 33  1  0
 32 31  2  0
M  END
$$$$
