NHW.pdb
     RDKit          3D

 33 35  0  0  1  0  0  0  0  0999 V2000
    9.7503  -19.3038   15.8727 N   0  0  0  0  0  0  0  0  0  0  0  0
   10.4428  -19.2808   17.1388 C   0  0  0  0  0  0  0  0  0  0  0  0
   10.9176  -20.3307   17.5933 O   0  0  0  0  0  0  0  0  0  0  0  0
   10.5488  -17.9977   17.8291 C   0  0  0  0  0  0  0  0  0  0  0  0
   10.2670  -18.0870   19.2835 C   0  0  2  0  0  0  0  0  0  0  0  0
    8.9801  -18.6177   19.6251 N   0  0  0  0  0  0  0  0  0  0  0  0
   10.5712  -16.8121   20.0203 C   0  0  0  0  0  0  0  0  0  0  0  0
   11.6559  -16.2252   19.8836 O   0  0  0  0  0  0  0  0  0  0  0  0
    9.5850  -16.2925   20.8806 N   0  0  0  0  0  0  0  0  0  0  0  0
    9.6418  -15.1029   21.6517 C   0  0  1  0  0  0  0  0  0  0  0  0
    8.5170  -14.1131   21.4427 C   0  0  0  0  0  0  0  0  0  0  0  0
    8.1813  -13.9081   20.0085 C   0  0  0  0  0  0  0  0  0  0  0  0
    8.4534  -12.8316   19.1790 C   0  0  0  0  0  0  0  0  0  0  0  0
    7.8985  -13.0989   17.9904 N   0  0  0  0  0  0  0  0  0  0  0  0
    7.2931  -14.2859   18.0303 C   0  0  0  0  0  0  0  0  0  0  0  0
    7.4663  -14.7750   19.2566 N   0  0  0  0  0  0  0  0  0  0  0  0
   10.0124  -15.2313   23.0557 C   0  0  0  0  0  0  0  0  0  0  0  0
   10.7785  -14.3998   23.6516 O   0  0  0  0  0  0  0  0  0  0  0  0
    9.5316  -16.2967   23.8323 N   0  0  0  0  0  0  0  0  0  0  0  0
   10.1140  -16.5497   25.1515 C   0  0  1  0  0  0  0  0  0  0  0  0
    9.7899  -15.3192   25.9565 C   0  0  0  0  0  0  0  0  0  0  0  0
    8.3693  -14.9887   26.1031 C   0  0  0  0  0  0  0  0  0  0  0  0
    7.3277  -15.8881   25.9305 C   0  0  0  0  0  0  0  0  0  0  0  0
    6.1939  -15.2240   26.1060 N   0  0  0  0  0  0  0  0  0  0  0  0
    6.4468  -13.9451   26.3831 C   0  0  0  0  0  0  0  0  0  0  0  0
    5.6238  -12.8590   26.6625 C   0  0  0  0  0  0  0  0  0  0  0  0
    6.1439  -11.6144   26.9444 C   0  0  0  0  0  0  0  0  0  0  0  0
    7.5156  -11.4160   26.9556 C   0  0  0  0  0  0  0  0  0  0  0  0
    8.3075  -12.5134   26.6735 C   0  0  0  0  0  0  0  0  0  0  0  0
    7.7947  -13.7649   26.3893 C   0  0  0  0  0  0  0  0  0  0  0  0
    9.5953  -17.7550   25.7846 C   0  0  0  0  0  0  0  0  0  0  0  0
    9.9239  -18.0476   26.9532 O   0  0  0  0  0  0  0  0  0  0  0  0
    8.7303  -18.5908   25.1138 O   0  0  0  0  0  0  0  0  0  0  0  0
  2  1  1  0
  3  2  2  0
  4  2  1  0
  5  4  1  0
  5  6  1  6
  7  5  1  0
  7  8  2  0
  9  7  1  0
 10  9  1  0
 10 11  1  1
 11 12  1  0
 12 16  1  0
 12 13  2  0
 13 14  1  0
 15 14  1  0
 16 15  2  0
 17 10  1  0
 18 17  2  0
 19 17  1  0
 20 21  1  1
 20 19  1  0
 21 22  1  0
 22 30  1  0
 23 24  1  0
 23 22  2  0
 24 25  1  0
 25 30  2  0
 25 26  1  0
 26 27  2  0
 27 28  1  0
 29 28  2  0
 30 29  1  0
 31 20  1  0
 31 33  1  0
 32 31  2  0
M  END
$$$$
