VKM.pdb
     RDKit          3D

 25 24  0  0  1  0  0  0  0  0999 V2000
   17.6877   -9.2453  -17.5430 C   0  0  0  0  0  0  0  0  0  0  0  0
   17.3186  -10.5622  -16.9660 C   0  0  1  0  0  0  0  0  0  0  0  0
   16.1155  -11.1563  -17.6714 C   0  0  0  0  0  0  0  0  0  0  0  0
   18.4802  -11.4962  -16.9288 C   0  0  2  0  0  0  0  0  0  0  0  0
   18.0055  -12.7042  -16.2211 N   0  0  0  0  0  0  0  0  0  0  0  0
   19.5806  -10.9446  -16.1049 C   0  0  0  0  0  0  0  0  0  0  0  0
   19.3834  -10.6577  -14.8669 O   0  0  0  0  0  0  0  0  0  0  0  0
   20.9008  -10.6906  -16.5720 N   0  0  0  0  0  0  0  0  0  0  0  0
   21.8946  -10.0315  -15.7122 C   0  0  1  0  0  0  0  0  0  0  0  0
   23.2678  -10.5905  -16.0792 C   0  0  0  0  0  0  0  0  0  0  0  0
   23.4480  -11.9951  -15.6284 C   0  0  0  0  0  0  0  0  0  0  0  0
   24.7582  -12.5284  -16.1326 C   0  0  0  0  0  0  0  0  0  0  0  0
   24.9292  -13.9789  -15.8419 C   0  0  0  0  0  0  0  0  0  0  0  0
   26.1525  -14.5112  -16.4354 N   0  0  0  0  0  0  0  0  0  0  0  0
   21.8435   -8.5638  -15.8594 C   0  0  0  0  0  0  0  0  0  0  0  0
   21.5604   -8.0824  -16.9813 O   0  0  0  0  0  0  0  0  0  0  0  0
   18.8771   -1.8953  -16.0546 C   0  0  0  0  0  0  0  0  0  0  0  0
   18.9206   -3.7043  -15.9298 S   0  0  0  0  0  0  0  0  0  0  0  0
   20.5608   -4.2593  -15.3876 C   0  0  0  0  0  0  0  0  0  0  0  0
   20.6185   -5.7703  -15.3648 C   0  0  0  0  0  0  0  0  0  0  0  0
   21.9692   -6.2315  -14.8792 C   0  0  2  0  0  0  0  0  0  0  0  0
   22.0944   -7.6535  -14.8121 N   0  0  0  0  0  0  0  0  0  0  0  0
   22.3160   -5.5604  -13.6056 C   0  0  0  0  0  0  0  0  0  0  0  0
   22.2661   -6.2362  -12.5510 O   0  0  0  0  0  0  0  0  0  0  0  0
   22.6914   -4.2350  -13.5062 O   0  0  0  0  0  0  0  0  0  0  0  0
  2  1  1  6
  2  3  1  0
  4  6  1  0
  4  2  1  0
  4  5  1  1
  6  8  1  0
  7  6  2  0
  8  9  1  0
  9 10  1  6
 11 10  1  0
 11 12  1  0
 12 13  1  0
 13 14  1  0
 15  9  1  0
 16 15  2  0
 17 18  1  0
 18 19  1  0
 19 20  1  0
 21 20  1  1
 21 22  1  0
 22 15  1  0
 23 21  1  0
 23 25  1  0
 24 23  2  0
M  END
$$$$
