VKM.pdb
     RDKit          3D

 25 24  0  0  1  0  0  0  0  0999 V2000
   28.9991  -19.0782  -13.8761 C   0  0  0  0  0  0  0  0  0  0  0  0
   28.2838  -18.2182  -14.8517 C   0  0  1  0  0  0  0  0  0  0  0  0
   29.2020  -17.7736  -15.9729 C   0  0  0  0  0  0  0  0  0  0  0  0
   27.0387  -18.8668  -15.3538 C   0  0  2  0  0  0  0  0  0  0  0  0
   26.3641  -17.8531  -16.1921 N   0  0  0  0  0  0  0  0  0  0  0  0
   26.1073  -19.1639  -14.2410 C   0  0  0  0  0  0  0  0  0  0  0  0
   25.5475  -18.2064  -13.5902 O   0  0  0  0  0  0  0  0  0  0  0  0
   25.7521  -20.4701  -13.8014 N   0  0  0  0  0  0  0  0  0  0  0  0
   24.8689  -20.6650  -12.6424 C   0  0  1  0  0  0  0  0  0  0  0  0
   23.9046  -21.8000  -12.9808 C   0  0  0  0  0  0  0  0  0  0  0  0
   22.8952  -22.0248  -11.9135 C   0  0  0  0  0  0  0  0  0  0  0  0
   21.7646  -21.0483  -12.0670 C   0  0  0  0  0  0  0  0  0  0  0  0
   20.6724  -21.2866  -11.0831 C   0  0  0  0  0  0  0  0  0  0  0  0
   19.5965  -20.3088  -11.2186 N   0  0  0  0  0  0  0  0  0  0  0  0
   25.6432  -20.9507  -11.4187 C   0  0  0  0  0  0  0  0  0  0  0  0
   26.4316  -21.9248  -11.4209 O   0  0  0  0  0  0  0  0  0  0  0  0
   29.1114  -19.3113   -4.6089 C   0  0  0  0  0  0  0  0  0  0  0  0
   28.4886  -18.7298   -6.2101 S   0  0  0  0  0  0  0  0  0  0  0  0
   27.3928  -19.9729   -6.9492 C   0  0  0  0  0  0  0  0  0  0  0  0
   26.9706  -19.5379   -8.3346 C   0  0  0  0  0  0  0  0  0  0  0  0
   26.0616  -20.5716   -8.9494 C   0  0  2  0  0  0  0  0  0  0  0  0
   25.5565  -20.1941  -10.2319 N   0  0  0  0  0  0  0  0  0  0  0  0
   24.9933  -20.9508   -7.9968 C   0  0  0  0  0  0  0  0  0  0  0  0
   25.3340  -21.4313   -6.8902 O   0  0  0  0  0  0  0  0  0  0  0  0
   23.6432  -20.8085   -8.2509 O   0  0  0  0  0  0  0  0  0  0  0  0
  2  1  1  1
  2  3  1  0
  4  6  1  0
  4  2  1  0
  4  5  1  6
  6  8  1  0
  7  6  2  0
  8  9  1  0
  9 10  1  6
 11 10  1  0
 11 12  1  0
 12 13  1  0
 13 14  1  0
 15  9  1  0
 16 15  2  0
 17 18  1  0
 18 19  1  0
 19 20  1  0
 21 20  1  1
 21 22  1  0
 22 15  1  0
 23 21  1  0
 23 25  1  0
 24 23  2  0
M  END
$$$$
