VKM.pdb
     RDKit          3D

 25 24  0  0  1  0  0  0  0  0999 V2000
   20.0092  -10.9536  -18.5204 C   0  0  0  0  0  0  0  0  0  0  0  0
   20.1772  -11.0691  -19.9906 C   0  0  1  0  0  0  0  0  0  0  0  0
   20.3638   -9.7090  -20.6335 C   0  0  0  0  0  0  0  0  0  0  0  0
   21.2615  -12.0269  -20.3511 C   0  0  2  0  0  0  0  0  0  0  0  0
   21.1279  -12.2609  -21.8047 N   0  0  0  0  0  0  0  0  0  0  0  0
   21.0474  -13.3416  -19.7031 C   0  0  0  0  0  0  0  0  0  0  0  0
   19.9881  -14.0252  -19.9565 O   0  0  0  0  0  0  0  0  0  0  0  0
   21.9452  -13.9535  -18.7837 N   0  0  0  0  0  0  0  0  0  0  0  0
   21.6491  -15.2689  -18.1978 C   0  0  1  0  0  0  0  0  0  0  0  0
   22.9557  -15.8338  -17.6442 C   0  0  0  0  0  0  0  0  0  0  0  0
   22.7876  -17.1935  -17.0684 C   0  0  0  0  0  0  0  0  0  0  0  0
   22.9513  -18.2272  -18.1454 C   0  0  0  0  0  0  0  0  0  0  0  0
   22.6856  -19.6069  -17.6519 C   0  0  0  0  0  0  0  0  0  0  0  0
   23.0064  -20.6150  -18.6582 N   0  0  0  0  0  0  0  0  0  0  0  0
   20.6093  -15.1709  -17.1548 C   0  0  0  0  0  0  0  0  0  0  0  0
   20.6725  -14.2289  -16.3308 O   0  0  0  0  0  0  0  0  0  0  0  0
   16.5582  -11.8291  -15.5326 C   0  0  0  0  0  0  0  0  0  0  0  0
   15.4792  -13.2802  -15.3911 S   0  0  0  0  0  0  0  0  0  0  0  0
   16.4720  -14.7916  -15.2419 C   0  0  0  0  0  0  0  0  0  0  0  0
   17.6279  -14.7543  -16.2163 C   0  0  0  0  0  0  0  0  0  0  0  0
   18.4752  -15.9920  -16.0650 C   0  0  2  0  0  0  0  0  0  0  0  0
   19.5359  -16.0752  -17.0192 N   0  0  0  0  0  0  0  0  0  0  0  0
   17.6216  -17.2018  -16.0434 C   0  0  0  0  0  0  0  0  0  0  0  0
   16.7294  -17.2776  -15.1661 O   0  0  0  0  0  0  0  0  0  0  0  0
   17.7467  -18.2533  -16.9300 O   0  0  0  0  0  0  0  0  0  0  0  0
  2  1  1  1
  2  3  1  0
  4  6  1  0
  4  2  1  0
  4  5  1  6
  6  8  1  0
  7  6  2  0
  8  9  1  0
  9 10  1  1
 11 10  1  0
 11 12  1  0
 12 13  1  0
 13 14  1  0
 15  9  1  0
 16 15  2  0
 17 18  1  0
 18 19  1  0
 19 20  1  0
 21 20  1  6
 21 22  1  0
 22 15  1  0
 23 21  1  0
 23 25  1  0
 24 23  2  0
M  END
$$$$
