VKM.pdb
     RDKit          3D

 25 24  0  0  1  0  0  0  0  0999 V2000
   29.4491  -33.7215  -15.1836 C   0  0  0  0  0  0  0  0  0  0  0  0
   28.0281  -33.5754  -15.5869 C   0  0  1  0  0  0  0  0  0  0  0  0
   27.0928  -34.0828  -14.5072 C   0  0  0  0  0  0  0  0  0  0  0  0
   27.7124  -32.1808  -16.0096 C   0  0  2  0  0  0  0  0  0  0  0  0
   26.3719  -32.2397  -16.6300 N   0  0  0  0  0  0  0  0  0  0  0  0
   28.6367  -31.7251  -17.0736 C   0  0  0  0  0  0  0  0  0  0  0  0
   28.4645  -32.1060  -18.2897 O   0  0  0  0  0  0  0  0  0  0  0  0
   29.7504  -30.8621  -16.8719 N   0  0  0  0  0  0  0  0  0  0  0  0
   30.6176  -30.4704  -17.9926 C   0  0  1  0  0  0  0  0  0  0  0  0
   30.8549  -28.9651  -17.8901 C   0  0  0  0  0  0  0  0  0  0  0  0
   29.7461  -28.1738  -18.4843 C   0  0  0  0  0  0  0  0  0  0  0  0
   29.8878  -28.1399  -19.9790 C   0  0  0  0  0  0  0  0  0  0  0  0
   28.7951  -27.3690  -20.6345 C   0  0  0  0  0  0  0  0  0  0  0  0
   28.8907  -27.4223  -22.0905 N   0  0  0  0  0  0  0  0  0  0  0  0
   31.8850  -31.2267  -17.9812 C   0  0  0  0  0  0  0  0  0  0  0  0
   32.4683  -31.4044  -16.8864 O   0  0  0  0  0  0  0  0  0  0  0  0
   32.8025  -36.2112  -16.5385 C   0  0  0  0  0  0  0  0  0  0  0  0
   34.3233  -36.3478  -17.5174 S   0  0  0  0  0  0  0  0  0  0  0  0
   34.5811  -34.8409  -18.4948 C   0  0  0  0  0  0  0  0  0  0  0  0
   33.4039  -33.9059  -18.3314 C   0  0  0  0  0  0  0  0  0  0  0  0
   33.6105  -32.6611  -19.1565 C   0  0  2  0  0  0  0  0  0  0  0  0
   32.4933  -31.7703  -19.1314 N   0  0  0  0  0  0  0  0  0  0  0  0
   34.0344  -33.0173  -20.5299 C   0  0  0  0  0  0  0  0  0  0  0  0
   35.1078  -33.6495  -20.6698 O   0  0  0  0  0  0  0  0  0  0  0  0
   33.3208  -32.6964  -21.6680 O   0  0  0  0  0  0  0  0  0  0  0  0
  2  1  1  1
  2  3  1  0
  4  6  1  0
  4  2  1  0
  4  5  1  6
  6  8  1  0
  7  6  2  0
  8  9  1  0
  9 10  1  1
 11 10  1  0
 11 12  1  0
 12 13  1  0
 13 14  1  0
 15  9  1  0
 16 15  2  0
 17 18  1  0
 18 19  1  0
 19 20  1  0
 21 20  1  1
 21 22  1  0
 22 15  1  0
 23 21  1  0
 23 25  1  0
 24 23  2  0
M  END
$$$$
