VKM.pdb
     RDKit          3D

 25 24  0  0  1  0  0  0  0  0999 V2000
   25.1887  -13.4398  -15.0516 C   0  0  0  0  0  0  0  0  0  0  0  0
   24.3923  -12.2336  -15.3892 C   0  0  1  0  0  0  0  0  0  0  0  0
   25.1250  -11.3468  -16.3764 C   0  0  0  0  0  0  0  0  0  0  0  0
   23.0179  -12.5870  -15.8467 C   0  0  2  0  0  0  0  0  0  0  0  0
   23.1915  -13.3310  -17.1123 N   0  0  0  0  0  0  0  0  0  0  0  0
   22.2419  -11.3725  -16.1884 C   0  0  0  0  0  0  0  0  0  0  0  0
   22.3419  -10.8462  -17.3575 O   0  0  0  0  0  0  0  0  0  0  0  0
   21.3506  -10.6991  -15.3066 N   0  0  0  0  0  0  0  0  0  0  0  0
   20.5706   -9.5381  -15.7593 C   0  0  1  0  0  0  0  0  0  0  0  0
   19.1413   -9.7136  -15.2501 C   0  0  0  0  0  0  0  0  0  0  0  0
   18.2239  -10.2284  -16.2998 C   0  0  0  0  0  0  0  0  0  0  0  0
   18.0816  -11.7175  -16.1671 C   0  0  0  0  0  0  0  0  0  0  0  0
   17.1810  -12.2954  -17.2028 C   0  0  0  0  0  0  0  0  0  0  0  0
   17.0699  -13.7459  -17.0779 N   0  0  0  0  0  0  0  0  0  0  0  0
   21.1679   -8.2729  -15.2893 C   0  0  0  0  0  0  0  0  0  0  0  0
   21.6458   -8.2282  -14.1316 O   0  0  0  0  0  0  0  0  0  0  0  0
   23.4214   -0.8179  -16.9961 C   0  0  0  0  0  0  0  0  0  0  0  0
   22.6252   -2.3355  -17.5901 S   0  0  0  0  0  0  0  0  0  0  0  0
   22.5234   -3.5584  -16.2536 C   0  0  0  0  0  0  0  0  0  0  0  0
   21.8615   -4.8229  -16.7533 C   0  0  0  0  0  0  0  0  0  0  0  0
   21.7832   -5.8416  -15.6447 C   0  0  2  0  0  0  0  0  0  0  0  0
   21.2394   -7.0956  -16.0620 N   0  0  0  0  0  0  0  0  0  0  0  0
   21.0856   -5.2720  -14.4694 C   0  0  0  0  0  0  0  0  0  0  0  0
   19.8330   -5.3179  -14.4483 O   0  0  0  0  0  0  0  0  0  0  0  0
   21.7288   -4.6924  -13.3933 O   0  0  0  0  0  0  0  0  0  0  0  0
  2  1  1  6
  2  3  1  0
  4  6  1  0
  4  2  1  0
  4  5  1  6
  6  8  1  0
  7  6  2  0
  8  9  1  0
  9 10  1  1
 11 10  1  0
 11 12  1  0
 12 13  1  0
 13 14  1  0
 15  9  1  0
 16 15  2  0
 17 18  1  0
 18 19  1  0
 19 20  1  0
 21 20  1  6
 21 22  1  0
 22 15  1  0
 23 21  1  0
 23 25  1  0
 24 23  2  0
M  END
$$$$
