VKM.pdb
     RDKit          3D

 25 24  0  0  1  0  0  0  0  0999 V2000
   17.3729  -19.6650  -14.9554 C   0  0  0  0  0  0  0  0  0  0  0  0
   18.8184  -19.7800  -14.6384 C   0  0  1  0  0  0  0  0  0  0  0  0
   19.2916  -21.2170  -14.7326 C   0  0  0  0  0  0  0  0  0  0  0  0
   19.6423  -18.8500  -15.4627 C   0  0  2  0  0  0  0  0  0  0  0  0
   19.4856  -19.3023  -16.8614 N   0  0  0  0  0  0  0  0  0  0  0  0
   21.0822  -18.9911  -15.1454 C   0  0  0  0  0  0  0  0  0  0  0  0
   21.5436  -18.5681  -14.0220 O   0  0  0  0  0  0  0  0  0  0  0  0
   22.0527  -19.5804  -16.0036 N   0  0  0  0  0  0  0  0  0  0  0  0
   23.4759  -19.6017  -15.6357 C   0  0  1  0  0  0  0  0  0  0  0  0
   24.0702  -20.9070  -16.1606 C   0  0  0  0  0  0  0  0  0  0  0  0
   23.7631  -22.0649  -15.2811 C   0  0  0  0  0  0  0  0  0  0  0  0
   24.3873  -23.3106  -15.8414 C   0  0  0  0  0  0  0  0  0  0  0  0
   24.1111  -24.5096  -15.0024 C   0  0  0  0  0  0  0  0  0  0  0  0
   24.6609  -25.7255  -15.5950 N   0  0  0  0  0  0  0  0  0  0  0  0
   24.1865  -18.4229  -16.1686 C   0  0  0  0  0  0  0  0  0  0  0  0
   23.5129  -17.4869  -16.6591 O   0  0  0  0  0  0  0  0  0  0  0  0
   27.2763  -11.8124  -15.4937 C   0  0  0  0  0  0  0  0  0  0  0  0
   26.3749  -13.2909  -14.9539 S   0  0  0  0  0  0  0  0  0  0  0  0
   26.7266  -14.6834  -16.0628 C   0  0  0  0  0  0  0  0  0  0  0  0
   25.9537  -15.9070  -15.6243 C   0  0  0  0  0  0  0  0  0  0  0  0
   26.3148  -17.0875  -16.4898 C   0  0  2  0  0  0  0  0  0  0  0  0
   25.5887  -18.2746  -16.1642 N   0  0  0  0  0  0  0  0  0  0  0  0
   27.7814  -17.2914  -16.4980 C   0  0  0  0  0  0  0  0  0  0  0  0
   28.2758  -18.0484  -15.6296 O   0  0  0  0  0  0  0  0  0  0  0  0
   28.6402  -16.6994  -17.4032 O   0  0  0  0  0  0  0  0  0  0  0  0
  2  1  1  6
  2  3  1  0
  4  6  1  0
  4  2  1  0
  4  5  1  6
  6  8  1  0
  7  6  2  0
  8  9  1  0
  9 10  1  6
 11 10  1  0
 11 12  1  0
 12 13  1  0
 13 14  1  0
 15  9  1  0
 16 15  2  0
 17 18  1  0
 18 19  1  0
 19 20  1  0
 21 20  1  1
 21 22  1  0
 22 15  1  0
 23 21  1  0
 23 25  1  0
 24 23  2  0
M  END
$$$$
