VKM.pdb
     RDKit          3D

 25 24  0  0  1  0  0  0  0  0999 V2000
   20.8739  -15.9452  -16.9070 C   0  0  0  0  0  0  0  0  0  0  0  0
   21.7347  -16.9769  -16.2762 C   0  0  1  0  0  0  0  0  0  0  0  0
   20.9049  -18.0458  -15.5930 C   0  0  0  0  0  0  0  0  0  0  0  0
   22.7178  -17.5450  -17.2427 C   0  0  2  0  0  0  0  0  0  0  0  0
   21.9250  -18.3330  -18.2101 N   0  0  0  0  0  0  0  0  0  0  0  0
   23.6246  -18.5076  -16.5756 C   0  0  0  0  0  0  0  0  0  0  0  0
   23.1986  -19.6727  -16.2369 O   0  0  0  0  0  0  0  0  0  0  0  0
   24.9895  -18.2575  -16.2593 N   0  0  0  0  0  0  0  0  0  0  0  0
   25.8040  -19.2673  -15.5677 C   0  0  1  0  0  0  0  0  0  0  0  0
   27.2718  -18.9395  -15.8335 C   0  0  0  0  0  0  0  0  0  0  0  0
   28.1909  -19.9808  -15.3047 C   0  0  0  0  0  0  0  0  0  0  0  0
   28.3214  -21.0985  -16.2992 C   0  0  0  0  0  0  0  0  0  0  0  0
   29.2230  -22.1821  -15.8190 C   0  0  0  0  0  0  0  0  0  0  0  0
   29.2998  -23.2865  -16.7709 N   0  0  0  0  0  0  0  0  0  0  0  0
   25.5036  -19.3027  -14.1231 C   0  0  0  0  0  0  0  0  0  0  0  0
   25.1044  -18.2529  -13.5670 O   0  0  0  0  0  0  0  0  0  0  0  0
   21.0811  -18.5318  -10.8797 C   0  0  0  0  0  0  0  0  0  0  0  0
   21.4843  -20.1711  -10.2164 S   0  0  0  0  0  0  0  0  0  0  0  0
   23.2598  -20.5020  -10.3899 C   0  0  0  0  0  0  0  0  0  0  0  0
   23.6760  -20.3676  -11.8376 C   0  0  0  0  0  0  0  0  0  0  0  0
   25.1589  -20.6014  -11.9758 C   0  0  2  0  0  0  0  0  0  0  0  0
   25.6362  -20.4502  -13.3144 N   0  0  0  0  0  0  0  0  0  0  0  0
   25.5347  -21.9002  -11.3720 C   0  0  0  0  0  0  0  0  0  0  0  0
   25.4801  -22.9234  -12.0941 O   0  0  0  0  0  0  0  0  0  0  0  0
   25.9420  -22.0555  -10.0614 O   0  0  0  0  0  0  0  0  0  0  0  0
  2  1  1  6
  2  3  1  0
  4  6  1  0
  4  2  1  0
  4  5  1  6
  6  8  1  0
  7  6  2  0
  8  9  1  0
  9 10  1  1
 11 10  1  0
 11 12  1  0
 12 13  1  0
 13 14  1  0
 15  9  1  0
 16 15  2  0
 17 18  1  0
 18 19  1  0
 19 20  1  0
 21 20  1  6
 21 22  1  0
 22 15  1  0
 23 21  1  0
 23 25  1  0
 24 23  2  0
M  END
$$$$
