VKM.pdb
     RDKit          3D

 25 24  0  0  1  0  0  0  0  0999 V2000
   16.9103  -11.0452  -18.5012 C   0  0  0  0  0  0  0  0  0  0  0  0
   16.2706  -11.2780  -17.1822 C   0  0  1  0  0  0  0  0  0  0  0  0
   15.5860  -12.6296  -17.1315 C   0  0  0  0  0  0  0  0  0  0  0  0
   17.2297  -11.0789  -16.0581 C   0  0  2  0  0  0  0  0  0  0  0  0
   16.4835  -11.4110  -14.8259 N   0  0  0  0  0  0  0  0  0  0  0  0
   17.6144   -9.6540  -15.9328 C   0  0  0  0  0  0  0  0  0  0  0  0
   18.4022   -9.1162  -16.7954 O   0  0  0  0  0  0  0  0  0  0  0  0
   17.1737   -8.7779  -14.9014 N   0  0  0  0  0  0  0  0  0  0  0  0
   17.7022   -7.4104  -14.7921 C   0  0  1  0  0  0  0  0  0  0  0  0
   16.6402   -6.5575  -14.1012 C   0  0  0  0  0  0  0  0  0  0  0  0
   15.4841   -6.2626  -14.9873 C   0  0  0  0  0  0  0  0  0  0  0  0
   14.5025   -5.3820  -14.2688 C   0  0  0  0  0  0  0  0  0  0  0  0
   13.3224   -5.0432  -15.1116 C   0  0  0  0  0  0  0  0  0  0  0  0
   12.3468   -4.2384  -14.3818 N   0  0  0  0  0  0  0  0  0  0  0  0
   18.9844   -7.3866  -14.0614 C   0  0  0  0  0  0  0  0  0  0  0  0
   19.2148   -8.2897  -13.2237 O   0  0  0  0  0  0  0  0  0  0  0  0
   25.8651   -9.5908  -13.7701 C   0  0  0  0  0  0  0  0  0  0  0  0
   24.1660   -9.4653  -14.3924 S   0  0  0  0  0  0  0  0  0  0  0  0
   23.4374   -7.8726  -13.9187 C   0  0  0  0  0  0  0  0  0  0  0  0
   21.9955   -7.8043  -14.3695 C   0  0  0  0  0  0  0  0  0  0  0  0
   21.3600   -6.5253  -13.8866 C   0  0  2  0  0  0  0  0  0  0  0  0
   19.9811   -6.4057  -14.2425 N   0  0  0  0  0  0  0  0  0  0  0  0
   22.1681   -5.3576  -14.3063 C   0  0  0  0  0  0  0  0  0  0  0  0
   21.8992   -4.8197  -15.4062 O   0  0  0  0  0  0  0  0  0  0  0  0
   23.2009   -4.8229  -13.5612 O   0  0  0  0  0  0  0  0  0  0  0  0
  2  1  1  6
  2  3  1  0
  4  6  1  0
  4  2  1  0
  4  5  1  1
  6  8  1  0
  7  6  2  0
  8  9  1  0
  9 10  1  1
 11 10  1  0
 11 12  1  0
 12 13  1  0
 13 14  1  0
 15  9  1  0
 16 15  2  0
 17 18  1  0
 18 19  1  0
 19 20  1  0
 21 20  1  6
 21 22  1  0
 22 15  1  0
 23 21  1  0
 23 25  1  0
 24 23  2  0
M  END
$$$$
