VKM.pdb
     RDKit          3D

 25 24  0  0  1  0  0  0  0  0999 V2000
   25.5761  -11.7002  -15.2577 C   0  0  0  0  0  0  0  0  0  0  0  0
   25.2975  -12.8937  -16.0950 C   0  0  1  0  0  0  0  0  0  0  0  0
   26.3304  -13.9799  -15.8691 C   0  0  0  0  0  0  0  0  0  0  0  0
   23.9011  -13.3841  -15.9138 C   0  0  2  0  0  0  0  0  0  0  0  0
   23.7192  -14.4634  -16.9075 N   0  0  0  0  0  0  0  0  0  0  0  0
   22.9181  -12.3334  -16.2656 C   0  0  0  0  0  0  0  0  0  0  0  0
   22.7713  -11.9654  -17.4890 O   0  0  0  0  0  0  0  0  0  0  0  0
   22.0768  -11.6595  -15.3362 N   0  0  0  0  0  0  0  0  0  0  0  0
   21.1866  -10.5729  -15.7700 C   0  0  1  0  0  0  0  0  0  0  0  0
   19.7598  -10.9641  -15.3906 C   0  0  0  0  0  0  0  0  0  0  0  0
   18.7655   -9.9299  -15.7784 C   0  0  0  0  0  0  0  0  0  0  0  0
   17.3836  -10.3869  -15.4084 C   0  0  0  0  0  0  0  0  0  0  0  0
   16.3348   -9.4147  -15.8238 C   0  0  0  0  0  0  0  0  0  0  0  0
   15.0006   -9.8499  -15.4209 N   0  0  0  0  0  0  0  0  0  0  0  0
   21.5795   -9.2837  -15.1683 C   0  0  0  0  0  0  0  0  0  0  0  0
   21.8309   -9.2457  -13.9412 O   0  0  0  0  0  0  0  0  0  0  0  0
   22.7494   -1.4590  -16.2055 C   0  0  0  0  0  0  0  0  0  0  0  0
   22.5999   -3.0895  -16.9857 S   0  0  0  0  0  0  0  0  0  0  0  0
   22.3410   -4.3696  -15.7261 C   0  0  0  0  0  0  0  0  0  0  0  0
   22.2049   -5.7257  -16.3813 C   0  0  0  0  0  0  0  0  0  0  0  0
   21.9670   -6.7862  -15.3364 C   0  0  2  0  0  0  0  0  0  0  0  0
   21.6931   -8.0761  -15.8874 N   0  0  0  0  0  0  0  0  0  0  0  0
   20.9354   -6.3387  -14.3731 C   0  0  0  0  0  0  0  0  0  0  0  0
   21.3120   -5.7089  -13.3567 O   0  0  0  0  0  0  0  0  0  0  0  0
   19.5824   -6.5717  -14.5240 O   0  0  0  0  0  0  0  0  0  0  0  0
  2  1  1  1
  2  3  1  0
  4  6  1  0
  4  2  1  0
  4  5  1  6
  6  8  1  0
  7  6  2  0
  8  9  1  0
  9 10  1  1
 11 10  1  0
 11 12  1  0
 12 13  1  0
 13 14  1  0
 15  9  1  0
 16 15  2  0
 17 18  1  0
 18 19  1  0
 19 20  1  0
 21 20  1  6
 21 22  1  0
 22 15  1  0
 23 21  1  0
 23 25  1  0
 24 23  2  0
M  END
$$$$
