VKM.pdb
     RDKit          3D

 25 24  0  0  1  0  0  0  0  0999 V2000
   25.7168  -15.6706  -14.8861 C   0  0  0  0  0  0  0  0  0  0  0  0
   24.8132  -15.8827  -16.0444 C   0  0  1  0  0  0  0  0  0  0  0  0
   24.4201  -14.5668  -16.6862 C   0  0  0  0  0  0  0  0  0  0  0  0
   25.3859  -16.8497  -17.0243 C   0  0  2  0  0  0  0  0  0  0  0  0
   24.3606  -17.0147  -18.0764 N   0  0  0  0  0  0  0  0  0  0  0  0
   25.5629  -18.1866  -16.4115 C   0  0  0  0  0  0  0  0  0  0  0  0
   24.5414  -18.8566  -16.0096 O   0  0  0  0  0  0  0  0  0  0  0  0
   26.8146  -18.8352  -16.2165 N   0  0  0  0  0  0  0  0  0  0  0  0
   26.8992  -20.1209  -15.5086 C   0  0  1  0  0  0  0  0  0  0  0  0
   28.2861  -20.7040  -15.7720 C   0  0  0  0  0  0  0  0  0  0  0  0
   28.2942  -22.1896  -15.7334 C   0  0  0  0  0  0  0  0  0  0  0  0
   29.6781  -22.6996  -16.0162 C   0  0  0  0  0  0  0  0  0  0  0  0
   29.7464  -24.1872  -16.0085 C   0  0  0  0  0  0  0  0  0  0  0  0
   31.0881  -24.6709  -16.3214 N   0  0  0  0  0  0  0  0  0  0  0  0
   26.6387  -19.9578  -14.0650 C   0  0  0  0  0  0  0  0  0  0  0  0
   27.0161  -18.9036  -13.5023 O   0  0  0  0  0  0  0  0  0  0  0  0
   21.5055  -18.2858  -10.4270 C   0  0  0  0  0  0  0  0  0  0  0  0
   21.9520  -20.0194  -10.1349 S   0  0  0  0  0  0  0  0  0  0  0  0
   23.7434  -20.2470  -10.3111 C   0  0  0  0  0  0  0  0  0  0  0  0
   24.1094  -20.3918  -11.7713 C   0  0  0  0  0  0  0  0  0  0  0  0
   25.5683  -20.7459  -11.9088 C   0  0  2  0  0  0  0  0  0  0  0  0
   25.9864  -20.9180  -13.2645 N   0  0  0  0  0  0  0  0  0  0  0  0
   25.9006  -21.9056  -11.0502 C   0  0  0  0  0  0  0  0  0  0  0  0
   25.8186  -23.0520  -11.5509 O   0  0  0  0  0  0  0  0  0  0  0  0
   26.2957  -21.8039   -9.7307 O   0  0  0  0  0  0  0  0  0  0  0  0
  2  1  1  1
  2  3  1  0
  4  6  1  0
  4  2  1  0
  4  5  1  6
  6  8  1  0
  7  6  2  0
  8  9  1  0
  9 10  1  1
 11 10  1  0
 11 12  1  0
 12 13  1  0
 13 14  1  0
 15  9  1  0
 16 15  2  0
 17 18  1  0
 18 19  1  0
 19 20  1  0
 21 20  1  6
 21 22  1  0
 22 15  1  0
 23 21  1  0
 23 25  1  0
 24 23  2  0
M  END
$$$$
