VKM.pdb
     RDKit          3D

 25 24  0  0  1  0  0  0  0  0999 V2000
   29.5162  -20.5835  -13.3282 C   0  0  0  0  0  0  0  0  0  0  0  0
   29.1103  -19.5708  -14.3346 C   0  0  1  0  0  0  0  0  0  0  0  0
   30.0446  -19.5734  -15.5283 C   0  0  0  0  0  0  0  0  0  0  0  0
   27.6795  -19.7212  -14.7263 C   0  0  2  0  0  0  0  0  0  0  0  0
   27.3961  -18.6090  -15.6580 N   0  0  0  0  0  0  0  0  0  0  0  0
   26.7852  -19.5192  -13.5630 C   0  0  0  0  0  0  0  0  0  0  0  0
   26.6132  -18.3427  -13.0730 O   0  0  0  0  0  0  0  0  0  0  0  0
   26.0597  -20.5508  -12.9032 N   0  0  0  0  0  0  0  0  0  0  0  0
   25.1360  -20.2417  -11.8020 C   0  0  1  0  0  0  0  0  0  0  0  0
   23.7422  -20.7021  -12.2239 C   0  0  0  0  0  0  0  0  0  0  0  0
   22.7012  -20.3510  -11.2231 C   0  0  0  0  0  0  0  0  0  0  0  0
   21.3736  -20.9070  -11.6517 C   0  0  0  0  0  0  0  0  0  0  0  0
   20.2641  -20.4799  -10.7549 C   0  0  0  0  0  0  0  0  0  0  0  0
   18.9701  -20.9717  -11.2196 N   0  0  0  0  0  0  0  0  0  0  0  0
   25.5667  -20.8818  -10.5437 C   0  0  0  0  0  0  0  0  0  0  0  0
   25.7733  -22.1178  -10.5389 O   0  0  0  0  0  0  0  0  0  0  0  0
   29.4125  -18.5933   -5.5712 C   0  0  0  0  0  0  0  0  0  0  0  0
   27.9986  -19.3502   -4.7240 S   0  0  0  0  0  0  0  0  0  0  0  0
   27.1389  -20.4984   -5.8353 C   0  0  0  0  0  0  0  0  0  0  0  0
   26.8422  -19.8226   -7.1551 C   0  0  0  0  0  0  0  0  0  0  0  0
   26.1148  -20.7718   -8.0731 C   0  0  2  0  0  0  0  0  0  0  0  0
   25.7645  -20.1904   -9.3307 N   0  0  0  0  0  0  0  0  0  0  0  0
   24.9585  -21.3792   -7.3756 C   0  0  0  0  0  0  0  0  0  0  0  0
   23.8135  -20.9465   -7.6461 O   0  0  0  0  0  0  0  0  0  0  0  0
   25.0621  -22.3939   -6.4443 O   0  0  0  0  0  0  0  0  0  0  0  0
  2  1  1  1
  2  3  1  0
  4  6  1  0
  4  2  1  0
  4  5  1  6
  6  8  1  0
  7  6  2  0
  8  9  1  0
  9 10  1  6
 11 10  1  0
 11 12  1  0
 12 13  1  0
 13 14  1  0
 15  9  1  0
 16 15  2  0
 17 18  1  0
 18 19  1  0
 19 20  1  0
 21 20  1  1
 21 22  1  0
 22 15  1  0
 23 21  1  0
 23 25  1  0
 24 23  2  0
M  END
$$$$
