EDD.pdb
     RDKit          3D

 26 25  0  0  1  0  0  0  0  0999 V2000
   24.2381  -18.4114  -20.3696 N   0  0  0  0  0  0  0  0  0  0  0  0
   24.8315  -17.9151  -19.1324 C   0  0  1  0  0  0  0  0  0  0  0  0
   24.2821  -16.5812  -18.7406 C   0  0  0  0  0  0  0  0  0  0  0  0
   22.7999  -16.4559  -18.7883 C   0  0  0  0  0  0  0  0  0  0  0  0
   22.2486  -15.1507  -18.4549 C   0  0  0  0  0  0  0  0  0  0  0  0
   21.0146  -14.9517  -18.4240 O   0  0  0  0  0  0  0  0  0  0  0  0
   24.6064  -18.9304  -18.0417 C   0  0  0  0  0  0  0  0  0  0  0  0
   23.5249  -19.5709  -18.0069 O   0  0  0  0  0  0  0  0  0  0  0  0
   23.0926  -14.0932  -18.1625 O   0  0  0  0  0  0  0  0  0  0  0  0
   25.6004  -19.1715  -17.0541 N   0  0  0  0  0  0  0  0  0  0  0  0
   25.3783  -20.1887  -16.0849 C   0  0  1  0  0  0  0  0  0  0  0  0
   26.6050  -20.5928  -15.3231 C   0  0  0  0  0  0  0  0  0  0  0  0
   27.3932  -21.6389  -15.9650 C   0  0  0  0  0  0  0  0  0  0  0  0
   28.4617  -22.0252  -15.4377 O   0  0  0  0  0  0  0  0  0  0  0  0
   24.3600  -19.7278  -15.0753 C   0  0  0  0  0  0  0  0  0  0  0  0
   24.3983  -18.5588  -14.6367 O   0  0  0  0  0  0  0  0  0  0  0  0
   26.9974  -22.2278  -17.1518 O   0  0  0  0  0  0  0  0  0  0  0  0
   23.3702  -20.6260  -14.6346 N   0  0  0  0  0  0  0  0  0  0  0  0
   22.3582  -20.2614  -13.6399 C   0  0  1  0  0  0  0  0  0  0  0  0
   21.0558  -20.8419  -14.0927 C   0  0  0  0  0  0  0  0  0  0  0  0
   20.4245  -20.1640  -15.2284 C   0  0  0  0  0  0  0  0  0  0  0  0
   19.8159  -19.0754  -15.2157 O   0  0  0  0  0  0  0  0  0  0  0  0
   22.8393  -20.7712  -12.3371 C   0  0  0  0  0  0  0  0  0  0  0  0
   22.3122  -20.3720  -11.1177 O   0  0  0  0  0  0  0  0  0  0  0  0
   20.5091  -20.8006  -16.4660 O   0  0  0  0  0  0  0  0  0  0  0  0
   23.7881  -21.6266  -12.2538 O   0  0  0  0  0  0  0  0  0  0  0  0
  2  1  1  6
  2  7  1  0
  3  4  1  0
  3  2  1  0
  4  5  1  0
  5  6  2  0
  7 10  1  0
  7  8  2  0
  9  5  1  0
 10 11  1  0
 11 12  1  1
 12 13  1  0
 13 17  1  0
 14 13  2  0
 15 11  1  0
 15 16  2  0
 18 15  1  0
 19 18  1  0
 19 20  1  6
 21 20  1  0
 22 21  2  0
 23 19  1  0
 24 23  1  0
 25 21  1  0
 26 23  2  0
M  END
$$$$
