EDD.pdb
     RDKit          3D

 26 25  0  0  1  0  0  0  0  0999 V2000
   14.0316  -10.0677  -15.7197 N   0  0  0  0  0  0  0  0  0  0  0  0
   14.9149   -9.7727  -14.5963 C   0  0  1  0  0  0  0  0  0  0  0  0
   15.8383  -10.9086  -14.2933 C   0  0  0  0  0  0  0  0  0  0  0  0
   16.5604  -11.4809  -15.4621 C   0  0  0  0  0  0  0  0  0  0  0  0
   17.3440  -12.6824  -15.2151 C   0  0  0  0  0  0  0  0  0  0  0  0
   16.9074  -13.8177  -15.5049 O   0  0  0  0  0  0  0  0  0  0  0  0
   15.6900   -8.5170  -14.9018 C   0  0  0  0  0  0  0  0  0  0  0  0
   16.3140   -8.4247  -15.9895 O   0  0  0  0  0  0  0  0  0  0  0  0
   18.6029  -12.5874  -14.6476 O   0  0  0  0  0  0  0  0  0  0  0  0
   15.7238   -7.4381  -13.9763 N   0  0  0  0  0  0  0  0  0  0  0  0
   16.4890   -6.2813  -14.2920 C   0  0  1  0  0  0  0  0  0  0  0  0
   15.9604   -5.0109  -13.6960 C   0  0  0  0  0  0  0  0  0  0  0  0
   16.6760   -3.8096  -14.1112 C   0  0  0  0  0  0  0  0  0  0  0  0
   16.5143   -2.7395  -13.4803 O   0  0  0  0  0  0  0  0  0  0  0  0
   17.9036   -6.4471  -13.8018 C   0  0  0  0  0  0  0  0  0  0  0  0
   18.1199   -6.8399  -12.6359 O   0  0  0  0  0  0  0  0  0  0  0  0
   17.5388   -3.8096  -15.1917 O   0  0  0  0  0  0  0  0  0  0  0  0
   18.9728   -6.1555  -14.6693 N   0  0  0  0  0  0  0  0  0  0  0  0
   20.3749   -6.3319  -14.2829 C   0  0  1  0  0  0  0  0  0  0  0  0
   21.0295   -7.1636  -15.3405 C   0  0  0  0  0  0  0  0  0  0  0  0
   22.4622   -7.4081  -15.1530 C   0  0  0  0  0  0  0  0  0  0  0  0
   23.3627   -7.3207  -16.0117 O   0  0  0  0  0  0  0  0  0  0  0  0
   20.9464   -4.9765  -14.1248 C   0  0  0  0  0  0  0  0  0  0  0  0
   20.2303   -3.8122  -14.3610 O   0  0  0  0  0  0  0  0  0  0  0  0
   22.8738   -7.7807  -13.8740 O   0  0  0  0  0  0  0  0  0  0  0  0
   22.1577   -4.7919  -13.7542 O   0  0  0  0  0  0  0  0  0  0  0  0
  2  1  1  6
  2  7  1  0
  3  4  1  0
  3  2  1  0
  4  5  1  0
  5  6  2  0
  7 10  1  0
  7  8  2  0
  9  5  1  0
 10 11  1  0
 11 12  1  1
 12 13  1  0
 13 17  1  0
 14 13  2  0
 15 11  1  0
 15 16  2  0
 18 15  1  0
 19 18  1  0
 19 20  1  6
 21 20  1  0
 22 21  2  0
 23 19  1  0
 24 23  1  0
 25 21  1  0
 26 23  2  0
M  END
$$$$
