EDD.pdb
     RDKit          3D

 26 25  0  0  1  0  0  0  0  0999 V2000
   19.1342  -11.9201  -17.8447 N   0  0  0  0  0  0  0  0  0  0  0  0
   18.7296  -11.5499  -16.4925 C   0  0  1  0  0  0  0  0  0  0  0  0
   18.5255  -12.7459  -15.6191 C   0  0  0  0  0  0  0  0  0  0  0  0
   17.7198  -13.8472  -16.2132 C   0  0  0  0  0  0  0  0  0  0  0  0
   16.8951  -14.6163  -15.2929 C   0  0  0  0  0  0  0  0  0  0  0  0
   15.8768  -14.1231  -14.7606 O   0  0  0  0  0  0  0  0  0  0  0  0
   19.7687  -10.6284  -15.9074 C   0  0  0  0  0  0  0  0  0  0  0  0
   19.6530  -10.2431  -14.7162 O   0  0  0  0  0  0  0  0  0  0  0  0
   17.2285  -15.9245  -14.9873 O   0  0  0  0  0  0  0  0  0  0  0  0
   20.8755  -10.1909  -16.6853 N   0  0  0  0  0  0  0  0  0  0  0  0
   21.9004   -9.4279  -16.0599 C   0  0  1  0  0  0  0  0  0  0  0  0
   23.2764   -9.6872  -16.5963 C   0  0  0  0  0  0  0  0  0  0  0  0
   23.6866  -11.0860  -16.5467 C   0  0  0  0  0  0  0  0  0  0  0  0
   23.9383  -11.6221  -15.4429 O   0  0  0  0  0  0  0  0  0  0  0  0
   21.6270   -7.9565  -16.2304 C   0  0  0  0  0  0  0  0  0  0  0  0
   21.1047   -7.5349  -17.2839 O   0  0  0  0  0  0  0  0  0  0  0  0
   23.8094  -11.8526  -17.6909 O   0  0  0  0  0  0  0  0  0  0  0  0
   21.9658   -7.0674  -15.1933 N   0  0  0  0  0  0  0  0  0  0  0  0
   21.6273   -5.6425  -15.2316 C   0  0  1  0  0  0  0  0  0  0  0  0
   20.1379   -5.5387  -15.3291 C   0  0  0  0  0  0  0  0  0  0  0  0
   19.5928   -4.1821  -15.2285 C   0  0  0  0  0  0  0  0  0  0  0  0
   19.0422   -3.6602  -14.2384 O   0  0  0  0  0  0  0  0  0  0  0  0
   22.2079   -5.0345  -14.0143 C   0  0  0  0  0  0  0  0  0  0  0  0
   22.5507   -3.6938  -13.9179 O   0  0  0  0  0  0  0  0  0  0  0  0
   19.6971   -3.3775  -16.3624 O   0  0  0  0  0  0  0  0  0  0  0  0
   22.4339   -5.7203  -12.9572 O   0  0  0  0  0  0  0  0  0  0  0  0
  2  1  1  6
  2  7  1  0
  3  4  1  0
  3  2  1  0
  4  5  1  0
  5  6  2  0
  7 10  1  0
  7  8  2  0
  9  5  1  0
 10 11  1  0
 11 12  1  6
 12 13  1  0
 13 17  1  0
 14 13  2  0
 15 11  1  0
 15 16  2  0
 18 15  1  0
 19 18  1  0
 19 20  1  1
 21 20  1  0
 22 21  2  0
 23 19  1  0
 24 23  1  0
 25 21  1  0
 26 23  2  0
M  END
$$$$
