EDD.pdb
     RDKit          3D

 26 25  0  0  1  0  0  0  0  0999 V2000
   15.1344   -9.2245   -8.3836 N   0  0  0  0  0  0  0  0  0  0  0  0
   14.8900   -9.4495   -9.8044 C   0  0  1  0  0  0  0  0  0  0  0  0
   13.4308   -9.4638  -10.1290 C   0  0  0  0  0  0  0  0  0  0  0  0
   12.5812  -10.3003   -9.2383 C   0  0  0  0  0  0  0  0  0  0  0  0
   11.1502  -10.2832   -9.5041 C   0  0  0  0  0  0  0  0  0  0  0  0
   10.6502  -10.9572  -10.4310 O   0  0  0  0  0  0  0  0  0  0  0  0
   15.6063   -8.3865  -10.5970 C   0  0  0  0  0  0  0  0  0  0  0  0
   15.4387   -8.3249  -11.8415 O   0  0  0  0  0  0  0  0  0  0  0  0
   10.3071   -9.5101   -8.7246 O   0  0  0  0  0  0  0  0  0  0  0  0
   16.4674   -7.4550   -9.9548 N   0  0  0  0  0  0  0  0  0  0  0  0
   17.1105   -6.4562  -10.7374 C   0  0  1  0  0  0  0  0  0  0  0  0
   17.4669   -5.2130   -9.9786 C   0  0  0  0  0  0  0  0  0  0  0  0
   16.3193   -4.4209   -9.5508 C   0  0  0  0  0  0  0  0  0  0  0  0
   15.4569   -4.0711  -10.3893 O   0  0  0  0  0  0  0  0  0  0  0  0
   18.3871   -7.0005  -11.3231 C   0  0  0  0  0  0  0  0  0  0  0  0
   19.1449   -7.7067  -10.6249 O   0  0  0  0  0  0  0  0  0  0  0  0
   16.1466   -4.0368   -8.2337 O   0  0  0  0  0  0  0  0  0  0  0  0
   18.7136   -6.7048  -12.6599 N   0  0  0  0  0  0  0  0  0  0  0  0
   19.9111   -7.2348  -13.3168 C   0  0  1  0  0  0  0  0  0  0  0  0
   19.6340   -8.6625  -13.6682 C   0  0  0  0  0  0  0  0  0  0  0  0
   20.6815   -9.3361  -14.4408 C   0  0  0  0  0  0  0  0  0  0  0  0
   21.8340   -8.9203  -14.6746 O   0  0  0  0  0  0  0  0  0  0  0  0
   20.1835   -6.3575  -14.4765 C   0  0  0  0  0  0  0  0  0  0  0  0
   21.4563   -5.9407  -14.8379 O   0  0  0  0  0  0  0  0  0  0  0  0
   20.3624  -10.5823  -14.9785 O   0  0  0  0  0  0  0  0  0  0  0  0
   19.2453   -5.9215  -15.2303 O   0  0  0  0  0  0  0  0  0  0  0  0
  2  1  1  1
  2  7  1  0
  3  4  1  0
  3  2  1  0
  4  5  1  0
  5  6  2  0
  7 10  1  0
  7  8  2  0
  9  5  1  0
 10 11  1  0
 11 12  1  1
 12 13  1  0
 13 17  1  0
 14 13  2  0
 15 11  1  0
 15 16  2  0
 18 15  1  0
 19 18  1  0
 19 20  1  6
 21 20  1  0
 22 21  2  0
 23 19  1  0
 24 23  1  0
 25 21  1  0
 26 23  2  0
M  END
$$$$
