EDD.pdb
     RDKit          3D

 26 25  0  0  1  0  0  0  0  0999 V2000
   12.5842  -10.6135   -9.3740 N   0  0  0  0  0  0  0  0  0  0  0  0
   13.9980  -10.3973   -9.6631 C   0  0  1  0  0  0  0  0  0  0  0  0
   14.4393  -11.1276  -10.8906 C   0  0  0  0  0  0  0  0  0  0  0  0
   15.4514  -12.1972  -10.6747 C   0  0  0  0  0  0  0  0  0  0  0  0
   15.9021  -12.9119  -11.8600 C   0  0  0  0  0  0  0  0  0  0  0  0
   15.3650  -13.9818  -12.2209 O   0  0  0  0  0  0  0  0  0  0  0  0
   14.2473   -8.9174   -9.7996 C   0  0  0  0  0  0  0  0  0  0  0  0
   13.5086   -8.2328  -10.5524 O   0  0  0  0  0  0  0  0  0  0  0  0
   16.9471  -12.4124  -12.6180 O   0  0  0  0  0  0  0  0  0  0  0  0
   15.3057   -8.2881   -9.0887 N   0  0  0  0  0  0  0  0  0  0  0  0
   15.5453   -6.9008   -9.2925 C   0  0  1  0  0  0  0  0  0  0  0  0
   15.3466   -6.0548   -8.0706 C   0  0  0  0  0  0  0  0  0  0  0  0
   15.4192   -4.6188   -8.3160 C   0  0  0  0  0  0  0  0  0  0  0  0
   15.5093   -3.8261   -7.3504 O   0  0  0  0  0  0  0  0  0  0  0  0
   16.9612   -6.6834   -9.7581 C   0  0  0  0  0  0  0  0  0  0  0  0
   17.9155   -7.1401   -9.0940 O   0  0  0  0  0  0  0  0  0  0  0  0
   15.3917   -4.0938   -9.5949 O   0  0  0  0  0  0  0  0  0  0  0  0
   17.1941   -5.9628  -10.9445 N   0  0  0  0  0  0  0  0  0  0  0  0
   18.5238   -5.8413  -11.5474 C   0  0  1  0  0  0  0  0  0  0  0  0
   19.0336   -7.2269  -11.7901 C   0  0  0  0  0  0  0  0  0  0  0  0
   20.3068   -7.3128  -12.5107 C   0  0  0  0  0  0  0  0  0  0  0  0
   21.0040   -6.3668  -12.9289 O   0  0  0  0  0  0  0  0  0  0  0  0
   18.3639   -5.0219  -12.7687 C   0  0  0  0  0  0  0  0  0  0  0  0
   19.3356   -4.1501  -13.2375 O   0  0  0  0  0  0  0  0  0  0  0  0
   20.8016   -8.5920  -12.7613 O   0  0  0  0  0  0  0  0  0  0  0  0
   17.3004   -5.0677  -13.4798 O   0  0  0  0  0  0  0  0  0  0  0  0
  2  1  1  6
  2  7  1  0
  3  4  1  0
  3  2  1  0
  4  5  1  0
  5  6  2  0
  7 10  1  0
  7  8  2  0
  9  5  1  0
 10 11  1  0
 11 12  1  1
 12 13  1  0
 13 17  1  0
 14 13  2  0
 15 11  1  0
 15 16  2  0
 18 15  1  0
 19 18  1  0
 19 20  1  6
 21 20  1  0
 22 21  2  0
 23 19  1  0
 24 23  1  0
 25 21  1  0
 26 23  2  0
M  END
$$$$
