EDD.pdb
     RDKit          3D

 26 25  0  0  1  0  0  0  0  0999 V2000
   18.0169  -12.9757  -17.4262 N   0  0  0  0  0  0  0  0  0  0  0  0
   17.3580  -12.5134  -16.2092 C   0  0  1  0  0  0  0  0  0  0  0  0
   17.2451  -13.5961  -15.1845 C   0  0  0  0  0  0  0  0  0  0  0  0
   16.4893  -14.8065  -15.6072 C   0  0  0  0  0  0  0  0  0  0  0  0
   16.3959  -15.8850  -14.6342 C   0  0  0  0  0  0  0  0  0  0  0  0
   15.5882  -15.8363  -13.6810 O   0  0  0  0  0  0  0  0  0  0  0  0
   18.1175  -11.3325  -15.6616 C   0  0  0  0  0  0  0  0  0  0  0  0
   17.6989  -10.7542  -14.6266 O   0  0  0  0  0  0  0  0  0  0  0  0
   17.2109  -16.9980  -14.7491 O   0  0  0  0  0  0  0  0  0  0  0  0
   19.2989  -10.8662  -16.3007 N   0  0  0  0  0  0  0  0  0  0  0  0
   19.9876   -9.7504  -15.7492 C   0  0  1  0  0  0  0  0  0  0  0  0
   21.4750   -9.7903  -15.9356 C   0  0  0  0  0  0  0  0  0  0  0  0
   22.1964   -8.7322  -15.2375 C   0  0  0  0  0  0  0  0  0  0  0  0
   23.3736   -8.4593  -15.5672 O   0  0  0  0  0  0  0  0  0  0  0  0
   19.4949   -8.4747  -16.3805 C   0  0  0  0  0  0  0  0  0  0  0  0
   19.4133   -8.3824  -17.6236 O   0  0  0  0  0  0  0  0  0  0  0  0
   21.6189   -8.0091  -14.2100 O   0  0  0  0  0  0  0  0  0  0  0  0
   19.1296   -7.3937  -15.5566 N   0  0  0  0  0  0  0  0  0  0  0  0
   18.6295   -6.1251  -16.0924 C   0  0  1  0  0  0  0  0  0  0  0  0
   17.2815   -5.8848  -15.4894 C   0  0  0  0  0  0  0  0  0  0  0  0
   16.6735   -4.5884  -15.8017 C   0  0  0  0  0  0  0  0  0  0  0  0
   16.5842   -3.5952  -15.0524 O   0  0  0  0  0  0  0  0  0  0  0  0
   19.6418   -5.0969  -15.7658 C   0  0  0  0  0  0  0  0  0  0  0  0
   20.7377   -5.3347  -14.9494 O   0  0  0  0  0  0  0  0  0  0  0  0
   16.1316   -4.4399  -17.0777 O   0  0  0  0  0  0  0  0  0  0  0  0
   19.5669   -3.9040  -16.2242 O   0  0  0  0  0  0  0  0  0  0  0  0
  2  1  1  6
  2  7  1  0
  3  4  1  0
  3  2  1  0
  4  5  1  0
  5  6  2  0
  7 10  1  0
  7  8  2  0
  9  5  1  0
 10 11  1  0
 11 12  1  6
 12 13  1  0
 13 17  1  0
 14 13  2  0
 15 11  1  0
 15 16  2  0
 18 15  1  0
 19 18  1  0
 19 20  1  1
 21 20  1  0
 22 21  2  0
 23 19  1  0
 24 23  1  0
 25 21  1  0
 26 23  2  0
M  END
$$$$
