EDD.pdb
     RDKit          3D

 26 25  0  0  1  0  0  0  0  0999 V2000
   15.9721  -11.3371  -10.3685 N   0  0  0  0  0  0  0  0  0  0  0  0
   15.2902  -10.6356  -11.4511 C   0  0  1  0  0  0  0  0  0  0  0  0
   13.8039  -10.6675  -11.2938 C   0  0  0  0  0  0  0  0  0  0  0  0
   13.3045  -10.6617   -9.8918 C   0  0  0  0  0  0  0  0  0  0  0  0
   11.8618  -10.5770   -9.7180 C   0  0  0  0  0  0  0  0  0  0  0  0
   11.3440   -9.7257   -8.9627 O   0  0  0  0  0  0  0  0  0  0  0  0
   15.7942   -9.2165  -11.5068 C   0  0  0  0  0  0  0  0  0  0  0  0
   15.3888   -8.4517  -12.4187 O   0  0  0  0  0  0  0  0  0  0  0  0
   11.0272  -11.4494  -10.3951 O   0  0  0  0  0  0  0  0  0  0  0  0
   16.7208   -8.7340  -10.5422 N   0  0  0  0  0  0  0  0  0  0  0  0
   17.2207   -7.4081  -10.6679 C   0  0  1  0  0  0  0  0  0  0  0  0
   17.2004   -6.6182   -9.3935 C   0  0  0  0  0  0  0  0  0  0  0  0
   17.6917   -5.2513   -9.5263 C   0  0  0  0  0  0  0  0  0  0  0  0
   17.7608   -4.7221  -10.6595 O   0  0  0  0  0  0  0  0  0  0  0  0
   18.6473   -7.4367  -11.1502 C   0  0  0  0  0  0  0  0  0  0  0  0
   19.4983   -8.1237  -10.5468 O   0  0  0  0  0  0  0  0  0  0  0  0
   18.0896   -4.5081   -8.4303 O   0  0  0  0  0  0  0  0  0  0  0  0
   19.0075   -6.6836  -12.2834 N   0  0  0  0  0  0  0  0  0  0  0  0
   20.3527   -6.7211  -12.8625 C   0  0  1  0  0  0  0  0  0  0  0  0
   20.2168   -7.1758  -14.2814 C   0  0  0  0  0  0  0  0  0  0  0  0
   21.4640   -7.2262  -15.0493 C   0  0  0  0  0  0  0  0  0  0  0  0
   22.5542   -7.7136  -14.6892 O   0  0  0  0  0  0  0  0  0  0  0  0
   20.9225   -5.3652  -12.7029 C   0  0  0  0  0  0  0  0  0  0  0  0
   20.2079   -4.2901  -12.1952 O   0  0  0  0  0  0  0  0  0  0  0  0
   21.4378   -6.6688  -16.3270 O   0  0  0  0  0  0  0  0  0  0  0  0
   22.1307   -5.0962  -13.0295 O   0  0  0  0  0  0  0  0  0  0  0  0
  2  1  1  1
  2  7  1  0
  3  4  1  0
  3  2  1  0
  4  5  1  0
  5  6  2  0
  7 10  1  0
  7  8  2  0
  9  5  1  0
 10 11  1  0
 11 12  1  1
 12 13  1  0
 13 17  1  0
 14 13  2  0
 15 11  1  0
 15 16  2  0
 18 15  1  0
 19 18  1  0
 19 20  1  6
 21 20  1  0
 22 21  2  0
 23 19  1  0
 24 23  1  0
 25 21  1  0
 26 23  2  0
M  END
$$$$
