EDD.pdb
     RDKit          3D

 26 25  0  0  1  0  0  0  0  0999 V2000
   22.5407  -33.9887   -8.4247 N   0  0  0  0  0  0  0  0  0  0  0  0
   23.3587  -35.1547   -8.7418 C   0  0  1  0  0  0  0  0  0  0  0  0
   24.1916  -34.9417   -9.9648 C   0  0  0  0  0  0  0  0  0  0  0  0
   23.4472  -34.9082  -11.2531 C   0  0  0  0  0  0  0  0  0  0  0  0
   22.5310  -36.0117  -11.5012 C   0  0  0  0  0  0  0  0  0  0  0  0
   21.2986  -35.8883  -11.3294 O   0  0  0  0  0  0  0  0  0  0  0  0
   24.2245  -35.4813   -7.5523 C   0  0  0  0  0  0  0  0  0  0  0  0
   25.1699  -36.3000   -7.6820 O   0  0  0  0  0  0  0  0  0  0  0  0
   23.0149  -37.2329  -11.9375 O   0  0  0  0  0  0  0  0  0  0  0  0
   23.9847  -34.8759   -6.2883 N   0  0  0  0  0  0  0  0  0  0  0  0
   24.8283  -35.2087   -5.1923 C   0  0  1  0  0  0  0  0  0  0  0  0
   24.9304  -34.1394   -4.1461 C   0  0  0  0  0  0  0  0  0  0  0  0
   25.7197  -32.9802   -4.5470 C   0  0  0  0  0  0  0  0  0  0  0  0
   26.1834  -32.9146   -5.7088 O   0  0  0  0  0  0  0  0  0  0  0  0
   24.3223  -36.4520   -4.5090 C   0  0  0  0  0  0  0  0  0  0  0  0
   23.1169  -36.7678   -4.5966 O   0  0  0  0  0  0  0  0  0  0  0  0
   25.9781  -31.9361   -3.6781 O   0  0  0  0  0  0  0  0  0  0  0  0
   25.2201  -37.2492   -3.7746 N   0  0  0  0  0  0  0  0  0  0  0  0
   24.8271  -38.5182   -3.1569 C   0  0  1  0  0  0  0  0  0  0  0  0
   26.0114  -39.4306   -3.2158 C   0  0  0  0  0  0  0  0  0  0  0  0
   26.2629  -40.0534   -4.5183 C   0  0  0  0  0  0  0  0  0  0  0  0
   25.4154  -40.4667   -5.3349 O   0  0  0  0  0  0  0  0  0  0  0  0
   24.3633  -38.1997   -1.7886 C   0  0  0  0  0  0  0  0  0  0  0  0
   23.8948  -39.1545   -0.8982 O   0  0  0  0  0  0  0  0  0  0  0  0
   27.5968  -40.2050   -4.8950 O   0  0  0  0  0  0  0  0  0  0  0  0
   24.3658  -37.0026   -1.3349 O   0  0  0  0  0  0  0  0  0  0  0  0
  2  1  1  1
  2  7  1  0
  3  4  1  0
  3  2  1  0
  4  5  1  0
  5  6  2  0
  7 10  1  0
  7  8  2  0
  9  5  1  0
 10 11  1  0
 11 12  1  1
 12 13  1  0
 13 17  1  0
 14 13  2  0
 15 11  1  0
 15 16  2  0
 18 15  1  0
 19 18  1  0
 19 20  1  1
 21 20  1  0
 22 21  2  0
 23 19  1  0
 24 23  1  0
 25 21  1  0
 26 23  2  0
M  END
$$$$
