EDD.pdb
     RDKit          3D

 26 25  0  0  1  0  0  0  0  0999 V2000
   16.1896  -12.1409  -17.0985 N   0  0  0  0  0  0  0  0  0  0  0  0
   15.6749  -11.5625  -15.8617 C   0  0  1  0  0  0  0  0  0  0  0  0
   15.5355  -12.5834  -14.7786 C   0  0  0  0  0  0  0  0  0  0  0  0
   14.5382  -13.6587  -15.0317 C   0  0  0  0  0  0  0  0  0  0  0  0
   14.5748  -14.8018  -14.1313 C   0  0  0  0  0  0  0  0  0  0  0  0
   13.6783  -15.6732  -14.1456 O   0  0  0  0  0  0  0  0  0  0  0  0
   16.5866  -10.4427  -15.4304 C   0  0  0  0  0  0  0  0  0  0  0  0
   16.4378   -9.9275  -14.2931 O   0  0  0  0  0  0  0  0  0  0  0  0
   15.6171  -14.9456  -13.2319 O   0  0  0  0  0  0  0  0  0  0  0  0
   17.6104   -9.9634  -16.2928 N   0  0  0  0  0  0  0  0  0  0  0  0
   18.4567   -8.9124  -15.8423 C   0  0  1  0  0  0  0  0  0  0  0  0
   19.8526   -8.9685  -16.3871 C   0  0  0  0  0  0  0  0  0  0  0  0
   20.6299  -10.1151  -15.9304 C   0  0  0  0  0  0  0  0  0  0  0  0
   20.9290  -11.0254  -16.7371 O   0  0  0  0  0  0  0  0  0  0  0  0
   17.8791   -7.5783  -16.2365 C   0  0  0  0  0  0  0  0  0  0  0  0
   17.2984   -7.4476  -17.3347 O   0  0  0  0  0  0  0  0  0  0  0  0
   21.0546  -10.2348  -14.6200 O   0  0  0  0  0  0  0  0  0  0  0  0
   18.0015   -6.4867  -15.3566 N   0  0  0  0  0  0  0  0  0  0  0  0
   17.5334   -5.1408  -15.6969 C   0  0  1  0  0  0  0  0  0  0  0  0
   16.4925   -4.7612  -14.6915 C   0  0  0  0  0  0  0  0  0  0  0  0
   15.9987   -3.3846  -14.7846 C   0  0  0  0  0  0  0  0  0  0  0  0
   16.3240   -2.5199  -15.6226 O   0  0  0  0  0  0  0  0  0  0  0  0
   18.7262   -4.2657  -15.7077 C   0  0  0  0  0  0  0  0  0  0  0  0
   18.7061   -2.9507  -16.1485 O   0  0  0  0  0  0  0  0  0  0  0  0
   15.0594   -2.9885  -13.8333 O   0  0  0  0  0  0  0  0  0  0  0  0
   19.8700   -4.6758  -15.3045 O   0  0  0  0  0  0  0  0  0  0  0  0
  2  1  1  6
  2  7  1  0
  3  4  1  0
  3  2  1  0
  4  5  1  0
  5  6  2  0
  7 10  1  0
  7  8  2  0
  9  5  1  0
 10 11  1  0
 11 12  1  6
 12 13  1  0
 13 17  1  0
 14 13  2  0
 15 11  1  0
 15 16  2  0
 18 15  1  0
 19 18  1  0
 19 20  1  1
 21 20  1  0
 22 21  2  0
 23 19  1  0
 24 23  1  0
 25 21  1  0
 26 23  2  0
M  END
$$$$
