EDD.pdb
     RDKit          3D

 26 25  0  0  1  0  0  0  0  0999 V2000
   18.6524  -10.4008  -17.6464 N   0  0  0  0  0  0  0  0  0  0  0  0
   17.9818   -9.9257  -16.4407 C   0  0  1  0  0  0  0  0  0  0  0  0
   17.3881  -11.0459  -15.6486 C   0  0  0  0  0  0  0  0  0  0  0  0
   16.9986  -12.2512  -16.4299 C   0  0  0  0  0  0  0  0  0  0  0  0
   16.4652  -13.3720  -15.6696 C   0  0  0  0  0  0  0  0  0  0  0  0
   16.1616  -14.4512  -16.2234 O   0  0  0  0  0  0  0  0  0  0  0  0
   18.9669   -9.1438  -15.6105 C   0  0  0  0  0  0  0  0  0  0  0  0
   18.6589   -8.8085  -14.4385 O   0  0  0  0  0  0  0  0  0  0  0  0
   16.2825  -13.2607  -14.3020 O   0  0  0  0  0  0  0  0  0  0  0  0
   20.2374   -8.7817  -16.1362 N   0  0  0  0  0  0  0  0  0  0  0  0
   21.1290   -8.0240  -15.3272 C   0  0  1  0  0  0  0  0  0  0  0  0
   22.5739   -8.3881  -15.4946 C   0  0  0  0  0  0  0  0  0  0  0  0
   22.8958   -9.7589  -15.1143 C   0  0  0  0  0  0  0  0  0  0  0  0
   22.7304  -10.1315  -13.9298 O   0  0  0  0  0  0  0  0  0  0  0  0
   21.0000   -6.5581  -15.6485 C   0  0  0  0  0  0  0  0  0  0  0  0
   20.7332   -6.1937  -16.8131 O   0  0  0  0  0  0  0  0  0  0  0  0
   23.3839  -10.6752  -16.0275 O   0  0  0  0  0  0  0  0  0  0  0  0
   21.1832   -5.6091  -14.6254 N   0  0  0  0  0  0  0  0  0  0  0  0
   21.1430   -4.1652  -14.8701 C   0  0  1  0  0  0  0  0  0  0  0  0
   19.7079   -3.7440  -14.8296 C   0  0  0  0  0  0  0  0  0  0  0  0
   19.4703   -2.3030  -14.9517 C   0  0  0  0  0  0  0  0  0  0  0  0
   19.0139   -1.5357  -14.0808 O   0  0  0  0  0  0  0  0  0  0  0  0
   21.9983   -3.5353  -13.8405 C   0  0  0  0  0  0  0  0  0  0  0  0
   22.6317   -4.2470  -12.8323 O   0  0  0  0  0  0  0  0  0  0  0  0
   19.7875   -1.7157  -16.1759 O   0  0  0  0  0  0  0  0  0  0  0  0
   22.2096   -2.2729  -13.8161 O   0  0  0  0  0  0  0  0  0  0  0  0
  2  1  1  6
  2  7  1  0
  3  4  1  0
  3  2  1  0
  4  5  1  0
  5  6  2  0
  7 10  1  0
  7  8  2  0
  9  5  1  0
 10 11  1  0
 11 12  1  6
 12 13  1  0
 13 17  1  0
 14 13  2  0
 15 11  1  0
 15 16  2  0
 18 15  1  0
 19 18  1  0
 19 20  1  1
 21 20  1  0
 22 21  2  0
 23 19  1  0
 24 23  1  0
 25 21  1  0
 26 23  2  0
M  END
$$$$
