QTS.pdb
     RDKit          3D

 23 22  0  0  1  0  0  0  0  0999 V2000
   13.1125  -19.3762   15.2565 N   0  0  0  0  0  0  0  0  0  0  0  0
   12.4330  -20.0432   16.3384 C   0  0  0  0  0  0  0  0  0  0  0  0
   13.1676  -20.5599   17.2104 O   0  0  0  0  0  0  0  0  0  0  0  0
   10.9724  -20.0451   16.3046 C   0  0  0  0  0  0  0  0  0  0  0  0
   10.3869  -18.7318   16.7449 C   0  0  0  0  0  0  0  0  0  0  0  0
    9.8778  -18.8361   18.1434 C   0  0  2  0  0  0  0  0  0  0  0  0
    8.4284  -18.5850   18.0764 N   0  0  0  0  0  0  0  0  0  0  0  0
   10.4320  -17.7482   19.0166 C   0  0  0  0  0  0  0  0  0  0  0  0
   11.2334  -16.8982   18.5678 O   0  0  0  0  0  0  0  0  0  0  0  0
    8.7726  -14.9933   20.8625 C   0  0  0  0  0  0  0  0  0  0  0  0
    9.5314  -15.7716   21.9039 C   0  0  1  0  0  0  0  0  0  0  0  0
    8.6490  -16.6284   22.5550 O   0  0  0  0  0  0  0  0  0  0  0  0
   10.6108  -16.6546   21.2799 C   0  0  2  0  0  0  0  0  0  0  0  0
   10.0724  -17.6342   20.3905 N   0  0  0  0  0  0  0  0  0  0  0  0
   11.4438  -17.2945   22.3640 C   0  0  0  0  0  0  0  0  0  0  0  0
   11.1225  -18.4103   22.8415 O   0  0  0  0  0  0  0  0  0  0  0  0
   14.7116  -15.1082   23.8494 O   0  0  0  0  0  0  0  0  0  0  0  0
   14.8285  -16.4745   23.8984 C   0  0  0  0  0  0  0  0  0  0  0  0
   13.4826  -17.1431   23.8443 C   0  0  2  0  0  0  0  0  0  0  0  0
   12.5978  -16.6245   22.8427 N   0  0  0  0  0  0  0  0  0  0  0  0
   12.8737  -17.0519   25.2044 C   0  0  0  0  0  0  0  0  0  0  0  0
   13.4695  -17.6405   26.3056 O   0  0  0  0  0  0  0  0  0  0  0  0
   11.8109  -16.4407   25.3764 O   0  0  0  0  0  0  0  0  0  0  0  0
  2  1  1  0
  2  3  2  0
  4  2  1  0
  5  6  1  0
  5  4  1  0
  6  7  1  6
  8  9  2  0
  8  6  1  0
 11 10  1  6
 11 13  1  0
 12 11  1  0
 13 15  1  0
 13 14  1  1
 14  8  1  0
 15 20  1  0
 16 15  2  0
 18 17  1  0
 19 18  1  1
 19 21  1  0
 20 19  1  0
 21 23  2  0
 21 22  1  0
M  END
$$$$
