QTS.pdb
     RDKit          3D

 23 22  0  0  1  0  0  0  0  0999 V2000
   16.2688  -16.6354   19.4284 N   0  0  0  0  0  0  0  0  0  0  0  0
   16.5239  -15.6258   18.4323 C   0  0  0  0  0  0  0  0  0  0  0  0
   17.7266  -15.4344   18.1423 O   0  0  0  0  0  0  0  0  0  0  0  0
   15.3633  -14.9392   17.8700 C   0  0  0  0  0  0  0  0  0  0  0  0
   14.1981  -15.8650   17.6545 C   0  0  0  0  0  0  0  0  0  0  0  0
   13.0010  -15.0939   17.2095 C   0  0  2  0  0  0  0  0  0  0  0  0
   13.5046  -13.9989   16.3634 N   0  0  0  0  0  0  0  0  0  0  0  0
   12.3140  -14.4236   18.3636 C   0  0  0  0  0  0  0  0  0  0  0  0
   12.7373  -13.3445   18.8354 O   0  0  0  0  0  0  0  0  0  0  0  0
    8.6715  -13.3364   18.4382 C   0  0  0  0  0  0  0  0  0  0  0  0
    8.9040  -14.2317   19.6258 C   0  0  1  0  0  0  0  0  0  0  0  0
    8.4912  -15.5209   19.3034 O   0  0  0  0  0  0  0  0  0  0  0  0
   10.3861  -14.3287   19.9836 C   0  0  2  0  0  0  0  0  0  0  0  0
   11.1536  -14.9831   18.9720 N   0  0  0  0  0  0  0  0  0  0  0  0
   10.5499  -15.0060   21.3227 C   0  0  0  0  0  0  0  0  0  0  0  0
   11.3215  -15.9879   21.4517 O   0  0  0  0  0  0  0  0  0  0  0  0
    7.6620  -14.3424   24.2341 O   0  0  0  0  0  0  0  0  0  0  0  0
    8.9284  -14.4764   24.7449 C   0  0  0  0  0  0  0  0  0  0  0  0
    9.8583  -15.1110   23.7480 C   0  0  2  0  0  0  0  0  0  0  0  0
    9.8232  -14.5241   22.4406 N   0  0  0  0  0  0  0  0  0  0  0  0
    9.5435  -16.5694   23.6955 C   0  0  0  0  0  0  0  0  0  0  0  0
    9.7733  -17.3995   24.7781 O   0  0  0  0  0  0  0  0  0  0  0  0
    9.0647  -17.0715   22.6700 O   0  0  0  0  0  0  0  0  0  0  0  0
  2  1  1  0
  2  3  2  0
  4  2  1  0
  5  6  1  0
  5  4  1  0
  6  7  1  6
  8  9  2  0
  8  6  1  0
 11 10  1  6
 11 13  1  0
 12 11  1  0
 13 15  1  0
 13 14  1  6
 14  8  1  0
 15 20  1  0
 16 15  2  0
 18 17  1  0
 19 18  1  1
 19 21  1  0
 20 19  1  0
 21 23  2  0
 21 22  1  0
M  END
$$$$
