QTS.pdb
     RDKit          3D

 23 22  0  0  1  0  0  0  0  0999 V2000
   14.2266  -16.2175   19.5365 N   0  0  0  0  0  0  0  0  0  0  0  0
   14.5765  -15.8522   18.1870 C   0  0  0  0  0  0  0  0  0  0  0  0
   15.4265  -16.5800   17.6258 O   0  0  0  0  0  0  0  0  0  0  0  0
   13.9082  -14.6829   17.6209 C   0  0  0  0  0  0  0  0  0  0  0  0
   12.9035  -14.0832   18.5656 C   0  0  0  0  0  0  0  0  0  0  0  0
   11.5632  -14.7043   18.3568 C   0  0  2  0  0  0  0  0  0  0  0  0
   11.0470  -14.1592   17.0900 N   0  0  0  0  0  0  0  0  0  0  0  0
   10.5827  -14.2709   19.4075 C   0  0  0  0  0  0  0  0  0  0  0  0
   10.1621  -13.0934   19.4591 O   0  0  0  0  0  0  0  0  0  0  0  0
    7.1542  -14.7957   20.0311 C   0  0  0  0  0  0  0  0  0  0  0  0
    7.8002  -15.3335   21.2798 C   0  0  1  0  0  0  0  0  0  0  0  0
    7.9092  -16.7164   21.1687 O   0  0  0  0  0  0  0  0  0  0  0  0
    9.2206  -14.8006   21.4604 C   0  0  2  0  0  0  0  0  0  0  0  0
   10.0884  -15.1767   20.3899 N   0  0  0  0  0  0  0  0  0  0  0  0
    9.7708  -15.2412   22.7952 C   0  0  0  0  0  0  0  0  0  0  0  0
   10.7938  -15.9664   22.8564 O   0  0  0  0  0  0  0  0  0  0  0  0
    7.4434  -15.0867   26.4112 O   0  0  0  0  0  0  0  0  0  0  0  0
    8.7209  -14.5860   26.4140 C   0  0  0  0  0  0  0  0  0  0  0  0
    9.5473  -15.1834   25.3088 C   0  0  2  0  0  0  0  0  0  0  0  0
    9.1220  -14.8290   23.9864 N   0  0  0  0  0  0  0  0  0  0  0  0
    9.5560  -16.6645   25.4960 C   0  0  0  0  0  0  0  0  0  0  0  0
   10.2223  -17.2570   26.5538 O   0  0  0  0  0  0  0  0  0  0  0  0
    8.9601  -17.4013   24.6991 O   0  0  0  0  0  0  0  0  0  0  0  0
  2  1  1  0
  2  3  2  0
  4  2  1  0
  5  6  1  0
  5  4  1  0
  6  7  1  6
  8  9  2  0
  8  6  1  0
 11 10  1  6
 11 13  1  0
 12 11  1  0
 13 15  1  0
 13 14  1  6
 14  8  1  0
 15 20  1  0
 16 15  2  0
 18 17  1  0
 19 18  1  1
 19 21  1  0
 20 19  1  0
 21 23  2  0
 21 22  1  0
M  END
$$$$
