QTS.pdb
     RDKit          3D

 23 22  0  0  1  0  0  0  0  0999 V2000
   19.3738  -22.1345   24.4909 N   0  0  0  0  0  0  0  0  0  0  0  0
   18.1951  -21.6883   23.7920 C   0  0  0  0  0  0  0  0  0  0  0  0
   18.2301  -21.7822   22.5441 O   0  0  0  0  0  0  0  0  0  0  0  0
   17.0933  -21.1793   24.6054 C   0  0  0  0  0  0  0  0  0  0  0  0
   17.4208  -21.1699   26.0730 C   0  0  0  0  0  0  0  0  0  0  0  0
   16.4684  -22.0419   26.8203 C   0  0  2  0  0  0  0  0  0  0  0  0
   15.1611  -21.8887   26.1601 N   0  0  0  0  0  0  0  0  0  0  0  0
   16.2645  -21.5602   28.2273 C   0  0  0  0  0  0  0  0  0  0  0  0
   17.2290  -21.1957   28.9367 O   0  0  0  0  0  0  0  0  0  0  0  0
   13.4387  -19.0037   29.3868 C   0  0  0  0  0  0  0  0  0  0  0  0
   13.4145  -20.2374   30.2489 C   0  0  1  0  0  0  0  0  0  0  0  0
   12.4018  -21.0793   29.7991 O   0  0  0  0  0  0  0  0  0  0  0  0
   14.7157  -21.0309   30.1434 C   0  0  2  0  0  0  0  0  0  0  0  0
   14.9691  -21.4962   28.8168 N   0  0  0  0  0  0  0  0  0  0  0  0
   14.7066  -22.1702   31.1336 C   0  0  0  0  0  0  0  0  0  0  0  0
   14.2274  -23.2869   30.8181 O   0  0  0  0  0  0  0  0  0  0  0  0
   16.2816  -25.1478   33.9342 O   0  0  0  0  0  0  0  0  0  0  0  0
   16.2045  -24.1881   32.9566 C   0  0  0  0  0  0  0  0  0  0  0  0
   15.4007  -23.0021   33.4134 C   0  0  2  0  0  0  0  0  0  0  0  0
   15.2455  -21.9710   32.4297 N   0  0  0  0  0  0  0  0  0  0  0  0
   16.0356  -22.4732   34.6568 C   0  0  0  0  0  0  0  0  0  0  0  0
   15.8519  -23.0886   35.8821 O   0  0  0  0  0  0  0  0  0  0  0  0
   16.7478  -21.4612   34.6161 O   0  0  0  0  0  0  0  0  0  0  0  0
  2  1  1  0
  2  3  2  0
  4  2  1  0
  5  6  1  0
  5  4  1  0
  6  7  1  6
  8  9  2  0
  8  6  1  0
 11 10  1  6
 11 13  1  0
 12 11  1  0
 13 15  1  0
 13 14  1  6
 14  8  1  0
 15 20  1  0
 16 15  2  0
 18 17  1  0
 19 18  1  6
 19 21  1  0
 20 19  1  0
 21 23  2  0
 21 22  1  0
M  END
$$$$
