QTS.pdb
     RDKit          3D

 23 22  0  0  1  0  0  0  0  0999 V2000
   16.2178  -20.2412   19.1825 N   0  0  0  0  0  0  0  0  0  0  0  0
   15.8760  -18.8418   19.2240 C   0  0  0  0  0  0  0  0  0  0  0  0
   16.4187  -18.1724   20.1321 O   0  0  0  0  0  0  0  0  0  0  0  0
   14.9422  -18.3558   18.2110 C   0  0  0  0  0  0  0  0  0  0  0  0
   13.9814  -17.3368   18.7584 C   0  0  0  0  0  0  0  0  0  0  0  0
   12.8863  -18.0125   19.5133 C   0  0  2  0  0  0  0  0  0  0  0  0
   11.9672  -18.5650   18.5042 N   0  0  0  0  0  0  0  0  0  0  0  0
   12.0700  -17.0303   20.3021 C   0  0  0  0  0  0  0  0  0  0  0  0
   12.5467  -15.9321   20.6666 O   0  0  0  0  0  0  0  0  0  0  0  0
    8.1261  -16.3938   19.5991 C   0  0  0  0  0  0  0  0  0  0  0  0
    8.4059  -16.5707   21.0676 C   0  0  1  0  0  0  0  0  0  0  0  0
    8.0776  -17.8727   21.4332 O   0  0  0  0  0  0  0  0  0  0  0  0
    9.8885  -16.3915   21.3899 C   0  0  2  0  0  0  0  0  0  0  0  0
   10.7209  -17.3025   20.6703 N   0  0  0  0  0  0  0  0  0  0  0  0
   10.1096  -16.5032   22.8789 C   0  0  0  0  0  0  0  0  0  0  0  0
   10.6714  -17.5142   23.3672 O   0  0  0  0  0  0  0  0  0  0  0  0
    8.0064  -13.8811   25.3384 O   0  0  0  0  0  0  0  0  0  0  0  0
    9.2309  -14.2456   25.8387 C   0  0  0  0  0  0  0  0  0  0  0  0
    9.7566  -15.4798   25.1592 C   0  0  2  0  0  0  0  0  0  0  0  0
    9.6766  -15.4537   23.7281 N   0  0  0  0  0  0  0  0  0  0  0  0
    9.0270  -16.6549   25.7209 C   0  0  0  0  0  0  0  0  0  0  0  0
    8.2810  -17.4969   24.9156 O   0  0  0  0  0  0  0  0  0  0  0  0
    9.0752  -16.9027   26.9330 O   0  0  0  0  0  0  0  0  0  0  0  0
  2  1  1  0
  2  3  2  0
  4  2  1  0
  5  6  1  0
  5  4  1  0
  6  7  1  6
  8  9  2  0
  8  6  1  0
 11 10  1  6
 11 13  1  0
 12 11  1  0
 13 15  1  0
 13 14  1  6
 14  8  1  0
 15 20  1  0
 16 15  2  0
 18 17  1  0
 19 18  1  1
 19 21  1  0
 20 19  1  0
 21 23  2  0
 21 22  1  0
M  END
$$$$
