QTS.pdb
     RDKit          3D

 23 22  0  0  1  0  0  0  0  0999 V2000
    6.7082  -20.7004   18.3043 N   0  0  0  0  0  0  0  0  0  0  0  0
    8.1292  -20.5348   18.1304 C   0  0  0  0  0  0  0  0  0  0  0  0
    8.8280  -21.5532   18.3348 O   0  0  0  0  0  0  0  0  0  0  0  0
    8.6002  -19.2091   17.7364 C   0  0  0  0  0  0  0  0  0  0  0  0
    7.4778  -18.2168   17.6072 C   0  0  0  0  0  0  0  0  0  0  0  0
    8.0157  -16.8722   17.2487 C   0  0  2  0  0  0  0  0  0  0  0  0
    9.0080  -17.0935   16.1835 N   0  0  0  0  0  0  0  0  0  0  0  0
    8.7805  -16.2609   18.3865 C   0  0  0  0  0  0  0  0  0  0  0  0
   10.0273  -16.3458   18.4528 O   0  0  0  0  0  0  0  0  0  0  0  0
    7.5412  -12.7658   20.2241 C   0  0  0  0  0  0  0  0  0  0  0  0
    7.9542  -13.8419   21.1922 C   0  0  1  0  0  0  0  0  0  0  0  0
    6.8126  -14.4815   21.6659 O   0  0  0  0  0  0  0  0  0  0  0  0
    8.8047  -14.9175   20.5185 C   0  0  2  0  0  0  0  0  0  0  0  0
    8.1244  -15.5590   19.4386 N   0  0  0  0  0  0  0  0  0  0  0  0
    9.2763  -15.9195   21.5442 C   0  0  0  0  0  0  0  0  0  0  0  0
    8.6876  -17.0200   21.6798 O   0  0  0  0  0  0  0  0  0  0  0  0
   13.1768  -16.1589   22.5602 O   0  0  0  0  0  0  0  0  0  0  0  0
   12.3925  -16.2106   23.6849 C   0  0  0  0  0  0  0  0  0  0  0  0
   10.9557  -16.4902   23.3402 C   0  0  2  0  0  0  0  0  0  0  0  0
   10.3945  -15.6089   22.3586 N   0  0  0  0  0  0  0  0  0  0  0  0
   10.1687  -16.4596   24.6084 C   0  0  0  0  0  0  0  0  0  0  0  0
    9.1223  -15.5731   24.7903 O   0  0  0  0  0  0  0  0  0  0  0  0
   10.4396  -17.2361   25.5340 O   0  0  0  0  0  0  0  0  0  0  0  0
  2  1  1  0
  2  3  2  0
  4  2  1  0
  5  6  1  0
  5  4  1  0
  6  7  1  6
  8  9  2  0
  8  6  1  0
 11 10  1  6
 11 13  1  0
 12 11  1  0
 13 15  1  0
 13 14  1  6
 14  8  1  0
 15 20  1  0
 16 15  2  0
 18 17  1  0
 19 18  1  1
 19 21  1  0
 20 19  1  0
 21 23  2  0
 21 22  1  0
M  END
$$$$
