QTS.pdb
     RDKit          3D

 23 22  0  0  1  0  0  0  0  0999 V2000
   10.2869  -19.3499   16.0366 N   0  0  0  0  0  0  0  0  0  0  0  0
    9.9920  -19.1791   14.6363 C   0  0  0  0  0  0  0  0  0  0  0  0
   10.5080  -20.0166   13.8620 O   0  0  0  0  0  0  0  0  0  0  0  0
    9.1292  -18.0580   14.2712 C   0  0  0  0  0  0  0  0  0  0  0  0
    8.4901  -17.4123   15.4694 C   0  0  0  0  0  0  0  0  0  0  0  0
    8.4082  -15.9350   15.2779 C   0  0  2  0  0  0  0  0  0  0  0  0
    8.9534  -15.6602   13.9379 N   0  0  0  0  0  0  0  0  0  0  0  0
    9.3058  -15.2027   16.2325 C   0  0  0  0  0  0  0  0  0  0  0  0
   10.4638  -14.8598   15.9041 O   0  0  0  0  0  0  0  0  0  0  0  0
    8.0046  -12.4123   18.9460 C   0  0  0  0  0  0  0  0  0  0  0  0
    8.8964  -13.4548   19.5655 C   0  0  1  0  0  0  0  0  0  0  0  0
    8.1021  -14.4028   20.2036 O   0  0  0  0  0  0  0  0  0  0  0  0
    9.7077  -14.2080   18.5127 C   0  0  2  0  0  0  0  0  0  0  0  0
    8.8822  -14.8660   17.5504 N   0  0  0  0  0  0  0  0  0  0  0  0
   10.6498  -15.1775   19.1842 C   0  0  0  0  0  0  0  0  0  0  0  0
   10.3195  -16.3772   19.3512 O   0  0  0  0  0  0  0  0  0  0  0  0
   14.4823  -13.7573   20.2481 O   0  0  0  0  0  0  0  0  0  0  0  0
   14.3490  -15.0780   19.9002 C   0  0  0  0  0  0  0  0  0  0  0  0
   12.9501  -15.5720   20.1457 C   0  0  2  0  0  0  0  0  0  0  0  0
   11.9174  -14.7232   19.6279 N   0  0  0  0  0  0  0  0  0  0  0  0
   12.7924  -15.7817   21.6154 C   0  0  0  0  0  0  0  0  0  0  0  0
   13.6156  -16.6448   22.3164 O   0  0  0  0  0  0  0  0  0  0  0  0
   11.9114  -15.1804   22.2442 O   0  0  0  0  0  0  0  0  0  0  0  0
  2  1  1  0
  2  3  2  0
  4  2  1  0
  5  6  1  0
  5  4  1  0
  6  7  1  6
  8  9  2  0
  8  6  1  0
 11 10  1  6
 11 13  1  0
 12 11  1  0
 13 15  1  0
 13 14  1  6
 14  8  1  0
 15 20  1  0
 16 15  2  0
 18 17  1  0
 19 18  1  1
 19 21  1  0
 20 19  1  0
 21 23  2  0
 21 22  1  0
M  END
$$$$
