QTS.pdb
     RDKit          3D

 23 22  0  0  1  0  0  0  0  0999 V2000
   11.3885  -19.9630   19.3482 N   0  0  0  0  0  0  0  0  0  0  0  0
   10.2452  -20.4318   18.6065 C   0  0  0  0  0  0  0  0  0  0  0  0
    9.8106  -21.5612   18.9266 O   0  0  0  0  0  0  0  0  0  0  0  0
    9.7180  -19.5476   17.5697 C   0  0  0  0  0  0  0  0  0  0  0  0
    8.2876  -19.1578   17.8214 C   0  0  0  0  0  0  0  0  0  0  0  0
    8.1188  -17.6837   17.6654 C   0  0  2  0  0  0  0  0  0  0  0  0
    8.7122  -17.3342   16.3639 N   0  0  0  0  0  0  0  0  0  0  0  0
    8.9166  -16.9244   18.6852 C   0  0  0  0  0  0  0  0  0  0  0  0
   10.1014  -16.5870   18.4651 O   0  0  0  0  0  0  0  0  0  0  0  0
    7.3190  -13.9861   20.9634 C   0  0  0  0  0  0  0  0  0  0  0  0
    8.1249  -14.9490   21.7937 C   0  0  1  0  0  0  0  0  0  0  0  0
    7.2560  -15.8364   22.4214 O   0  0  0  0  0  0  0  0  0  0  0  0
    9.0616  -15.7960   20.9338 C   0  0  2  0  0  0  0  0  0  0  0  0
    8.3635  -16.5547   19.9451 N   0  0  0  0  0  0  0  0  0  0  0  0
    9.9069  -16.6846   21.8137 C   0  0  0  0  0  0  0  0  0  0  0  0
    9.5029  -17.8264   22.1443 O   0  0  0  0  0  0  0  0  0  0  0  0
   13.5019  -15.1084   23.3361 O   0  0  0  0  0  0  0  0  0  0  0  0
   13.4941  -16.4543   23.0690 C   0  0  0  0  0  0  0  0  0  0  0  0
   12.0931  -16.9995   23.0354 C   0  0  2  0  0  0  0  0  0  0  0  0
   11.1670  -16.2199   22.2676 N   0  0  0  0  0  0  0  0  0  0  0  0
   11.6307  -17.1547   24.4464 C   0  0  0  0  0  0  0  0  0  0  0  0
   12.2970  -17.9730   25.3412 O   0  0  0  0  0  0  0  0  0  0  0  0
   10.6299  -16.5472   24.8493 O   0  0  0  0  0  0  0  0  0  0  0  0
  2  1  1  0
  2  3  2  0
  4  2  1  0
  5  6  1  0
  5  4  1  0
  6  7  1  6
  8  9  2  0
  8  6  1  0
 11 10  1  6
 11 13  1  0
 12 11  1  0
 13 15  1  0
 13 14  1  6
 14  8  1  0
 15 20  1  0
 16 15  2  0
 18 17  1  0
 19 18  1  1
 19 21  1  0
 20 19  1  0
 21 23  2  0
 21 22  1  0
M  END
$$$$
