QTS.pdb
     RDKit          3D

 23 22  0  0  1  0  0  0  0  0999 V2000
    8.7595  -14.4513   12.9634 N   0  0  0  0  0  0  0  0  0  0  0  0
    8.3813  -15.5949   12.1720 C   0  0  0  0  0  0  0  0  0  0  0  0
    8.4440  -15.4465   10.9306 O   0  0  0  0  0  0  0  0  0  0  0  0
    7.9695  -16.7959   12.8949 C   0  0  0  0  0  0  0  0  0  0  0  0
    7.9910  -16.6034   14.3861 C   0  0  0  0  0  0  0  0  0  0  0  0
    7.5922  -17.8650   15.0756 C   0  0  2  0  0  0  0  0  0  0  0  0
    6.1859  -18.1083   14.7132 N   0  0  0  0  0  0  0  0  0  0  0  0
    7.5986  -17.7056   16.5681 C   0  0  0  0  0  0  0  0  0  0  0  0
    7.3410  -16.6056   17.1064 O   0  0  0  0  0  0  0  0  0  0  0  0
    5.3033  -18.4795   18.8609 C   0  0  0  0  0  0  0  0  0  0  0  0
    6.4726  -19.2689   19.3857 C   0  0  1  0  0  0  0  0  0  0  0  0
    6.3693  -20.5799   18.9306 O   0  0  0  0  0  0  0  0  0  0  0  0
    7.8031  -18.7321   18.8605 C   0  0  2  0  0  0  0  0  0  0  0  0
    7.8969  -18.7950   17.4365 N   0  0  0  0  0  0  0  0  0  0  0  0
    8.9492  -19.4601   19.5200 C   0  0  0  0  0  0  0  0  0  0  0  0
    9.4776  -20.4549   18.9654 O   0  0  0  0  0  0  0  0  0  0  0  0
    9.8958  -18.3195   23.3939 O   0  0  0  0  0  0  0  0  0  0  0  0
   10.9603  -18.8513   22.7107 C   0  0  0  0  0  0  0  0  0  0  0  0
   10.5074  -19.6188   21.4995 C   0  0  2  0  0  0  0  0  0  0  0  0
    9.4285  -19.0117   20.7766 N   0  0  0  0  0  0  0  0  0  0  0  0
   10.1534  -21.0001   21.9415 C   0  0  0  0  0  0  0  0  0  0  0  0
    8.8539  -21.4706   21.8771 O   0  0  0  0  0  0  0  0  0  0  0  0
   11.0257  -21.7617   22.3799 O   0  0  0  0  0  0  0  0  0  0  0  0
  2  1  1  0
  2  3  2  0
  4  2  1  0
  5  6  1  0
  5  4  1  0
  6  7  1  6
  8  9  2  0
  8  6  1  0
 11 10  1  6
 11 13  1  0
 12 11  1  0
 13 15  1  0
 13 14  1  6
 14  8  1  0
 15 20  1  0
 16 15  2  0
 18 17  1  0
 19 18  1  1
 19 21  1  0
 20 19  1  0
 21 23  2  0
 21 22  1  0
M  END
$$$$
