QTS.pdb
     RDKit          3D

 23 22  0  0  1  0  0  0  0  0999 V2000
    6.7416  -17.3086   15.2888 N   0  0  0  0  0  0  0  0  0  0  0  0
    8.1083  -16.9289   15.5435 C   0  0  0  0  0  0  0  0  0  0  0  0
    8.9252  -17.8701   15.6611 O   0  0  0  0  0  0  0  0  0  0  0  0
    8.3943  -15.4991   15.6354 C   0  0  0  0  0  0  0  0  0  0  0  0
    9.1169  -15.1392   16.9042 C   0  0  0  0  0  0  0  0  0  0  0  0
    8.1849  -14.4688   17.8570 C   0  0  2  0  0  0  0  0  0  0  0  0
    7.9202  -13.1297   17.3045 N   0  0  0  0  0  0  0  0  0  0  0  0
    8.8332  -14.2303   19.1897 C   0  0  0  0  0  0  0  0  0  0  0  0
    9.7867  -13.4295   19.3157 O   0  0  0  0  0  0  0  0  0  0  0  0
    6.8108  -14.8232   22.8813 C   0  0  0  0  0  0  0  0  0  0  0  0
    8.0806  -14.0477   22.6527 C   0  0  1  0  0  0  0  0  0  0  0  0
    8.7848  -13.9766   23.8509 O   0  0  0  0  0  0  0  0  0  0  0  0
    9.0001  -14.7442   21.6510 C   0  0  2  0  0  0  0  0  0  0  0  0
    8.3944  -14.9019   20.3670 N   0  0  0  0  0  0  0  0  0  0  0  0
    9.4604  -16.0693   22.2086 C   0  0  0  0  0  0  0  0  0  0  0  0
    8.7797  -17.1088   22.0291 O   0  0  0  0  0  0  0  0  0  0  0  0
   13.3651  -16.2798   23.6062 O   0  0  0  0  0  0  0  0  0  0  0  0
   12.7310  -17.4566   23.2967 C   0  0  0  0  0  0  0  0  0  0  0  0
   11.2416  -17.3394   23.4678 C   0  0  2  0  0  0  0  0  0  0  0  0
   10.6728  -16.1337   22.9406 N   0  0  0  0  0  0  0  0  0  0  0  0
   10.9367  -17.4914   24.9214 C   0  0  0  0  0  0  0  0  0  0  0  0
   11.2832  -18.6352   25.6184 O   0  0  0  0  0  0  0  0  0  0  0  0
   10.3608  -16.5865   25.5398 O   0  0  0  0  0  0  0  0  0  0  0  0
  2  1  1  0
  2  3  2  0
  4  2  1  0
  5  6  1  0
  5  4  1  0
  6  7  1  6
  8  9  2  0
  8  6  1  0
 11 10  1  1
 11 13  1  0
 12 11  1  0
 13 15  1  0
 13 14  1  6
 14  8  1  0
 15 20  1  0
 16 15  2  0
 18 17  1  0
 19 18  1  1
 19 21  1  0
 20 19  1  0
 21 23  2  0
 21 22  1  0
M  END
$$$$
