QTS.pdb
     RDKit          3D

 23 22  0  0  1  0  0  0  0  0999 V2000
    7.6483  -13.0554   14.1873 N   0  0  0  0  0  0  0  0  0  0  0  0
    8.0149  -14.3216   14.7699 C   0  0  0  0  0  0  0  0  0  0  0  0
    8.5474  -15.1473   13.9942 O   0  0  0  0  0  0  0  0  0  0  0  0
    7.7305  -14.5061   16.1910 C   0  0  0  0  0  0  0  0  0  0  0  0
    8.9113  -14.1722   17.0602 C   0  0  0  0  0  0  0  0  0  0  0  0
    9.2868  -15.3496   17.8961 C   0  0  2  0  0  0  0  0  0  0  0  0
    8.0657  -16.1592   18.0436 N   0  0  0  0  0  0  0  0  0  0  0  0
    9.6659  -14.9405   19.2897 C   0  0  0  0  0  0  0  0  0  0  0  0
   10.6279  -14.1688   19.5025 O   0  0  0  0  0  0  0  0  0  0  0  0
    7.4066  -13.6186   22.1882 C   0  0  0  0  0  0  0  0  0  0  0  0
    8.1628  -14.8221   22.6840 C   0  0  1  0  0  0  0  0  0  0  0  0
    7.3158  -15.9259   22.6583 O   0  0  0  0  0  0  0  0  0  0  0  0
    9.3457  -15.1632   21.7793 C   0  0  2  0  0  0  0  0  0  0  0  0
    8.9508  -15.4102   20.4289 N   0  0  0  0  0  0  0  0  0  0  0  0
   10.1119  -16.3314   22.3509 C   0  0  0  0  0  0  0  0  0  0  0  0
    9.7846  -17.5099   22.0676 O   0  0  0  0  0  0  0  0  0  0  0  0
   13.5024  -15.4651   24.6506 O   0  0  0  0  0  0  0  0  0  0  0  0
   13.4164  -16.7303   24.1266 C   0  0  0  0  0  0  0  0  0  0  0  0
   11.9894  -17.1128   23.8461 C   0  0  2  0  0  0  0  0  0  0  0  0
   11.2096  -16.0889   23.2146 N   0  0  0  0  0  0  0  0  0  0  0  0
   11.3723  -17.5462   25.1346 C   0  0  0  0  0  0  0  0  0  0  0  0
   10.2431  -16.9279   25.6410 O   0  0  0  0  0  0  0  0  0  0  0  0
   11.8642  -18.4788   25.7836 O   0  0  0  0  0  0  0  0  0  0  0  0
  2  1  1  0
  2  3  2  0
  4  2  1  0
  5  6  1  0
  5  4  1  0
  6  7  1  1
  8  9  2  0
  8  6  1  0
 11 10  1  6
 11 13  1  0
 12 11  1  0
 13 15  1  0
 13 14  1  6
 14  8  1  0
 15 20  1  0
 16 15  2  0
 18 17  1  0
 19 18  1  1
 19 21  1  0
 20 19  1  0
 21 23  2  0
 21 22  1  0
M  END
$$$$
