AGL.pdb
     RDKit          3D

 18 17  0  0  1  0  0  0  0  0999 V2000
   17.8627  -13.3522  -20.8029 C   0  0  0  0  0  0  0  0  0  0  0  0
   18.7474  -13.3130  -19.5780 C   0  0  2  0  0  0  0  0  0  0  0  0
   18.0010  -13.8701  -18.4730 N   0  0  0  0  0  0  0  0  0  0  0  0
   19.2102  -11.9696  -19.2323 C   0  0  0  0  0  0  0  0  0  0  0  0
   20.2820  -11.5546  -19.7995 O   0  0  0  0  0  0  0  0  0  0  0  0
   18.5380  -11.1171  -18.3118 N   0  0  0  0  0  0  0  0  0  0  0  0
   19.0405   -9.8126  -18.0910 C   0  0  0  0  0  0  0  0  0  0  0  0
   19.6689   -9.5467  -16.8052 C   0  0  0  0  0  0  0  0  0  0  0  0
   19.1493  -10.1196  -15.7878 O   0  0  0  0  0  0  0  0  0  0  0  0
   24.7042  -10.6582  -15.5115 C   0  0  0  0  0  0  0  0  0  0  0  0
   23.1580  -10.5304  -15.2837 C   0  0  1  0  0  0  0  0  0  0  0  0
   22.8984  -11.3635  -14.0812 C   0  0  0  0  0  0  0  0  0  0  0  0
   22.7975   -9.1092  -15.2644 C   0  0  0  0  0  0  0  0  0  0  0  0
   21.4058   -8.6478  -15.1829 C   0  0  2  0  0  0  0  0  0  0  0  0
   20.7863   -8.7297  -16.5481 N   0  0  0  0  0  0  0  0  0  0  0  0
   21.1878   -7.2603  -14.7560 C   0  0  0  0  0  0  0  0  0  0  0  0
   21.0021   -6.2896  -15.5201 O   0  0  0  0  0  0  0  0  0  0  0  0
   21.1708   -6.9021  -13.3828 O   0  0  0  0  0  0  0  0  0  0  0  0
  2  1  1  6
  2  3  1  0
  4  5  2  0
  4  2  1  0
  6  4  1  0
  7  6  1  0
  8  7  1  0
  8 15  1  0
  9  8  2  0
 11 10  1  1
 11 13  1  0
 12 11  1  0
 14 13  1  6
 14 15  1  0
 14 16  1  0
 16 17  2  0
 16 18  1  0
M  END
$$$$
