AGL.pdb
     RDKit          3D

 18 17  0  0  1  0  0  0  0  0999 V2000
   26.0299  -21.8758  -16.2597 C   0  0  0  0  0  0  0  0  0  0  0  0
   25.6087  -22.2353  -14.8533 C   0  0  2  0  0  0  0  0  0  0  0  0
   24.1684  -22.1388  -14.7826 N   0  0  0  0  0  0  0  0  0  0  0  0
   26.2102  -21.3857  -13.8262 C   0  0  0  0  0  0  0  0  0  0  0  0
   27.4888  -21.3897  -13.7371 O   0  0  0  0  0  0  0  0  0  0  0  0
   25.4556  -20.5696  -12.9373 N   0  0  0  0  0  0  0  0  0  0  0  0
   26.1402  -19.7571  -12.0023 C   0  0  0  0  0  0  0  0  0  0  0  0
   26.3257  -20.2919  -10.6612 C   0  0  0  0  0  0  0  0  0  0  0  0
   26.3097  -21.5648  -10.5481 O   0  0  0  0  0  0  0  0  0  0  0  0
   28.9658  -20.6542   -5.8821 C   0  0  0  0  0  0  0  0  0  0  0  0
   27.7373  -19.6801   -5.8500 C   0  0  1  0  0  0  0  0  0  0  0  0
   28.1437  -18.6150   -4.8973 C   0  0  0  0  0  0  0  0  0  0  0  0
   27.3843  -19.3166   -7.2260 C   0  0  0  0  0  0  0  0  0  0  0  0
   26.7561  -20.2626   -8.1571 C   0  0  2  0  0  0  0  0  0  0  0  0
   26.5216  -19.5700   -9.4684 N   0  0  0  0  0  0  0  0  0  0  0  0
   25.4434  -20.7989   -7.7774 C   0  0  0  0  0  0  0  0  0  0  0  0
   25.2521  -21.7674   -7.0120 O   0  0  0  0  0  0  0  0  0  0  0  0
   24.2404  -20.2319   -8.2732 O   0  0  0  0  0  0  0  0  0  0  0  0
  2  1  1  6
  2  3  1  0
  4  5  2  0
  4  2  1  0
  6  4  1  0
  7  6  1  0
  8  7  1  0
  8 15  1  0
  9  8  2  0
 11 10  1  6
 11 13  1  0
 12 11  1  0
 14 13  1  1
 14 15  1  0
 14 16  1  0
 16 17  2  0
 16 18  1  0
M  END
$$$$
