AGL.pdb
     RDKit          3D

 18 17  0  0  1  0  0  0  0  0999 V2000
   17.9584  -12.3660  -15.5179 C   0  0  0  0  0  0  0  0  0  0  0  0
   17.2885  -11.0205  -15.3580 C   0  0  2  0  0  0  0  0  0  0  0  0
   17.8108  -10.1404  -16.3784 N   0  0  0  0  0  0  0  0  0  0  0  0
   17.4883  -10.4196  -14.0399 C   0  0  0  0  0  0  0  0  0  0  0  0
   16.9298  -10.9974  -13.0414 O   0  0  0  0  0  0  0  0  0  0  0  0
   18.2600   -9.2442  -13.8183 N   0  0  0  0  0  0  0  0  0  0  0  0
   18.4077   -8.7585  -12.4973 C   0  0  0  0  0  0  0  0  0  0  0  0
   17.2945   -8.0104  -11.9314 C   0  0  0  0  0  0  0  0  0  0  0  0
   16.4623   -7.5112  -12.7629 O   0  0  0  0  0  0  0  0  0  0  0  0
   13.1716   -7.4478   -8.1665 C   0  0  0  0  0  0  0  0  0  0  0  0
   14.4979   -6.6427   -7.9400 C   0  0  1  0  0  0  0  0  0  0  0  0
   14.6106   -6.5375   -6.4623 C   0  0  0  0  0  0  0  0  0  0  0  0
   15.5769   -7.2831   -8.6988 C   0  0  0  0  0  0  0  0  0  0  0  0
   15.7947   -7.0312  -10.1291 C   0  0  2  0  0  0  0  0  0  0  0  0
   17.0246   -7.7705  -10.5705 N   0  0  0  0  0  0  0  0  0  0  0  0
   16.0301   -5.6394  -10.5322 C   0  0  0  0  0  0  0  0  0  0  0  0
   17.1278   -5.0459  -10.4742 O   0  0  0  0  0  0  0  0  0  0  0  0
   14.9821   -4.8285  -11.0406 O   0  0  0  0  0  0  0  0  0  0  0  0
  2  1  1  1
  2  3  1  0
  4  5  2  0
  4  2  1  0
  6  4  1  0
  7  6  1  0
  8  7  1  0
  8 15  1  0
  9  8  2  0
 11 10  1  1
 11 13  1  0
 12 11  1  0
 14 13  1  1
 14 15  1  0
 14 16  1  0
 16 17  2  0
 16 18  1  0
M  END
$$$$
