AGL.pdb
     RDKit          3D

 18 17  0  0  1  0  0  0  0  0999 V2000
   26.2376  -18.9092  -16.2459 C   0  0  0  0  0  0  0  0  0  0  0  0
   25.9229  -19.0031  -14.7705 C   0  0  2  0  0  0  0  0  0  0  0  0
   26.1955  -17.7146  -14.1753 N   0  0  0  0  0  0  0  0  0  0  0  0
   26.6848  -20.0386  -14.0736 C   0  0  0  0  0  0  0  0  0  0  0  0
   26.4715  -21.2548  -14.4173 O   0  0  0  0  0  0  0  0  0  0  0  0
   27.6349  -19.7637  -13.0500 N   0  0  0  0  0  0  0  0  0  0  0  0
   28.2269  -20.8445  -12.3541 C   0  0  0  0  0  0  0  0  0  0  0  0
   27.5998  -21.2618  -11.1085 C   0  0  0  0  0  0  0  0  0  0  0  0
   27.8600  -22.4474  -10.7089 O   0  0  0  0  0  0  0  0  0  0  0  0
   27.4047  -18.6492   -6.9274 C   0  0  0  0  0  0  0  0  0  0  0  0
   27.6217  -20.0002   -7.6934 C   0  0  1  0  0  0  0  0  0  0  0  0
   28.6525  -20.7098   -6.8926 C   0  0  0  0  0  0  0  0  0  0  0  0
   26.3185  -20.6360   -7.9118 C   0  0  0  0  0  0  0  0  0  0  0  0
   25.9029  -21.1577   -9.2201 C   0  0  2  0  0  0  0  0  0  0  0  0
   26.7366  -20.5108  -10.2880 N   0  0  0  0  0  0  0  0  0  0  0  0
   24.5146  -20.9076   -9.6266 C   0  0  0  0  0  0  0  0  0  0  0  0
   23.5002  -21.2460   -8.9809 O   0  0  0  0  0  0  0  0  0  0  0  0
   24.2077  -20.2328  -10.8370 O   0  0  0  0  0  0  0  0  0  0  0  0
  2  1  1  6
  2  3  1  0
  4  5  2  0
  4  2  1  0
  6  4  1  0
  7  6  1  0
  8  7  1  0
  8 15  1  0
  9  8  2  0
 11 10  1  1
 11 13  1  0
 12 11  1  0
 14 13  1  1
 14 15  1  0
 14 16  1  0
 16 17  2  0
 16 18  1  0
M  END
$$$$
