AGL.pdb
     RDKit          3D

 18 17  0  0  1  0  0  0  0  0999 V2000
   23.8967  -21.5686  -16.5220 C   0  0  0  0  0  0  0  0  0  0  0  0
   25.3962  -21.5792  -16.3319 C   0  0  2  0  0  0  0  0  0  0  0  0
   25.8360  -22.9557  -16.3461 N   0  0  0  0  0  0  0  0  0  0  0  0
   25.8345  -20.9348  -15.0945 C   0  0  0  0  0  0  0  0  0  0  0  0
   25.5490  -19.6940  -14.9466 O   0  0  0  0  0  0  0  0  0  0  0  0
   26.5504  -21.6091  -14.0656 N   0  0  0  0  0  0  0  0  0  0  0  0
   26.9620  -20.8804  -12.9243 C   0  0  0  0  0  0  0  0  0  0  0  0
   26.2577  -21.1377  -11.6766 C   0  0  0  0  0  0  0  0  0  0  0  0
   25.5577  -22.2058  -11.6273 O   0  0  0  0  0  0  0  0  0  0  0  0
   27.7046  -18.7679   -6.8066 C   0  0  0  0  0  0  0  0  0  0  0  0
   27.4544  -19.9570   -7.7977 C   0  0  1  0  0  0  0  0  0  0  0  0
   28.0838  -21.1251   -7.1292 C   0  0  0  0  0  0  0  0  0  0  0  0
   26.0274  -20.0035   -8.1318 C   0  0  0  0  0  0  0  0  0  0  0  0
   25.5082  -20.7602   -9.2782 C   0  0  2  0  0  0  0  0  0  0  0  0
   26.2561  -20.3459  -10.5124 N   0  0  0  0  0  0  0  0  0  0  0  0
   24.0927  -20.5688   -9.6169 C   0  0  0  0  0  0  0  0  0  0  0  0
   23.6624  -19.8591  -10.5505 O   0  0  0  0  0  0  0  0  0  0  0  0
   23.0618  -21.2040   -8.8764 O   0  0  0  0  0  0  0  0  0  0  0  0
  2  1  1  1
  2  3  1  0
  4  5  2  0
  4  2  1  0
  6  4  1  0
  7  6  1  0
  8  7  1  0
  8 15  1  0
  9  8  2  0
 11 10  1  1
 11 13  1  0
 12 11  1  0
 14 13  1  1
 14 15  1  0
 14 16  1  0
 16 17  2  0
 16 18  1  0
M  END
$$$$
