AGL.pdb
     RDKit          3D

 18 17  0  0  1  0  0  0  0  0999 V2000
   25.5890  -26.4872  -17.1263 C   0  0  0  0  0  0  0  0  0  0  0  0
   26.8981  -25.7424  -17.2539 C   0  0  2  0  0  0  0  0  0  0  0  0
   26.8216  -24.9083  -18.4316 N   0  0  0  0  0  0  0  0  0  0  0  0
   28.0646  -26.6196  -17.3465 C   0  0  0  0  0  0  0  0  0  0  0  0
   28.4157  -27.0065  -18.5168 O   0  0  0  0  0  0  0  0  0  0  0  0
   28.8144  -27.0555  -16.2179 N   0  0  0  0  0  0  0  0  0  0  0  0
   29.9417  -27.8866  -16.4217 C   0  0  0  0  0  0  0  0  0  0  0  0
   29.7104  -29.3220  -16.4916 C   0  0  0  0  0  0  0  0  0  0  0  0
   30.7480  -30.0679  -16.4711 O   0  0  0  0  0  0  0  0  0  0  0  0
   27.9014  -33.8484  -14.2930 C   0  0  0  0  0  0  0  0  0  0  0  0
   26.8618  -33.1910  -15.2657 C   0  0  1  0  0  0  0  0  0  0  0  0
   25.5489  -33.4421  -14.6172 C   0  0  0  0  0  0  0  0  0  0  0  0
   27.2754  -31.8111  -15.5395 C   0  0  0  0  0  0  0  0  0  0  0  0
   28.3731  -31.4823  -16.4579 C   0  0  2  0  0  0  0  0  0  0  0  0
   28.4738  -29.9893  -16.5796 N   0  0  0  0  0  0  0  0  0  0  0  0
   28.2522  -31.9628  -17.8398 C   0  0  0  0  0  0  0  0  0  0  0  0
   28.6519  -33.0701  -18.2577 O   0  0  0  0  0  0  0  0  0  0  0  0
   27.6451  -31.1704  -18.8487 O   0  0  0  0  0  0  0  0  0  0  0  0
  2  1  1  6
  2  3  1  0
  4  5  2  0
  4  2  1  0
  6  4  1  0
  7  6  1  0
  8  7  1  0
  8 15  1  0
  9  8  2  0
 11 10  1  1
 11 13  1  0
 12 11  1  0
 14 13  1  1
 14 15  1  0
 14 16  1  0
 16 17  2  0
 16 18  1  0
M  END
$$$$
