AGL.pdb
     RDKit          3D

 18 17  0  0  1  0  0  0  0  0999 V2000
   24.7145  -20.0221  -15.9215 C   0  0  0  0  0  0  0  0  0  0  0  0
   24.6527  -19.9277  -14.4142 C   0  0  2  0  0  0  0  0  0  0  0  0
   24.8361  -18.5417  -14.0482 N   0  0  0  0  0  0  0  0  0  0  0  0
   25.6503  -20.7529  -13.7341 C   0  0  0  0  0  0  0  0  0  0  0  0
   25.5541  -22.0233  -13.8737 O   0  0  0  0  0  0  0  0  0  0  0  0
   26.7039  -20.2204  -12.9389 N   0  0  0  0  0  0  0  0  0  0  0  0
   27.5613  -21.1106  -12.2495 C   0  0  0  0  0  0  0  0  0  0  0  0
   27.3553  -21.2624  -10.8165 C   0  0  0  0  0  0  0  0  0  0  0  0
   27.8023  -22.3364  -10.2873 O   0  0  0  0  0  0  0  0  0  0  0  0
   28.4164  -18.3314   -6.3784 C   0  0  0  0  0  0  0  0  0  0  0  0
   28.2276  -19.6226   -7.2479 C   0  0  1  0  0  0  0  0  0  0  0  0
   28.8773  -20.6950   -6.4509 C   0  0  0  0  0  0  0  0  0  0  0  0
   26.8112  -19.7509   -7.6048 C   0  0  0  0  0  0  0  0  0  0  0  0
   26.3225  -20.7639   -8.5490 C   0  0  2  0  0  0  0  0  0  0  0  0
   26.7192  -20.3625   -9.9403 N   0  0  0  0  0  0  0  0  0  0  0  0
   24.8700  -20.9651   -8.6177 C   0  0  0  0  0  0  0  0  0  0  0  0
   24.1406  -20.6448   -9.5799 O   0  0  0  0  0  0  0  0  0  0  0  0
   24.1543  -21.5652   -7.5490 O   0  0  0  0  0  0  0  0  0  0  0  0
  2  1  1  6
  2  3  1  0
  4  5  2  0
  4  2  1  0
  6  4  1  0
  7  6  1  0
  8  7  1  0
  8 15  1  0
  9  8  2  0
 11 10  1  1
 11 13  1  0
 12 11  1  0
 14 13  1  1
 14 15  1  0
 14 16  1  0
 16 17  2  0
 16 18  1  0
M  END
$$$$
