AGL.pdb
     RDKit          3D

 18 17  0  0  1  0  0  0  0  0999 V2000
   24.0418  -19.5005  -16.9518 C   0  0  0  0  0  0  0  0  0  0  0  0
   25.5482  -19.3894  -16.8952 C   0  0  2  0  0  0  0  0  0  0  0  0
   26.1029  -20.4651  -17.6849 N   0  0  0  0  0  0  0  0  0  0  0  0
   26.0892  -19.4453  -15.5377 C   0  0  0  0  0  0  0  0  0  0  0  0
   25.6199  -18.6116  -14.6847 O   0  0  0  0  0  0  0  0  0  0  0  0
   27.0943  -20.3657  -15.1272 N   0  0  0  0  0  0  0  0  0  0  0  0
   27.4985  -20.3816  -13.7710 C   0  0  0  0  0  0  0  0  0  0  0  0
   26.5378  -20.8700  -12.7925 C   0  0  0  0  0  0  0  0  0  0  0  0
   26.3489  -22.1336  -12.7611 O   0  0  0  0  0  0  0  0  0  0  0  0
   26.4423  -19.3426   -7.6297 C   0  0  0  0  0  0  0  0  0  0  0  0
   26.3354  -20.4139   -8.7698 C   0  0  1  0  0  0  0  0  0  0  0  0
   26.4835  -21.7122   -8.0628 C   0  0  0  0  0  0  0  0  0  0  0  0
   25.1215  -20.1557   -9.5507 C   0  0  0  0  0  0  0  0  0  0  0  0
   24.8839  -20.7632  -10.8664 C   0  0  2  0  0  0  0  0  0  0  0  0
   25.7886  -20.1122  -11.8724 N   0  0  0  0  0  0  0  0  0  0  0  0
   23.5358  -20.6242  -11.4308 C   0  0  0  0  0  0  0  0  0  0  0  0
   22.4976  -21.1310  -10.9558 O   0  0  0  0  0  0  0  0  0  0  0  0
   23.3010  -19.8702  -12.6101 O   0  0  0  0  0  0  0  0  0  0  0  0
  2  1  1  1
  2  3  1  0
  4  5  2  0
  4  2  1  0
  6  4  1  0
  7  6  1  0
  8  7  1  0
  8 15  1  0
  9  8  2  0
 11 10  1  1
 11 13  1  0
 12 11  1  0
 14 13  1  1
 14 15  1  0
 14 16  1  0
 16 17  2  0
 16 18  1  0
M  END
$$$$
