AGL.pdb
     RDKit          3D

 18 17  0  0  1  0  0  0  0  0999 V2000
   21.9629  -20.1927  -14.4728 C   0  0  0  0  0  0  0  0  0  0  0  0
   21.8551  -21.0043  -13.2023 C   0  0  2  0  0  0  0  0  0  0  0  0
   21.0736  -20.2433  -12.2542 N   0  0  0  0  0  0  0  0  0  0  0  0
   23.1494  -21.3448  -12.6129 C   0  0  0  0  0  0  0  0  0  0  0  0
   23.8983  -22.1518  -13.2691 O   0  0  0  0  0  0  0  0  0  0  0  0
   23.6076  -20.8311  -11.3670 N   0  0  0  0  0  0  0  0  0  0  0  0
   24.8398  -21.2923  -10.8454 C   0  0  0  0  0  0  0  0  0  0  0  0
   26.0535  -20.6537  -11.3332 C   0  0  0  0  0  0  0  0  0  0  0  0
   26.1176  -19.3832  -11.2105 O   0  0  0  0  0  0  0  0  0  0  0  0
   31.0058  -22.6838  -10.4962 C   0  0  0  0  0  0  0  0  0  0  0  0
   29.7247  -21.7806  -10.5408 C   0  0  1  0  0  0  0  0  0  0  0  0
   29.8885  -20.8613   -9.3852 C   0  0  0  0  0  0  0  0  0  0  0  0
   29.5855  -21.2217  -11.8892 C   0  0  0  0  0  0  0  0  0  0  0  0
   28.3886  -20.4886  -12.3213 C   0  0  2  0  0  0  0  0  0  0  0  0
   27.1703  -21.2723  -11.9267 N   0  0  0  0  0  0  0  0  0  0  0  0
   28.2335  -20.2567  -13.7626 C   0  0  0  0  0  0  0  0  0  0  0  0
   28.9249  -19.4733  -14.4472 O   0  0  0  0  0  0  0  0  0  0  0  0
   27.2429  -20.9354  -14.5193 O   0  0  0  0  0  0  0  0  0  0  0  0
  2  1  1  6
  2  3  1  0
  4  5  2  0
  4  2  1  0
  6  4  1  0
  7  6  1  0
  8  7  1  0
  8 15  1  0
  9  8  2  0
 11 10  1  6
 11 13  1  0
 12 11  1  0
 14 13  1  6
 14 15  1  0
 14 16  1  0
 16 17  2  0
 16 18  1  0
M  END
$$$$
