AGL.pdb
     RDKit          3D

 18 17  0  0  1  0  0  0  0  0999 V2000
   15.1850  -13.3411  -14.6058 C   0  0  0  0  0  0  0  0  0  0  0  0
   15.3427  -12.8053  -16.0103 C   0  0  2  0  0  0  0  0  0  0  0  0
   15.1060  -13.8944  -16.9303 N   0  0  0  0  0  0  0  0  0  0  0  0
   16.6569  -12.2186  -16.2694 C   0  0  0  0  0  0  0  0  0  0  0  0
   17.6628  -13.0128  -16.2752 O   0  0  0  0  0  0  0  0  0  0  0  0
   16.8670  -10.8317  -16.5111 N   0  0  0  0  0  0  0  0  0  0  0  0
   18.1529  -10.3900  -16.9037 C   0  0  0  0  0  0  0  0  0  0  0  0
   18.9315   -9.6444  -15.9255 C   0  0  0  0  0  0  0  0  0  0  0  0
   18.3683   -9.4199  -14.8005 O   0  0  0  0  0  0  0  0  0  0  0  0
   24.4109  -10.1178  -14.8589 C   0  0  0  0  0  0  0  0  0  0  0  0
   22.8799  -10.0395  -14.5289 C   0  0  1  0  0  0  0  0  0  0  0  0
   22.8019  -10.3825  -13.0855 C   0  0  0  0  0  0  0  0  0  0  0  0
   22.3612   -8.7475  -14.9893 C   0  0  0  0  0  0  0  0  0  0  0  0
   20.9318   -8.4127  -14.9568 C   0  0  2  0  0  0  0  0  0  0  0  0
   20.2374   -9.1390  -16.0723 N   0  0  0  0  0  0  0  0  0  0  0  0
   20.5733   -7.0021  -15.1488 C   0  0  0  0  0  0  0  0  0  0  0  0
   20.2566   -6.4786  -16.2378 O   0  0  0  0  0  0  0  0  0  0  0  0
   20.5589   -6.0875  -14.0636 O   0  0  0  0  0  0  0  0  0  0  0  0
  2  1  1  1
  2  3  1  0
  4  5  2  0
  4  2  1  0
  6  4  1  0
  7  6  1  0
  8  7  1  0
  8 15  1  0
  9  8  2  0
 11 10  1  1
 11 13  1  0
 12 11  1  0
 14 13  1  6
 14 15  1  0
 14 16  1  0
 16 17  2  0
 16 18  1  0
M  END
$$$$
