AGL.pdb
     RDKit          3D

 18 17  0  0  1  0  0  0  0  0999 V2000
   19.6441  -14.8091  -16.9347 C   0  0  0  0  0  0  0  0  0  0  0  0
   18.5782  -13.7930  -16.5941 C   0  0  2  0  0  0  0  0  0  0  0  0
   17.7716  -13.5828  -17.7747 N   0  0  0  0  0  0  0  0  0  0  0  0
   19.1147  -12.5142  -16.1300 C   0  0  0  0  0  0  0  0  0  0  0  0
   19.7551  -12.5154  -15.0198 O   0  0  0  0  0  0  0  0  0  0  0  0
   18.9615  -11.2907  -16.8410 N   0  0  0  0  0  0  0  0  0  0  0  0
   19.5640  -10.1177  -16.3272 C   0  0  0  0  0  0  0  0  0  0  0  0
   18.8618   -8.8595  -16.5342 C   0  0  0  0  0  0  0  0  0  0  0  0
   18.4495   -8.6258  -17.7211 O   0  0  0  0  0  0  0  0  0  0  0  0
   13.9598   -6.6996  -15.5930 C   0  0  0  0  0  0  0  0  0  0  0  0
   15.3061   -6.0302  -16.0385 C   0  0  1  0  0  0  0  0  0  0  0  0
   15.1345   -4.5981  -15.6822 C   0  0  0  0  0  0  0  0  0  0  0  0
   16.4239   -6.7846  -15.4628 C   0  0  0  0  0  0  0  0  0  0  0  0
   17.8072   -6.6280  -15.9302 C   0  0  2  0  0  0  0  0  0  0  0  0
   18.5818   -7.8649  -15.5778 N   0  0  0  0  0  0  0  0  0  0  0  0
   18.5840   -5.5235  -15.3543 C   0  0  0  0  0  0  0  0  0  0  0  0
   19.4465   -5.6369  -14.4577 O   0  0  0  0  0  0  0  0  0  0  0  0
   18.4056   -4.1854  -15.7926 O   0  0  0  0  0  0  0  0  0  0  0  0
  2  1  1  6
  2  3  1  0
  4  5  2  0
  4  2  1  0
  6  4  1  0
  7  6  1  0
  8  7  1  0
  8 15  1  0
  9  8  2  0
 11 10  1  1
 11 13  1  0
 12 11  1  0
 14 13  1  1
 14 15  1  0
 14 16  1  0
 16 17  2  0
 16 18  1  0
M  END
$$$$
