AGL.pdb
     RDKit          3D

 18 17  0  0  1  0  0  0  0  0999 V2000
   23.9398  -19.5972  -14.3677 C   0  0  0  0  0  0  0  0  0  0  0  0
   25.2098  -20.3259  -14.7431 C   0  0  2  0  0  0  0  0  0  0  0  0
   24.8732  -21.7110  -14.9815 N   0  0  0  0  0  0  0  0  0  0  0  0
   26.2564  -20.2415  -13.7253 C   0  0  0  0  0  0  0  0  0  0  0  0
   26.6803  -19.0722  -13.4158 O   0  0  0  0  0  0  0  0  0  0  0  0
   26.8160  -21.3768  -13.0743 N   0  0  0  0  0  0  0  0  0  0  0  0
   27.8343  -21.1835  -12.1106 C   0  0  0  0  0  0  0  0  0  0  0  0
   27.4543  -21.2753  -10.7085 C   0  0  0  0  0  0  0  0  0  0  0  0
   27.9350  -22.2603  -10.0512 O   0  0  0  0  0  0  0  0  0  0  0  0
   28.2080  -18.5601   -6.2498 C   0  0  0  0  0  0  0  0  0  0  0  0
   27.9765  -19.8107   -7.1670 C   0  0  1  0  0  0  0  0  0  0  0  0
   28.4486  -20.9553   -6.3458 C   0  0  0  0  0  0  0  0  0  0  0  0
   26.5918  -19.7954   -7.6491 C   0  0  0  0  0  0  0  0  0  0  0  0
   26.0854  -20.7641   -8.6297 C   0  0  2  0  0  0  0  0  0  0  0  0
   26.6163  -20.4038   -9.9871 N   0  0  0  0  0  0  0  0  0  0  0  0
   24.6296  -20.8361   -8.8046 C   0  0  0  0  0  0  0  0  0  0  0  0
   23.9993  -20.4161   -9.7979 O   0  0  0  0  0  0  0  0  0  0  0  0
   23.7926  -21.4138   -7.8146 O   0  0  0  0  0  0  0  0  0  0  0  0
  2  1  1  1
  2  3  1  0
  4  5  2  0
  4  2  1  0
  6  4  1  0
  7  6  1  0
  8  7  1  0
  8 15  1  0
  9  8  2  0
 11 10  1  1
 11 13  1  0
 12 11  1  0
 14 13  1  1
 14 15  1  0
 14 16  1  0
 16 17  2  0
 16 18  1  0
M  END
$$$$
