AGL.pdb
     RDKit          3D

 18 17  0  0  1  0  0  0  0  0999 V2000
   27.6434  -25.5930  -18.6675 C   0  0  0  0  0  0  0  0  0  0  0  0
   27.4144  -25.3124  -17.2000 C   0  0  2  0  0  0  0  0  0  0  0  0
   26.6700  -26.4207  -16.6467 N   0  0  0  0  0  0  0  0  0  0  0  0
   26.6979  -24.0628  -16.9472 C   0  0  0  0  0  0  0  0  0  0  0  0
   25.5680  -23.9064  -17.5316 O   0  0  0  0  0  0  0  0  0  0  0  0
   27.1881  -23.0312  -16.0979 N   0  0  0  0  0  0  0  0  0  0  0  0
   26.3635  -21.9129  -15.8293 C   0  0  0  0  0  0  0  0  0  0  0  0
   25.3909  -22.0421  -14.7540 C   0  0  0  0  0  0  0  0  0  0  0  0
   24.9971  -23.2269  -14.4813 O   0  0  0  0  0  0  0  0  0  0  0  0
   25.8756  -20.0037   -9.7980 C   0  0  0  0  0  0  0  0  0  0  0  0
   25.6437  -20.9621  -11.0172 C   0  0  1  0  0  0  0  0  0  0  0  0
   25.8616  -22.3209  -10.4572 C   0  0  0  0  0  0  0  0  0  0  0  0
   24.3543  -20.6386  -11.6361 C   0  0  0  0  0  0  0  0  0  0  0  0
   23.8736  -21.3023  -12.8546 C   0  0  2  0  0  0  0  0  0  0  0  0
   24.8299  -21.0120  -13.9751 N   0  0  0  0  0  0  0  0  0  0  0  0
   22.5615  -20.8876  -13.3659 C   0  0  0  0  0  0  0  0  0  0  0  0
   21.4628  -21.1441  -12.8297 O   0  0  0  0  0  0  0  0  0  0  0  0
   22.4378  -20.1308  -14.5602 O   0  0  0  0  0  0  0  0  0  0  0  0
  2  1  1  6
  2  3  1  0
  4  5  2  0
  4  2  1  0
  6  4  1  0
  7  6  1  0
  8  7  1  0
  8 15  1  0
  9  8  2  0
 11 10  1  1
 11 13  1  0
 12 11  1  0
 14 13  1  1
 14 15  1  0
 14 16  1  0
 16 17  2  0
 16 18  1  0
M  END
$$$$
