AGL.pdb
     RDKit          3D

 18 17  0  0  1  0  0  0  0  0999 V2000
   17.3810  -14.3048  -19.1023 C   0  0  0  0  0  0  0  0  0  0  0  0
   18.0506  -13.9044  -17.8077 C   0  0  2  0  0  0  0  0  0  0  0  0
   17.1369  -14.1956  -16.7265 N   0  0  0  0  0  0  0  0  0  0  0  0
   18.4374  -12.4949  -17.7596 C   0  0  0  0  0  0  0  0  0  0  0  0
   19.4900  -12.1534  -18.4062 O   0  0  0  0  0  0  0  0  0  0  0  0
   17.7124  -11.5028  -17.0412 N   0  0  0  0  0  0  0  0  0  0  0  0
   18.1340  -10.1540  -17.1175 C   0  0  0  0  0  0  0  0  0  0  0  0
   19.0271   -9.6724  -16.0738 C   0  0  0  0  0  0  0  0  0  0  0  0
   18.6324   -9.8302  -14.8686 O   0  0  0  0  0  0  0  0  0  0  0  0
   24.3459  -10.8270  -15.5330 C   0  0  0  0  0  0  0  0  0  0  0  0
   22.8808  -10.5949  -15.0245 C   0  0  1  0  0  0  0  0  0  0  0  0
   22.9017  -11.0845  -13.6219 C   0  0  0  0  0  0  0  0  0  0  0  0
   22.4998   -9.2050  -15.2945 C   0  0  0  0  0  0  0  0  0  0  0  0
   21.1423   -8.6972  -15.0580 C   0  0  2  0  0  0  0  0  0  0  0  0
   20.2798   -9.0504  -16.2352 N   0  0  0  0  0  0  0  0  0  0  0  0
   20.9911   -7.2450  -14.9061 C   0  0  0  0  0  0  0  0  0  0  0  0
   20.7007   -6.4485  -15.8235 O   0  0  0  0  0  0  0  0  0  0  0  0
   21.1715   -6.6092  -13.6500 O   0  0  0  0  0  0  0  0  0  0  0  0
  2  1  1  6
  2  3  1  0
  4  5  2  0
  4  2  1  0
  6  4  1  0
  7  6  1  0
  8  7  1  0
  8 15  1  0
  9  8  2  0
 11 10  1  1
 11 13  1  0
 12 11  1  0
 14 13  1  6
 14 15  1  0
 14 16  1  0
 16 17  2  0
 16 18  1  0
M  END
$$$$
