MGR.pdb
     RDKit          3D

 24 23  0  0  1  0  0  0  0  0999 V2000
    5.4343  -11.6680   26.4078 C   0  0  0  0  0  0  0  0  0  0  0  0
    7.2413  -11.5108   26.4327 S   0  0  0  0  0  0  0  0  0  0  0  0
    8.0052  -13.0825   25.9685 C   0  0  0  0  0  0  0  0  0  0  0  0
    7.1149  -14.2122   26.4451 C   0  0  0  0  0  0  0  0  0  0  0  0
    7.6919  -15.5544   26.0144 C   0  0  2  0  0  0  0  0  0  0  0  0
    8.8973  -15.3972   25.2584 N   0  0  0  0  0  0  0  0  0  0  0  0
    6.6776  -16.2631   25.1526 C   0  0  0  0  0  0  0  0  0  0  0  0
    5.6463  -16.7930   25.6046 O   0  0  0  0  0  0  0  0  0  0  0  0
    6.8964  -16.3434   23.7211 N   0  0  0  0  0  0  0  0  0  0  0  0
    7.2209  -17.5928   23.1027 C   0  0  0  0  0  0  0  0  0  0  0  0
    8.5982  -17.6525   22.6320 C   0  0  0  0  0  0  0  0  0  0  0  0
    8.9061  -18.7032   21.9550 O   0  0  0  0  0  0  0  0  0  0  0  0
    7.6990  -11.9691   18.8871 N   0  0  0  0  0  0  0  0  0  0  0  0
    8.1631  -13.2131   19.4337 C   0  0  0  0  0  0  0  0  0  0  0  0
    7.4885  -14.2886   19.3771 N   0  0  0  0  0  0  0  0  0  0  0  0
    9.4474  -13.2295   20.0683 N   0  0  0  0  0  0  0  0  0  0  0  0
   10.5016  -14.0913   19.6665 C   0  0  0  0  0  0  0  0  0  0  0  0
   10.5588  -15.4628   20.2501 C   0  0  0  0  0  0  0  0  0  0  0  0
   11.2777  -15.6550   21.5269 C   0  0  0  0  0  0  0  0  0  0  0  0
   10.9592  -16.8387   22.3397 C   0  0  2  0  0  0  0  0  0  0  0  0
    9.5776  -16.6712   22.8588 N   0  0  0  0  0  0  0  0  0  0  0  0
   11.8628  -16.9958   23.5089 C   0  0  0  0  0  0  0  0  0  0  0  0
   11.7469  -16.3903   24.6000 O   0  0  0  0  0  0  0  0  0  0  0  0
   12.9408  -17.8871   23.3969 O   0  0  0  0  0  0  0  0  0  0  0  0
  1  2  1  0
  3  2  1  0
  4  3  1  0
  5  4  1  0
  5  6  1  6
  7  5  1  0
  8  7  2  0
  9  7  1  0
 10  9  1  0
 11 21  1  0
 11 10  1  0
 12 11  2  0
 14 13  1  0
 15 14  2  0
 16 14  1  0
 17 16  1  0
 18 17  1  0
 20 19  1  1
 19 18  1  0
 20 21  1  0
 22 20  1  0
 23 22  2  0
 24 22  1  0
M  END
$$$$
