MGR.pdb
     RDKit          3D

 24 23  0  0  1  0  0  0  0  0999 V2000
    5.7186  -10.8265   26.6690 C   0  0  0  0  0  0  0  0  0  0  0  0
    6.9585  -11.8076   25.7798 S   0  0  0  0  0  0  0  0  0  0  0  0
    6.3257  -13.4735   25.4740 C   0  0  0  0  0  0  0  0  0  0  0  0
    7.3320  -14.2249   24.6262 C   0  0  0  0  0  0  0  0  0  0  0  0
    6.7724  -15.5838   24.2258 C   0  0  2  0  0  0  0  0  0  0  0  0
    6.5720  -16.4320   25.3614 N   0  0  0  0  0  0  0  0  0  0  0  0
    7.7513  -16.2553   23.2960 C   0  0  0  0  0  0  0  0  0  0  0  0
    8.5098  -17.1764   23.6497 O   0  0  0  0  0  0  0  0  0  0  0  0
    7.8294  -15.8202   21.9147 N   0  0  0  0  0  0  0  0  0  0  0  0
    8.7986  -16.3862   21.0264 C   0  0  0  0  0  0  0  0  0  0  0  0
   10.1587  -16.3011   21.5411 C   0  0  0  0  0  0  0  0  0  0  0  0
   10.9069  -15.4151   20.9824 O   0  0  0  0  0  0  0  0  0  0  0  0
   11.2054  -16.8538   30.0778 N   0  0  0  0  0  0  0  0  0  0  0  0
   10.8188  -15.7890   29.1956 C   0  0  0  0  0  0  0  0  0  0  0  0
   10.7136  -14.5803   29.5737 N   0  0  0  0  0  0  0  0  0  0  0  0
   10.5425  -16.1172   27.8287 N   0  0  0  0  0  0  0  0  0  0  0  0
   11.5118  -16.0222   26.7957 C   0  0  0  0  0  0  0  0  0  0  0  0
   11.0959  -16.3454   25.4001 C   0  0  0  0  0  0  0  0  0  0  0  0
   12.0250  -17.1190   24.5502 C   0  0  0  0  0  0  0  0  0  0  0  0
   12.0511  -16.8409   23.1062 C   0  0  2  0  0  0  0  0  0  0  0  0
   10.6878  -17.0937   22.5733 N   0  0  0  0  0  0  0  0  0  0  0  0
   12.9932  -17.7202   22.3663 C   0  0  0  0  0  0  0  0  0  0  0  0
   12.6660  -18.7141   21.6767 O   0  0  0  0  0  0  0  0  0  0  0  0
   14.3643  -17.4304   22.4391 O   0  0  0  0  0  0  0  0  0  0  0  0
  1  2  1  0
  3  2  1  0
  4  3  1  0
  5  4  1  0
  5  6  1  1
  7  5  1  0
  8  7  2  0
  9  7  1  0
 10  9  1  0
 11 21  1  0
 11 10  1  0
 12 11  2  0
 14 13  1  0
 15 14  2  0
 16 14  1  0
 17 16  1  0
 18 17  1  0
 20 19  1  1
 19 18  1  0
 20 21  1  0
 22 20  1  0
 23 22  2  0
 24 22  1  0
M  END
$$$$
