MGR.pdb
     RDKit          3D

 24 23  0  0  1  0  0  0  0  0999 V2000
    7.2359  -12.0677   20.2286 C   0  0  0  0  0  0  0  0  0  0  0  0
    6.5886  -12.9291   21.6879 S   0  0  0  0  0  0  0  0  0  0  0  0
    6.5954  -14.7150   21.4054 C   0  0  0  0  0  0  0  0  0  0  0  0
    7.7594  -15.0564   20.4972 C   0  0  0  0  0  0  0  0  0  0  0  0
    7.9000  -16.5675   20.3676 C   0  0  2  0  0  0  0  0  0  0  0  0
    7.7859  -17.2229   21.6351 N   0  0  0  0  0  0  0  0  0  0  0  0
    9.2576  -16.8794   19.7901 C   0  0  0  0  0  0  0  0  0  0  0  0
    9.5603  -16.6699   18.6013 O   0  0  0  0  0  0  0  0  0  0  0  0
   10.2772  -17.4539   20.6467 N   0  0  0  0  0  0  0  0  0  0  0  0
   11.6651  -17.2282   20.3794 C   0  0  0  0  0  0  0  0  0  0  0  0
   12.5275  -17.6191   21.4865 C   0  0  0  0  0  0  0  0  0  0  0  0
   13.7872  -17.4316   21.2990 O   0  0  0  0  0  0  0  0  0  0  0  0
    9.5802  -15.2649   28.6338 N   0  0  0  0  0  0  0  0  0  0  0  0
    9.7065  -14.4179   27.4813 C   0  0  0  0  0  0  0  0  0  0  0  0
    9.1330  -13.2878   27.3865 N   0  0  0  0  0  0  0  0  0  0  0  0
   10.5199  -14.8790   26.3958 N   0  0  0  0  0  0  0  0  0  0  0  0
   11.1154  -16.1673   26.3639 C   0  0  0  0  0  0  0  0  0  0  0  0
   11.7988  -16.6026   25.1115 C   0  0  0  0  0  0  0  0  0  0  0  0
   12.3830  -17.9592   25.0636 C   0  0  0  0  0  0  0  0  0  0  0  0
   13.0392  -18.3968   23.8221 C   0  0  2  0  0  0  0  0  0  0  0  0
   12.0890  -18.1659   22.7040 N   0  0  0  0  0  0  0  0  0  0  0  0
   13.3821  -19.8426   23.8295 C   0  0  0  0  0  0  0  0  0  0  0  0
   13.8919  -20.4610   24.7929 O   0  0  0  0  0  0  0  0  0  0  0  0
   13.1248  -20.5895   22.6696 O   0  0  0  0  0  0  0  0  0  0  0  0
  1  2  1  0
  3  2  1  0
  4  3  1  0
  5  4  1  0
  5  6  1  1
  7  5  1  0
  8  7  2  0
  9  7  1  0
 10  9  1  0
 11 21  1  0
 11 10  1  0
 12 11  2  0
 14 13  1  0
 15 14  2  0
 16 14  1  0
 17 16  1  0
 18 17  1  0
 20 19  1  1
 19 18  1  0
 20 21  1  0
 22 20  1  0
 23 22  2  0
 24 22  1  0
M  END
$$$$
