MGR.pdb
     RDKit          3D

 24 23  0  0  1  0  0  0  0  0999 V2000
    7.5348  -11.9085   20.3839 C   0  0  0  0  0  0  0  0  0  0  0  0
    8.3416  -12.6338   18.9301 S   0  0  0  0  0  0  0  0  0  0  0  0
    7.5901  -14.2310   18.5383 C   0  0  0  0  0  0  0  0  0  0  0  0
    7.6137  -15.0947   19.7831 C   0  0  0  0  0  0  0  0  0  0  0  0
    9.0483  -15.4544   20.1469 C   0  0  2  0  0  0  0  0  0  0  0  0
    9.6487  -16.3055   19.1648 N   0  0  0  0  0  0  0  0  0  0  0  0
    9.0449  -16.1802   21.4687 C   0  0  0  0  0  0  0  0  0  0  0  0
    8.6710  -15.6586   22.5349 O   0  0  0  0  0  0  0  0  0  0  0  0
    9.4974  -17.5571   21.5223 N   0  0  0  0  0  0  0  0  0  0  0  0
    9.5949  -18.2435   22.7745 C   0  0  0  0  0  0  0  0  0  0  0  0
   10.2722  -17.4611   23.7997 C   0  0  0  0  0  0  0  0  0  0  0  0
   10.5187  -16.2367   23.4881 O   0  0  0  0  0  0  0  0  0  0  0  0
    7.2965  -12.1420   27.7066 N   0  0  0  0  0  0  0  0  0  0  0  0
    7.0775  -12.8815   26.4955 C   0  0  0  0  0  0  0  0  0  0  0  0
    5.9205  -13.0985   26.0164 N   0  0  0  0  0  0  0  0  0  0  0  0
    8.2239  -13.3920   25.8044 N   0  0  0  0  0  0  0  0  0  0  0  0
    8.8870  -14.5901   26.1789 C   0  0  0  0  0  0  0  0  0  0  0  0
    8.1657  -15.8843   26.0067 C   0  0  0  0  0  0  0  0  0  0  0  0
    8.8537  -17.1314   26.4010 C   0  0  0  0  0  0  0  0  0  0  0  0
   10.3199  -17.1859   26.2986 C   0  0  2  0  0  0  0  0  0  0  0  0
   10.6582  -17.9384   25.0634 N   0  0  0  0  0  0  0  0  0  0  0  0
   10.9523  -17.8923   27.4427 C   0  0  0  0  0  0  0  0  0  0  0  0
   11.5302  -17.3373   28.4064 O   0  0  0  0  0  0  0  0  0  0  0  0
   10.9121  -19.2950   27.4583 O   0  0  0  0  0  0  0  0  0  0  0  0
  1  2  1  0
  3  2  1  0
  4  3  1  0
  5  4  1  0
  5  6  1  6
  7  5  1  0
  8  7  2  0
  9  7  1  0
 10  9  1  0
 11 21  1  0
 11 10  1  0
 12 11  2  0
 14 13  1  0
 15 14  2  0
 16 14  1  0
 17 16  1  0
 18 17  1  0
 20 19  1  1
 19 18  1  0
 20 21  1  0
 22 20  1  0
 23 22  2  0
 24 22  1  0
M  END
$$$$
