MGR.pdb
     RDKit          3D

 24 23  0  0  1  0  0  0  0  0999 V2000
    4.2876  -11.1790   26.8741 C   0  0  0  0  0  0  0  0  0  0  0  0
    5.9884  -11.3822   26.2770 S   0  0  0  0  0  0  0  0  0  0  0  0
    6.1037  -12.8487   25.2257 C   0  0  0  0  0  0  0  0  0  0  0  0
    7.5338  -12.9872   24.7443 C   0  0  0  0  0  0  0  0  0  0  0  0
    7.7954  -14.4127   24.2756 C   0  0  2  0  0  0  0  0  0  0  0  0
    6.7803  -15.3156   24.7265 N   0  0  0  0  0  0  0  0  0  0  0  0
    9.1207  -14.8692   24.8315 C   0  0  0  0  0  0  0  0  0  0  0  0
   10.1906  -14.2653   24.6334 O   0  0  0  0  0  0  0  0  0  0  0  0
    9.1734  -16.0718   25.6405 N   0  0  0  0  0  0  0  0  0  0  0  0
   10.4113  -16.5159   26.2054 C   0  0  0  0  0  0  0  0  0  0  0  0
   11.1665  -17.3811   25.3092 C   0  0  0  0  0  0  0  0  0  0  0  0
   11.5726  -18.4895   25.8227 O   0  0  0  0  0  0  0  0  0  0  0  0
   11.4361  -21.6494   17.3190 N   0  0  0  0  0  0  0  0  0  0  0  0
   11.9474  -20.6286   18.1895 C   0  0  0  0  0  0  0  0  0  0  0  0
   13.0875  -20.7008   18.7465 N   0  0  0  0  0  0  0  0  0  0  0  0
   11.1255  -19.4806   18.4326 N   0  0  0  0  0  0  0  0  0  0  0  0
   11.4859  -18.4435   19.3327 C   0  0  0  0  0  0  0  0  0  0  0  0
   11.7774  -18.8035   20.7505 C   0  0  0  0  0  0  0  0  0  0  0  0
   11.9968  -17.7125   21.7228 C   0  0  0  0  0  0  0  0  0  0  0  0
   12.2237  -18.0646   23.1327 C   0  0  2  0  0  0  0  0  0  0  0  0
   11.4679  -17.0956   23.9671 N   0  0  0  0  0  0  0  0  0  0  0  0
   13.6539  -17.9771   23.5263 C   0  0  0  0  0  0  0  0  0  0  0  0
   14.4819  -18.9155   23.4600 O   0  0  0  0  0  0  0  0  0  0  0  0
   14.1309  -16.7526   24.0186 O   0  0  0  0  0  0  0  0  0  0  0  0
  1  2  1  0
  3  2  1  0
  4  3  1  0
  5  4  1  0
  5  6  1  1
  7  5  1  0
  8  7  2  0
  9  7  1  0
 10  9  1  0
 11 21  1  0
 11 10  1  0
 12 11  2  0
 14 13  1  0
 15 14  2  0
 16 14  1  0
 17 16  1  0
 18 17  1  0
 20 19  1  6
 19 18  1  0
 20 21  1  0
 22 20  1  0
 23 22  2  0
 24 22  1  0
M  END
$$$$
