MGR.pdb
     RDKit          3D

 24 23  0  0  1  0  0  0  0  0999 V2000
    6.8765  -10.5285   26.8114 C   0  0  0  0  0  0  0  0  0  0  0  0
    6.7568  -12.3173   27.0875 S   0  0  0  0  0  0  0  0  0  0  0  0
    6.2362  -13.1444   25.5663 C   0  0  0  0  0  0  0  0  0  0  0  0
    6.0709  -14.6232   25.8522 C   0  0  0  0  0  0  0  0  0  0  0  0
    7.4252  -15.3195   25.8223 C   0  0  2  0  0  0  0  0  0  0  0  0
    8.0414  -15.2292   24.5334 N   0  0  0  0  0  0  0  0  0  0  0  0
    7.2275  -16.7769   26.1551 C   0  0  0  0  0  0  0  0  0  0  0  0
    7.5741  -17.2851   27.2369 O   0  0  0  0  0  0  0  0  0  0  0  0
    6.6038  -17.6487   25.1781 N   0  0  0  0  0  0  0  0  0  0  0  0
    6.8953  -17.5065   23.7839 C   0  0  0  0  0  0  0  0  0  0  0  0
    8.2911  -17.7749   23.4654 C   0  0  0  0  0  0  0  0  0  0  0  0
    8.7427  -18.9098   23.8716 O   0  0  0  0  0  0  0  0  0  0  0  0
    7.7285  -12.6312   19.8849 N   0  0  0  0  0  0  0  0  0  0  0  0
    8.1332  -13.4263   18.7599 C   0  0  0  0  0  0  0  0  0  0  0  0
    7.7641  -13.1794   17.5691 N   0  0  0  0  0  0  0  0  0  0  0  0
    8.9933  -14.5457   19.0041 N   0  0  0  0  0  0  0  0  0  0  0  0
    9.6128  -14.7905   20.2578 C   0  0  0  0  0  0  0  0  0  0  0  0
   10.5037  -15.9796   20.3892 C   0  0  0  0  0  0  0  0  0  0  0  0
   11.1637  -16.2242   21.6887 C   0  0  0  0  0  0  0  0  0  0  0  0
   10.5850  -17.2318   22.5905 C   0  0  2  0  0  0  0  0  0  0  0  0
    9.1462  -16.9069   22.7659 N   0  0  0  0  0  0  0  0  0  0  0  0
   11.2136  -17.2299   23.9369 C   0  0  0  0  0  0  0  0  0  0  0  0
   10.6313  -16.9382   25.0075 O   0  0  0  0  0  0  0  0  0  0  0  0
   12.5701  -17.5761   24.0342 O   0  0  0  0  0  0  0  0  0  0  0  0
  1  2  1  0
  3  2  1  0
  4  3  1  0
  5  4  1  0
  5  6  1  6
  7  5  1  0
  8  7  2  0
  9  7  1  0
 10  9  1  0
 11 21  1  0
 11 10  1  0
 12 11  2  0
 14 13  1  0
 15 14  2  0
 16 14  1  0
 17 16  1  0
 18 17  1  0
 20 19  1  6
 19 18  1  0
 20 21  1  0
 22 20  1  0
 23 22  2  0
 24 22  1  0
M  END
$$$$
