MGR.pdb
     RDKit          3D

 24 23  0  0  1  0  0  0  0  0999 V2000
    5.7315  -11.8800   25.8686 C   0  0  0  0  0  0  0  0  0  0  0  0
    7.5103  -12.2345   25.8467 S   0  0  0  0  0  0  0  0  0  0  0  0
    7.7840  -14.0192   25.7490 C   0  0  0  0  0  0  0  0  0  0  0  0
    6.6709  -14.7208   26.5005 C   0  0  0  0  0  0  0  0  0  0  0  0
    7.1533  -16.0707   27.0155 C   0  0  2  0  0  0  0  0  0  0  0  0
    8.5613  -16.0693   27.2736 N   0  0  0  0  0  0  0  0  0  0  0  0
    6.8608  -17.1193   25.9721 C   0  0  0  0  0  0  0  0  0  0  0  0
    5.7744  -17.2023   25.3709 O   0  0  0  0  0  0  0  0  0  0  0  0
    7.8843  -18.0909   25.6375 N   0  0  0  0  0  0  0  0  0  0  0  0
    7.6085  -19.1519   24.7172 C   0  0  0  0  0  0  0  0  0  0  0  0
    8.2297  -18.9501   23.4152 C   0  0  0  0  0  0  0  0  0  0  0  0
    8.1150  -19.9312   22.5897 O   0  0  0  0  0  0  0  0  0  0  0  0
    9.0392  -12.4930   18.9176 N   0  0  0  0  0  0  0  0  0  0  0  0
    8.3032  -12.1482   20.1012 C   0  0  0  0  0  0  0  0  0  0  0  0
    8.3626  -11.0003   20.6434 N   0  0  0  0  0  0  0  0  0  0  0  0
    7.4665  -13.1525   20.6875 N   0  0  0  0  0  0  0  0  0  0  0  0
    7.5598  -14.5304   20.3586 C   0  0  0  0  0  0  0  0  0  0  0  0
    8.5403  -15.3730   21.1027 C   0  0  0  0  0  0  0  0  0  0  0  0
    8.5388  -16.8314   20.8639 C   0  0  0  0  0  0  0  0  0  0  0  0
    9.4660  -17.6699   21.6390 C   0  0  2  0  0  0  0  0  0  0  0  0
    8.9197  -17.7937   23.0147 N   0  0  0  0  0  0  0  0  0  0  0  0
   10.8253  -17.0794   21.7465 C   0  0  0  0  0  0  0  0  0  0  0  0
   11.3468  -16.6500   22.8020 O   0  0  0  0  0  0  0  0  0  0  0  0
   11.5990  -16.9832   20.5796 O   0  0  0  0  0  0  0  0  0  0  0  0
  1  2  1  0
  3  2  1  0
  4  3  1  0
  5  4  1  0
  5  6  1  6
  7  5  1  0
  8  7  2  0
  9  7  1  0
 10  9  1  0
 11 21  1  0
 11 10  1  0
 12 11  2  0
 14 13  1  0
 15 14  2  0
 16 14  1  0
 17 16  1  0
 18 17  1  0
 20 19  1  6
 19 18  1  0
 20 21  1  0
 22 20  1  0
 23 22  2  0
 24 22  1  0
M  END
$$$$
