MGR.pdb
     RDKit          3D

 24 23  0  0  1  0  0  0  0  0999 V2000
    7.6117  -12.6779   20.2328 C   0  0  0  0  0  0  0  0  0  0  0  0
    7.0104  -14.1644   21.0809 S   0  0  0  0  0  0  0  0  0  0  0  0
    7.1846  -15.6050   20.0021 C   0  0  0  0  0  0  0  0  0  0  0  0
    8.3847  -15.3925   19.1018 C   0  0  0  0  0  0  0  0  0  0  0  0
    8.6373  -16.6362   18.2595 C   0  0  2  0  0  0  0  0  0  0  0  0
    7.8144  -17.7330   18.6704 N   0  0  0  0  0  0  0  0  0  0  0  0
   10.0820  -17.0400   18.4140 C   0  0  0  0  0  0  0  0  0  0  0  0
   11.0352  -16.3153   18.0752 O   0  0  0  0  0  0  0  0  0  0  0  0
   10.3986  -18.3355   18.9840 N   0  0  0  0  0  0  0  0  0  0  0  0
   11.7596  -18.7263   19.1931 C   0  0  0  0  0  0  0  0  0  0  0  0
   12.3553  -18.1032   20.3673 C   0  0  0  0  0  0  0  0  0  0  0  0
   13.3794  -17.3577   20.1381 O   0  0  0  0  0  0  0  0  0  0  0  0
    7.8999  -14.1236   26.2170 N   0  0  0  0  0  0  0  0  0  0  0  0
    7.7577  -13.8386   24.8170 C   0  0  0  0  0  0  0  0  0  0  0  0
    6.9195  -12.9980   24.3633 N   0  0  0  0  0  0  0  0  0  0  0  0
    8.6059  -14.5401   23.9000 N   0  0  0  0  0  0  0  0  0  0  0  0
    9.4990  -15.5689   24.2993 C   0  0  0  0  0  0  0  0  0  0  0  0
   10.4723  -16.0923   23.2975 C   0  0  0  0  0  0  0  0  0  0  0  0
   11.4517  -17.1099   23.7329 C   0  0  0  0  0  0  0  0  0  0  0  0
   12.5225  -17.4962   22.8016 C   0  0  2  0  0  0  0  0  0  0  0  0
   11.8993  -18.2555   21.6874 N   0  0  0  0  0  0  0  0  0  0  0  0
   13.5433  -18.3752   23.4288 C   0  0  0  0  0  0  0  0  0  0  0  0
   13.6302  -19.6147   23.2659 O   0  0  0  0  0  0  0  0  0  0  0  0
   14.4915  -17.7858   24.2791 O   0  0  0  0  0  0  0  0  0  0  0  0
  1  2  1  0
  3  2  1  0
  4  3  1  0
  5  4  1  0
  5  6  1  1
  7  5  1  0
  8  7  2  0
  9  7  1  0
 10  9  1  0
 11 21  1  0
 11 10  1  0
 12 11  2  0
 14 13  1  0
 15 14  2  0
 16 14  1  0
 17 16  1  0
 18 17  1  0
 20 19  1  1
 19 18  1  0
 20 21  1  0
 22 20  1  0
 23 22  2  0
 24 22  1  0
M  END
$$$$
