MGR.pdb
     RDKit          3D

 24 23  0  0  1  0  0  0  0  0999 V2000
    6.7024  -11.2543   25.2776 C   0  0  0  0  0  0  0  0  0  0  0  0
    7.6039  -12.4718   26.2752 S   0  0  0  0  0  0  0  0  0  0  0  0
    6.7427  -14.0612   26.2382 C   0  0  0  0  0  0  0  0  0  0  0  0
    6.0863  -14.2239   24.8822 C   0  0  0  0  0  0  0  0  0  0  0  0
    6.4419  -15.5791   24.2846 C   0  0  2  0  0  0  0  0  0  0  0  0
    6.9235  -16.4890   25.2792 N   0  0  0  0  0  0  0  0  0  0  0  0
    7.5242  -15.3840   23.2529 C   0  0  0  0  0  0  0  0  0  0  0  0
    7.3764  -14.6935   22.2282 O   0  0  0  0  0  0  0  0  0  0  0  0
    8.8105  -16.0257   23.4451 N   0  0  0  0  0  0  0  0  0  0  0  0
    9.9097  -15.7283   22.5779 C   0  0  0  0  0  0  0  0  0  0  0  0
   11.1393  -16.4055   22.9670 C   0  0  0  0  0  0  0  0  0  0  0  0
   12.1925  -16.0584   22.3132 O   0  0  0  0  0  0  0  0  0  0  0  0
    9.1795  -15.4806   27.5666 N   0  0  0  0  0  0  0  0  0  0  0  0
   10.3898  -15.2698   28.3099 C   0  0  0  0  0  0  0  0  0  0  0  0
   10.3999  -14.9122   29.5294 N   0  0  0  0  0  0  0  0  0  0  0  0
   11.6364  -15.4763   27.6348 N   0  0  0  0  0  0  0  0  0  0  0  0
   12.2944  -16.7333   27.5857 C   0  0  0  0  0  0  0  0  0  0  0  0
   11.6214  -17.8597   26.8764 C   0  0  0  0  0  0  0  0  0  0  0  0
   12.3378  -18.5201   25.7652 C   0  0  0  0  0  0  0  0  0  0  0  0
   12.5722  -17.7567   24.5301 C   0  0  2  0  0  0  0  0  0  0  0  0
   11.2474  -17.3772   23.9759 N   0  0  0  0  0  0  0  0  0  0  0  0
   13.2850  -18.5448   23.4913 C   0  0  0  0  0  0  0  0  0  0  0  0
   12.7348  -19.2217   22.5915 O   0  0  0  0  0  0  0  0  0  0  0  0
   14.6882  -18.5455   23.5083 O   0  0  0  0  0  0  0  0  0  0  0  0
  1  2  1  0
  3  2  1  0
  4  3  1  0
  5  4  1  0
  5  6  1  1
  7  5  1  0
  8  7  2  0
  9  7  1  0
 10  9  1  0
 11 21  1  0
 11 10  1  0
 12 11  2  0
 14 13  1  0
 15 14  2  0
 16 14  1  0
 17 16  1  0
 18 17  1  0
 20 19  1  1
 19 18  1  0
 20 21  1  0
 22 20  1  0
 23 22  2  0
 24 22  1  0
M  END
$$$$
