MGR.pdb
     RDKit          3D

 24 23  0  0  1  0  0  0  0  0999 V2000
    9.7066  -11.1365   18.8799 C   0  0  0  0  0  0  0  0  0  0  0  0
    8.2839  -12.0175   19.5801 S   0  0  0  0  0  0  0  0  0  0  0  0
    8.1815  -13.6816   18.8805 C   0  0  0  0  0  0  0  0  0  0  0  0
    7.0934  -14.4456   19.6074 C   0  0  0  0  0  0  0  0  0  0  0  0
    7.7097  -15.4888   20.5303 C   0  0  2  0  0  0  0  0  0  0  0  0
    7.9090  -16.7390   19.8620 N   0  0  0  0  0  0  0  0  0  0  0  0
    6.7795  -15.7141   21.6955 C   0  0  0  0  0  0  0  0  0  0  0  0
    6.5529  -14.8547   22.5665 O   0  0  0  0  0  0  0  0  0  0  0  0
    6.1044  -16.9910   21.8269 N   0  0  0  0  0  0  0  0  0  0  0  0
    5.3657  -17.3059   23.0117 C   0  0  0  0  0  0  0  0  0  0  0  0
    6.2131  -17.4502   24.1877 C   0  0  0  0  0  0  0  0  0  0  0  0
    5.5931  -17.6913   25.2898 O   0  0  0  0  0  0  0  0  0  0  0  0
   12.9327  -19.4819   28.2221 N   0  0  0  0  0  0  0  0  0  0  0  0
   12.5431  -20.8420   27.9775 C   0  0  0  0  0  0  0  0  0  0  0  0
   13.3528  -21.8185   28.0538 N   0  0  0  0  0  0  0  0  0  0  0  0
   11.1759  -21.0967   27.6334 N   0  0  0  0  0  0  0  0  0  0  0  0
   10.5600  -20.5800   26.4632 C   0  0  0  0  0  0  0  0  0  0  0  0
    9.7817  -19.3122   26.5714 C   0  0  0  0  0  0  0  0  0  0  0  0
    9.1404  -18.7740   25.3535 C   0  0  0  0  0  0  0  0  0  0  0  0
    8.3827  -17.5176   25.4567 C   0  0  2  0  0  0  0  0  0  0  0  0
    7.6143  -17.3493   24.1967 N   0  0  0  0  0  0  0  0  0  0  0  0
    9.2581  -16.3270   25.6120 C   0  0  0  0  0  0  0  0  0  0  0  0
    9.7026  -15.6276   24.6719 O   0  0  0  0  0  0  0  0  0  0  0  0
    9.6303  -15.9441   26.9097 O   0  0  0  0  0  0  0  0  0  0  0  0
  1  2  1  0
  3  2  1  0
  4  3  1  0
  5  4  1  0
  5  6  1  6
  7  5  1  0
  8  7  2  0
  9  7  1  0
 10  9  1  0
 11 21  1  0
 11 10  1  0
 12 11  2  0
 14 13  1  0
 15 14  2  0
 16 14  1  0
 17 16  1  0
 18 17  1  0
 20 19  1  6
 19 18  1  0
 20 21  1  0
 22 20  1  0
 23 22  2  0
 24 22  1  0
M  END
$$$$
