RVN.pdb
     RDKit          3D

 27 26  0  0  1  0  0  0  0  0999 V2000
   25.9424  -15.3521  -18.5726 N   0  0  0  0  0  0  0  0  0  0  0  0
   26.0788  -14.3204  -17.6061 C   0  0  0  0  0  0  0  0  0  0  0  0
   25.3734  -13.2334  -17.6974 N   0  0  0  0  0  0  0  0  0  0  0  0
   26.9848  -14.4367  -16.5125 N   0  0  0  0  0  0  0  0  0  0  0  0
   27.6826  -15.7014  -16.2714 C   0  0  0  0  0  0  0  0  0  0  0  0
   26.6175  -16.7701  -16.1844 C   0  0  0  0  0  0  0  0  0  0  0  0
   26.5565  -17.4494  -14.8577 C   0  0  0  0  0  0  0  0  0  0  0  0
   27.3639  -18.7059  -14.7465 C   0  0  2  0  0  0  0  0  0  0  0  0
   27.8768  -18.9929  -16.0987 N   0  0  0  0  0  0  0  0  0  0  0  0
   26.6150  -19.8692  -14.2753 C   0  0  0  0  0  0  0  0  0  0  0  0
   26.1723  -20.6980  -15.1104 O   0  0  0  0  0  0  0  0  0  0  0  0
   25.4941  -12.4732  -16.9937 C   0  0  0  0  0  0  0  0  0  0  0  0
   24.7383  -22.0309  -10.2092 C   0  0  1  0  0  0  0  0  0  0  0  0
   25.6125  -20.9584  -10.8181 C   0  0  0  0  0  0  0  0  0  0  0  0
   25.1469  -19.5945  -10.3919 C   0  0  2  0  0  0  0  0  0  0  0  0
   25.5504  -21.1080  -12.3455 N   0  0  0  0  0  0  0  0  0  0  0  0
   26.3785  -20.0812  -12.8944 C   0  0  0  0  0  0  0  0  0  0  0  0
   24.1169  -20.8643  -12.7001 O   0  0  0  0  0  0  0  0  0  0  0  0
   23.6210  -19.6920  -12.6129 N   0  0  0  0  0  0  0  0  0  0  0  0
   22.5568  -23.3874  -16.6179 C   0  0  0  0  0  0  0  0  0  0  0  0
   22.0286  -22.2635  -15.9524 O   0  0  0  0  0  0  0  0  0  0  0  0
   22.1331  -21.1355  -16.4637 C   0  0  0  0  0  0  0  0  0  0  0  0
   21.3561  -22.4329  -14.6562 C   0  0  2  0  0  0  0  0  0  0  0  0
   21.9156  -21.5718  -13.5787 N   0  0  0  0  0  0  0  0  0  0  0  0
   23.2352  -21.8793  -13.1423 C   0  0  0  0  0  0  0  0  0  0  0  0
   21.0066  -21.7118  -12.3845 O   0  0  0  0  0  0  0  0  0  0  0  0
   21.3751  -22.3009  -11.3342 O   0  0  0  0  0  0  0  0  0  0  0  0
  2  1  1  0
  3  2  2  0
  4  2  1  0
  5  4  1  0
  6  5  1  0
  7  6  1  0
  8  7  1  0
  8  9  1  6
 10 16  1  0
 10  8  1  0
 11 10  2  0
 13 12  1  1
 13 14  1  0
 15 16  1  6
 15 13  1  0
 17 15  1  0
 18 17  2  0
 20 19  1  0
 21 20  2  0
 22 20  1  0
 23 22  1  6
 23 24  1  0
 24 17  1  0
 25 23  1  0
 26 25  2  0
 27 25  1  0
M  END
$$$$
