RVN.pdb
     RDKit          3D

 27 26  0  0  1  0  0  0  0  0999 V2000
   29.0974  -17.4582  -19.7469 N   0  0  0  0  0  0  0  0  0  0  0  0
   27.8831  -16.8882  -19.2805 C   0  0  0  0  0  0  0  0  0  0  0  0
   27.1201  -16.2114  -20.0851 N   0  0  0  0  0  0  0  0  0  0  0  0
   27.4607  -17.0345  -17.9275 N   0  0  0  0  0  0  0  0  0  0  0  0
   28.3282  -17.7076  -16.9586 C   0  0  0  0  0  0  0  0  0  0  0  0
   27.8519  -19.1397  -16.8776 C   0  0  0  0  0  0  0  0  0  0  0  0
   26.9848  -19.4174  -15.6961 C   0  0  0  0  0  0  0  0  0  0  0  0
   27.4435  -20.5404  -14.8178 C   0  0  2  0  0  0  0  0  0  0  0  0
   28.1563  -21.4893  -15.6926 N   0  0  0  0  0  0  0  0  0  0  0  0
   26.3675  -21.2549  -14.1338 C   0  0  0  0  0  0  0  0  0  0  0  0
   25.7433  -22.1605  -14.7426 O   0  0  0  0  0  0  0  0  0  0  0  0
   26.2429  -15.7750  -19.7276 C   0  0  0  0  0  0  0  0  0  0  0  0
   24.8241  -19.7448  -10.3756 C   0  0  1  0  0  0  0  0  0  0  0  0
   25.1587  -21.2033  -10.5900 C   0  0  0  0  0  0  0  0  0  0  0  0
   26.5813  -21.4813  -10.1932 C   0  0  1  0  0  0  0  0  0  0  0  0
   24.9281  -21.5286  -12.0733 N   0  0  0  0  0  0  0  0  0  0  0  0
   26.0141  -20.9465  -12.7967 C   0  0  0  0  0  0  0  0  0  0  0  0
   23.6442  -20.8443  -12.4243 O   0  0  0  0  0  0  0  0  0  0  0  0
   23.6167  -19.5834  -12.6168 N   0  0  0  0  0  0  0  0  0  0  0  0
   18.9672  -20.9653  -15.8899 C   0  0  0  0  0  0  0  0  0  0  0  0
   19.9580  -20.2890  -15.1510 O   0  0  0  0  0  0  0  0  0  0  0  0
   19.8597  -19.0649  -14.9592 C   0  0  0  0  0  0  0  0  0  0  0  0
   21.1026  -21.0367  -14.6108 C   0  0  2  0  0  0  0  0  0  0  0  0
   21.2770  -20.8775  -13.1411 N   0  0  0  0  0  0  0  0  0  0  0  0
   22.4083  -21.5201  -12.5636 C   0  0  0  0  0  0  0  0  0  0  0  0
   20.0505  -21.4583  -12.4852 O   0  0  0  0  0  0  0  0  0  0  0  0
   20.1050  -22.4984  -11.7772 O   0  0  0  0  0  0  0  0  0  0  0  0
  2  1  1  0
  3  2  2  0
  4  2  1  0
  5  4  1  0
  6  5  1  0
  7  6  1  0
  8  7  1  0
  8  9  1  6
 10 16  1  0
 10  8  1  0
 11 10  2  0
 13 12  1  1
 13 14  1  0
 15 16  1  6
 15 13  1  0
 17 15  1  0
 18 17  2  0
 20 19  1  0
 21 20  2  0
 22 20  1  0
 23 22  1  6
 23 24  1  0
 24 17  1  0
 25 23  1  0
 26 25  2  0
 27 25  1  0
M  END
$$$$
