RVN.pdb
     RDKit          3D

 27 26  0  0  1  0  0  0  0  0999 V2000
   32.0769  -26.1416  -16.4870 N   0  0  0  0  0  0  0  0  0  0  0  0
   31.4618  -25.8830  -17.7407 C   0  0  0  0  0  0  0  0  0  0  0  0
   31.9099  -26.4435  -18.8234 N   0  0  0  0  0  0  0  0  0  0  0  0
   30.3433  -25.0080  -17.8573 N   0  0  0  0  0  0  0  0  0  0  0  0
   29.7590  -24.4031  -16.6585 C   0  0  0  0  0  0  0  0  0  0  0  0
   30.2368  -22.9697  -16.6239 C   0  0  0  0  0  0  0  0  0  0  0  0
   29.4013  -22.0796  -15.7668 C   0  0  0  0  0  0  0  0  0  0  0  0
   27.9529  -22.0092  -16.1413 C   0  0  2  0  0  0  0  0  0  0  0  0
   27.8955  -21.3626  -17.4651 N   0  0  0  0  0  0  0  0  0  0  0  0
   27.1219  -21.2452  -15.2129 C   0  0  0  0  0  0  0  0  0  0  0  0
   27.1169  -21.5513  -13.9937 O   0  0  0  0  0  0  0  0  0  0  0  0
   31.4749  -26.2198  -19.7445 C   0  0  0  0  0  0  0  0  0  0  0  0
   24.9443  -18.1387  -16.9044 C   0  0  1  0  0  0  0  0  0  0  0  0
   25.3520  -18.0006  -15.4553 C   0  0  0  0  0  0  0  0  0  0  0  0
   26.6773  -17.3005  -15.3453 C   0  0  1  0  0  0  0  0  0  0  0  0
   25.4224  -19.4093  -14.8473 N   0  0  0  0  0  0  0  0  0  0  0  0
   26.3215  -20.1651  -15.6609 C   0  0  0  0  0  0  0  0  0  0  0  0
   24.0327  -19.9521  -14.9667 O   0  0  0  0  0  0  0  0  0  0  0  0
   23.6056  -20.3915  -16.0858 N   0  0  0  0  0  0  0  0  0  0  0  0
   19.2561  -21.5686  -14.3525 C   0  0  0  0  0  0  0  0  0  0  0  0
   19.7567  -21.4931  -13.0377 O   0  0  0  0  0  0  0  0  0  0  0  0
   19.0606  -21.8880  -12.0868 C   0  0  0  0  0  0  0  0  0  0  0  0
   21.1007  -20.9476  -12.7993 C   0  0  2  0  0  0  0  0  0  0  0  0
   21.8244  -20.5820  -14.0476 N   0  0  0  0  0  0  0  0  0  0  0  0
   23.1205  -20.0159  -13.8864 C   0  0  0  0  0  0  0  0  0  0  0  0
   20.9782  -19.5625  -14.7663 O   0  0  0  0  0  0  0  0  0  0  0  0
   21.0279  -18.3371  -14.4802 O   0  0  0  0  0  0  0  0  0  0  0  0
  2  1  1  0
  3  2  2  0
  4  2  1  0
  5  4  1  0
  6  5  1  0
  7  6  1  0
  8  7  1  0
  8  9  1  6
 10 16  1  0
 10  8  1  0
 11 10  2  0
 13 12  1  1
 13 14  1  0
 15 16  1  6
 15 13  1  0
 17 15  1  0
 18 17  2  0
 20 19  1  0
 21 20  2  0
 22 20  1  0
 23 22  1  6
 23 24  1  0
 24 17  1  0
 25 23  1  0
 26 25  2  0
 27 25  1  0
M  END
$$$$
