RVN.pdb
     RDKit          3D

 27 26  0  0  1  0  0  0  0  0999 V2000
   28.2632  -15.0136  -17.6789 N   0  0  0  0  0  0  0  0  0  0  0  0
   26.8636  -15.2329  -17.7795 C   0  0  0  0  0  0  0  0  0  0  0  0
   26.2914  -15.3197  -18.9424 N   0  0  0  0  0  0  0  0  0  0  0  0
   26.0431  -15.3636  -16.6219 N   0  0  0  0  0  0  0  0  0  0  0  0
   26.6425  -15.2902  -15.2878 C   0  0  0  0  0  0  0  0  0  0  0  0
   27.3619  -16.6009  -15.0672 C   0  0  0  0  0  0  0  0  0  0  0  0
   26.4490  -17.7455  -14.7817 C   0  0  0  0  0  0  0  0  0  0  0  0
   27.1298  -19.0469  -14.4883 C   0  0  2  0  0  0  0  0  0  0  0  0
   27.7846  -19.4664  -15.7409 N   0  0  0  0  0  0  0  0  0  0  0  0
   26.2343  -20.1154  -14.0498 C   0  0  0  0  0  0  0  0  0  0  0  0
   25.6886  -20.8546  -14.9078 O   0  0  0  0  0  0  0  0  0  0  0  0
   25.2577  -15.4425  -19.0068 C   0  0  0  0  0  0  0  0  0  0  0  0
   25.0078  -20.3145   -9.8754 C   0  0  1  0  0  0  0  0  0  0  0  0
   25.3946  -21.5245  -10.6949 C   0  0  0  0  0  0  0  0  0  0  0  0
   26.8680  -21.7940  -10.5732 C   0  0  1  0  0  0  0  0  0  0  0  0
   25.0044  -21.2513  -12.1551 N   0  0  0  0  0  0  0  0  0  0  0  0
   25.9692  -20.3347  -12.6751 C   0  0  0  0  0  0  0  0  0  0  0  0
   23.6581  -20.6017  -12.0808 O   0  0  0  0  0  0  0  0  0  0  0  0
   23.5581  -19.3446  -11.8869 N   0  0  0  0  0  0  0  0  0  0  0  0
   22.3495  -18.2779  -15.4672 C   0  0  0  0  0  0  0  0  0  0  0  0
   21.4346  -18.9556  -14.6372 O   0  0  0  0  0  0  0  0  0  0  0  0
   20.4750  -18.3403  -14.1419 C   0  0  0  0  0  0  0  0  0  0  0  0
   21.6212  -20.3876  -14.3627 C   0  0  2  0  0  0  0  0  0  0  0  0
   21.3474  -20.7629  -12.9486 N   0  0  0  0  0  0  0  0  0  0  0  0
   22.4386  -21.3076  -12.2145 C   0  0  0  0  0  0  0  0  0  0  0  0
   20.2595  -21.8059  -12.9710 O   0  0  0  0  0  0  0  0  0  0  0  0
   20.4956  -23.0179  -12.7230 O   0  0  0  0  0  0  0  0  0  0  0  0
  2  1  1  0
  3  2  2  0
  4  2  1  0
  5  4  1  0
  6  5  1  0
  7  6  1  0
  8  7  1  0
  8  9  1  6
 10 16  1  0
 10  8  1  0
 11 10  2  0
 13 12  1  1
 13 14  1  0
 15 16  1  1
 15 13  1  0
 17 15  1  0
 18 17  2  0
 20 19  1  0
 21 20  2  0
 22 20  1  0
 23 22  1  1
 23 24  1  0
 24 17  1  0
 25 23  1  0
 26 25  2  0
 27 25  1  0
M  END
$$$$
