RVN.pdb
     RDKit          3D

 27 26  0  0  1  0  0  0  0  0999 V2000
   17.3592  -17.7814  -17.1670 N   0  0  0  0  0  0  0  0  0  0  0  0
   17.1008  -18.1263  -18.5203 C   0  0  0  0  0  0  0  0  0  0  0  0
   16.4682  -19.2226  -18.8124 N   0  0  0  0  0  0  0  0  0  0  0  0
   17.5216  -17.2930  -19.5967 N   0  0  0  0  0  0  0  0  0  0  0  0
   18.1976  -16.0240  -19.3190 C   0  0  0  0  0  0  0  0  0  0  0  0
   19.4900  -16.3703  -18.6163 C   0  0  0  0  0  0  0  0  0  0  0  0
   20.2984  -15.1790  -18.2259 C   0  0  0  0  0  0  0  0  0  0  0  0
   21.1525  -14.6033  -19.3132 C   0  0  2  0  0  0  0  0  0  0  0  0
   22.0709  -15.6770  -19.7344 N   0  0  0  0  0  0  0  0  0  0  0  0
   21.9450  -13.4425  -18.9125 C   0  0  0  0  0  0  0  0  0  0  0  0
   23.0400  -13.6172  -18.3204 O   0  0  0  0  0  0  0  0  0  0  0  0
   16.2970  -19.4756  -19.8095 C   0  0  0  0  0  0  0  0  0  0  0  0
   20.8023   -9.8380  -20.5643 C   0  0  1  0  0  0  0  0  0  0  0  0
   22.2379  -10.0813  -20.1581 C   0  0  0  0  0  0  0  0  0  0  0  0
   22.9866  -10.7765  -21.2603 C   0  0  1  0  0  0  0  0  0  0  0  0
   22.2300  -10.9305  -18.8783 N   0  0  0  0  0  0  0  0  0  0  0  0
   21.5026  -12.1229  -19.1791 C   0  0  0  0  0  0  0  0  0  0  0  0
   21.4864  -10.1081  -17.8730 O   0  0  0  0  0  0  0  0  0  0  0  0
   20.2113  -10.0665  -17.8896 N   0  0  0  0  0  0  0  0  0  0  0  0
   20.0625   -7.0100  -14.0559 C   0  0  0  0  0  0  0  0  0  0  0  0
   20.9061   -8.0183  -13.5495 O   0  0  0  0  0  0  0  0  0  0  0  0
   20.9940   -8.1932  -12.3221 C   0  0  0  0  0  0  0  0  0  0  0  0
   21.6773   -8.8581  -14.4774 C   0  0  2  0  0  0  0  0  0  0  0  0
   21.3594   -8.6085  -15.9099 N   0  0  0  0  0  0  0  0  0  0  0  0
   22.1188   -9.3418  -16.8650 C   0  0  0  0  0  0  0  0  0  0  0  0
   21.6095   -7.1450  -16.1694 O   0  0  0  0  0  0  0  0  0  0  0  0
   22.6977   -6.7317  -16.6503 O   0  0  0  0  0  0  0  0  0  0  0  0
  2  1  1  0
  3  2  2  0
  4  2  1  0
  5  4  1  0
  6  5  1  0
  7  6  1  0
  8  7  1  0
  8  9  1  1
 10 16  1  0
 10  8  1  0
 11 10  2  0
 13 12  1  6
 13 14  1  0
 15 16  1  6
 15 13  1  0
 17 15  1  0
 18 17  2  0
 20 19  1  0
 21 20  2  0
 22 20  1  0
 23 22  1  1
 23 24  1  0
 24 17  1  0
 25 23  1  0
 26 25  2  0
 27 25  1  0
M  END
$$$$
