RVN.pdb
     RDKit          3D

 27 26  0  0  1  0  0  0  0  0999 V2000
   26.2751  -21.6422  -12.5066 N   0  0  0  0  0  0  0  0  0  0  0  0
   25.2962  -21.2364  -11.5610 C   0  0  0  0  0  0  0  0  0  0  0  0
   25.5516  -21.2779  -10.2880 N   0  0  0  0  0  0  0  0  0  0  0  0
   24.0112  -20.7744  -11.9679 N   0  0  0  0  0  0  0  0  0  0  0  0
   23.7438  -20.5065  -13.3826 C   0  0  0  0  0  0  0  0  0  0  0  0
   24.2802  -19.1225  -13.6668 C   0  0  0  0  0  0  0  0  0  0  0  0
   24.0617  -18.6714  -15.0717 C   0  0  0  0  0  0  0  0  0  0  0  0
   24.1142  -19.7542  -16.1050 C   0  0  2  0  0  0  0  0  0  0  0  0
   24.9918  -19.2605  -17.1820 N   0  0  0  0  0  0  0  0  0  0  0  0
   22.8186  -20.1050  -16.6834 C   0  0  0  0  0  0  0  0  0  0  0  0
   22.2074  -19.2609  -17.3864 O   0  0  0  0  0  0  0  0  0  0  0  0
   24.8310  -20.9664   -9.6015 C   0  0  0  0  0  0  0  0  0  0  0  0
   21.7619  -24.0777  -16.4471 C   0  0  1  0  0  0  0  0  0  0  0  0
   21.1589  -23.2149  -17.5320 C   0  0  0  0  0  0  0  0  0  0  0  0
   22.0513  -23.1882  -18.7409 C   0  0  1  0  0  0  0  0  0  0  0  0
   20.9654  -21.8025  -16.9603 N   0  0  0  0  0  0  0  0  0  0  0  0
   22.2378  -21.3794  -16.4671 C   0  0  0  0  0  0  0  0  0  0  0  0
   20.0000  -21.9719  -15.8292 O   0  0  0  0  0  0  0  0  0  0  0  0
   20.3169  -21.6028  -14.6497 N   0  0  0  0  0  0  0  0  0  0  0  0
   15.8791  -22.6129  -12.8886 C   0  0  0  0  0  0  0  0  0  0  0  0
   16.3431  -21.3464  -13.2956 O   0  0  0  0  0  0  0  0  0  0  0  0
   15.8698  -20.3189  -12.7807 C   0  0  0  0  0  0  0  0  0  0  0  0
   17.3856  -21.2486  -14.3274 C   0  0  1  0  0  0  0  0  0  0  0  0
   17.7892  -22.5654  -14.8919 N   0  0  0  0  0  0  0  0  0  0  0  0
   18.7098  -22.5346  -15.9773 C   0  0  0  0  0  0  0  0  0  0  0  0
   16.5344  -23.2358  -15.3897 O   0  0  0  0  0  0  0  0  0  0  0  0
   16.3062  -23.3903  -16.6187 O   0  0  0  0  0  0  0  0  0  0  0  0
  2  1  1  0
  3  2  2  0
  4  2  1  0
  5  4  1  0
  6  5  1  0
  7  6  1  0
  8  7  1  0
  8  9  1  6
 10 16  1  0
 10  8  1  0
 11 10  2  0
 13 12  1  6
 13 14  1  0
 15 16  1  1
 15 13  1  0
 17 15  1  0
 18 17  2  0
 20 19  1  0
 21 20  2  0
 22 20  1  0
 23 22  1  1
 23 24  1  0
 24 17  1  0
 25 23  1  0
 26 25  2  0
 27 25  1  0
M  END
$$$$
