RVN.pdb
     RDKit          3D

 27 26  0  0  1  0  0  0  0  0999 V2000
   22.6615  -17.2152  -18.7176 N   0  0  0  0  0  0  0  0  0  0  0  0
   23.9211  -17.8232  -18.9640 C   0  0  0  0  0  0  0  0  0  0  0  0
   24.7797  -17.2623  -19.7613 N   0  0  0  0  0  0  0  0  0  0  0  0
   24.2865  -19.0578  -18.3537 N   0  0  0  0  0  0  0  0  0  0  0  0
   23.3528  -19.7318  -17.4490 C   0  0  0  0  0  0  0  0  0  0  0  0
   23.2379  -18.8582  -16.2211 C   0  0  0  0  0  0  0  0  0  0  0  0
   23.4202  -19.5986  -14.9391 C   0  0  0  0  0  0  0  0  0  0  0  0
   22.4450  -20.7097  -14.6997 C   0  0  2  0  0  0  0  0  0  0  0  0
   21.2209  -20.3571  -15.4419 N   0  0  0  0  0  0  0  0  0  0  0  0
   22.0951  -20.9189  -13.2961 C   0  0  0  0  0  0  0  0  0  0  0  0
   23.0100  -21.0811  -12.4494 O   0  0  0  0  0  0  0  0  0  0  0  0
   25.6958  -17.7242  -19.9488 C   0  0  0  0  0  0  0  0  0  0  0  0
   18.7127  -19.3343  -12.0990 C   0  0  1  0  0  0  0  0  0  0  0  0
   19.7158  -19.7853  -11.0619 C   0  0  0  0  0  0  0  0  0  0  0  0
   20.7964  -18.7550  -10.8911 C   0  0  1  0  0  0  0  0  0  0  0  0
   20.3036  -21.1270  -11.5243 N   0  0  0  0  0  0  0  0  0  0  0  0
   20.7436  -20.9422  -12.8710 C   0  0  0  0  0  0  0  0  0  0  0  0
   19.1568  -22.0876  -11.4797 O   0  0  0  0  0  0  0  0  0  0  0  0
   18.5097  -22.3697  -12.5425 N   0  0  0  0  0  0  0  0  0  0  0  0
   19.2592  -25.5889   -7.6109 C   0  0  0  0  0  0  0  0  0  0  0  0
   18.7185  -25.4576   -8.9052 O   0  0  0  0  0  0  0  0  0  0  0  0
   19.2222  -26.0842   -9.8530 C   0  0  0  0  0  0  0  0  0  0  0  0
   17.5604  -24.5794   -9.1262 C   0  0  2  0  0  0  0  0  0  0  0  0
   17.6905  -23.7152  -10.3310 N   0  0  0  0  0  0  0  0  0  0  0  0
   18.7191  -22.7317  -10.2978 C   0  0  0  0  0  0  0  0  0  0  0  0
   16.3814  -22.9865  -10.4954 O   0  0  0  0  0  0  0  0  0  0  0  0
   16.2624  -21.7633  -10.2199 O   0  0  0  0  0  0  0  0  0  0  0  0
  2  1  1  0
  3  2  2  0
  4  2  1  0
  5  4  1  0
  6  5  1  0
  7  6  1  0
  8  7  1  0
  8  9  1  6
 10 16  1  0
 10  8  1  0
 11 10  2  0
 13 12  1  1
 13 14  1  0
 15 16  1  6
 15 13  1  0
 17 15  1  0
 18 17  2  0
 20 19  1  0
 21 20  2  0
 22 20  1  0
 23 22  1  6
 23 24  1  0
 24 17  1  0
 25 23  1  0
 26 25  2  0
 27 25  1  0
M  END
$$$$
