RVN.pdb
     RDKit          3D

 27 26  0  0  1  0  0  0  0  0999 V2000
   29.7370  -17.9937  -18.9345 N   0  0  0  0  0  0  0  0  0  0  0  0
   29.2056  -16.7401  -18.5304 C   0  0  0  0  0  0  0  0  0  0  0  0
   29.3258  -15.6958  -19.2934 N   0  0  0  0  0  0  0  0  0  0  0  0
   28.5289  -16.5819  -17.2865 N   0  0  0  0  0  0  0  0  0  0  0  0
   28.4042  -17.7183  -16.3712 C   0  0  0  0  0  0  0  0  0  0  0  0
   27.4366  -18.6845  -17.0149 C   0  0  0  0  0  0  0  0  0  0  0  0
   26.5624  -19.3974  -16.0389 C   0  0  0  0  0  0  0  0  0  0  0  0
   27.2808  -20.2784  -15.0638 C   0  0  2  0  0  0  0  0  0  0  0  0
   28.1095  -21.1978  -15.8649 N   0  0  0  0  0  0  0  0  0  0  0  0
   26.4056  -21.0705  -14.2020 C   0  0  0  0  0  0  0  0  0  0  0  0
   25.9375  -22.1564  -14.6285 O   0  0  0  0  0  0  0  0  0  0  0  0
   28.8798  -14.7944  -19.0173 C   0  0  0  0  0  0  0  0  0  0  0  0
   24.3677  -21.3306   -9.6850 C   0  0  1  0  0  0  0  0  0  0  0  0
   25.2803  -20.6087  -10.6499 C   0  0  0  0  0  0  0  0  0  0  0  0
   24.9300  -19.1486  -10.7140 C   0  0  2  0  0  0  0  0  0  0  0  0
   25.1310  -21.2709  -12.0277 N   0  0  0  0  0  0  0  0  0  0  0  0
   26.0747  -20.6379  -12.8938 C   0  0  0  0  0  0  0  0  0  0  0  0
   23.7340  -20.9527  -12.4605 O   0  0  0  0  0  0  0  0  0  0  0  0
   23.4667  -19.8295  -13.0033 N   0  0  0  0  0  0  0  0  0  0  0  0
   18.5689  -22.4255  -14.5101 C   0  0  0  0  0  0  0  0  0  0  0  0
   18.9949  -22.1717  -13.1914 O   0  0  0  0  0  0  0  0  0  0  0  0
   18.2386  -21.5847  -12.3987 C   0  0  0  0  0  0  0  0  0  0  0  0
   20.3326  -22.6037  -12.7611 C   0  0  1  0  0  0  0  0  0  0  0  0
   21.3517  -21.5199  -12.8092 N   0  0  0  0  0  0  0  0  0  0  0  0
   22.6435  -21.8416  -12.3051 C   0  0  0  0  0  0  0  0  0  0  0  0
   20.8212  -20.3775  -11.9814 O   0  0  0  0  0  0  0  0  0  0  0  0
   20.9659  -20.3397  -10.7309 O   0  0  0  0  0  0  0  0  0  0  0  0
  2  1  1  0
  3  2  2  0
  4  2  1  0
  5  4  1  0
  6  5  1  0
  7  6  1  0
  8  7  1  0
  8  9  1  6
 10 16  1  0
 10  8  1  0
 11 10  2  0
 13 12  1  1
 13 14  1  0
 15 16  1  6
 15 13  1  0
 17 15  1  0
 18 17  2  0
 20 19  1  0
 21 20  2  0
 22 20  1  0
 23 22  1  6
 23 24  1  0
 24 17  1  0
 25 23  1  0
 26 25  2  0
 27 25  1  0
M  END
$$$$
