RVN.pdb
     RDKit          3D

 27 26  0  0  1  0  0  0  0  0999 V2000
   13.7060  -16.9099  -12.9492 N   0  0  0  0  0  0  0  0  0  0  0  0
   14.9851  -16.5350  -13.4396 C   0  0  0  0  0  0  0  0  0  0  0  0
   15.5553  -17.2188  -14.3855 N   0  0  0  0  0  0  0  0  0  0  0  0
   15.6839  -15.4081  -12.9181 N   0  0  0  0  0  0  0  0  0  0  0  0
   14.9961  -14.4654  -12.0334 C   0  0  0  0  0  0  0  0  0  0  0  0
   14.6111  -13.2784  -12.8861 C   0  0  0  0  0  0  0  0  0  0  0  0
   15.2187  -11.9932  -12.4342 C   0  0  0  0  0  0  0  0  0  0  0  0
   14.3332  -11.1316  -11.5878 C   0  0  2  0  0  0  0  0  0  0  0  0
   12.9485  -11.4243  -12.0009 N   0  0  0  0  0  0  0  0  0  0  0  0
   14.5682   -9.6960  -11.7287 C   0  0  0  0  0  0  0  0  0  0  0  0
   14.3898   -9.1480  -12.8459 O   0  0  0  0  0  0  0  0  0  0  0  0
   16.5024  -16.9466  -14.7271 C   0  0  0  0  0  0  0  0  0  0  0  0
   16.4167   -6.7022   -8.6387 C   0  0  1  0  0  0  0  0  0  0  0  0
   15.0666   -6.9570   -9.2691 C   0  0  0  0  0  0  0  0  0  0  0  0
   14.2694   -7.9205   -8.4355 C   0  0  1  0  0  0  0  0  0  0  0  0
   15.3013   -7.5150  -10.6807 N   0  0  0  0  0  0  0  0  0  0  0  0
   14.9933   -8.9092  -10.6295 C   0  0  0  0  0  0  0  0  0  0  0  0
   16.7620   -7.3149  -10.9379 O   0  0  0  0  0  0  0  0  0  0  0  0
   17.6303   -7.9694  -10.2704 N   0  0  0  0  0  0  0  0  0  0  0  0
   21.5489   -7.7770  -12.6474 C   0  0  0  0  0  0  0  0  0  0  0  0
   20.4655   -7.5856  -13.5276 O   0  0  0  0  0  0  0  0  0  0  0  0
   20.6784   -7.3421  -14.7276 C   0  0  0  0  0  0  0  0  0  0  0  0
   19.0888   -7.6758  -13.0200 C   0  0  1  0  0  0  0  0  0  0  0  0
   18.6394   -6.4537  -12.2989 N   0  0  0  0  0  0  0  0  0  0  0  0
   17.2719   -6.4165  -11.9055 C   0  0  0  0  0  0  0  0  0  0  0  0
   18.8700   -5.2856  -13.2231 O   0  0  0  0  0  0  0  0  0  0  0  0
   20.0282   -4.9234  -13.5603 O   0  0  0  0  0  0  0  0  0  0  0  0
  2  1  1  0
  3  2  2  0
  4  2  1  0
  5  4  1  0
  6  5  1  0
  7  6  1  0
  8  7  1  0
  8  9  1  6
 10 16  1  0
 10  8  1  0
 11 10  2  0
 13 12  1  1
 13 14  1  0
 15 16  1  1
 15 13  1  0
 17 15  1  0
 18 17  2  0
 20 19  1  0
 21 20  2  0
 22 20  1  0
 23 22  1  1
 23 24  1  0
 24 17  1  0
 25 23  1  0
 26 25  2  0
 27 25  1  0
M  END
$$$$
