ASI.pdb
     RDKit          3D

 20 19  0  0  1  0  0  0  0  0999 V2000
   28.1142  -21.4287  -15.8373 C   0  0  0  0  0  0  0  0  0  0  0  0
   27.4983  -20.3405  -14.9947 C   0  0  2  0  0  0  0  0  0  0  0  0
   28.3814  -19.8976  -13.9546 N   0  0  0  0  0  0  0  0  0  0  0  0
   26.1743  -20.7754  -14.4340 C   0  0  0  0  0  0  0  0  0  0  0  0
   25.2627  -21.1046  -15.2224 O   0  0  0  0  0  0  0  0  0  0  0  0
   26.0217  -21.8713  -10.5239 O   0  0  0  0  0  0  0  0  0  0  0  0
   24.8178  -21.3388  -10.9397 C   0  0  0  0  0  0  0  0  0  0  0  0
   24.7041  -21.2222  -12.4417 C   0  0  2  0  0  0  0  0  0  0  0  0
   25.9548  -20.8140  -13.0259 N   0  0  0  0  0  0  0  0  0  0  0  0
   23.5852  -20.3317  -12.8445 C   0  0  0  0  0  0  0  0  0  0  0  0
   23.5574  -19.1713  -12.3877 O   0  0  0  0  0  0  0  0  0  0  0  0
   22.7345  -18.5001  -17.3666 C   0  0  0  0  0  0  0  0  0  0  0  0
   22.6294  -18.7417  -15.8846 C   0  0  0  0  0  0  0  0  0  0  0  0
   21.4676  -19.5840  -15.4885 C   0  0  2  0  0  0  0  0  0  0  0  0
   20.2077  -18.8555  -15.9196 C   0  0  0  0  0  0  0  0  0  0  0  0
   21.3930  -19.9557  -14.0368 C   0  0  2  0  0  0  0  0  0  0  0  0
   22.5683  -20.7547  -13.7158 N   0  0  0  0  0  0  0  0  0  0  0  0
   20.1430  -20.5845  -13.6010 C   0  0  0  0  0  0  0  0  0  0  0  0
   19.9199  -21.9492  -13.6635 O   0  0  0  0  0  0  0  0  0  0  0  0
   19.2208  -19.8604  -13.1480 O   0  0  0  0  0  0  0  0  0  0  0  0
  2  1  1  1
  2  3  1  0
  2  4  1  0
  4  5  2  0
  7  6  1  0
  8  7  1  1
  9  4  1  0
  9  8  1  0
 10 11  2  0
 10  8  1  0
 12 13  1  0
 14 16  1  0
 14 13  1  0
 14 15  1  1
 16 17  1  6
 17 10  1  0
 18 19  1  0
 18 16  1  0
 20 18  2  0
M  END
$$$$
