ASI.pdb
     RDKit          3D

 20 19  0  0  1  0  0  0  0  0999 V2000
   28.3930  -18.6867  -15.0515 C   0  0  0  0  0  0  0  0  0  0  0  0
   26.9055  -18.9134  -15.1491 C   0  0  2  0  0  0  0  0  0  0  0  0
   26.3020  -18.1065  -16.1701 N   0  0  0  0  0  0  0  0  0  0  0  0
   26.2378  -18.6972  -13.8209 C   0  0  0  0  0  0  0  0  0  0  0  0
   26.1667  -17.5375  -13.3617 O   0  0  0  0  0  0  0  0  0  0  0  0
   23.3457  -21.2956  -12.4512 O   0  0  0  0  0  0  0  0  0  0  0  0
   23.5311  -20.0067  -11.9927 C   0  0  0  0  0  0  0  0  0  0  0  0
   24.9867  -19.6291  -11.8469 C   0  0  2  0  0  0  0  0  0  0  0  0
   25.6918  -19.7935  -13.0910 N   0  0  0  0  0  0  0  0  0  0  0  0
   25.6409  -20.3663  -10.7352 C   0  0  0  0  0  0  0  0  0  0  0  0
   26.1189  -21.4938  -10.9722 O   0  0  0  0  0  0  0  0  0  0  0  0
   27.9136  -17.8168   -6.5317 C   0  0  0  0  0  0  0  0  0  0  0  0
   27.6841  -18.9995   -7.4341 C   0  0  0  0  0  0  0  0  0  0  0  0
   26.4268  -19.7442   -7.1498 C   0  0  2  0  0  0  0  0  0  0  0  0
   26.6403  -20.5273   -5.8672 C   0  0  0  0  0  0  0  0  0  0  0  0
   25.9380  -20.6459   -8.2448 C   0  0  2  0  0  0  0  0  0  0  0  0
   25.7355  -19.8355   -9.4385 N   0  0  0  0  0  0  0  0  0  0  0  0
   24.7751  -21.4759   -7.9184 C   0  0  0  0  0  0  0  0  0  0  0  0
   23.4708  -21.0212   -8.0092 O   0  0  0  0  0  0  0  0  0  0  0  0
   24.9575  -22.6590   -7.5352 O   0  0  0  0  0  0  0  0  0  0  0  0
  2  1  1  1
  2  3  1  0
  2  4  1  0
  4  5  2  0
  7  6  1  0
  8  7  1  6
  9  4  1  0
  9  8  1  0
 10 11  2  0
 10  8  1  0
 12 13  1  0
 14 16  1  0
 14 13  1  0
 14 15  1  1
 16 17  1  6
 17 10  1  0
 18 19  1  0
 18 16  1  0
 20 18  2  0
M  END
$$$$
