ASI.pdb
     RDKit          3D

 20 19  0  0  1  0  0  0  0  0999 V2000
   21.5622  -19.6642   -9.6129 C   0  0  0  0  0  0  0  0  0  0  0  0
   22.2642  -20.8391  -10.2456 C   0  0  2  0  0  0  0  0  0  0  0  0
   23.4254  -21.2380   -9.5038 N   0  0  0  0  0  0  0  0  0  0  0  0
   22.6078  -20.5546  -11.6801 C   0  0  0  0  0  0  0  0  0  0  0  0
   23.7603  -20.1612  -11.9590 O   0  0  0  0  0  0  0  0  0  0  0  0
   19.6646  -20.4039  -14.8731 O   0  0  0  0  0  0  0  0  0  0  0  0
   20.8401  -21.1205  -14.9761 C   0  0  0  0  0  0  0  0  0  0  0  0
   21.9497  -20.5740  -14.1084 C   0  0  2  0  0  0  0  0  0  0  0  0
   21.6391  -20.7288  -12.7114 N   0  0  0  0  0  0  0  0  0  0  0  0
   22.2789  -19.1666  -14.4523 C   0  0  0  0  0  0  0  0  0  0  0  0
   21.6868  -18.2535  -13.8427 O   0  0  0  0  0  0  0  0  0  0  0  0
   26.4546  -15.2007  -14.8933 C   0  0  0  0  0  0  0  0  0  0  0  0
   25.4474  -15.8281  -15.8194 C   0  0  0  0  0  0  0  0  0  0  0  0
   24.8744  -17.1065  -15.3158 C   0  0  2  0  0  0  0  0  0  0  0  0
   25.8815  -18.2041  -15.6071 C   0  0  0  0  0  0  0  0  0  0  0  0
   23.5219  -17.4738  -15.8514 C   0  0  2  0  0  0  0  0  0  0  0  0
   23.2279  -18.8384  -15.4340 N   0  0  0  0  0  0  0  0  0  0  0  0
   23.3250  -17.2649  -17.2886 C   0  0  0  0  0  0  0  0  0  0  0  0
   23.2740  -18.3017  -18.2044 O   0  0  0  0  0  0  0  0  0  0  0  0
   23.1961  -16.0926  -17.7233 O   0  0  0  0  0  0  0  0  0  0  0  0
  2  1  1  1
  2  3  1  0
  2  4  1  0
  4  5  2  0
  7  6  1  0
  8  7  1  6
  9  4  1  0
  9  8  1  0
 10 11  2  0
 10  8  1  0
 12 13  1  0
 14 16  1  0
 14 13  1  0
 14 15  1  6
 16 17  1  6
 17 10  1  0
 18 19  1  0
 18 16  1  0
 20 18  2  0
M  END
$$$$
