ASI.pdb
     RDKit          3D

 20 19  0  0  1  0  0  0  0  0999 V2000
   15.3479  -14.0195  -19.5067 C   0  0  0  0  0  0  0  0  0  0  0  0
   16.7738  -14.1556  -19.0357 C   0  0  2  0  0  0  0  0  0  0  0  0
   17.0008  -15.3963  -18.3523 N   0  0  0  0  0  0  0  0  0  0  0  0
   17.1754  -12.9853  -18.1838 C   0  0  0  0  0  0  0  0  0  0  0  0
   16.3576  -12.5317  -17.3554 O   0  0  0  0  0  0  0  0  0  0  0  0
   21.0150  -11.1224  -18.6626 O   0  0  0  0  0  0  0  0  0  0  0  0
   20.4400  -11.2884  -17.4186 C   0  0  0  0  0  0  0  0  0  0  0  0
   18.9304  -11.3339  -17.4605 C   0  0  2  0  0  0  0  0  0  0  0  0
   18.4676  -12.3971  -18.3135 N   0  0  0  0  0  0  0  0  0  0  0  0
   18.3477  -10.0215  -17.8417 C   0  0  0  0  0  0  0  0  0  0  0  0
   18.0469   -9.8313  -19.0371 O   0  0  0  0  0  0  0  0  0  0  0  0
   13.7398   -7.7283  -17.6600 C   0  0  0  0  0  0  0  0  0  0  0  0
   15.1919   -7.6793  -18.0535 C   0  0  0  0  0  0  0  0  0  0  0  0
   16.1330   -7.6788  -16.9001 C   0  0  2  0  0  0  0  0  0  0  0  0
   15.7956   -6.4772  -16.0362 C   0  0  0  0  0  0  0  0  0  0  0  0
   17.5928   -7.6882  -17.2461 C   0  0  2  0  0  0  0  0  0  0  0  0
   18.1281   -8.9994  -16.9039 N   0  0  0  0  0  0  0  0  0  0  0  0
   18.3883   -6.5885  -16.6931 C   0  0  0  0  0  0  0  0  0  0  0  0
   18.5379   -5.3680  -17.3289 O   0  0  0  0  0  0  0  0  0  0  0  0
   18.9686   -6.7492  -15.5898 O   0  0  0  0  0  0  0  0  0  0  0  0
  2  1  1  1
  2  3  1  0
  2  4  1  0
  4  5  2  0
  7  6  1  0
  8  7  1  6
  9  4  1  0
  9  8  1  0
 10 11  2  0
 10  8  1  0
 12 13  1  0
 14 16  1  0
 14 13  1  0
 14 15  1  6
 16 17  1  1
 17 10  1  0
 18 19  1  0
 18 16  1  0
 20 18  2  0
M  END
$$$$
