ASI.pdb
     RDKit          3D

 20 19  0  0  1  0  0  0  0  0999 V2000
   18.9920  -10.5693  -21.0848 C   0  0  0  0  0  0  0  0  0  0  0  0
   18.8286  -10.5528  -19.5860 C   0  0  2  0  0  0  0  0  0  0  0  0
   17.4702  -10.7859  -19.1882 N   0  0  0  0  0  0  0  0  0  0  0  0
   19.3540   -9.2736  -18.9992 C   0  0  0  0  0  0  0  0  0  0  0  0
   20.5890   -9.0886  -18.9606 O   0  0  0  0  0  0  0  0  0  0  0  0
   18.1649   -4.8962  -17.1229 O   0  0  0  0  0  0  0  0  0  0  0  0
   17.8059   -6.0445  -17.8000 C   0  0  0  0  0  0  0  0  0  0  0  0
   18.9196   -7.0622  -17.8805 C   0  0  2  0  0  0  0  0  0  0  0  0
   18.4631   -8.2824  -18.4928 N   0  0  0  0  0  0  0  0  0  0  0  0
   19.5441   -7.3052  -16.5545 C   0  0  0  0  0  0  0  0  0  0  0  0
   18.9320   -8.0161  -15.7324 O   0  0  0  0  0  0  0  0  0  0  0  0
   23.1249  -10.0687  -13.6613 C   0  0  0  0  0  0  0  0  0  0  0  0
   23.1458   -8.5818  -13.8949 C   0  0  0  0  0  0  0  0  0  0  0  0
   22.4076   -8.1490  -15.1131 C   0  0  2  0  0  0  0  0  0  0  0  0
   23.4380   -7.8161  -16.1769 C   0  0  0  0  0  0  0  0  0  0  0  0
   21.4508   -7.0082  -14.9282 C   0  0  2  0  0  0  0  0  0  0  0  0
   20.7911   -6.7627  -16.2038 N   0  0  0  0  0  0  0  0  0  0  0  0
   22.0134   -5.7911  -14.3367 C   0  0  0  0  0  0  0  0  0  0  0  0
   22.1525   -4.6041  -15.0353 O   0  0  0  0  0  0  0  0  0  0  0  0
   22.3928   -5.8134  -13.1386 O   0  0  0  0  0  0  0  0  0  0  0  0
  2  1  1  6
  2  3  1  0
  2  4  1  0
  4  5  2  0
  7  6  1  0
  8  7  1  1
  9  4  1  0
  9  8  1  0
 10 11  2  0
 10  8  1  0
 12 13  1  0
 14 16  1  0
 14 13  1  0
 14 15  1  6
 16 17  1  6
 17 10  1  0
 18 19  1  0
 18 16  1  0
 20 18  2  0
M  END
$$$$
