ASI.pdb
     RDKit          3D

 20 19  0  0  1  0  0  0  0  0999 V2000
   29.1876  -22.3922  -15.3785 C   0  0  0  0  0  0  0  0  0  0  0  0
   27.8452  -21.8060  -15.7360 C   0  0  2  0  0  0  0  0  0  0  0  0
   27.8798  -21.0982  -16.9833 N   0  0  0  0  0  0  0  0  0  0  0  0
   27.3255  -20.9321  -14.6303 C   0  0  0  0  0  0  0  0  0  0  0  0
   27.7875  -19.7782  -14.5038 O   0  0  0  0  0  0  0  0  0  0  0  0
   23.4946  -21.4184  -13.2182 O   0  0  0  0  0  0  0  0  0  0  0  0
   24.2636  -20.2791  -13.0900 C   0  0  0  0  0  0  0  0  0  0  0  0
   25.7047  -20.5683  -12.7405 C   0  0  2  0  0  0  0  0  0  0  0  0
   26.3212  -21.4056  -13.7360 N   0  0  0  0  0  0  0  0  0  0  0  0
   25.8394  -21.1369  -11.3746 C   0  0  0  0  0  0  0  0  0  0  0  0
   25.9915  -22.3694  -11.2580 O   0  0  0  0  0  0  0  0  0  0  0  0
   28.9719  -19.4284   -7.3165 C   0  0  0  0  0  0  0  0  0  0  0  0
   28.0807  -20.3919   -8.0536 C   0  0  0  0  0  0  0  0  0  0  0  0
   26.6345  -20.0433   -7.9990 C   0  0  2  0  0  0  0  0  0  0  0  0
   26.2001  -20.1235   -6.5468 C   0  0  0  0  0  0  0  0  0  0  0  0
   25.7294  -20.8659   -8.8680 C   0  0  2  0  0  0  0  0  0  0  0  0
   25.8008  -20.3345  -10.2227 N   0  0  0  0  0  0  0  0  0  0  0  0
   24.3523  -21.0210   -8.3911 C   0  0  0  0  0  0  0  0  0  0  0  0
   23.9917  -21.9131   -7.3958 O   0  0  0  0  0  0  0  0  0  0  0  0
   23.4457  -20.3170   -8.9032 O   0  0  0  0  0  0  0  0  0  0  0  0
  2  1  1  1
  2  3  1  0
  2  4  1  0
  4  5  2  0
  7  6  1  0
  8  7  1  6
  9  4  1  0
  9  8  1  0
 10 11  2  0
 10  8  1  0
 12 13  1  0
 14 16  1  0
 14 13  1  0
 14 15  1  1
 16 17  1  6
 17 10  1  0
 18 19  1  0
 18 16  1  0
 20 18  2  0
M  END
$$$$
