ASI.pdb
     RDKit          3D

 20 19  0  0  1  0  0  0  0  0999 V2000
   20.5934  -12.9945  -21.8223 C   0  0  0  0  0  0  0  0  0  0  0  0
   19.9449  -12.7436  -20.4844 C   0  0  2  0  0  0  0  0  0  0  0  0
   18.5139  -12.7039  -20.5767 N   0  0  0  0  0  0  0  0  0  0  0  0
   20.4827  -11.4930  -19.8493 C   0  0  0  0  0  0  0  0  0  0  0  0
   21.6129  -11.5229  -19.3177 O   0  0  0  0  0  0  0  0  0  0  0  0
   18.1015   -7.8723  -19.2427 O   0  0  0  0  0  0  0  0  0  0  0  0
   19.3845   -7.8801  -19.7524 C   0  0  0  0  0  0  0  0  0  0  0  0
   20.2060   -9.0575  -19.2817 C   0  0  2  0  0  0  0  0  0  0  0  0
   19.7209  -10.2880  -19.8497 N   0  0  0  0  0  0  0  0  0  0  0  0
   20.2828   -9.1214  -17.7994 C   0  0  0  0  0  0  0  0  0  0  0  0
   19.3786   -9.7215  -17.1844 O   0  0  0  0  0  0  0  0  0  0  0  0
   23.7959  -11.4572  -15.1376 C   0  0  0  0  0  0  0  0  0  0  0  0
   22.5512  -10.7114  -15.5380 C   0  0  0  0  0  0  0  0  0  0  0  0
   22.5597   -9.2712  -15.1615 C   0  0  2  0  0  0  0  0  0  0  0  0
   22.7012   -9.1949  -13.6522 C   0  0  0  0  0  0  0  0  0  0  0  0
   21.3806   -8.4667  -15.6235 C   0  0  2  0  0  0  0  0  0  0  0  0
   21.3335   -8.5315  -17.0782 N   0  0  0  0  0  0  0  0  0  0  0  0
   21.3032   -7.0948  -15.1137 C   0  0  0  0  0  0  0  0  0  0  0  0
   21.5517   -5.9808  -15.8970 O   0  0  0  0  0  0  0  0  0  0  0  0
   20.9987   -6.9074  -13.9087 O   0  0  0  0  0  0  0  0  0  0  0  0
  2  1  1  6
  2  3  1  0
  2  4  1  0
  4  5  2  0
  7  6  1  0
  8  7  1  1
  9  4  1  0
  9  8  1  0
 10 11  2  0
 10  8  1  0
 12 13  1  0
 14 16  1  0
 14 13  1  0
 14 15  1  1
 16 17  1  6
 17 10  1  0
 18 19  1  0
 18 16  1  0
 20 18  2  0
M  END
$$$$
