ASI.pdb
     RDKit          3D

 20 19  0  0  1  0  0  0  0  0999 V2000
   16.5469  -13.9442  -18.9102 C   0  0  0  0  0  0  0  0  0  0  0  0
   16.4243  -12.8607  -17.8687 C   0  0  2  0  0  0  0  0  0  0  0  0
   15.2359  -12.0763  -18.0427 N   0  0  0  0  0  0  0  0  0  0  0  0
   17.6496  -11.9919  -17.8460 C   0  0  0  0  0  0  0  0  0  0  0  0
   18.7658  -12.5254  -17.6715 O   0  0  0  0  0  0  0  0  0  0  0  0
   17.4436   -7.6498  -18.0534 O   0  0  0  0  0  0  0  0  0  0  0  0
   18.3632   -8.4077  -18.7504 C   0  0  0  0  0  0  0  0  0  0  0  0
   18.6965   -9.7151  -18.0704 C   0  0  2  0  0  0  0  0  0  0  0  0
   17.5474  -10.5806  -18.0201 N   0  0  0  0  0  0  0  0  0  0  0  0
   19.2925   -9.5034  -16.7261 C   0  0  0  0  0  0  0  0  0  0  0  0
   18.5308   -9.4669  -15.7391 O   0  0  0  0  0  0  0  0  0  0  0  0
   23.7203  -12.1220  -15.4635 C   0  0  0  0  0  0  0  0  0  0  0  0
   22.4153  -11.3722  -15.4419 C   0  0  0  0  0  0  0  0  0  0  0  0
   22.5578   -9.9146  -15.1749 C   0  0  2  0  0  0  0  0  0  0  0  0
   23.2216   -9.7618  -13.8185 C   0  0  0  0  0  0  0  0  0  0  0  0
   21.2927   -9.1106  -15.2383 C   0  0  2  0  0  0  0  0  0  0  0  0
   20.6750   -9.3448  -16.5369 N   0  0  0  0  0  0  0  0  0  0  0  0
   21.4239   -7.6858  -14.9210 C   0  0  0  0  0  0  0  0  0  0  0  0
   21.2106   -7.1694  -13.6545 O   0  0  0  0  0  0  0  0  0  0  0  0
   21.7437   -6.8836  -15.8343 O   0  0  0  0  0  0  0  0  0  0  0  0
  2  1  1  6
  2  3  1  0
  2  4  1  0
  4  5  2  0
  7  6  1  0
  8  7  1  1
  9  4  1  0
  9  8  1  0
 10 11  2  0
 10  8  1  0
 12 13  1  0
 14 16  1  0
 14 13  1  0
 14 15  1  1
 16 17  1  6
 17 10  1  0
 18 19  1  0
 18 16  1  0
 20 18  2  0
M  END
$$$$
