ASI.pdb
     RDKit          3D

 20 19  0  0  1  0  0  0  0  0999 V2000
   14.9497   -9.6855  -14.5682 C   0  0  0  0  0  0  0  0  0  0  0  0
   15.2799   -9.2600  -15.9766 C   0  0  2  0  0  0  0  0  0  0  0  0
   15.3372  -10.3744  -16.8780 N   0  0  0  0  0  0  0  0  0  0  0  0
   16.5531   -8.4639  -16.0161 C   0  0  0  0  0  0  0  0  0  0  0  0
   17.6377   -9.0653  -16.1673 O   0  0  0  0  0  0  0  0  0  0  0  0
   16.7026   -4.2810  -15.0113 O   0  0  0  0  0  0  0  0  0  0  0  0
   17.3483   -4.7660  -16.1310 C   0  0  0  0  0  0  0  0  0  0  0  0
   17.7092   -6.2292  -16.0244 C   0  0  2  0  0  0  0  0  0  0  0  0
   16.5313   -7.0445  -15.8838 N   0  0  0  0  0  0  0  0  0  0  0  0
   18.6915   -6.4791  -14.9381 C   0  0  0  0  0  0  0  0  0  0  0  0
   18.2651   -6.8610  -13.8299 O   0  0  0  0  0  0  0  0  0  0  0  0
   22.8183   -9.7870  -13.3865 C   0  0  0  0  0  0  0  0  0  0  0  0
   22.8992   -8.3075  -13.6518 C   0  0  0  0  0  0  0  0  0  0  0  0
   21.8562   -7.8010  -14.5855 C   0  0  2  0  0  0  0  0  0  0  0  0
   22.5364   -7.4963  -15.9078 C   0  0  0  0  0  0  0  0  0  0  0  0
   21.0711   -6.6146  -14.1089 C   0  0  2  0  0  0  0  0  0  0  0  0
   20.0721   -6.2995  -15.1216 N   0  0  0  0  0  0  0  0  0  0  0  0
   21.8589   -5.4464  -13.7060 C   0  0  0  0  0  0  0  0  0  0  0  0
   21.8422   -4.2469  -14.3969 O   0  0  0  0  0  0  0  0  0  0  0  0
   22.5899   -5.5249  -12.6865 O   0  0  0  0  0  0  0  0  0  0  0  0
  2  1  1  1
  2  3  1  0
  2  4  1  0
  4  5  2  0
  7  6  1  0
  8  7  1  1
  9  4  1  0
  9  8  1  0
 10 11  2  0
 10  8  1  0
 12 13  1  0
 14 16  1  0
 14 13  1  0
 14 15  1  6
 16 17  1  6
 17 10  1  0
 18 19  1  0
 18 16  1  0
 20 18  2  0
M  END
$$$$
