EYW.pdb
     RDKit          3D

 36 38  0  0  1  0  0  0  0  0999 V2000
    9.0120  -18.0286   18.5087 N   0  0  0  0  0  0  0  0  0  0  0  0
    8.4201  -18.2160   19.8358 C   0  0  1  0  0  0  0  0  0  0  0  0
    8.9149  -19.5753   20.2921 C   0  0  0  0  0  0  0  0  0  0  0  0
    8.0542  -20.7041   19.8460 C   0  0  0  0  0  0  0  0  0  0  0  0
    8.5263  -21.9721   20.4519 C   0  0  0  0  0  0  0  0  0  0  0  0
    9.5405  -21.9287   21.2053 O   0  0  0  0  0  0  0  0  0  0  0  0
    8.9095  -17.1366   20.7113 C   0  0  0  0  0  0  0  0  0  0  0  0
   10.1410  -16.8428   20.6756 O   0  0  0  0  0  0  0  0  0  0  0  0
    7.9366  -23.2081   20.2536 O   0  0  0  0  0  0  0  0  0  0  0  0
    7.7160  -12.7703   16.5081 O   0  0  0  0  0  0  0  0  0  0  0  0
    7.8108  -13.0728   17.8789 C   0  0  0  0  0  0  0  0  0  0  0  0
    6.7464  -13.6321   18.5479 C   0  0  0  0  0  0  0  0  0  0  0  0
    6.8371  -13.9258   19.8816 C   0  0  0  0  0  0  0  0  0  0  0  0
    7.9688  -13.6902   20.6282 C   0  0  0  0  0  0  0  0  0  0  0  0
    8.0552  -14.0147   22.0424 C   0  0  0  0  0  0  0  0  0  0  0  0
    8.7331  -15.2894   22.4356 C   0  0  2  0  0  0  0  0  0  0  0  0
    8.1192  -16.3778   21.6051 N   0  0  0  0  0  0  0  0  0  0  0  0
    8.6334  -15.6771   23.8495 C   0  0  0  0  0  0  0  0  0  0  0  0
    7.6442  -15.2730   24.5683 O   0  0  0  0  0  0  0  0  0  0  0  0
    9.0466  -13.1230   19.9428 C   0  0  0  0  0  0  0  0  0  0  0  0
    8.9615  -12.8223   18.5924 C   0  0  0  0  0  0  0  0  0  0  0  0
    9.5453  -16.4959   24.5594 N   0  0  0  0  0  0  0  0  0  0  0  0
    9.9880  -16.2016   25.8988 C   0  0  1  0  0  0  0  0  0  0  0  0
    8.8988  -16.4096   26.9231 C   0  0  0  0  0  0  0  0  0  0  0  0
    7.7865  -15.4885   26.5984 C   0  0  0  0  0  0  0  0  0  0  0  0
    6.5692  -15.8963   26.0593 C   0  0  0  0  0  0  0  0  0  0  0  0
    5.7555  -14.8636   25.8628 N   0  0  0  0  0  0  0  0  0  0  0  0
    6.4091  -13.7509   26.2635 C   0  0  0  0  0  0  0  0  0  0  0  0
    6.0333  -12.4061   26.2899 C   0  0  0  0  0  0  0  0  0  0  0  0
    6.9273  -11.4734   26.7718 C   0  0  0  0  0  0  0  0  0  0  0  0
    8.1794  -11.8621   27.2231 C   0  0  0  0  0  0  0  0  0  0  0  0
    8.5677  -13.2066   27.2020 C   0  0  0  0  0  0  0  0  0  0  0  0
    7.6725  -14.1260   26.7222 C   0  0  0  0  0  0  0  0  0  0  0  0
   11.2141  -16.9200   26.2458 C   0  0  0  0  0  0  0  0  0  0  0  0
   11.7561  -17.6971   25.4528 O   0  0  0  0  0  0  0  0  0  0  0  0
   11.8185  -16.7512   27.4876 O   0  0  0  0  0  0  0  0  0  0  0  0
  2  1  1  6
  3  2  1  0
  4  5  1  0
  4  3  1  0
  5  6  2  0
  7  2  1  0
  8  7  2  0
  9  5  1  0
 10 11  1  0
 11 12  2  0
 12 13  1  0
 14 15  1  0
 14 13  2  0
 16 15  1  1
 16 17  1  0
 17  7  1  0
 18 19  2  0
 18 16  1  0
 20 14  1  0
 21 20  2  0
 21 11  1  0
 22 18  1  0
 23 22  1  0
 23 24  1  1
 24 25  1  0
 25 26  2  0
 25 33  1  0
 26 27  1  0
 27 28  1  0
 28 29  2  0
 29 30  1  0
 31 30  2  0
 32 31  1  0
 33 32  2  0
 33 28  1  0
 34 23  1  0
 35 34  2  0
 36 34  1  0
M  END
$$$$
