EYW.pdb
     RDKit          3D

 36 38  0  0  1  0  0  0  0  0999 V2000
    9.0033  -18.5108   20.5214 N   0  0  0  0  0  0  0  0  0  0  0  0
   10.3630  -17.9954   20.3412 C   0  0  1  0  0  0  0  0  0  0  0  0
   10.4807  -17.7248   18.8534 C   0  0  0  0  0  0  0  0  0  0  0  0
    9.7375  -18.6991   18.0092 C   0  0  0  0  0  0  0  0  0  0  0  0
    9.9551  -18.3965   16.5743 C   0  0  0  0  0  0  0  0  0  0  0  0
    9.3109  -19.0708   15.7208 O   0  0  0  0  0  0  0  0  0  0  0  0
   10.4914  -16.7582   21.1312 C   0  0  0  0  0  0  0  0  0  0  0  0
   11.5557  -16.0804   21.0214 O   0  0  0  0  0  0  0  0  0  0  0  0
   10.8162  -17.4249   16.0954 O   0  0  0  0  0  0  0  0  0  0  0  0
    7.3480  -12.5995   17.1841 O   0  0  0  0  0  0  0  0  0  0  0  0
    7.6453  -12.9778   18.5062 C   0  0  0  0  0  0  0  0  0  0  0  0
    8.6233  -12.3229   19.2190 C   0  0  0  0  0  0  0  0  0  0  0  0
    8.9140  -12.6906   20.5048 C   0  0  0  0  0  0  0  0  0  0  0  0
    8.2659  -13.7131   21.1594 C   0  0  0  0  0  0  0  0  0  0  0  0
    8.5784  -14.0883   22.5284 C   0  0  0  0  0  0  0  0  0  0  0  0
    9.7667  -14.9658   22.7676 C   0  0  2  0  0  0  0  0  0  0  0  0
    9.5185  -16.2411   22.0173 N   0  0  0  0  0  0  0  0  0  0  0  0
   10.0616  -15.3045   24.1669 C   0  0  0  0  0  0  0  0  0  0  0  0
   10.7444  -14.4982   24.9031 O   0  0  0  0  0  0  0  0  0  0  0  0
    7.2732  -14.3736   20.4305 C   0  0  0  0  0  0  0  0  0  0  0  0
    6.9740  -14.0070   19.1276 C   0  0  0  0  0  0  0  0  0  0  0  0
    9.6563  -16.4789   24.8472 N   0  0  0  0  0  0  0  0  0  0  0  0
   10.0337  -16.7695   26.2072 C   0  0  1  0  0  0  0  0  0  0  0  0
    9.4092  -15.8130   27.1941 C   0  0  0  0  0  0  0  0  0  0  0  0
    8.0705  -15.4416   26.6834 C   0  0  0  0  0  0  0  0  0  0  0  0
    7.2054  -16.3282   26.0476 C   0  0  0  0  0  0  0  0  0  0  0  0
    6.0747  -15.7287   25.6880 N   0  0  0  0  0  0  0  0  0  0  0  0
    6.1610  -14.4365   26.0733 C   0  0  0  0  0  0  0  0  0  0  0  0
    5.2703  -13.3668   25.9590 C   0  0  0  0  0  0  0  0  0  0  0  0
    5.6368  -12.1372   26.4641 C   0  0  0  0  0  0  0  0  0  0  0  0
    6.8688  -11.9633   27.0758 C   0  0  0  0  0  0  0  0  0  0  0  0
    7.7700  -13.0275   27.1968 C   0  0  0  0  0  0  0  0  0  0  0  0
    7.3967  -14.2454   26.6926 C   0  0  0  0  0  0  0  0  0  0  0  0
    9.7858  -18.1666   26.5627 C   0  0  0  0  0  0  0  0  0  0  0  0
   10.0928  -18.6173   27.6714 O   0  0  0  0  0  0  0  0  0  0  0  0
    9.1899  -19.0424   25.6607 O   0  0  0  0  0  0  0  0  0  0  0  0
  2  1  1  6
  3  2  1  0
  4  5  1  0
  4  3  1  0
  5  6  2  0
  7  2  1  0
  8  7  2  0
  9  5  1  0
 10 11  1  0
 11 12  2  0
 12 13  1  0
 14 15  1  0
 14 13  2  0
 16 15  1  1
 16 17  1  0
 17  7  1  0
 18 19  2  0
 18 16  1  0
 20 14  1  0
 21 20  2  0
 21 11  1  0
 22 18  1  0
 23 22  1  0
 23 24  1  1
 24 25  1  0
 25 26  2  0
 25 33  1  0
 26 27  1  0
 27 28  1  0
 28 29  2  0
 29 30  1  0
 31 30  2  0
 32 31  1  0
 33 32  2  0
 33 28  1  0
 34 23  1  0
 35 34  2  0
 36 34  1  0
M  END
$$$$
