EYW.pdb
     RDKit          3D

 36 38  0  0  1  0  0  0  0  0999 V2000
    7.4549  -18.6381   18.1278 N   0  0  0  0  0  0  0  0  0  0  0  0
    8.1745  -17.4964   18.6985 C   0  0  1  0  0  0  0  0  0  0  0  0
    7.8110  -16.3246   17.8067 C   0  0  0  0  0  0  0  0  0  0  0  0
    8.9863  -15.5326   17.3534 C   0  0  0  0  0  0  0  0  0  0  0  0
    9.4125  -15.9828   16.0068 C   0  0  0  0  0  0  0  0  0  0  0  0
   10.0574  -17.0667   15.9195 O   0  0  0  0  0  0  0  0  0  0  0  0
    7.6975  -17.2987   20.0785 C   0  0  0  0  0  0  0  0  0  0  0  0
    6.4542  -17.1543   20.2719 O   0  0  0  0  0  0  0  0  0  0  0  0
    9.1562  -15.3015   14.8300 O   0  0  0  0  0  0  0  0  0  0  0  0
    9.5090  -23.4001   22.2293 O   0  0  0  0  0  0  0  0  0  0  0  0
    8.8932  -22.1444   22.3832 C   0  0  0  0  0  0  0  0  0  0  0  0
    9.6477  -20.9941   22.4193 C   0  0  0  0  0  0  0  0  0  0  0  0
    9.0500  -19.7722   22.5700 C   0  0  0  0  0  0  0  0  0  0  0  0
    7.6887  -19.6108   22.6918 C   0  0  0  0  0  0  0  0  0  0  0  0
    7.0655  -18.3064   22.8428 C   0  0  0  0  0  0  0  0  0  0  0  0
    7.9013  -17.0902   22.5947 C   0  0  2  0  0  0  0  0  0  0  0  0
    8.5112  -17.2569   21.2340 N   0  0  0  0  0  0  0  0  0  0  0  0
    8.9824  -16.8294   23.5552 C   0  0  0  0  0  0  0  0  0  0  0  0
   10.1588  -17.3159   23.3609 O   0  0  0  0  0  0  0  0  0  0  0  0
    6.9281  -20.7826   22.6534 C   0  0  0  0  0  0  0  0  0  0  0  0
    7.5268  -22.0235   22.5018 C   0  0  0  0  0  0  0  0  0  0  0  0
    8.8832  -16.0560   24.7376 N   0  0  0  0  0  0  0  0  0  0  0  0
    9.9680  -15.9097   25.6748 C   0  0  1  0  0  0  0  0  0  0  0  0
    9.7241  -14.7993   26.6679 C   0  0  0  0  0  0  0  0  0  0  0  0
    8.3157  -14.3656   26.5292 C   0  0  0  0  0  0  0  0  0  0  0  0
    7.2196  -15.1652   26.8424 C   0  0  0  0  0  0  0  0  0  0  0  0
    6.0747  -14.5279   26.6187 N   0  0  0  0  0  0  0  0  0  0  0  0
    6.3806  -13.2967   26.1533 C   0  0  0  0  0  0  0  0  0  0  0  0
    5.5803  -12.2187   25.7686 C   0  0  0  0  0  0  0  0  0  0  0  0
    6.1872  -11.0596   25.3335 C   0  0  0  0  0  0  0  0  0  0  0  0
    7.5694  -10.9636   25.2782 C   0  0  0  0  0  0  0  0  0  0  0  0
    8.3823  -12.0367   25.6613 C   0  0  0  0  0  0  0  0  0  0  0  0
    7.7701  -13.1839   26.0927 C   0  0  0  0  0  0  0  0  0  0  0  0
   10.3038  -17.1724   26.3326 C   0  0  0  0  0  0  0  0  0  0  0  0
   11.3223  -17.2933   27.0214 O   0  0  0  0  0  0  0  0  0  0  0  0
    9.4821  -18.2882   26.2074 O   0  0  0  0  0  0  0  0  0  0  0  0
  2  1  1  6
  3  2  1  0
  4  5  1  0
  4  3  1  0
  5  6  2  0
  7  2  1  0
  8  7  2  0
  9  5  1  0
 10 11  1  0
 11 12  2  0
 12 13  1  0
 14 15  1  0
 14 13  2  0
 16 15  1  1
 16 17  1  0
 17  7  1  0
 18 19  2  0
 18 16  1  0
 20 14  1  0
 21 20  2  0
 21 11  1  0
 22 18  1  0
 23 22  1  0
 23 24  1  1
 24 25  1  0
 25 26  2  0
 25 33  1  0
 26 27  1  0
 27 28  1  0
 28 29  2  0
 29 30  1  0
 31 30  2  0
 32 31  1  0
 33 32  2  0
 33 28  1  0
 34 23  1  0
 35 34  2  0
 36 34  1  0
M  END
$$$$
