EYW.pdb
     RDKit          3D

 36 38  0  0  1  0  0  0  0  0999 V2000
    9.4161  -18.7925   19.3125 N   0  0  0  0  0  0  0  0  0  0  0  0
   10.6712  -18.2241   19.8110 C   0  0  1  0  0  0  0  0  0  0  0  0
   11.2826  -17.5245   18.6120 C   0  0  0  0  0  0  0  0  0  0  0  0
   12.4223  -18.2651   18.0063 C   0  0  0  0  0  0  0  0  0  0  0  0
   13.2900  -17.3305   17.2504 C   0  0  0  0  0  0  0  0  0  0  0  0
   14.3111  -16.8654   17.8330 O   0  0  0  0  0  0  0  0  0  0  0  0
   10.3463  -17.2732   20.8887 C   0  0  0  0  0  0  0  0  0  0  0  0
   11.2884  -16.6029   21.4058 O   0  0  0  0  0  0  0  0  0  0  0  0
   13.0651  -16.9259   15.9464 O   0  0  0  0  0  0  0  0  0  0  0  0
    7.9094  -12.7078   16.9303 O   0  0  0  0  0  0  0  0  0  0  0  0
    7.8505  -13.3237   18.1939 C   0  0  0  0  0  0  0  0  0  0  0  0
    8.4599  -12.7456   19.2839 C   0  0  0  0  0  0  0  0  0  0  0  0
    8.4042  -13.3443   20.5134 C   0  0  0  0  0  0  0  0  0  0  0  0
    7.7516  -14.5342   20.7414 C   0  0  0  0  0  0  0  0  0  0  0  0
    7.6926  -15.1555   22.0542 C   0  0  0  0  0  0  0  0  0  0  0  0
    8.8460  -16.0046   22.4874 C   0  0  2  0  0  0  0  0  0  0  0  0
    9.0554  -17.0285   21.4109 N   0  0  0  0  0  0  0  0  0  0  0  0
    8.6987  -16.7077   23.7694 C   0  0  0  0  0  0  0  0  0  0  0  0
    7.5299  -16.9169   24.2679 O   0  0  0  0  0  0  0  0  0  0  0  0
    7.1340  -15.1157   19.6308 C   0  0  0  0  0  0  0  0  0  0  0  0
    7.1870  -14.5154   18.3826 C   0  0  0  0  0  0  0  0  0  0  0  0
    9.7497  -17.2195   24.5690 N   0  0  0  0  0  0  0  0  0  0  0  0
   10.0117  -16.7618   25.9101 C   0  0  1  0  0  0  0  0  0  0  0  0
   10.0214  -15.2557   26.0121 C   0  0  0  0  0  0  0  0  0  0  0  0
    8.6295  -14.8056   26.2376 C   0  0  0  0  0  0  0  0  0  0  0  0
    7.5259  -15.6546   26.2352 C   0  0  0  0  0  0  0  0  0  0  0  0
    6.3990  -14.9857   26.4583 N   0  0  0  0  0  0  0  0  0  0  0  0
    6.7246  -13.6834   26.6126 C   0  0  0  0  0  0  0  0  0  0  0  0
    5.9488  -12.5516   26.8726 C   0  0  0  0  0  0  0  0  0  0  0  0
    6.5731  -11.3277   26.9893 C   0  0  0  0  0  0  0  0  0  0  0  0
    7.9485  -11.2201   26.8511 C   0  0  0  0  0  0  0  0  0  0  0  0
    8.7371  -12.3469   26.5907 C   0  0  0  0  0  0  0  0  0  0  0  0
    8.1078  -13.5585   26.4772 C   0  0  0  0  0  0  0  0  0  0  0  0
    9.1124  -17.3737   26.8881 C   0  0  0  0  0  0  0  0  0  0  0  0
    7.9448  -17.6610   26.6038 O   0  0  0  0  0  0  0  0  0  0  0  0
    9.5428  -17.6579   28.1804 O   0  0  0  0  0  0  0  0  0  0  0  0
  2  1  1  6
  3  2  1  0
  4  5  1  0
  4  3  1  0
  5  6  2  0
  7  2  1  0
  8  7  2  0
  9  5  1  0
 10 11  1  0
 11 12  2  0
 12 13  1  0
 14 15  1  0
 14 13  2  0
 16 15  1  6
 16 17  1  0
 17  7  1  0
 18 19  2  0
 18 16  1  0
 20 14  1  0
 21 20  2  0
 21 11  1  0
 22 18  1  0
 23 22  1  0
 23 24  1  6
 24 25  1  0
 25 26  2  0
 25 33  1  0
 26 27  1  0
 27 28  1  0
 28 29  2  0
 29 30  1  0
 31 30  2  0
 32 31  1  0
 33 32  2  0
 33 28  1  0
 34 23  1  0
 35 34  2  0
 36 34  1  0
M  END
$$$$
