EYW.pdb
     RDKit          3D

 36 38  0  0  1  0  0  0  0  0999 V2000
    9.4211  -17.7578   19.1872 N   0  0  0  0  0  0  0  0  0  0  0  0
   10.3569  -17.9098   20.3044 C   0  0  1  0  0  0  0  0  0  0  0  0
   11.7255  -17.9876   19.6553 C   0  0  0  0  0  0  0  0  0  0  0  0
   12.8348  -18.1962   20.6249 C   0  0  0  0  0  0  0  0  0  0  0  0
   14.1369  -18.1839   19.9163 C   0  0  0  0  0  0  0  0  0  0  0  0
   14.1250  -18.1439   18.6528 O   0  0  0  0  0  0  0  0  0  0  0  0
   10.2318  -16.7242   21.1703 C   0  0  0  0  0  0  0  0  0  0  0  0
   11.1323  -15.8357   21.1100 O   0  0  0  0  0  0  0  0  0  0  0  0
   15.3729  -18.2131   20.5378 O   0  0  0  0  0  0  0  0  0  0  0  0
    7.1070  -13.3099   16.8468 O   0  0  0  0  0  0  0  0  0  0  0  0
    7.2768  -13.6038   18.2122 C   0  0  0  0  0  0  0  0  0  0  0  0
    6.8032  -14.7836   18.7388 C   0  0  0  0  0  0  0  0  0  0  0  0
    6.9667  -15.0702   20.0671 C   0  0  0  0  0  0  0  0  0  0  0  0
    7.6003  -14.2225   20.9467 C   0  0  0  0  0  0  0  0  0  0  0  0
    7.7751  -14.5425   22.3538 C   0  0  0  0  0  0  0  0  0  0  0  0
    9.0708  -15.1548   22.7843 C   0  0  2  0  0  0  0  0  0  0  0  0
    9.1784  -16.4752   22.0800 N   0  0  0  0  0  0  0  0  0  0  0  0
    9.2407  -15.3863   24.2255 C   0  0  0  0  0  0  0  0  0  0  0  0
    8.8669  -14.4959   25.0775 O   0  0  0  0  0  0  0  0  0  0  0  0
    8.0798  -13.0265   20.4056 C   0  0  0  0  0  0  0  0  0  0  0  0
    7.9170  -12.7294   19.0616 C   0  0  0  0  0  0  0  0  0  0  0  0
    9.7940  -16.5425   24.8281 N   0  0  0  0  0  0  0  0  0  0  0  0
    9.9818  -16.6743   26.2507 C   0  0  1  0  0  0  0  0  0  0  0  0
    8.6775  -16.8583   26.9882 C   0  0  0  0  0  0  0  0  0  0  0  0
    7.7988  -15.7158   26.6514 C   0  0  0  0  0  0  0  0  0  0  0  0
    6.6265  -15.8268   25.9083 C   0  0  0  0  0  0  0  0  0  0  0  0
    6.0380  -14.6452   25.7514 N   0  0  0  0  0  0  0  0  0  0  0  0
    6.8012  -13.7256   26.3821 C   0  0  0  0  0  0  0  0  0  0  0  0
    6.6578  -12.3458   26.5437 C   0  0  0  0  0  0  0  0  0  0  0  0
    7.6125  -11.6557   27.2605 C   0  0  0  0  0  0  0  0  0  0  0  0
    8.6977  -12.3188   27.8127 C   0  0  0  0  0  0  0  0  0  0  0  0
    8.8525  -13.7013   27.6581 C   0  0  0  0  0  0  0  0  0  0  0  0
    7.8986  -14.3783   26.9449 C   0  0  0  0  0  0  0  0  0  0  0  0
   10.9546  -17.7141   26.5855 C   0  0  0  0  0  0  0  0  0  0  0  0
   10.6356  -18.7142   27.2371 O   0  0  0  0  0  0  0  0  0  0  0  0
   12.2812  -17.6146   26.1779 O   0  0  0  0  0  0  0  0  0  0  0  0
  2  1  1  6
  3  2  1  0
  4  5  1  0
  4  3  1  0
  5  6  2  0
  7  2  1  0
  8  7  2  0
  9  5  1  0
 10 11  1  0
 11 12  2  0
 12 13  1  0
 14 15  1  0
 14 13  2  0
 16 15  1  1
 16 17  1  0
 17  7  1  0
 18 19  2  0
 18 16  1  0
 20 14  1  0
 21 20  2  0
 21 11  1  0
 22 18  1  0
 23 22  1  0
 23 24  1  1
 24 25  1  0
 25 26  2  0
 25 33  1  0
 26 27  1  0
 27 28  1  0
 28 29  2  0
 29 30  1  0
 31 30  2  0
 32 31  1  0
 33 32  2  0
 33 28  1  0
 34 23  1  0
 35 34  2  0
 36 34  1  0
M  END
$$$$
