EYW.pdb
     RDKit          3D

 36 38  0  0  1  0  0  0  0  0999 V2000
    3.5850  -19.7862   22.9904 N   0  0  0  0  0  0  0  0  0  0  0  0
    5.0217  -20.0084   22.8080 C   0  0  1  0  0  0  0  0  0  0  0  0
    5.1732  -20.3824   21.3459 C   0  0  0  0  0  0  0  0  0  0  0  0
    5.2670  -21.8488   21.1116 C   0  0  0  0  0  0  0  0  0  0  0  0
    5.6121  -22.1151   19.6947 C   0  0  0  0  0  0  0  0  0  0  0  0
    6.7654  -21.7884   19.2928 O   0  0  0  0  0  0  0  0  0  0  0  0
    5.7226  -18.7514   23.1238 C   0  0  0  0  0  0  0  0  0  0  0  0
    5.1152  -17.6571   22.9295 O   0  0  0  0  0  0  0  0  0  0  0  0
    4.7612  -22.6981   18.7723 O   0  0  0  0  0  0  0  0  0  0  0  0
    7.7853  -11.4700   26.9173 O   0  0  0  0  0  0  0  0  0  0  0  0
    7.5133  -12.7689   26.4500 C   0  0  0  0  0  0  0  0  0  0  0  0
    8.3058  -13.8290   26.8265 C   0  0  0  0  0  0  0  0  0  0  0  0
    8.0428  -15.0927   26.3717 C   0  0  0  0  0  0  0  0  0  0  0  0
    6.9948  -15.3859   25.5293 C   0  0  0  0  0  0  0  0  0  0  0  0
    6.7212  -16.7341   25.0602 C   0  0  0  0  0  0  0  0  0  0  0  0
    7.6103  -17.3093   24.0029 C   0  0  2  0  0  0  0  0  0  0  0  0
    7.0358  -18.6462   23.6373 N   0  0  0  0  0  0  0  0  0  0  0  0
    9.0224  -17.4979   24.3638 C   0  0  0  0  0  0  0  0  0  0  0  0
    9.3554  -17.7582   25.5803 O   0  0  0  0  0  0  0  0  0  0  0  0
    6.1932  -14.3053   25.1514 C   0  0  0  0  0  0  0  0  0  0  0  0
    6.4542  -13.0226   25.6075 C   0  0  0  0  0  0  0  0  0  0  0  0
   10.1282  -17.4298   23.4815 N   0  0  0  0  0  0  0  0  0  0  0  0
   10.9537  -16.2567   23.3446 C   0  0  1  0  0  0  0  0  0  0  0  0
   10.1394  -14.9906   23.2314 C   0  0  0  0  0  0  0  0  0  0  0  0
    9.5913  -14.9229   21.8581 C   0  0  0  0  0  0  0  0  0  0  0  0
    9.8534  -15.8654   20.8672 C   0  0  0  0  0  0  0  0  0  0  0  0
    9.2384  -15.5568   19.7297 N   0  0  0  0  0  0  0  0  0  0  0  0
    8.5575  -14.4081   19.9359 C   0  0  0  0  0  0  0  0  0  0  0  0
    7.7415  -13.6435   19.0992 C   0  0  0  0  0  0  0  0  0  0  0  0
    7.1606  -12.4976   19.6000 C   0  0  0  0  0  0  0  0  0  0  0  0
    7.3817  -12.1089   20.9124 C   0  0  0  0  0  0  0  0  0  0  0  0
    8.1971  -12.8666   21.7609 C   0  0  0  0  0  0  0  0  0  0  0  0
    8.7693  -14.0038   21.2546 C   0  0  0  0  0  0  0  0  0  0  0  0
   11.9659  -16.1676   24.3969 C   0  0  0  0  0  0  0  0  0  0  0  0
   13.1679  -16.3188   24.1542 O   0  0  0  0  0  0  0  0  0  0  0  0
   11.6094  -15.9057   25.7160 O   0  0  0  0  0  0  0  0  0  0  0  0
  2  1  1  6
  3  2  1  0
  4  5  1  0
  4  3  1  0
  5  6  2  0
  7  2  1  0
  8  7  2  0
  9  5  1  0
 10 11  1  0
 11 12  2  0
 12 13  1  0
 14 15  1  0
 14 13  2  0
 16 15  1  1
 16 17  1  0
 17  7  1  0
 18 19  2  0
 18 16  1  0
 20 14  1  0
 21 20  2  0
 21 11  1  0
 22 18  1  0
 23 22  1  0
 23 24  1  1
 24 25  1  0
 25 26  2  0
 25 33  1  0
 26 27  1  0
 27 28  1  0
 28 29  2  0
 29 30  1  0
 31 30  2  0
 32 31  1  0
 33 32  2  0
 33 28  1  0
 34 23  1  0
 35 34  2  0
 36 34  1  0
M  END
$$$$
