EYW.pdb
     RDKit          3D

 36 38  0  0  1  0  0  0  0  0999 V2000
    9.6148  -18.5700   19.1220 N   0  0  0  0  0  0  0  0  0  0  0  0
   10.8139  -17.8306   19.5249 C   0  0  1  0  0  0  0  0  0  0  0  0
   11.1800  -16.9961   18.3124 C   0  0  0  0  0  0  0  0  0  0  0  0
   10.9855  -17.7056   17.0190 C   0  0  0  0  0  0  0  0  0  0  0  0
   12.1704  -17.5098   16.1499 C   0  0  0  0  0  0  0  0  0  0  0  0
   12.7834  -16.4064   16.2213 O   0  0  0  0  0  0  0  0  0  0  0  0
   10.4637  -16.9866   20.6809 C   0  0  0  0  0  0  0  0  0  0  0  0
   11.3433  -16.2007   21.1422 O   0  0  0  0  0  0  0  0  0  0  0  0
   12.6595  -18.4500   15.2602 O   0  0  0  0  0  0  0  0  0  0  0  0
    7.9790  -12.4805   17.0713 O   0  0  0  0  0  0  0  0  0  0  0  0
    7.9333  -13.1398   18.3133 C   0  0  0  0  0  0  0  0  0  0  0  0
    7.2771  -14.3423   18.4442 C   0  0  0  0  0  0  0  0  0  0  0  0
    7.2311  -14.9841   19.6521 C   0  0  0  0  0  0  0  0  0  0  0  0
    7.8226  -14.4869   20.7909 C   0  0  0  0  0  0  0  0  0  0  0  0
    7.7736  -15.1828   22.0661 C   0  0  0  0  0  0  0  0  0  0  0  0
    8.9541  -16.0111   22.4656 C   0  0  2  0  0  0  0  0  0  0  0  0
    9.2118  -16.9663   21.3377 N   0  0  0  0  0  0  0  0  0  0  0  0
    8.8213  -16.7880   23.7059 C   0  0  0  0  0  0  0  0  0  0  0  0
    7.6676  -17.2129   24.0889 O   0  0  0  0  0  0  0  0  0  0  0  0
    8.4882  -13.2661   20.6512 C   0  0  0  0  0  0  0  0  0  0  0  0
    8.5381  -12.6101   19.4311 C   0  0  0  0  0  0  0  0  0  0  0  0
    9.8730  -17.1534   24.5814 N   0  0  0  0  0  0  0  0  0  0  0  0
   10.0075  -16.6215   25.9139 C   0  0  1  0  0  0  0  0  0  0  0  0
    9.9385  -15.1137   25.9407 C   0  0  0  0  0  0  0  0  0  0  0  0
    8.5133  -14.7246   26.0325 C   0  0  0  0  0  0  0  0  0  0  0  0
    7.4516  -15.5886   25.7772 C   0  0  0  0  0  0  0  0  0  0  0  0
    6.2812  -14.9769   25.9293 N   0  0  0  0  0  0  0  0  0  0  0  0
    6.5355  -13.6988   26.2864 C   0  0  0  0  0  0  0  0  0  0  0  0
    5.6910  -12.6256   26.5792 C   0  0  0  0  0  0  0  0  0  0  0  0
    6.2489  -11.4143   26.9293 C   0  0  0  0  0  0  0  0  0  0  0  0
    7.6257  -11.2619   26.9905 C   0  0  0  0  0  0  0  0  0  0  0  0
    8.4827  -12.3297   26.6997 C   0  0  0  0  0  0  0  0  0  0  0  0
    7.9190  -13.5294   26.3535 C   0  0  0  0  0  0  0  0  0  0  0  0
    9.0641  -17.2322   26.8502 C   0  0  0  0  0  0  0  0  0  0  0  0
    7.9928  -17.7148   26.4683 O   0  0  0  0  0  0  0  0  0  0  0  0
    9.3420  -17.2937   28.2121 O   0  0  0  0  0  0  0  0  0  0  0  0
  2  1  1  6
  3  2  1  0
  4  5  1  0
  4  3  1  0
  5  6  2  0
  7  2  1  0
  8  7  2  0
  9  5  1  0
 10 11  1  0
 11 12  2  0
 12 13  1  0
 14 15  1  0
 14 13  2  0
 16 15  1  6
 16 17  1  0
 17  7  1  0
 18 19  2  0
 18 16  1  0
 20 14  1  0
 21 20  2  0
 21 11  1  0
 22 18  1  0
 23 22  1  0
 23 24  1  6
 24 25  1  0
 25 26  2  0
 25 33  1  0
 26 27  1  0
 27 28  1  0
 28 29  2  0
 29 30  1  0
 31 30  2  0
 32 31  1  0
 33 32  2  0
 33 28  1  0
 34 23  1  0
 35 34  2  0
 36 34  1  0
M  END
$$$$
