EYW.pdb
     RDKit          3D

 36 38  0  0  1  0  0  0  0  0999 V2000
   11.2244  -16.8624   20.7929 N   0  0  0  0  0  0  0  0  0  0  0  0
   11.5812  -18.1505   21.3932 C   0  0  1  0  0  0  0  0  0  0  0  0
   12.9784  -18.4430   20.8804 C   0  0  0  0  0  0  0  0  0  0  0  0
   13.0046  -18.9764   19.4914 C   0  0  0  0  0  0  0  0  0  0  0  0
   14.1628  -18.4163   18.7549 C   0  0  0  0  0  0  0  0  0  0  0  0
   14.9978  -17.7209   19.4012 O   0  0  0  0  0  0  0  0  0  0  0  0
   11.5610  -17.9934   22.8582 C   0  0  0  0  0  0  0  0  0  0  0  0
   11.8613  -18.9928   23.5760 O   0  0  0  0  0  0  0  0  0  0  0  0
   14.4007  -18.5982   17.4039 O   0  0  0  0  0  0  0  0  0  0  0  0
   10.5032  -14.1434   30.9699 O   0  0  0  0  0  0  0  0  0  0  0  0
   10.7277  -14.4492   29.6150 C   0  0  0  0  0  0  0  0  0  0  0  0
   11.4225  -15.5821   29.2585 C   0  0  0  0  0  0  0  0  0  0  0  0
   11.6424  -15.8800   27.9410 C   0  0  0  0  0  0  0  0  0  0  0  0
   11.1954  -15.0900   26.9066 C   0  0  0  0  0  0  0  0  0  0  0  0
   11.4283  -15.4221   25.5108 C   0  0  0  0  0  0  0  0  0  0  0  0
   11.1066  -16.8091   25.0506 C   0  0  2  0  0  0  0  0  0  0  0  0
   11.2347  -16.8077   23.5558 N   0  0  0  0  0  0  0  0  0  0  0  0
    9.7747  -17.3238   25.3982 C   0  0  0  0  0  0  0  0  0  0  0  0
    9.5247  -17.7312   26.5940 O   0  0  0  0  0  0  0  0  0  0  0  0
   10.4896  -13.9415   27.2752 C   0  0  0  0  0  0  0  0  0  0  0  0
   10.2640  -13.6331   28.6076 C   0  0  0  0  0  0  0  0  0  0  0  0
    8.6633  -17.4269   24.5263 N   0  0  0  0  0  0  0  0  0  0  0  0
    7.3437  -17.7935   24.9745 C   0  0  1  0  0  0  0  0  0  0  0  0
    6.2594  -17.0222   24.2616 C   0  0  0  0  0  0  0  0  0  0  0  0
    6.6914  -15.6095   24.1687 C   0  0  0  0  0  0  0  0  0  0  0  0
    7.2527  -15.0395   23.0291 C   0  0  0  0  0  0  0  0  0  0  0  0
    7.5517  -13.7590   23.2243 N   0  0  0  0  0  0  0  0  0  0  0  0
    7.1991  -13.4492   24.4914 C   0  0  0  0  0  0  0  0  0  0  0  0
    7.2783  -12.2591   25.2180 C   0  0  0  0  0  0  0  0  0  0  0  0
    6.8227  -12.2409   26.5193 C   0  0  0  0  0  0  0  0  0  0  0  0
    6.2942  -13.3842   27.0990 C   0  0  0  0  0  0  0  0  0  0  0  0
    6.2092  -14.5829   26.3813 C   0  0  0  0  0  0  0  0  0  0  0  0
    6.6637  -14.5910   25.0889 C   0  0  0  0  0  0  0  0  0  0  0  0
    7.1215  -19.2380   24.9148 C   0  0  0  0  0  0  0  0  0  0  0  0
    7.8872  -19.9864   24.2981 O   0  0  0  0  0  0  0  0  0  0  0  0
    6.0350  -19.8247   25.5558 O   0  0  0  0  0  0  0  0  0  0  0  0
  2  1  1  6
  3  2  1  0
  4  5  1  0
  4  3  1  0
  5  6  2  0
  7  2  1  0
  8  7  2  0
  9  5  1  0
 10 11  1  0
 11 12  2  0
 12 13  1  0
 14 15  1  0
 14 13  2  0
 16 15  1  6
 16 17  1  0
 17  7  1  0
 18 19  2  0
 18 16  1  0
 20 14  1  0
 21 20  2  0
 21 11  1  0
 22 18  1  0
 23 22  1  0
 23 24  1  6
 24 25  1  0
 25 26  2  0
 25 33  1  0
 26 27  1  0
 27 28  1  0
 28 29  2  0
 29 30  1  0
 31 30  2  0
 32 31  1  0
 33 32  2  0
 33 28  1  0
 34 23  1  0
 35 34  2  0
 36 34  1  0
M  END
$$$$
