EYW.pdb
     RDKit          3D

 36 38  0  0  1  0  0  0  0  0999 V2000
   12.3629  -17.9905   20.5298 N   0  0  0  0  0  0  0  0  0  0  0  0
   11.3176  -17.1571   21.1296 C   0  0  1  0  0  0  0  0  0  0  0  0
   10.0137  -17.7783   20.6663 C   0  0  0  0  0  0  0  0  0  0  0  0
    9.7357  -17.5724   19.2191 C   0  0  0  0  0  0  0  0  0  0  0  0
    8.4993  -18.2931   18.8326 C   0  0  0  0  0  0  0  0  0  0  0  0
    7.9597  -19.0491   19.6903 O   0  0  0  0  0  0  0  0  0  0  0  0
   11.4628  -17.2253   22.5943 C   0  0  0  0  0  0  0  0  0  0  0  0
   11.8195  -18.3237   23.1144 O   0  0  0  0  0  0  0  0  0  0  0  0
    7.8868  -18.2003   17.5951 O   0  0  0  0  0  0  0  0  0  0  0  0
   11.1725  -14.8552   31.3161 O   0  0  0  0  0  0  0  0  0  0  0  0
   11.2149  -14.9202   29.9112 C   0  0  0  0  0  0  0  0  0  0  0  0
   10.5412  -13.9955   29.1467 C   0  0  0  0  0  0  0  0  0  0  0  0
   10.5808  -14.0582   27.7801 C   0  0  0  0  0  0  0  0  0  0  0  0
   11.2792  -15.0237   27.0916 C   0  0  0  0  0  0  0  0  0  0  0  0
   11.3202  -15.0742   25.6395 C   0  0  0  0  0  0  0  0  0  0  0  0
   11.1733  -16.4062   24.9737 C   0  0  2  0  0  0  0  0  0  0  0  0
   11.2407  -16.1586   23.4954 N   0  0  0  0  0  0  0  0  0  0  0  0
    9.9393  -17.1509   25.2602 C   0  0  0  0  0  0  0  0  0  0  0  0
    9.8283  -17.8365   26.3447 O   0  0  0  0  0  0  0  0  0  0  0  0
   11.9620  -15.9592   27.8736 C   0  0  0  0  0  0  0  0  0  0  0  0
   11.9256  -15.9021   29.2581 C   0  0  0  0  0  0  0  0  0  0  0  0
    8.7848  -17.2047   24.4415 N   0  0  0  0  0  0  0  0  0  0  0  0
    7.5003  -17.6475   24.9218 C   0  0  1  0  0  0  0  0  0  0  0  0
    6.3660  -17.1853   24.0395 C   0  0  0  0  0  0  0  0  0  0  0  0
    6.7077  -15.8396   23.5261 C   0  0  0  0  0  0  0  0  0  0  0  0
    7.1778  -15.5928   22.2389 C   0  0  0  0  0  0  0  0  0  0  0  0
    7.4089  -14.2979   22.0470 N   0  0  0  0  0  0  0  0  0  0  0  0
    7.1005  -13.6567   23.1957 C   0  0  0  0  0  0  0  0  0  0  0  0
    7.1437  -12.3070   23.5520 C   0  0  0  0  0  0  0  0  0  0  0  0
    6.7517  -11.9398   24.8220 C   0  0  0  0  0  0  0  0  0  0  0  0
    6.3214  -12.8933   25.7320 C   0  0  0  0  0  0  0  0  0  0  0  0
    6.2733  -14.2490   25.3870 C   0  0  0  0  0  0  0  0  0  0  0  0
    6.6640  -14.6040   24.1228 C   0  0  0  0  0  0  0  0  0  0  0  0
    7.4647  -19.0915   25.1526 C   0  0  0  0  0  0  0  0  0  0  0  0
    6.5038  -19.6356   25.7068 O   0  0  0  0  0  0  0  0  0  0  0  0
    8.5167  -19.9091   24.7517 O   0  0  0  0  0  0  0  0  0  0  0  0
  2  1  1  6
  3  2  1  0
  4  5  1  0
  4  3  1  0
  5  6  2  0
  7  2  1  0
  8  7  2  0
  9  5  1  0
 10 11  1  0
 11 12  2  0
 12 13  1  0
 14 15  1  0
 14 13  2  0
 16 15  1  1
 16 17  1  0
 17  7  1  0
 18 19  2  0
 18 16  1  0
 20 14  1  0
 21 20  2  0
 21 11  1  0
 22 18  1  0
 23 22  1  0
 23 24  1  6
 24 25  1  0
 25 26  2  0
 25 33  1  0
 26 27  1  0
 27 28  1  0
 28 29  2  0
 29 30  1  0
 31 30  2  0
 32 31  1  0
 33 32  2  0
 33 28  1  0
 34 23  1  0
 35 34  2  0
 36 34  1  0
M  END
$$$$
