EYW.pdb
     RDKit          3D

 36 38  0  0  1  0  0  0  0  0999 V2000
   12.7289  -17.3473   20.3461 N   0  0  0  0  0  0  0  0  0  0  0  0
   11.6634  -16.4722   20.8419 C   0  0  1  0  0  0  0  0  0  0  0  0
   10.4328  -16.8744   20.0516 C   0  0  0  0  0  0  0  0  0  0  0  0
   10.4808  -16.4630   18.6224 C   0  0  0  0  0  0  0  0  0  0  0  0
    9.2954  -16.9881   17.9034 C   0  0  0  0  0  0  0  0  0  0  0  0
    9.3127  -18.1968   17.5331 O   0  0  0  0  0  0  0  0  0  0  0  0
   11.4933  -16.7299   22.2826 C   0  0  0  0  0  0  0  0  0  0  0  0
   11.3656  -17.9290   22.6697 O   0  0  0  0  0  0  0  0  0  0  0  0
    8.1636  -16.2500   17.6048 O   0  0  0  0  0  0  0  0  0  0  0  0
   11.0141  -15.6774   31.2053 O   0  0  0  0  0  0  0  0  0  0  0  0
   11.1646  -15.5108   29.8163 C   0  0  0  0  0  0  0  0  0  0  0  0
   11.8106  -16.4637   29.0625 C   0  0  0  0  0  0  0  0  0  0  0  0
   11.9584  -16.3022   27.7115 C   0  0  0  0  0  0  0  0  0  0  0  0
   11.4836  -15.2057   27.0288 C   0  0  0  0  0  0  0  0  0  0  0  0
   11.6398  -15.0503   25.5921 C   0  0  0  0  0  0  0  0  0  0  0  0
   11.0657  -16.1055   24.6999 C   0  0  2  0  0  0  0  0  0  0  0  0
   11.4614  -15.7464   23.2979 N   0  0  0  0  0  0  0  0  0  0  0  0
    9.6063  -16.2743   24.7377 C   0  0  0  0  0  0  0  0  0  0  0  0
    8.8409  -15.2740   25.0055 O   0  0  0  0  0  0  0  0  0  0  0  0
   10.8278  -14.2421   27.7998 C   0  0  0  0  0  0  0  0  0  0  0  0
   10.6751  -14.3987   29.1685 C   0  0  0  0  0  0  0  0  0  0  0  0
    8.8960  -17.4753   24.4947 N   0  0  0  0  0  0  0  0  0  0  0  0
    7.6056  -17.7560   25.0714 C   0  0  1  0  0  0  0  0  0  0  0  0
    6.4820  -17.0817   24.3220 C   0  0  0  0  0  0  0  0  0  0  0  0
    6.3970  -15.6809   24.7927 C   0  0  0  0  0  0  0  0  0  0  0  0
    5.8623  -15.3027   26.0215 C   0  0  0  0  0  0  0  0  0  0  0  0
    5.9067  -13.9842   26.1845 N   0  0  0  0  0  0  0  0  0  0  0  0
    6.4679  -13.4573   25.0740 C   0  0  0  0  0  0  0  0  0  0  0  0
    6.7635  -12.1412   24.7120 C   0  0  0  0  0  0  0  0  0  0  0  0
    7.3574  -11.9031   23.4906 C   0  0  0  0  0  0  0  0  0  0  0  0
    7.6569  -12.9516   22.6342 C   0  0  0  0  0  0  0  0  0  0  0  0
    7.3658  -14.2748   22.9855 C   0  0  0  0  0  0  0  0  0  0  0  0
    6.7765  -14.5015   24.2013 C   0  0  0  0  0  0  0  0  0  0  0  0
    7.3742  -19.1910   25.2355 C   0  0  0  0  0  0  0  0  0  0  0  0
    6.2397  -19.6488   25.4085 O   0  0  0  0  0  0  0  0  0  0  0  0
    8.4293  -20.0973   25.2002 O   0  0  0  0  0  0  0  0  0  0  0  0
  2  1  1  6
  3  2  1  0
  4  5  1  0
  4  3  1  0
  5  6  2  0
  7  2  1  0
  8  7  2  0
  9  5  1  0
 10 11  1  0
 11 12  2  0
 12 13  1  0
 14 15  1  0
 14 13  2  0
 16 15  1  1
 16 17  1  0
 17  7  1  0
 18 19  2  0
 18 16  1  0
 20 14  1  0
 21 20  2  0
 21 11  1  0
 22 18  1  0
 23 22  1  0
 23 24  1  6
 24 25  1  0
 25 26  2  0
 25 33  1  0
 26 27  1  0
 27 28  1  0
 28 29  2  0
 29 30  1  0
 31 30  2  0
 32 31  1  0
 33 32  2  0
 33 28  1  0
 34 23  1  0
 35 34  2  0
 36 34  1  0
M  END
$$$$
