EYW.pdb
     RDKit          3D

 36 38  0  0  1  0  0  0  0  0999 V2000
    8.9579  -18.8355   20.3329 N   0  0  0  0  0  0  0  0  0  0  0  0
   10.3353  -18.3499   20.2150 C   0  0  1  0  0  0  0  0  0  0  0  0
   10.5279  -18.0876   18.7335 C   0  0  0  0  0  0  0  0  0  0  0  0
    9.9377  -19.1377   17.8600 C   0  0  0  0  0  0  0  0  0  0  0  0
   10.1169  -18.7715   16.4347 C   0  0  0  0  0  0  0  0  0  0  0  0
    9.0814  -18.5563   15.7421 O   0  0  0  0  0  0  0  0  0  0  0  0
   10.4533  -17.1127   21.0066 C   0  0  0  0  0  0  0  0  0  0  0  0
   11.5540  -16.4866   20.9864 O   0  0  0  0  0  0  0  0  0  0  0  0
   11.3405  -18.6466   15.8007 O   0  0  0  0  0  0  0  0  0  0  0  0
    7.0400  -13.2289   16.9012 O   0  0  0  0  0  0  0  0  0  0  0  0
    7.3940  -13.5094   18.2338 C   0  0  0  0  0  0  0  0  0  0  0  0
    6.8385  -14.5804   18.8955 C   0  0  0  0  0  0  0  0  0  0  0  0
    7.1813  -14.8536   20.1920 C   0  0  0  0  0  0  0  0  0  0  0  0
    8.0823  -14.0979   20.9068 C   0  0  0  0  0  0  0  0  0  0  0  0
    8.4443  -14.4038   22.2809 C   0  0  0  0  0  0  0  0  0  0  0  0
    9.6578  -15.2454   22.5221 C   0  0  2  0  0  0  0  0  0  0  0  0
    9.4328  -16.5422   21.8018 N   0  0  0  0  0  0  0  0  0  0  0  0
    9.9796  -15.5470   23.9239 C   0  0  0  0  0  0  0  0  0  0  0  0
   10.7617  -14.7742   24.5942 O   0  0  0  0  0  0  0  0  0  0  0  0
    8.6436  -13.0123   20.2290 C   0  0  0  0  0  0  0  0  0  0  0  0
    8.3005  -12.7293   18.9162 C   0  0  0  0  0  0  0  0  0  0  0  0
    9.5001  -16.6482   24.6746 N   0  0  0  0  0  0  0  0  0  0  0  0
    9.9385  -16.9352   26.0170 C   0  0  1  0  0  0  0  0  0  0  0  0
    9.7058  -15.7776   26.9576 C   0  0  0  0  0  0  0  0  0  0  0  0
    8.3380  -15.2647   26.7188 C   0  0  0  0  0  0  0  0  0  0  0  0
    7.2484  -16.0704   26.3987 C   0  0  0  0  0  0  0  0  0  0  0  0
    6.1440  -15.3492   26.2334 N   0  0  0  0  0  0  0  0  0  0  0  0
    6.4714  -14.0542   26.4376 C   0  0  0  0  0  0  0  0  0  0  0  0
    5.7122  -12.8826   26.4017 C   0  0  0  0  0  0  0  0  0  0  0  0
    6.3306  -11.6790   26.6667 C   0  0  0  0  0  0  0  0  0  0  0  0
    7.6840  -11.6304   26.9641 C   0  0  0  0  0  0  0  0  0  0  0  0
    8.4557  -12.7975   27.0034 C   0  0  0  0  0  0  0  0  0  0  0  0
    7.8322  -13.9886   26.7395 C   0  0  0  0  0  0  0  0  0  0  0  0
    9.3711  -18.1826   26.5286 C   0  0  0  0  0  0  0  0  0  0  0  0
    8.5008  -18.8013   25.9072 O   0  0  0  0  0  0  0  0  0  0  0  0
    9.7954  -18.7213   27.7392 O   0  0  0  0  0  0  0  0  0  0  0  0
  2  1  1  6
  3  2  1  0
  4  5  1  0
  4  3  1  0
  5  6  2  0
  7  2  1  0
  8  7  2  0
  9  5  1  0
 10 11  1  0
 11 12  2  0
 12 13  1  0
 14 15  1  0
 14 13  2  0
 16 15  1  1
 16 17  1  0
 17  7  1  0
 18 19  2  0
 18 16  1  0
 20 14  1  0
 21 20  2  0
 21 11  1  0
 22 18  1  0
 23 22  1  0
 23 24  1  1
 24 25  1  0
 25 26  2  0
 25 33  1  0
 26 27  1  0
 27 28  1  0
 28 29  2  0
 29 30  1  0
 31 30  2  0
 32 31  1  0
 33 32  2  0
 33 28  1  0
 34 23  1  0
 35 34  2  0
 36 34  1  0
M  END
$$$$
