EYW.pdb
     RDKit          3D

 36 38  0  0  1  0  0  0  0  0999 V2000
   10.3446  -19.5343   17.8741 N   0  0  0  0  0  0  0  0  0  0  0  0
   10.3928  -18.1717   18.4106 C   0  0  1  0  0  0  0  0  0  0  0  0
    9.0729  -17.5470   18.0003 C   0  0  0  0  0  0  0  0  0  0  0  0
    8.8378  -17.5602   16.5311 C   0  0  0  0  0  0  0  0  0  0  0  0
    7.5482  -16.8994   16.2179 C   0  0  0  0  0  0  0  0  0  0  0  0
    6.8695  -16.4363   17.1787 O   0  0  0  0  0  0  0  0  0  0  0  0
   10.5203  -18.2614   19.8758 C   0  0  0  0  0  0  0  0  0  0  0  0
    9.8147  -19.1142   20.4914 O   0  0  0  0  0  0  0  0  0  0  0  0
    7.0277  -16.7502   14.9444 O   0  0  0  0  0  0  0  0  0  0  0  0
   14.0552  -23.3217   20.4217 O   0  0  0  0  0  0  0  0  0  0  0  0
   13.7245  -22.0537   20.9342 C   0  0  0  0  0  0  0  0  0  0  0  0
   13.1178  -21.9316   22.1633 C   0  0  0  0  0  0  0  0  0  0  0  0
   12.7947  -20.6990   22.6624 C   0  0  0  0  0  0  0  0  0  0  0  0
   13.0477  -19.5254   21.9897 C   0  0  0  0  0  0  0  0  0  0  0  0
   12.7072  -18.2217   22.5349 C   0  0  0  0  0  0  0  0  0  0  0  0
   11.3833  -17.6267   22.1712 C   0  0  2  0  0  0  0  0  0  0  0  0
   11.3757  -17.4723   20.6788 N   0  0  0  0  0  0  0  0  0  0  0  0
   11.0618  -16.3241   22.7707 C   0  0  0  0  0  0  0  0  0  0  0  0
   10.6511  -15.3509   22.0341 O   0  0  0  0  0  0  0  0  0  0  0  0
   13.6648  -19.6560   20.7427 C   0  0  0  0  0  0  0  0  0  0  0  0
   13.9941  -20.9013   20.2307 C   0  0  0  0  0  0  0  0  0  0  0  0
   11.1486  -15.9905   24.1444 N   0  0  0  0  0  0  0  0  0  0  0  0
   10.0041  -15.6182   24.9369 C   0  0  1  0  0  0  0  0  0  0  0  0
    8.7123  -15.7142   24.1617 C   0  0  0  0  0  0  0  0  0  0  0  0
    7.6507  -15.0656   24.9638 C   0  0  0  0  0  0  0  0  0  0  0  0
    6.5713  -15.7448   25.5226 C   0  0  0  0  0  0  0  0  0  0  0  0
    5.7695  -14.9183   26.1868 N   0  0  0  0  0  0  0  0  0  0  0  0
    6.2932  -13.6769   26.0852 C   0  0  0  0  0  0  0  0  0  0  0  0
    5.8760  -12.4435   26.5902 C   0  0  0  0  0  0  0  0  0  0  0  0
    6.6348  -11.3232   26.3247 C   0  0  0  0  0  0  0  0  0  0  0  0
    7.7934  -11.4174   25.5689 C   0  0  0  0  0  0  0  0  0  0  0  0
    8.2222  -12.6477   25.0574 C   0  0  0  0  0  0  0  0  0  0  0  0
    7.4622  -13.7551   25.3271 C   0  0  0  0  0  0  0  0  0  0  0  0
    9.9438  -16.3537   26.1999 C   0  0  0  0  0  0  0  0  0  0  0  0
    9.5053  -15.8345   27.2317 O   0  0  0  0  0  0  0  0  0  0  0  0
   10.3785  -17.6727   26.2844 O   0  0  0  0  0  0  0  0  0  0  0  0
  2  1  1  6
  3  2  1  0
  4  5  1  0
  4  3  1  0
  5  6  2  0
  7  2  1  0
  8  7  2  0
  9  5  1  0
 10 11  1  0
 11 12  2  0
 12 13  1  0
 14 15  1  0
 14 13  2  0
 16 15  1  1
 16 17  1  0
 17  7  1  0
 18 19  2  0
 18 16  1  0
 20 14  1  0
 21 20  2  0
 21 11  1  0
 22 18  1  0
 23 22  1  0
 23 24  1  6
 24 25  1  0
 25 26  2  0
 25 33  1  0
 26 27  1  0
 27 28  1  0
 28 29  2  0
 29 30  1  0
 31 30  2  0
 32 31  1  0
 33 32  2  0
 33 28  1  0
 34 23  1  0
 35 34  2  0
 36 34  1  0
M  END
$$$$
