EYW.pdb
     RDKit          3D

 36 38  0  0  1  0  0  0  0  0999 V2000
    9.5393  -18.4588   20.1169 N   0  0  0  0  0  0  0  0  0  0  0  0
   10.8085  -17.7281   20.1615 C   0  0  1  0  0  0  0  0  0  0  0  0
   11.0826  -17.3398   18.7211 C   0  0  0  0  0  0  0  0  0  0  0  0
   10.7209  -18.3974   17.7388 C   0  0  0  0  0  0  0  0  0  0  0  0
   11.0702  -17.9566   16.3672 C   0  0  0  0  0  0  0  0  0  0  0  0
   10.2980  -17.1375   15.7919 O   0  0  0  0  0  0  0  0  0  0  0  0
   10.6246  -16.5440   21.0188 C   0  0  0  0  0  0  0  0  0  0  0  0
   11.5913  -15.7357   21.1462 O   0  0  0  0  0  0  0  0  0  0  0  0
   12.1854  -18.3771   15.6641 O   0  0  0  0  0  0  0  0  0  0  0  0
    7.3954  -13.4346   16.3775 O   0  0  0  0  0  0  0  0  0  0  0  0
    7.5605  -13.6311   17.7609 C   0  0  0  0  0  0  0  0  0  0  0  0
    7.0815  -14.7689   18.3688 C   0  0  0  0  0  0  0  0  0  0  0  0
    7.2406  -14.9607   19.7145 C   0  0  0  0  0  0  0  0  0  0  0  0
    7.8747  -14.0545   20.5335 C   0  0  0  0  0  0  0  0  0  0  0  0
    8.0446  -14.2741   21.9602 C   0  0  0  0  0  0  0  0  0  0  0  0
    9.3209  -14.8959   22.4331 C   0  0  2  0  0  0  0  0  0  0  0  0
    9.4459  -16.2135   21.7263 N   0  0  0  0  0  0  0  0  0  0  0  0
    9.4385  -15.1354   23.8782 C   0  0  0  0  0  0  0  0  0  0  0  0
    9.3903  -14.1520   24.7083 O   0  0  0  0  0  0  0  0  0  0  0  0
    8.3597  -12.9016   19.9100 C   0  0  0  0  0  0  0  0  0  0  0  0
    8.2014  -12.7005   18.5477 C   0  0  0  0  0  0  0  0  0  0  0  0
    9.6024  -16.3936   24.5076 N   0  0  0  0  0  0  0  0  0  0  0  0
    9.8096  -16.5422   25.9259 C   0  0  1  0  0  0  0  0  0  0  0  0
    8.5391  -16.9005   26.6582 C   0  0  0  0  0  0  0  0  0  0  0  0
    7.5423  -15.8407   26.3860 C   0  0  0  0  0  0  0  0  0  0  0  0
    6.3314  -16.0587   25.7341 C   0  0  0  0  0  0  0  0  0  0  0  0
    5.6330  -14.9334   25.6192 N   0  0  0  0  0  0  0  0  0  0  0  0
    6.3592  -13.9460   26.1880 C   0  0  0  0  0  0  0  0  0  0  0  0
    6.1099  -12.5822   26.3564 C   0  0  0  0  0  0  0  0  0  0  0  0
    7.0526  -11.8063   26.9972 C   0  0  0  0  0  0  0  0  0  0  0  0
    8.2295  -12.3688   27.4674 C   0  0  0  0  0  0  0  0  0  0  0  0
    8.4909  -13.7342   27.3049 C   0  0  0  0  0  0  0  0  0  0  0  0
    7.5481  -14.4971   26.6677 C   0  0  0  0  0  0  0  0  0  0  0  0
   10.9003  -17.4681   26.2308 C   0  0  0  0  0  0  0  0  0  0  0  0
   11.4859  -18.0947   25.3414 O   0  0  0  0  0  0  0  0  0  0  0  0
   11.3212  -17.6757   27.5405 O   0  0  0  0  0  0  0  0  0  0  0  0
  2  1  1  6
  3  2  1  0
  4  5  1  0
  4  3  1  0
  5  6  2  0
  7  2  1  0
  8  7  2  0
  9  5  1  0
 10 11  1  0
 11 12  2  0
 12 13  1  0
 14 15  1  0
 14 13  2  0
 16 15  1  1
 16 17  1  0
 17  7  1  0
 18 19  2  0
 18 16  1  0
 20 14  1  0
 21 20  2  0
 21 11  1  0
 22 18  1  0
 23 22  1  0
 23 24  1  1
 24 25  1  0
 25 26  2  0
 25 33  1  0
 26 27  1  0
 27 28  1  0
 28 29  2  0
 29 30  1  0
 31 30  2  0
 32 31  1  0
 33 32  2  0
 33 28  1  0
 34 23  1  0
 35 34  2  0
 36 34  1  0
M  END
$$$$
