CVT.pdb
     RDKit          3D

 21 20  0  0  1  0  0  0  0  0999 V2000
    7.4826  -15.2609   20.7619 N   0  0  0  0  0  0  0  0  0  0  0  0
    6.8818  -15.5064   22.0573 C   0  0  1  0  0  0  0  0  0  0  0  0
    6.6736  -17.0101   22.1623 C   0  0  0  0  0  0  0  0  0  0  0  0
    5.9335  -17.4635   23.7508 S   0  0  0  0  0  0  0  0  0  0  0  0
    7.7389  -15.0038   23.1572 C   0  0  0  0  0  0  0  0  0  0  0  0
    8.9824  -15.0754   23.0497 O   0  0  0  0  0  0  0  0  0  0  0  0
    7.6389  -12.6990   27.5764 C   0  0  0  0  0  0  0  0  0  0  0  0
    6.9841  -13.1155   26.2780 C   0  0  1  0  0  0  0  0  0  0  0  0
    6.6442  -11.8803   25.5121 C   0  0  0  0  0  0  0  0  0  0  0  0
    7.9199  -14.0281   25.4728 C   0  0  2  0  0  0  0  0  0  0  0  0
    7.1668  -14.4518   24.3110 N   0  0  0  0  0  0  0  0  0  0  0  0
    8.3209  -15.1964   26.2734 C   0  0  0  0  0  0  0  0  0  0  0  0
    7.4643  -16.0404   26.6441 O   0  0  0  0  0  0  0  0  0  0  0  0
   11.6172  -18.6598   27.2552 C   0  0  0  0  0  0  0  0  0  0  0  0
   11.2024  -17.3768   26.6230 C   0  0  1  0  0  0  0  0  0  0  0  0
   10.8226  -17.5764   25.3019 O   0  0  0  0  0  0  0  0  0  0  0  0
   10.0715  -16.6808   27.3239 C   0  0  2  0  0  0  0  0  0  0  0  0
    9.6705  -15.4516   26.6770 N   0  0  0  0  0  0  0  0  0  0  0  0
   10.3625  -16.4630   28.7723 C   0  0  0  0  0  0  0  0  0  0  0  0
   10.5498  -15.2143   29.3119 O   0  0  0  0  0  0  0  0  0  0  0  0
   10.4344  -17.4753   29.5079 O   0  0  0  0  0  0  0  0  0  0  0  0
  2  1  1  6
  2  3  1  0
  3  4  1  0
  5  2  1  0
  6  5  2  0
  8 10  1  0
  8  7  1  1
  9  8  1  0
 10 12  1  0
 10 11  1  6
 11  5  1  0
 12 18  1  0
 13 12  2  0
 15 14  1  1
 15 16  1  0
 17 18  1  6
 17 19  1  0
 17 15  1  0
 19 21  2  0
 19 20  1  0
M  END
$$$$
