CVT.pdb
     RDKit          3D

 21 20  0  0  1  0  0  0  0  0999 V2000
    7.7168  -13.5322   20.3979 N   0  0  0  0  0  0  0  0  0  0  0  0
    7.1026  -14.2353   21.5058 C   0  0  1  0  0  0  0  0  0  0  0  0
    6.8677  -15.6640   21.0379 C   0  0  0  0  0  0  0  0  0  0  0  0
    6.1411  -16.6764   22.3507 S   0  0  0  0  0  0  0  0  0  0  0  0
    7.9602  -14.1991   22.7142 C   0  0  0  0  0  0  0  0  0  0  0  0
    9.1993  -14.3126   22.5925 O   0  0  0  0  0  0  0  0  0  0  0  0
    7.3104  -11.7419   25.7459 C   0  0  0  0  0  0  0  0  0  0  0  0
    7.3503  -13.1809   26.2104 C   0  0  1  0  0  0  0  0  0  0  0  0
    5.9447  -13.6668   26.3381 C   0  0  0  0  0  0  0  0  0  0  0  0
    8.1479  -14.0429   25.2216 C   0  0  2  0  0  0  0  0  0  0  0  0
    7.3936  -14.0393   23.9856 N   0  0  0  0  0  0  0  0  0  0  0  0
    8.2888  -15.4178   25.7280 C   0  0  0  0  0  0  0  0  0  0  0  0
    7.2841  -16.1696   25.8213 O   0  0  0  0  0  0  0  0  0  0  0  0
    9.7103  -18.3573   24.3032 C   0  0  0  0  0  0  0  0  0  0  0  0
   10.3752  -18.2416   25.6308 C   0  0  1  0  0  0  0  0  0  0  0  0
   11.6731  -17.7662   25.4942 O   0  0  0  0  0  0  0  0  0  0  0  0
    9.6605  -17.3477   26.6029 C   0  0  2  0  0  0  0  0  0  0  0  0
    9.5379  -15.9840   26.1388 N   0  0  0  0  0  0  0  0  0  0  0  0
   10.2691  -17.4056   27.9652 C   0  0  0  0  0  0  0  0  0  0  0  0
   10.2713  -18.5466   28.7291 O   0  0  0  0  0  0  0  0  0  0  0  0
   10.7942  -16.3582   28.4107 O   0  0  0  0  0  0  0  0  0  0  0  0
  2  1  1  6
  2  3  1  0
  3  4  1  0
  5  2  1  0
  6  5  2  0
  8 10  1  0
  8  7  1  6
  9  8  1  0
 10 12  1  0
 10 11  1  6
 11  5  1  0
 12 18  1  0
 13 12  2  0
 15 14  1  6
 15 16  1  0
 17 18  1  6
 17 19  1  0
 17 15  1  0
 19 21  2  0
 19 20  1  0
M  END
$$$$
