CVT.pdb
     RDKit          3D

 21 20  0  0  1  0  0  0  0  0999 V2000
    7.6627  -14.6719   20.4722 N   0  0  0  0  0  0  0  0  0  0  0  0
    6.9854  -14.9825   21.7147 C   0  0  1  0  0  0  0  0  0  0  0  0
    6.6417  -16.4640   21.6642 C   0  0  0  0  0  0  0  0  0  0  0  0
    5.8193  -17.0020   23.1844 S   0  0  0  0  0  0  0  0  0  0  0  0
    7.8330  -14.6666   22.8889 C   0  0  0  0  0  0  0  0  0  0  0  0
    9.0492  -14.9549   22.8648 O   0  0  0  0  0  0  0  0  0  0  0  0
    5.8520  -13.4139   26.3988 C   0  0  0  0  0  0  0  0  0  0  0  0
    7.1456  -12.7355   26.0055 C   0  0  1  0  0  0  0  0  0  0  0  0
    7.8284  -12.2794   27.2520 C   0  0  0  0  0  0  0  0  0  0  0  0
    8.0352  -13.6975   25.2055 C   0  0  2  0  0  0  0  0  0  0  0  0
    7.2822  -14.0499   24.0201 N   0  0  0  0  0  0  0  0  0  0  0  0
    8.3365  -14.9031   25.9944 C   0  0  0  0  0  0  0  0  0  0  0  0
    7.4303  -15.7346   26.2605 O   0  0  0  0  0  0  0  0  0  0  0  0
   10.5736  -17.7231   25.1767 C   0  0  0  0  0  0  0  0  0  0  0  0
   10.9495  -17.2928   26.5520 C   0  0  1  0  0  0  0  0  0  0  0  0
   12.1524  -16.5983   26.5415 O   0  0  0  0  0  0  0  0  0  0  0  0
    9.9268  -16.4262   27.2285 C   0  0  2  0  0  0  0  0  0  0  0  0
    9.6397  -15.2100   26.5013 N   0  0  0  0  0  0  0  0  0  0  0  0
   10.2910  -16.1377   28.6477 C   0  0  0  0  0  0  0  0  0  0  0  0
   10.3551  -17.1145   29.6106 O   0  0  0  0  0  0  0  0  0  0  0  0
   10.5447  -14.9482   28.9509 O   0  0  0  0  0  0  0  0  0  0  0  0
  2  1  1  6
  2  3  1  0
  3  4  1  0
  5  2  1  0
  6  5  2  0
  8 10  1  0
  8  7  1  1
  9  8  1  0
 10 12  1  0
 10 11  1  6
 11  5  1  0
 12 18  1  0
 13 12  2  0
 15 14  1  6
 15 16  1  0
 17 18  1  6
 17 19  1  0
 17 15  1  0
 19 21  2  0
 19 20  1  0
M  END
$$$$
