CVT.pdb
     RDKit          3D

 21 20  0  0  1  0  0  0  0  0999 V2000
    7.6139  -13.7893   20.1396 N   0  0  0  0  0  0  0  0  0  0  0  0
    6.9628  -14.4154   21.2723 C   0  0  1  0  0  0  0  0  0  0  0  0
    6.7861  -15.8840   20.9155 C   0  0  0  0  0  0  0  0  0  0  0  0
    5.8553  -16.7655   22.1935 S   0  0  0  0  0  0  0  0  0  0  0  0
    7.7582  -14.2550   22.5127 C   0  0  0  0  0  0  0  0  0  0  0  0
    9.0067  -14.2777   22.4498 O   0  0  0  0  0  0  0  0  0  0  0  0
    7.4226  -13.1341   27.3519 C   0  0  0  0  0  0  0  0  0  0  0  0
    6.8190  -13.2688   25.9714 C   0  0  1  0  0  0  0  0  0  0  0  0
    6.4322  -11.9068   25.4988 C   0  0  0  0  0  0  0  0  0  0  0  0
    7.8184  -13.9270   25.0098 C   0  0  2  0  0  0  0  0  0  0  0  0
    7.1228  -14.0791   23.7490 N   0  0  0  0  0  0  0  0  0  0  0  0
    8.2407  -15.2415   25.5200 C   0  0  0  0  0  0  0  0  0  0  0  0
    7.3952  -16.1536   25.7112 O   0  0  0  0  0  0  0  0  0  0  0  0
   11.7064  -18.7173   26.0924 C   0  0  0  0  0  0  0  0  0  0  0  0
   11.2347  -17.3950   25.5957 C   0  0  1  0  0  0  0  0  0  0  0  0
   10.9718  -17.4437   24.2327 O   0  0  0  0  0  0  0  0  0  0  0  0
   10.0011  -16.8825   26.2815 C   0  0  2  0  0  0  0  0  0  0  0  0
    9.5999  -15.5701   25.8267 N   0  0  0  0  0  0  0  0  0  0  0  0
   10.1305  -16.9265   27.7685 C   0  0  0  0  0  0  0  0  0  0  0  0
   10.0040  -18.0876   28.4904 O   0  0  0  0  0  0  0  0  0  0  0  0
   10.3643  -15.8477   28.3623 O   0  0  0  0  0  0  0  0  0  0  0  0
  2  1  1  6
  2  3  1  0
  3  4  1  0
  5  2  1  0
  6  5  2  0
  8 10  1  0
  8  7  1  1
  9  8  1  0
 10 12  1  0
 10 11  1  6
 11  5  1  0
 12 18  1  0
 13 12  2  0
 15 14  1  1
 15 16  1  0
 17 18  1  6
 17 19  1  0
 17 15  1  0
 19 21  2  0
 19 20  1  0
M  END
$$$$
