CVT.pdb
     RDKit          3D

 21 20  0  0  1  0  0  0  0  0999 V2000
    7.9254  -13.5941   20.3806 N   0  0  0  0  0  0  0  0  0  0  0  0
    7.2008  -14.1481   21.5062 C   0  0  1  0  0  0  0  0  0  0  0  0
    6.9218  -15.6056   21.1691 C   0  0  0  0  0  0  0  0  0  0  0  0
    5.6865  -15.7531   19.8543 S   0  0  0  0  0  0  0  0  0  0  0  0
    7.9753  -14.0256   22.7640 C   0  0  0  0  0  0  0  0  0  0  0  0
    9.2246  -14.0478   22.7215 O   0  0  0  0  0  0  0  0  0  0  0  0
    7.4665  -11.4456   25.4915 C   0  0  0  0  0  0  0  0  0  0  0  0
    7.2883  -12.8090   26.1220 C   0  0  1  0  0  0  0  0  0  0  0  0
    5.8249  -13.0790   26.2386 C   0  0  0  0  0  0  0  0  0  0  0  0
    7.9860  -13.8860   25.2794 C   0  0  2  0  0  0  0  0  0  0  0  0
    7.3193  -13.8857   23.9941 N   0  0  0  0  0  0  0  0  0  0  0  0
    7.8606  -15.2064   25.9177 C   0  0  0  0  0  0  0  0  0  0  0  0
    6.8430  -15.9186   25.7160 O   0  0  0  0  0  0  0  0  0  0  0  0
   10.9763  -16.6324   24.8775 C   0  0  0  0  0  0  0  0  0  0  0  0
    9.8345  -17.4786   25.3227 C   0  0  1  0  0  0  0  0  0  0  0  0
   10.1901  -18.8212   25.3373 O   0  0  0  0  0  0  0  0  0  0  0  0
    9.3029  -17.1313   26.6834 C   0  0  2  0  0  0  0  0  0  0  0  0
    8.8538  -15.7610   26.7869 N   0  0  0  0  0  0  0  0  0  0  0  0
   10.2760  -17.4676   27.7650 C   0  0  0  0  0  0  0  0  0  0  0  0
   10.5306  -18.7580   28.1592 O   0  0  0  0  0  0  0  0  0  0  0  0
   10.8740  -16.5177   28.3227 O   0  0  0  0  0  0  0  0  0  0  0  0
  2  1  1  6
  2  3  1  0
  3  4  1  0
  5  2  1  0
  6  5  2  0
  8 10  1  0
  8  7  1  6
  9  8  1  0
 10 12  1  0
 10 11  1  6
 11  5  1  0
 12 18  1  0
 13 12  2  0
 15 14  1  1
 15 16  1  0
 17 18  1  6
 17 19  1  0
 17 15  1  0
 19 21  2  0
 19 20  1  0
M  END
$$$$
