CVT.pdb
     RDKit          3D

 21 20  0  0  1  0  0  0  0  0999 V2000
    9.4934  -17.6036   16.5478 N   0  0  0  0  0  0  0  0  0  0  0  0
    8.5247  -17.4391   17.6126 C   0  0  1  0  0  0  0  0  0  0  0  0
    8.1860  -18.8359   18.1122 C   0  0  0  0  0  0  0  0  0  0  0  0
    6.9416  -18.7824   19.4256 S   0  0  0  0  0  0  0  0  0  0  0  0
    9.0578  -16.5914   18.7054 C   0  0  0  0  0  0  0  0  0  0  0  0
   10.2618  -16.6887   19.0277 O   0  0  0  0  0  0  0  0  0  0  0  0
    7.7760  -13.0928   22.0261 C   0  0  0  0  0  0  0  0  0  0  0  0
    7.5410  -13.8526   20.7394 C   0  0  1  0  0  0  0  0  0  0  0  0
    7.5544  -12.8736   19.6128 C   0  0  0  0  0  0  0  0  0  0  0  0
    8.6154  -14.9326   20.5491 C   0  0  2  0  0  0  0  0  0  0  0  0
    8.2247  -15.6862   19.3761 N   0  0  0  0  0  0  0  0  0  0  0  0
    8.6770  -15.8161   21.7247 C   0  0  0  0  0  0  0  0  0  0  0  0
    7.8553  -16.7599   21.8575 O   0  0  0  0  0  0  0  0  0  0  0  0
   11.2042  -18.9821   23.7745 C   0  0  0  0  0  0  0  0  0  0  0  0
   10.6596  -17.9110   22.8946 C   0  0  1  0  0  0  0  0  0  0  0  0
    9.7122  -18.4248   22.0185 O   0  0  0  0  0  0  0  0  0  0  0  0
   10.0265  -16.7677   23.6339 C   0  0  2  0  0  0  0  0  0  0  0  0
    9.6441  -15.6729   22.7705 N   0  0  0  0  0  0  0  0  0  0  0  0
   10.8783  -16.2953   24.7658 C   0  0  0  0  0  0  0  0  0  0  0  0
   11.6124  -15.1363   24.7087 O   0  0  0  0  0  0  0  0  0  0  0  0
   10.9100  -17.0008   25.8014 O   0  0  0  0  0  0  0  0  0  0  0  0
  2  1  1  6
  2  3  1  0
  3  4  1  0
  5  2  1  0
  6  5  2  0
  8 10  1  0
  8  7  1  1
  9  8  1  0
 10 12  1  0
 10 11  1  6
 11  5  1  0
 12 18  1  0
 13 12  2  0
 15 14  1  1
 15 16  1  0
 17 18  1  6
 17 19  1  0
 17 15  1  0
 19 21  2  0
 19 20  1  0
M  END
$$$$
