CVT.pdb
     RDKit          3D

 21 20  0  0  1  0  0  0  0  0999 V2000
    7.7749  -14.0644   20.1555 N   0  0  0  0  0  0  0  0  0  0  0  0
    7.0357  -14.6178   21.2720 C   0  0  1  0  0  0  0  0  0  0  0  0
    6.8082  -16.0890   20.9567 C   0  0  0  0  0  0  0  0  0  0  0  0
    5.9032  -16.9162   22.2883 S   0  0  0  0  0  0  0  0  0  0  0  0
    7.7713  -14.4485   22.5476 C   0  0  0  0  0  0  0  0  0  0  0  0
    9.0177  -14.5447   22.5561 O   0  0  0  0  0  0  0  0  0  0  0  0
    7.3357  -12.8343   27.2130 C   0  0  0  0  0  0  0  0  0  0  0  0
    6.7244  -13.1850   25.8746 C   0  0  1  0  0  0  0  0  0  0  0  0
    6.3357  -11.9145   25.1944 C   0  0  0  0  0  0  0  0  0  0  0  0
    7.7182  -13.9886   25.0239 C   0  0  2  0  0  0  0  0  0  0  0  0
    7.0817  -14.1826   23.7379 N   0  0  0  0  0  0  0  0  0  0  0  0
    8.0054  -15.2888   25.6512 C   0  0  0  0  0  0  0  0  0  0  0  0
    7.0682  -16.0710   25.9565 O   0  0  0  0  0  0  0  0  0  0  0  0
    9.8478  -18.2577   24.3503 C   0  0  0  0  0  0  0  0  0  0  0  0
   10.4523  -17.9170   25.6680 C   0  0  1  0  0  0  0  0  0  0  0  0
   11.6737  -17.2768   25.5012 O   0  0  0  0  0  0  0  0  0  0  0  0
    9.5920  -17.0425   26.5339 C   0  0  2  0  0  0  0  0  0  0  0  0
    9.3286  -15.7460   25.9509 N   0  0  0  0  0  0  0  0  0  0  0  0
   10.1400  -16.9152   27.9172 C   0  0  0  0  0  0  0  0  0  0  0  0
   10.1929  -17.9702   28.7944 O   0  0  0  0  0  0  0  0  0  0  0  0
   10.5637  -15.7900   28.2717 O   0  0  0  0  0  0  0  0  0  0  0  0
  2  1  1  6
  2  3  1  0
  3  4  1  0
  5  2  1  0
  6  5  2  0
  8 10  1  0
  8  7  1  1
  9  8  1  0
 10 12  1  0
 10 11  1  6
 11  5  1  0
 12 18  1  0
 13 12  2  0
 15 14  1  6
 15 16  1  0
 17 18  1  6
 17 19  1  0
 17 15  1  0
 19 21  2  0
 19 20  1  0
M  END
$$$$
