CVT.pdb
     RDKit          3D

 21 20  0  0  1  0  0  0  0  0999 V2000
    8.9945  -17.1413   16.0768 N   0  0  0  0  0  0  0  0  0  0  0  0
    8.1446  -16.9437   17.2334 C   0  0  1  0  0  0  0  0  0  0  0  0
    7.5700  -18.3072   17.5890 C   0  0  0  0  0  0  0  0  0  0  0  0
    6.4475  -18.2004   19.0051 S   0  0  0  0  0  0  0  0  0  0  0  0
    8.9001  -16.3653   18.3700 C   0  0  0  0  0  0  0  0  0  0  0  0
   10.0799  -16.7264   18.5714 O   0  0  0  0  0  0  0  0  0  0  0  0
    8.1201  -12.5701   19.3082 C   0  0  0  0  0  0  0  0  0  0  0  0
    8.1784  -13.4430   20.5422 C   0  0  1  0  0  0  0  0  0  0  0  0
    6.7797  -13.7831   20.9370 C   0  0  0  0  0  0  0  0  0  0  0  0
    9.0008  -14.7096   20.2661 C   0  0  2  0  0  0  0  0  0  0  0  0
    8.3030  -15.4211   19.2157 N   0  0  0  0  0  0  0  0  0  0  0  0
    9.0891  -15.5448   21.4749 C   0  0  0  0  0  0  0  0  0  0  0  0
    8.0603  -16.0938   21.9478 O   0  0  0  0  0  0  0  0  0  0  0  0
    9.8504  -18.7907   22.0310 C   0  0  0  0  0  0  0  0  0  0  0  0
   10.8195  -18.0812   22.9116 C   0  0  1  0  0  0  0  0  0  0  0  0
   12.0647  -17.9886   22.3031 O   0  0  0  0  0  0  0  0  0  0  0  0
   10.3971  -16.6943   23.3024 C   0  0  2  0  0  0  0  0  0  0  0  0
   10.3113  -15.7872   22.1798 N   0  0  0  0  0  0  0  0  0  0  0  0
   11.2555  -16.1350   24.3887 C   0  0  0  0  0  0  0  0  0  0  0  0
   11.2426  -16.6252   25.6713 O   0  0  0  0  0  0  0  0  0  0  0  0
   12.0115  -15.1789   24.0962 O   0  0  0  0  0  0  0  0  0  0  0  0
  2  1  1  6
  2  3  1  0
  3  4  1  0
  5  2  1  0
  6  5  2  0
  8 10  1  0
  8  7  1  6
  9  8  1  0
 10 12  1  0
 10 11  1  6
 11  5  1  0
 12 18  1  0
 13 12  2  0
 15 14  1  6
 15 16  1  0
 17 18  1  6
 17 19  1  0
 17 15  1  0
 19 21  2  0
 19 20  1  0
M  END
$$$$
