CVT.pdb
     RDKit          3D

 21 20  0  0  1  0  0  0  0  0999 V2000
    7.6141  -14.0850   20.2210 N   0  0  0  0  0  0  0  0  0  0  0  0
    6.8941  -14.5631   21.3838 C   0  0  1  0  0  0  0  0  0  0  0  0
    6.5207  -16.0106   21.0994 C   0  0  0  0  0  0  0  0  0  0  0  0
    5.6270  -16.7463   22.4910 S   0  0  0  0  0  0  0  0  0  0  0  0
    7.7135  -14.4506   22.6139 C   0  0  0  0  0  0  0  0  0  0  0  0
    8.9490  -14.6295   22.5482 O   0  0  0  0  0  0  0  0  0  0  0  0
    7.5952  -12.9565   27.3538 C   0  0  0  0  0  0  0  0  0  0  0  0
    6.9209  -13.1913   26.0203 C   0  0  1  0  0  0  0  0  0  0  0  0
    6.5835  -11.8625   25.4301 C   0  0  0  0  0  0  0  0  0  0  0  0
    7.8383  -13.9958   25.0886 C   0  0  2  0  0  0  0  0  0  0  0  0
    7.1146  -14.1464   23.8435 N   0  0  0  0  0  0  0  0  0  0  0  0
    8.1366  -15.3160   25.6670 C   0  0  0  0  0  0  0  0  0  0  0  0
    7.2043  -16.1017   25.9783 O   0  0  0  0  0  0  0  0  0  0  0  0
    9.8709  -18.0961   24.0138 C   0  0  0  0  0  0  0  0  0  0  0  0
   10.5437  -17.9243   25.3313 C   0  0  1  0  0  0  0  0  0  0  0  0
   11.7706  -17.2906   25.1811 O   0  0  0  0  0  0  0  0  0  0  0  0
    9.7452  -17.1431   26.3346 C   0  0  2  0  0  0  0  0  0  0  0  0
    9.4654  -15.7895   25.9108 N   0  0  0  0  0  0  0  0  0  0  0  0
   10.3725  -17.1698   27.6895 C   0  0  0  0  0  0  0  0  0  0  0  0
   10.4455  -18.3100   28.4511 O   0  0  0  0  0  0  0  0  0  0  0  0
   10.8457  -16.0962   28.1306 O   0  0  0  0  0  0  0  0  0  0  0  0
  2  1  1  6
  2  3  1  0
  3  4  1  0
  5  2  1  0
  6  5  2  0
  8 10  1  0
  8  7  1  1
  9  8  1  0
 10 12  1  0
 10 11  1  6
 11  5  1  0
 12 18  1  0
 13 12  2  0
 15 14  1  6
 15 16  1  0
 17 18  1  6
 17 19  1  0
 17 15  1  0
 19 21  2  0
 19 20  1  0
M  END
$$$$
