CVT.pdb
     RDKit          3D

 21 20  0  0  1  0  0  0  0  0999 V2000
    7.3793  -14.6971   20.4362 N   0  0  0  0  0  0  0  0  0  0  0  0
    6.7891  -15.0628   21.7078 C   0  0  1  0  0  0  0  0  0  0  0  0
    6.5835  -16.5701   21.6745 C   0  0  0  0  0  0  0  0  0  0  0  0
    5.2712  -17.0308   20.5160 S   0  0  0  0  0  0  0  0  0  0  0  0
    7.6542  -14.6628   22.8430 C   0  0  0  0  0  0  0  0  0  0  0  0
    8.8955  -14.6485   22.6950 O   0  0  0  0  0  0  0  0  0  0  0  0
    7.6092  -13.0060   27.5403 C   0  0  0  0  0  0  0  0  0  0  0  0
    6.9445  -13.2303   26.2002 C   0  0  1  0  0  0  0  0  0  0  0  0
    6.6379  -11.8963   25.6048 C   0  0  0  0  0  0  0  0  0  0  0  0
    7.8565  -14.0529   25.2790 C   0  0  2  0  0  0  0  0  0  0  0  0
    7.0921  -14.3024   24.0748 N   0  0  0  0  0  0  0  0  0  0  0  0
    8.2285  -15.3253   25.9186 C   0  0  0  0  0  0  0  0  0  0  0  0
    7.3455  -16.1678   26.2248 O   0  0  0  0  0  0  0  0  0  0  0  0
   11.4819  -18.9674   26.4158 C   0  0  0  0  0  0  0  0  0  0  0  0
   11.0596  -17.6280   25.9201 C   0  0  1  0  0  0  0  0  0  0  0  0
   10.6577  -17.6962   24.5923 O   0  0  0  0  0  0  0  0  0  0  0  0
    9.9419  -17.0040   26.7049 C   0  0  2  0  0  0  0  0  0  0  0  0
    9.5780  -15.6877   26.2300 N   0  0  0  0  0  0  0  0  0  0  0  0
   10.2275  -16.9933   28.1705 C   0  0  0  0  0  0  0  0  0  0  0  0
    9.9224  -18.0491   28.9937 O   0  0  0  0  0  0  0  0  0  0  0  0
   10.7683  -15.9685   28.6485 O   0  0  0  0  0  0  0  0  0  0  0  0
  2  1  1  6
  2  3  1  0
  3  4  1  0
  5  2  1  0
  6  5  2  0
  8 10  1  0
  8  7  1  1
  9  8  1  0
 10 12  1  0
 10 11  1  6
 11  5  1  0
 12 18  1  0
 13 12  2  0
 15 14  1  1
 15 16  1  0
 17 18  1  6
 17 19  1  0
 17 15  1  0
 19 21  2  0
 19 20  1  0
M  END
$$$$
