CVT.pdb
     RDKit          3D

 21 20  0  0  1  0  0  0  0  0999 V2000
    7.6242  -14.6616   20.3883 N   0  0  0  0  0  0  0  0  0  0  0  0
    6.8387  -14.7050   21.6049 C   0  0  1  0  0  0  0  0  0  0  0  0
    6.1538  -16.0635   21.6323 C   0  0  0  0  0  0  0  0  0  0  0  0
    7.3616  -17.4089   21.7186 S   0  0  0  0  0  0  0  0  0  0  0  0
    7.6851  -14.5049   22.8051 C   0  0  0  0  0  0  0  0  0  0  0  0
    8.9218  -14.6674   22.7195 O   0  0  0  0  0  0  0  0  0  0  0  0
    7.5561  -13.0328   27.5692 C   0  0  0  0  0  0  0  0  0  0  0  0
    6.9221  -13.1749   26.2032 C   0  0  1  0  0  0  0  0  0  0  0  0
    6.6249  -11.8072   25.6846 C   0  0  0  0  0  0  0  0  0  0  0  0
    7.8568  -13.9376   25.2537 C   0  0  2  0  0  0  0  0  0  0  0  0
    7.1106  -14.1366   24.0289 N   0  0  0  0  0  0  0  0  0  0  0  0
    8.2392  -15.2354   25.8334 C   0  0  0  0  0  0  0  0  0  0  0  0
    7.3688  -16.1166   26.0552 O   0  0  0  0  0  0  0  0  0  0  0  0
   11.5650  -18.8165   26.3313 C   0  0  0  0  0  0  0  0  0  0  0  0
   11.1104  -17.4837   25.8465 C   0  0  1  0  0  0  0  0  0  0  0  0
   10.7327  -17.5456   24.5112 O   0  0  0  0  0  0  0  0  0  0  0  0
    9.9614  -16.9046   26.6205 C   0  0  2  0  0  0  0  0  0  0  0  0
    9.5853  -15.5809   26.1771 N   0  0  0  0  0  0  0  0  0  0  0  0
   10.2089  -16.9349   28.0928 C   0  0  0  0  0  0  0  0  0  0  0  0
    9.9955  -18.0546   28.8583 O   0  0  0  0  0  0  0  0  0  0  0  0
   10.6286  -15.8840   28.6319 O   0  0  0  0  0  0  0  0  0  0  0  0
  2  1  1  6
  2  3  1  0
  3  4  1  0
  5  2  1  0
  6  5  2  0
  8 10  1  0
  8  7  1  1
  9  8  1  0
 10 12  1  0
 10 11  1  6
 11  5  1  0
 12 18  1  0
 13 12  2  0
 15 14  1  1
 15 16  1  0
 17 18  1  6
 17 19  1  0
 17 15  1  0
 19 21  2  0
 19 20  1  0
M  END
$$$$
