RCA.pdb
     RDKit          3D

 23 22  0  0  1  0  0  0  0  0999 V2000
   16.5817  -23.5670   -7.3398 N   0  0  0  0  0  0  0  0  0  0  0  0
   17.3910  -24.4885   -6.6310 C   0  0  0  0  0  0  0  0  0  0  0  0
   16.8568  -25.1656   -5.6671 N   0  0  0  0  0  0  0  0  0  0  0  0
   18.7477  -24.6374   -6.9981 N   0  0  0  0  0  0  0  0  0  0  0  0
   19.2795  -23.8662   -8.1266 C   0  0  0  0  0  0  0  0  0  0  0  0
   19.6109  -22.5175   -7.5950 C   0  0  0  0  0  0  0  0  0  0  0  0
   20.1353  -21.6204   -8.6707 C   0  0  0  0  0  0  0  0  0  0  0  0
   21.3842  -22.1759   -9.2402 C   0  0  2  0  0  0  0  0  0  0  0  0
   22.3025  -22.4482   -8.1572 N   0  0  0  0  0  0  0  0  0  0  0  0
   22.0568  -21.2633  -10.2015 C   0  0  0  0  0  0  0  0  0  0  0  0
   21.4630  -20.3841  -10.8668 O   0  0  0  0  0  0  0  0  0  0  0  0
   17.3599  -25.8470   -5.0759 N   0  0  0  0  0  0  0  0  0  0  0  0
   23.4488  -21.3722  -10.3961 C   0  0  1  0  0  0  0  0  0  0  0  0
   24.2403  -20.5304  -11.2431 C   0  0  0  0  0  0  0  0  0  0  0  0
   25.6935  -20.4798  -10.8780 S   0  0  0  0  0  0  0  0  0  0  0  0
   25.9640  -20.0194   -9.1486 C   0  0  0  0  0  0  0  0  0  0  0  0
   24.0208  -20.9080  -12.6419 O   0  0  0  0  0  0  0  0  0  0  0  0
   24.2659  -22.0685  -13.0438 C   0  0  0  0  0  0  0  0  0  0  0  0
   21.9248  -20.8234  -15.1989 C   0  0  2  0  0  0  0  0  0  0  0  0
   23.3287  -20.3059  -14.9483 N   0  0  0  0  0  0  0  0  0  0  0  0
   23.5250  -19.9644  -13.5715 C   0  0  0  0  0  0  0  0  0  0  0  0
   23.5418  -19.1020  -15.7831 O   0  0  0  0  0  0  0  0  0  0  0  0
   23.5402  -19.1596  -17.1667 O   0  0  0  0  0  0  0  0  0  0  0  0
  2  1  1  0
  2  4  1  0
  3  2  2  0
  5  4  1  0
  6  5  1  0
  7  6  1  0
  7  8  1  0
  8 10  1  0
  8  9  1  1
 10 12  1  0
 11 10  2  0
 12 13  1  0
 13 16  1  0
 13 14  1  1
 15 14  1  0
 16 17  2  0
 16 20  1  0
 19 18  1  1
 19 21  1  0
 20 19  1  0
 21 23  2  0
 21 22  1  0
M  END
$$$$
