RCA.pdb
     RDKit          3D

 23 22  0  0  1  0  0  0  0  0999 V2000
   18.5177  -22.8663  -13.4440 N   0  0  0  0  0  0  0  0  0  0  0  0
   18.0548  -22.0318  -14.4908 C   0  0  0  0  0  0  0  0  0  0  0  0
   16.7816  -21.8363  -14.6077 N   0  0  0  0  0  0  0  0  0  0  0  0
   18.9937  -21.4434  -15.3683 N   0  0  0  0  0  0  0  0  0  0  0  0
   20.3773  -21.2503  -14.9218 C   0  0  0  0  0  0  0  0  0  0  0  0
   20.3998  -19.9710  -14.1640 C   0  0  0  0  0  0  0  0  0  0  0  0
   21.7973  -19.5655  -13.8187 C   0  0  0  0  0  0  0  0  0  0  0  0
   22.7332  -19.9839  -14.8872 C   0  0  2  0  0  0  0  0  0  0  0  0
   23.6406  -20.9698  -14.3441 N   0  0  0  0  0  0  0  0  0  0  0  0
   23.5398  -18.8658  -15.4425 C   0  0  0  0  0  0  0  0  0  0  0  0
   23.0731  -17.7405  -15.7324 O   0  0  0  0  0  0  0  0  0  0  0  0
   16.3372  -21.2752  -15.3524 N   0  0  0  0  0  0  0  0  0  0  0  0
   24.9186  -19.0562  -15.6668 C   0  0  1  0  0  0  0  0  0  0  0  0
   25.8338  -18.0556  -16.1293 C   0  0  0  0  0  0  0  0  0  0  0  0
   27.2038  -18.1476  -15.5277 S   0  0  0  0  0  0  0  0  0  0  0  0
   27.1684  -18.2498  -13.7210 C   0  0  0  0  0  0  0  0  0  0  0  0
   25.8572  -18.0614  -17.5945 O   0  0  0  0  0  0  0  0  0  0  0  0
   25.8949  -19.1365  -18.2357 C   0  0  0  0  0  0  0  0  0  0  0  0
   25.5427  -15.4471  -20.2936 C   0  0  2  0  0  0  0  0  0  0  0  0
   25.8444  -16.8310  -19.7501 N   0  0  0  0  0  0  0  0  0  0  0  0
   25.8376  -16.8464  -18.3182 C   0  0  0  0  0  0  0  0  0  0  0  0
   27.1806  -17.2452  -20.2346 O   0  0  0  0  0  0  0  0  0  0  0  0
   27.3590  -17.8452  -21.4699 O   0  0  0  0  0  0  0  0  0  0  0  0
  2  1  1  0
  2  4  1  0
  3  2  2  0
  5  4  1  0
  6  5  1  0
  7  6  1  0
  7  8  1  0
  8 10  1  0
  8  9  1  1
 10 12  1  0
 11 10  2  0
 12 13  1  0
 13 16  1  0
 13 14  1  6
 15 14  1  0
 16 17  2  0
 16 20  1  0
 19 18  1  6
 19 21  1  0
 20 19  1  0
 21 23  2  0
 21 22  1  0
M  END
$$$$
