RCA.pdb
     RDKit          3D

 23 22  0  0  1  0  0  0  0  0999 V2000
   27.7041  -14.3333  -16.6676 N   0  0  0  0  0  0  0  0  0  0  0  0
   26.3353  -14.6929  -16.6073 C   0  0  0  0  0  0  0  0  0  0  0  0
   25.4891  -14.0246  -17.3216 N   0  0  0  0  0  0  0  0  0  0  0  0
   25.9412  -15.7640  -15.7736 N   0  0  0  0  0  0  0  0  0  0  0  0
   26.9652  -16.6090  -15.1506 C   0  0  0  0  0  0  0  0  0  0  0  0
   27.3014  -17.6635  -16.1438 C   0  0  0  0  0  0  0  0  0  0  0  0
   26.4680  -18.8889  -15.9425 C   0  0  0  0  0  0  0  0  0  0  0  0
   27.0095  -19.7021  -14.8297 C   0  0  2  0  0  0  0  0  0  0  0  0
   28.0086  -20.6019  -15.3612 N   0  0  0  0  0  0  0  0  0  0  0  0
   25.9792  -20.5130  -14.1297 C   0  0  0  0  0  0  0  0  0  0  0  0
   25.3635  -21.4692  -14.6540 O   0  0  0  0  0  0  0  0  0  0  0  0
   24.4636  -14.1423  -17.2842 N   0  0  0  0  0  0  0  0  0  0  0  0
   25.6551  -20.2090  -12.7918 C   0  0  2  0  0  0  0  0  0  0  0  0
   24.6917  -20.9022  -11.9893 C   0  0  0  0  0  0  0  0  0  0  0  0
   24.9574  -20.8395  -10.5152 S   0  0  0  0  0  0  0  0  0  0  0  0
   26.6572  -21.2944  -10.0914 C   0  0  0  0  0  0  0  0  0  0  0  0
   23.3463  -20.4409  -12.3422 O   0  0  0  0  0  0  0  0  0  0  0  0
   23.0004  -19.2524  -12.1523 C   0  0  0  0  0  0  0  0  0  0  0  0
   20.6989  -21.4627  -14.6442 C   0  0  2  0  0  0  0  0  0  0  0  0
   21.1001  -20.8932  -13.2965 N   0  0  0  0  0  0  0  0  0  0  0  0
   22.4060  -21.3334  -12.9076 C   0  0  0  0  0  0  0  0  0  0  0  0
   20.1152  -21.3399  -12.2855 O   0  0  0  0  0  0  0  0  0  0  0  0
   18.8580  -20.7680  -12.1839 O   0  0  0  0  0  0  0  0  0  0  0  0
  2  1  1  0
  2  4  1  0
  3  2  2  0
  5  4  1  0
  6  5  1  0
  7  6  1  0
  7  8  1  0
  8 10  1  0
  8  9  1  6
 10 12  1  0
 11 10  2  0
 12 13  1  0
 13 16  1  0
 13 14  1  6
 15 14  1  0
 16 17  2  0
 16 20  1  0
 19 18  1  6
 19 21  1  0
 20 19  1  0
 21 23  2  0
 21 22  1  0
M  END
$$$$
