RCA.pdb
     RDKit          3D

 23 22  0  0  1  0  0  0  0  0999 V2000
   21.5062  -21.7140   -8.4441 N   0  0  0  0  0  0  0  0  0  0  0  0
   21.7804  -21.2741   -9.7623 C   0  0  0  0  0  0  0  0  0  0  0  0
   20.9068  -21.5100  -10.6864 N   0  0  0  0  0  0  0  0  0  0  0  0
   22.9925  -20.5956  -10.0233 N   0  0  0  0  0  0  0  0  0  0  0  0
   23.9625  -20.4070   -8.9396 C   0  0  0  0  0  0  0  0  0  0  0  0
   25.1611  -21.2083   -9.3040 C   0  0  0  0  0  0  0  0  0  0  0  0
   26.1332  -20.4029  -10.1059 C   0  0  0  0  0  0  0  0  0  0  0  0
   26.0810  -20.8034  -11.5306 C   0  0  2  0  0  0  0  0  0  0  0  0
   26.7261  -22.0897  -11.6709 N   0  0  0  0  0  0  0  0  0  0  0  0
   26.7553  -19.8434  -12.4432 C   0  0  0  0  0  0  0  0  0  0  0  0
   27.7865  -19.1983  -12.1452 O   0  0  0  0  0  0  0  0  0  0  0  0
   21.0361  -21.2955  -11.6885 N   0  0  0  0  0  0  0  0  0  0  0  0
   26.2226  -19.6261  -13.7302 C   0  0  2  0  0  0  0  0  0  0  0  0
   26.7779  -18.7594  -14.7268 C   0  0  0  0  0  0  0  0  0  0  0  0
   27.4854  -19.4727  -15.8395 S   0  0  0  0  0  0  0  0  0  0  0  0
   28.0948  -18.3446  -17.1169 C   0  0  0  0  0  0  0  0  0  0  0  0
   25.7370  -17.8481  -15.2100 O   0  0  0  0  0  0  0  0  0  0  0  0
   24.6677  -18.2866  -15.6923 C   0  0  0  0  0  0  0  0  0  0  0  0
   25.2751  -14.0987  -15.2635 C   0  0  2  0  0  0  0  0  0  0  0  0
   24.8826  -15.5397  -15.5295 N   0  0  0  0  0  0  0  0  0  0  0  0
   25.9198  -16.4474  -15.1410 C   0  0  0  0  0  0  0  0  0  0  0  0
   24.6178  -15.6951  -16.9778 O   0  0  0  0  0  0  0  0  0  0  0  0
   23.3487  -15.5456  -17.5113 O   0  0  0  0  0  0  0  0  0  0  0  0
  2  1  1  0
  2  4  1  0
  3  2  2  0
  5  4  1  0
  6  5  1  0
  7  6  1  0
  7  8  1  0
  8 10  1  0
  8  9  1  1
 10 12  1  0
 11 10  2  0
 12 13  1  0
 13 16  1  0
 13 14  1  6
 15 14  1  0
 16 17  2  0
 16 20  1  0
 19 18  1  1
 19 21  1  0
 20 19  1  0
 21 23  2  0
 21 22  1  0
M  END
$$$$
