RCA.pdb
     RDKit          3D

 23 22  0  0  1  0  0  0  0  0999 V2000
   12.4026  -22.5857   -4.1269 N   0  0  0  0  0  0  0  0  0  0  0  0
   12.4117  -22.9626   -2.7615 C   0  0  0  0  0  0  0  0  0  0  0  0
   11.2864  -23.0074   -2.1256 N   0  0  0  0  0  0  0  0  0  0  0  0
   13.6430  -23.2756   -2.1421 N   0  0  0  0  0  0  0  0  0  0  0  0
   14.8889  -23.1459   -2.9050 C   0  0  0  0  0  0  0  0  0  0  0  0
   15.4146  -24.5247   -3.0889 C   0  0  0  0  0  0  0  0  0  0  0  0
   16.6816  -24.5245   -3.8835 C   0  0  0  0  0  0  0  0  0  0  0  0
   17.0908  -25.9121   -4.1995 C   0  0  2  0  0  0  0  0  0  0  0  0
   17.7002  -26.4913   -3.0232 N   0  0  0  0  0  0  0  0  0  0  0  0
   18.0630  -26.0048   -5.3199 C   0  0  0  0  0  0  0  0  0  0  0  0
   19.3065  -25.9733   -5.1742 O   0  0  0  0  0  0  0  0  0  0  0  0
   11.1838  -23.2396   -1.1243 N   0  0  0  0  0  0  0  0  0  0  0  0
   17.5834  -26.1371   -6.6390 C   0  0  2  0  0  0  0  0  0  0  0  0
   18.3942  -26.1941   -7.8189 C   0  0  0  0  0  0  0  0  0  0  0  0
   18.4173  -27.5359   -8.4870 S   0  0  0  0  0  0  0  0  0  0  0  0
   19.1802  -28.8154   -7.4591 C   0  0  0  0  0  0  0  0  0  0  0  0
   18.0005  -25.1152   -8.7291 O   0  0  0  0  0  0  0  0  0  0  0  0
   16.8032  -24.7636   -8.8345 C   0  0  0  0  0  0  0  0  0  0  0  0
   19.8390  -22.7157  -10.9946 C   0  0  2  0  0  0  0  0  0  0  0  0
   18.6142  -23.3524  -10.3653 N   0  0  0  0  0  0  0  0  0  0  0  0
   18.9701  -24.4453   -9.5111 C   0  0  0  0  0  0  0  0  0  0  0  0
   17.7336  -23.8478  -11.4474 O   0  0  0  0  0  0  0  0  0  0  0  0
   17.5337  -25.2001  -11.6687 O   0  0  0  0  0  0  0  0  0  0  0  0
  2  1  1  0
  2  4  1  0
  3  2  2  0
  5  4  1  0
  6  5  1  0
  7  6  1  0
  7  8  1  0
  8 10  1  0
  8  9  1  1
 10 12  1  0
 11 10  2  0
 12 13  1  0
 13 16  1  0
 13 14  1  1
 15 14  1  0
 16 17  2  0
 16 20  1  0
 19 18  1  1
 19 21  1  0
 20 19  1  0
 21 23  2  0
 21 22  1  0
M  END
$$$$
