RCA.pdb
     RDKit          3D

 23 22  0  0  1  0  0  0  0  0999 V2000
   20.9990  -10.7423  -24.1291 N   0  0  0  0  0  0  0  0  0  0  0  0
   20.3812  -11.9534  -23.7314 C   0  0  0  0  0  0  0  0  0  0  0  0
   20.3806  -12.9472  -24.5592 N   0  0  0  0  0  0  0  0  0  0  0  0
   19.7892  -12.0359  -22.4506 N   0  0  0  0  0  0  0  0  0  0  0  0
   19.9287  -10.9137  -21.5168 C   0  0  0  0  0  0  0  0  0  0  0  0
   20.9399  -11.3289  -20.5087 C   0  0  0  0  0  0  0  0  0  0  0  0
   20.4160  -11.1789  -19.1159 C   0  0  0  0  0  0  0  0  0  0  0  0
   21.4855  -11.4601  -18.1310 C   0  0  2  0  0  0  0  0  0  0  0  0
   21.6341  -12.8931  -18.0096 N   0  0  0  0  0  0  0  0  0  0  0  0
   21.2103  -10.9053  -16.7799 C   0  0  0  0  0  0  0  0  0  0  0  0
   20.3819  -11.3924  -15.9769 O   0  0  0  0  0  0  0  0  0  0  0  0
   19.9913  -13.8824  -24.3573 N   0  0  0  0  0  0  0  0  0  0  0  0
   21.9110   -9.7602  -16.3495 C   0  0  1  0  0  0  0  0  0  0  0  0
   21.7375   -9.1015  -15.0890 C   0  0  0  0  0  0  0  0  0  0  0  0
   22.6471   -9.5957  -14.0047 S   0  0  0  0  0  0  0  0  0  0  0  0
   23.6843  -10.9794  -14.5390 C   0  0  0  0  0  0  0  0  0  0  0  0
   21.8248   -7.6519  -15.2845 O   0  0  0  0  0  0  0  0  0  0  0  0
   22.7397   -7.1471  -15.9748 C   0  0  0  0  0  0  0  0  0  0  0  0
   19.5812   -4.7241  -14.5635 C   0  0  2  0  0  0  0  0  0  0  0  0
   20.9027   -5.3756  -14.9250 N   0  0  0  0  0  0  0  0  0  0  0  0
   20.8726   -6.7886  -14.6943 C   0  0  0  0  0  0  0  0  0  0  0  0
   21.9680   -4.7699  -14.0944 O   0  0  0  0  0  0  0  0  0  0  0  0
   22.4237   -3.4805  -14.3123 O   0  0  0  0  0  0  0  0  0  0  0  0
  2  1  1  0
  2  4  1  0
  3  2  2  0
  5  4  1  0
  6  5  1  0
  7  6  1  0
  7  8  1  0
  8 10  1  0
  8  9  1  1
 10 12  1  0
 11 10  2  0
 12 13  1  0
 13 16  1  0
 13 14  1  1
 15 14  1  0
 16 17  2  0
 16 20  1  0
 19 18  1  6
 19 21  1  0
 20 19  1  0
 21 23  2  0
 21 22  1  0
M  END
$$$$
