RCA.pdb
     RDKit          3D

 23 22  0  0  1  0  0  0  0  0999 V2000
   21.1146  -22.4457   -7.9349 N   0  0  0  0  0  0  0  0  0  0  0  0
   20.5921  -21.9256   -9.1444 C   0  0  0  0  0  0  0  0  0  0  0  0
   19.4448  -22.3567   -9.5575 N   0  0  0  0  0  0  0  0  0  0  0  0
   21.3371  -20.9581   -9.8562 N   0  0  0  0  0  0  0  0  0  0  0  0
   22.7535  -21.2060  -10.1450 C   0  0  0  0  0  0  0  0  0  0  0  0
   23.5233  -20.5941   -9.0296 C   0  0  0  0  0  0  0  0  0  0  0  0
   24.8527  -20.0912   -9.4950 C   0  0  0  0  0  0  0  0  0  0  0  0
   25.5005  -21.0896  -10.3761 C   0  0  2  0  0  0  0  0  0  0  0  0
   26.7509  -21.4933   -9.7727 N   0  0  0  0  0  0  0  0  0  0  0  0
   25.7872  -20.5798  -11.7424 C   0  0  0  0  0  0  0  0  0  0  0  0
   26.6913  -19.7550  -12.0081 O   0  0  0  0  0  0  0  0  0  0  0  0
   19.0148  -22.1123  -10.4643 N   0  0  0  0  0  0  0  0  0  0  0  0
   25.0084  -21.0360  -12.8255 C   0  0  2  0  0  0  0  0  0  0  0  0
   25.1825  -20.6558  -14.1958 C   0  0  0  0  0  0  0  0  0  0  0  0
   25.1052  -21.7956  -15.1666 S   0  0  0  0  0  0  0  0  0  0  0  0
   24.1282  -21.3963  -16.6369 C   0  0  0  0  0  0  0  0  0  0  0  0
   24.2505  -19.5723  -14.5194 O   0  0  0  0  0  0  0  0  0  0  0  0
   23.0259  -19.6807  -14.2807 C   0  0  0  0  0  0  0  0  0  0  0  0
   24.5958  -16.0237  -15.7441 C   0  0  2  0  0  0  0  0  0  0  0  0
   23.8318  -17.2847  -15.3868 N   0  0  0  0  0  0  0  0  0  0  0  0
   24.7175  -18.3756  -15.1112 C   0  0  0  0  0  0  0  0  0  0  0  0
   22.9581  -17.6438  -16.5268 O   0  0  0  0  0  0  0  0  0  0  0  0
   21.6904  -17.1069  -16.6765 O   0  0  0  0  0  0  0  0  0  0  0  0
  2  1  1  0
  2  4  1  0
  3  2  2  0
  5  4  1  0
  6  5  1  0
  7  6  1  0
  7  8  1  0
  8 10  1  0
  8  9  1  1
 10 12  1  0
 11 10  2  0
 12 13  1  0
 13 16  1  0
 13 14  1  1
 15 14  1  0
 16 17  2  0
 16 20  1  0
 19 18  1  1
 19 21  1  0
 20 19  1  0
 21 23  2  0
 21 22  1  0
M  END
$$$$
