RCA.pdb
     RDKit          3D

 23 22  0  0  1  0  0  0  0  0999 V2000
   12.4437  -13.2800  -13.7133 N   0  0  0  0  0  0  0  0  0  0  0  0
   13.2599  -14.4226  -13.8993 C   0  0  0  0  0  0  0  0  0  0  0  0
   12.6961  -15.5863  -13.9283 N   0  0  0  0  0  0  0  0  0  0  0  0
   14.6556  -14.2550  -14.0463 N   0  0  0  0  0  0  0  0  0  0  0  0
   15.2413  -12.9178  -13.9057 C   0  0  0  0  0  0  0  0  0  0  0  0
   15.6019  -12.4704  -15.2772 C   0  0  0  0  0  0  0  0  0  0  0  0
   17.0338  -12.0456  -15.3542 C   0  0  0  0  0  0  0  0  0  0  0  0
   17.3442  -11.5261  -16.7057 C   0  0  2  0  0  0  0  0  0  0  0  0
   17.4020  -12.6405  -17.6250 N   0  0  0  0  0  0  0  0  0  0  0  0
   18.6363  -10.7953  -16.7795 C   0  0  0  0  0  0  0  0  0  0  0  0
   19.7237  -11.3241  -17.1058 O   0  0  0  0  0  0  0  0  0  0  0  0
   13.2009  -16.4843  -14.0039 N   0  0  0  0  0  0  0  0  0  0  0  0
   18.6692   -9.4207  -16.4682 C   0  0  2  0  0  0  0  0  0  0  0  0
   19.8114   -8.5649  -16.5929 C   0  0  0  0  0  0  0  0  0  0  0  0
   19.7238   -7.5797  -17.7195 S   0  0  0  0  0  0  0  0  0  0  0  0
   18.2860   -6.4887  -17.5837 C   0  0  0  0  0  0  0  0  0  0  0  0
   20.0807   -7.9261  -15.3019 O   0  0  0  0  0  0  0  0  0  0  0  0
   19.1565   -7.4153  -14.6287 C   0  0  0  0  0  0  0  0  0  0  0  0
   22.7244   -8.1262  -12.7571 C   0  0  2  0  0  0  0  0  0  0  0  0
   21.6706   -7.3214  -13.4943 N   0  0  0  0  0  0  0  0  0  0  0  0
   21.3969   -7.8732  -14.7871 C   0  0  0  0  0  0  0  0  0  0  0  0
   22.1635   -5.9344  -13.6521 O   0  0  0  0  0  0  0  0  0  0  0  0
   22.3339   -5.0891  -12.5684 O   0  0  0  0  0  0  0  0  0  0  0  0
  2  1  1  0
  2  4  1  0
  3  2  2  0
  5  4  1  0
  6  5  1  0
  7  6  1  0
  7  8  1  0
  8 10  1  0
  8  9  1  6
 10 12  1  0
 11 10  2  0
 12 13  1  0
 13 16  1  0
 13 14  1  6
 15 14  1  0
 16 17  2  0
 16 20  1  0
 19 18  1  1
 19 21  1  0
 20 19  1  0
 21 23  2  0
 21 22  1  0
M  END
$$$$
