RCA.pdb
     RDKit          3D

 23 22  0  0  1  0  0  0  0  0999 V2000
   24.7016  -23.8070  -14.2460 N   0  0  0  0  0  0  0  0  0  0  0  0
   23.7552  -24.0517  -15.2711 C   0  0  0  0  0  0  0  0  0  0  0  0
   24.1348  -24.7094  -16.3180 N   0  0  0  0  0  0  0  0  0  0  0  0
   22.4346  -23.5720  -15.1174 N   0  0  0  0  0  0  0  0  0  0  0  0
   22.0605  -22.8681  -13.8864 C   0  0  0  0  0  0  0  0  0  0  0  0
   21.5505  -23.9033  -12.9486 C   0  0  0  0  0  0  0  0  0  0  0  0
   20.2706  -23.4741  -12.3049 C   0  0  0  0  0  0  0  0  0  0  0  0
   19.4701  -24.6566  -11.9131 C   0  0  2  0  0  0  0  0  0  0  0  0
   18.8897  -25.2347  -13.1044 N   0  0  0  0  0  0  0  0  0  0  0  0
   18.3691  -24.3419  -10.9655 C   0  0  0  0  0  0  0  0  0  0  0  0
   17.3977  -23.6007  -11.2400 O   0  0  0  0  0  0  0  0  0  0  0  0
   23.5208  -24.9657  -17.1081 N   0  0  0  0  0  0  0  0  0  0  0  0
   18.3944  -24.8987   -9.6706 C   0  0  1  0  0  0  0  0  0  0  0  0
   17.4079  -24.6878   -8.6532 C   0  0  0  0  0  0  0  0  0  0  0  0
   15.9954  -24.8917   -9.1121 S   0  0  0  0  0  0  0  0  0  0  0  0
   15.0649  -23.3430   -9.2194 C   0  0  0  0  0  0  0  0  0  0  0  0
   17.7438  -25.4967   -7.4784 O   0  0  0  0  0  0  0  0  0  0  0  0
   18.1958  -26.6581   -7.6015 C   0  0  0  0  0  0  0  0  0  0  0  0
   17.6116  -24.9860   -3.7363 C   0  0  2  0  0  0  0  0  0  0  0  0
   17.8140  -25.7794   -5.0134 N   0  0  0  0  0  0  0  0  0  0  0  0
   17.5636  -24.9794   -6.1744 C   0  0  0  0  0  0  0  0  0  0  0  0
   16.8817  -26.9294   -5.0050 O   0  0  0  0  0  0  0  0  0  0  0  0
   17.1617  -28.0951   -4.3119 O   0  0  0  0  0  0  0  0  0  0  0  0
  2  1  1  0
  2  4  1  0
  3  2  2  0
  5  4  1  0
  6  5  1  0
  7  6  1  0
  7  8  1  0
  8 10  1  0
  8  9  1  6
 10 12  1  0
 11 10  2  0
 12 13  1  0
 13 16  1  0
 13 14  1  1
 15 14  1  0
 16 17  2  0
 16 20  1  0
 19 18  1  6
 19 21  1  0
 20 19  1  0
 21 23  2  0
 21 22  1  0
M  END
$$$$
