RCA.pdb
     RDKit          3D

 23 22  0  0  1  0  0  0  0  0999 V2000
   26.6239  -20.1921   -9.6280 N   0  0  0  0  0  0  0  0  0  0  0  0
   25.6253  -20.7036  -10.4926 C   0  0  0  0  0  0  0  0  0  0  0  0
   24.4341  -20.8837  -10.0221 N   0  0  0  0  0  0  0  0  0  0  0  0
   25.9610  -20.9987  -11.8335 N   0  0  0  0  0  0  0  0  0  0  0  0
   27.2839  -20.6262  -12.3456 C   0  0  0  0  0  0  0  0  0  0  0  0
   27.1925  -19.1971  -12.7464 C   0  0  0  0  0  0  0  0  0  0  0  0
   26.3737  -19.0292  -13.9866 C   0  0  0  0  0  0  0  0  0  0  0  0
   26.7182  -20.0757  -14.9759 C   0  0  2  0  0  0  0  0  0  0  0  0
   27.6532  -19.5191  -15.9280 N   0  0  0  0  0  0  0  0  0  0  0  0
   25.5445  -20.5942  -15.7261 C   0  0  0  0  0  0  0  0  0  0  0  0
   25.2049  -20.1921  -16.8625 O   0  0  0  0  0  0  0  0  0  0  0  0
   23.6535  -21.3156  -10.5428 N   0  0  0  0  0  0  0  0  0  0  0  0
   24.7464  -21.6014  -15.1464 C   0  0  2  0  0  0  0  0  0  0  0  0
   23.6452  -22.2615  -15.7822 C   0  0  0  0  0  0  0  0  0  0  0  0
   23.6301  -23.7495  -15.6005 S   0  0  0  0  0  0  0  0  0  0  0  0
   24.1631  -24.2572  -13.9470 C   0  0  0  0  0  0  0  0  0  0  0  0
   22.3929  -21.6271  -15.3623 O   0  0  0  0  0  0  0  0  0  0  0  0
   22.2236  -21.2520  -14.1796 C   0  0  0  0  0  0  0  0  0  0  0  0
   19.2918  -20.4096  -17.1292 C   0  0  2  0  0  0  0  0  0  0  0  0
   20.1407  -20.7432  -15.9170 N   0  0  0  0  0  0  0  0  0  0  0  0
   21.3441  -21.4243  -16.2893 C   0  0  0  0  0  0  0  0  0  0  0  0
   19.3506  -21.6106  -15.0142 O   0  0  0  0  0  0  0  0  0  0  0  0
   18.4451  -21.0905  -14.1046 O   0  0  0  0  0  0  0  0  0  0  0  0
  2  1  1  0
  2  4  1  0
  3  2  2  0
  5  4  1  0
  6  5  1  0
  7  6  1  0
  7  8  1  0
  8 10  1  0
  8  9  1  6
 10 12  1  0
 11 10  2  0
 12 13  1  0
 13 16  1  0
 13 14  1  1
 15 14  1  0
 16 17  2  0
 16 20  1  0
 19 18  1  6
 19 21  1  0
 20 19  1  0
 21 23  2  0
 21 22  1  0
M  END
$$$$
