RCA.pdb
     RDKit          3D

 23 22  0  0  1  0  0  0  0  0999 V2000
   18.1247  -13.3705  -21.3157 N   0  0  0  0  0  0  0  0  0  0  0  0
   17.1102  -14.0820  -20.6294 C   0  0  0  0  0  0  0  0  0  0  0  0
   16.6958  -15.2013  -21.1275 N   0  0  0  0  0  0  0  0  0  0  0  0
   16.5870  -13.5487  -19.4295 N   0  0  0  0  0  0  0  0  0  0  0  0
   17.0259  -12.2251  -18.9755 C   0  0  0  0  0  0  0  0  0  0  0  0
   18.1809  -12.4538  -18.0672 C   0  0  0  0  0  0  0  0  0  0  0  0
   18.7217  -11.1645  -17.5362 C   0  0  0  0  0  0  0  0  0  0  0  0
   19.9464  -11.4092  -16.7406 C   0  0  2  0  0  0  0  0  0  0  0  0
   19.8436  -12.7146  -16.1275 N   0  0  0  0  0  0  0  0  0  0  0  0
   20.1671  -10.4070  -15.6655 C   0  0  0  0  0  0  0  0  0  0  0  0
   19.4512  -10.3059  -14.6429 O   0  0  0  0  0  0  0  0  0  0  0  0
   15.9730  -15.8043  -20.7021 N   0  0  0  0  0  0  0  0  0  0  0  0
   21.2417   -9.5014  -15.7778 C   0  0  1  0  0  0  0  0  0  0  0  0
   21.6135   -8.5235  -14.7990 C   0  0  0  0  0  0  0  0  0  0  0  0
   22.8500   -8.8662  -14.0236 S   0  0  0  0  0  0  0  0  0  0  0  0
   22.6121  -10.2783  -12.9168 C   0  0  0  0  0  0  0  0  0  0  0  0
   21.6918   -7.2063  -15.4364 O   0  0  0  0  0  0  0  0  0  0  0  0
   22.4068   -7.0194  -16.4473 C   0  0  0  0  0  0  0  0  0  0  0  0
   19.7951   -3.9854  -15.1801 C   0  0  2  0  0  0  0  0  0  0  0  0
   21.0096   -4.8219  -15.5362 N   0  0  0  0  0  0  0  0  0  0  0  0
   20.9573   -6.1135  -14.9201 C   0  0  0  0  0  0  0  0  0  0  0  0
   22.2225   -4.1108  -15.0725 O   0  0  0  0  0  0  0  0  0  0  0  0
   23.0139   -4.6023  -14.0479 O   0  0  0  0  0  0  0  0  0  0  0  0
  2  1  1  0
  2  4  1  0
  3  2  2  0
  5  4  1  0
  6  5  1  0
  7  6  1  0
  7  8  1  0
  8 10  1  0
  8  9  1  1
 10 12  1  0
 11 10  2  0
 12 13  1  0
 13 16  1  0
 13 14  1  1
 15 14  1  0
 16 17  2  0
 16 20  1  0
 19 18  1  6
 19 21  1  0
 20 19  1  0
 21 23  2  0
 21 22  1  0
M  END
$$$$
