RCA.pdb
     RDKit          3D

 23 22  0  0  1  0  0  0  0  0999 V2000
   28.2222  -23.9856  -16.1267 N   0  0  0  0  0  0  0  0  0  0  0  0
   29.0815  -23.0075  -16.6849 C   0  0  0  0  0  0  0  0  0  0  0  0
   30.0880  -23.4025  -17.3948 N   0  0  0  0  0  0  0  0  0  0  0  0
   28.8126  -21.6401  -16.4494 N   0  0  0  0  0  0  0  0  0  0  0  0
   27.5407  -21.2499  -15.8324 C   0  0  0  0  0  0  0  0  0  0  0  0
   26.6338  -20.8648  -16.9462 C   0  0  0  0  0  0  0  0  0  0  0  0
   25.2995  -20.4223  -16.4358 C   0  0  0  0  0  0  0  0  0  0  0  0
   24.6188  -21.5384  -15.7403 C   0  0  2  0  0  0  0  0  0  0  0  0
   24.4735  -22.6381  -16.6676 N   0  0  0  0  0  0  0  0  0  0  0  0
   23.2706  -21.1839  -15.2249 C   0  0  0  0  0  0  0  0  0  0  0  0
   22.2236  -21.2278  -15.9106 O   0  0  0  0  0  0  0  0  0  0  0  0
   30.7474  -22.7750  -17.8830 N   0  0  0  0  0  0  0  0  0  0  0  0
   23.1325  -20.7692  -13.8846 C   0  0  2  0  0  0  0  0  0  0  0  0
   21.9116  -20.3489  -13.2637 C   0  0  0  0  0  0  0  0  0  0  0  0
   21.9610  -20.3165  -11.7657 S   0  0  0  0  0  0  0  0  0  0  0  0
   20.4057  -19.7584  -11.0270 C   0  0  0  0  0  0  0  0  0  0  0  0
   21.4883  -19.0717  -13.8440 O   0  0  0  0  0  0  0  0  0  0  0  0
   22.2322  -18.0651  -13.8023 C   0  0  0  0  0  0  0  0  0  0  0  0
   19.5929  -17.8056  -16.5257 C   0  0  2  0  0  0  0  0  0  0  0  0
   19.7849  -17.7055  -15.0241 N   0  0  0  0  0  0  0  0  0  0  0  0
   20.2242  -18.9491  -14.4663 C   0  0  0  0  0  0  0  0  0  0  0  0
   18.4926  -17.3263  -14.4094 O   0  0  0  0  0  0  0  0  0  0  0  0
   17.9320  -16.0737  -14.5947 O   0  0  0  0  0  0  0  0  0  0  0  0
  2  1  1  0
  2  4  1  0
  3  2  2  0
  5  4  1  0
  6  5  1  0
  7  6  1  0
  7  8  1  0
  8 10  1  0
  8  9  1  6
 10 12  1  0
 11 10  2  0
 12 13  1  0
 13 16  1  0
 13 14  1  1
 15 14  1  0
 16 17  2  0
 16 20  1  0
 19 18  1  6
 19 21  1  0
 20 19  1  0
 21 23  2  0
 21 22  1  0
M  END
$$$$
