AED.pdb
     RDKit          3D

 23 22  0  0  1  0  0  0  0  0999 V2000
    8.2433  -11.9870   19.9918 C   0  0  0  0  0  0  0  0  0  0  0  0
    8.2511  -12.9636   18.8562 C   0  0  2  0  0  0  0  0  0  0  0  0
    6.8994  -13.3547   18.5237 N   0  0  0  0  0  0  0  0  0  0  0  0
    9.1207  -14.1357   19.1163 C   0  0  0  0  0  0  0  0  0  0  0  0
    8.6422  -15.2128   19.5526 O   0  0  0  0  0  0  0  0  0  0  0  0
   10.5111  -14.0856   18.8852 N   0  0  0  0  0  0  0  0  0  0  0  0
   11.3752  -15.2870   19.0268 C   0  0  1  0  0  0  0  0  0  0  0  0
   12.1663  -15.3356   17.7726 C   0  0  0  0  0  0  0  0  0  0  0  0
   13.2321  -16.3723   17.6836 C   0  0  0  0  0  0  0  0  0  0  0  0
   13.9321  -16.3558   16.3749 C   0  0  0  0  0  0  0  0  0  0  0  0
   13.9250  -17.3868   15.6752 O   0  0  0  0  0  0  0  0  0  0  0  0
   12.1168  -15.0869   20.2782 C   0  0  0  0  0  0  0  0  0  0  0  0
   12.5900  -13.9320   20.5976 O   0  0  0  0  0  0  0  0  0  0  0  0
   14.5852  -15.2334   15.9197 O   0  0  0  0  0  0  0  0  0  0  0  0
   12.3957  -16.0768   21.2558 N   0  0  0  0  0  0  0  0  0  0  0  0
   13.1877  -15.8063   22.4643 C   0  0  1  0  0  0  0  0  0  0  0  0
   12.8432  -16.8195   23.5302 C   0  0  0  0  0  0  0  0  0  0  0  0
   11.5452  -16.5053   24.1322 C   0  0  0  0  0  0  0  0  0  0  0  0
   10.9013  -15.4746   23.8405 O   0  0  0  0  0  0  0  0  0  0  0  0
   14.6050  -15.9739   22.0784 C   0  0  0  0  0  0  0  0  0  0  0  0
   15.5885  -15.6469   23.0357 O   0  0  0  0  0  0  0  0  0  0  0  0
   10.9317  -17.3387   25.0797 O   0  0  0  0  0  0  0  0  0  0  0  0
   15.0186  -16.3864   20.9605 O   0  0  0  0  0  0  0  0  0  0  0  0
  2  1  1  1
  2  3  1  0
  4  5  2  0
  4  2  1  0
  6  4  1  0
  7 12  1  0
  7  6  1  0
  7  8  1  6
  9  8  1  0
 10  9  1  0
 11 10  2  0
 12 15  1  0
 13 12  2  0
 14 10  1  0
 15 16  1  0
 16 20  1  0
 17 18  1  0
 16 17  1  1
 18 22  1  0
 19 18  2  0
 20 23  2  0
 20 21  1  0
M  END
$$$$
