AED.pdb
     RDKit          3D

 23 22  0  0  1  0  0  0  0  0999 V2000
    7.9745  -15.3179   18.7306 C   0  0  0  0  0  0  0  0  0  0  0  0
    7.7263  -14.0094   19.4158 C   0  0  2  0  0  0  0  0  0  0  0  0
    8.0987  -12.9129   18.5499 N   0  0  0  0  0  0  0  0  0  0  0  0
    8.3890  -13.9223   20.7390 C   0  0  0  0  0  0  0  0  0  0  0  0
    9.5148  -13.3780   20.8648 O   0  0  0  0  0  0  0  0  0  0  0  0
    7.7836  -14.4451   21.9006 N   0  0  0  0  0  0  0  0  0  0  0  0
    8.3766  -14.2535   23.2503 C   0  0  1  0  0  0  0  0  0  0  0  0
    7.2256  -13.9287   24.1281 C   0  0  0  0  0  0  0  0  0  0  0  0
    7.5069  -13.7656   25.5817 C   0  0  0  0  0  0  0  0  0  0  0  0
    6.2990  -13.3818   26.3541 C   0  0  0  0  0  0  0  0  0  0  0  0
    5.2130  -13.9306   26.0856 O   0  0  0  0  0  0  0  0  0  0  0  0
    9.1051  -15.4964   23.5345 C   0  0  0  0  0  0  0  0  0  0  0  0
    8.5945  -16.6476   23.2630 O   0  0  0  0  0  0  0  0  0  0  0  0
    6.3515  -12.4384   27.3544 O   0  0  0  0  0  0  0  0  0  0  0  0
   10.3984  -15.5984   24.1094 N   0  0  0  0  0  0  0  0  0  0  0  0
   11.0462  -16.8861   24.3968 C   0  0  1  0  0  0  0  0  0  0  0  0
   12.5304  -16.6741   24.5802 C   0  0  0  0  0  0  0  0  0  0  0  0
   13.1477  -16.2676   23.3154 C   0  0  0  0  0  0  0  0  0  0  0  0
   14.0540  -15.4089   23.2556 O   0  0  0  0  0  0  0  0  0  0  0  0
   10.4664  -17.3684   25.6685 C   0  0  0  0  0  0  0  0  0  0  0  0
    9.9185  -16.4084   26.5453 O   0  0  0  0  0  0  0  0  0  0  0  0
   12.7659  -16.8128   22.0802 O   0  0  0  0  0  0  0  0  0  0  0  0
   10.4167  -18.5715   26.0441 O   0  0  0  0  0  0  0  0  0  0  0  0
  2  1  1  6
  2  3  1  0
  4  5  2  0
  4  2  1  0
  6  4  1  0
  7 12  1  0
  7  6  1  0
  7  8  1  1
  9  8  1  0
 10  9  1  0
 11 10  2  0
 12 15  1  0
 13 12  2  0
 14 10  1  0
 15 16  1  0
 16 20  1  0
 17 18  1  0
 16 17  1  1
 18 22  1  0
 19 18  2  0
 20 23  2  0
 20 21  1  0
M  END
$$$$
