AED.pdb
     RDKit          3D

 23 22  0  0  1  0  0  0  0  0999 V2000
    8.0991  -12.1496   20.3631 C   0  0  0  0  0  0  0  0  0  0  0  0
    8.3323  -12.9759   19.1359 C   0  0  2  0  0  0  0  0  0  0  0  0
    7.0704  -13.3965   18.5690 N   0  0  0  0  0  0  0  0  0  0  0  0
    9.2402  -14.1217   19.3822 C   0  0  0  0  0  0  0  0  0  0  0  0
    8.7868  -15.2520   19.6926 O   0  0  0  0  0  0  0  0  0  0  0  0
   10.6402  -13.9863   19.2782 N   0  0  0  0  0  0  0  0  0  0  0  0
   11.5521  -15.1566   19.3716 C   0  0  1  0  0  0  0  0  0  0  0  0
   12.4690  -15.0167   18.2136 C   0  0  0  0  0  0  0  0  0  0  0  0
   13.5596  -16.0234   18.0875 C   0  0  0  0  0  0  0  0  0  0  0  0
   14.4358  -15.7674   16.9172 C   0  0  0  0  0  0  0  0  0  0  0  0
   15.2428  -14.8192   16.9651 O   0  0  0  0  0  0  0  0  0  0  0  0
   12.1490  -15.0782   20.7109 C   0  0  0  0  0  0  0  0  0  0  0  0
   12.6367  -13.9743   21.1619 O   0  0  0  0  0  0  0  0  0  0  0  0
   14.3770  -16.5495   15.7866 O   0  0  0  0  0  0  0  0  0  0  0  0
   12.2616  -16.1420   21.6431 N   0  0  0  0  0  0  0  0  0  0  0  0
   12.8555  -15.9763   22.9774 C   0  0  1  0  0  0  0  0  0  0  0  0
   12.4017  -17.1033   23.8748 C   0  0  0  0  0  0  0  0  0  0  0  0
   10.9691  -16.9854   24.1571 C   0  0  0  0  0  0  0  0  0  0  0  0
   10.3067  -15.9690   23.8567 O   0  0  0  0  0  0  0  0  0  0  0  0
   14.3200  -16.0643   22.7943 C   0  0  0  0  0  0  0  0  0  0  0  0
   15.1384  -15.7845   23.9089 O   0  0  0  0  0  0  0  0  0  0  0  0
   10.2377  -18.0049   24.7849 O   0  0  0  0  0  0  0  0  0  0  0  0
   14.9095  -16.3697   21.7218 O   0  0  0  0  0  0  0  0  0  0  0  0
  2  1  1  1
  2  3  1  0
  4  5  2  0
  4  2  1  0
  6  4  1  0
  7 12  1  0
  7  6  1  0
  7  8  1  6
  9  8  1  0
 10  9  1  0
 11 10  2  0
 12 15  1  0
 13 12  2  0
 14 10  1  0
 15 16  1  0
 16 20  1  0
 17 18  1  0
 16 17  1  1
 18 22  1  0
 19 18  2  0
 20 23  2  0
 20 21  1  0
M  END
$$$$
