AED.pdb
     RDKit          3D

 23 22  0  0  1  0  0  0  0  0999 V2000
    7.8248  -12.7095   20.0755 C   0  0  0  0  0  0  0  0  0  0  0  0
    8.2731  -13.3654   18.8058 C   0  0  2  0  0  0  0  0  0  0  0  0
    7.1496  -13.9852   18.1394 N   0  0  0  0  0  0  0  0  0  0  0  0
    9.3884  -14.3188   19.0178 C   0  0  0  0  0  0  0  0  0  0  0  0
    9.1791  -15.5564   19.0806 O   0  0  0  0  0  0  0  0  0  0  0  0
   10.7196  -13.8742   19.1566 N   0  0  0  0  0  0  0  0  0  0  0  0
   11.8493  -14.8221   19.3442 C   0  0  1  0  0  0  0  0  0  0  0  0
   12.9321  -14.2991   18.4752 C   0  0  0  0  0  0  0  0  0  0  0  0
   14.2523  -14.9846   18.5509 C   0  0  0  0  0  0  0  0  0  0  0  0
   15.2442  -14.4121   17.6067 C   0  0  0  0  0  0  0  0  0  0  0  0
   15.1455  -14.6801   16.3939 O   0  0  0  0  0  0  0  0  0  0  0  0
   12.1032  -14.8427   20.7903 C   0  0  0  0  0  0  0  0  0  0  0  0
   11.3550  -14.1883   21.6098 O   0  0  0  0  0  0  0  0  0  0  0  0
   16.2648  -13.5965   18.0387 O   0  0  0  0  0  0  0  0  0  0  0  0
   13.1429  -15.5479   21.4498 N   0  0  0  0  0  0  0  0  0  0  0  0
   13.1117  -15.8595   22.8860 C   0  0  1  0  0  0  0  0  0  0  0  0
   11.8366  -16.5998   23.2139 C   0  0  0  0  0  0  0  0  0  0  0  0
   11.8080  -16.9631   24.6327 C   0  0  0  0  0  0  0  0  0  0  0  0
   12.7318  -16.6667   25.4207 O   0  0  0  0  0  0  0  0  0  0  0  0
   14.2656  -16.7472   23.1439 C   0  0  0  0  0  0  0  0  0  0  0  0
   15.2441  -16.3023   24.0578 O   0  0  0  0  0  0  0  0  0  0  0  0
   10.7418  -17.6700   25.2090 O   0  0  0  0  0  0  0  0  0  0  0  0
   14.4564  -17.8767   22.6159 O   0  0  0  0  0  0  0  0  0  0  0  0
  2  1  1  1
  2  3  1  0
  4  5  2  0
  4  2  1  0
  6  4  1  0
  7 12  1  0
  7  6  1  0
  7  8  1  6
  9  8  1  0
 10  9  1  0
 11 10  2  0
 12 15  1  0
 13 12  2  0
 14 10  1  0
 15 16  1  0
 16 20  1  0
 17 18  1  0
 16 17  1  6
 18 22  1  0
 19 18  2  0
 20 23  2  0
 20 21  1  0
M  END
$$$$
