AED.pdb
     RDKit          3D

 23 22  0  0  1  0  0  0  0  0999 V2000
    9.7752  -15.8151   16.1014 C   0  0  0  0  0  0  0  0  0  0  0  0
    9.9429  -15.2974   17.4969 C   0  0  2  0  0  0  0  0  0  0  0  0
    9.7465  -13.8652   17.5259 N   0  0  0  0  0  0  0  0  0  0  0  0
   11.2372  -15.6932   18.1017 C   0  0  0  0  0  0  0  0  0  0  0  0
   11.4681  -16.8890   18.4120 O   0  0  0  0  0  0  0  0  0  0  0  0
   12.2527  -14.7467   18.3505 N   0  0  0  0  0  0  0  0  0  0  0  0
   13.6226  -15.1531   18.7605 C   0  0  1  0  0  0  0  0  0  0  0  0
   14.5257  -14.2151   18.0494 C   0  0  0  0  0  0  0  0  0  0  0  0
   15.9789  -14.3037   18.3645 C   0  0  0  0  0  0  0  0  0  0  0  0
   16.7986  -13.3971   17.5223 C   0  0  0  0  0  0  0  0  0  0  0  0
   16.5030  -13.2613   16.3195 O   0  0  0  0  0  0  0  0  0  0  0  0
   13.6215  -15.0977   20.2279 C   0  0  0  0  0  0  0  0  0  0  0  0
   12.8481  -14.2885   20.8658 O   0  0  0  0  0  0  0  0  0  0  0  0
   17.8719  -12.7073   18.0375 O   0  0  0  0  0  0  0  0  0  0  0  0
   14.4205  -15.8838   21.0980 N   0  0  0  0  0  0  0  0  0  0  0  0
   14.2772  -15.8537   22.5606 C   0  0  1  0  0  0  0  0  0  0  0  0
   13.3674  -16.9759   23.0013 C   0  0  0  0  0  0  0  0  0  0  0  0
   13.3118  -17.0433   24.4637 C   0  0  0  0  0  0  0  0  0  0  0  0
   13.9968  -16.2980   25.1969 O   0  0  0  0  0  0  0  0  0  0  0  0
   15.6286  -16.0812   23.1153 C   0  0  0  0  0  0  0  0  0  0  0  0
   15.9069  -15.5633   24.3979 O   0  0  0  0  0  0  0  0  0  0  0  0
   12.4859  -17.9492   25.1461 O   0  0  0  0  0  0  0  0  0  0  0  0
   16.5641  -16.7021   22.5406 O   0  0  0  0  0  0  0  0  0  0  0  0
  2  1  1  6
  2  3  1  0
  4  5  2  0
  4  2  1  0
  6  4  1  0
  7 12  1  0
  7  6  1  0
  7  8  1  6
  9  8  1  0
 10  9  1  0
 11 10  2  0
 12 15  1  0
 13 12  2  0
 14 10  1  0
 15 16  1  0
 16 20  1  0
 17 18  1  0
 16 17  1  1
 18 22  1  0
 19 18  2  0
 20 23  2  0
 20 21  1  0
M  END
$$$$
