AED.pdb
     RDKit          3D

 23 22  0  0  1  0  0  0  0  0999 V2000
    7.1976  -13.3037   20.3988 C   0  0  0  0  0  0  0  0  0  0  0  0
    8.2126  -14.2234   21.0047 C   0  0  2  0  0  0  0  0  0  0  0  0
    8.5234  -15.2982   20.0888 N   0  0  0  0  0  0  0  0  0  0  0  0
    7.8028  -14.7292   22.3366 C   0  0  0  0  0  0  0  0  0  0  0  0
    7.3658  -13.9486   23.2193 O   0  0  0  0  0  0  0  0  0  0  0  0
    7.8880  -16.0991   22.6612 N   0  0  0  0  0  0  0  0  0  0  0  0
    7.4029  -16.6302   23.9621 C   0  0  1  0  0  0  0  0  0  0  0  0
    7.0495  -18.0445   23.6868 C   0  0  0  0  0  0  0  0  0  0  0  0
    5.7404  -18.2990   23.0234 C   0  0  0  0  0  0  0  0  0  0  0  0
    5.4967  -19.7434   22.7839 C   0  0  0  0  0  0  0  0  0  0  0  0
    5.3996  -20.1512   21.6105 O   0  0  0  0  0  0  0  0  0  0  0  0
    8.4951  -16.3864   24.9129 C   0  0  0  0  0  0  0  0  0  0  0  0
    9.7272  -16.4161   24.5377 O   0  0  0  0  0  0  0  0  0  0  0  0
    5.3762  -20.6371   23.8231 O   0  0  0  0  0  0  0  0  0  0  0  0
    8.3556  -16.0963   26.2948 N   0  0  0  0  0  0  0  0  0  0  0  0
    9.5007  -15.8128   27.1718 C   0  0  1  0  0  0  0  0  0  0  0  0
    9.1744  -14.6380   28.0633 C   0  0  0  0  0  0  0  0  0  0  0  0
   10.3082  -14.3316   28.9389 C   0  0  0  0  0  0  0  0  0  0  0  0
   11.4088  -14.9161   28.8421 O   0  0  0  0  0  0  0  0  0  0  0  0
    9.6910  -17.0164   28.0090 C   0  0  0  0  0  0  0  0  0  0  0  0
   10.8393  -17.0717   28.8268 O   0  0  0  0  0  0  0  0  0  0  0  0
   10.2401  -13.3603   29.9491 O   0  0  0  0  0  0  0  0  0  0  0  0
    8.9124  -18.0076   28.0589 O   0  0  0  0  0  0  0  0  0  0  0  0
  2  1  1  6
  2  3  1  0
  4  5  2  0
  4  2  1  0
  6  4  1  0
  7 12  1  0
  7  6  1  0
  7  8  1  6
  9  8  1  0
 10  9  1  0
 11 10  2  0
 12 15  1  0
 13 12  2  0
 14 10  1  0
 15 16  1  0
 16 20  1  0
 17 18  1  0
 16 17  1  1
 18 22  1  0
 19 18  2  0
 20 23  2  0
 20 21  1  0
M  END
$$$$
