AED.pdb
     RDKit          3D

 23 22  0  0  1  0  0  0  0  0999 V2000
    8.2409  -12.2340   19.9621 C   0  0  0  0  0  0  0  0  0  0  0  0
    8.4727  -13.0679   18.7397 C   0  0  2  0  0  0  0  0  0  0  0  0
    7.2113  -13.5193   18.1958 N   0  0  0  0  0  0  0  0  0  0  0  0
    9.4069  -14.1928   18.9839 C   0  0  0  0  0  0  0  0  0  0  0  0
    8.9789  -15.3539   19.2034 O   0  0  0  0  0  0  0  0  0  0  0  0
   10.8044  -14.0024   18.9793 N   0  0  0  0  0  0  0  0  0  0  0  0
   11.7533  -15.1439   19.0593 C   0  0  1  0  0  0  0  0  0  0  0  0
   12.6492  -14.9756   17.8888 C   0  0  0  0  0  0  0  0  0  0  0  0
   13.9664  -14.3241   18.1319 C   0  0  0  0  0  0  0  0  0  0  0  0
   14.9792  -14.6933   17.1115 C   0  0  0  0  0  0  0  0  0  0  0  0
   15.9525  -15.3916   17.4543 O   0  0  0  0  0  0  0  0  0  0  0  0
   12.3662  -15.0471   20.3902 C   0  0  0  0  0  0  0  0  0  0  0  0
   12.6228  -13.9042   20.9266 O   0  0  0  0  0  0  0  0  0  0  0  0
   14.8677  -14.2835   15.8027 O   0  0  0  0  0  0  0  0  0  0  0  0
   12.7354  -16.1334   21.2251 N   0  0  0  0  0  0  0  0  0  0  0  0
   13.1937  -15.9572   22.6106 C   0  0  1  0  0  0  0  0  0  0  0  0
   12.4037  -16.8659   23.5225 C   0  0  0  0  0  0  0  0  0  0  0  0
   12.8839  -16.7475   24.9014 C   0  0  0  0  0  0  0  0  0  0  0  0
   13.8005  -15.9633   25.2285 O   0  0  0  0  0  0  0  0  0  0  0  0
   14.6143  -16.3660   22.6336 C   0  0  0  0  0  0  0  0  0  0  0  0
   15.1416  -16.9712   21.4732 O   0  0  0  0  0  0  0  0  0  0  0  0
   12.3494  -17.5059   25.9539 O   0  0  0  0  0  0  0  0  0  0  0  0
   15.4051  -16.2216   23.6056 O   0  0  0  0  0  0  0  0  0  0  0  0
  2  1  1  1
  2  3  1  0
  4  5  2  0
  4  2  1  0
  6  4  1  0
  7 12  1  0
  7  6  1  0
  7  8  1  6
  9  8  1  0
 10  9  1  0
 11 10  2  0
 12 15  1  0
 13 12  2  0
 14 10  1  0
 15 16  1  0
 16 20  1  0
 17 18  1  0
 16 17  1  1
 18 22  1  0
 19 18  2  0
 20 23  2  0
 20 21  1  0
M  END
$$$$
