AED.pdb
     RDKit          3D

 23 22  0  0  1  0  0  0  0  0999 V2000
    8.2051  -12.5591   19.7497 C   0  0  0  0  0  0  0  0  0  0  0  0
    7.9356  -13.9549   19.2780 C   0  0  2  0  0  0  0  0  0  0  0  0
    6.5159  -14.1534   19.0888 N   0  0  0  0  0  0  0  0  0  0  0  0
    8.5267  -14.9830   20.1675 C   0  0  0  0  0  0  0  0  0  0  0  0
    7.8706  -15.4660   21.1244 O   0  0  0  0  0  0  0  0  0  0  0  0
    9.8417  -15.4547   19.9741 N   0  0  0  0  0  0  0  0  0  0  0  0
   10.4389  -16.4984   20.8482 C   0  0  1  0  0  0  0  0  0  0  0  0
   10.9153  -17.5484   19.9146 C   0  0  0  0  0  0  0  0  0  0  0  0
   10.5523  -17.3935   18.4784 C   0  0  0  0  0  0  0  0  0  0  0  0
   11.7017  -17.6407   17.5725 C   0  0  0  0  0  0  0  0  0  0  0  0
   12.1429  -16.6974   16.8883 O   0  0  0  0  0  0  0  0  0  0  0  0
   11.4555  -15.8016   21.6464 C   0  0  0  0  0  0  0  0  0  0  0  0
   12.6202  -15.5382   21.1630 O   0  0  0  0  0  0  0  0  0  0  0  0
   12.2876  -18.8817   17.4719 O   0  0  0  0  0  0  0  0  0  0  0  0
   11.3057  -15.3433   22.9809 N   0  0  0  0  0  0  0  0  0  0  0  0
   11.8629  -16.0571   24.1387 C   0  0  1  0  0  0  0  0  0  0  0  0
   11.0203  -17.2756   24.4332 C   0  0  0  0  0  0  0  0  0  0  0  0
   11.5743  -18.0165   25.5691 C   0  0  0  0  0  0  0  0  0  0  0  0
   12.0387  -19.1713   25.4556 O   0  0  0  0  0  0  0  0  0  0  0  0
   13.2201  -16.4918   23.7452 C   0  0  0  0  0  0  0  0  0  0  0  0
   13.3272  -17.4996   22.7637 O   0  0  0  0  0  0  0  0  0  0  0  0
   11.6232  -17.4831   26.8658 O   0  0  0  0  0  0  0  0  0  0  0  0
   14.3010  -16.0392   24.2118 O   0  0  0  0  0  0  0  0  0  0  0  0
  2  1  1  1
  2  3  1  0
  4  5  2  0
  4  2  1  0
  6  4  1  0
  7 12  1  0
  7  6  1  0
  7  8  1  6
  9  8  1  0
 10  9  1  0
 11 10  2  0
 12 15  1  0
 13 12  2  0
 14 10  1  0
 15 16  1  0
 16 20  1  0
 17 18  1  0
 16 17  1  6
 18 22  1  0
 19 18  2  0
 20 23  2  0
 20 21  1  0
M  END
$$$$
