AED.pdb
     RDKit          3D

 23 22  0  0  1  0  0  0  0  0999 V2000
   22.3778  -13.9218   14.9928 C   0  0  0  0  0  0  0  0  0  0  0  0
   21.0632  -13.8490   14.2786 C   0  0  2  0  0  0  0  0  0  0  0  0
   21.0121  -12.6693   13.4442 N   0  0  0  0  0  0  0  0  0  0  0  0
   19.9060  -13.9272   15.2019 C   0  0  0  0  0  0  0  0  0  0  0  0
   18.8944  -13.2003   15.0352 O   0  0  0  0  0  0  0  0  0  0  0  0
   19.8976  -14.8159   16.2970 N   0  0  0  0  0  0  0  0  0  0  0  0
   18.7452  -14.8998   17.2323 C   0  0  1  0  0  0  0  0  0  0  0  0
   17.9370  -16.0413   16.7376 C   0  0  0  0  0  0  0  0  0  0  0  0
   18.5133  -17.4041   16.9089 C   0  0  0  0  0  0  0  0  0  0  0  0
   17.5786  -18.4739   16.4789 C   0  0  0  0  0  0  0  0  0  0  0  0
   17.1077  -19.2434   17.3383 O   0  0  0  0  0  0  0  0  0  0  0  0
   19.3385  -15.0297   18.5692 C   0  0  0  0  0  0  0  0  0  0  0  0
   20.1210  -16.0107   18.8609 O   0  0  0  0  0  0  0  0  0  0  0  0
   17.2226  -18.6339   15.1594 O   0  0  0  0  0  0  0  0  0  0  0  0
   19.1489  -14.1438   19.6612 N   0  0  0  0  0  0  0  0  0  0  0  0
   19.0227  -14.6039   21.0515 C   0  0  1  0  0  0  0  0  0  0  0  0
   18.4061  -15.9825   21.0725 C   0  0  0  0  0  0  0  0  0  0  0  0
   18.3489  -16.4950   22.4437 C   0  0  0  0  0  0  0  0  0  0  0  0
   19.3246  -16.4393   23.2228 O   0  0  0  0  0  0  0  0  0  0  0  0
   20.3975  -14.6813   21.5901 C   0  0  0  0  0  0  0  0  0  0  0  0
   21.3682  -15.3518   20.8163 O   0  0  0  0  0  0  0  0  0  0  0  0
   17.1950  -17.0853   22.9807 O   0  0  0  0  0  0  0  0  0  0  0  0
   20.7847  -14.1978   22.6888 O   0  0  0  0  0  0  0  0  0  0  0  0
  2  1  1  1
  2  3  1  0
  4  5  2  0
  4  2  1  0
  6  4  1  0
  7 12  1  0
  7  6  1  0
  7  8  1  6
  9  8  1  0
 10  9  1  0
 11 10  2  0
 12 15  1  0
 13 12  2  0
 14 10  1  0
 15 16  1  0
 16 20  1  0
 17 18  1  0
 16 17  1  6
 18 22  1  0
 19 18  2  0
 20 23  2  0
 20 21  1  0
M  END
$$$$
