AED.pdb
     RDKit          3D

 23 22  0  0  1  0  0  0  0  0999 V2000
    6.8670  -12.8551   18.8442 C   0  0  0  0  0  0  0  0  0  0  0  0
    8.3237  -12.9953   19.1631 C   0  0  2  0  0  0  0  0  0  0  0  0
    9.1244  -12.6219   18.0185 N   0  0  0  0  0  0  0  0  0  0  0  0
    8.6709  -14.3454   19.6676 C   0  0  0  0  0  0  0  0  0  0  0  0
    8.0294  -14.8679   20.6136 O   0  0  0  0  0  0  0  0  0  0  0  0
    9.7297  -15.0899   19.1075 N   0  0  0  0  0  0  0  0  0  0  0  0
   10.0833  -16.4469   19.6007 C   0  0  1  0  0  0  0  0  0  0  0  0
   10.2821  -17.2570   18.3738 C   0  0  0  0  0  0  0  0  0  0  0  0
   10.8119  -18.6377   18.5519 C   0  0  0  0  0  0  0  0  0  0  0  0
   10.8816  -19.3883   17.2733 C   0  0  0  0  0  0  0  0  0  0  0  0
   11.9993  -19.6488   16.7881 O   0  0  0  0  0  0  0  0  0  0  0  0
   11.2505  -16.2524   20.4703 C   0  0  0  0  0  0  0  0  0  0  0  0
   12.1523  -15.3753   20.1926 O   0  0  0  0  0  0  0  0  0  0  0  0
    9.7455  -19.8004   16.6154 O   0  0  0  0  0  0  0  0  0  0  0  0
   11.5302  -16.9572   21.6696 N   0  0  0  0  0  0  0  0  0  0  0  0
   12.7466  -16.7327   22.4638 C   0  0  1  0  0  0  0  0  0  0  0  0
   12.5266  -17.2271   23.8739 C   0  0  0  0  0  0  0  0  0  0  0  0
   13.3298  -16.4474   24.8190 C   0  0  0  0  0  0  0  0  0  0  0  0
   14.2125  -15.6444   24.4475 O   0  0  0  0  0  0  0  0  0  0  0  0
   13.8115  -17.5389   21.8298 C   0  0  0  0  0  0  0  0  0  0  0  0
   13.5502  -18.9061   21.5998 O   0  0  0  0  0  0  0  0  0  0  0  0
   13.1659  -16.5463   26.2089 O   0  0  0  0  0  0  0  0  0  0  0  0
   14.9431  -17.1112   21.4727 O   0  0  0  0  0  0  0  0  0  0  0  0
  2  1  1  6
  2  3  1  0
  4  5  2  0
  4  2  1  0
  6  4  1  0
  7 12  1  0
  7  6  1  0
  7  8  1  6
  9  8  1  0
 10  9  1  0
 11 10  2  0
 12 15  1  0
 13 12  2  0
 14 10  1  0
 15 16  1  0
 16 20  1  0
 17 18  1  0
 16 17  1  1
 18 22  1  0
 19 18  2  0
 20 23  2  0
 20 21  1  0
M  END
$$$$
