AED.pdb
     RDKit          3D

 23 22  0  0  1  0  0  0  0  0999 V2000
    7.3456  -11.4370   26.6434 C   0  0  0  0  0  0  0  0  0  0  0  0
    6.2402  -12.1497   25.9269 C   0  0  2  0  0  0  0  0  0  0  0  0
    5.0931  -12.2943   26.7952 N   0  0  0  0  0  0  0  0  0  0  0  0
    6.6724  -13.4480   25.3564 C   0  0  0  0  0  0  0  0  0  0  0  0
    6.5882  -14.5090   26.0248 O   0  0  0  0  0  0  0  0  0  0  0  0
    7.1922  -13.5401   24.0486 N   0  0  0  0  0  0  0  0  0  0  0  0
    7.6477  -14.8328   23.4731 C   0  0  1  0  0  0  0  0  0  0  0  0
    7.5401  -14.6535   22.0043 C   0  0  0  0  0  0  0  0  0  0  0  0
    8.0498  -15.7601   21.1474 C   0  0  0  0  0  0  0  0  0  0  0  0
    7.8970  -15.4731   19.6992 C   0  0  0  0  0  0  0  0  0  0  0  0
    7.5293  -16.3896   18.9392 O   0  0  0  0  0  0  0  0  0  0  0  0
    8.9913  -15.0513   24.0237 C   0  0  0  0  0  0  0  0  0  0  0  0
    9.5464  -14.1828   24.7966 O   0  0  0  0  0  0  0  0  0  0  0  0
    8.1511  -14.2244   19.1801 O   0  0  0  0  0  0  0  0  0  0  0  0
    9.8162  -16.1839   23.7996 N   0  0  0  0  0  0  0  0  0  0  0  0
   10.7394  -16.7138   24.8132 C   0  0  1  0  0  0  0  0  0  0  0  0
    9.9658  -17.0798   26.0577 C   0  0  0  0  0  0  0  0  0  0  0  0
   10.8468  -17.7239   27.0350 C   0  0  0  0  0  0  0  0  0  0  0  0
   12.0925  -17.6958   26.9376 O   0  0  0  0  0  0  0  0  0  0  0  0
   11.3325  -17.9386   24.2353 C   0  0  0  0  0  0  0  0  0  0  0  0
   12.7019  -18.1800   24.4743 O   0  0  0  0  0  0  0  0  0  0  0  0
   10.3554  -18.4188   28.1505 O   0  0  0  0  0  0  0  0  0  0  0  0
   10.7196  -18.7953   23.5415 O   0  0  0  0  0  0  0  0  0  0  0  0
  2  1  1  1
  2  3  1  0
  4  5  2  0
  4  2  1  0
  6  4  1  0
  7 12  1  0
  7  6  1  0
  7  8  1  6
  9  8  1  0
 10  9  1  0
 11 10  2  0
 12 15  1  0
 13 12  2  0
 14 10  1  0
 15 16  1  0
 16 20  1  0
 17 18  1  0
 16 17  1  1
 18 22  1  0
 19 18  2  0
 20 23  2  0
 20 21  1  0
M  END
$$$$
