AED.pdb
     RDKit          3D

 23 22  0  0  1  0  0  0  0  0999 V2000
    7.4312  -11.8217   26.8062 C   0  0  0  0  0  0  0  0  0  0  0  0
    6.4235  -12.5867   26.0046 C   0  0  2  0  0  0  0  0  0  0  0  0
    5.2034  -12.7529   26.7625 N   0  0  0  0  0  0  0  0  0  0  0  0
    6.9504  -13.8806   25.5089 C   0  0  0  0  0  0  0  0  0  0  0  0
    6.7499  -14.9470   26.1430 O   0  0  0  0  0  0  0  0  0  0  0  0
    7.6934  -13.9625   24.3129 N   0  0  0  0  0  0  0  0  0  0  0  0
    8.0877  -15.2676   23.7204 C   0  0  1  0  0  0  0  0  0  0  0  0
    8.0887  -15.0346   22.2552 C   0  0  0  0  0  0  0  0  0  0  0  0
    8.6223  -16.1278   21.3956 C   0  0  0  0  0  0  0  0  0  0  0  0
    8.4993  -15.8231   19.9482 C   0  0  0  0  0  0  0  0  0  0  0  0
    9.4785  -15.3381   19.3495 O   0  0  0  0  0  0  0  0  0  0  0  0
    9.3731  -15.6054   24.3449 C   0  0  0  0  0  0  0  0  0  0  0  0
   10.2582  -14.7005   24.5845 O   0  0  0  0  0  0  0  0  0  0  0  0
    7.3341  -16.0628   19.2566 O   0  0  0  0  0  0  0  0  0  0  0  0
    9.7942  -16.8976   24.7525 N   0  0  0  0  0  0  0  0  0  0  0  0
   11.1583  -17.1838   25.2195 C   0  0  1  0  0  0  0  0  0  0  0  0
   11.1784  -18.5155   25.9318 C   0  0  0  0  0  0  0  0  0  0  0  0
   10.7952  -18.3490   27.3359 C   0  0  0  0  0  0  0  0  0  0  0  0
   10.4333  -19.3075   28.0516 O   0  0  0  0  0  0  0  0  0  0  0  0
   12.0024  -17.2706   24.0088 C   0  0  0  0  0  0  0  0  0  0  0  0
   13.3998  -17.3471   24.1876 O   0  0  0  0  0  0  0  0  0  0  0  0
   10.8067  -17.1015   27.9779 O   0  0  0  0  0  0  0  0  0  0  0  0
   11.5826  -17.2825   22.8194 O   0  0  0  0  0  0  0  0  0  0  0  0
  2  1  1  1
  2  3  1  0
  4  5  2  0
  4  2  1  0
  6  4  1  0
  7 12  1  0
  7  6  1  0
  7  8  1  6
  9  8  1  0
 10  9  1  0
 11 10  2  0
 12 15  1  0
 13 12  2  0
 14 10  1  0
 15 16  1  0
 16 20  1  0
 17 18  1  0
 16 17  1  6
 18 22  1  0
 19 18  2  0
 20 23  2  0
 20 21  1  0
M  END
$$$$
