AED.pdb
     RDKit          3D

 23 22  0  0  1  0  0  0  0  0999 V2000
    8.3425  -12.0731   19.8686 C   0  0  0  0  0  0  0  0  0  0  0  0
    8.4093  -12.9862   18.6832 C   0  0  2  0  0  0  0  0  0  0  0  0
    7.0870  -13.4627   18.3438 N   0  0  0  0  0  0  0  0  0  0  0  0
    9.3695  -14.0997   18.8729 C   0  0  0  0  0  0  0  0  0  0  0  0
    8.9748  -15.2450   19.2075 O   0  0  0  0  0  0  0  0  0  0  0  0
   10.7553  -13.9158   18.6861 N   0  0  0  0  0  0  0  0  0  0  0  0
   11.7101  -15.0548   18.7134 C   0  0  1  0  0  0  0  0  0  0  0  0
   12.3847  -15.0165   17.3927 C   0  0  0  0  0  0  0  0  0  0  0  0
   13.4144  -16.0596   17.1273 C   0  0  0  0  0  0  0  0  0  0  0  0
   14.1092  -15.8547   15.8318 C   0  0  0  0  0  0  0  0  0  0  0  0
   15.3299  -15.6045   15.8361 O   0  0  0  0  0  0  0  0  0  0  0  0
   12.5472  -14.8316   19.8990 C   0  0  0  0  0  0  0  0  0  0  0  0
   12.9959  -13.6595   20.1896 O   0  0  0  0  0  0  0  0  0  0  0  0
   13.4389  -15.9344   14.6328 O   0  0  0  0  0  0  0  0  0  0  0  0
   12.9517  -15.8156   20.8380 N   0  0  0  0  0  0  0  0  0  0  0  0
   13.7491  -15.5012   22.0322 C   0  0  1  0  0  0  0  0  0  0  0  0
   13.6080  -16.6167   23.0407 C   0  0  0  0  0  0  0  0  0  0  0  0
   12.2775  -16.5857   23.6529 C   0  0  0  0  0  0  0  0  0  0  0  0
   11.4427  -15.6904   23.4006 O   0  0  0  0  0  0  0  0  0  0  0  0
   15.1565  -15.4292   21.5851 C   0  0  0  0  0  0  0  0  0  0  0  0
   16.1150  -14.9617   22.5088 O   0  0  0  0  0  0  0  0  0  0  0  0
   11.8448  -17.5587   24.5665 O   0  0  0  0  0  0  0  0  0  0  0  0
   15.5819  -15.7507   20.4420 O   0  0  0  0  0  0  0  0  0  0  0  0
  2  1  1  1
  2  3  1  0
  4  5  2  0
  4  2  1  0
  6  4  1  0
  7 12  1  0
  7  6  1  0
  7  8  1  6
  9  8  1  0
 10  9  1  0
 11 10  2  0
 12 15  1  0
 13 12  2  0
 14 10  1  0
 15 16  1  0
 16 20  1  0
 17 18  1  0
 16 17  1  1
 18 22  1  0
 19 18  2  0
 20 23  2  0
 20 21  1  0
M  END
$$$$
