AED.pdb
     RDKit          3D

 23 22  0  0  1  0  0  0  0  0999 V2000
    7.3593  -14.0004   22.3104 C   0  0  0  0  0  0  0  0  0  0  0  0
    8.2582  -14.6931   21.3328 C   0  0  2  0  0  0  0  0  0  0  0  0
    7.4831  -15.2403   20.2417 N   0  0  0  0  0  0  0  0  0  0  0  0
    9.1172  -15.7178   21.9729 C   0  0  0  0  0  0  0  0  0  0  0  0
    8.7626  -16.9226   22.0194 O   0  0  0  0  0  0  0  0  0  0  0  0
   10.3584  -15.3800   22.5512 N   0  0  0  0  0  0  0  0  0  0  0  0
   11.2332  -16.4004   23.1864 C   0  0  1  0  0  0  0  0  0  0  0  0
   12.5855  -15.7903   23.1926 C   0  0  0  0  0  0  0  0  0  0  0  0
   13.4258  -15.9930   21.9796 C   0  0  0  0  0  0  0  0  0  0  0  0
   14.7637  -15.3625   22.1040 C   0  0  0  0  0  0  0  0  0  0  0  0
   15.5762  -15.4841   21.1672 O   0  0  0  0  0  0  0  0  0  0  0  0
   10.6196  -16.6804   24.4908 C   0  0  0  0  0  0  0  0  0  0  0  0
   10.1019  -15.7392   25.2020 O   0  0  0  0  0  0  0  0  0  0  0  0
   15.1248  -14.6508   23.2250 O   0  0  0  0  0  0  0  0  0  0  0  0
   10.5125  -17.9516   25.1122 N   0  0  0  0  0  0  0  0  0  0  0  0
    9.9048  -18.1455   26.4365 C   0  0  1  0  0  0  0  0  0  0  0  0
    8.7370  -19.0964   26.3211 C   0  0  0  0  0  0  0  0  0  0  0  0
    8.1575  -19.3553   27.6414 C   0  0  0  0  0  0  0  0  0  0  0  0
    8.5667  -18.7884   28.6774 O   0  0  0  0  0  0  0  0  0  0  0  0
   10.9468  -18.7609   27.2858 C   0  0  0  0  0  0  0  0  0  0  0  0
   10.9627  -18.4203   28.6549 O   0  0  0  0  0  0  0  0  0  0  0  0
    7.1019  -20.2584   27.8378 O   0  0  0  0  0  0  0  0  0  0  0  0
   11.8312  -19.5703   26.8938 O   0  0  0  0  0  0  0  0  0  0  0  0
  2  1  1  1
  2  3  1  0
  4  5  2  0
  4  2  1  0
  6  4  1  0
  7 12  1  0
  7  6  1  0
  7  8  1  1
  9  8  1  0
 10  9  1  0
 11 10  2  0
 12 15  1  0
 13 12  2  0
 14 10  1  0
 15 16  1  0
 16 20  1  0
 17 18  1  0
 16 17  1  6
 18 22  1  0
 19 18  2  0
 20 23  2  0
 20 21  1  0
M  END
$$$$
