AED.pdb
     RDKit          3D

 23 22  0  0  1  0  0  0  0  0999 V2000
    6.3257  -13.3043   18.2052 C   0  0  0  0  0  0  0  0  0  0  0  0
    7.7955  -13.2956   18.4929 C   0  0  2  0  0  0  0  0  0  0  0  0
    8.5134  -12.6617   17.4097 N   0  0  0  0  0  0  0  0  0  0  0  0
    8.3266  -14.6460   18.7963 C   0  0  0  0  0  0  0  0  0  0  0  0
    7.7361  -15.4078   19.6030 O   0  0  0  0  0  0  0  0  0  0  0  0
    9.5090  -15.1237   18.1941 N   0  0  0  0  0  0  0  0  0  0  0  0
   10.0763  -16.4574   18.5250 C   0  0  1  0  0  0  0  0  0  0  0  0
   10.6494  -16.9533   17.2496 C   0  0  0  0  0  0  0  0  0  0  0  0
    9.7432  -17.7251   16.3543 C   0  0  0  0  0  0  0  0  0  0  0  0
   10.4000  -18.1158   15.0818 C   0  0  0  0  0  0  0  0  0  0  0  0
   10.1515  -17.4622   14.0505 O   0  0  0  0  0  0  0  0  0  0  0  0
   11.0123  -16.2180   19.6308 C   0  0  0  0  0  0  0  0  0  0  0  0
   11.2089  -15.0326   20.0955 O   0  0  0  0  0  0  0  0  0  0  0  0
   11.2723  -19.1779   15.0162 O   0  0  0  0  0  0  0  0  0  0  0  0
   11.7823  -17.2001   20.3060 N   0  0  0  0  0  0  0  0  0  0  0  0
   12.2189  -17.0532   21.7019 C   0  0  1  0  0  0  0  0  0  0  0  0
   11.0116  -16.8748   22.5917 C   0  0  0  0  0  0  0  0  0  0  0  0
   11.4125  -16.8715   24.0008 C   0  0  0  0  0  0  0  0  0  0  0  0
   12.5885  -17.0868   24.3651 O   0  0  0  0  0  0  0  0  0  0  0  0
   12.9001  -18.3158   22.0592 C   0  0  0  0  0  0  0  0  0  0  0  0
   14.2609  -18.2461   22.4253 O   0  0  0  0  0  0  0  0  0  0  0  0
   10.5050  -16.6268   25.0425 O   0  0  0  0  0  0  0  0  0  0  0  0
   12.3701  -19.4604   22.0666 O   0  0  0  0  0  0  0  0  0  0  0  0
  2  1  1  6
  2  3  1  0
  4  5  2  0
  4  2  1  0
  6  4  1  0
  7 12  1  0
  7  6  1  0
  7  8  1  6
  9  8  1  0
 10  9  1  0
 11 10  2  0
 12 15  1  0
 13 12  2  0
 14 10  1  0
 15 16  1  0
 16 20  1  0
 17 18  1  0
 16 17  1  1
 18 22  1  0
 19 18  2  0
 20 23  2  0
 20 21  1  0
M  END
$$$$
