DSP.pdb
     RDKit          3D

 22 22  0  0  1  0  0  0  0  0999 V2000
   16.3081  -11.9658  -15.8650 N   0  0  0  0  0  0  0  0  0  0  0  0
   17.5846  -11.6001  -15.2884 C   0  0  1  0  0  0  0  0  0  0  0  0
   18.6999  -12.0883  -16.1810 C   0  0  0  0  0  0  0  0  0  0  0  0
   18.7660  -13.5631  -16.2701 C   0  0  0  0  0  0  0  0  0  0  0  0
   18.7921  -14.2422  -15.2192 O   0  0  0  0  0  0  0  0  0  0  0  0
   17.6781  -10.1045  -15.1199 C   0  0  0  0  0  0  0  0  0  0  0  0
   17.3795   -9.3751  -16.1029 O   0  0  0  0  0  0  0  0  0  0  0  0
   18.7985  -14.1498  -17.5544 O   0  0  0  0  0  0  0  0  0  0  0  0
   18.5769   -8.3431  -11.4643 O   0  0  0  0  0  0  0  0  0  0  0  0
   17.7541   -7.6603  -12.3647 C   0  0  0  0  0  0  0  0  0  0  0  0
   18.1469   -8.0194  -13.7939 C   0  0  2  0  0  0  0  0  0  0  0  0
   18.0811   -9.4919  -13.9173 N   0  0  0  0  0  0  0  0  0  0  0  0
   19.4996   -7.5695  -14.1246 C   0  0  0  0  0  0  0  0  0  0  0  0
   20.4331   -8.4459  -13.9287 O   0  0  0  0  0  0  0  0  0  0  0  0
   19.8759   -6.3062  -14.6271 N   0  0  0  0  0  0  0  0  0  0  0  0
   18.9729   -5.2386  -14.9995 C   0  0  0  0  0  0  0  0  0  0  0  0
   19.6530   -4.7946  -16.3012 C   0  0  0  0  0  0  0  0  0  0  0  0
   21.0539   -4.5816  -15.7512 C   0  0  0  0  0  0  0  0  0  0  0  0
   21.1922   -5.7859  -14.8349 C   0  0  1  0  0  0  0  0  0  0  0  0
   21.7283   -5.2717  -13.5231 C   0  0  0  0  0  0  0  0  0  0  0  0
   22.9257   -4.9211  -13.4183 O   0  0  0  0  0  0  0  0  0  0  0  0
   20.9089   -5.1796  -12.4194 O   0  0  0  0  0  0  0  0  0  0  0  0
  2  1  1  6
  2  3  1  0
  3  4  1  0
  4  8  1  0
  5  4  2  0
  6  2  1  0
  7  6  2  0
  9 10  1  0
 11 10  1  1
 11 13  1  0
 11 12  1  0
 12  6  1  0
 13 15  1  0
 14 13  2  0
 15 16  1  0
 15 19  1  0
 16 17  1  0
 17 18  1  0
 19 20  1  1
 19 18  1  0
 20 22  1  0
 21 20  2  0
M  END
$$$$
