DSP.pdb
     RDKit          3D

 22 22  0  0  1  0  0  0  0  0999 V2000
   15.9754  -25.4845   -3.9180 N   0  0  0  0  0  0  0  0  0  0  0  0
   15.8111  -25.6427   -2.4885 C   0  0  1  0  0  0  0  0  0  0  0  0
   16.9461  -26.4726   -1.9388 C   0  0  0  0  0  0  0  0  0  0  0  0
   16.5159  -27.8128   -1.4850 C   0  0  0  0  0  0  0  0  0  0  0  0
   15.3201  -28.1549   -1.6246 O   0  0  0  0  0  0  0  0  0  0  0  0
   15.7820  -24.2970   -1.8088 C   0  0  0  0  0  0  0  0  0  0  0  0
   16.7039  -23.4786   -2.0695 O   0  0  0  0  0  0  0  0  0  0  0  0
   17.4853  -28.6602   -0.9046 O   0  0  0  0  0  0  0  0  0  0  0  0
   12.8974  -21.3707   -1.2592 O   0  0  0  0  0  0  0  0  0  0  0  0
   13.2811  -22.1550   -0.1677 C   0  0  0  0  0  0  0  0  0  0  0  0
   14.7440  -22.5600   -0.3149 C   0  0  2  0  0  0  0  0  0  0  0  0
   14.7734  -23.9176   -0.9016 N   0  0  0  0  0  0  0  0  0  0  0  0
   15.4447  -22.5766    0.9697 C   0  0  0  0  0  0  0  0  0  0  0  0
   15.4127  -23.7088    1.5982 O   0  0  0  0  0  0  0  0  0  0  0  0
   16.1375  -21.5064    1.5737 N   0  0  0  0  0  0  0  0  0  0  0  0
   16.3858  -20.2123    0.9757 C   0  0  0  0  0  0  0  0  0  0  0  0
   17.8465  -20.0269    1.4074 C   0  0  0  0  0  0  0  0  0  0  0  0
   17.6630  -20.2633    2.8976 C   0  0  0  0  0  0  0  0  0  0  0  0
   16.6962  -21.4355    2.8887 C   0  0  1  0  0  0  0  0  0  0  0  0
   15.6008  -21.1000    3.8687 C   0  0  0  0  0  0  0  0  0  0  0  0
   14.4911  -20.6838    3.4651 O   0  0  0  0  0  0  0  0  0  0  0  0
   15.8041  -21.2465    5.2234 O   0  0  0  0  0  0  0  0  0  0  0  0
  2  1  1  6
  2  3  1  0
  3  4  1  0
  4  8  1  0
  5  4  2  0
  6  2  1  0
  7  6  2  0
  9 10  1  0
 11 10  1  1
 11 13  1  0
 11 12  1  0
 12  6  1  0
 13 15  1  0
 14 13  2  0
 15 16  1  0
 15 19  1  0
 16 17  1  0
 17 18  1  0
 19 20  1  1
 19 18  1  0
 20 22  1  0
 21 20  2  0
M  END
$$$$
