DSP.pdb
     RDKit          3D

 22 22  0  0  1  0  0  0  0  0999 V2000
   21.4959  -13.0674  -18.8062 N   0  0  0  0  0  0  0  0  0  0  0  0
   22.3763  -12.0587  -18.2558 C   0  0  1  0  0  0  0  0  0  0  0  0
   23.3576  -11.6139  -19.3133 C   0  0  0  0  0  0  0  0  0  0  0  0
   24.2933  -12.6843  -19.7210 C   0  0  0  0  0  0  0  0  0  0  0  0
   24.8533  -13.3788  -18.8434 O   0  0  0  0  0  0  0  0  0  0  0  0
   21.5808  -10.8764  -17.7628 C   0  0  0  0  0  0  0  0  0  0  0  0
   20.9554  -10.1849  -18.6102 O   0  0  0  0  0  0  0  0  0  0  0  0
   24.5189  -12.8786  -21.1016 O   0  0  0  0  0  0  0  0  0  0  0  0
   19.0125   -8.8051  -14.3452 O   0  0  0  0  0  0  0  0  0  0  0  0
   19.7297   -9.8774  -14.8835 C   0  0  0  0  0  0  0  0  0  0  0  0
   20.6822   -9.3693  -15.9607 C   0  0  2  0  0  0  0  0  0  0  0  0
   21.5060  -10.5154  -16.4033 N   0  0  0  0  0  0  0  0  0  0  0  0
   21.5608   -8.3089  -15.4659 C   0  0  0  0  0  0  0  0  0  0  0  0
   22.6482   -8.7189  -14.8936 O   0  0  0  0  0  0  0  0  0  0  0  0
   21.3455   -6.9174  -15.5525 N   0  0  0  0  0  0  0  0  0  0  0  0
   20.2103   -6.2724  -16.1765 C   0  0  0  0  0  0  0  0  0  0  0  0
   20.9502   -5.1464  -16.9107 C   0  0  0  0  0  0  0  0  0  0  0  0
   21.7142   -4.5808  -15.7247 C   0  0  0  0  0  0  0  0  0  0  0  0
   22.1460   -5.8570  -15.0221 C   0  0  1  0  0  0  0  0  0  0  0  0
   21.8176   -5.6789  -13.5616 C   0  0  0  0  0  0  0  0  0  0  0  0
   20.8399   -6.2722  -13.0520 O   0  0  0  0  0  0  0  0  0  0  0  0
   22.5884   -4.8607  -12.7651 O   0  0  0  0  0  0  0  0  0  0  0  0
  2  1  1  6
  2  3  1  0
  3  4  1  0
  4  8  1  0
  5  4  2  0
  6  2  1  0
  7  6  2  0
  9 10  1  0
 11 10  1  1
 11 13  1  0
 11 12  1  0
 12  6  1  0
 13 15  1  0
 14 13  2  0
 15 16  1  0
 15 19  1  0
 16 17  1  0
 17 18  1  0
 19 20  1  1
 19 18  1  0
 20 22  1  0
 21 20  2  0
M  END
$$$$
