DSP.pdb
     RDKit          3D

 22 22  0  0  1  0  0  0  0  0999 V2000
   28.9743  -21.4945  -18.7326 N   0  0  0  0  0  0  0  0  0  0  0  0
   28.6663  -22.3827  -17.6318 C   0  0  1  0  0  0  0  0  0  0  0  0
   29.7593  -23.4152  -17.4955 C   0  0  0  0  0  0  0  0  0  0  0  0
   29.7340  -24.4297  -18.5713 C   0  0  0  0  0  0  0  0  0  0  0  0
   30.6892  -24.4954  -19.3773 O   0  0  0  0  0  0  0  0  0  0  0  0
   28.5316  -21.6040  -16.3476 C   0  0  0  0  0  0  0  0  0  0  0  0
   29.4866  -20.8592  -16.0002 O   0  0  0  0  0  0  0  0  0  0  0  0
   28.6177  -25.2917  -18.6450 O   0  0  0  0  0  0  0  0  0  0  0  0
   26.6284  -18.2668  -14.4241 O   0  0  0  0  0  0  0  0  0  0  0  0
   26.9816  -19.2937  -15.3041 C   0  0  0  0  0  0  0  0  0  0  0  0
   27.0922  -20.6094  -14.5406 C   0  0  2  0  0  0  0  0  0  0  0  0
   27.3898  -21.6721  -15.5255 N   0  0  0  0  0  0  0  0  0  0  0  0
   25.8556  -20.9430  -13.8328 C   0  0  0  0  0  0  0  0  0  0  0  0
   24.9239  -21.4606  -14.5689 O   0  0  0  0  0  0  0  0  0  0  0  0
   25.5876  -20.7631  -12.4595 N   0  0  0  0  0  0  0  0  0  0  0  0
   26.4481  -20.0930  -11.5084 C   0  0  0  0  0  0  0  0  0  0  0  0
   26.3144  -21.0725  -10.3350 C   0  0  0  0  0  0  0  0  0  0  0  0
   24.7972  -21.1007  -10.2489 C   0  0  0  0  0  0  0  0  0  0  0  0
   24.4236  -21.1458  -11.7211 C   0  0  1  0  0  0  0  0  0  0  0  0
   23.3500  -20.1076  -11.9268 C   0  0  0  0  0  0  0  0  0  0  0  0
   22.2109  -20.2630  -11.4307 O   0  0  0  0  0  0  0  0  0  0  0  0
   23.6058  -18.9719  -12.6635 O   0  0  0  0  0  0  0  0  0  0  0  0
  2  1  1  6
  2  3  1  0
  3  4  1  0
  4  8  1  0
  5  4  2  0
  6  2  1  0
  7  6  2  0
  9 10  1  0
 11 10  1  6
 11 13  1  0
 11 12  1  0
 12  6  1  0
 13 15  1  0
 14 13  2  0
 15 16  1  0
 15 19  1  0
 16 17  1  0
 17 18  1  0
 19 20  1  1
 19 18  1  0
 20 22  1  0
 21 20  2  0
M  END
$$$$
