DSP.pdb
     RDKit          3D

 22 22  0  0  1  0  0  0  0  0999 V2000
   22.4377   -5.6581  -16.4079 N   0  0  0  0  0  0  0  0  0  0  0  0
   22.0802   -6.6279  -15.3944 C   0  0  1  0  0  0  0  0  0  0  0  0
   21.2633   -5.9549  -14.3179 C   0  0  0  0  0  0  0  0  0  0  0  0
   22.0421   -4.9781  -13.5263 C   0  0  0  0  0  0  0  0  0  0  0  0
   21.7913   -3.7570  -13.6373 O   0  0  0  0  0  0  0  0  0  0  0  0
   21.2942   -7.7616  -16.0031 C   0  0  0  0  0  0  0  0  0  0  0  0
   20.3935   -7.4804  -16.8381 O   0  0  0  0  0  0  0  0  0  0  0  0
   23.0499   -5.4714  -12.6686 O   0  0  0  0  0  0  0  0  0  0  0  0
   21.0275  -12.5257  -16.9076 O   0  0  0  0  0  0  0  0  0  0  0  0
   21.6292  -11.4770  -16.2061 C   0  0  0  0  0  0  0  0  0  0  0  0
   20.8172  -10.2000  -16.3946 C   0  0  2  0  0  0  0  0  0  0  0  0
   21.5237   -9.1136  -15.6813 N   0  0  0  0  0  0  0  0  0  0  0  0
   19.4609  -10.3235  -15.8593 C   0  0  0  0  0  0  0  0  0  0  0  0
   19.3336  -10.0118  -14.6085 O   0  0  0  0  0  0  0  0  0  0  0  0
   18.3062  -10.7359  -16.5570 N   0  0  0  0  0  0  0  0  0  0  0  0
   18.2528  -11.1345  -17.9470 C   0  0  0  0  0  0  0  0  0  0  0  0
   16.9648  -10.4067  -18.3541 C   0  0  0  0  0  0  0  0  0  0  0  0
   16.0542  -10.9553  -17.2678 C   0  0  0  0  0  0  0  0  0  0  0  0
   16.9743  -10.8958  -16.0601 C   0  0  1  0  0  0  0  0  0  0  0  0
   16.8667  -12.2309  -15.3683 C   0  0  0  0  0  0  0  0  0  0  0  0
   17.7952  -13.0668  -15.4499 O   0  0  0  0  0  0  0  0  0  0  0  0
   15.7450  -12.5516  -14.6354 O   0  0  0  0  0  0  0  0  0  0  0  0
  2  1  1  6
  2  3  1  0
  3  4  1  0
  4  8  1  0
  5  4  2  0
  6  2  1  0
  7  6  2  0
  9 10  1  0
 11 10  1  1
 11 13  1  0
 11 12  1  0
 12  6  1  0
 13 15  1  0
 14 13  2  0
 15 16  1  0
 15 19  1  0
 16 17  1  0
 17 18  1  0
 19 20  1  6
 19 18  1  0
 20 22  1  0
 21 20  2  0
M  END
$$$$
