DSP.pdb
     RDKit          3D

 22 22  0  0  1  0  0  0  0  0999 V2000
   15.5098  -11.6023  -15.0464 N   0  0  0  0  0  0  0  0  0  0  0  0
   15.7347  -10.1943  -15.2964 C   0  0  1  0  0  0  0  0  0  0  0  0
   14.8398   -9.3733  -14.3994 C   0  0  0  0  0  0  0  0  0  0  0  0
   13.4033   -9.5331  -14.7127 C   0  0  0  0  0  0  0  0  0  0  0  0
   12.9550   -9.0820  -15.7905 O   0  0  0  0  0  0  0  0  0  0  0  0
   17.1786   -9.8383  -15.0470 C   0  0  0  0  0  0  0  0  0  0  0  0
   17.7225  -10.2623  -13.9925 O   0  0  0  0  0  0  0  0  0  0  0  0
   12.5877  -10.1955  -13.7690 O   0  0  0  0  0  0  0  0  0  0  0  0
   19.4697   -8.2474  -18.0330 O   0  0  0  0  0  0  0  0  0  0  0  0
   20.0899   -9.0339  -17.0581 C   0  0  0  0  0  0  0  0  0  0  0  0
   19.3876   -8.8404  -15.7183 C   0  0  2  0  0  0  0  0  0  0  0  0
   17.9411   -9.0582  -15.9381 N   0  0  0  0  0  0  0  0  0  0  0  0
   19.5940   -7.4973  -15.1752 C   0  0  0  0  0  0  0  0  0  0  0  0
   18.6252   -6.6641  -15.3873 O   0  0  0  0  0  0  0  0  0  0  0  0
   20.7168   -7.0343  -14.4575 N   0  0  0  0  0  0  0  0  0  0  0  0
   21.8802   -7.8192  -14.1046 C   0  0  0  0  0  0  0  0  0  0  0  0
   22.0672   -7.3321  -12.6617 C   0  0  0  0  0  0  0  0  0  0  0  0
   22.0915   -5.8380  -12.9395 C   0  0  0  0  0  0  0  0  0  0  0  0
   20.9803   -5.7159  -13.9686 C   0  0  1  0  0  0  0  0  0  0  0  0
   21.5249   -4.8754  -15.0954 C   0  0  0  0  0  0  0  0  0  0  0  0
   21.7472   -3.6546  -14.9290 O   0  0  0  0  0  0  0  0  0  0  0  0
   21.7867   -5.4380  -16.3255 O   0  0  0  0  0  0  0  0  0  0  0  0
  2  1  1  1
  2  3  1  0
  3  4  1  0
  4  8  1  0
  5  4  2  0
  6  2  1  0
  7  6  2  0
  9 10  1  0
 11 10  1  6
 11 13  1  0
 11 12  1  0
 12  6  1  0
 13 15  1  0
 14 13  2  0
 15 16  1  0
 15 19  1  0
 16 17  1  0
 17 18  1  0
 19 20  1  6
 19 18  1  0
 20 22  1  0
 21 20  2  0
M  END
$$$$
