DSP.pdb
     RDKit          3D

 22 22  0  0  1  0  0  0  0  0999 V2000
   15.9274  -16.0583    6.5449 N   0  0  0  0  0  0  0  0  0  0  0  0
   16.3556  -16.5119    7.8511 C   0  0  1  0  0  0  0  0  0  0  0  0
   16.2856  -18.0189    7.9100 C   0  0  0  0  0  0  0  0  0  0  0  0
   14.9325  -18.5230    8.2296 C   0  0  0  0  0  0  0  0  0  0  0  0
   13.9706  -17.7232    8.2650 O   0  0  0  0  0  0  0  0  0  0  0  0
   17.7632  -16.0512    8.1341 C   0  0  0  0  0  0  0  0  0  0  0  0
   18.6651  -16.3506    7.3068 O   0  0  0  0  0  0  0  0  0  0  0  0
   14.7818  -19.9037    8.4859 O   0  0  0  0  0  0  0  0  0  0  0  0
   20.7658  -13.2383   10.7119 O   0  0  0  0  0  0  0  0  0  0  0  0
   19.4779  -13.7545   10.5424 C   0  0  0  0  0  0  0  0  0  0  0  0
   19.5085  -14.8873    9.5219 C   0  0  2  0  0  0  0  0  0  0  0  0
   18.1104  -15.3034    9.2763 N   0  0  0  0  0  0  0  0  0  0  0  0
   20.2759  -16.0389    9.9976 C   0  0  0  0  0  0  0  0  0  0  0  0
   19.5698  -16.9937   10.5150 O   0  0  0  0  0  0  0  0  0  0  0  0
   21.6755  -16.2076    9.9454 N   0  0  0  0  0  0  0  0  0  0  0  0
   22.6164  -15.2995    9.3255 C   0  0  0  0  0  0  0  0  0  0  0  0
   23.5175  -16.3285    8.6302 C   0  0  0  0  0  0  0  0  0  0  0  0
   23.8296  -17.1946    9.8396 C   0  0  0  0  0  0  0  0  0  0  0  0
   22.4688  -17.2541   10.5131 C   0  0  1  0  0  0  0  0  0  0  0  0
   22.6960  -16.9589   11.9739 C   0  0  0  0  0  0  0  0  0  0  0  0
   22.3789  -15.8476   12.4556 O   0  0  0  0  0  0  0  0  0  0  0  0
   23.2559  -17.9076   12.8012 O   0  0  0  0  0  0  0  0  0  0  0  0
  2  1  1  6
  2  3  1  0
  3  4  1  0
  4  8  1  0
  5  4  2  0
  6  2  1  0
  7  6  2  0
  9 10  1  0
 11 10  1  1
 11 13  1  0
 11 12  1  0
 12  6  1  0
 13 15  1  0
 14 13  2  0
 15 16  1  0
 15 19  1  0
 16 17  1  0
 17 18  1  0
 19 20  1  1
 19 18  1  0
 20 22  1  0
 21 20  2  0
M  END
$$$$
