DSP.pdb
     RDKit          3D

 22 22  0  0  1  0  0  0  0  0999 V2000
   20.5819  -12.9968  -17.8846 N   0  0  0  0  0  0  0  0  0  0  0  0
   21.2393  -11.7114  -17.9892 C   0  0  1  0  0  0  0  0  0  0  0  0
   21.0119  -11.1391  -19.3677 C   0  0  0  0  0  0  0  0  0  0  0  0
   21.8173  -11.8085  -20.4119 C   0  0  0  0  0  0  0  0  0  0  0  0
   21.6582  -13.0320  -20.6215 O   0  0  0  0  0  0  0  0  0  0  0  0
   20.7099  -10.7616  -16.9445 C   0  0  0  0  0  0  0  0  0  0  0  0
   19.4636  -10.7053  -16.7683 O   0  0  0  0  0  0  0  0  0  0  0  0
   22.7450  -11.0283  -21.1368 O   0  0  0  0  0  0  0  0  0  0  0  0
   22.9140   -9.6541  -13.8476 O   0  0  0  0  0  0  0  0  0  0  0  0
   21.5248   -9.5176  -13.7749 C   0  0  0  0  0  0  0  0  0  0  0  0
   20.9831   -9.0502  -15.1217 C   0  0  2  0  0  0  0  0  0  0  0  0
   21.5443   -9.9408  -16.1608 N   0  0  0  0  0  0  0  0  0  0  0  0
   21.3599   -7.6679  -15.4192 C   0  0  0  0  0  0  0  0  0  0  0  0
   22.4602   -7.5304  -16.0887 O   0  0  0  0  0  0  0  0  0  0  0  0
   20.6566   -6.4991  -15.0593 N   0  0  0  0  0  0  0  0  0  0  0  0
   19.4399   -6.4487  -14.2775 C   0  0  0  0  0  0  0  0  0  0  0  0
   18.6754   -5.3987  -15.0942 C   0  0  0  0  0  0  0  0  0  0  0  0
   19.7387   -4.3125  -15.0989 C   0  0  0  0  0  0  0  0  0  0  0  0
   20.9940   -5.1361  -15.3330 C   0  0  1  0  0  0  0  0  0  0  0  0
   22.0111   -4.6709  -14.3222 C   0  0  0  0  0  0  0  0  0  0  0  0
   22.5945   -3.5724  -14.4656 O   0  0  0  0  0  0  0  0  0  0  0  0
   22.3140   -5.4472  -13.2252 O   0  0  0  0  0  0  0  0  0  0  0  0
  2  1  1  6
  2  3  1  0
  3  4  1  0
  4  8  1  0
  5  4  2  0
  6  2  1  0
  7  6  2  0
  9 10  1  0
 11 10  1  1
 11 13  1  0
 11 12  1  0
 12  6  1  0
 13 15  1  0
 14 13  2  0
 15 16  1  0
 15 19  1  0
 16 17  1  0
 17 18  1  0
 19 20  1  1
 19 18  1  0
 20 22  1  0
 21 20  2  0
M  END
$$$$
