DSP.pdb
     RDKit          3D

 22 22  0  0  1  0  0  0  0  0999 V2000
   17.8472  -11.8978  -16.2814 N   0  0  0  0  0  0  0  0  0  0  0  0
   18.5708  -10.8184  -16.9194 C   0  0  1  0  0  0  0  0  0  0  0  0
   17.7587  -10.2784  -18.0717 C   0  0  0  0  0  0  0  0  0  0  0  0
   17.6001  -11.2517  -19.1739 C   0  0  0  0  0  0  0  0  0  0  0  0
   18.5721  -11.9652  -19.5089 O   0  0  0  0  0  0  0  0  0  0  0  0
   18.8551   -9.7168  -15.9298 C   0  0  0  0  0  0  0  0  0  0  0  0
   17.8982   -9.2762  -15.2386 O   0  0  0  0  0  0  0  0  0  0  0  0
   16.3422  -11.3345  -19.8107 O   0  0  0  0  0  0  0  0  0  0  0  0
   21.8088   -7.7739  -12.8007 O   0  0  0  0  0  0  0  0  0  0  0  0
   21.5243   -8.6931  -13.8147 C   0  0  0  0  0  0  0  0  0  0  0  0
   20.3927   -8.1613  -14.6878 C   0  0  2  0  0  0  0  0  0  0  0  0
   20.1373   -9.1637  -15.7452 N   0  0  0  0  0  0  0  0  0  0  0  0
   20.7305   -6.8811  -15.3109 C   0  0  0  0  0  0  0  0  0  0  0  0
   21.4622   -6.9650  -16.3765 O   0  0  0  0  0  0  0  0  0  0  0  0
   20.3433   -5.5961  -14.8764 N   0  0  0  0  0  0  0  0  0  0  0  0
   19.4355   -5.3073  -13.7871 C   0  0  0  0  0  0  0  0  0  0  0  0
   18.6229   -4.1847  -14.4457 C   0  0  0  0  0  0  0  0  0  0  0  0
   19.7820   -3.2917  -14.8571 C   0  0  0  0  0  0  0  0  0  0  0  0
   20.7775   -4.3226  -15.3624 C   0  0  1  0  0  0  0  0  0  0  0  0
   22.1056   -3.9854  -14.7339 C   0  0  0  0  0  0  0  0  0  0  0  0
   22.5518   -4.6679  -13.7838 O   0  0  0  0  0  0  0  0  0  0  0  0
   22.8489   -2.9212  -15.1955 O   0  0  0  0  0  0  0  0  0  0  0  0
  2  1  1  1
  2  3  1  0
  3  4  1  0
  4  8  1  0
  5  4  2  0
  6  2  1  0
  7  6  2  0
  9 10  1  0
 11 10  1  1
 11 13  1  0
 11 12  1  0
 12  6  1  0
 13 15  1  0
 14 13  2  0
 15 16  1  0
 15 19  1  0
 16 17  1  0
 17 18  1  0
 19 20  1  1
 19 18  1  0
 20 22  1  0
 21 20  2  0
M  END
$$$$
