DSP.pdb
     RDKit          3D

 22 22  0  0  1  0  0  0  0  0999 V2000
   16.7426  -12.2071  -15.4751 N   0  0  0  0  0  0  0  0  0  0  0  0
   16.6215  -10.8048  -15.8130 C   0  0  1  0  0  0  0  0  0  0  0  0
   15.6239  -10.1476  -14.8899 C   0  0  0  0  0  0  0  0  0  0  0  0
   14.2319  -10.5795  -15.1407 C   0  0  0  0  0  0  0  0  0  0  0  0
   13.8811  -10.8797  -16.3040 O   0  0  0  0  0  0  0  0  0  0  0  0
   17.9586  -10.1172  -15.6983 C   0  0  0  0  0  0  0  0  0  0  0  0
   18.5993  -10.2380  -14.6202 O   0  0  0  0  0  0  0  0  0  0  0  0
   13.3456  -10.6344  -14.0424 O   0  0  0  0  0  0  0  0  0  0  0  0
   21.6786   -7.9510  -17.9434 O   0  0  0  0  0  0  0  0  0  0  0  0
   20.3899   -8.4877  -18.0146 C   0  0  0  0  0  0  0  0  0  0  0  0
   19.8640   -8.7500  -16.6073 C   0  0  2  0  0  0  0  0  0  0  0  0
   18.5192   -9.3517  -16.7394 N   0  0  0  0  0  0  0  0  0  0  0  0
   19.7656   -7.5227  -15.8166 C   0  0  0  0  0  0  0  0  0  0  0  0
   18.6256   -6.9120  -15.8898 O   0  0  0  0  0  0  0  0  0  0  0  0
   20.7661   -6.9557  -14.9995 N   0  0  0  0  0  0  0  0  0  0  0  0
   22.0867   -7.5024  -14.7735 C   0  0  0  0  0  0  0  0  0  0  0  0
   22.1872   -7.2647  -13.2610 C   0  0  0  0  0  0  0  0  0  0  0  0
   21.8594   -5.7806  -13.2533 C   0  0  0  0  0  0  0  0  0  0  0  0
   20.7281   -5.7278  -14.2664 C   0  0  1  0  0  0  0  0  0  0  0  0
   21.0393   -4.5883  -15.2031 C   0  0  0  0  0  0  0  0  0  0  0  0
   21.4316   -4.8130  -16.3706 O   0  0  0  0  0  0  0  0  0  0  0  0
   20.8965   -3.2822  -14.7888 O   0  0  0  0  0  0  0  0  0  0  0  0
  2  1  1  1
  2  3  1  0
  3  4  1  0
  4  8  1  0
  5  4  2  0
  6  2  1  0
  7  6  2  0
  9 10  1  0
 11 10  1  6
 11 13  1  0
 11 12  1  0
 12  6  1  0
 13 15  1  0
 14 13  2  0
 15 16  1  0
 15 19  1  0
 16 17  1  0
 17 18  1  0
 19 20  1  6
 19 18  1  0
 20 22  1  0
 21 20  2  0
M  END
$$$$
