DSP.pdb
     RDKit          3D

 22 22  0  0  1  0  0  0  0  0999 V2000
   26.5519  -20.0731  -18.4549 N   0  0  0  0  0  0  0  0  0  0  0  0
   27.6013  -19.7779  -17.5024 C   0  0  1  0  0  0  0  0  0  0  0  0
   28.5024  -18.7033  -18.0614 C   0  0  0  0  0  0  0  0  0  0  0  0
   29.1970  -19.1172  -19.2997 C   0  0  0  0  0  0  0  0  0  0  0  0
   29.0754  -18.4236  -20.3343 O   0  0  0  0  0  0  0  0  0  0  0  0
   27.0110  -19.3233  -16.1914 C   0  0  0  0  0  0  0  0  0  0  0  0
   27.7937  -18.8852  -15.3065 O   0  0  0  0  0  0  0  0  0  0  0  0
   29.9772  -20.2939  -19.2617 O   0  0  0  0  0  0  0  0  0  0  0  0
   23.1771  -18.3401  -15.8960 O   0  0  0  0  0  0  0  0  0  0  0  0
   24.0127  -17.8984  -14.8662 C   0  0  0  0  0  0  0  0  0  0  0  0
   25.0985  -18.9368  -14.6043 C   0  0  2  0  0  0  0  0  0  0  0  0
   25.6303  -19.3658  -15.9162 N   0  0  0  0  0  0  0  0  0  0  0  0
   24.5845  -20.1052  -13.8888 C   0  0  0  0  0  0  0  0  0  0  0  0
   24.1293  -21.0547  -14.6432 O   0  0  0  0  0  0  0  0  0  0  0  0
   24.5409  -20.2948  -12.4916 N   0  0  0  0  0  0  0  0  0  0  0  0
   25.0791  -19.3925  -11.4964 C   0  0  0  0  0  0  0  0  0  0  0  0
   25.7253  -20.4251  -10.5635 C   0  0  0  0  0  0  0  0  0  0  0  0
   24.5106  -21.3133  -10.3498 C   0  0  0  0  0  0  0  0  0  0  0  0
   23.9353  -21.3615  -11.7554 C   0  0  1  0  0  0  0  0  0  0  0  0
   22.4577  -21.0910  -11.6274 C   0  0  0  0  0  0  0  0  0  0  0  0
   21.7003  -21.9333  -11.0941 O   0  0  0  0  0  0  0  0  0  0  0  0
   21.9183  -19.9128  -12.0951 O   0  0  0  0  0  0  0  0  0  0  0  0
  2  1  1  6
  2  3  1  0
  3  4  1  0
  4  8  1  0
  5  4  2  0
  6  2  1  0
  7  6  2  0
  9 10  1  0
 11 10  1  6
 11 13  1  0
 11 12  1  0
 12  6  1  0
 13 15  1  0
 14 13  2  0
 15 16  1  0
 15 19  1  0
 16 17  1  0
 17 18  1  0
 19 20  1  1
 19 18  1  0
 20 22  1  0
 21 20  2  0
M  END
$$$$
