DSP.pdb
     RDKit          3D

 22 22  0  0  1  0  0  0  0  0999 V2000
   20.6001  -16.5145  -18.3994 N   0  0  0  0  0  0  0  0  0  0  0  0
   20.5163  -15.1981  -17.8032 C   0  0  1  0  0  0  0  0  0  0  0  0
   19.9199  -15.3074  -16.4206 C   0  0  0  0  0  0  0  0  0  0  0  0
   18.4969  -15.7102  -16.4347 C   0  0  0  0  0  0  0  0  0  0  0  0
   17.7481  -15.2912  -17.3458 O   0  0  0  0  0  0  0  0  0  0  0  0
   21.8833  -14.5665  -17.7249 C   0  0  0  0  0  0  0  0  0  0  0  0
   22.8915  -15.3181  -17.8038 O   0  0  0  0  0  0  0  0  0  0  0  0
   18.0374  -16.5608  -15.4051 O   0  0  0  0  0  0  0  0  0  0  0  0
   25.0400  -11.8359  -19.2505 O   0  0  0  0  0  0  0  0  0  0  0  0
   23.7840  -12.4362  -19.1240 C   0  0  0  0  0  0  0  0  0  0  0  0
   23.4327  -12.5867  -17.6476 C   0  0  2  0  0  0  0  0  0  0  0  0
   22.0801  -13.1804  -17.5699 N   0  0  0  0  0  0  0  0  0  0  0  0
   23.4348  -11.3027  -16.9455 C   0  0  0  0  0  0  0  0  0  0  0  0
   22.3136  -10.6551  -16.9817 O   0  0  0  0  0  0  0  0  0  0  0  0
   24.5120  -10.7177  -16.2473 N   0  0  0  0  0  0  0  0  0  0  0  0
   25.8507  -11.2580  -16.1472 C   0  0  0  0  0  0  0  0  0  0  0  0
   26.1052  -10.9891  -14.6582 C   0  0  0  0  0  0  0  0  0  0  0  0
   25.7749   -9.5055  -14.6470 C   0  0  0  0  0  0  0  0  0  0  0  0
   24.5454   -9.4751  -15.5393 C   0  0  1  0  0  0  0  0  0  0  0  0
   24.7548   -8.3547  -16.5260 C   0  0  0  0  0  0  0  0  0  0  0  0
   25.0004   -8.6030  -17.7284 O   0  0  0  0  0  0  0  0  0  0  0  0
   24.6790   -7.0405  -16.1199 O   0  0  0  0  0  0  0  0  0  0  0  0
  2  1  1  1
  2  3  1  0
  3  4  1  0
  4  8  1  0
  5  4  2  0
  6  2  1  0
  7  6  2  0
  9 10  1  0
 11 10  1  6
 11 13  1  0
 11 12  1  0
 12  6  1  0
 13 15  1  0
 14 13  2  0
 15 16  1  0
 15 19  1  0
 16 17  1  0
 17 18  1  0
 19 20  1  6
 19 18  1  0
 20 22  1  0
 21 20  2  0
M  END
$$$$
