DSP.pdb
     RDKit          3D

 22 22  0  0  1  0  0  0  0  0999 V2000
   21.2126  -15.0261  -19.3603 N   0  0  0  0  0  0  0  0  0  0  0  0
   20.2112  -14.1606  -18.7742 C   0  0  1  0  0  0  0  0  0  0  0  0
   19.5009  -14.8924  -17.6610 C   0  0  0  0  0  0  0  0  0  0  0  0
   18.6441  -15.9951  -18.1481 C   0  0  0  0  0  0  0  0  0  0  0  0
   18.1661  -16.8108  -17.3281 O   0  0  0  0  0  0  0  0  0  0  0  0
   20.8488  -12.9036  -18.2383 C   0  0  0  0  0  0  0  0  0  0  0  0
   22.0017  -12.9882  -17.7373 O   0  0  0  0  0  0  0  0  0  0  0  0
   18.3996  -16.0824  -19.5363 O   0  0  0  0  0  0  0  0  0  0  0  0
   20.9697   -8.0671  -18.1630 O   0  0  0  0  0  0  0  0  0  0  0  0
   20.3800   -9.2522  -18.6120 C   0  0  0  0  0  0  0  0  0  0  0  0
   20.9034  -10.4285  -17.7946 C   0  0  2  0  0  0  0  0  0  0  0  0
   20.2149  -11.6463  -18.2753 N   0  0  0  0  0  0  0  0  0  0  0  0
   20.6463  -10.2646  -16.3634 C   0  0  0  0  0  0  0  0  0  0  0  0
   19.5210  -10.7532  -15.9479 O   0  0  0  0  0  0  0  0  0  0  0  0
   21.4862   -9.6443  -15.4147 N   0  0  0  0  0  0  0  0  0  0  0  0
   22.7583   -9.0131  -15.6930 C   0  0  0  0  0  0  0  0  0  0  0  0
   23.5571   -9.5503  -14.4982 C   0  0  0  0  0  0  0  0  0  0  0  0
   22.6080   -9.1186  -13.3922 C   0  0  0  0  0  0  0  0  0  0  0  0
   21.2639   -9.4591  -14.0137 C   0  0  1  0  0  0  0  0  0  0  0  0
   20.3777   -8.2561  -13.8133 C   0  0  0  0  0  0  0  0  0  0  0  0
   20.1134   -7.4936  -14.7705 O   0  0  0  0  0  0  0  0  0  0  0  0
   19.8449   -7.9775  -12.5737 O   0  0  0  0  0  0  0  0  0  0  0  0
  2  1  1  1
  2  3  1  0
  3  4  1  0
  4  8  1  0
  5  4  2  0
  6  2  1  0
  7  6  2  0
  9 10  1  0
 11 10  1  6
 11 13  1  0
 11 12  1  0
 12  6  1  0
 13 15  1  0
 14 13  2  0
 15 16  1  0
 15 19  1  0
 16 17  1  0
 17 18  1  0
 19 20  1  6
 19 18  1  0
 20 22  1  0
 21 20  2  0
M  END
$$$$
