DSP.pdb
     RDKit          3D

 22 22  0  0  1  0  0  0  0  0999 V2000
   16.6281  -12.3808  -16.6603 N   0  0  0  0  0  0  0  0  0  0  0  0
   16.6050  -11.1901  -15.8374 C   0  0  1  0  0  0  0  0  0  0  0  0
   16.0093  -11.5194  -14.4899 C   0  0  0  0  0  0  0  0  0  0  0  0
   14.5719  -11.8602  -14.5605 C   0  0  0  0  0  0  0  0  0  0  0  0
   13.8380  -11.2635  -15.3801 O   0  0  0  0  0  0  0  0  0  0  0  0
   17.9990  -10.6422  -15.6633 C   0  0  0  0  0  0  0  0  0  0  0  0
   18.9232  -11.4479  -15.3730 O   0  0  0  0  0  0  0  0  0  0  0  0
   14.0821  -12.8566  -13.6877 O   0  0  0  0  0  0  0  0  0  0  0  0
   19.5619   -7.9777  -17.9330 O   0  0  0  0  0  0  0  0  0  0  0  0
   20.3150   -8.7960  -17.0863 C   0  0  0  0  0  0  0  0  0  0  0  0
   19.7028   -8.7921  -15.6895 C   0  0  2  0  0  0  0  0  0  0  0  0
   18.3106   -9.2766  -15.8121 N   0  0  0  0  0  0  0  0  0  0  0  0
   19.6957   -7.4558  -15.0932 C   0  0  0  0  0  0  0  0  0  0  0  0
   18.6171   -6.7685  -15.2985 O   0  0  0  0  0  0  0  0  0  0  0  0
   20.7229   -6.8594  -14.3321 N   0  0  0  0  0  0  0  0  0  0  0  0
   21.9508   -7.5015  -13.9148 C   0  0  0  0  0  0  0  0  0  0  0  0
   22.0127   -6.9823  -12.4723 C   0  0  0  0  0  0  0  0  0  0  0  0
   21.8783   -5.4980  -12.7711 C   0  0  0  0  0  0  0  0  0  0  0  0
   20.8100   -5.5148  -13.8515 C   0  0  1  0  0  0  0  0  0  0  0  0
   21.3070   -4.6280  -14.9648 C   0  0  0  0  0  0  0  0  0  0  0  0
   21.3953   -3.3899  -14.8011 O   0  0  0  0  0  0  0  0  0  0  0  0
   21.6717   -5.1665  -16.1793 O   0  0  0  0  0  0  0  0  0  0  0  0
  2  1  1  6
  2  3  1  0
  3  4  1  0
  4  8  1  0
  5  4  2  0
  6  2  1  0
  7  6  2  0
  9 10  1  0
 11 10  1  6
 11 13  1  0
 11 12  1  0
 12  6  1  0
 13 15  1  0
 14 13  2  0
 15 16  1  0
 15 19  1  0
 16 17  1  0
 17 18  1  0
 19 20  1  6
 19 18  1  0
 20 22  1  0
 21 20  2  0
M  END
$$$$
