TCK.pdb
     RDKit          3D

 23 22  0  0  1  0  0  0  0  0999 V2000
   28.4126  -18.0677  -15.8729 C   0  0  0  0  0  0  0  0  0  0  0  0
   27.3756  -18.9252  -15.2169 C   0  0  1  0  0  0  0  0  0  0  0  0
   26.2673  -19.0899  -16.0434 O   0  0  0  0  0  0  0  0  0  0  0  0
   27.9344  -20.2648  -14.7725 C   0  0  2  0  0  0  0  0  0  0  0  0
   28.0709  -21.0715  -15.9796 N   0  0  0  0  0  0  0  0  0  0  0  0
   26.9056  -20.9072  -13.9108 C   0  0  0  0  0  0  0  0  0  0  0  0
   26.0269  -21.6073  -14.5210 O   0  0  0  0  0  0  0  0  0  0  0  0
   26.8792  -20.7672  -12.4958 N   0  0  0  0  0  0  0  0  0  0  0  0
   25.7740  -21.2098  -11.7115 C   0  0  1  0  0  0  0  0  0  0  0  0
   25.9825  -20.8932  -10.2385 C   0  0  0  0  0  0  0  0  0  0  0  0
   24.4935  -21.1936   -9.2727 S   0  0  0  0  0  0  0  0  0  0  0  0
   24.4965  -20.5101  -12.1024 C   0  0  0  0  0  0  0  0  0  0  0  0
   24.3952  -19.2560  -12.0799 O   0  0  0  0  0  0  0  0  0  0  0  0
   23.3530  -21.2439  -12.5129 N   0  0  0  0  0  0  0  0  0  0  0  0
   22.1050  -20.6231  -12.9223 C   0  0  1  0  0  0  0  0  0  0  0  0
   21.9585  -20.4832  -14.3828 C   0  0  0  0  0  0  0  0  0  0  0  0
   20.7504  -19.8590  -14.9416 C   0  0  0  0  0  0  0  0  0  0  0  0
   20.7326  -19.7921  -16.4466 C   0  0  0  0  0  0  0  0  0  0  0  0
   19.4119  -19.1772  -16.8765 C   0  0  0  0  0  0  0  0  0  0  0  0
   19.4044  -19.1495  -18.3288 N   0  0  0  0  0  0  0  0  0  0  0  0
   21.0081  -21.2758  -12.1927 C   0  0  0  0  0  0  0  0  0  0  0  0
   19.8354  -20.8501  -12.2704 O   0  0  0  0  0  0  0  0  0  0  0  0
   21.2263  -22.3824  -11.3938 O   0  0  0  0  0  0  0  0  0  0  0  0
  2  1  1  6
  2  3  1  0
  4  5  1  6
  4  2  1  0
  6  4  1  0
  6  7  2  0
  8  6  1  0
  9  8  1  0
  9 12  1  0
  9 10  1  1
 11 10  1  0
 12 14  1  0
 13 12  2  0
 14 15  1  0
 15 21  1  0
 16 17  1  0
 15 16  1  6
 18 17  1  0
 18 19  1  0
 20 19  1  0
 21 22  2  0
 21 23  1  0
M  END
$$$$
