TCK.pdb
     RDKit          3D

 23 22  0  0  1  0  0  0  0  0999 V2000
   19.1592  -11.4399  -17.1733 C   0  0  0  0  0  0  0  0  0  0  0  0
   19.2746  -10.2845  -16.2286 C   0  0  1  0  0  0  0  0  0  0  0  0
   20.0481  -10.6200  -15.1206 O   0  0  0  0  0  0  0  0  0  0  0  0
   19.8026   -9.0351  -16.9101 C   0  0  2  0  0  0  0  0  0  0  0  0
   21.1864   -9.3201  -17.2711 N   0  0  0  0  0  0  0  0  0  0  0  0
   19.8129   -7.9493  -15.8929 C   0  0  0  0  0  0  0  0  0  0  0  0
   18.6717   -7.6170  -15.4221 O   0  0  0  0  0  0  0  0  0  0  0  0
   21.0031   -7.3057  -15.4549 N   0  0  0  0  0  0  0  0  0  0  0  0
   20.9764   -6.1621  -14.6040 C   0  0  1  0  0  0  0  0  0  0  0  0
   22.3644   -5.8394  -14.0722 C   0  0  0  0  0  0  0  0  0  0  0  0
   22.3868   -4.2879  -13.1598 S   0  0  0  0  0  0  0  0  0  0  0  0
   20.5252   -4.9272  -15.3427 C   0  0  0  0  0  0  0  0  0  0  0  0
   21.0943   -4.5414  -16.3966 O   0  0  0  0  0  0  0  0  0  0  0  0
   19.4348   -4.1485  -14.8744 N   0  0  0  0  0  0  0  0  0  0  0  0
   18.9602   -2.9485  -15.5417 C   0  0  1  0  0  0  0  0  0  0  0  0
   17.5426   -3.0091  -15.9428 C   0  0  0  0  0  0  0  0  0  0  0  0
   16.8936   -1.8239  -16.5219 C   0  0  0  0  0  0  0  0  0  0  0  0
   15.4564   -2.0415  -16.9182 C   0  0  0  0  0  0  0  0  0  0  0  0
   14.9422   -0.7607  -17.5524 C   0  0  0  0  0  0  0  0  0  0  0  0
   13.5580   -0.9933  -17.9266 N   0  0  0  0  0  0  0  0  0  0  0  0
   19.3896   -1.7853  -14.7517 C   0  0  0  0  0  0  0  0  0  0  0  0
   19.5674   -0.6695  -15.2865 O   0  0  0  0  0  0  0  0  0  0  0  0
   19.6139   -1.8759  -13.3909 O   0  0  0  0  0  0  0  0  0  0  0  0
  2  1  1  6
  2  3  1  0
  4  5  1  1
  4  2  1  0
  6  4  1  0
  6  7  2  0
  8  6  1  0
  9  8  1  0
  9 12  1  0
  9 10  1  6
 11 10  1  0
 12 14  1  0
 13 12  2  0
 14 15  1  0
 15 21  1  0
 16 17  1  0
 15 16  1  1
 18 17  1  0
 18 19  1  0
 20 19  1  0
 21 22  2  0
 21 23  1  0
M  END
$$$$
