TCK.pdb
     RDKit          3D

 23 22  0  0  1  0  0  0  0  0999 V2000
   26.8518  -15.8250  -14.4552 C   0  0  0  0  0  0  0  0  0  0  0  0
   25.8786  -15.1863  -15.3964 C   0  0  1  0  0  0  0  0  0  0  0  0
   26.4304  -15.0459  -16.6670 O   0  0  0  0  0  0  0  0  0  0  0  0
   24.5570  -15.9311  -15.4499 C   0  0  2  0  0  0  0  0  0  0  0  0
   24.7850  -17.1094  -16.2783 N   0  0  0  0  0  0  0  0  0  0  0  0
   23.5867  -15.0562  -16.1618 C   0  0  0  0  0  0  0  0  0  0  0  0
   23.4608  -15.2701  -17.4159 O   0  0  0  0  0  0  0  0  0  0  0  0
   22.8345  -14.0393  -15.5116 N   0  0  0  0  0  0  0  0  0  0  0  0
   21.8594  -13.2608  -16.2011 C   0  0  1  0  0  0  0  0  0  0  0  0
   20.4678  -13.4926  -15.6325 C   0  0  0  0  0  0  0  0  0  0  0  0
   19.9918  -15.2265  -15.7156 S   0  0  0  0  0  0  0  0  0  0  0  0
   22.1193  -11.7826  -16.0537 C   0  0  0  0  0  0  0  0  0  0  0  0
   22.4992  -11.2830  -14.9630 O   0  0  0  0  0  0  0  0  0  0  0  0
   21.9443  -10.8935  -17.1461 N   0  0  0  0  0  0  0  0  0  0  0  0
   22.2517   -9.4750  -17.0839 C   0  0  1  0  0  0  0  0  0  0  0  0
   22.2792   -8.8115  -18.4004 C   0  0  0  0  0  0  0  0  0  0  0  0
   22.4586   -7.3547  -18.4832 C   0  0  0  0  0  0  0  0  0  0  0  0
   22.3805   -6.8040  -19.8834 C   0  0  0  0  0  0  0  0  0  0  0  0
   22.6330   -5.3076  -19.8171 C   0  0  0  0  0  0  0  0  0  0  0  0
   22.4087   -4.7755  -21.1500 N   0  0  0  0  0  0  0  0  0  0  0  0
   21.4117   -8.8700  -16.0399 C   0  0  0  0  0  0  0  0  0  0  0  0
   21.8270   -7.9162  -15.3468 O   0  0  0  0  0  0  0  0  0  0  0  0
   20.1335   -9.3281  -15.7819 O   0  0  0  0  0  0  0  0  0  0  0  0
  2  1  1  1
  2  3  1  0
  4  5  1  6
  4  2  1  0
  6  4  1  0
  6  7  2  0
  8  6  1  0
  9  8  1  0
  9 12  1  0
  9 10  1  1
 11 10  1  0
 12 14  1  0
 13 12  2  0
 14 15  1  0
 15 21  1  0
 16 17  1  0
 15 16  1  6
 18 17  1  0
 18 19  1  0
 20 19  1  0
 21 22  2  0
 21 23  1  0
M  END
$$$$
