TCK.pdb
     RDKit          3D

 23 22  0  0  1  0  0  0  0  0999 V2000
   22.3462  -22.3552  -16.1817 C   0  0  0  0  0  0  0  0  0  0  0  0
   23.5053  -21.4167  -16.3109 C   0  0  1  0  0  0  0  0  0  0  0  0
   23.9618  -21.3639  -17.6252 O   0  0  0  0  0  0  0  0  0  0  0  0
   23.1838  -20.0299  -15.7842 C   0  0  2  0  0  0  0  0  0  0  0  0
   24.4150  -19.2560  -15.8919 N   0  0  0  0  0  0  0  0  0  0  0  0
   22.8613  -20.1715  -14.3386 C   0  0  0  0  0  0  0  0  0  0  0  0
   23.7170  -19.6786  -13.5267 O   0  0  0  0  0  0  0  0  0  0  0  0
   21.6826  -20.8103  -13.8640 N   0  0  0  0  0  0  0  0  0  0  0  0
   21.1688  -20.5757  -12.5551 C   0  0  1  0  0  0  0  0  0  0  0  0
   20.8005  -19.1125  -12.3625 C   0  0  0  0  0  0  0  0  0  0  0  0
   20.2284  -18.7818  -10.6882 S   0  0  0  0  0  0  0  0  0  0  0  0
   19.9001  -21.3519  -12.3061 C   0  0  0  0  0  0  0  0  0  0  0  0
   18.8866  -21.2166  -13.0398 O   0  0  0  0  0  0  0  0  0  0  0  0
   19.8002  -22.2700  -11.2283 N   0  0  0  0  0  0  0  0  0  0  0  0
   18.6993  -23.2046  -11.0692 C   0  0  1  0  0  0  0  0  0  0  0  0
   18.9927  -24.3228  -10.1540 C   0  0  0  0  0  0  0  0  0  0  0  0
   17.9791  -25.3610   -9.9169 C   0  0  0  0  0  0  0  0  0  0  0  0
   18.4592  -26.5058   -9.0632 C   0  0  0  0  0  0  0  0  0  0  0  0
   17.3070  -27.4800   -8.8882 C   0  0  0  0  0  0  0  0  0  0  0  0
   17.8326  -28.6464   -8.2002 N   0  0  0  0  0  0  0  0  0  0  0  0
   17.4744  -22.4308  -10.8196 C   0  0  0  0  0  0  0  0  0  0  0  0
   17.5191  -21.3044  -10.2793 O   0  0  0  0  0  0  0  0  0  0  0  0
   16.2277  -22.9137  -11.1699 O   0  0  0  0  0  0  0  0  0  0  0  0
  2  1  1  6
  2  3  1  0
  4  5  1  1
  4  2  1  0
  6  4  1  0
  6  7  2  0
  8  6  1  0
  9  8  1  0
  9 12  1  0
  9 10  1  6
 11 10  1  0
 12 14  1  0
 13 12  2  0
 14 15  1  0
 15 21  1  0
 16 17  1  0
 15 16  1  1
 18 17  1  0
 18 19  1  0
 20 19  1  0
 21 22  2  0
 21 23  1  0
M  END
$$$$
