TCK.pdb
     RDKit          3D

 23 22  0  0  1  0  0  0  0  0999 V2000
   25.6410  -13.1524  -15.5619 C   0  0  0  0  0  0  0  0  0  0  0  0
   24.6815  -12.0926  -16.0061 C   0  0  1  0  0  0  0  0  0  0  0  0
   25.0232  -11.6044  -17.2644 O   0  0  0  0  0  0  0  0  0  0  0  0
   23.2413  -12.5711  -15.9743 C   0  0  2  0  0  0  0  0  0  0  0  0
   23.0680  -13.4245  -17.1440 N   0  0  0  0  0  0  0  0  0  0  0  0
   22.3754  -11.3745  -16.1528 C   0  0  0  0  0  0  0  0  0  0  0  0
   22.0612  -11.0900  -17.3590 O   0  0  0  0  0  0  0  0  0  0  0  0
   21.9130  -10.5805  -15.0673 N   0  0  0  0  0  0  0  0  0  0  0  0
   21.0333   -9.4750  -15.2584 C   0  0  1  0  0  0  0  0  0  0  0  0
   19.8321   -9.5605  -14.3292 C   0  0  0  0  0  0  0  0  0  0  0  0
   18.7922   -8.0958  -14.4442 S   0  0  0  0  0  0  0  0  0  0  0  0
   21.7059   -8.1643  -14.9362 C   0  0  0  0  0  0  0  0  0  0  0  0
   22.3923   -8.0116  -13.8926 O   0  0  0  0  0  0  0  0  0  0  0  0
   21.5897   -7.0464  -15.8031 N   0  0  0  0  0  0  0  0  0  0  0  0
   22.1926   -5.7530  -15.5306 C   0  0  1  0  0  0  0  0  0  0  0  0
   22.1421   -4.8185  -16.6699 C   0  0  0  0  0  0  0  0  0  0  0  0
   22.6723   -3.4552  -16.5235 C   0  0  0  0  0  0  0  0  0  0  0  0
   22.5499   -2.6109  -17.7653 C   0  0  0  0  0  0  0  0  0  0  0  0
   23.2572   -1.2910  -17.5108 C   0  0  0  0  0  0  0  0  0  0  0  0
   23.1199   -0.4916  -18.7159 N   0  0  0  0  0  0  0  0  0  0  0  0
   21.6801   -5.2722  -14.2391 C   0  0  0  0  0  0  0  0  0  0  0  0
   22.4544   -4.8610  -13.3480 O   0  0  0  0  0  0  0  0  0  0  0  0
   20.3272   -5.2547  -13.9571 O   0  0  0  0  0  0  0  0  0  0  0  0
  2  1  1  6
  2  3  1  0
  4  5  1  6
  4  2  1  0
  6  4  1  0
  6  7  2  0
  8  6  1  0
  9  8  1  0
  9 12  1  0
  9 10  1  1
 11 10  1  0
 12 14  1  0
 13 12  2  0
 14 15  1  0
 15 21  1  0
 16 17  1  0
 15 16  1  6
 18 17  1  0
 18 19  1  0
 20 19  1  0
 21 22  2  0
 21 23  1  0
M  END
$$$$
