TCK.pdb
     RDKit          3D

 23 22  0  0  1  0  0  0  0  0999 V2000
   29.8945  -15.6707  -22.7834 C   0  0  0  0  0  0  0  0  0  0  0  0
   29.8727  -14.6734  -21.6672 C   0  0  1  0  0  0  0  0  0  0  0  0
   28.5690  -14.2882  -21.3664 O   0  0  0  0  0  0  0  0  0  0  0  0
   30.5962  -15.1775  -20.4316 C   0  0  2  0  0  0  0  0  0  0  0  0
   29.7435  -16.2078  -19.8503 N   0  0  0  0  0  0  0  0  0  0  0  0
   30.6629  -14.0460  -19.4678 C   0  0  0  0  0  0  0  0  0  0  0  0
   29.7222  -13.9952  -18.6035 O   0  0  0  0  0  0  0  0  0  0  0  0
   31.6967  -13.0696  -19.4855 N   0  0  0  0  0  0  0  0  0  0  0  0
   31.7494  -12.0052  -18.5386 C   0  0  1  0  0  0  0  0  0  0  0  0
   33.1693  -11.4855  -18.3731 C   0  0  0  0  0  0  0  0  0  0  0  0
   33.6795  -11.4723  -16.6470 S   0  0  0  0  0  0  0  0  0  0  0  0
   30.9306  -10.8201  -18.9850 C   0  0  0  0  0  0  0  0  0  0  0  0
   31.0140  -10.3604  -20.1535 O   0  0  0  0  0  0  0  0  0  0  0  0
   30.0294  -10.1742  -18.0989 N   0  0  0  0  0  0  0  0  0  0  0  0
   29.1767   -9.0645  -18.4890 C   0  0  1  0  0  0  0  0  0  0  0  0
   27.7769   -9.2026  -18.0468 C   0  0  0  0  0  0  0  0  0  0  0  0
   26.8025   -8.1467  -18.3579 C   0  0  0  0  0  0  0  0  0  0  0  0
   25.4110   -8.4253  -17.8520 C   0  0  0  0  0  0  0  0  0  0  0  0
   24.4938   -7.3281  -18.3639 C   0  0  0  0  0  0  0  0  0  0  0  0
   23.1524   -7.6403  -17.9019 N   0  0  0  0  0  0  0  0  0  0  0  0
   29.8713   -7.8132  -18.1521 C   0  0  0  0  0  0  0  0  0  0  0  0
   29.8096   -6.8161  -18.9035 O   0  0  0  0  0  0  0  0  0  0  0  0
   30.6182   -7.6872  -16.9961 O   0  0  0  0  0  0  0  0  0  0  0  0
  2  1  1  6
  2  3  1  0
  4  5  1  1
  4  2  1  0
  6  4  1  0
  6  7  2  0
  8  6  1  0
  9  8  1  0
  9 12  1  0
  9 10  1  6
 11 10  1  0
 12 14  1  0
 13 12  2  0
 14 15  1  0
 15 21  1  0
 16 17  1  0
 15 16  1  1
 18 17  1  0
 18 19  1  0
 20 19  1  0
 21 22  2  0
 21 23  1  0
M  END
$$$$
