TCK.pdb
     RDKit          3D

 23 22  0  0  1  0  0  0  0  0999 V2000
   21.9894  -11.8201  -20.3883 C   0  0  0  0  0  0  0  0  0  0  0  0
   21.9439  -13.2375  -19.9087 C   0  0  1  0  0  0  0  0  0  0  0  0
   21.6701  -14.1115  -20.9573 O   0  0  0  0  0  0  0  0  0  0  0  0
   23.2116  -13.6375  -19.1759 C   0  0  2  0  0  0  0  0  0  0  0  0
   22.9976  -15.0001  -18.7026 N   0  0  0  0  0  0  0  0  0  0  0  0
   23.3281  -12.7555  -17.9834 C   0  0  0  0  0  0  0  0  0  0  0  0
   22.4824  -12.9690  -17.0487 O   0  0  0  0  0  0  0  0  0  0  0  0
   24.3090  -11.7325  -17.8660 N   0  0  0  0  0  0  0  0  0  0  0  0
   24.3060  -10.8007  -16.7870 C   0  0  1  0  0  0  0  0  0  0  0  0
   25.7149  -10.3259  -16.4659 C   0  0  0  0  0  0  0  0  0  0  0  0
   25.7409   -9.2222  -15.0443 S   0  0  0  0  0  0  0  0  0  0  0  0
   23.5236   -9.5569  -17.1258 C   0  0  0  0  0  0  0  0  0  0  0  0
   23.7560   -8.8924  -18.1688 O   0  0  0  0  0  0  0  0  0  0  0  0
   22.4890   -9.0856  -16.2759 N   0  0  0  0  0  0  0  0  0  0  0  0
   21.6741   -7.9203  -16.5734 C   0  0  1  0  0  0  0  0  0  0  0  0
   20.2473   -8.2271  -16.7835 C   0  0  0  0  0  0  0  0  0  0  0  0
   19.2824   -7.1338  -16.9706 C   0  0  0  0  0  0  0  0  0  0  0  0
   17.8734   -7.5958  -17.2372 C   0  0  0  0  0  0  0  0  0  0  0  0
   16.9841   -6.3682  -17.3335 C   0  0  0  0  0  0  0  0  0  0  0  0
   15.6117   -6.8380  -17.4118 N   0  0  0  0  0  0  0  0  0  0  0  0
   22.0028   -6.8707  -15.5977 C   0  0  0  0  0  0  0  0  0  0  0  0
   22.4011   -7.1574  -14.4480 O   0  0  0  0  0  0  0  0  0  0  0  0
   21.8861   -5.5292  -15.9090 O   0  0  0  0  0  0  0  0  0  0  0  0
  2  1  1  6
  2  3  1  0
  4  5  1  1
  4  2  1  0
  6  4  1  0
  6  7  2  0
  8  6  1  0
  9  8  1  0
  9 12  1  0
  9 10  1  6
 11 10  1  0
 12 14  1  0
 13 12  2  0
 14 15  1  0
 15 21  1  0
 16 17  1  0
 15 16  1  1
 18 17  1  0
 18 19  1  0
 20 19  1  0
 21 22  2  0
 21 23  1  0
M  END
$$$$
