TCK.pdb
     RDKit          3D

 23 22  0  0  1  0  0  0  0  0999 V2000
   22.8697  -21.1929  -11.8722 C   0  0  0  0  0  0  0  0  0  0  0  0
   23.3526  -20.6699  -10.5553 C   0  0  1  0  0  0  0  0  0  0  0  0
   22.6508  -21.2470   -9.5004 O   0  0  0  0  0  0  0  0  0  0  0  0
   24.8503  -20.8456  -10.3811 C   0  0  2  0  0  0  0  0  0  0  0  0
   25.1863  -20.2413   -9.0972 N   0  0  0  0  0  0  0  0  0  0  0  0
   25.5144  -20.0473  -11.4466 C   0  0  0  0  0  0  0  0  0  0  0  0
   25.2956  -18.7881  -11.4164 O   0  0  0  0  0  0  0  0  0  0  0  0
   26.3448  -20.6241  -12.4467 N   0  0  0  0  0  0  0  0  0  0  0  0
   26.8713  -19.8584  -13.5279 C   0  0  1  0  0  0  0  0  0  0  0  0
   28.2001  -20.4231  -14.0064 C   0  0  0  0  0  0  0  0  0  0  0  0
   28.1277  -22.2081  -14.2267 S   0  0  0  0  0  0  0  0  0  0  0  0
   25.9594  -19.8878  -14.7287 C   0  0  0  0  0  0  0  0  0  0  0  0
   25.2063  -20.8681  -14.9640 O   0  0  0  0  0  0  0  0  0  0  0  0
   25.9158  -18.8045  -15.6447 N   0  0  0  0  0  0  0  0  0  0  0  0
   24.9970  -18.7394  -16.7681 C   0  0  1  0  0  0  0  0  0  0  0  0
   23.8261  -17.8748  -16.5328 C   0  0  0  0  0  0  0  0  0  0  0  0
   22.5054  -18.4771  -16.2996 C   0  0  0  0  0  0  0  0  0  0  0  0
   22.2435  -19.7188  -17.1117 C   0  0  0  0  0  0  0  0  0  0  0  0
   20.8071  -20.1483  -16.8679 C   0  0  0  0  0  0  0  0  0  0  0  0
   20.6269  -21.4329  -17.5218 N   0  0  0  0  0  0  0  0  0  0  0  0
   25.7816  -18.4971  -17.9876 C   0  0  0  0  0  0  0  0  0  0  0  0
   26.8123  -17.7902  -17.9645 O   0  0  0  0  0  0  0  0  0  0  0  0
   25.4144  -19.0381  -19.2054 O   0  0  0  0  0  0  0  0  0  0  0  0
  2  1  1  6
  2  3  1  0
  4  5  1  1
  4  2  1  0
  6  4  1  0
  6  7  2  0
  8  6  1  0
  9  8  1  0
  9 12  1  0
  9 10  1  6
 11 10  1  0
 12 14  1  0
 13 12  2  0
 14 15  1  0
 15 21  1  0
 16 17  1  0
 15 16  1  1
 18 17  1  0
 18 19  1  0
 20 19  1  0
 21 22  2  0
 21 23  1  0
M  END
$$$$
