TCK.pdb
     RDKit          3D

 23 22  0  0  1  0  0  0  0  0999 V2000
   28.5653  -18.7072  -15.5813 C   0  0  0  0  0  0  0  0  0  0  0  0
   27.3530  -19.3921  -15.0312 C   0  0  1  0  0  0  0  0  0  0  0  0
   26.2842  -19.3064  -15.9193 O   0  0  0  0  0  0  0  0  0  0  0  0
   27.6326  -20.8331  -14.6444 C   0  0  2  0  0  0  0  0  0  0  0  0
   27.8147  -21.5636  -15.8932 N   0  0  0  0  0  0  0  0  0  0  0  0
   26.4063  -21.3582  -13.9856 C   0  0  0  0  0  0  0  0  0  0  0  0
   25.5906  -21.9836  -14.7458 O   0  0  0  0  0  0  0  0  0  0  0  0
   26.1351  -21.1888  -12.5998 N   0  0  0  0  0  0  0  0  0  0  0  0
   24.8884  -21.5666  -12.0205 C   0  0  1  0  0  0  0  0  0  0  0  0
   24.9017  -21.3738  -10.5118 C   0  0  0  0  0  0  0  0  0  0  0  0
   25.2747  -19.6723  -10.0583 S   0  0  0  0  0  0  0  0  0  0  0  0
   23.7545  -20.7133  -12.5308 C   0  0  0  0  0  0  0  0  0  0  0  0
   23.8776  -19.4701  -12.6816 O   0  0  0  0  0  0  0  0  0  0  0  0
   22.4977  -21.2835  -12.8625 N   0  0  0  0  0  0  0  0  0  0  0  0
   21.3909  -20.5214  -13.4146 C   0  0  1  0  0  0  0  0  0  0  0  0
   21.3129  -20.5624  -14.8864 C   0  0  0  0  0  0  0  0  0  0  0  0
   20.2081  -19.8851  -15.5808 C   0  0  0  0  0  0  0  0  0  0  0  0
   20.2041  -20.0873  -17.0737 C   0  0  0  0  0  0  0  0  0  0  0  0
   19.1071  -19.2187  -17.6650 C   0  0  0  0  0  0  0  0  0  0  0  0
   19.1559  -19.3889  -19.1068 N   0  0  0  0  0  0  0  0  0  0  0  0
   20.1759  -20.8696  -12.6636 C   0  0  0  0  0  0  0  0  0  0  0  0
   19.2560  -20.0392  -12.4995 O   0  0  0  0  0  0  0  0  0  0  0  0
   20.0001  -22.1238  -12.1100 O   0  0  0  0  0  0  0  0  0  0  0  0
  2  1  1  6
  2  3  1  0
  4  5  1  6
  4  2  1  0
  6  4  1  0
  6  7  2  0
  8  6  1  0
  9  8  1  0
  9 12  1  0
  9 10  1  1
 11 10  1  0
 12 14  1  0
 13 12  2  0
 14 15  1  0
 15 21  1  0
 16 17  1  0
 15 16  1  6
 18 17  1  0
 18 19  1  0
 20 19  1  0
 21 22  2  0
 21 23  1  0
M  END
$$$$
