TCK.pdb
     RDKit          3D

 23 22  0  0  1  0  0  0  0  0999 V2000
   18.8289   -9.1341  -17.6915 C   0  0  0  0  0  0  0  0  0  0  0  0
   18.5653  -10.1622  -16.6358 C   0  0  1  0  0  0  0  0  0  0  0  0
   18.3063  -11.4068  -17.2035 O   0  0  0  0  0  0  0  0  0  0  0  0
   19.6900  -10.2444  -15.6197 C   0  0  2  0  0  0  0  0  0  0  0  0
   19.3004  -11.2714  -14.6607 N   0  0  0  0  0  0  0  0  0  0  0  0
   19.7297   -8.9427  -14.9002 C   0  0  0  0  0  0  0  0  0  0  0  0
   18.7464   -8.7095  -14.1172 O   0  0  0  0  0  0  0  0  0  0  0  0
   20.7832   -8.0001  -15.0560 N   0  0  0  0  0  0  0  0  0  0  0  0
   20.8090   -6.7679  -14.3395 C   0  0  1  0  0  0  0  0  0  0  0  0
   22.2190   -6.2018  -14.2687 C   0  0  0  0  0  0  0  0  0  0  0  0
   22.2493   -4.5777  -13.4931 S   0  0  0  0  0  0  0  0  0  0  0  0
   19.9780   -5.7092  -15.0198 C   0  0  0  0  0  0  0  0  0  0  0  0
   20.1011   -5.4581  -16.2468 O   0  0  0  0  0  0  0  0  0  0  0  0
   19.0196   -4.9511  -14.2978 N   0  0  0  0  0  0  0  0  0  0  0  0
   18.1551   -3.9572  -14.9105 C   0  0  1  0  0  0  0  0  0  0  0  0
   16.7444   -4.3740  -15.0124 C   0  0  0  0  0  0  0  0  0  0  0  0
   15.7501   -3.4593  -15.5920 C   0  0  0  0  0  0  0  0  0  0  0  0
   14.3686   -4.0484  -15.7120 C   0  0  0  0  0  0  0  0  0  0  0  0
   13.4726   -3.0192  -16.3792 C   0  0  0  0  0  0  0  0  0  0  0  0
   12.1451   -3.6020  -16.4713 N   0  0  0  0  0  0  0  0  0  0  0  0
   18.4320   -2.6584  -14.2796 C   0  0  0  0  0  0  0  0  0  0  0  0
   19.1508   -2.5740  -13.2603 O   0  0  0  0  0  0  0  0  0  0  0  0
   17.9117   -1.4816  -14.7843 O   0  0  0  0  0  0  0  0  0  0  0  0
  2  1  1  6
  2  3  1  0
  4  5  1  1
  4  2  1  0
  6  4  1  0
  6  7  2  0
  8  6  1  0
  9  8  1  0
  9 12  1  0
  9 10  1  6
 11 10  1  0
 12 14  1  0
 13 12  2  0
 14 15  1  0
 15 21  1  0
 16 17  1  0
 15 16  1  1
 18 17  1  0
 18 19  1  0
 20 19  1  0
 21 22  2  0
 21 23  1  0
M  END
$$$$
