TCK.pdb
     RDKit          3D

 23 22  0  0  1  0  0  0  0  0999 V2000
   24.6653   -8.4771  -18.0349 C   0  0  0  0  0  0  0  0  0  0  0  0
   24.6677   -9.9569  -17.8082 C   0  0  1  0  0  0  0  0  0  0  0  0
   25.8339  -10.5363  -18.3009 O   0  0  0  0  0  0  0  0  0  0  0  0
   24.4491  -10.3154  -16.3495 C   0  0  2  0  0  0  0  0  0  0  0  0
   24.4828  -11.7715  -16.2769 N   0  0  0  0  0  0  0  0  0  0  0  0
   23.0747   -9.8743  -15.9886 C   0  0  0  0  0  0  0  0  0  0  0  0
   22.1233  -10.4343  -16.6334 O   0  0  0  0  0  0  0  0  0  0  0  0
   22.8092   -8.8937  -14.9934 N   0  0  0  0  0  0  0  0  0  0  0  0
   21.4856   -8.4552  -14.6965 C   0  0  1  0  0  0  0  0  0  0  0  0
   21.2417   -8.4182  -13.1956 C   0  0  0  0  0  0  0  0  0  0  0  0
   21.1928  -10.0713  -12.4851 S   0  0  0  0  0  0  0  0  0  0  0  0
   21.2407   -7.0494  -15.1844 C   0  0  0  0  0  0  0  0  0  0  0  0
   22.0836   -6.1316  -15.0087 O   0  0  0  0  0  0  0  0  0  0  0  0
   20.0432   -6.7060  -15.8645 N   0  0  0  0  0  0  0  0  0  0  0  0
   19.7686   -5.3782  -16.3860 C   0  0  1  0  0  0  0  0  0  0  0  0
   19.8522   -5.2843  -17.8551 C   0  0  0  0  0  0  0  0  0  0  0  0
   19.5987   -3.9994  -18.5229 C   0  0  0  0  0  0  0  0  0  0  0  0
   19.7603   -4.0419  -20.0202 C   0  0  0  0  0  0  0  0  0  0  0  0
   19.5851   -2.6309  -20.5545 C   0  0  0  0  0  0  0  0  0  0  0  0
   19.7419   -2.6962  -21.9972 N   0  0  0  0  0  0  0  0  0  0  0  0
   18.5425   -4.8796  -15.7459 C   0  0  0  0  0  0  0  0  0  0  0  0
   17.6612   -5.6653  -15.3350 O   0  0  0  0  0  0  0  0  0  0  0  0
   18.3135   -3.5277  -15.5722 O   0  0  0  0  0  0  0  0  0  0  0  0
  2  1  1  1
  2  3  1  0
  4  5  1  6
  4  2  1  0
  6  4  1  0
  6  7  2  0
  8  6  1  0
  9  8  1  0
  9 12  1  0
  9 10  1  1
 11 10  1  0
 12 14  1  0
 13 12  2  0
 14 15  1  0
 15 21  1  0
 16 17  1  0
 15 16  1  6
 18 17  1  0
 18 19  1  0
 20 19  1  0
 21 22  2  0
 21 23  1  0
M  END
$$$$
