DIC.pdb
     RDKit          3D

 23 22  0  0  1  0  0  0  0  0999 V2000
    8.7958  -14.9341   20.5475 N   0  0  0  0  0  0  0  0  0  0  0  0
    8.1418  -15.6897   21.5855 C   0  0  1  0  0  0  0  0  0  0  0  0
    8.5007  -17.1607   21.3986 C   0  0  0  0  0  0  0  0  0  0  0  0
    7.9319  -17.6288   20.1380 C   0  0  0  0  0  0  0  0  0  0  0  0
    6.6962  -17.7661   20.0012 O   0  0  0  0  0  0  0  0  0  0  0  0
    8.6435  -15.2666   22.9009 C   0  0  0  0  0  0  0  0  0  0  0  0
    9.8833  -14.9717   22.9994 O   0  0  0  0  0  0  0  0  0  0  0  0
    8.7571  -17.9285   19.0712 O   0  0  0  0  0  0  0  0  0  0  0  0
    6.1751  -11.5624   25.4032 C   0  0  0  0  0  0  0  0  0  0  0  0
    7.2334  -12.5256   25.0336 C   0  0  0  0  0  0  0  0  0  0  0  0
    7.4338  -13.7301   25.8469 C   0  0  2  0  0  0  0  0  0  0  0  0
    7.6050  -13.4146   27.3350 C   0  0  0  0  0  0  0  0  0  0  0  0
    8.4109  -14.7303   25.3724 C   0  0  2  0  0  0  0  0  0  0  0  0
    7.8469  -15.1669   24.0526 N   0  0  0  0  0  0  0  0  0  0  0  0
    8.6472  -15.9494   26.1070 C   0  0  0  0  0  0  0  0  0  0  0  0
    7.8012  -16.9198   26.0057 O   0  0  0  0  0  0  0  0  0  0  0  0
    9.7435  -16.2673   26.9717 N   0  0  0  0  0  0  0  0  0  0  0  0
   10.1462  -17.6290   27.2319 C   0  0  1  0  0  0  0  0  0  0  0  0
   10.9941  -18.0819   26.0322 C   0  0  0  0  0  0  0  0  0  0  0  0
   11.5034  -19.7855   26.4205 S   0  0  0  0  0  0  0  0  0  0  0  0
   10.9396  -17.8176   28.4563 C   0  0  0  0  0  0  0  0  0  0  0  0
   10.7180  -18.8748   29.3220 O   0  0  0  0  0  0  0  0  0  0  0  0
   11.8472  -17.0058   28.7386 O   0  0  0  0  0  0  0  0  0  0  0  0
  2  1  1  6
  2  3  1  0
  3  4  1  0
  4  8  1  0
  4  5  2  0
  6  2  1  0
  6  7  2  0
  9 10  1  0
 10 11  1  0
 11 13  1  0
 11 12  1  1
 13 14  1  6
 14  6  1  0
 15 13  1  0
 16 15  2  0
 17 15  1  0
 18 19  1  6
 18 17  1  0
 19 20  1  0
 21 22  1  0
 21 18  1  0
 23 21  2  0
M  END
$$$$
