DIC.pdb
     RDKit          3D

 23 22  0  0  1  0  0  0  0  0999 V2000
   10.6266  -17.6380   16.9573 N   0  0  0  0  0  0  0  0  0  0  0  0
    9.7430  -17.8921   18.0667 C   0  0  1  0  0  0  0  0  0  0  0  0
   10.0824  -19.2654   18.6379 C   0  0  0  0  0  0  0  0  0  0  0  0
    9.6568  -20.2898   17.6885 C   0  0  0  0  0  0  0  0  0  0  0  0
    8.4873  -20.3105   17.2454 O   0  0  0  0  0  0  0  0  0  0  0  0
    9.9705  -16.8955   19.1231 C   0  0  0  0  0  0  0  0  0  0  0  0
   11.1754  -16.5376   19.3556 O   0  0  0  0  0  0  0  0  0  0  0  0
   10.5469  -21.2572   17.2635 O   0  0  0  0  0  0  0  0  0  0  0  0
    6.9583  -12.5718   19.4751 C   0  0  0  0  0  0  0  0  0  0  0  0
    8.1188  -13.4587   19.7018 C   0  0  0  0  0  0  0  0  0  0  0  0
    8.1305  -14.3549   20.8633 C   0  0  2  0  0  0  0  0  0  0  0  0
    7.8664  -13.6181   22.1789 C   0  0  0  0  0  0  0  0  0  0  0  0
    9.2392  -15.3231   20.9786 C   0  0  2  0  0  0  0  0  0  0  0  0
    8.9487  -16.3140   19.8904 N   0  0  0  0  0  0  0  0  0  0  0  0
    9.4198  -16.1119   22.1731 C   0  0  0  0  0  0  0  0  0  0  0  0
    8.5389  -17.0061   22.4764 O   0  0  0  0  0  0  0  0  0  0  0  0
   10.4922  -16.0569   23.1205 N   0  0  0  0  0  0  0  0  0  0  0  0
   10.5779  -16.9684   24.2368 C   0  0  1  0  0  0  0  0  0  0  0  0
   10.8106  -18.3711   23.6522 C   0  0  0  0  0  0  0  0  0  0  0  0
   12.3950  -18.2635   22.7632 S   0  0  0  0  0  0  0  0  0  0  0  0
   11.6598  -16.6798   25.1909 C   0  0  0  0  0  0  0  0  0  0  0  0
   11.9021  -17.4805   26.2938 O   0  0  0  0  0  0  0  0  0  0  0  0
   12.3932  -15.6832   25.0145 O   0  0  0  0  0  0  0  0  0  0  0  0
  2  1  1  6
  2  3  1  0
  3  4  1  0
  4  8  1  0
  4  5  2  0
  6  2  1  0
  6  7  2  0
  9 10  1  0
 10 11  1  0
 11 13  1  0
 11 12  1  1
 13 14  1  6
 14  6  1  0
 15 13  1  0
 16 15  2  0
 17 15  1  0
 18 19  1  6
 18 17  1  0
 19 20  1  0
 21 22  1  0
 21 18  1  0
 23 21  2  0
M  END
$$$$
