DIC.pdb
     RDKit          3D

 23 22  0  0  1  0  0  0  0  0999 V2000
   12.2627  -16.9311   19.9273 N   0  0  0  0  0  0  0  0  0  0  0  0
   11.7866  -17.5528   21.1369 C   0  0  1  0  0  0  0  0  0  0  0  0
   12.9541  -18.2960   21.7789 C   0  0  0  0  0  0  0  0  0  0  0  0
   13.2817  -19.4586   20.9586 C   0  0  0  0  0  0  0  0  0  0  0  0
   12.3819  -20.1941   20.4962 O   0  0  0  0  0  0  0  0  0  0  0  0
   11.3340  -16.5217   22.0819 C   0  0  0  0  0  0  0  0  0  0  0  0
   12.0494  -15.4696   22.2041 O   0  0  0  0  0  0  0  0  0  0  0  0
   14.6000  -19.7643   20.6800 O   0  0  0  0  0  0  0  0  0  0  0  0
    6.6433  -14.7107   21.4785 C   0  0  0  0  0  0  0  0  0  0  0  0
    8.0349  -14.8137   21.9657 C   0  0  0  0  0  0  0  0  0  0  0  0
    8.2933  -15.3079   23.3227 C   0  0  2  0  0  0  0  0  0  0  0  0
    7.4747  -14.5694   24.3847 C   0  0  0  0  0  0  0  0  0  0  0  0
    9.6987  -15.4980   23.7335 C   0  0  2  0  0  0  0  0  0  0  0  0
   10.1673  -16.6212   22.8565 N   0  0  0  0  0  0  0  0  0  0  0  0
   10.0353  -15.8991   25.0779 C   0  0  0  0  0  0  0  0  0  0  0  0
    9.9816  -17.1501   25.3939 O   0  0  0  0  0  0  0  0  0  0  0  0
   10.4523  -15.0756   26.1728 N   0  0  0  0  0  0  0  0  0  0  0  0
   10.8561  -15.6326   27.4420 C   0  0  1  0  0  0  0  0  0  0  0  0
   11.2292  -14.4503   28.3510 C   0  0  0  0  0  0  0  0  0  0  0  0
    9.7872  -13.3407   28.3110 S   0  0  0  0  0  0  0  0  0  0  0  0
    9.8268  -16.4329   28.1233 C   0  0  0  0  0  0  0  0  0  0  0  0
   10.1176  -17.2282   29.2184 O   0  0  0  0  0  0  0  0  0  0  0  0
    8.6466  -16.4049   27.7128 O   0  0  0  0  0  0  0  0  0  0  0  0
  2  1  1  6
  2  3  1  0
  3  4  1  0
  4  8  1  0
  4  5  2  0
  6  2  1  0
  6  7  2  0
  9 10  1  0
 10 11  1  0
 11 13  1  0
 11 12  1  1
 13 14  1  6
 14  6  1  0
 15 13  1  0
 16 15  2  0
 17 15  1  0
 18 19  1  1
 18 17  1  0
 19 20  1  0
 21 22  1  0
 21 18  1  0
 23 21  2  0
M  END
$$$$
