DIC.pdb
     RDKit          3D

 23 22  0  0  1  0  0  0  0  0999 V2000
    8.6756  -15.5552   20.6746 N   0  0  0  0  0  0  0  0  0  0  0  0
    8.2471  -16.1856   21.8974 C   0  0  1  0  0  0  0  0  0  0  0  0
    8.7809  -17.6148   21.9058 C   0  0  0  0  0  0  0  0  0  0  0  0
    8.0794  -18.3866   20.8841 C   0  0  0  0  0  0  0  0  0  0  0  0
    6.8585  -18.6365   20.9915 O   0  0  0  0  0  0  0  0  0  0  0  0
    8.8261  -15.4810   23.0504 C   0  0  0  0  0  0  0  0  0  0  0  0
    9.9831  -14.9564   22.9089 O   0  0  0  0  0  0  0  0  0  0  0  0
    8.7598  -18.8549   19.7765 O   0  0  0  0  0  0  0  0  0  0  0  0
    5.6875  -12.2416   25.6508 C   0  0  0  0  0  0  0  0  0  0  0  0
    6.9352  -12.8644   25.1608 C   0  0  0  0  0  0  0  0  0  0  0  0
    7.6297  -13.8506   25.9959 C   0  0  2  0  0  0  0  0  0  0  0  0
    7.9152  -13.3313   27.4073 C   0  0  0  0  0  0  0  0  0  0  0  0
    8.7904  -14.5542   25.4146 C   0  0  2  0  0  0  0  0  0  0  0  0
    8.1883  -15.3493   24.2941 N   0  0  0  0  0  0  0  0  0  0  0  0
    9.5516  -15.5042   26.1890 C   0  0  0  0  0  0  0  0  0  0  0  0
    9.1396  -16.7255   26.2690 O   0  0  0  0  0  0  0  0  0  0  0  0
   10.7671  -15.2882   26.9146 N   0  0  0  0  0  0  0  0  0  0  0  0
   11.4394  -16.3531   27.6204 C   0  0  1  0  0  0  0  0  0  0  0  0
   12.4300  -15.6907   28.5916 C   0  0  0  0  0  0  0  0  0  0  0  0
   11.4415  -14.4962   29.5445 S   0  0  0  0  0  0  0  0  0  0  0  0
   10.5555  -17.2386   28.3942 C   0  0  0  0  0  0  0  0  0  0  0  0
   11.0038  -18.4252   28.9485 O   0  0  0  0  0  0  0  0  0  0  0  0
    9.3581  -16.9240   28.5660 O   0  0  0  0  0  0  0  0  0  0  0  0
  2  1  1  6
  2  3  1  0
  3  4  1  0
  4  8  1  0
  4  5  2  0
  6  2  1  0
  6  7  2  0
  9 10  1  0
 10 11  1  0
 11 13  1  0
 11 12  1  1
 13 14  1  6
 14  6  1  0
 15 13  1  0
 16 15  2  0
 17 15  1  0
 18 19  1  1
 18 17  1  0
 19 20  1  0
 21 22  1  0
 21 18  1  0
 23 21  2  0
M  END
$$$$
