DIC.pdb
     RDKit          3D

 23 22  0  0  1  0  0  0  0  0999 V2000
   10.1173  -17.9572   17.2033 N   0  0  0  0  0  0  0  0  0  0  0  0
    9.0736  -17.9019   18.1952 C   0  0  1  0  0  0  0  0  0  0  0  0
    8.9543  -19.2819   18.8349 C   0  0  0  0  0  0  0  0  0  0  0  0
    8.5724  -20.2467   17.8077 C   0  0  0  0  0  0  0  0  0  0  0  0
    7.8702  -19.9031   16.8313 O   0  0  0  0  0  0  0  0  0  0  0  0
    9.4395  -16.9459   19.2503 C   0  0  0  0  0  0  0  0  0  0  0  0
   10.6828  -16.7332   19.4572 O   0  0  0  0  0  0  0  0  0  0  0  0
    8.9846  -21.5621   17.9011 O   0  0  0  0  0  0  0  0  0  0  0  0
    6.9556  -12.3659   19.4677 C   0  0  0  0  0  0  0  0  0  0  0  0
    7.9700  -13.4175   19.6909 C   0  0  0  0  0  0  0  0  0  0  0  0
    7.9683  -14.1710   20.9497 C   0  0  2  0  0  0  0  0  0  0  0  0
    7.9366  -13.2618   22.1808 C   0  0  0  0  0  0  0  0  0  0  0  0
    8.9376  -15.2752   21.0961 C   0  0  2  0  0  0  0  0  0  0  0  0
    8.5098  -16.2539   20.0427 N   0  0  0  0  0  0  0  0  0  0  0  0
    9.0179  -16.0407   22.3164 C   0  0  0  0  0  0  0  0  0  0  0  0
    8.1598  -16.9825   22.5266 O   0  0  0  0  0  0  0  0  0  0  0  0
    9.9633  -15.9135   23.3844 N   0  0  0  0  0  0  0  0  0  0  0  0
   10.3726  -17.0423   24.1859 C   0  0  1  0  0  0  0  0  0  0  0  0
   11.0174  -18.0593   23.2303 C   0  0  0  0  0  0  0  0  0  0  0  0
   10.7060  -19.6876   23.9814 S   0  0  0  0  0  0  0  0  0  0  0  0
   11.3398  -16.7293   25.2493 C   0  0  0  0  0  0  0  0  0  0  0  0
   11.3929  -17.4478   26.4313 O   0  0  0  0  0  0  0  0  0  0  0  0
   12.1468  -15.7872   25.0963 O   0  0  0  0  0  0  0  0  0  0  0  0
  2  1  1  6
  2  3  1  0
  3  4  1  0
  4  8  1  0
  4  5  2  0
  6  2  1  0
  6  7  2  0
  9 10  1  0
 10 11  1  0
 11 13  1  0
 11 12  1  1
 13 14  1  6
 14  6  1  0
 15 13  1  0
 16 15  2  0
 17 15  1  0
 18 19  1  6
 18 17  1  0
 19 20  1  0
 21 22  1  0
 21 18  1  0
 23 21  2  0
M  END
$$$$
