DIC.pdb
     RDKit          3D

 23 22  0  0  1  0  0  0  0  0999 V2000
    9.3477  -17.9887   17.0530 N   0  0  0  0  0  0  0  0  0  0  0  0
    8.5728  -18.0858   18.2639 C   0  0  1  0  0  0  0  0  0  0  0  0
    8.7312  -19.4993   18.8156 C   0  0  0  0  0  0  0  0  0  0  0  0
    8.0191  -20.4289   17.9435 C   0  0  0  0  0  0  0  0  0  0  0  0
    7.8579  -20.1768   16.7290 O   0  0  0  0  0  0  0  0  0  0  0  0
    9.0975  -17.1485   19.2675 C   0  0  0  0  0  0  0  0  0  0  0  0
   10.3531  -16.9096   19.2612 O   0  0  0  0  0  0  0  0  0  0  0  0
    7.5100  -21.6084   18.4518 O   0  0  0  0  0  0  0  0  0  0  0  0
    6.9446  -12.5285   19.6509 C   0  0  0  0  0  0  0  0  0  0  0  0
    7.9154  -13.6295   19.8235 C   0  0  0  0  0  0  0  0  0  0  0  0
    7.9655  -14.3591   21.0954 C   0  0  2  0  0  0  0  0  0  0  0  0
    8.0696  -13.4275   22.3056 C   0  0  0  0  0  0  0  0  0  0  0  0
    8.8846  -15.5103   21.1965 C   0  0  2  0  0  0  0  0  0  0  0  0
    8.3064  -16.5013   20.2300 N   0  0  0  0  0  0  0  0  0  0  0  0
    9.0409  -16.2337   22.4350 C   0  0  0  0  0  0  0  0  0  0  0  0
    8.2174  -17.1880   22.7152 O   0  0  0  0  0  0  0  0  0  0  0  0
   10.0318  -16.0497   23.4524 N   0  0  0  0  0  0  0  0  0  0  0  0
   10.7829  -17.1537   24.0011 C   0  0  1  0  0  0  0  0  0  0  0  0
   11.4721  -17.8568   22.8204 C   0  0  0  0  0  0  0  0  0  0  0  0
   12.4112  -19.2286   23.5609 S   0  0  0  0  0  0  0  0  0  0  0  0
   11.8140  -16.7761   24.9801 C   0  0  0  0  0  0  0  0  0  0  0  0
   11.9005  -17.3735   26.2259 O   0  0  0  0  0  0  0  0  0  0  0  0
   12.6466  -15.8891   24.6935 O   0  0  0  0  0  0  0  0  0  0  0  0
  2  1  1  6
  2  3  1  0
  3  4  1  0
  4  8  1  0
  4  5  2  0
  6  2  1  0
  6  7  2  0
  9 10  1  0
 10 11  1  0
 11 13  1  0
 11 12  1  1
 13 14  1  6
 14  6  1  0
 15 13  1  0
 16 15  2  0
 17 15  1  0
 18 19  1  6
 18 17  1  0
 19 20  1  0
 21 22  1  0
 21 18  1  0
 23 21  2  0
M  END
$$$$
