DIC.pdb
     RDKit          3D

 23 22  0  0  1  0  0  0  0  0999 V2000
    7.7428  -15.1072   20.1463 N   0  0  0  0  0  0  0  0  0  0  0  0
    7.1253  -15.5393   21.3744 C   0  0  1  0  0  0  0  0  0  0  0  0
    7.1577  -17.0641   21.4101 C   0  0  0  0  0  0  0  0  0  0  0  0
    6.2729  -17.5794   20.3693 C   0  0  0  0  0  0  0  0  0  0  0  0
    6.1011  -16.9511   19.3015 O   0  0  0  0  0  0  0  0  0  0  0  0
    7.8995  -15.0447   22.5221 C   0  0  0  0  0  0  0  0  0  0  0  0
    9.1615  -14.9054   22.3743 O   0  0  0  0  0  0  0  0  0  0  0  0
    5.6085  -18.7771   20.5511 O   0  0  0  0  0  0  0  0  0  0  0  0
    7.1383  -11.4597   27.3825 C   0  0  0  0  0  0  0  0  0  0  0  0
    7.9247  -12.5226   26.7217 C   0  0  0  0  0  0  0  0  0  0  0  0
    7.3533  -13.2427   25.5784 C   0  0  2  0  0  0  0  0  0  0  0  0
    5.9267  -13.7311   25.8426 C   0  0  0  0  0  0  0  0  0  0  0  0
    8.1842  -14.2737   24.9251 C   0  0  2  0  0  0  0  0  0  0  0  0
    7.3397  -14.7169   23.7671 N   0  0  0  0  0  0  0  0  0  0  0  0
    8.5486  -15.4866   25.6163 C   0  0  0  0  0  0  0  0  0  0  0  0
    7.6502  -16.3928   25.8144 O   0  0  0  0  0  0  0  0  0  0  0  0
    9.8289  -15.8625   26.1361 N   0  0  0  0  0  0  0  0  0  0  0  0
   10.0386  -17.1095   26.8328 C   0  0  1  0  0  0  0  0  0  0  0  0
   11.1285  -17.8738   26.0640 C   0  0  0  0  0  0  0  0  0  0  0  0
   12.2827  -16.5973   25.4720 S   0  0  0  0  0  0  0  0  0  0  0  0
   10.4699  -16.9725   28.2326 C   0  0  0  0  0  0  0  0  0  0  0  0
   10.6969  -18.0708   29.0440 O   0  0  0  0  0  0  0  0  0  0  0  0
   10.6415  -15.8346   28.7204 O   0  0  0  0  0  0  0  0  0  0  0  0
  2  1  1  6
  2  3  1  0
  3  4  1  0
  4  8  1  0
  4  5  2  0
  6  2  1  0
  6  7  2  0
  9 10  1  0
 10 11  1  0
 11 13  1  0
 11 12  1  1
 13 14  1  6
 14  6  1  0
 15 13  1  0
 16 15  2  0
 17 15  1  0
 18 19  1  6
 18 17  1  0
 19 20  1  0
 21 22  1  0
 21 18  1  0
 23 21  2  0
M  END
$$$$
