DIC.pdb
     RDKit          3D

 23 22  0  0  1  0  0  0  0  0999 V2000
    7.8170  -14.9410   20.0956 N   0  0  0  0  0  0  0  0  0  0  0  0
    7.1152  -15.3790   21.2754 C   0  0  1  0  0  0  0  0  0  0  0  0
    7.0137  -16.9005   21.2288 C   0  0  0  0  0  0  0  0  0  0  0  0
    6.3680  -17.2924   19.9793 C   0  0  0  0  0  0  0  0  0  0  0  0
    6.9627  -17.1797   18.8846 O   0  0  0  0  0  0  0  0  0  0  0  0
    7.8822  -15.0147   22.4753 C   0  0  0  0  0  0  0  0  0  0  0  0
    9.1570  -14.9936   22.3844 O   0  0  0  0  0  0  0  0  0  0  0  0
    5.0818  -17.7969   19.9892 O   0  0  0  0  0  0  0  0  0  0  0  0
    7.2381  -11.4274   27.3272 C   0  0  0  0  0  0  0  0  0  0  0  0
    7.9796  -12.5188   26.6612 C   0  0  0  0  0  0  0  0  0  0  0  0
    7.3667  -13.2286   25.5329 C   0  0  2  0  0  0  0  0  0  0  0  0
    5.9120  -13.6211   25.8037 C   0  0  0  0  0  0  0  0  0  0  0  0
    8.1331  -14.3241   24.9064 C   0  0  2  0  0  0  0  0  0  0  0  0
    7.3024  -14.6892   23.7118 N   0  0  0  0  0  0  0  0  0  0  0  0
    8.3643  -15.5663   25.6030 C   0  0  0  0  0  0  0  0  0  0  0  0
    7.3598  -16.3286   25.8813 O   0  0  0  0  0  0  0  0  0  0  0  0
    9.6090  -16.1167   26.0485 N   0  0  0  0  0  0  0  0  0  0  0  0
    9.6806  -17.3579   26.7823 C   0  0  1  0  0  0  0  0  0  0  0  0
   10.4637  -18.3504   25.9075 C   0  0  0  0  0  0  0  0  0  0  0  0
   11.9557  -17.4514   25.3802 S   0  0  0  0  0  0  0  0  0  0  0  0
   10.3486  -17.2672   28.0898 C   0  0  0  0  0  0  0  0  0  0  0  0
   10.4568  -18.3554   28.9386 O   0  0  0  0  0  0  0  0  0  0  0  0
   10.8398  -16.1796   28.4615 O   0  0  0  0  0  0  0  0  0  0  0  0
  2  1  1  6
  2  3  1  0
  3  4  1  0
  4  8  1  0
  4  5  2  0
  6  2  1  0
  6  7  2  0
  9 10  1  0
 10 11  1  0
 11 13  1  0
 11 12  1  1
 13 14  1  6
 14  6  1  0
 15 13  1  0
 16 15  2  0
 17 15  1  0
 18 19  1  6
 18 17  1  0
 19 20  1  0
 21 22  1  0
 21 18  1  0
 23 21  2  0
M  END
$$$$
