DIC.pdb
     RDKit          3D

 23 22  0  0  1  0  0  0  0  0999 V2000
    9.9194  -17.3404   16.1254 N   0  0  0  0  0  0  0  0  0  0  0  0
    9.0103  -17.5335   17.2265 C   0  0  1  0  0  0  0  0  0  0  0  0
    9.0613  -19.0037   17.6308 C   0  0  0  0  0  0  0  0  0  0  0  0
    8.4104  -19.8007   16.5950 C   0  0  0  0  0  0  0  0  0  0  0  0
    9.0512  -20.6525   15.9405 O   0  0  0  0  0  0  0  0  0  0  0  0
    9.4476  -16.7333   18.3796 C   0  0  0  0  0  0  0  0  0  0  0  0
   10.6928  -16.4628   18.4797 O   0  0  0  0  0  0  0  0  0  0  0  0
    7.0677  -19.6235   16.3217 O   0  0  0  0  0  0  0  0  0  0  0  0
    6.6683  -12.4586   19.5402 C   0  0  0  0  0  0  0  0  0  0  0  0
    7.8329  -13.3687   19.5339 C   0  0  0  0  0  0  0  0  0  0  0  0
    7.9863  -14.3574   20.6070 C   0  0  2  0  0  0  0  0  0  0  0  0
    7.9443  -13.7257   22.0008 C   0  0  0  0  0  0  0  0  0  0  0  0
    9.0670  -15.3552   20.4786 C   0  0  2  0  0  0  0  0  0  0  0  0
    8.5840  -16.2492   19.3750 N   0  0  0  0  0  0  0  0  0  0  0  0
    9.3979  -16.2410   21.5684 C   0  0  0  0  0  0  0  0  0  0  0  0
    8.5488  -17.1465   21.9240 O   0  0  0  0  0  0  0  0  0  0  0  0
   10.5958  -16.2761   22.3524 N   0  0  0  0  0  0  0  0  0  0  0  0
   10.8200  -17.2781   23.3671 C   0  0  1  0  0  0  0  0  0  0  0  0
   12.3243  -17.5949   23.3585 C   0  0  0  0  0  0  0  0  0  0  0  0
   13.1507  -16.0078   23.6906 S   0  0  0  0  0  0  0  0  0  0  0  0
   10.4401  -16.8757   24.7302 C   0  0  0  0  0  0  0  0  0  0  0  0
   10.5428  -17.7380   25.8082 O   0  0  0  0  0  0  0  0  0  0  0  0
   10.0088  -15.7213   24.9388 O   0  0  0  0  0  0  0  0  0  0  0  0
  2  1  1  6
  2  3  1  0
  3  4  1  0
  4  8  1  0
  4  5  2  0
  6  2  1  0
  6  7  2  0
  9 10  1  0
 10 11  1  0
 11 13  1  0
 11 12  1  1
 13 14  1  6
 14  6  1  0
 15 13  1  0
 16 15  2  0
 17 15  1  0
 18 19  1  1
 18 17  1  0
 19 20  1  0
 21 22  1  0
 21 18  1  0
 23 21  2  0
M  END
$$$$
