DIC.pdb
     RDKit          3D

 23 22  0  0  1  0  0  0  0  0999 V2000
   10.2301  -18.2383   17.1869 N   0  0  0  0  0  0  0  0  0  0  0  0
    9.1334  -18.0324   18.0986 C   0  0  1  0  0  0  0  0  0  0  0  0
    8.7689  -19.3803   18.7134 C   0  0  0  0  0  0  0  0  0  0  0  0
    8.7068  -20.3815   17.6526 C   0  0  0  0  0  0  0  0  0  0  0  0
    7.9975  -20.2013   16.6383 O   0  0  0  0  0  0  0  0  0  0  0  0
    9.5524  -17.1384   19.1877 C   0  0  0  0  0  0  0  0  0  0  0  0
   10.8042  -17.0311   19.4229 O   0  0  0  0  0  0  0  0  0  0  0  0
    9.4362  -21.5504   17.7557 O   0  0  0  0  0  0  0  0  0  0  0  0
    6.8174  -12.6338   19.7485 C   0  0  0  0  0  0  0  0  0  0  0  0
    7.9348  -13.5977   19.8320 C   0  0  0  0  0  0  0  0  0  0  0  0
    8.1161  -14.3936   21.0510 C   0  0  2  0  0  0  0  0  0  0  0  0
    8.1834  -13.5307   22.3137 C   0  0  0  0  0  0  0  0  0  0  0  0
    9.1486  -15.4491   21.0407 C   0  0  2  0  0  0  0  0  0  0  0  0
    8.6646  -16.3970   19.9835 N   0  0  0  0  0  0  0  0  0  0  0  0
    9.3903  -16.2678   22.2038 C   0  0  0  0  0  0  0  0  0  0  0  0
    8.4718  -17.0837   22.6016 O   0  0  0  0  0  0  0  0  0  0  0  0
   10.5633  -16.3226   23.0235 N   0  0  0  0  0  0  0  0  0  0  0  0
   10.6497  -17.1772   24.1839 C   0  0  1  0  0  0  0  0  0  0  0  0
   11.5436  -18.3668   23.7980 C   0  0  0  0  0  0  0  0  0  0  0  0
   11.7005  -19.3607   25.3144 S   0  0  0  0  0  0  0  0  0  0  0  0
   11.2191  -16.5403   25.3816 C   0  0  0  0  0  0  0  0  0  0  0  0
   11.2417  -17.1738   26.6122 O   0  0  0  0  0  0  0  0  0  0  0  0
   11.7023  -15.3903   25.3025 O   0  0  0  0  0  0  0  0  0  0  0  0
  2  1  1  6
  2  3  1  0
  3  4  1  0
  4  8  1  0
  4  5  2  0
  6  2  1  0
  6  7  2  0
  9 10  1  0
 10 11  1  0
 11 13  1  0
 11 12  1  1
 13 14  1  6
 14  6  1  0
 15 13  1  0
 16 15  2  0
 17 15  1  0
 18 19  1  6
 18 17  1  0
 19 20  1  0
 21 22  1  0
 21 18  1  0
 23 21  2  0
M  END
$$$$
