DIC.pdb
     RDKit          3D

 23 22  0  0  1  0  0  0  0  0999 V2000
    8.7934  -15.2775   20.5285 N   0  0  0  0  0  0  0  0  0  0  0  0
    8.3297  -15.9643   21.7072 C   0  0  1  0  0  0  0  0  0  0  0  0
    8.8558  -17.3955   21.6594 C   0  0  0  0  0  0  0  0  0  0  0  0
    8.3408  -18.0478   20.4589 C   0  0  0  0  0  0  0  0  0  0  0  0
    7.1191  -18.0314   20.1913 O   0  0  0  0  0  0  0  0  0  0  0  0
    8.8817  -15.3207   22.9082 C   0  0  0  0  0  0  0  0  0  0  0  0
   10.0384  -14.7842   22.8188 O   0  0  0  0  0  0  0  0  0  0  0  0
    9.2026  -18.6968   19.5958 O   0  0  0  0  0  0  0  0  0  0  0  0
    5.6960  -12.1831   25.4969 C   0  0  0  0  0  0  0  0  0  0  0  0
    6.9487  -12.8131   25.0296 C   0  0  0  0  0  0  0  0  0  0  0  0
    7.6179  -13.8093   25.8734 C   0  0  2  0  0  0  0  0  0  0  0  0
    7.8722  -13.3021   27.2952 C   0  0  0  0  0  0  0  0  0  0  0  0
    8.7886  -14.5146   25.3147 C   0  0  2  0  0  0  0  0  0  0  0  0
    8.2183  -15.2593   24.1440 N   0  0  0  0  0  0  0  0  0  0  0  0
    9.5008  -15.5050   26.0852 C   0  0  0  0  0  0  0  0  0  0  0  0
    9.0826  -16.7267   26.0805 O   0  0  0  0  0  0  0  0  0  0  0  0
   10.6714  -15.3304   26.8913 N   0  0  0  0  0  0  0  0  0  0  0  0
   11.2629  -16.4193   27.6319 C   0  0  1  0  0  0  0  0  0  0  0  0
   12.3404  -15.8082   28.5423 C   0  0  0  0  0  0  0  0  0  0  0  0
   11.4949  -14.4880   29.4667 S   0  0  0  0  0  0  0  0  0  0  0  0
   10.3245  -17.1794   28.4721 C   0  0  0  0  0  0  0  0  0  0  0  0
   10.6888  -18.3559   29.1041 O   0  0  0  0  0  0  0  0  0  0  0  0
    9.1567  -16.7631   28.6307 O   0  0  0  0  0  0  0  0  0  0  0  0
  2  1  1  6
  2  3  1  0
  3  4  1  0
  4  8  1  0
  4  5  2  0
  6  2  1  0
  6  7  2  0
  9 10  1  0
 10 11  1  0
 11 13  1  0
 11 12  1  1
 13 14  1  6
 14  6  1  0
 15 13  1  0
 16 15  2  0
 17 15  1  0
 18 19  1  1
 18 17  1  0
 19 20  1  0
 21 22  1  0
 21 18  1  0
 23 21  2  0
M  END
$$$$
