DIC.pdb
     RDKit          3D

 23 22  0  0  1  0  0  0  0  0999 V2000
    7.7572  -14.6621   20.7073 N   0  0  0  0  0  0  0  0  0  0  0  0
    7.4143  -15.4542   21.8610 C   0  0  1  0  0  0  0  0  0  0  0  0
    7.8469  -16.8926   21.5938 C   0  0  0  0  0  0  0  0  0  0  0  0
    6.9937  -17.4561   20.5514 C   0  0  0  0  0  0  0  0  0  0  0  0
    7.4798  -17.8701   19.4759 O   0  0  0  0  0  0  0  0  0  0  0  0
    8.1555  -14.9711   23.0350 C   0  0  0  0  0  0  0  0  0  0  0  0
    9.3782  -14.6363   22.8718 O   0  0  0  0  0  0  0  0  0  0  0  0
    5.6277  -17.5401   20.7405 O   0  0  0  0  0  0  0  0  0  0  0  0
    5.8699  -11.4601   26.0528 C   0  0  0  0  0  0  0  0  0  0  0  0
    6.9321  -12.2905   25.4472 C   0  0  0  0  0  0  0  0  0  0  0  0
    7.4526  -13.4499   26.1802 C   0  0  2  0  0  0  0  0  0  0  0  0
    7.9256  -13.0912   27.5913 C   0  0  0  0  0  0  0  0  0  0  0  0
    8.4019  -14.3400   25.4827 C   0  0  2  0  0  0  0  0  0  0  0  0
    7.6045  -14.8551   24.3211 N   0  0  0  0  0  0  0  0  0  0  0  0
    8.9357  -15.5146   26.1285 C   0  0  0  0  0  0  0  0  0  0  0  0
    8.1352  -16.4761   26.4482 O   0  0  0  0  0  0  0  0  0  0  0  0
   10.2954  -15.7951   26.4792 N   0  0  0  0  0  0  0  0  0  0  0  0
   10.6790  -17.0137   27.1517 C   0  0  1  0  0  0  0  0  0  0  0  0
   11.9987  -17.4795   26.5156 C   0  0  0  0  0  0  0  0  0  0  0  0
   13.1188  -16.0498   26.6330 S   0  0  0  0  0  0  0  0  0  0  0  0
   10.8860  -16.8822   28.6023 C   0  0  0  0  0  0  0  0  0  0  0  0
   10.7343  -15.6744   29.2614 O   0  0  0  0  0  0  0  0  0  0  0  0
   11.2096  -17.8840   29.2761 O   0  0  0  0  0  0  0  0  0  0  0  0
  2  1  1  6
  2  3  1  0
  3  4  1  0
  4  8  1  0
  4  5  2  0
  6  2  1  0
  6  7  2  0
  9 10  1  0
 10 11  1  0
 11 13  1  0
 11 12  1  1
 13 14  1  6
 14  6  1  0
 15 13  1  0
 16 15  2  0
 17 15  1  0
 18 19  1  6
 18 17  1  0
 19 20  1  0
 21 22  1  0
 21 18  1  0
 23 21  2  0
M  END
$$$$
