DIC.pdb
     RDKit          3D

 23 22  0  0  1  0  0  0  0  0999 V2000
    9.5290  -16.1777   20.2105 N   0  0  0  0  0  0  0  0  0  0  0  0
    9.2562  -16.7372   21.5100 C   0  0  1  0  0  0  0  0  0  0  0  0
   10.2950  -17.8196   21.7874 C   0  0  0  0  0  0  0  0  0  0  0  0
   10.0062  -18.9775   20.9462 C   0  0  0  0  0  0  0  0  0  0  0  0
   10.6441  -19.1804   19.8896 O   0  0  0  0  0  0  0  0  0  0  0  0
    9.4012  -15.6983   22.5399 C   0  0  0  0  0  0  0  0  0  0  0  0
   10.3014  -14.8078   22.3659 O   0  0  0  0  0  0  0  0  0  0  0  0
    9.0172  -19.8714   21.3088 O   0  0  0  0  0  0  0  0  0  0  0  0
    5.7887  -12.1872   25.6719 C   0  0  0  0  0  0  0  0  0  0  0  0
    7.1596  -12.7103   25.4935 C   0  0  0  0  0  0  0  0  0  0  0  0
    7.3638  -13.9877   24.8015 C   0  0  2  0  0  0  0  0  0  0  0  0
    6.3895  -15.0727   25.2673 C   0  0  0  0  0  0  0  0  0  0  0  0
    8.7452  -14.4940   24.6775 C   0  0  2  0  0  0  0  0  0  0  0  0
    8.6138  -15.6242   23.6999 N   0  0  0  0  0  0  0  0  0  0  0  0
    9.4402  -15.0515   25.8123 C   0  0  0  0  0  0  0  0  0  0  0  0
    9.5964  -16.3311   25.8887 O   0  0  0  0  0  0  0  0  0  0  0  0
   10.0238  -14.3618   26.9234 N   0  0  0  0  0  0  0  0  0  0  0  0
   10.6935  -15.0603   27.9947 C   0  0  1  0  0  0  0  0  0  0  0  0
   10.7167  -14.1100   29.2029 C   0  0  0  0  0  0  0  0  0  0  0  0
   11.5661  -15.0320   30.5222 S   0  0  0  0  0  0  0  0  0  0  0  0
   10.0545  -16.3191   28.4088 C   0  0  0  0  0  0  0  0  0  0  0  0
   10.7842  -17.4695   28.6543 O   0  0  0  0  0  0  0  0  0  0  0  0
    8.8133  -16.3682   28.5480 O   0  0  0  0  0  0  0  0  0  0  0  0
  2  1  1  6
  2  3  1  0
  3  4  1  0
  4  8  1  0
  4  5  2  0
  6  2  1  0
  6  7  2  0
  9 10  1  0
 10 11  1  0
 11 13  1  0
 11 12  1  1
 13 14  1  6
 14  6  1  0
 15 13  1  0
 16 15  2  0
 17 15  1  0
 18 19  1  1
 18 17  1  0
 19 20  1  0
 21 22  1  0
 21 18  1  0
 23 21  2  0
M  END
$$$$
