QYY.pdb
     RDKit          3D

 34 35  0  0  1  0  0  0  0  0999 V2000
    5.9412  -20.6642   25.2238 N   0  0  0  0  0  0  0  0  0  0  0  0
    6.9331  -21.0960   24.3421 C   0  0  0  0  0  0  0  0  0  0  0  0
    7.5400  -22.1650   24.6148 O   0  0  0  0  0  0  0  0  0  0  0  0
    7.3255  -20.3862   23.1029 C   0  0  0  0  0  0  0  0  0  0  0  0
    6.5240  -19.1344   22.8820 C   0  0  0  0  0  0  0  0  0  0  0  0
    7.0201  -18.5127   21.5800 C   0  0  2  0  0  0  0  0  0  0  0  0
    7.6380  -19.5942   20.8350 N   0  0  0  0  0  0  0  0  0  0  0  0
    7.9279  -17.3849   21.8039 C   0  0  0  0  0  0  0  0  0  0  0  0
    9.1421  -17.5019   21.5344 O   0  0  0  0  0  0  0  0  0  0  0  0
    8.0917  -13.2762   16.5184 O   0  0  0  0  0  0  0  0  0  0  0  0
    8.0216  -13.3840   17.9110 C   0  0  0  0  0  0  0  0  0  0  0  0
    6.9041  -13.9649   18.4609 C   0  0  0  0  0  0  0  0  0  0  0  0
    6.8141  -14.0829   19.8275 C   0  0  0  0  0  0  0  0  0  0  0  0
    7.8202  -13.6326   20.6799 C   0  0  0  0  0  0  0  0  0  0  0  0
    7.7643  -13.7449   22.1462 C   0  0  0  0  0  0  0  0  0  0  0  0
    8.3395  -15.0509   22.6425 C   0  0  2  0  0  0  0  0  0  0  0  0
    7.4518  -16.1601   22.3214 N   0  0  0  0  0  0  0  0  0  0  0  0
    8.6797  -15.0292   24.0801 C   0  0  0  0  0  0  0  0  0  0  0  0
    8.4658  -13.9852   24.7351 O   0  0  0  0  0  0  0  0  0  0  0  0
    8.9365  -13.0499   20.0893 C   0  0  0  0  0  0  0  0  0  0  0  0
    9.0298  -12.9300   18.7252 C   0  0  0  0  0  0  0  0  0  0  0  0
    6.1017  -10.7070   26.8641 O   0  0  0  0  0  0  0  0  0  0  0  0
    6.6061  -11.9858   26.8850 C   0  0  0  0  0  0  0  0  0  0  0  0
    5.9309  -13.0149   26.2616 C   0  0  0  0  0  0  0  0  0  0  0  0
    6.4455  -14.2764   26.2926 C   0  0  0  0  0  0  0  0  0  0  0  0
    7.6501  -14.6060   26.9343 C   0  0  0  0  0  0  0  0  0  0  0  0
    8.1292  -16.0031   26.9385 C   0  0  0  0  0  0  0  0  0  0  0  0
    9.4181  -16.1846   26.2176 C   0  0  2  0  0  0  0  0  0  0  0  0
    9.2399  -16.1365   24.7710 N   0  0  0  0  0  0  0  0  0  0  0  0
   10.0271  -17.4786   26.5636 C   0  0  0  0  0  0  0  0  0  0  0  0
   10.1490  -18.3980   25.6869 O   0  0  0  0  0  0  0  0  0  0  0  0
    8.2936  -13.5580   27.5433 C   0  0  0  0  0  0  0  0  0  0  0  0
    7.7954  -12.2611   27.5296 C   0  0  0  0  0  0  0  0  0  0  0  0
   10.4941  -17.7645   27.8307 O   0  0  0  0  0  0  0  0  0  0  0  0
  2  1  1  0
  3  2  2  0
  4  2  1  0
  5  4  1  0
  6  5  1  0
  6  7  1  6
  8  6  1  0
  8  9  2  0
 10 11  1  0
 11 12  2  0
 12 13  1  0
 14 13  2  0
 14 15  1  0
 16 17  1  0
 16 15  1  1
 17  8  1  0
 18 16  1  0
 19 18  2  0
 20 14  1  0
 21 11  1  0
 21 20  2  0
 23 22  1  0
 23 24  2  0
 25 24  1  0
 26 25  2  0
 28 27  1  1
 27 26  1  0
 28 29  1  0
 29 18  1  0
 30 28  1  0
 30 34  1  0
 31 30  2  0
 32 33  2  0
 32 26  1  0
 33 23  1  0
M  END
$$$$
