QYY.pdb
     RDKit          3D

 34 35  0  0  1  0  0  0  0  0999 V2000
    4.8277  -21.0911   23.0382 N   0  0  0  0  0  0  0  0  0  0  0  0
    6.0981  -21.0219   23.6121 C   0  0  0  0  0  0  0  0  0  0  0  0
    6.2010  -21.2492   24.8462 O   0  0  0  0  0  0  0  0  0  0  0  0
    7.3399  -20.7001   22.8721 C   0  0  0  0  0  0  0  0  0  0  0  0
    7.7952  -19.2870   23.1049 C   0  0  0  0  0  0  0  0  0  0  0  0
    7.7290  -18.5711   21.7592 C   0  0  2  0  0  0  0  0  0  0  0  0
    8.3193  -19.4825   20.7963 N   0  0  0  0  0  0  0  0  0  0  0  0
    8.3889  -17.2634   21.7834 C   0  0  0  0  0  0  0  0  0  0  0  0
    9.6077  -17.1778   21.5230 O   0  0  0  0  0  0  0  0  0  0  0  0
    6.9430  -13.4888   16.1325 O   0  0  0  0  0  0  0  0  0  0  0  0
    7.0606  -13.5270   17.5255 C   0  0  0  0  0  0  0  0  0  0  0  0
    6.2394  -14.3805   18.2225 C   0  0  0  0  0  0  0  0  0  0  0  0
    6.3384  -14.4359   19.5923 C   0  0  0  0  0  0  0  0  0  0  0  0
    7.2461  -13.6539   20.3038 C   0  0  0  0  0  0  0  0  0  0  0  0
    7.3865  -13.6875   21.7683 C   0  0  0  0  0  0  0  0  0  0  0  0
    8.3104  -14.7905   22.2294 C   0  0  2  0  0  0  0  0  0  0  0  0
    7.6672  -16.0906   22.0971 N   0  0  0  0  0  0  0  0  0  0  0  0
    8.8312  -14.5814   23.5963 C   0  0  0  0  0  0  0  0  0  0  0  0
    8.2314  -13.7889   24.3558 O   0  0  0  0  0  0  0  0  0  0  0  0
    8.0613  -12.8014   19.5666 C   0  0  0  0  0  0  0  0  0  0  0  0
    7.9651  -12.7432   18.1987 C   0  0  0  0  0  0  0  0  0  0  0  0
   10.6076  -15.9349   31.8961 O   0  0  0  0  0  0  0  0  0  0  0  0
   10.2896  -15.8836   30.5596 C   0  0  0  0  0  0  0  0  0  0  0  0
    9.7189  -16.9727   29.9336 C   0  0  0  0  0  0  0  0  0  0  0  0
    9.4104  -16.9044   28.6080 C   0  0  0  0  0  0  0  0  0  0  0  0
    9.6412  -15.7677   27.8165 C   0  0  0  0  0  0  0  0  0  0  0  0
    9.2956  -15.7821   26.3807 C   0  0  0  0  0  0  0  0  0  0  0  0
   10.3682  -15.2258   25.5124 C   0  0  2  0  0  0  0  0  0  0  0  0
    9.9844  -15.2357   24.1055 N   0  0  0  0  0  0  0  0  0  0  0  0
   11.6078  -16.0052   25.6569 C   0  0  0  0  0  0  0  0  0  0  0  0
   11.7877  -17.0759   24.9859 O   0  0  0  0  0  0  0  0  0  0  0  0
   10.2099  -14.7048   28.4722 C   0  0  0  0  0  0  0  0  0  0  0  0
   10.5359  -14.7428   29.8223 C   0  0  0  0  0  0  0  0  0  0  0  0
   12.6271  -15.6284   26.5079 O   0  0  0  0  0  0  0  0  0  0  0  0
  2  1  1  0
  3  2  2  0
  4  2  1  0
  5  4  1  0
  6  5  1  0
  6  7  1  6
  8  6  1  0
  8  9  2  0
 10 11  1  0
 11 12  2  0
 12 13  1  0
 14 13  2  0
 14 15  1  0
 16 17  1  0
 16 15  1  1
 17  8  1  0
 18 16  1  0
 19 18  2  0
 20 14  1  0
 21 11  1  0
 21 20  2  0
 23 22  1  0
 23 24  2  0
 25 24  1  0
 26 25  2  0
 28 27  1  1
 27 26  1  0
 28 29  1  0
 29 18  1  0
 30 28  1  0
 30 34  1  0
 31 30  2  0
 32 33  2  0
 32 26  1  0
 33 23  1  0
M  END
$$$$
