QYY.pdb
     RDKit          3D

 34 35  0  0  1  0  0  0  0  0999 V2000
   13.1106  -18.6971   17.8568 N   0  0  0  0  0  0  0  0  0  0  0  0
   12.0231  -18.5527   16.9940 C   0  0  0  0  0  0  0  0  0  0  0  0
   11.9812  -19.2845   15.9702 O   0  0  0  0  0  0  0  0  0  0  0  0
   10.9092  -17.5977   17.1956 C   0  0  0  0  0  0  0  0  0  0  0  0
   11.0870  -16.7637   18.4329 C   0  0  0  0  0  0  0  0  0  0  0  0
   10.0682  -17.2605   19.4542 C   0  0  2  0  0  0  0  0  0  0  0  0
    8.8147  -17.3874   18.7337 N   0  0  0  0  0  0  0  0  0  0  0  0
    9.9666  -16.3822   20.6222 C   0  0  0  0  0  0  0  0  0  0  0  0
   11.0005  -16.0418   21.2352 O   0  0  0  0  0  0  0  0  0  0  0  0
    6.5471  -11.5655   27.1845 O   0  0  0  0  0  0  0  0  0  0  0  0
    6.7359  -12.2577   25.9841 C   0  0  0  0  0  0  0  0  0  0  0  0
    6.2397  -13.5356   25.8874 C   0  0  0  0  0  0  0  0  0  0  0  0
    6.4122  -14.2345   24.7164 C   0  0  0  0  0  0  0  0  0  0  0  0
    7.0753  -13.6913   23.6179 C   0  0  0  0  0  0  0  0  0  0  0  0
    7.2761  -14.4041   22.3461 C   0  0  0  0  0  0  0  0  0  0  0  0
    8.5484  -15.2189   22.3414 C   0  0  2  0  0  0  0  0  0  0  0  0
    8.7131  -15.9100   21.0700 N   0  0  0  0  0  0  0  0  0  0  0  0
    8.6462  -16.1535   23.4816 C   0  0  0  0  0  0  0  0  0  0  0  0
    7.5934  -16.6070   23.9822 O   0  0  0  0  0  0  0  0  0  0  0  0
    7.5646  -12.3961   23.7507 C   0  0  0  0  0  0  0  0  0  0  0  0
    7.3946  -11.6953   24.9185 C   0  0  0  0  0  0  0  0  0  0  0  0
   11.5412  -15.1442   31.5338 O   0  0  0  0  0  0  0  0  0  0  0  0
   11.0074  -15.3511   30.2838 C   0  0  0  0  0  0  0  0  0  0  0  0
   10.9088  -16.6268   29.7673 C   0  0  0  0  0  0  0  0  0  0  0  0
   10.3773  -16.8134   28.5264 C   0  0  0  0  0  0  0  0  0  0  0  0
    9.9108  -15.7646   27.7177 C   0  0  0  0  0  0  0  0  0  0  0  0
    9.3662  -16.0503   26.3750 C   0  0  0  0  0  0  0  0  0  0  0  0
   10.4059  -16.0682   25.3107 C   0  0  2  0  0  0  0  0  0  0  0  0
    9.8789  -16.5739   24.0484 N   0  0  0  0  0  0  0  0  0  0  0  0
   11.5400  -16.9168   25.7089 C   0  0  0  0  0  0  0  0  0  0  0  0
   12.2869  -16.5898   26.6908 O   0  0  0  0  0  0  0  0  0  0  0  0
   10.0249  -14.5107   28.2636 C   0  0  0  0  0  0  0  0  0  0  0  0
   10.5619  -14.2872   29.5254 C   0  0  0  0  0  0  0  0  0  0  0  0
   11.8524  -18.0928   25.0572 O   0  0  0  0  0  0  0  0  0  0  0  0
  2  1  1  0
  3  2  2  0
  4  2  1  0
  5  4  1  0
  6  5  1  0
  6  7  1  6
  8  6  1  0
  8  9  2  0
 10 11  1  0
 11 12  2  0
 12 13  1  0
 14 13  2  0
 14 15  1  0
 16 17  1  0
 16 15  1  6
 17  8  1  0
 18 16  1  0
 19 18  2  0
 20 14  1  0
 21 11  1  0
 21 20  2  0
 23 22  1  0
 23 24  2  0
 25 24  1  0
 26 25  2  0
 28 27  1  1
 27 26  1  0
 28 29  1  0
 29 18  1  0
 30 28  1  0
 30 34  1  0
 31 30  2  0
 32 33  2  0
 32 26  1  0
 33 23  1  0
M  END
$$$$
