QYY.pdb
     RDKit          3D

 34 35  0  0  1  0  0  0  0  0999 V2000
   11.0969  -21.2068   18.3866 N   0  0  0  0  0  0  0  0  0  0  0  0
   11.7614  -19.9821   18.3044 C   0  0  0  0  0  0  0  0  0  0  0  0
   13.0204  -19.9923   18.3149 O   0  0  0  0  0  0  0  0  0  0  0  0
   11.0909  -18.6654   18.2043 C   0  0  0  0  0  0  0  0  0  0  0  0
    9.6733  -18.7055   18.7013 C   0  0  0  0  0  0  0  0  0  0  0  0
    9.1170  -17.2906   18.5732 C   0  0  2  0  0  0  0  0  0  0  0  0
    9.8002  -16.6977   17.4382 N   0  0  0  0  0  0  0  0  0  0  0  0
    9.2737  -16.5098   19.8028 C   0  0  0  0  0  0  0  0  0  0  0  0
   10.3379  -15.8905   20.0140 O   0  0  0  0  0  0  0  0  0  0  0  0
    7.2850  -12.2610   27.2756 O   0  0  0  0  0  0  0  0  0  0  0  0
    7.2273  -12.9493   26.0595 C   0  0  0  0  0  0  0  0  0  0  0  0
    6.6827  -14.2110   26.0538 C   0  0  0  0  0  0  0  0  0  0  0  0
    6.6141  -14.9057   24.8697 C   0  0  0  0  0  0  0  0  0  0  0  0
    7.0791  -14.3741   23.6685 C   0  0  0  0  0  0  0  0  0  0  0  0
    7.0192  -15.0828   22.3801 C   0  0  0  0  0  0  0  0  0  0  0  0
    8.3551  -15.6686   21.9865 C   0  0  2  0  0  0  0  0  0  0  0  0
    8.2365  -16.4437   20.7591 N   0  0  0  0  0  0  0  0  0  0  0  0
    8.9864  -16.4569   23.0651 C   0  0  0  0  0  0  0  0  0  0  0  0
    8.3023  -17.3155   23.6646 O   0  0  0  0  0  0  0  0  0  0  0  0
    7.6241  -13.0952   23.7111 C   0  0  0  0  0  0  0  0  0  0  0  0
    7.6945  -12.3986   24.8916 C   0  0  0  0  0  0  0  0  0  0  0  0
   10.9943  -15.2927   31.1469 O   0  0  0  0  0  0  0  0  0  0  0  0
   10.7912  -15.2157   29.7893 C   0  0  0  0  0  0  0  0  0  0  0  0
   11.0079  -16.3162   28.9856 C   0  0  0  0  0  0  0  0  0  0  0  0
   10.8018  -16.2218   27.6419 C   0  0  0  0  0  0  0  0  0  0  0  0
   10.3716  -15.0468   27.0048 C   0  0  0  0  0  0  0  0  0  0  0  0
   10.1910  -15.0222   25.5392 C   0  0  0  0  0  0  0  0  0  0  0  0
   10.7703  -16.2101   24.8556 C   0  0  2  0  0  0  0  0  0  0  0  0
   10.3399  -16.2970   23.4649 N   0  0  0  0  0  0  0  0  0  0  0  0
   10.3681  -17.4488   25.5402 C   0  0  0  0  0  0  0  0  0  0  0  0
   11.2318  -18.1759   26.1352 O   0  0  0  0  0  0  0  0  0  0  0  0
   10.1667  -13.9734   27.8349 C   0  0  0  0  0  0  0  0  0  0  0  0
   10.3677  -14.0374   29.2082 C   0  0  0  0  0  0  0  0  0  0  0  0
    9.0589  -17.8846   25.5787 O   0  0  0  0  0  0  0  0  0  0  0  0
  2  1  1  0
  3  2  2  0
  4  2  1  0
  5  4  1  0
  6  5  1  0
  6  7  1  6
  8  6  1  0
  8  9  2  0
 10 11  1  0
 11 12  2  0
 12 13  1  0
 14 13  2  0
 14 15  1  0
 16 17  1  0
 16 15  1  1
 17  8  1  0
 18 16  1  0
 19 18  2  0
 20 14  1  0
 21 11  1  0
 21 20  2  0
 23 22  1  0
 23 24  2  0
 25 24  1  0
 26 25  2  0
 28 27  1  1
 27 26  1  0
 28 29  1  0
 29 18  1  0
 30 28  1  0
 30 34  1  0
 31 30  2  0
 32 33  2  0
 32 26  1  0
 33 23  1  0
M  END
$$$$
