QYY.pdb
     RDKit          3D

 34 35  0  0  1  0  0  0  0  0999 V2000
    8.5796  -20.7598   17.2198 N   0  0  0  0  0  0  0  0  0  0  0  0
    8.3801  -20.3761   15.8928 C   0  0  0  0  0  0  0  0  0  0  0  0
    7.5356  -21.0174   15.2139 O   0  0  0  0  0  0  0  0  0  0  0  0
    9.0918  -19.2642   15.2217 C   0  0  0  0  0  0  0  0  0  0  0  0
   10.0224  -18.5366   16.1505 C   0  0  0  0  0  0  0  0  0  0  0  0
   10.7017  -17.4425   15.3324 C   0  0  2  0  0  0  0  0  0  0  0  0
   10.7904  -17.9577   13.9785 N   0  0  0  0  0  0  0  0  0  0  0  0
   12.0040  -17.0554   15.8802 C   0  0  0  0  0  0  0  0  0  0  0  0
   13.0523  -17.4719   15.3434 O   0  0  0  0  0  0  0  0  0  0  0  0
   18.2113  -12.4816   20.0871 O   0  0  0  0  0  0  0  0  0  0  0  0
   16.9851  -12.9701   19.6250 C   0  0  0  0  0  0  0  0  0  0  0  0
   16.0660  -13.3973   20.5531 C   0  0  0  0  0  0  0  0  0  0  0  0
   14.8533  -13.8800   20.1220 C   0  0  0  0  0  0  0  0  0  0  0  0
   14.5202  -13.9520   18.7709 C   0  0  0  0  0  0  0  0  0  0  0  0
   13.2321  -14.4569   18.2693 C   0  0  0  0  0  0  0  0  0  0  0  0
   13.3742  -15.7843   17.5616 C   0  0  2  0  0  0  0  0  0  0  0  0
   12.0962  -16.2140   17.0108 N   0  0  0  0  0  0  0  0  0  0  0  0
   13.9790  -16.8340   18.4073 C   0  0  0  0  0  0  0  0  0  0  0  0
   15.1552  -16.6844   18.8060 O   0  0  0  0  0  0  0  0  0  0  0  0
   15.4739  -13.5114   17.8594 C   0  0  0  0  0  0  0  0  0  0  0  0
   16.6860  -13.0291   18.2861 C   0  0  0  0  0  0  0  0  0  0  0  0
   17.3250  -23.9634   21.9613 O   0  0  0  0  0  0  0  0  0  0  0  0
   16.7595  -22.9387   21.2399 C   0  0  0  0  0  0  0  0  0  0  0  0
   17.5547  -22.0427   20.5554 C   0  0  0  0  0  0  0  0  0  0  0  0
   16.9772  -21.0329   19.8457 C   0  0  0  0  0  0  0  0  0  0  0  0
   15.5888  -20.8396   19.7630 C   0  0  0  0  0  0  0  0  0  0  0  0
   15.0433  -19.7071   18.9876 C   0  0  0  0  0  0  0  0  0  0  0  0
   13.8828  -19.0488   19.6461 C   0  0  2  0  0  0  0  0  0  0  0  0
   13.2960  -18.0155   18.8006 N   0  0  0  0  0  0  0  0  0  0  0  0
   14.2918  -18.4274   20.9156 C   0  0  0  0  0  0  0  0  0  0  0  0
   14.1297  -17.1768   21.1123 O   0  0  0  0  0  0  0  0  0  0  0  0
   14.8300  -21.7490   20.4561 C   0  0  0  0  0  0  0  0  0  0  0  0
   15.3881  -22.7893   21.1887 C   0  0  0  0  0  0  0  0  0  0  0  0
   14.8605  -19.1484   21.9461 O   0  0  0  0  0  0  0  0  0  0  0  0
  2  1  1  0
  3  2  2  0
  4  2  1  0
  5  4  1  0
  6  5  1  0
  6  7  1  6
  8  6  1  0
  8  9  2  0
 10 11  1  0
 11 12  2  0
 12 13  1  0
 14 13  2  0
 14 15  1  0
 16 17  1  0
 16 15  1  1
 17  8  1  0
 18 16  1  0
 19 18  2  0
 20 14  1  0
 21 11  1  0
 21 20  2  0
 23 22  1  0
 23 24  2  0
 25 24  1  0
 26 25  2  0
 28 27  1  6
 27 26  1  0
 28 29  1  0
 29 18  1  0
 30 28  1  0
 30 34  1  0
 31 30  2  0
 32 33  2  0
 32 26  1  0
 33 23  1  0
M  END
$$$$
