QYY.pdb
     RDKit          3D

 34 35  0  0  1  0  0  0  0  0999 V2000
   14.4040  -18.3741   18.5233 N   0  0  0  0  0  0  0  0  0  0  0  0
   15.0442  -17.3473   17.8278 C   0  0  0  0  0  0  0  0  0  0  0  0
   15.5731  -17.6260   16.7196 O   0  0  0  0  0  0  0  0  0  0  0  0
   15.1468  -15.9472   18.2995 C   0  0  0  0  0  0  0  0  0  0  0  0
   14.4353  -15.7293   19.6050 C   0  0  0  0  0  0  0  0  0  0  0  0
   12.9473  -15.6174   19.2872 C   0  0  2  0  0  0  0  0  0  0  0  0
   12.8347  -14.5796   18.2788 N   0  0  0  0  0  0  0  0  0  0  0  0
   12.1358  -15.3457   20.4762 C   0  0  0  0  0  0  0  0  0  0  0  0
   12.6498  -14.7764   21.4622 O   0  0  0  0  0  0  0  0  0  0  0  0
    7.7395  -11.8219   17.0731 O   0  0  0  0  0  0  0  0  0  0  0  0
    7.9266  -12.6979   18.1470 C   0  0  0  0  0  0  0  0  0  0  0  0
    8.0587  -14.0385   17.8749 C   0  0  0  0  0  0  0  0  0  0  0  0
    8.2450  -14.9181   18.9147 C   0  0  0  0  0  0  0  0  0  0  0  0
    8.3053  -14.4974   20.2417 C   0  0  0  0  0  0  0  0  0  0  0  0
    8.5083  -15.4057   21.3817 C   0  0  0  0  0  0  0  0  0  0  0  0
    9.9692  -15.5667   21.7320 C   0  0  2  0  0  0  0  0  0  0  0  0
   10.7743  -15.7177   20.5277 N   0  0  0  0  0  0  0  0  0  0  0  0
   10.2213  -16.6614   22.6919 C   0  0  0  0  0  0  0  0  0  0  0  0
   11.2990  -17.2920   22.6184 O   0  0  0  0  0  0  0  0  0  0  0  0
    8.1676  -13.1342   20.4806 C   0  0  0  0  0  0  0  0  0  0  0  0
    7.9812  -12.2530   19.4450 C   0  0  0  0  0  0  0  0  0  0  0  0
   10.8370  -14.8210   31.0404 O   0  0  0  0  0  0  0  0  0  0  0  0
   10.5910  -14.9739   29.6964 C   0  0  0  0  0  0  0  0  0  0  0  0
   11.2222  -15.9687   28.9781 C   0  0  0  0  0  0  0  0  0  0  0  0
   10.9667  -16.1056   27.6466 C   0  0  0  0  0  0  0  0  0  0  0  0
   10.0793  -15.2788   26.9390 C   0  0  0  0  0  0  0  0  0  0  0  0
    9.8730  -15.4815   25.4907 C   0  0  0  0  0  0  0  0  0  0  0  0
    9.5609  -16.8917   25.1332 C   0  0  2  0  0  0  0  0  0  0  0  0
    9.3029  -17.0432   23.7059 N   0  0  0  0  0  0  0  0  0  0  0  0
    8.3759  -17.3620   25.8676 C   0  0  0  0  0  0  0  0  0  0  0  0
    8.4948  -17.9245   27.0071 O   0  0  0  0  0  0  0  0  0  0  0  0
    9.4705  -14.3012   27.6853 C   0  0  0  0  0  0  0  0  0  0  0  0
    9.7095  -14.1356   29.0439 C   0  0  0  0  0  0  0  0  0  0  0  0
    7.0936  -17.2220   25.3762 O   0  0  0  0  0  0  0  0  0  0  0  0
  2  1  1  0
  3  2  2  0
  4  2  1  0
  5  4  1  0
  6  5  1  0
  6  7  1  6
  8  6  1  0
  8  9  2  0
 10 11  1  0
 11 12  2  0
 12 13  1  0
 14 13  2  0
 14 15  1  0
 16 17  1  0
 16 15  1  6
 17  8  1  0
 18 16  1  0
 19 18  2  0
 20 14  1  0
 21 11  1  0
 21 20  2  0
 23 22  1  0
 23 24  2  0
 25 24  1  0
 26 25  2  0
 28 27  1  6
 27 26  1  0
 28 29  1  0
 29 18  1  0
 30 28  1  0
 30 34  1  0
 31 30  2  0
 32 33  2  0
 32 26  1  0
 33 23  1  0
M  END
$$$$
