QYY.pdb
     RDKit          3D

 34 35  0  0  1  0  0  0  0  0999 V2000
   11.2401  -17.1229   16.2371 N   0  0  0  0  0  0  0  0  0  0  0  0
    9.8841  -17.1049   15.9068 C   0  0  0  0  0  0  0  0  0  0  0  0
    9.5422  -17.5806   14.7922 O   0  0  0  0  0  0  0  0  0  0  0  0
    8.8129  -16.5654   16.7755 C   0  0  0  0  0  0  0  0  0  0  0  0
    9.3458  -16.0221   18.0713 C   0  0  0  0  0  0  0  0  0  0  0  0
    8.1474  -15.5124   18.8661 C   0  0  2  0  0  0  0  0  0  0  0  0
    7.5964  -14.4154   18.0919 N   0  0  0  0  0  0  0  0  0  0  0  0
    8.5022  -15.1222   20.2329 C   0  0  0  0  0  0  0  0  0  0  0  0
    9.4147  -14.2908   20.4244 O   0  0  0  0  0  0  0  0  0  0  0  0
    6.6875  -11.1988   27.3043 O   0  0  0  0  0  0  0  0  0  0  0  0
    6.7723  -12.2530   26.3893 C   0  0  0  0  0  0  0  0  0  0  0  0
    6.1765  -13.4469   26.7185 C   0  0  0  0  0  0  0  0  0  0  0  0
    6.2459  -14.4966   25.8337 C   0  0  0  0  0  0  0  0  0  0  0  0
    6.9017  -14.3935   24.6086 C   0  0  0  0  0  0  0  0  0  0  0  0
    6.9938  -15.4911   23.6326 C   0  0  0  0  0  0  0  0  0  0  0  0
    8.1868  -15.3441   22.7171 C   0  0  2  0  0  0  0  0  0  0  0  0
    7.8266  -15.6721   21.3445 N   0  0  0  0  0  0  0  0  0  0  0  0
    9.3646  -16.1150   23.1661 C   0  0  0  0  0  0  0  0  0  0  0  0
    9.5633  -17.2506   22.6807 O   0  0  0  0  0  0  0  0  0  0  0  0
    7.4934  -13.1712   24.3082 C   0  0  0  0  0  0  0  0  0  0  0  0
    7.4266  -12.1209   25.1893 C   0  0  0  0  0  0  0  0  0  0  0  0
    9.3522  -15.7897   30.5709 O   0  0  0  0  0  0  0  0  0  0  0  0
   10.0302  -15.7585   29.3752 C   0  0  0  0  0  0  0  0  0  0  0  0
   10.9450  -16.7433   29.0635 C   0  0  0  0  0  0  0  0  0  0  0  0
   11.6082  -16.6964   27.8740 C   0  0  0  0  0  0  0  0  0  0  0  0
   11.4161  -15.6849   26.9192 C   0  0  0  0  0  0  0  0  0  0  0  0
   12.1903  -15.6964   25.6616 C   0  0  0  0  0  0  0  0  0  0  0  0
   11.4830  -16.3753   24.5423 C   0  0  2  0  0  0  0  0  0  0  0  0
   10.2964  -15.6370   24.1256 N   0  0  0  0  0  0  0  0  0  0  0  0
   11.0668  -17.7298   24.9384 C   0  0  0  0  0  0  0  0  0  0  0  0
   11.9334  -18.6181   25.2361 O   0  0  0  0  0  0  0  0  0  0  0  0
   10.4998  -14.7230   27.2633 C   0  0  0  0  0  0  0  0  0  0  0  0
    9.8073  -14.7425   28.4678 C   0  0  0  0  0  0  0  0  0  0  0  0
    9.7413  -18.1080   25.0113 O   0  0  0  0  0  0  0  0  0  0  0  0
  2  1  1  0
  3  2  2  0
  4  2  1  0
  5  4  1  0
  6  5  1  0
  6  7  1  6
  8  6  1  0
  8  9  2  0
 10 11  1  0
 11 12  2  0
 12 13  1  0
 14 13  2  0
 14 15  1  0
 16 17  1  0
 16 15  1  1
 17  8  1  0
 18 16  1  0
 19 18  2  0
 20 14  1  0
 21 11  1  0
 21 20  2  0
 23 22  1  0
 23 24  2  0
 25 24  1  0
 26 25  2  0
 28 27  1  1
 27 26  1  0
 28 29  1  0
 29 18  1  0
 30 28  1  0
 30 34  1  0
 31 30  2  0
 32 33  2  0
 32 26  1  0
 33 23  1  0
M  END
$$$$
