QYY.pdb
     RDKit          3D

 34 35  0  0  1  0  0  0  0  0999 V2000
    4.5693  -20.9748   17.9131 N   0  0  0  0  0  0  0  0  0  0  0  0
    5.8677  -20.5097   18.1272 C   0  0  0  0  0  0  0  0  0  0  0  0
    6.6359  -20.4266   17.1330 O   0  0  0  0  0  0  0  0  0  0  0  0
    6.4105  -20.1041   19.4441 C   0  0  0  0  0  0  0  0  0  0  0  0
    7.1239  -18.7828   19.3870 C   0  0  0  0  0  0  0  0  0  0  0  0
    7.7310  -18.5452   20.7663 C   0  0  2  0  0  0  0  0  0  0  0  0
    6.6116  -18.4984   21.6890 N   0  0  0  0  0  0  0  0  0  0  0  0
    8.5607  -17.3389   20.8169 C   0  0  0  0  0  0  0  0  0  0  0  0
    9.6335  -17.2957   20.1782 O   0  0  0  0  0  0  0  0  0  0  0  0
    6.3630  -13.7983   27.3842 O   0  0  0  0  0  0  0  0  0  0  0  0
    6.7985  -13.7889   26.0553 C   0  0  0  0  0  0  0  0  0  0  0  0
    6.9230  -14.9933   25.4051 C   0  0  0  0  0  0  0  0  0  0  0  0
    7.3480  -15.0082   24.0980 C   0  0  0  0  0  0  0  0  0  0  0  0
    7.6586  -13.8402   23.4045 C   0  0  0  0  0  0  0  0  0  0  0  0
    8.1114  -13.8134   22.0045 C   0  0  0  0  0  0  0  0  0  0  0  0
    8.9721  -15.0060   21.6584 C   0  0  2  0  0  0  0  0  0  0  0  0
    8.1668  -16.2169   21.5788 N   0  0  0  0  0  0  0  0  0  0  0  0
   10.1214  -15.1798   22.5706 C   0  0  0  0  0  0  0  0  0  0  0  0
   10.9766  -14.2699   22.6437 O   0  0  0  0  0  0  0  0  0  0  0  0
    7.5215  -12.6396   24.0931 C   0  0  0  0  0  0  0  0  0  0  0  0
    7.0978  -12.6208   25.3984 C   0  0  0  0  0  0  0  0  0  0  0  0
   11.2077  -15.0886   31.0823 O   0  0  0  0  0  0  0  0  0  0  0  0
   10.8644  -15.2014   29.7558 C   0  0  0  0  0  0  0  0  0  0  0  0
   10.8519  -14.0893   28.9390 C   0  0  0  0  0  0  0  0  0  0  0  0
   10.5089  -14.2195   27.6266 C   0  0  0  0  0  0  0  0  0  0  0  0
   10.1584  -15.4439   27.0353 C   0  0  0  0  0  0  0  0  0  0  0  0
    9.7797  -15.4962   25.6088 C   0  0  0  0  0  0  0  0  0  0  0  0
   10.7316  -16.2804   24.7764 C   0  0  2  0  0  0  0  0  0  0  0  0
   10.3140  -16.3309   23.3800 N   0  0  0  0  0  0  0  0  0  0  0  0
   10.8398  -17.6606   25.2746 C   0  0  0  0  0  0  0  0  0  0  0  0
   11.4339  -17.9125   26.3757 O   0  0  0  0  0  0  0  0  0  0  0  0
   10.1816  -16.5273   27.8773 C   0  0  0  0  0  0  0  0  0  0  0  0
   10.5269  -16.4277   29.2195 C   0  0  0  0  0  0  0  0  0  0  0  0
   10.3128  -18.7395   24.5937 O   0  0  0  0  0  0  0  0  0  0  0  0
  2  1  1  0
  3  2  2  0
  4  2  1  0
  5  4  1  0
  6  5  1  0
  6  7  1  1
  8  6  1  0
  8  9  2  0
 10 11  1  0
 11 12  2  0
 12 13  1  0
 14 13  2  0
 14 15  1  0
 16 17  1  0
 16 15  1  1
 17  8  1  0
 18 16  1  0
 19 18  2  0
 20 14  1  0
 21 11  1  0
 21 20  2  0
 23 22  1  0
 23 24  2  0
 25 24  1  0
 26 25  2  0
 28 27  1  1
 27 26  1  0
 28 29  1  0
 29 18  1  0
 30 28  1  0
 30 34  1  0
 31 30  2  0
 32 33  2  0
 32 26  1  0
 33 23  1  0
M  END
$$$$
