QYY.pdb
     RDKit          3D

 34 35  0  0  1  0  0  0  0  0999 V2000
   14.7617  -13.3594   18.3849 N   0  0  0  0  0  0  0  0  0  0  0  0
   14.3702  -14.6209   17.9341 C   0  0  0  0  0  0  0  0  0  0  0  0
   14.6106  -14.9195   16.7348 O   0  0  0  0  0  0  0  0  0  0  0  0
   13.6903  -15.6392   18.7672 C   0  0  0  0  0  0  0  0  0  0  0  0
   12.4789  -15.0906   19.4669 C   0  0  0  0  0  0  0  0  0  0  0  0
   11.9516  -16.1965   20.3762 C   0  0  2  0  0  0  0  0  0  0  0  0
   11.3160  -17.1617   19.4982 N   0  0  0  0  0  0  0  0  0  0  0  0
   11.0495  -15.6909   21.4138 C   0  0  0  0  0  0  0  0  0  0  0  0
   11.4499  -14.8193   22.2142 O   0  0  0  0  0  0  0  0  0  0  0  0
    7.9118  -11.9256   17.4630 O   0  0  0  0  0  0  0  0  0  0  0  0
    7.7976  -12.7676   18.5737 C   0  0  0  0  0  0  0  0  0  0  0  0
    7.6172  -14.1120   18.3525 C   0  0  0  0  0  0  0  0  0  0  0  0
    7.5039  -14.9588   19.4293 C   0  0  0  0  0  0  0  0  0  0  0  0
    7.5658  -14.5012   20.7441 C   0  0  0  0  0  0  0  0  0  0  0  0
    7.4541  -15.3751   21.9229 C   0  0  0  0  0  0  0  0  0  0  0  0
    8.8001  -15.6831   22.5364 C   0  0  2  0  0  0  0  0  0  0  0  0
    9.7270  -16.1738   21.5258 N   0  0  0  0  0  0  0  0  0  0  0  0
    8.7184  -16.6048   23.6884 C   0  0  0  0  0  0  0  0  0  0  0  0
    9.1518  -17.7711   23.5599 O   0  0  0  0  0  0  0  0  0  0  0  0
    7.7489  -13.1352   20.9310 C   0  0  0  0  0  0  0  0  0  0  0  0
    7.8621  -12.2865   19.8582 C   0  0  0  0  0  0  0  0  0  0  0  0
   12.0540  -14.1224   30.0461 O   0  0  0  0  0  0  0  0  0  0  0  0
   10.9958  -14.7008   29.3860 C   0  0  0  0  0  0  0  0  0  0  0  0
   10.0965  -13.9218   28.6872 C   0  0  0  0  0  0  0  0  0  0  0  0
    9.0533  -14.5120   28.0389 C   0  0  0  0  0  0  0  0  0  0  0  0
    8.8278  -15.8979   28.0351 C   0  0  0  0  0  0  0  0  0  0  0  0
    7.6608  -16.4567   27.3231 C   0  0  0  0  0  0  0  0  0  0  0  0
    8.0232  -17.1651   26.0658 C   0  0  2  0  0  0  0  0  0  0  0  0
    8.1725  -16.2404   24.9480 N   0  0  0  0  0  0  0  0  0  0  0  0
    6.9912  -18.1523   25.7117 C   0  0  0  0  0  0  0  0  0  0  0  0
    6.7644  -19.1580   26.4640 O   0  0  0  0  0  0  0  0  0  0  0  0
    9.7415  -16.6405   28.7401 C   0  0  0  0  0  0  0  0  0  0  0  0
   10.8155  -16.0692   29.4113 C   0  0  0  0  0  0  0  0  0  0  0  0
    6.2235  -18.0471   24.5694 O   0  0  0  0  0  0  0  0  0  0  0  0
  2  1  1  0
  3  2  2  0
  4  2  1  0
  5  4  1  0
  6  5  1  0
  6  7  1  6
  8  6  1  0
  8  9  2  0
 10 11  1  0
 11 12  2  0
 12 13  1  0
 14 13  2  0
 14 15  1  0
 16 17  1  0
 16 15  1  6
 17  8  1  0
 18 16  1  0
 19 18  2  0
 20 14  1  0
 21 11  1  0
 21 20  2  0
 23 22  1  0
 23 24  2  0
 25 24  1  0
 26 25  2  0
 28 27  1  1
 27 26  1  0
 28 29  1  0
 29 18  1  0
 30 28  1  0
 30 34  1  0
 31 30  2  0
 32 33  2  0
 32 26  1  0
 33 23  1  0
M  END
$$$$
