QYY.pdb
     RDKit          3D

 34 35  0  0  1  0  0  0  0  0999 V2000
    7.2479  -20.8668   19.8471 N   0  0  0  0  0  0  0  0  0  0  0  0
    7.9268  -20.5446   18.6710 C   0  0  0  0  0  0  0  0  0  0  0  0
    7.7061  -21.2487   17.6508 O   0  0  0  0  0  0  0  0  0  0  0  0
    8.8918  -19.4296   18.5343 C   0  0  0  0  0  0  0  0  0  0  0  0
    9.0730  -18.6685   19.8173 C   0  0  0  0  0  0  0  0  0  0  0  0
    9.0658  -17.1854   19.4594 C   0  0  2  0  0  0  0  0  0  0  0  0
   10.0814  -17.0202   18.4358 N   0  0  0  0  0  0  0  0  0  0  0  0
    9.2859  -16.3236   20.6235 C   0  0  0  0  0  0  0  0  0  0  0  0
   10.4142  -16.2774   21.1577 O   0  0  0  0  0  0  0  0  0  0  0  0
    7.2007  -11.7292   27.8880 O   0  0  0  0  0  0  0  0  0  0  0  0
    7.1719  -12.3218   26.6216 C   0  0  0  0  0  0  0  0  0  0  0  0
    6.5573  -13.5441   26.4914 C   0  0  0  0  0  0  0  0  0  0  0  0
    6.5156  -14.1447   25.2557 C   0  0  0  0  0  0  0  0  0  0  0  0
    7.0766  -13.5560   24.1242 C   0  0  0  0  0  0  0  0  0  0  0  0
    7.0486  -14.1635   22.7840 C   0  0  0  0  0  0  0  0  0  0  0  0
    8.2988  -14.9594   22.4902 C   0  0  2  0  0  0  0  0  0  0  0  0
    8.2390  -15.5388   21.1553 N   0  0  0  0  0  0  0  0  0  0  0  0
    8.5903  -15.9855   23.5126 C   0  0  0  0  0  0  0  0  0  0  0  0
    7.9992  -17.0860   23.4486 O   0  0  0  0  0  0  0  0  0  0  0  0
    7.6906  -12.3194   24.2924 C   0  0  0  0  0  0  0  0  0  0  0  0
    7.7345  -11.7167   25.5248 C   0  0  0  0  0  0  0  0  0  0  0  0
   12.3754  -21.7800   28.6899 O   0  0  0  0  0  0  0  0  0  0  0  0
   11.9193  -20.8721   27.7636 C   0  0  0  0  0  0  0  0  0  0  0  0
   12.5729  -19.6708   27.5804 C   0  0  0  0  0  0  0  0  0  0  0  0
   12.1068  -18.7826   26.6581 C   0  0  0  0  0  0  0  0  0  0  0  0
   10.9749  -19.0162   25.8606 C   0  0  0  0  0  0  0  0  0  0  0  0
   10.5234  -17.9920   24.8970 C   0  0  0  0  0  0  0  0  0  0  0  0
    9.8598  -16.8281   25.5442 C   0  0  2  0  0  0  0  0  0  0  0  0
    9.5138  -15.7950   24.5748 N   0  0  0  0  0  0  0  0  0  0  0  0
   10.7396  -16.2296   26.5604 C   0  0  0  0  0  0  0  0  0  0  0  0
   10.5574  -16.4643   27.8016 O   0  0  0  0  0  0  0  0  0  0  0  0
   10.3507  -20.2202   26.0702 C   0  0  0  0  0  0  0  0  0  0  0  0
   10.8010  -21.1469   27.0024 C   0  0  0  0  0  0  0  0  0  0  0  0
   11.7926  -15.3987   26.2347 O   0  0  0  0  0  0  0  0  0  0  0  0
  2  1  1  0
  3  2  2  0
  4  2  1  0
  5  4  1  0
  6  5  1  0
  6  7  1  6
  8  6  1  0
  8  9  2  0
 10 11  1  0
 11 12  2  0
 12 13  1  0
 14 13  2  0
 14 15  1  0
 16 17  1  0
 16 15  1  1
 17  8  1  0
 18 16  1  0
 19 18  2  0
 20 14  1  0
 21 11  1  0
 21 20  2  0
 23 22  1  0
 23 24  2  0
 25 24  1  0
 26 25  2  0
 28 27  1  6
 27 26  1  0
 28 29  1  0
 29 18  1  0
 30 28  1  0
 30 34  1  0
 31 30  2  0
 32 33  2  0
 32 26  1  0
 33 23  1  0
M  END
$$$$
