QYY.pdb
     RDKit          3D

 34 35  0  0  1  0  0  0  0  0999 V2000
   12.0609  -17.0505   13.0451 N   0  0  0  0  0  0  0  0  0  0  0  0
   10.9320  -17.2631   13.8378 C   0  0  0  0  0  0  0  0  0  0  0  0
    9.8068  -17.2671   13.2727 O   0  0  0  0  0  0  0  0  0  0  0  0
   10.9607  -17.4862   15.3016 C   0  0  0  0  0  0  0  0  0  0  0  0
   12.3597  -17.5106   15.8496 C   0  0  0  0  0  0  0  0  0  0  0  0
   12.2510  -17.8602   17.3308 C   0  0  2  0  0  0  0  0  0  0  0  0
   10.9257  -17.4347   17.7418 N   0  0  0  0  0  0  0  0  0  0  0  0
   13.3171  -17.2547   18.1326 C   0  0  0  0  0  0  0  0  0  0  0  0
   14.5110  -17.5267   17.8854 O   0  0  0  0  0  0  0  0  0  0  0  0
   18.3468  -11.9626   17.1458 O   0  0  0  0  0  0  0  0  0  0  0  0
   17.2661  -12.5193   17.8371 C   0  0  0  0  0  0  0  0  0  0  0  0
   16.0840  -12.6959   17.1588 C   0  0  0  0  0  0  0  0  0  0  0  0
   15.0087  -13.2427   17.8178 C   0  0  0  0  0  0  0  0  0  0  0  0
   15.0742  -13.6268   19.1556 C   0  0  0  0  0  0  0  0  0  0  0  0
   13.9484  -14.2200   19.8948 C   0  0  0  0  0  0  0  0  0  0  0  0
   14.0532  -15.7245   19.9864 C   0  0  2  0  0  0  0  0  0  0  0  0
   13.0173  -16.3630   19.1860 N   0  0  0  0  0  0  0  0  0  0  0  0
   14.0484  -16.2256   21.3764 C   0  0  0  0  0  0  0  0  0  0  0  0
   12.9948  -16.1399   22.0451 O   0  0  0  0  0  0  0  0  0  0  0  0
   16.2856  -13.4337   19.8111 C   0  0  0  0  0  0  0  0  0  0  0  0
   17.3614  -12.8876   19.1566 C   0  0  0  0  0  0  0  0  0  0  0  0
   10.8396  -21.7817   21.8540 O   0  0  0  0  0  0  0  0  0  0  0  0
   11.9627  -21.0774   22.2183 C   0  0  0  0  0  0  0  0  0  0  0  0
   11.8596  -19.7724   22.6545 C   0  0  0  0  0  0  0  0  0  0  0  0
   12.9834  -19.0892   23.0113 C   0  0  0  0  0  0  0  0  0  0  0  0
   14.2737  -19.6412   22.9632 C   0  0  0  0  0  0  0  0  0  0  0  0
   15.4431  -18.8259   23.3490 C   0  0  0  0  0  0  0  0  0  0  0  0
   15.1652  -17.3642   23.3526 C   0  0  2  0  0  0  0  0  0  0  0  0
   15.1815  -16.8073   22.0049 N   0  0  0  0  0  0  0  0  0  0  0  0
   16.1668  -16.6486   24.1585 C   0  0  0  0  0  0  0  0  0  0  0  0
   16.3427  -16.9382   25.3890 O   0  0  0  0  0  0  0  0  0  0  0  0
   14.3376  -20.9399   22.5245 C   0  0  0  0  0  0  0  0  0  0  0  0
   13.2109  -21.6634   22.1536 C   0  0  0  0  0  0  0  0  0  0  0  0
   16.9591  -15.6449   23.6386 O   0  0  0  0  0  0  0  0  0  0  0  0
  2  1  1  0
  3  2  2  0
  4  2  1  0
  5  4  1  0
  6  5  1  0
  6  7  1  1
  8  6  1  0
  8  9  2  0
 10 11  1  0
 11 12  2  0
 12 13  1  0
 14 13  2  0
 14 15  1  0
 16 17  1  0
 16 15  1  1
 17  8  1  0
 18 16  1  0
 19 18  2  0
 20 14  1  0
 21 11  1  0
 21 20  2  0
 23 22  1  0
 23 24  2  0
 25 24  1  0
 26 25  2  0
 28 27  1  6
 27 26  1  0
 28 29  1  0
 29 18  1  0
 30 28  1  0
 30 34  1  0
 31 30  2  0
 32 33  2  0
 32 26  1  0
 33 23  1  0
M  END
$$$$
