QYY.pdb
     RDKit          3D

 34 35  0  0  1  0  0  0  0  0999 V2000
    8.1192  -12.9562   15.7084 N   0  0  0  0  0  0  0  0  0  0  0  0
    7.8614  -14.3278   15.6931 C   0  0  0  0  0  0  0  0  0  0  0  0
    7.8768  -14.9185   14.5813 O   0  0  0  0  0  0  0  0  0  0  0  0
    7.5703  -15.1434   16.8946 C   0  0  0  0  0  0  0  0  0  0  0  0
    7.8659  -14.4078   18.1712 C   0  0  0  0  0  0  0  0  0  0  0  0
    8.8204  -15.2831   18.9779 C   0  0  2  0  0  0  0  0  0  0  0  0
    8.9307  -16.5300   18.2434 N   0  0  0  0  0  0  0  0  0  0  0  0
    8.3768  -15.4748   20.3609 C   0  0  0  0  0  0  0  0  0  0  0  0
    8.2291  -14.4851   21.1087 O   0  0  0  0  0  0  0  0  0  0  0  0
    7.3047  -19.8541   27.9739 O   0  0  0  0  0  0  0  0  0  0  0  0
    7.3127  -19.4936   26.6227 C   0  0  0  0  0  0  0  0  0  0  0  0
    8.4064  -19.8395   25.8657 C   0  0  0  0  0  0  0  0  0  0  0  0
    8.4355  -19.4969   24.5349 C   0  0  0  0  0  0  0  0  0  0  0  0
    7.3906  -18.8080   23.9221 C   0  0  0  0  0  0  0  0  0  0  0  0
    7.3812  -18.4276   22.5005 C   0  0  0  0  0  0  0  0  0  0  0  0
    7.8770  -17.0171   22.2822 C   0  0  2  0  0  0  0  0  0  0  0  0
    8.1109  -16.7663   20.8667 N   0  0  0  0  0  0  0  0  0  0  0  0
    9.0660  -16.6850   23.0940 C   0  0  0  0  0  0  0  0  0  0  0  0
   10.1933  -17.0445   22.6882 O   0  0  0  0  0  0  0  0  0  0  0  0
    6.3000  -18.4738   24.7178 C   0  0  0  0  0  0  0  0  0  0  0  0
    6.2675  -18.8140   26.0472 C   0  0  0  0  0  0  0  0  0  0  0  0
    5.3446  -11.9360   27.3494 O   0  0  0  0  0  0  0  0  0  0  0  0
    6.5026  -12.4354   26.8018 C   0  0  0  0  0  0  0  0  0  0  0  0
    7.5709  -12.7695   27.6086 C   0  0  0  0  0  0  0  0  0  0  0  0
    8.7112  -13.2630   27.0487 C   0  0  0  0  0  0  0  0  0  0  0  0
    8.8742  -13.4591   25.6679 C   0  0  0  0  0  0  0  0  0  0  0  0
   10.1509  -13.9806   25.1393 C   0  0  0  0  0  0  0  0  0  0  0  0
   10.1770  -15.4638   25.0236 C   0  0  2  0  0  0  0  0  0  0  0  0
    9.0046  -15.9720   24.3209 N   0  0  0  0  0  0  0  0  0  0  0  0
   10.2209  -16.0864   26.3560 C   0  0  0  0  0  0  0  0  0  0  0  0
   11.2163  -15.8979   27.1322 O   0  0  0  0  0  0  0  0  0  0  0  0
    7.7919  -13.1158   24.8972 C   0  0  0  0  0  0  0  0  0  0  0  0
    6.6157  -12.6105   25.4372 C   0  0  0  0  0  0  0  0  0  0  0  0
    9.2066  -16.8919   26.8331 O   0  0  0  0  0  0  0  0  0  0  0  0
  2  1  1  0
  3  2  2  0
  4  2  1  0
  5  4  1  0
  6  5  1  0
  6  7  1  6
  8  6  1  0
  8  9  2  0
 10 11  1  0
 11 12  2  0
 12 13  1  0
 14 13  2  0
 14 15  1  0
 16 17  1  0
 16 15  1  6
 17  8  1  0
 18 16  1  0
 19 18  2  0
 20 14  1  0
 21 11  1  0
 21 20  2  0
 23 22  1  0
 23 24  2  0
 25 24  1  0
 26 25  2  0
 28 27  1  1
 27 26  1  0
 28 29  1  0
 29 18  1  0
 30 28  1  0
 30 34  1  0
 31 30  2  0
 32 33  2  0
 32 26  1  0
 33 23  1  0
M  END
$$$$
