QYY.pdb
     RDKit          3D

 34 35  0  0  1  0  0  0  0  0999 V2000
    8.1455  -16.8151   16.0568 N   0  0  0  0  0  0  0  0  0  0  0  0
    8.4107  -18.1785   16.1937 C   0  0  0  0  0  0  0  0  0  0  0  0
    7.7257  -18.9842   15.5104 O   0  0  0  0  0  0  0  0  0  0  0  0
    9.4443  -18.7497   17.0874 C   0  0  0  0  0  0  0  0  0  0  0  0
   10.2254  -17.6891   17.8107 C   0  0  0  0  0  0  0  0  0  0  0  0
   10.3371  -18.1337   19.2659 C   0  0  2  0  0  0  0  0  0  0  0  0
    8.9951  -18.5125   19.6684 N   0  0  0  0  0  0  0  0  0  0  0  0
   10.9195  -17.1018   20.1275 C   0  0  0  0  0  0  0  0  0  0  0  0
   12.0915  -16.7171   19.9305 O   0  0  0  0  0  0  0  0  0  0  0  0
    6.8305  -12.6839   17.7201 O   0  0  0  0  0  0  0  0  0  0  0  0
    7.5182  -13.1172   18.8581 C   0  0  0  0  0  0  0  0  0  0  0  0
    6.8135  -13.7981   19.8217 C   0  0  0  0  0  0  0  0  0  0  0  0
    7.4691  -14.2349   20.9481 C   0  0  0  0  0  0  0  0  0  0  0  0
    8.8297  -14.0112   21.1495 C   0  0  0  0  0  0  0  0  0  0  0  0
    9.5687  -14.4665   22.3379 C   0  0  0  0  0  0  0  0  0  0  0  0
   10.6812  -15.4267   21.9868 C   0  0  2  0  0  0  0  0  0  0  0  0
   10.1748  -16.5304   21.1827 N   0  0  0  0  0  0  0  0  0  0  0  0
   11.4247  -15.9140   23.1670 C   0  0  0  0  0  0  0  0  0  0  0  0
   12.2529  -15.1532   23.7148 O   0  0  0  0  0  0  0  0  0  0  0  0
    9.5115  -13.3189   20.1544 C   0  0  0  0  0  0  0  0  0  0  0  0
    8.8602  -12.8810   19.0283 C   0  0  0  0  0  0  0  0  0  0  0  0
   10.3272  -13.4403   30.0107 O   0  0  0  0  0  0  0  0  0  0  0  0
   10.1339  -14.2277   28.9004 C   0  0  0  0  0  0  0  0  0  0  0  0
   10.9928  -15.2718   28.6246 C   0  0  0  0  0  0  0  0  0  0  0  0
   10.7862  -16.0418   27.5195 C   0  0  0  0  0  0  0  0  0  0  0  0
    9.7282  -15.8371   26.6193 C   0  0  0  0  0  0  0  0  0  0  0  0
    9.5860  -16.7055   25.4332 C   0  0  0  0  0  0  0  0  0  0  0  0
   10.8292  -17.4515   25.0985 C   0  0  2  0  0  0  0  0  0  0  0  0
   11.2517  -17.2091   23.7239 N   0  0  0  0  0  0  0  0  0  0  0  0
   10.6265  -18.8987   25.2694 C   0  0  0  0  0  0  0  0  0  0  0  0
   10.3087  -19.6351   24.2766 O   0  0  0  0  0  0  0  0  0  0  0  0
    8.8950  -14.7904   26.9252 C   0  0  0  0  0  0  0  0  0  0  0  0
    9.0784  -13.9870   28.0438 C   0  0  0  0  0  0  0  0  0  0  0  0
   10.7682  -19.5297   26.4889 O   0  0  0  0  0  0  0  0  0  0  0  0
  2  1  1  0
  3  2  2  0
  4  2  1  0
  5  4  1  0
  6  5  1  0
  6  7  1  1
  8  6  1  0
  8  9  2  0
 10 11  1  0
 11 12  2  0
 12 13  1  0
 14 13  2  0
 14 15  1  0
 16 17  1  0
 16 15  1  1
 17  8  1  0
 18 16  1  0
 19 18  2  0
 20 14  1  0
 21 11  1  0
 21 20  2  0
 23 22  1  0
 23 24  2  0
 25 24  1  0
 26 25  2  0
 28 27  1  6
 27 26  1  0
 28 29  1  0
 29 18  1  0
 30 28  1  0
 30 34  1  0
 31 30  2  0
 32 33  2  0
 32 26  1  0
 33 23  1  0
M  END
$$$$
