QYY.pdb
     RDKit          3D

 34 35  0  0  1  0  0  0  0  0999 V2000
   13.6520  -18.8448   17.4496 N   0  0  0  0  0  0  0  0  0  0  0  0
   12.6469  -18.3259   16.6319 C   0  0  0  0  0  0  0  0  0  0  0  0
   12.9803  -17.8612   15.5102 O   0  0  0  0  0  0  0  0  0  0  0  0
   11.2101  -18.2824   16.9884 C   0  0  0  0  0  0  0  0  0  0  0  0
   10.8624  -17.0791   17.8186 C   0  0  0  0  0  0  0  0  0  0  0  0
   10.0617  -17.5815   19.0163 C   0  0  2  0  0  0  0  0  0  0  0  0
    8.7940  -18.0418   18.4801 N   0  0  0  0  0  0  0  0  0  0  0  0
    9.9030  -16.5619   20.0561 C   0  0  0  0  0  0  0  0  0  0  0  0
   10.7779  -15.6821   20.2020 O   0  0  0  0  0  0  0  0  0  0  0  0
    6.5817  -12.2488   27.0297 O   0  0  0  0  0  0  0  0  0  0  0  0
    6.7301  -13.0286   25.8784 C   0  0  0  0  0  0  0  0  0  0  0  0
    7.1814  -12.4160   24.7340 C   0  0  0  0  0  0  0  0  0  0  0  0
    7.3364  -13.1632   23.5906 C   0  0  0  0  0  0  0  0  0  0  0  0
    7.0511  -14.5265   23.5498 C   0  0  0  0  0  0  0  0  0  0  0  0
    7.2085  -15.3618   22.3484 C   0  0  0  0  0  0  0  0  0  0  0  0
    8.6581  -15.6625   22.0464 C   0  0  2  0  0  0  0  0  0  0  0  0
    8.7715  -16.5552   20.9012 N   0  0  0  0  0  0  0  0  0  0  0  0
    9.4009  -16.1824   23.2130 C   0  0  0  0  0  0  0  0  0  0  0  0
    9.0261  -17.2539   23.7384 O   0  0  0  0  0  0  0  0  0  0  0  0
    6.5965  -15.1137   24.7257 C   0  0  0  0  0  0  0  0  0  0  0  0
    6.4401  -14.3708   25.8692 C   0  0  0  0  0  0  0  0  0  0  0  0
   10.8647  -15.7165   31.6133 O   0  0  0  0  0  0  0  0  0  0  0  0
   10.6053  -15.5957   30.2686 C   0  0  0  0  0  0  0  0  0  0  0  0
   10.7567  -14.3804   29.6330 C   0  0  0  0  0  0  0  0  0  0  0  0
   10.4949  -14.2788   28.2995 C   0  0  0  0  0  0  0  0  0  0  0  0
   10.0703  -15.3588   27.5089 C   0  0  0  0  0  0  0  0  0  0  0  0
    9.7885  -15.1600   26.0729 C   0  0  0  0  0  0  0  0  0  0  0  0
   10.8939  -15.6175   25.1882 C   0  0  2  0  0  0  0  0  0  0  0  0
   10.5294  -15.5312   23.7787 N   0  0  0  0  0  0  0  0  0  0  0  0
   11.2518  -17.0132   25.4864 C   0  0  0  0  0  0  0  0  0  0  0  0
   11.7777  -17.3273   26.6061 O   0  0  0  0  0  0  0  0  0  0  0  0
    9.9305  -16.5507   28.1744 C   0  0  0  0  0  0  0  0  0  0  0  0
   10.1895  -16.6871   29.5327 C   0  0  0  0  0  0  0  0  0  0  0  0
   11.0409  -18.0417   24.5903 O   0  0  0  0  0  0  0  0  0  0  0  0
  2  1  1  0
  3  2  2  0
  4  2  1  0
  5  4  1  0
  6  5  1  0
  6  7  1  6
  8  6  1  0
  8  9  2  0
 10 11  1  0
 11 12  2  0
 12 13  1  0
 14 13  2  0
 14 15  1  0
 16 17  1  0
 16 15  1  1
 17  8  1  0
 18 16  1  0
 19 18  2  0
 20 14  1  0
 21 11  1  0
 21 20  2  0
 23 22  1  0
 23 24  2  0
 25 24  1  0
 26 25  2  0
 28 27  1  1
 27 26  1  0
 28 29  1  0
 29 18  1  0
 30 28  1  0
 30 34  1  0
 31 30  2  0
 32 33  2  0
 32 26  1  0
 33 23  1  0
M  END
$$$$
