QYY.pdb
     RDKit          3D

 34 35  0  0  1  0  0  0  0  0999 V2000
   12.4940  -14.6498   12.3842 N   0  0  0  0  0  0  0  0  0  0  0  0
   11.2902  -15.1891   12.8404 C   0  0  0  0  0  0  0  0  0  0  0  0
   10.2311  -14.8521   12.2487 O   0  0  0  0  0  0  0  0  0  0  0  0
   11.1668  -16.1337   13.9743 C   0  0  0  0  0  0  0  0  0  0  0  0
   11.0559  -15.4292   15.2970 C   0  0  0  0  0  0  0  0  0  0  0  0
   11.4551  -16.4357   16.3719 C   0  0  2  0  0  0  0  0  0  0  0  0
   10.3858  -17.4162   16.4130 N   0  0  0  0  0  0  0  0  0  0  0  0
   11.6993  -15.8053   17.6715 C   0  0  0  0  0  0  0  0  0  0  0  0
   12.5968  -14.9439   17.7853 O   0  0  0  0  0  0  0  0  0  0  0  0
    5.7953  -12.7524   17.9637 O   0  0  0  0  0  0  0  0  0  0  0  0
    6.7954  -13.4120   18.6851 C   0  0  0  0  0  0  0  0  0  0  0  0
    6.6727  -14.7679   18.8726 C   0  0  0  0  0  0  0  0  0  0  0  0
    7.6446  -15.4374   19.5773 C   0  0  0  0  0  0  0  0  0  0  0  0
    8.7558  -14.7878   20.1111 C   0  0  0  0  0  0  0  0  0  0  0  0
    9.8196  -15.4686   20.8664 C   0  0  0  0  0  0  0  0  0  0  0  0
   11.1216  -15.5197   20.1015 C   0  0  2  0  0  0  0  0  0  0  0  0
   10.9330  -16.1558   18.8049 N   0  0  0  0  0  0  0  0  0  0  0  0
   12.2191  -16.1541   20.8605 C   0  0  0  0  0  0  0  0  0  0  0  0
   12.4545  -17.3692   20.6793 O   0  0  0  0  0  0  0  0  0  0  0  0
    8.8477  -13.4158   19.9025 C   0  0  0  0  0  0  0  0  0  0  0  0
    7.8791  -12.7437   19.1997 C   0  0  0  0  0  0  0  0  0  0  0  0
   17.0504  -14.3576   16.9730 O   0  0  0  0  0  0  0  0  0  0  0  0
   16.6554  -14.5704   18.2726 C   0  0  0  0  0  0  0  0  0  0  0  0
   15.6159  -13.8439   18.8161 C   0  0  0  0  0  0  0  0  0  0  0  0
   15.2379  -14.0677   20.1061 C   0  0  0  0  0  0  0  0  0  0  0  0
   15.8532  -15.0148   20.9404 C   0  0  0  0  0  0  0  0  0  0  0  0
   15.3957  -15.1822   22.3346 C   0  0  0  0  0  0  0  0  0  0  0  0
   14.1904  -16.0460   22.4579 C   0  0  2  0  0  0  0  0  0  0  0  0
   13.0334  -15.4577   21.7931 N   0  0  0  0  0  0  0  0  0  0  0  0
   13.8488  -16.2593   23.8731 C   0  0  0  0  0  0  0  0  0  0  0  0
   14.6734  -16.8261   24.6654 O   0  0  0  0  0  0  0  0  0  0  0  0
   16.8826  -15.7178   20.3666 C   0  0  0  0  0  0  0  0  0  0  0  0
   17.2918  -15.5133   19.0546 C   0  0  0  0  0  0  0  0  0  0  0  0
   12.6418  -15.8640   24.4136 O   0  0  0  0  0  0  0  0  0  0  0  0
  2  1  1  0
  3  2  2  0
  4  2  1  0
  5  4  1  0
  6  5  1  0
  6  7  1  1
  8  6  1  0
  8  9  2  0
 10 11  1  0
 11 12  2  0
 12 13  1  0
 14 13  2  0
 14 15  1  0
 16 17  1  0
 16 15  1  1
 17  8  1  0
 18 16  1  0
 19 18  2  0
 20 14  1  0
 21 11  1  0
 21 20  2  0
 23 22  1  0
 23 24  2  0
 25 24  1  0
 26 25  2  0
 28 27  1  1
 27 26  1  0
 28 29  1  0
 29 18  1  0
 30 28  1  0
 30 34  1  0
 31 30  2  0
 32 33  2  0
 32 26  1  0
 33 23  1  0
M  END
$$$$
