PSW.pdb
     RDKit          3D

 28 30  0  0  1  0  0  0  0  0999 V2000
    8.6968  -14.7467   18.3994 N   0  0  0  0  0  0  0  0  0  0  0  0
    8.7087  -13.8351   17.2768 C   0  0  0  0  0  0  0  0  0  0  0  0
    7.7692  -12.7442   17.7095 C   0  0  0  0  0  0  0  0  0  0  0  0
    7.7094  -12.8131   19.2339 C   0  0  0  0  0  0  0  0  0  0  0  0
    8.7256  -13.8670   19.5295 C   0  0  1  0  0  0  0  0  0  0  0  0
    8.5290  -14.5691   20.8114 C   0  0  0  0  0  0  0  0  0  0  0  0
    8.5113  -13.9613   21.9178 O   0  0  0  0  0  0  0  0  0  0  0  0
    9.0654  -18.8026   21.2135 O   0  0  0  0  0  0  0  0  0  0  0  0
    7.9700  -18.2144   21.8264 C   0  0  0  0  0  0  0  0  0  0  0  0
    8.1714  -16.7404   22.0462 C   0  0  2  0  0  0  0  0  0  0  0  0
    8.3485  -15.9837   20.8519 N   0  0  0  0  0  0  0  0  0  0  0  0
    9.2390  -16.4747   23.0562 C   0  0  0  0  0  0  0  0  0  0  0  0
   10.3870  -16.1531   22.6690 O   0  0  0  0  0  0  0  0  0  0  0  0
    9.0118  -16.5702   24.4450 N   0  0  0  0  0  0  0  0  0  0  0  0
   10.0891  -16.4580   25.4419 C   0  0  1  0  0  0  0  0  0  0  0  0
    9.6375  -15.3379   26.3686 C   0  0  0  0  0  0  0  0  0  0  0  0
    8.2335  -14.9937   26.2553 C   0  0  0  0  0  0  0  0  0  0  0  0
    7.1955  -15.8747   26.0511 C   0  0  0  0  0  0  0  0  0  0  0  0
    6.0412  -15.1626   26.0029 N   0  0  0  0  0  0  0  0  0  0  0  0
    6.2856  -13.8504   26.1678 C   0  0  0  0  0  0  0  0  0  0  0  0
    5.4660  -12.7434   26.1964 C   0  0  0  0  0  0  0  0  0  0  0  0
    6.0260  -11.5019   26.3869 C   0  0  0  0  0  0  0  0  0  0  0  0
    7.3949  -11.3571   26.5486 C   0  0  0  0  0  0  0  0  0  0  0  0
    8.1805  -12.4663   26.5161 C   0  0  0  0  0  0  0  0  0  0  0  0
    7.6730  -13.7399   26.3279 C   0  0  0  0  0  0  0  0  0  0  0  0
   10.0888  -17.7085   26.2409 C   0  0  0  0  0  0  0  0  0  0  0  0
    9.2084  -18.5921   26.0865 O   0  0  0  0  0  0  0  0  0  0  0  0
   11.0612  -17.9595   27.1957 O   0  0  0  0  0  0  0  0  0  0  0  0
  1  2  1  0
  2  3  1  0
  4  3  1  0
  5  1  1  0
  5  4  1  0
  5  6  1  1
  6 11  1  0
  7  6  2  0
  9  8  1  0
 10 12  1  0
 10  9  1  6
 11 10  1  0
 12 14  1  0
 13 12  2  0
 14 15  1  0
 15 26  1  0
 15 16  1  1
 17 16  1  0
 18 17  2  0
 19 20  1  0
 19 18  1  0
 20 25  2  0
 21 22  2  0
 21 20  1  0
 22 23  1  0
 23 24  2  0
 25 17  1  0
 25 24  1  0
 26 27  2  0
 26 28  1  0
M  END
$$$$
