PSW.pdb
     RDKit          3D

 28 30  0  0  1  0  0  0  0  0999 V2000
    7.4890  -19.8170   21.0468 N   0  0  0  0  0  0  0  0  0  0  0  0
    6.9594  -21.0272   20.4584 C   0  0  0  0  0  0  0  0  0  0  0  0
    6.8287  -20.6735   19.0031 C   0  0  0  0  0  0  0  0  0  0  0  0
    7.7842  -19.5071   18.7605 C   0  0  0  0  0  0  0  0  0  0  0  0
    8.4623  -19.3905   20.0862 C   0  0  1  0  0  0  0  0  0  0  0  0
    9.0145  -18.0548   20.3794 C   0  0  0  0  0  0  0  0  0  0  0  0
   10.0894  -17.6408   19.8627 O   0  0  0  0  0  0  0  0  0  0  0  0
    7.8962  -13.5202   21.2321 O   0  0  0  0  0  0  0  0  0  0  0  0
    7.5094  -14.8500   21.1723 C   0  0  0  0  0  0  0  0  0  0  0  0
    8.6616  -15.7838   21.4212 C   0  0  2  0  0  0  0  0  0  0  0  0
    8.3456  -17.1651   21.2718 N   0  0  0  0  0  0  0  0  0  0  0  0
    9.3398  -15.4884   22.7186 C   0  0  0  0  0  0  0  0  0  0  0  0
    9.9044  -14.3810   22.8804 O   0  0  0  0  0  0  0  0  0  0  0  0
    9.3746  -16.4109   23.7850 N   0  0  0  0  0  0  0  0  0  0  0  0
   10.0916  -16.1519   25.0443 C   0  0  1  0  0  0  0  0  0  0  0  0
    9.0378  -16.3309   26.1282 C   0  0  0  0  0  0  0  0  0  0  0  0
    7.8564  -15.5072   25.9593 C   0  0  0  0  0  0  0  0  0  0  0  0
    6.6148  -15.9419   25.5530 C   0  0  0  0  0  0  0  0  0  0  0  0
    5.7828  -14.8703   25.5201 N   0  0  0  0  0  0  0  0  0  0  0  0
    6.4333  -13.7526   25.8893 C   0  0  0  0  0  0  0  0  0  0  0  0
    6.0375  -12.4388   26.0141 C   0  0  0  0  0  0  0  0  0  0  0  0
    6.9558  -11.5000   26.4223 C   0  0  0  0  0  0  0  0  0  0  0  0
    8.2633  -11.8616   26.7063 C   0  0  0  0  0  0  0  0  0  0  0  0
    8.6270  -13.1650   26.5749 C   0  0  0  0  0  0  0  0  0  0  0  0
    7.7467  -14.1524   26.1682 C   0  0  0  0  0  0  0  0  0  0  0  0
   11.0860  -17.2389   25.2226 C   0  0  0  0  0  0  0  0  0  0  0  0
   11.8467  -17.2823   26.2221 O   0  0  0  0  0  0  0  0  0  0  0  0
   11.2215  -18.2577   24.2931 O   0  0  0  0  0  0  0  0  0  0  0  0
  1  2  1  0
  2  3  1  0
  4  3  1  0
  5  1  1  0
  5  4  1  0
  5  6  1  1
  6 11  1  0
  7  6  2  0
  9  8  1  0
 10 12  1  0
 10  9  1  1
 11 10  1  0
 12 14  1  0
 13 12  2  0
 14 15  1  0
 15 26  1  0
 15 16  1  1
 17 16  1  0
 18 17  2  0
 19 20  1  0
 19 18  1  0
 20 25  2  0
 21 22  2  0
 21 20  1  0
 22 23  1  0
 23 24  2  0
 25 17  1  0
 25 24  1  0
 26 27  2  0
 26 28  1  0
M  END
$$$$
