PSW.pdb
     RDKit          3D

 28 30  0  0  1  0  0  0  0  0999 V2000
    9.1322  -14.3521   18.7510 N   0  0  0  0  0  0  0  0  0  0  0  0
    8.8817  -13.3546   17.7343 C   0  0  0  0  0  0  0  0  0  0  0  0
    7.4469  -12.9742   17.9717 C   0  0  0  0  0  0  0  0  0  0  0  0
    7.1380  -13.3576   19.4174 C   0  0  0  0  0  0  0  0  0  0  0  0
    8.4759  -13.8101   19.9031 C   0  0  1  0  0  0  0  0  0  0  0  0
    8.4325  -14.7513   21.0376 C   0  0  0  0  0  0  0  0  0  0  0  0
    7.8228  -14.4867   22.1110 O   0  0  0  0  0  0  0  0  0  0  0  0
   10.9622  -18.2363   21.2032 O   0  0  0  0  0  0  0  0  0  0  0  0
    9.6411  -18.3283   21.6126 C   0  0  0  0  0  0  0  0  0  0  0  0
    9.0786  -16.9902   22.0058 C   0  0  2  0  0  0  0  0  0  0  0  0
    9.0876  -16.0166   20.9654 N   0  0  0  0  0  0  0  0  0  0  0  0
    9.6931  -16.4839   23.2694 C   0  0  0  0  0  0  0  0  0  0  0  0
   10.6858  -15.7208   23.2089 O   0  0  0  0  0  0  0  0  0  0  0  0
    9.2009  -16.8295   24.5452 N   0  0  0  0  0  0  0  0  0  0  0  0
    9.8258  -16.3689   25.7960 C   0  0  1  0  0  0  0  0  0  0  0  0
    8.6687  -16.2393   26.7766 C   0  0  0  0  0  0  0  0  0  0  0  0
    7.5666  -15.4256   26.3011 C   0  0  0  0  0  0  0  0  0  0  0  0
    6.4062  -15.8884   25.7227 C   0  0  0  0  0  0  0  0  0  0  0  0
    5.6310  -14.8173   25.4172 N   0  0  0  0  0  0  0  0  0  0  0  0
    6.2406  -13.6728   25.7739 C   0  0  0  0  0  0  0  0  0  0  0  0
    5.8734  -12.3485   25.6762 C   0  0  0  0  0  0  0  0  0  0  0  0
    6.7330  -11.3806   26.1406 C   0  0  0  0  0  0  0  0  0  0  0  0
    7.9535  -11.7235   26.7004 C   0  0  0  0  0  0  0  0  0  0  0  0
    8.2908  -13.0380   26.7844 C   0  0  0  0  0  0  0  0  0  0  0  0
    7.4666  -14.0544   26.3341 C   0  0  0  0  0  0  0  0  0  0  0  0
   10.6931  -17.4665   26.2912 C   0  0  0  0  0  0  0  0  0  0  0  0
   10.6392  -18.6236   25.8037 O   0  0  0  0  0  0  0  0  0  0  0  0
   11.6040  -17.2651   27.3160 O   0  0  0  0  0  0  0  0  0  0  0  0
  1  2  1  0
  2  3  1  0
  4  3  1  0
  5  1  1  0
  5  4  1  0
  5  6  1  1
  6 11  1  0
  7  6  2  0
  9  8  1  0
 10 12  1  0
 10  9  1  6
 11 10  1  0
 12 14  1  0
 13 12  2  0
 14 15  1  0
 15 26  1  0
 15 16  1  1
 17 16  1  0
 18 17  2  0
 19 20  1  0
 19 18  1  0
 20 25  2  0
 21 22  2  0
 21 20  1  0
 22 23  1  0
 23 24  2  0
 25 17  1  0
 25 24  1  0
 26 27  2  0
 26 28  1  0
M  END
$$$$
