PSW.pdb
     RDKit          3D

 28 30  0  0  1  0  0  0  0  0999 V2000
    8.9811  -14.6849   18.3390 N   0  0  0  0  0  0  0  0  0  0  0  0
    8.8947  -13.7070   17.2770 C   0  0  0  0  0  0  0  0  0  0  0  0
    7.7634  -12.8202   17.7171 C   0  0  0  0  0  0  0  0  0  0  0  0
    7.6397  -13.0053   19.2279 C   0  0  0  0  0  0  0  0  0  0  0  0
    8.8037  -13.8944   19.5204 C   0  0  1  0  0  0  0  0  0  0  0  0
    8.6648  -14.7079   20.7426 C   0  0  0  0  0  0  0  0  0  0  0  0
    8.4460  -14.1933   21.8744 O   0  0  0  0  0  0  0  0  0  0  0  0
    9.9464  -18.8136   21.0072 O   0  0  0  0  0  0  0  0  0  0  0  0
    8.6993  -18.4572   21.4962 C   0  0  0  0  0  0  0  0  0  0  0  0
    8.6182  -16.9903   21.8176 C   0  0  2  0  0  0  0  0  0  0  0  0
    8.7737  -16.1295   20.6928 N   0  0  0  0  0  0  0  0  0  0  0  0
    9.5214  -16.6234   22.9489 C   0  0  0  0  0  0  0  0  0  0  0  0
   10.5649  -15.9688   22.7167 O   0  0  0  0  0  0  0  0  0  0  0  0
    9.2504  -16.9844   24.2852 N   0  0  0  0  0  0  0  0  0  0  0  0
   10.1509  -16.6539   25.4020 C   0  0  1  0  0  0  0  0  0  0  0  0
    9.8300  -15.2038   25.7359 C   0  0  0  0  0  0  0  0  0  0  0  0
    8.4217  -14.9346   25.9522 C   0  0  0  0  0  0  0  0  0  0  0  0
    7.3994  -15.8542   25.8835 C   0  0  0  0  0  0  0  0  0  0  0  0
    6.2344  -15.2102   26.1472 N   0  0  0  0  0  0  0  0  0  0  0  0
    6.4566  -13.9053   26.3855 C   0  0  0  0  0  0  0  0  0  0  0  0
    5.6191  -12.8554   26.6929 C   0  0  0  0  0  0  0  0  0  0  0  0
    6.1577  -11.6045   26.8834 C   0  0  0  0  0  0  0  0  0  0  0  0
    7.5228  -11.3937   26.7695 C   0  0  0  0  0  0  0  0  0  0  0  0
    8.3263  -12.4474   26.4652 C   0  0  0  0  0  0  0  0  0  0  0  0
    7.8408  -13.7274   26.2628 C   0  0  0  0  0  0  0  0  0  0  0  0
    9.7324  -17.4704   26.5683 C   0  0  0  0  0  0  0  0  0  0  0  0
    8.7583  -18.2621   26.5064 O   0  0  0  0  0  0  0  0  0  0  0  0
   10.3980  -17.3969   27.7816 O   0  0  0  0  0  0  0  0  0  0  0  0
  1  2  1  0
  2  3  1  0
  4  3  1  0
  5  1  1  0
  5  4  1  0
  5  6  1  1
  6 11  1  0
  7  6  2  0
  9  8  1  0
 10 12  1  0
 10  9  1  6
 11 10  1  0
 12 14  1  0
 13 12  2  0
 14 15  1  0
 15 26  1  0
 15 16  1  1
 17 16  1  0
 18 17  2  0
 19 20  1  0
 19 18  1  0
 20 25  2  0
 21 22  2  0
 21 20  1  0
 22 23  1  0
 23 24  2  0
 25 17  1  0
 25 24  1  0
 26 27  2  0
 26 28  1  0
M  END
$$$$
