PSW.pdb
     RDKit          3D

 28 30  0  0  1  0  0  0  0  0999 V2000
    9.1840  -14.8249   18.4098 N   0  0  0  0  0  0  0  0  0  0  0  0
    9.1322  -13.8924   17.3056 C   0  0  0  0  0  0  0  0  0  0  0  0
    7.9439  -13.0331   17.6365 C   0  0  0  0  0  0  0  0  0  0  0  0
    7.7289  -13.1648   19.1427 C   0  0  0  0  0  0  0  0  0  0  0  0
    8.9023  -13.9971   19.5444 C   0  0  1  0  0  0  0  0  0  0  0  0
    8.7133  -14.7679   20.7873 C   0  0  0  0  0  0  0  0  0  0  0  0
    8.4746  -14.2129   21.8958 O   0  0  0  0  0  0  0  0  0  0  0  0
    9.9985  -18.8245   21.0831 O   0  0  0  0  0  0  0  0  0  0  0  0
    8.7987  -18.4845   21.6883 C   0  0  0  0  0  0  0  0  0  0  0  0
    8.6986  -17.0071   21.9506 C   0  0  2  0  0  0  0  0  0  0  0  0
    8.7939  -16.1923   20.7855 N   0  0  0  0  0  0  0  0  0  0  0  0
    9.6355  -16.5745   23.0303 C   0  0  0  0  0  0  0  0  0  0  0  0
   10.7726  -16.1453   22.7237 O   0  0  0  0  0  0  0  0  0  0  0  0
    9.2948  -16.6272   24.3979 N   0  0  0  0  0  0  0  0  0  0  0  0
   10.2741  -16.4117   25.4757 C   0  0  1  0  0  0  0  0  0  0  0  0
    9.8559  -15.0949   26.1149 C   0  0  0  0  0  0  0  0  0  0  0  0
    8.4223  -14.8860   26.1773 C   0  0  0  0  0  0  0  0  0  0  0  0
    7.4533  -15.8490   26.0063 C   0  0  0  0  0  0  0  0  0  0  0  0
    6.2404  -15.2550   26.1392 N   0  0  0  0  0  0  0  0  0  0  0  0
    6.3801  -13.9411   26.3903 C   0  0  0  0  0  0  0  0  0  0  0  0
    5.4705  -12.9275   26.5987 C   0  0  0  0  0  0  0  0  0  0  0  0
    5.9320  -11.6540   26.8365 C   0  0  0  0  0  0  0  0  0  0  0  0
    7.2912  -11.3849   26.8678 C   0  0  0  0  0  0  0  0  0  0  0  0
    8.1668  -12.4038   26.6590 C   0  0  0  0  0  0  0  0  0  0  0  0
    7.7606  -13.7042   26.4152 C   0  0  0  0  0  0  0  0  0  0  0  0
   10.0609  -17.4733   26.4904 C   0  0  0  0  0  0  0  0  0  0  0  0
   10.7502  -17.5338   27.5395 O   0  0  0  0  0  0  0  0  0  0  0  0
    9.0899  -18.4484   26.3270 O   0  0  0  0  0  0  0  0  0  0  0  0
  1  2  1  0
  2  3  1  0
  4  3  1  0
  5  1  1  0
  5  4  1  0
  5  6  1  1
  6 11  1  0
  7  6  2  0
  9  8  1  0
 10 12  1  0
 10  9  1  6
 11 10  1  0
 12 14  1  0
 13 12  2  0
 14 15  1  0
 15 26  1  0
 15 16  1  1
 17 16  1  0
 18 17  2  0
 19 20  1  0
 19 18  1  0
 20 25  2  0
 21 22  2  0
 21 20  1  0
 22 23  1  0
 23 24  2  0
 25 17  1  0
 25 24  1  0
 26 27  2  0
 26 28  1  0
M  END
$$$$
