PSW.pdb
     RDKit          3D

 28 30  0  0  1  0  0  0  0  0999 V2000
    8.3923  -14.9028   17.8276 N   0  0  0  0  0  0  0  0  0  0  0  0
    8.4660  -14.0292   16.6775 C   0  0  0  0  0  0  0  0  0  0  0  0
    7.7965  -12.7716   17.1574 C   0  0  0  0  0  0  0  0  0  0  0  0
    7.8747  -12.8024   18.6822 C   0  0  0  0  0  0  0  0  0  0  0  0
    8.6977  -14.0262   18.9185 C   0  0  1  0  0  0  0  0  0  0  0  0
    8.4988  -14.6562   20.2370 C   0  0  0  0  0  0  0  0  0  0  0  0
    8.7836  -14.0666   21.3164 O   0  0  0  0  0  0  0  0  0  0  0  0
    8.3611  -18.8661   20.8027 O   0  0  0  0  0  0  0  0  0  0  0  0
    7.3767  -18.1118   21.4220 C   0  0  0  0  0  0  0  0  0  0  0  0
    7.7830  -16.6721   21.5754 C   0  0  2  0  0  0  0  0  0  0  0  0
    7.9690  -15.9763   20.3459 N   0  0  0  0  0  0  0  0  0  0  0  0
    8.9470  -16.5235   22.4993 C   0  0  0  0  0  0  0  0  0  0  0  0
   10.0848  -16.2961   22.0250 O   0  0  0  0  0  0  0  0  0  0  0  0
    8.8230  -16.6285   23.9004 N   0  0  0  0  0  0  0  0  0  0  0  0
    9.9703  -16.5169   24.8161 C   0  0  1  0  0  0  0  0  0  0  0  0
    9.7582  -15.1922   25.5355 C   0  0  0  0  0  0  0  0  0  0  0  0
    8.3678  -14.8198   25.7108 C   0  0  0  0  0  0  0  0  0  0  0  0
    7.2884  -15.6738   25.6800 C   0  0  0  0  0  0  0  0  0  0  0  0
    6.1647  -14.9408   25.8844 N   0  0  0  0  0  0  0  0  0  0  0  0
    6.4689  -13.6409   26.0475 C   0  0  0  0  0  0  0  0  0  0  0  0
    5.6980  -12.5222   26.2766 C   0  0  0  0  0  0  0  0  0  0  0  0
    6.3150  -11.2994   26.4006 C   0  0  0  0  0  0  0  0  0  0  0  0
    7.6923  -11.1847   26.2978 C   0  0  0  0  0  0  0  0  0  0  0  0
    8.4290  -12.3048   26.0714 C   0  0  0  0  0  0  0  0  0  0  0  0
    7.8633  -13.5608   25.9382 C   0  0  0  0  0  0  0  0  0  0  0  0
    9.8348  -17.5892   25.8329 C   0  0  0  0  0  0  0  0  0  0  0  0
   10.7176  -17.7897   26.7046 O   0  0  0  0  0  0  0  0  0  0  0  0
    8.7263  -18.4201   25.8675 O   0  0  0  0  0  0  0  0  0  0  0  0
  1  2  1  0
  2  3  1  0
  4  3  1  0
  5  1  1  0
  5  4  1  0
  5  6  1  1
  6 11  1  0
  7  6  2  0
  9  8  1  0
 10 12  1  0
 10  9  1  6
 11 10  1  0
 12 14  1  0
 13 12  2  0
 14 15  1  0
 15 26  1  0
 15 16  1  1
 17 16  1  0
 18 17  2  0
 19 20  1  0
 19 18  1  0
 20 25  2  0
 21 22  2  0
 21 20  1  0
 22 23  1  0
 23 24  2  0
 25 17  1  0
 25 24  1  0
 26 27  2  0
 26 28  1  0
M  END
$$$$
