PSW.pdb
     RDKit          3D

 28 30  0  0  1  0  0  0  0  0999 V2000
    8.8889  -14.6806   18.4001 N   0  0  0  0  0  0  0  0  0  0  0  0
    8.9008  -13.7179   17.3209 C   0  0  0  0  0  0  0  0  0  0  0  0
    7.8445  -12.7295   17.7300 C   0  0  0  0  0  0  0  0  0  0  0  0
    7.6859  -12.8766   19.2418 C   0  0  0  0  0  0  0  0  0  0  0  0
    8.7651  -13.8570   19.5655 C   0  0  1  0  0  0  0  0  0  0  0  0
    8.5409  -14.6339   20.7989 C   0  0  0  0  0  0  0  0  0  0  0  0
    8.3779  -14.0829   21.9231 O   0  0  0  0  0  0  0  0  0  0  0  0
    9.5532  -18.7834   21.0319 O   0  0  0  0  0  0  0  0  0  0  0  0
    8.3776  -18.3631   21.6343 C   0  0  0  0  0  0  0  0  0  0  0  0
    8.3892  -16.8874   21.9239 C   0  0  2  0  0  0  0  0  0  0  0  0
    8.4988  -16.0596   20.7693 N   0  0  0  0  0  0  0  0  0  0  0  0
    9.3916  -16.5400   22.9751 C   0  0  0  0  0  0  0  0  0  0  0  0
   10.5134  -16.0969   22.6340 O   0  0  0  0  0  0  0  0  0  0  0  0
    9.1303  -16.6895   24.3530 N   0  0  0  0  0  0  0  0  0  0  0  0
   10.1568  -16.4884   25.3889 C   0  0  1  0  0  0  0  0  0  0  0  0
    9.8160  -15.1404   26.0086 C   0  0  0  0  0  0  0  0  0  0  0  0
    8.3976  -14.8424   26.0560 C   0  0  0  0  0  0  0  0  0  0  0  0
    7.3722  -15.7535   25.9383 C   0  0  0  0  0  0  0  0  0  0  0  0
    6.1974  -15.0810   26.0345 N   0  0  0  0  0  0  0  0  0  0  0  0
    6.4163  -13.7657   26.2104 C   0  0  0  0  0  0  0  0  0  0  0  0
    5.5697  -12.6889   26.3587 C   0  0  0  0  0  0  0  0  0  0  0  0
    6.1073  -11.4340   26.5242 C   0  0  0  0  0  0  0  0  0  0  0  0
    7.4803  -11.2458   26.5429 C   0  0  0  0  0  0  0  0  0  0  0  0
    8.2927  -12.3259   26.3944 C   0  0  0  0  0  0  0  0  0  0  0  0
    7.8087  -13.6112   26.2246 C   0  0  0  0  0  0  0  0  0  0  0  0
    9.9388  -17.5154   26.4376 C   0  0  0  0  0  0  0  0  0  0  0  0
    8.9740  -18.3191   26.3861 O   0  0  0  0  0  0  0  0  0  0  0  0
   10.7910  -17.6354   27.5237 O   0  0  0  0  0  0  0  0  0  0  0  0
  1  2  1  0
  2  3  1  0
  4  3  1  0
  5  1  1  0
  5  4  1  0
  5  6  1  1
  6 11  1  0
  7  6  2  0
  9  8  1  0
 10 12  1  0
 10  9  1  6
 11 10  1  0
 12 14  1  0
 13 12  2  0
 14 15  1  0
 15 26  1  0
 15 16  1  1
 17 16  1  0
 18 17  2  0
 19 20  1  0
 19 18  1  0
 20 25  2  0
 21 22  2  0
 21 20  1  0
 22 23  1  0
 23 24  2  0
 25 17  1  0
 25 24  1  0
 26 27  2  0
 26 28  1  0
M  END
$$$$
