KFH.pdb
     RDKit          3D

 31 32  0  0  1  0  0  0  0  0999 V2000
   27.1288  -21.7604  -18.5006 N   0  0  0  0  0  0  0  0  0  0  0  0
   27.5246  -20.8060  -17.5242 C   0  0  1  0  0  0  0  0  0  0  0  0
   27.3749  -19.3556  -17.9643 C   0  0  0  0  0  0  0  0  0  0  0  0
   26.3392  -19.1188  -19.0061 C   0  0  0  0  0  0  0  0  0  0  0  0
   26.8288  -18.6971  -20.3460 C   0  0  0  0  0  0  0  0  0  0  0  0
   26.3052  -17.3289  -20.7538 C   0  0  0  0  0  0  0  0  0  0  0  0
   24.9329  -17.4573  -21.2014 N   0  0  0  0  0  0  0  0  0  0  0  0
   26.8911  -21.0567  -16.2345 C   0  0  0  0  0  0  0  0  0  0  0  0
   25.9537  -21.9463  -16.2411 O   0  0  0  0  0  0  0  0  0  0  0  0
   27.1267  -20.4926  -14.9816 N   0  0  0  0  0  0  0  0  0  0  0  0
   26.3736  -20.8478  -13.7802 C   0  0  1  0  0  0  0  0  0  0  0  0
   27.1255  -20.2770  -12.5988 C   0  0  0  0  0  0  0  0  0  0  0  0
   26.3796  -20.4522  -11.3262 C   0  0  0  0  0  0  0  0  0  0  0  0
   26.2214  -21.6988  -10.7607 C   0  0  0  0  0  0  0  0  0  0  0  0
   25.5297  -21.8517   -9.5791 C   0  0  0  0  0  0  0  0  0  0  0  0
   25.0088  -20.7196   -8.9935 C   0  0  0  0  0  0  0  0  0  0  0  0
   25.1654  -19.4562   -9.5607 C   0  0  0  0  0  0  0  0  0  0  0  0
   25.8585  -19.3076  -10.7434 C   0  0  0  0  0  0  0  0  0  0  0  0
   25.0240  -20.2554  -13.7783 C   0  0  0  0  0  0  0  0  0  0  0  0
   24.9210  -19.0577  -14.1453 O   0  0  0  0  0  0  0  0  0  0  0  0
   23.8456  -20.9482  -13.3907 N   0  0  0  0  0  0  0  0  0  0  0  0
   22.5455  -20.2998  -13.3390 C   0  0  1  0  0  0  0  0  0  0  0  0
   21.8890  -20.5110  -14.6804 C   0  0  0  0  0  0  0  0  0  0  0  0
   20.5561  -19.9077  -14.8018 C   0  0  0  0  0  0  0  0  0  0  0  0
   19.9172  -19.1802  -13.8122 C   0  0  0  0  0  0  0  0  0  0  0  0
   18.7294  -18.8162  -14.3318 N   0  0  0  0  0  0  0  0  0  0  0  0
   18.6476  -19.2992  -15.5798 C   0  0  0  0  0  0  0  0  0  0  0  0
   19.7560  -19.9748  -15.8965 N   0  0  0  0  0  0  0  0  0  0  0  0
   21.7375  -20.7933  -12.2010 C   0  0  0  0  0  0  0  0  0  0  0  0
   22.0142  -21.8343  -11.5507 O   0  0  0  0  0  0  0  0  0  0  0  0
   20.6082  -20.0970  -11.8011 O   0  0  0  0  0  0  0  0  0  0  0  0
  2  1  1  6
  3  2  1  0
  3  4  1  0
  5  4  1  0
  6  5  1  0
  7  6  1  0
  8  9  2  0
  8  2  1  0
 10  8  1  0
 11 10  1  0
 11 12  1  1
 12 13  1  0
 13 18  1  0
 13 14  2  0
 14 15  1  0
 15 16  2  0
 17 16  1  0
 18 17  2  0
 19 11  1  0
 20 19  2  0
 21 19  1  0
 22 29  1  0
 22 21  1  0
 22 23  1  6
 23 24  1  0
 24 28  1  0
 24 25  2  0
 25 26  1  0
 27 26  1  0
 28 27  2  0
 29 31  1  0
 30 29  2  0
M  END
$$$$
