KFH.pdb
     RDKit          3D

 31 32  0  0  1  0  0  0  0  0999 V2000
   25.8323  -13.1905  -19.8864 N   0  0  0  0  0  0  0  0  0  0  0  0
   24.8764  -12.1570  -20.0836 C   0  0  1  0  0  0  0  0  0  0  0  0
   23.7179  -12.5364  -20.9968 C   0  0  0  0  0  0  0  0  0  0  0  0
   23.2274  -13.9327  -20.8422 C   0  0  0  0  0  0  0  0  0  0  0  0
   22.0737  -14.3297  -21.6933 C   0  0  0  0  0  0  0  0  0  0  0  0
   21.6678  -15.7804  -21.4850 C   0  0  0  0  0  0  0  0  0  0  0  0
   20.5629  -16.0979  -22.3672 N   0  0  0  0  0  0  0  0  0  0  0  0
   24.4171  -11.5959  -18.8180 C   0  0  0  0  0  0  0  0  0  0  0  0
   23.5984  -12.3378  -18.1476 O   0  0  0  0  0  0  0  0  0  0  0  0
   24.7134  -10.3809  -18.2021 N   0  0  0  0  0  0  0  0  0  0  0  0
   24.2291  -10.0081  -16.8742 C   0  0  1  0  0  0  0  0  0  0  0  0
   25.4410   -9.6541  -16.0418 C   0  0  0  0  0  0  0  0  0  0  0  0
   26.3136  -10.8315  -15.7993 C   0  0  0  0  0  0  0  0  0  0  0  0
   27.5329  -10.9546  -16.4295 C   0  0  0  0  0  0  0  0  0  0  0  0
   28.3365  -12.0492  -16.1971 C   0  0  0  0  0  0  0  0  0  0  0  0
   27.8757  -13.0044  -15.3188 C   0  0  0  0  0  0  0  0  0  0  0  0
   26.6435  -12.8855  -14.6786 C   0  0  0  0  0  0  0  0  0  0  0  0
   25.8423  -11.7883  -14.9140 C   0  0  0  0  0  0  0  0  0  0  0  0
   23.3558   -8.8215  -16.9172 C   0  0  0  0  0  0  0  0  0  0  0  0
   23.7134   -7.8705  -17.6571 O   0  0  0  0  0  0  0  0  0  0  0  0
   22.1478   -8.6889  -16.1810 N   0  0  0  0  0  0  0  0  0  0  0  0
   21.2707   -7.5392  -16.3294 C   0  0  1  0  0  0  0  0  0  0  0  0
   19.9020   -7.9591  -15.8548 C   0  0  0  0  0  0  0  0  0  0  0  0
   18.8862   -6.9018  -15.9298 C   0  0  0  0  0  0  0  0  0  0  0  0
   19.1471   -5.5600  -16.1494 C   0  0  0  0  0  0  0  0  0  0  0  0
   17.9485   -4.9462  -16.1428 N   0  0  0  0  0  0  0  0  0  0  0  0
   17.0010   -5.8703  -15.9290 C   0  0  0  0  0  0  0  0  0  0  0  0
   17.5476   -7.0821  -15.7941 N   0  0  0  0  0  0  0  0  0  0  0  0
   21.8043   -6.3539  -15.6207 C   0  0  0  0  0  0  0  0  0  0  0  0
   21.8383   -5.2003  -16.1220 O   0  0  0  0  0  0  0  0  0  0  0  0
   22.3016   -6.4832  -14.3339 O   0  0  0  0  0  0  0  0  0  0  0  0
  2  1  1  1
  3  2  1  0
  3  4  1  0
  5  4  1  0
  6  5  1  0
  7  6  1  0
  8  9  2  0
  8  2  1  0
 10  8  1  0
 11 10  1  0
 11 12  1  1
 12 13  1  0
 13 18  1  0
 13 14  2  0
 14 15  1  0
 15 16  2  0
 17 16  1  0
 18 17  2  0
 19 11  1  0
 20 19  2  0
 21 19  1  0
 22 29  1  0
 22 21  1  0
 22 23  1  1
 23 24  1  0
 24 28  1  0
 24 25  2  0
 25 26  1  0
 27 26  1  0
 28 27  2  0
 29 31  1  0
 30 29  2  0
M  END
$$$$
