KFH.pdb
     RDKit          3D

 31 32  0  0  1  0  0  0  0  0999 V2000
   28.3085  -22.0491  -16.2789 N   0  0  0  0  0  0  0  0  0  0  0  0
   26.8911  -22.1399  -16.2206 C   0  0  1  0  0  0  0  0  0  0  0  0
   26.3003  -23.2934  -17.0209 C   0  0  0  0  0  0  0  0  0  0  0  0
   26.7644  -23.3818  -18.4319 C   0  0  0  0  0  0  0  0  0  0  0  0
   26.7086  -22.1274  -19.2295 C   0  0  0  0  0  0  0  0  0  0  0  0
   27.1560  -22.3314  -20.6685 C   0  0  0  0  0  0  0  0  0  0  0  0
   27.2361  -21.0446  -21.3301 N   0  0  0  0  0  0  0  0  0  0  0  0
   26.4035  -22.1186  -14.8461 C   0  0  0  0  0  0  0  0  0  0  0  0
   25.2722  -22.7117  -14.6502 O   0  0  0  0  0  0  0  0  0  0  0  0
   26.9561  -21.5599  -13.6947 N   0  0  0  0  0  0  0  0  0  0  0  0
   26.2304  -21.4245  -12.4330 C   0  0  1  0  0  0  0  0  0  0  0  0
   27.1732  -20.7749  -11.4450 C   0  0  0  0  0  0  0  0  0  0  0  0
   26.5213  -20.5262  -10.1336 C   0  0  0  0  0  0  0  0  0  0  0  0
   25.7882  -21.5099   -9.5061 C   0  0  0  0  0  0  0  0  0  0  0  0
   25.1886  -21.2709   -8.2890 C   0  0  0  0  0  0  0  0  0  0  0  0
   25.3504  -20.0220   -7.7321 C   0  0  0  0  0  0  0  0  0  0  0  0
   26.0904  -19.0230   -8.3620 C   0  0  0  0  0  0  0  0  0  0  0  0
   26.6890  -19.2665   -9.5801 C   0  0  0  0  0  0  0  0  0  0  0  0
   25.0509  -20.5505  -12.5645 C   0  0  0  0  0  0  0  0  0  0  0  0
   25.2603  -19.3311  -12.7860 O   0  0  0  0  0  0  0  0  0  0  0  0
   23.7065  -20.9977  -12.4571 N   0  0  0  0  0  0  0  0  0  0  0  0
   22.5763  -20.0883  -12.5500 C   0  0  1  0  0  0  0  0  0  0  0  0
   22.3165  -19.8490  -14.0163 C   0  0  0  0  0  0  0  0  0  0  0  0
   21.1466  -19.0062  -14.2926 C   0  0  0  0  0  0  0  0  0  0  0  0
   20.8120  -17.8551  -13.5999 C   0  0  0  0  0  0  0  0  0  0  0  0
   19.6804  -17.3987  -14.1695 N   0  0  0  0  0  0  0  0  0  0  0  0
   19.3407  -18.2324  -15.1629 C   0  0  0  0  0  0  0  0  0  0  0  0
   20.2235  -19.2303  -15.2623 N   0  0  0  0  0  0  0  0  0  0  0  0
   21.3991  -20.6085  -11.8182 C   0  0  0  0  0  0  0  0  0  0  0  0
   20.6747  -19.9002  -11.0721 O   0  0  0  0  0  0  0  0  0  0  0  0
   21.0449  -21.9428  -11.9372 O   0  0  0  0  0  0  0  0  0  0  0  0
  2  1  1  1
  3  2  1  0
  3  4  1  0
  5  4  1  0
  6  5  1  0
  7  6  1  0
  8  9  2  0
  8  2  1  0
 10  8  1  0
 11 10  1  0
 11 12  1  1
 12 13  1  0
 13 18  1  0
 13 14  2  0
 14 15  1  0
 15 16  2  0
 17 16  1  0
 18 17  2  0
 19 11  1  0
 20 19  2  0
 21 19  1  0
 22 29  1  0
 22 21  1  0
 22 23  1  6
 23 24  1  0
 24 28  1  0
 24 25  2  0
 25 26  1  0
 27 26  1  0
 28 27  2  0
 29 31  1  0
 30 29  2  0
M  END
$$$$
