KFH.pdb
     RDKit          3D

 31 32  0  0  1  0  0  0  0  0999 V2000
   27.0169  -21.9299  -13.6829 N   0  0  0  0  0  0  0  0  0  0  0  0
   27.1303  -20.7066  -12.9679 C   0  0  1  0  0  0  0  0  0  0  0  0
   26.2045  -19.6015  -13.4595 C   0  0  0  0  0  0  0  0  0  0  0  0
   26.4746  -19.1248  -14.8429 C   0  0  0  0  0  0  0  0  0  0  0  0
   27.3488  -17.9284  -14.9747 C   0  0  0  0  0  0  0  0  0  0  0  0
   27.6261  -17.5662  -16.4254 C   0  0  0  0  0  0  0  0  0  0  0  0
   28.4142  -16.3510  -16.4712 N   0  0  0  0  0  0  0  0  0  0  0  0
   27.0260  -20.9100  -11.5273 C   0  0  0  0  0  0  0  0  0  0  0  0
   26.2358  -21.8636  -11.1581 O   0  0  0  0  0  0  0  0  0  0  0  0
   27.6399  -20.2422  -10.4687 N   0  0  0  0  0  0  0  0  0  0  0  0
   27.3507  -20.5175   -9.0625 C   0  0  1  0  0  0  0  0  0  0  0  0
   28.2472  -19.6194   -8.2398 C   0  0  0  0  0  0  0  0  0  0  0  0
   28.1233  -19.8904   -6.7846 C   0  0  0  0  0  0  0  0  0  0  0  0
   28.6731  -21.0223   -6.2229 C   0  0  0  0  0  0  0  0  0  0  0  0
   28.5549  -21.2645   -4.8718 C   0  0  0  0  0  0  0  0  0  0  0  0
   27.8720  -20.3390   -4.1148 C   0  0  0  0  0  0  0  0  0  0  0  0
   27.3137  -19.1926   -4.6772 C   0  0  0  0  0  0  0  0  0  0  0  0
   27.4344  -18.9539   -6.0298 C   0  0  0  0  0  0  0  0  0  0  0  0
   25.9555  -20.1966   -8.7118 C   0  0  0  0  0  0  0  0  0  0  0  0
   25.4892  -19.1116   -9.1418 O   0  0  0  0  0  0  0  0  0  0  0  0
   25.1151  -21.0301   -7.9256 N   0  0  0  0  0  0  0  0  0  0  0  0
   23.6651  -20.9433   -7.9808 C   0  0  1  0  0  0  0  0  0  0  0  0
   23.2274  -21.6112   -9.2603 C   0  0  0  0  0  0  0  0  0  0  0  0
   22.5076  -20.7284  -10.1866 C   0  0  0  0  0  0  0  0  0  0  0  0
   22.1886  -19.4040   -9.9397 C   0  0  0  0  0  0  0  0  0  0  0  0
   21.5362  -18.9722  -11.0358 N   0  0  0  0  0  0  0  0  0  0  0  0
   21.4608  -19.9858  -11.9101 C   0  0  0  0  0  0  0  0  0  0  0  0
   22.0494  -21.0786  -11.4155 N   0  0  0  0  0  0  0  0  0  0  0  0
   23.0401  -21.5200   -6.7689 C   0  0  0  0  0  0  0  0  0  0  0  0
   23.5842  -22.4055   -6.0596 O   0  0  0  0  0  0  0  0  0  0  0  0
   21.7888  -21.0855   -6.3625 O   0  0  0  0  0  0  0  0  0  0  0  0
  2  1  1  6
  3  2  1  0
  3  4  1  0
  5  4  1  0
  6  5  1  0
  7  6  1  0
  8  9  2  0
  8  2  1  0
 10  8  1  0
 11 10  1  0
 11 12  1  1
 12 13  1  0
 13 18  1  0
 13 14  2  0
 14 15  1  0
 15 16  2  0
 17 16  1  0
 18 17  2  0
 19 11  1  0
 20 19  2  0
 21 19  1  0
 22 29  1  0
 22 21  1  0
 22 23  1  6
 23 24  1  0
 24 28  1  0
 24 25  2  0
 25 26  1  0
 27 26  1  0
 28 27  2  0
 29 31  1  0
 30 29  2  0
M  END
$$$$
