KFH.pdb
     RDKit          3D

 31 32  0  0  1  0  0  0  0  0999 V2000
   22.7815  -17.9532  -17.8116 N   0  0  0  0  0  0  0  0  0  0  0  0
   22.9377  -16.8019  -18.6306 C   0  0  1  0  0  0  0  0  0  0  0  0
   21.7553  -16.5157  -19.5472 C   0  0  0  0  0  0  0  0  0  0  0  0
   21.8010  -17.2047  -20.8652 C   0  0  0  0  0  0  0  0  0  0  0  0
   21.6434  -18.6838  -20.8476 C   0  0  0  0  0  0  0  0  0  0  0  0
   21.7578  -19.2987  -22.2338 C   0  0  0  0  0  0  0  0  0  0  0  0
   21.5327  -20.7272  -22.1420 N   0  0  0  0  0  0  0  0  0  0  0  0
   23.3239  -15.6313  -17.8508 C   0  0  0  0  0  0  0  0  0  0  0  0
   22.6823  -15.4685  -16.7409 O   0  0  0  0  0  0  0  0  0  0  0  0
   24.2776  -14.6461  -18.1026 N   0  0  0  0  0  0  0  0  0  0  0  0
   24.5278  -13.5159  -17.2100 C   0  0  1  0  0  0  0  0  0  0  0  0
   26.0160  -13.2481  -17.2377 C   0  0  0  0  0  0  0  0  0  0  0  0
   26.3818  -12.0514  -16.4374 C   0  0  0  0  0  0  0  0  0  0  0  0
   26.2695  -12.0531  -15.0639 C   0  0  0  0  0  0  0  0  0  0  0  0
   26.6129  -10.9392  -14.3296 C   0  0  0  0  0  0  0  0  0  0  0  0
   27.0676   -9.8365  -15.0175 C   0  0  0  0  0  0  0  0  0  0  0  0
   27.1831   -9.8287  -16.4064 C   0  0  0  0  0  0  0  0  0  0  0  0
   26.8384  -10.9458  -17.1375 C   0  0  0  0  0  0  0  0  0  0  0  0
   23.8459  -12.2908  -17.6646 C   0  0  0  0  0  0  0  0  0  0  0  0
   23.8471  -12.0562  -18.8994 O   0  0  0  0  0  0  0  0  0  0  0  0
   23.1948  -11.3691  -16.8012 N   0  0  0  0  0  0  0  0  0  0  0  0
   22.6071  -10.1319  -17.2879 C   0  0  1  0  0  0  0  0  0  0  0  0
   21.1507  -10.1464  -16.8961 C   0  0  0  0  0  0  0  0  0  0  0  0
   20.3870   -8.9846  -17.3677 C   0  0  0  0  0  0  0  0  0  0  0  0
   20.0987   -7.8604  -16.6128 C   0  0  0  0  0  0  0  0  0  0  0  0
   19.3868   -7.0491  -17.4180 N   0  0  0  0  0  0  0  0  0  0  0  0
   19.2472   -7.6504  -18.6082 C   0  0  0  0  0  0  0  0  0  0  0  0
   19.8517   -8.8420  -18.6070 N   0  0  0  0  0  0  0  0  0  0  0  0
   23.3421   -8.9480  -16.7880 C   0  0  0  0  0  0  0  0  0  0  0  0
   23.7689   -8.8405  -15.6092 O   0  0  0  0  0  0  0  0  0  0  0  0
   23.5929   -7.8809  -17.6355 O   0  0  0  0  0  0  0  0  0  0  0  0
  2  1  1  1
  3  2  1  0
  3  4  1  0
  5  4  1  0
  6  5  1  0
  7  6  1  0
  8  9  2  0
  8  2  1  0
 10  8  1  0
 11 10  1  0
 11 12  1  6
 12 13  1  0
 13 18  1  0
 13 14  2  0
 14 15  1  0
 15 16  2  0
 17 16  1  0
 18 17  2  0
 19 11  1  0
 20 19  2  0
 21 19  1  0
 22 29  1  0
 22 21  1  0
 22 23  1  1
 23 24  1  0
 24 28  1  0
 24 25  2  0
 25 26  1  0
 27 26  1  0
 28 27  2  0
 29 31  1  0
 30 29  2  0
M  END
$$$$
