KFH.pdb
     RDKit          3D

 31 32  0  0  1  0  0  0  0  0999 V2000
   28.4060  -22.4438  -16.4467 N   0  0  0  0  0  0  0  0  0  0  0  0
   27.2326  -21.6432  -16.5000 C   0  0  1  0  0  0  0  0  0  0  0  0
   26.3477  -21.9025  -17.7123 C   0  0  0  0  0  0  0  0  0  0  0  0
   26.7817  -21.2242  -18.9636 C   0  0  0  0  0  0  0  0  0  0  0  0
   28.0058  -21.7584  -19.6186 C   0  0  0  0  0  0  0  0  0  0  0  0
   28.3863  -20.9782  -20.8673 C   0  0  0  0  0  0  0  0  0  0  0  0
   29.6717  -21.4440  -21.3475 N   0  0  0  0  0  0  0  0  0  0  0  0
   26.4822  -21.6987  -15.2504 C   0  0  0  0  0  0  0  0  0  0  0  0
   26.1635  -22.8845  -14.8477 O   0  0  0  0  0  0  0  0  0  0  0  0
   26.0443  -20.6783  -14.4076 N   0  0  0  0  0  0  0  0  0  0  0  0
   25.3201  -20.9147  -13.1601 C   0  0  1  0  0  0  0  0  0  0  0  0
   25.9473  -20.0293  -12.1068 C   0  0  0  0  0  0  0  0  0  0  0  0
   27.3265  -20.4617  -11.7645 C   0  0  0  0  0  0  0  0  0  0  0  0
   27.5642  -21.3020  -10.6985 C   0  0  0  0  0  0  0  0  0  0  0  0
   28.8466  -21.6995  -10.3896 C   0  0  0  0  0  0  0  0  0  0  0  0
   29.8694  -21.2273  -11.1814 C   0  0  0  0  0  0  0  0  0  0  0  0
   29.6352  -20.3772  -12.2606 C   0  0  0  0  0  0  0  0  0  0  0  0
   28.3502  -19.9818  -12.5665 C   0  0  0  0  0  0  0  0  0  0  0  0
   23.8981  -20.5417  -13.2670 C   0  0  0  0  0  0  0  0  0  0  0  0
   23.6372  -19.3722  -13.6466 O   0  0  0  0  0  0  0  0  0  0  0  0
   22.8166  -21.4140  -12.9702 N   0  0  0  0  0  0  0  0  0  0  0  0
   21.4289  -20.9962  -13.0833 C   0  0  1  0  0  0  0  0  0  0  0  0
   20.6282  -22.2125  -13.4761 C   0  0  0  0  0  0  0  0  0  0  0  0
   20.7360  -22.5739  -14.8949 C   0  0  0  0  0  0  0  0  0  0  0  0
   21.9233  -22.7659  -15.5806 C   0  0  0  0  0  0  0  0  0  0  0  0
   21.5730  -23.0793  -16.8425 N   0  0  0  0  0  0  0  0  0  0  0  0
   20.2347  -23.0783  -16.9228 C   0  0  0  0  0  0  0  0  0  0  0  0
   19.6927  -22.7709  -15.7409 N   0  0  0  0  0  0  0  0  0  0  0  0
   20.9527  -20.3515  -11.8385 C   0  0  0  0  0  0  0  0  0  0  0  0
   21.6145  -20.3307  -10.7685 O   0  0  0  0  0  0  0  0  0  0  0  0
   19.7162  -19.7269  -11.8123 O   0  0  0  0  0  0  0  0  0  0  0  0
  2  1  1  1
  3  2  1  0
  3  4  1  0
  5  4  1  0
  6  5  1  0
  7  6  1  0
  8  9  2  0
  8  2  1  0
 10  8  1  0
 11 10  1  0
 11 12  1  1
 12 13  1  0
 13 18  1  0
 13 14  2  0
 14 15  1  0
 15 16  2  0
 17 16  1  0
 18 17  2  0
 19 11  1  0
 20 19  2  0
 21 19  1  0
 22 29  1  0
 22 21  1  0
 22 23  1  1
 23 24  1  0
 24 28  1  0
 24 25  2  0
 25 26  1  0
 27 26  1  0
 28 27  2  0
 29 31  1  0
 30 29  2  0
M  END
$$$$
