KFH.pdb
     RDKit          3D

 31 32  0  0  1  0  0  0  0  0999 V2000
   28.3513  -20.2759  -14.5688 N   0  0  0  0  0  0  0  0  0  0  0  0
   27.2449  -19.5449  -14.0567 C   0  0  1  0  0  0  0  0  0  0  0  0
   26.4744  -18.7521  -15.1044 C   0  0  0  0  0  0  0  0  0  0  0  0
   27.1019  -17.4633  -15.5039 C   0  0  0  0  0  0  0  0  0  0  0  0
   28.5682  -17.4873  -15.7534 C   0  0  0  0  0  0  0  0  0  0  0  0
   29.1030  -16.1406  -16.2148 C   0  0  0  0  0  0  0  0  0  0  0  0
   28.4967  -15.7967  -17.4853 N   0  0  0  0  0  0  0  0  0  0  0  0
   26.3677  -20.3856  -13.2495 C   0  0  0  0  0  0  0  0  0  0  0  0
   26.0597  -21.5269  -13.7716 O   0  0  0  0  0  0  0  0  0  0  0  0
   25.7976  -20.1642  -11.9968 N   0  0  0  0  0  0  0  0  0  0  0  0
   24.9692  -21.1467  -11.3003 C   0  0  1  0  0  0  0  0  0  0  0  0
   25.1287  -20.8925   -9.8181 C   0  0  0  0  0  0  0  0  0  0  0  0
   26.5567  -20.8329   -9.4135 C   0  0  0  0  0  0  0  0  0  0  0  0
   26.9965  -19.9080   -8.4916 C   0  0  0  0  0  0  0  0  0  0  0  0
   28.3225  -19.8613   -8.1209 C   0  0  0  0  0  0  0  0  0  0  0  0
   29.1804  -20.7671   -8.7035 C   0  0  0  0  0  0  0  0  0  0  0  0
   28.7416  -21.7048   -9.6366 C   0  0  0  0  0  0  0  0  0  0  0  0
   27.4135  -21.7482  -10.0048 C   0  0  0  0  0  0  0  0  0  0  0  0
   23.5399  -20.9958  -11.6272 C   0  0  0  0  0  0  0  0  0  0  0  0
   22.9846  -19.9181  -11.2957 O   0  0  0  0  0  0  0  0  0  0  0  0
   22.7603  -21.9839  -12.2866 N   0  0  0  0  0  0  0  0  0  0  0  0
   21.3198  -21.8619  -12.4388 C   0  0  1  0  0  0  0  0  0  0  0  0
   20.8055  -21.1208  -11.2300 C   0  0  0  0  0  0  0  0  0  0  0  0
   20.4099  -21.9878  -10.1133 C   0  0  0  0  0  0  0  0  0  0  0  0
   20.5262  -23.3673  -10.0953 C   0  0  0  0  0  0  0  0  0  0  0  0
   20.0524  -23.7608   -8.8977 N   0  0  0  0  0  0  0  0  0  0  0  0
   19.6652  -22.6724   -8.2174 C   0  0  0  0  0  0  0  0  0  0  0  0
   19.8728  -21.5676   -8.9395 N   0  0  0  0  0  0  0  0  0  0  0  0
   20.9619  -21.2187  -13.7233 C   0  0  0  0  0  0  0  0  0  0  0  0
   21.7693  -20.5423  -14.4115 O   0  0  0  0  0  0  0  0  0  0  0  0
   19.6774  -21.3469  -14.2268 O   0  0  0  0  0  0  0  0  0  0  0  0
  2  1  1  6
  3  2  1  0
  3  4  1  0
  5  4  1  0
  6  5  1  0
  7  6  1  0
  8  9  2  0
  8  2  1  0
 10  8  1  0
 11 10  1  0
 11 12  1  1
 12 13  1  0
 13 18  1  0
 13 14  2  0
 14 15  1  0
 15 16  2  0
 17 16  1  0
 18 17  2  0
 19 11  1  0
 20 19  2  0
 21 19  1  0
 22 29  1  0
 22 21  1  0
 22 23  1  1
 23 24  1  0
 24 28  1  0
 24 25  2  0
 25 26  1  0
 27 26  1  0
 28 27  2  0
 29 31  1  0
 30 29  2  0
M  END
$$$$
