KFH.pdb
     RDKit          3D

 31 32  0  0  1  0  0  0  0  0999 V2000
   29.2544  -21.4029  -17.3665 N   0  0  0  0  0  0  0  0  0  0  0  0
   28.0153  -22.0973  -17.3096 C   0  0  1  0  0  0  0  0  0  0  0  0
   28.0722  -23.5303  -17.8228 C   0  0  0  0  0  0  0  0  0  0  0  0
   27.7717  -23.6913  -19.2712 C   0  0  0  0  0  0  0  0  0  0  0  0
   28.8438  -24.2923  -20.1093 C   0  0  0  0  0  0  0  0  0  0  0  0
   28.4798  -24.3255  -21.5855 C   0  0  0  0  0  0  0  0  0  0  0  0
   29.5623  -24.9369  -22.3300 N   0  0  0  0  0  0  0  0  0  0  0  0
   27.4071  -22.0115  -15.9867 C   0  0  0  0  0  0  0  0  0  0  0  0
   26.8258  -23.0890  -15.5731 O   0  0  0  0  0  0  0  0  0  0  0  0
   27.3443  -20.9522  -15.0826 N   0  0  0  0  0  0  0  0  0  0  0  0
   26.6475  -21.0242  -13.7996 C   0  0  1  0  0  0  0  0  0  0  0  0
   27.3209  -20.0382  -12.8715 C   0  0  0  0  0  0  0  0  0  0  0  0
   26.9972  -20.3040  -11.4464 C   0  0  0  0  0  0  0  0  0  0  0  0
   25.8818  -19.7511  -10.8556 C   0  0  0  0  0  0  0  0  0  0  0  0
   25.5884  -20.0047   -9.5336 C   0  0  0  0  0  0  0  0  0  0  0  0
   26.4467  -20.8242   -8.8352 C   0  0  0  0  0  0  0  0  0  0  0  0
   27.5764  -21.3860   -9.4272 C   0  0  0  0  0  0  0  0  0  0  0  0
   27.8663  -21.1298  -10.7506 C   0  0  0  0  0  0  0  0  0  0  0  0
   25.2318  -20.6311  -13.9165 C   0  0  0  0  0  0  0  0  0  0  0  0
   24.9761  -19.5900  -14.5727 O   0  0  0  0  0  0  0  0  0  0  0  0
   24.1505  -21.3493  -13.3386 N   0  0  0  0  0  0  0  0  0  0  0  0
   22.7770  -20.8800  -13.4168 C   0  0  1  0  0  0  0  0  0  0  0  0
   22.0786  -21.7183  -14.4582 C   0  0  0  0  0  0  0  0  0  0  0  0
   20.6536  -21.4077  -14.6270 C   0  0  0  0  0  0  0  0  0  0  0  0
   19.6088  -22.2542  -14.2976 C   0  0  0  0  0  0  0  0  0  0  0  0
   18.4818  -21.5868  -14.6105 N   0  0  0  0  0  0  0  0  0  0  0  0
   18.8233  -20.3894  -15.1075 C   0  0  0  0  0  0  0  0  0  0  0  0
   20.1521  -20.2508  -15.1300 N   0  0  0  0  0  0  0  0  0  0  0  0
   22.1163  -20.9110  -12.0923 C   0  0  0  0  0  0  0  0  0  0  0  0
   22.3840  -21.7577  -11.2008 O   0  0  0  0  0  0  0  0  0  0  0  0
   21.1457  -19.9724  -11.7813 O   0  0  0  0  0  0  0  0  0  0  0  0
  2  1  1  1
  3  2  1  0
  3  4  1  0
  5  4  1  0
  6  5  1  0
  7  6  1  0
  8  9  2  0
  8  2  1  0
 10  8  1  0
 11 10  1  0
 11 12  1  1
 12 13  1  0
 13 18  1  0
 13 14  2  0
 14 15  1  0
 15 16  2  0
 17 16  1  0
 18 17  2  0
 19 11  1  0
 20 19  2  0
 21 19  1  0
 22 29  1  0
 22 21  1  0
 22 23  1  6
 23 24  1  0
 24 28  1  0
 24 25  2  0
 25 26  1  0
 27 26  1  0
 28 27  2  0
 29 31  1  0
 30 29  2  0
M  END
$$$$
