KFH.pdb
     RDKit          3D

 31 32  0  0  1  0  0  0  0  0999 V2000
   28.8120  -20.5323  -14.9797 N   0  0  0  0  0  0  0  0  0  0  0  0
   28.3123  -19.7279  -13.9195 C   0  0  1  0  0  0  0  0  0  0  0  0
   28.0250  -18.2831  -14.3066 C   0  0  0  0  0  0  0  0  0  0  0  0
   28.6566  -17.8356  -15.5774 C   0  0  0  0  0  0  0  0  0  0  0  0
   27.7420  -17.5988  -16.7265 C   0  0  0  0  0  0  0  0  0  0  0  0
   28.4598  -17.0098  -17.9309 C   0  0  0  0  0  0  0  0  0  0  0  0
   27.5135  -16.8431  -19.0155 N   0  0  0  0  0  0  0  0  0  0  0  0
   27.1757  -20.3547  -13.2541 C   0  0  0  0  0  0  0  0  0  0  0  0
   26.7348  -21.4348  -13.8100 O   0  0  0  0  0  0  0  0  0  0  0  0
   26.4752  -19.9817  -12.1080 N   0  0  0  0  0  0  0  0  0  0  0  0
   25.4352  -20.8041  -11.4925 C   0  0  1  0  0  0  0  0  0  0  0  0
   25.2425  -20.2952  -10.0815 C   0  0  0  0  0  0  0  0  0  0  0  0
   26.4775  -20.4297   -9.2671 C   0  0  0  0  0  0  0  0  0  0  0  0
   26.6442  -19.7094   -8.1042 C   0  0  0  0  0  0  0  0  0  0  0  0
   27.7923  -19.8420   -7.3542 C   0  0  0  0  0  0  0  0  0  0  0  0
   28.7552  -20.7144   -7.8100 C   0  0  0  0  0  0  0  0  0  0  0  0
   28.5923  -21.4454   -8.9853 C   0  0  0  0  0  0  0  0  0  0  0  0
   27.4417  -21.3098   -9.7330 C   0  0  0  0  0  0  0  0  0  0  0  0
   24.1440  -20.6778  -12.1921 C   0  0  0  0  0  0  0  0  0  0  0  0
   23.8375  -19.5414  -12.6333 O   0  0  0  0  0  0  0  0  0  0  0  0
   23.2349  -21.7506  -12.3957 N   0  0  0  0  0  0  0  0  0  0  0  0
   21.9903  -21.5849  -13.1283 C   0  0  1  0  0  0  0  0  0  0  0  0
   21.5328  -22.9601  -13.5456 C   0  0  0  0  0  0  0  0  0  0  0  0
   20.2325  -22.9830  -14.2269 C   0  0  0  0  0  0  0  0  0  0  0  0
   19.4425  -21.8732  -14.4739 C   0  0  0  0  0  0  0  0  0  0  0  0
   18.3492  -22.3342  -15.1108 N   0  0  0  0  0  0  0  0  0  0  0  0
   18.4669  -23.6628  -15.2458 C   0  0  0  0  0  0  0  0  0  0  0  0
   19.6146  -24.0902  -14.7117 N   0  0  0  0  0  0  0  0  0  0  0  0
   20.9860  -20.8439  -12.3320 C   0  0  0  0  0  0  0  0  0  0  0  0
   20.2318  -19.9589  -12.8130 O   0  0  0  0  0  0  0  0  0  0  0  0
   20.8395  -21.1126  -10.9807 O   0  0  0  0  0  0  0  0  0  0  0  0
  2  1  1  6
  3  2  1  0
  3  4  1  0
  5  4  1  0
  6  5  1  0
  7  6  1  0
  8  9  2  0
  8  2  1  0
 10  8  1  0
 11 10  1  0
 11 12  1  1
 12 13  1  0
 13 18  1  0
 13 14  2  0
 14 15  1  0
 15 16  2  0
 17 16  1  0
 18 17  2  0
 19 11  1  0
 20 19  2  0
 21 19  1  0
 22 29  1  0
 22 21  1  0
 22 23  1  1
 23 24  1  0
 24 28  1  0
 24 25  2  0
 25 26  1  0
 27 26  1  0
 28 27  2  0
 29 31  1  0
 30 29  2  0
M  END
$$$$
