KFH.pdb
     RDKit          3D

 31 32  0  0  1  0  0  0  0  0999 V2000
   21.9822  -19.2030  -14.8867 N   0  0  0  0  0  0  0  0  0  0  0  0
   21.6078  -18.0428  -15.6177 C   0  0  1  0  0  0  0  0  0  0  0  0
   20.1509  -17.6331  -15.4462 C   0  0  0  0  0  0  0  0  0  0  0  0
   19.1571  -18.6786  -15.8116 C   0  0  0  0  0  0  0  0  0  0  0  0
   18.9687  -18.9374  -17.2644 C   0  0  0  0  0  0  0  0  0  0  0  0
   17.8894  -19.9735  -17.5366 C   0  0  0  0  0  0  0  0  0  0  0  0
   17.8271  -20.2344  -18.9607 N   0  0  0  0  0  0  0  0  0  0  0  0
   22.5225  -16.9325  -15.3764 C   0  0  0  0  0  0  0  0  0  0  0  0
   22.6140  -16.5471  -14.1463 O   0  0  0  0  0  0  0  0  0  0  0  0
   23.3233  -16.2072  -16.2575 N   0  0  0  0  0  0  0  0  0  0  0  0
   24.1716  -15.0901  -15.8463 C   0  0  1  0  0  0  0  0  0  0  0  0
   25.4181  -15.1399  -16.7011 C   0  0  0  0  0  0  0  0  0  0  0  0
   26.3892  -14.0779  -16.3327 C   0  0  0  0  0  0  0  0  0  0  0  0
   26.6005  -12.9918  -17.1540 C   0  0  0  0  0  0  0  0  0  0  0  0
   27.5018  -12.0106  -16.8034 C   0  0  0  0  0  0  0  0  0  0  0  0
   28.1752  -12.1590  -15.6115 C   0  0  0  0  0  0  0  0  0  0  0  0
   27.9658  -13.2552  -14.7768 C   0  0  0  0  0  0  0  0  0  0  0  0
   27.0628  -14.2350  -15.1315 C   0  0  0  0  0  0  0  0  0  0  0  0
   23.5225  -13.7876  -16.0800 C   0  0  0  0  0  0  0  0  0  0  0  0
   22.8323  -13.6678  -17.1236 O   0  0  0  0  0  0  0  0  0  0  0  0
   23.6287  -12.6715  -15.2071 N   0  0  0  0  0  0  0  0  0  0  0  0
   22.8888  -11.4399  -15.4285 C   0  0  1  0  0  0  0  0  0  0  0  0
   23.1404  -10.5492  -14.2375 C   0  0  0  0  0  0  0  0  0  0  0  0
   22.5043   -9.2290  -14.3260 C   0  0  0  0  0  0  0  0  0  0  0  0
   23.0547   -8.1188  -14.9434 C   0  0  0  0  0  0  0  0  0  0  0  0
   22.1525   -7.1301  -14.7951 N   0  0  0  0  0  0  0  0  0  0  0  0
   21.1012   -7.6146  -14.1187 C   0  0  0  0  0  0  0  0  0  0  0  0
   21.2890   -8.9025  -13.8166 N   0  0  0  0  0  0  0  0  0  0  0  0
   23.2494  -10.8147  -16.7211 C   0  0  0  0  0  0  0  0  0  0  0  0
   24.4213  -10.7883  -17.1784 O   0  0  0  0  0  0  0  0  0  0  0  0
   22.2698  -10.2165  -17.4972 O   0  0  0  0  0  0  0  0  0  0  0  0
  2  1  1  1
  3  2  1  0
  3  4  1  0
  5  4  1  0
  6  5  1  0
  7  6  1  0
  8  9  2  0
  8  2  1  0
 10  8  1  0
 11 10  1  0
 11 12  1  6
 12 13  1  0
 13 18  1  0
 13 14  2  0
 14 15  1  0
 15 16  2  0
 17 16  1  0
 18 17  2  0
 19 11  1  0
 20 19  2  0
 21 19  1  0
 22 29  1  0
 22 21  1  0
 22 23  1  1
 23 24  1  0
 24 28  1  0
 24 25  2  0
 25 26  1  0
 27 26  1  0
 28 27  2  0
 29 31  1  0
 30 29  2  0
M  END
$$$$
