KFH.pdb
     RDKit          3D

 31 32  0  0  1  0  0  0  0  0999 V2000
   28.4924  -22.7516  -17.6664 N   0  0  0  0  0  0  0  0  0  0  0  0
   27.7795  -21.5900  -17.2623 C   0  0  1  0  0  0  0  0  0  0  0  0
   26.7644  -21.0878  -18.2809 C   0  0  0  0  0  0  0  0  0  0  0  0
   26.8951  -21.6769  -19.6410 C   0  0  0  0  0  0  0  0  0  0  0  0
   26.0222  -21.1032  -20.7002 C   0  0  0  0  0  0  0  0  0  0  0  0
   26.2544  -21.7465  -22.0585 C   0  0  0  0  0  0  0  0  0  0  0  0
   27.6505  -21.6058  -22.4204 N   0  0  0  0  0  0  0  0  0  0  0  0
   27.1941  -21.7485  -15.9358 C   0  0  0  0  0  0  0  0  0  0  0  0
   26.3655  -22.7321  -15.8097 O   0  0  0  0  0  0  0  0  0  0  0  0
   27.3775  -21.0101  -14.7677 N   0  0  0  0  0  0  0  0  0  0  0  0
   26.5721  -21.1915  -13.5614 C   0  0  1  0  0  0  0  0  0  0  0  0
   27.2371  -20.3983  -12.4589 C   0  0  0  0  0  0  0  0  0  0  0  0
   26.4400  -20.4098  -11.2055 C   0  0  0  0  0  0  0  0  0  0  0  0
   25.9453  -19.2419  -10.6669 C   0  0  0  0  0  0  0  0  0  0  0  0
   25.2053  -19.2623   -9.5049 C   0  0  0  0  0  0  0  0  0  0  0  0
   24.9834  -20.4845   -8.9110 C   0  0  0  0  0  0  0  0  0  0  0  0
   25.4813  -21.6690   -9.4509 C   0  0  0  0  0  0  0  0  0  0  0  0
   26.2213  -21.6442  -10.6140 C   0  0  0  0  0  0  0  0  0  0  0  0
   25.2045  -20.6668  -13.7255 C   0  0  0  0  0  0  0  0  0  0  0  0
   25.0873  -19.4879  -14.1455 O   0  0  0  0  0  0  0  0  0  0  0  0
   24.0239  -21.4043  -13.4407 N   0  0  0  0  0  0  0  0  0  0  0  0
   22.6974  -20.8212  -13.5572 C   0  0  1  0  0  0  0  0  0  0  0  0
   21.9194  -21.6749  -14.5271 C   0  0  0  0  0  0  0  0  0  0  0  0
   20.5550  -21.2004  -14.7892 C   0  0  0  0  0  0  0  0  0  0  0  0
   19.9683  -20.0946  -14.1977 C   0  0  0  0  0  0  0  0  0  0  0  0
   18.7261  -20.0179  -14.7121 N   0  0  0  0  0  0  0  0  0  0  0  0
   18.5628  -21.0295  -15.5766 C   0  0  0  0  0  0  0  0  0  0  0  0
   19.6705  -21.7736  -15.6448 N   0  0  0  0  0  0  0  0  0  0  0  0
   22.0460  -20.6852  -12.2348 C   0  0  0  0  0  0  0  0  0  0  0  0
   22.0134  -21.6054  -11.3772 O   0  0  0  0  0  0  0  0  0  0  0  0
   21.4286  -19.4946  -11.8870 O   0  0  0  0  0  0  0  0  0  0  0  0
  2  1  1  6
  3  2  1  0
  3  4  1  0
  5  4  1  0
  6  5  1  0
  7  6  1  0
  8  9  2  0
  8  2  1  0
 10  8  1  0
 11 10  1  0
 11 12  1  1
 12 13  1  0
 13 18  1  0
 13 14  2  0
 14 15  1  0
 15 16  2  0
 17 16  1  0
 18 17  2  0
 19 11  1  0
 20 19  2  0
 21 19  1  0
 22 29  1  0
 22 21  1  0
 22 23  1  6
 23 24  1  0
 24 28  1  0
 24 25  2  0
 25 26  1  0
 27 26  1  0
 28 27  2  0
 29 31  1  0
 30 29  2  0
M  END
$$$$
