KFH.pdb
     RDKit          3D

 31 32  0  0  1  0  0  0  0  0999 V2000
   27.4765  -22.2151  -16.8862 N   0  0  0  0  0  0  0  0  0  0  0  0
   27.1224  -21.0144  -16.2126 C   0  0  1  0  0  0  0  0  0  0  0  0
   25.8709  -20.3349  -16.7527 C   0  0  0  0  0  0  0  0  0  0  0  0
   26.0722  -19.5455  -17.9979 C   0  0  0  0  0  0  0  0  0  0  0  0
   26.9039  -18.3178  -17.8791 C   0  0  0  0  0  0  0  0  0  0  0  0
   27.0674  -17.5941  -19.2065 C   0  0  0  0  0  0  0  0  0  0  0  0
   28.0238  -16.5170  -19.0478 N   0  0  0  0  0  0  0  0  0  0  0  0
   27.0656  -21.2013  -14.7672 C   0  0  0  0  0  0  0  0  0  0  0  0
   26.3280  -22.1829  -14.3639 O   0  0  0  0  0  0  0  0  0  0  0  0
   27.6777  -20.4923  -13.7347 N   0  0  0  0  0  0  0  0  0  0  0  0
   27.4215  -20.7445  -12.3178 C   0  0  1  0  0  0  0  0  0  0  0  0
   28.3478  -19.8444  -11.5311 C   0  0  0  0  0  0  0  0  0  0  0  0
   28.2134  -20.0502  -10.0662 C   0  0  0  0  0  0  0  0  0  0  0  0
   27.5168  -19.1553   -9.2834 C   0  0  0  0  0  0  0  0  0  0  0  0
   27.3958  -19.3553   -7.9257 C   0  0  0  0  0  0  0  0  0  0  0  0
   27.9932  -20.4741   -7.3896 C   0  0  0  0  0  0  0  0  0  0  0  0
   28.6991  -21.3826   -8.1761 C   0  0  0  0  0  0  0  0  0  0  0  0
   28.8178  -21.1787   -9.5346 C   0  0  0  0  0  0  0  0  0  0  0  0
   26.0390  -20.4039  -11.9367 C   0  0  0  0  0  0  0  0  0  0  0  0
   25.5899  -19.2977  -12.3295 O   0  0  0  0  0  0  0  0  0  0  0  0
   25.1928  -21.2408  -11.1605 N   0  0  0  0  0  0  0  0  0  0  0  0
   23.8500  -20.8412  -10.7728 C   0  0  1  0  0  0  0  0  0  0  0  0
   22.8869  -21.7010  -11.5525 C   0  0  0  0  0  0  0  0  0  0  0  0
   22.5696  -21.1900  -12.8918 C   0  0  0  0  0  0  0  0  0  0  0  0
   22.9759  -19.9659  -13.3948 C   0  0  0  0  0  0  0  0  0  0  0  0
   22.4728  -19.8952  -14.6419 N   0  0  0  0  0  0  0  0  0  0  0  0
   21.7914  -21.0233  -14.8879 C   0  0  0  0  0  0  0  0  0  0  0  0
   21.8332  -21.8384  -13.8300 N   0  0  0  0  0  0  0  0  0  0  0  0
   23.6614  -20.9223   -9.3066 C   0  0  0  0  0  0  0  0  0  0  0  0
   24.5171  -21.4052   -8.5206 O   0  0  0  0  0  0  0  0  0  0  0  0
   22.4919  -20.4505   -8.7325 O   0  0  0  0  0  0  0  0  0  0  0  0
  2  1  1  6
  3  2  1  0
  3  4  1  0
  5  4  1  0
  6  5  1  0
  7  6  1  0
  8  9  2  0
  8  2  1  0
 10  8  1  0
 11 10  1  0
 11 12  1  1
 12 13  1  0
 13 18  1  0
 13 14  2  0
 14 15  1  0
 15 16  2  0
 17 16  1  0
 18 17  2  0
 19 11  1  0
 20 19  2  0
 21 19  1  0
 22 29  1  0
 22 21  1  0
 22 23  1  6
 23 24  1  0
 24 28  1  0
 24 25  2  0
 25 26  1  0
 27 26  1  0
 28 27  2  0
 29 31  1  0
 30 29  2  0
M  END
$$$$
