KFH.pdb
     RDKit          3D

 31 32  0  0  1  0  0  0  0  0999 V2000
   39.2264   -8.3375  -13.6129 N   0  0  0  0  0  0  0  0  0  0  0  0
   38.0272   -7.6740  -13.2355 C   0  0  1  0  0  0  0  0  0  0  0  0
   38.2343   -6.2841  -12.6480 C   0  0  0  0  0  0  0  0  0  0  0  0
   38.6822   -6.2621  -11.2292 C   0  0  0  0  0  0  0  0  0  0  0  0
   38.7296   -4.9304  -10.5680 C   0  0  0  0  0  0  0  0  0  0  0  0
   39.3254   -4.9946   -9.1703 C   0  0  0  0  0  0  0  0  0  0  0  0
   39.3157   -3.6683   -8.5864 N   0  0  0  0  0  0  0  0  0  0  0  0
   37.0463   -7.6734  -14.3151 C   0  0  0  0  0  0  0  0  0  0  0  0
   37.5351   -7.5810  -15.5078 O   0  0  0  0  0  0  0  0  0  0  0  0
   35.6551   -7.7551  -14.2787 N   0  0  0  0  0  0  0  0  0  0  0  0
   34.8111   -7.7145  -15.4715 C   0  0  1  0  0  0  0  0  0  0  0  0
   33.8362   -8.8658  -15.3661 C   0  0  0  0  0  0  0  0  0  0  0  0
   32.9492   -8.9553  -16.5543 C   0  0  0  0  0  0  0  0  0  0  0  0
   31.6771   -8.4260  -16.5333 C   0  0  0  0  0  0  0  0  0  0  0  0
   30.8620   -8.5120  -17.6406 C   0  0  0  0  0  0  0  0  0  0  0  0
   31.3658   -9.1419  -18.7566 C   0  0  0  0  0  0  0  0  0  0  0  0
   32.6514   -9.6792  -18.7838 C   0  0  0  0  0  0  0  0  0  0  0  0
   33.4640   -9.5909  -17.6733 C   0  0  0  0  0  0  0  0  0  0  0  0
   34.0249   -6.4703  -15.5504 C   0  0  0  0  0  0  0  0  0  0  0  0
   33.3431   -6.1557  -14.5424 O   0  0  0  0  0  0  0  0  0  0  0  0
   33.9911   -5.6146  -16.6842 N   0  0  0  0  0  0  0  0  0  0  0  0
   33.1804   -4.4086  -16.7225 C   0  0  1  0  0  0  0  0  0  0  0  0
   33.7227   -3.5425  -17.8318 C   0  0  0  0  0  0  0  0  0  0  0  0
   34.9516   -2.8176  -17.4859 C   0  0  0  0  0  0  0  0  0  0  0  0
   35.4808   -2.7086  -16.2112 C   0  0  0  0  0  0  0  0  0  0  0  0
   36.5983   -1.9681  -16.3388 N   0  0  0  0  0  0  0  0  0  0  0  0
   36.7438   -1.6408  -17.6308 C   0  0  0  0  0  0  0  0  0  0  0  0
   35.7463   -2.1489  -18.3601 N   0  0  0  0  0  0  0  0  0  0  0  0
   31.7418   -4.7258  -16.8695 C   0  0  0  0  0  0  0  0  0  0  0  0
   31.2707   -5.3936  -17.8263 O   0  0  0  0  0  0  0  0  0  0  0  0
   30.8348   -4.2802  -15.9215 O   0  0  0  0  0  0  0  0  0  0  0  0
  2  1  1  6
  3  2  1  0
  3  4  1  0
  5  4  1  0
  6  5  1  0
  7  6  1  0
  8  9  2  0
  8  2  1  0
 10  8  1  0
 11 10  1  0
 11 12  1  1
 12 13  1  0
 13 18  1  0
 13 14  2  0
 14 15  1  0
 15 16  2  0
 17 16  1  0
 18 17  2  0
 19 11  1  0
 20 19  2  0
 21 19  1  0
 22 29  1  0
 22 21  1  0
 22 23  1  6
 23 24  1  0
 24 28  1  0
 24 25  2  0
 25 26  1  0
 27 26  1  0
 28 27  2  0
 29 31  1  0
 30 29  2  0
M  END
$$$$
