KFH.pdb
     RDKit          3D

 31 32  0  0  1  0  0  0  0  0999 V2000
   29.3569  -21.7176  -13.1429 N   0  0  0  0  0  0  0  0  0  0  0  0
   29.0344  -20.5534  -12.3937 C   0  0  1  0  0  0  0  0  0  0  0  0
   29.0106  -19.2666  -13.2082 C   0  0  0  0  0  0  0  0  0  0  0  0
   28.3844  -19.3857  -14.5528 C   0  0  0  0  0  0  0  0  0  0  0  0
   28.3573  -18.1527  -15.3847 C   0  0  0  0  0  0  0  0  0  0  0  0
   27.5818  -18.3401  -16.6793 C   0  0  0  0  0  0  0  0  0  0  0  0
   27.6650  -17.1255  -17.4651 N   0  0  0  0  0  0  0  0  0  0  0  0
   27.8148  -20.7323  -11.6138 C   0  0  0  0  0  0  0  0  0  0  0  0
   26.9987  -21.6297  -12.0596 O   0  0  0  0  0  0  0  0  0  0  0  0
   27.3741  -20.0917  -10.4568 N   0  0  0  0  0  0  0  0  0  0  0  0
   26.1056  -20.3960   -9.7971 C   0  0  1  0  0  0  0  0  0  0  0  0
   26.0682  -19.5963   -8.5141 C   0  0  0  0  0  0  0  0  0  0  0  0
   27.1973  -19.9380   -7.6114 C   0  0  0  0  0  0  0  0  0  0  0  0
   28.0936  -20.9322   -7.9390 C   0  0  0  0  0  0  0  0  0  0  0  0
   29.1389  -21.2412   -7.0965 C   0  0  0  0  0  0  0  0  0  0  0  0
   29.2494  -20.5233   -5.9267 C   0  0  0  0  0  0  0  0  0  0  0  0
   28.3460  -19.5169   -5.5899 C   0  0  0  0  0  0  0  0  0  0  0  0
   27.3012  -19.2108   -6.4360 C   0  0  0  0  0  0  0  0  0  0  0  0
   24.9470  -19.9870  -10.6113 C   0  0  0  0  0  0  0  0  0  0  0  0
   25.1236  -19.0550  -11.4360 O   0  0  0  0  0  0  0  0  0  0  0  0
   23.6569  -20.5755  -10.5213 N   0  0  0  0  0  0  0  0  0  0  0  0
   22.8121  -20.7758  -11.6871 C   0  0  1  0  0  0  0  0  0  0  0  0
   23.5406  -21.7229  -12.6075 C   0  0  0  0  0  0  0  0  0  0  0  0
   22.8405  -21.9978  -13.8683 C   0  0  0  0  0  0  0  0  0  0  0  0
   21.5822  -21.5255  -14.2007 C   0  0  0  0  0  0  0  0  0  0  0  0
   21.3207  -22.0087  -15.4301 N   0  0  0  0  0  0  0  0  0  0  0  0
   22.3703  -22.7414  -15.8289 C   0  0  0  0  0  0  0  0  0  0  0  0
   23.3201  -22.7530  -14.8893 N   0  0  0  0  0  0  0  0  0  0  0  0
   21.4611  -21.2451  -11.3046 C   0  0  0  0  0  0  0  0  0  0  0  0
   21.2545  -22.1818  -10.4902 O   0  0  0  0  0  0  0  0  0  0  0  0
   20.3392  -20.6441  -11.8523 O   0  0  0  0  0  0  0  0  0  0  0  0
  2  1  1  6
  3  2  1  0
  3  4  1  0
  5  4  1  0
  6  5  1  0
  7  6  1  0
  8  9  2  0
  8  2  1  0
 10  8  1  0
 11 10  1  0
 11 12  1  1
 12 13  1  0
 13 18  1  0
 13 14  2  0
 14 15  1  0
 15 16  2  0
 17 16  1  0
 18 17  2  0
 19 11  1  0
 20 19  2  0
 21 19  1  0
 22 29  1  0
 22 21  1  0
 22 23  1  6
 23 24  1  0
 24 28  1  0
 24 25  2  0
 25 26  1  0
 27 26  1  0
 28 27  2  0
 29 31  1  0
 30 29  2  0
M  END
$$$$
