KFH.pdb
     RDKit          3D

 31 32  0  0  1  0  0  0  0  0999 V2000
   28.0413  -20.4628  -17.5692 N   0  0  0  0  0  0  0  0  0  0  0  0
   27.2897  -21.6462  -17.3337 C   0  0  1  0  0  0  0  0  0  0  0  0
   27.9079  -22.9111  -17.9148 C   0  0  0  0  0  0  0  0  0  0  0  0
   28.9350  -22.6823  -18.9669 C   0  0  0  0  0  0  0  0  0  0  0  0
   28.5907  -21.6991  -20.0289 C   0  0  0  0  0  0  0  0  0  0  0  0
   29.6589  -21.6084  -21.1075 C   0  0  0  0  0  0  0  0  0  0  0  0
   29.3534  -20.4996  -21.9891 N   0  0  0  0  0  0  0  0  0  0  0  0
   26.9489  -21.7994  -15.9237 C   0  0  0  0  0  0  0  0  0  0  0  0
   26.4363  -22.9401  -15.5983 O   0  0  0  0  0  0  0  0  0  0  0  0
   27.0825  -20.9137  -14.8554 N   0  0  0  0  0  0  0  0  0  0  0  0
   26.5084  -21.1504  -13.5322 C   0  0  1  0  0  0  0  0  0  0  0  0
   27.1396  -20.1517  -12.5882 C   0  0  0  0  0  0  0  0  0  0  0  0
   26.6816  -20.3420  -11.1880 C   0  0  0  0  0  0  0  0  0  0  0  0
   27.2336  -21.3170  -10.3857 C   0  0  0  0  0  0  0  0  0  0  0  0
   26.8039  -21.4851   -9.0876 C   0  0  0  0  0  0  0  0  0  0  0  0
   25.8110  -20.6477   -8.6305 C   0  0  0  0  0  0  0  0  0  0  0  0
   25.2489  -19.6599   -9.4371 C   0  0  0  0  0  0  0  0  0  0  0  0
   25.6819  -19.4950  -10.7358 C   0  0  0  0  0  0  0  0  0  0  0  0
   25.0521  -20.9235  -13.5127 C   0  0  0  0  0  0  0  0  0  0  0  0
   24.6374  -19.8124  -13.9288 O   0  0  0  0  0  0  0  0  0  0  0  0
   24.0993  -21.8740  -13.0568 N   0  0  0  0  0  0  0  0  0  0  0  0
   22.6773  -21.5790  -12.9949 C   0  0  1  0  0  0  0  0  0  0  0  0
   21.9831  -22.8310  -12.5200 C   0  0  0  0  0  0  0  0  0  0  0  0
   20.5210  -22.7200  -12.4471 C   0  0  0  0  0  0  0  0  0  0  0  0
   19.7554  -21.8025  -13.1463 C   0  0  0  0  0  0  0  0  0  0  0  0
   18.4786  -22.0426  -12.7919 N   0  0  0  0  0  0  0  0  0  0  0  0
   18.4661  -23.0588  -11.9175 C   0  0  0  0  0  0  0  0  0  0  0  0
   19.7074  -23.4958  -11.6861 N   0  0  0  0  0  0  0  0  0  0  0  0
   22.4046  -20.3948  -12.1493 C   0  0  0  0  0  0  0  0  0  0  0  0
   22.9732  -20.1807  -11.0475 O   0  0  0  0  0  0  0  0  0  0  0  0
   21.4795  -19.4490  -12.5612 O   0  0  0  0  0  0  0  0  0  0  0  0
  2  1  1  1
  3  2  1  0
  3  4  1  0
  5  4  1  0
  6  5  1  0
  7  6  1  0
  8  9  2  0
  8  2  1  0
 10  8  1  0
 11 10  1  0
 11 12  1  1
 12 13  1  0
 13 18  1  0
 13 14  2  0
 14 15  1  0
 15 16  2  0
 17 16  1  0
 18 17  2  0
 19 11  1  0
 20 19  2  0
 21 19  1  0
 22 29  1  0
 22 21  1  0
 22 23  1  1
 23 24  1  0
 24 28  1  0
 24 25  2  0
 25 26  1  0
 27 26  1  0
 28 27  2  0
 29 31  1  0
 30 29  2  0
M  END
$$$$
