KFH.pdb
     RDKit          3D

 31 32  0  0  1  0  0  0  0  0999 V2000
   28.4294  -22.2297  -18.1139 N   0  0  0  0  0  0  0  0  0  0  0  0
   27.2887  -21.3959  -17.9578 C   0  0  1  0  0  0  0  0  0  0  0  0
   26.2573  -21.5246  -19.0712 C   0  0  0  0  0  0  0  0  0  0  0  0
   26.7668  -21.2268  -20.4371 C   0  0  0  0  0  0  0  0  0  0  0  0
   26.9686  -22.3920  -21.3397 C   0  0  0  0  0  0  0  0  0  0  0  0
   27.3895  -21.9776  -22.7411 C   0  0  0  0  0  0  0  0  0  0  0  0
   28.8089  -22.2199  -22.9040 N   0  0  0  0  0  0  0  0  0  0  0  0
   26.6901  -21.5395  -16.6354 C   0  0  0  0  0  0  0  0  0  0  0  0
   25.8979  -22.5505  -16.4926 O   0  0  0  0  0  0  0  0  0  0  0  0
   26.8279  -20.7621  -15.4865 N   0  0  0  0  0  0  0  0  0  0  0  0
   26.0763  -20.9984  -14.2553 C   0  0  1  0  0  0  0  0  0  0  0  0
   26.7911  -20.2562  -13.1483 C   0  0  0  0  0  0  0  0  0  0  0  0
   26.1488  -20.4735  -11.8267 C   0  0  0  0  0  0  0  0  0  0  0  0
   26.4649  -21.5701  -11.0543 C   0  0  0  0  0  0  0  0  0  0  0  0
   25.8656  -21.7627   -9.8289 C   0  0  0  0  0  0  0  0  0  0  0  0
   24.9479  -20.8243   -9.4128 C   0  0  0  0  0  0  0  0  0  0  0  0
   24.6239  -19.7134  -10.1895 C   0  0  0  0  0  0  0  0  0  0  0  0
   25.2262  -19.5244  -11.4154 C   0  0  0  0  0  0  0  0  0  0  0  0
   24.7039  -20.4668  -14.3346 C   0  0  0  0  0  0  0  0  0  0  0  0
   24.5702  -19.2711  -14.6982 O   0  0  0  0  0  0  0  0  0  0  0  0
   23.5358  -21.2156  -14.0280 N   0  0  0  0  0  0  0  0  0  0  0  0
   22.2366  -20.5886  -13.8494 C   0  0  1  0  0  0  0  0  0  0  0  0
   21.3696  -21.0236  -15.0043 C   0  0  0  0  0  0  0  0  0  0  0  0
   21.7959  -20.5027  -16.3090 C   0  0  0  0  0  0  0  0  0  0  0  0
   22.6036  -21.1748  -17.2105 C   0  0  0  0  0  0  0  0  0  0  0  0
   22.7472  -20.3479  -18.2636 N   0  0  0  0  0  0  0  0  0  0  0  0
   22.0594  -19.2241  -18.0160 C   0  0  0  0  0  0  0  0  0  0  0  0
   21.4641  -19.2902  -16.8216 N   0  0  0  0  0  0  0  0  0  0  0  0
   21.6584  -20.9054  -12.5238 C   0  0  0  0  0  0  0  0  0  0  0  0
   22.0224  -21.8841  -11.8218 O   0  0  0  0  0  0  0  0  0  0  0  0
   20.6604  -20.1029  -11.9948 O   0  0  0  0  0  0  0  0  0  0  0  0
  2  1  1  6
  3  2  1  0
  3  4  1  0
  5  4  1  0
  6  5  1  0
  7  6  1  0
  8  9  2  0
  8  2  1  0
 10  8  1  0
 11 10  1  0
 11 12  1  1
 12 13  1  0
 13 18  1  0
 13 14  2  0
 14 15  1  0
 15 16  2  0
 17 16  1  0
 18 17  2  0
 19 11  1  0
 20 19  2  0
 21 19  1  0
 22 29  1  0
 22 21  1  0
 22 23  1  6
 23 24  1  0
 24 28  1  0
 24 25  2  0
 25 26  1  0
 27 26  1  0
 28 27  2  0
 29 31  1  0
 30 29  2  0
M  END
$$$$
