KFH.pdb
     RDKit          3D

 31 32  0  0  1  0  0  0  0  0999 V2000
   26.5963  -22.8917  -14.8005 N   0  0  0  0  0  0  0  0  0  0  0  0
   25.3343  -23.3684  -15.2486 C   0  0  1  0  0  0  0  0  0  0  0  0
   25.2910  -24.8640  -15.5340 C   0  0  0  0  0  0  0  0  0  0  0  0
   26.1328  -25.3101  -16.6770 C   0  0  0  0  0  0  0  0  0  0  0  0
   25.7293  -24.8308  -18.0262 C   0  0  0  0  0  0  0  0  0  0  0  0
   26.6769  -25.3004  -19.1190 C   0  0  0  0  0  0  0  0  0  0  0  0
   26.2045  -24.8161  -20.4005 N   0  0  0  0  0  0  0  0  0  0  0  0
   24.2519  -22.9461  -14.3667 C   0  0  0  0  0  0  0  0  0  0  0  0
   23.8676  -23.8252  -13.5009 O   0  0  0  0  0  0  0  0  0  0  0  0
   23.5527  -21.7421  -14.2989 N   0  0  0  0  0  0  0  0  0  0  0  0
   22.5804  -21.4293  -13.2530 C   0  0  1  0  0  0  0  0  0  0  0  0
   23.0458  -20.1583  -12.5786 C   0  0  0  0  0  0  0  0  0  0  0  0
   24.0704  -20.4234  -11.5363 C   0  0  0  0  0  0  0  0  0  0  0  0
   25.4010  -20.5628  -11.8665 C   0  0  0  0  0  0  0  0  0  0  0  0
   26.3446  -20.8068  -10.8929 C   0  0  0  0  0  0  0  0  0  0  0  0
   25.9076  -20.9046   -9.5908 C   0  0  0  0  0  0  0  0  0  0  0  0
   24.5633  -20.7647   -9.2507 C   0  0  0  0  0  0  0  0  0  0  0  0
   23.6221  -20.5205  -10.2283 C   0  0  0  0  0  0  0  0  0  0  0  0
   21.2374  -21.1754  -13.8047 C   0  0  0  0  0  0  0  0  0  0  0  0
   21.1528  -20.3679  -14.7641 O   0  0  0  0  0  0  0  0  0  0  0  0
   20.0458  -21.7810  -13.3228 N   0  0  0  0  0  0  0  0  0  0  0  0
   18.7599  -21.5890  -13.9728 C   0  0  1  0  0  0  0  0  0  0  0  0
   17.7821  -22.5281  -13.3118 C   0  0  0  0  0  0  0  0  0  0  0  0
   18.0311  -23.9490  -13.5846 C   0  0  0  0  0  0  0  0  0  0  0  0
   18.7799  -24.4385  -14.6412 C   0  0  0  0  0  0  0  0  0  0  0  0
   18.7532  -25.7795  -14.5210 N   0  0  0  0  0  0  0  0  0  0  0  0
   18.0223  -26.0932  -13.4418 C   0  0  0  0  0  0  0  0  0  0  0  0
   17.5650  -24.9882  -12.8458 N   0  0  0  0  0  0  0  0  0  0  0  0
   18.3372  -20.1707  -13.9321 C   0  0  0  0  0  0  0  0  0  0  0  0
   17.7020  -19.6070  -14.8605 O   0  0  0  0  0  0  0  0  0  0  0  0
   18.6395  -19.3904  -12.8278 O   0  0  0  0  0  0  0  0  0  0  0  0
  2  1  1  1
  3  2  1  0
  3  4  1  0
  5  4  1  0
  6  5  1  0
  7  6  1  0
  8  9  2  0
  8  2  1  0
 10  8  1  0
 11 10  1  0
 11 12  1  6
 12 13  1  0
 13 18  1  0
 13 14  2  0
 14 15  1  0
 15 16  2  0
 17 16  1  0
 18 17  2  0
 19 11  1  0
 20 19  2  0
 21 19  1  0
 22 29  1  0
 22 21  1  0
 22 23  1  1
 23 24  1  0
 24 28  1  0
 24 25  2  0
 25 26  1  0
 27 26  1  0
 28 27  2  0
 29 31  1  0
 30 29  2  0
M  END
$$$$
