KFH.pdb
     RDKit          3D

 31 32  0  0  1  0  0  0  0  0999 V2000
   28.2930  -21.8963  -14.0503 N   0  0  0  0  0  0  0  0  0  0  0  0
   28.2607  -20.7140  -13.2617 C   0  0  1  0  0  0  0  0  0  0  0  0
   27.3817  -19.6050  -13.8248 C   0  0  0  0  0  0  0  0  0  0  0  0
   27.7622  -19.1301  -15.1827 C   0  0  0  0  0  0  0  0  0  0  0  0
   27.4394  -20.0356  -16.3180 C   0  0  0  0  0  0  0  0  0  0  0  0
   27.6931  -19.3880  -17.6703 C   0  0  0  0  0  0  0  0  0  0  0  0
   29.0841  -18.9905  -17.7553 N   0  0  0  0  0  0  0  0  0  0  0  0
   27.9531  -21.0031  -11.8655 C   0  0  0  0  0  0  0  0  0  0  0  0
   26.9520  -21.7969  -11.6715 O   0  0  0  0  0  0  0  0  0  0  0  0
   28.5616  -20.5626  -10.6911 N   0  0  0  0  0  0  0  0  0  0  0  0
   28.0478  -20.8567   -9.3546 C   0  0  1  0  0  0  0  0  0  0  0  0
   29.0640  -20.3364   -8.3628 C   0  0  0  0  0  0  0  0  0  0  0  0
   28.5313  -20.3195   -6.9763 C   0  0  0  0  0  0  0  0  0  0  0  0
   28.7258  -21.3871   -6.1269 C   0  0  0  0  0  0  0  0  0  0  0  0
   28.2298  -21.3619   -4.8419 C   0  0  0  0  0  0  0  0  0  0  0  0
   27.5393  -20.2383   -4.4462 C   0  0  0  0  0  0  0  0  0  0  0  0
   27.3392  -19.1556   -5.3007 C   0  0  0  0  0  0  0  0  0  0  0  0
   27.8375  -19.1848   -6.5860 C   0  0  0  0  0  0  0  0  0  0  0  0
   26.7721  -20.1679   -9.0887 C   0  0  0  0  0  0  0  0  0  0  0  0
   26.6779  -18.9695   -9.4560 O   0  0  0  0  0  0  0  0  0  0  0  0
   25.6550  -20.7695   -8.4492 N   0  0  0  0  0  0  0  0  0  0  0  0
   24.2854  -20.4569   -8.8231 C   0  0  1  0  0  0  0  0  0  0  0  0
   24.1610  -20.7046  -10.3057 C   0  0  0  0  0  0  0  0  0  0  0  0
   22.8199  -20.4564  -10.8488 C   0  0  0  0  0  0  0  0  0  0  0  0
   21.7287  -20.0271  -10.1128 C   0  0  0  0  0  0  0  0  0  0  0  0
   20.7099  -19.9292  -10.9880 N   0  0  0  0  0  0  0  0  0  0  0  0
   21.1587  -20.2823  -12.2010 C   0  0  0  0  0  0  0  0  0  0  0  0
   22.4525  -20.6117  -12.1465 N   0  0  0  0  0  0  0  0  0  0  0  0
   23.3127  -21.2234   -8.0119 C   0  0  0  0  0  0  0  0  0  0  0  0
   22.0681  -21.0467   -8.0674 O   0  0  0  0  0  0  0  0  0  0  0  0
   23.7598  -22.1968   -7.1331 O   0  0  0  0  0  0  0  0  0  0  0  0
  2  1  1  6
  3  2  1  0
  3  4  1  0
  5  4  1  0
  6  5  1  0
  7  6  1  0
  8  9  2  0
  8  2  1  0
 10  8  1  0
 11 10  1  0
 11 12  1  1
 12 13  1  0
 13 18  1  0
 13 14  2  0
 14 15  1  0
 15 16  2  0
 17 16  1  0
 18 17  2  0
 19 11  1  0
 20 19  2  0
 21 19  1  0
 22 29  1  0
 22 21  1  0
 22 23  1  6
 23 24  1  0
 24 28  1  0
 24 25  2  0
 25 26  1  0
 27 26  1  0
 28 27  2  0
 29 31  1  0
 30 29  2  0
M  END
$$$$
