KVI.pdb
     RDKit          3D

 25 24  0  0  1  0  0  0  0  0999 V2000
   10.4657  -17.1445   18.8347 N   0  0  0  0  0  0  0  0  0  0  0  0
   11.0296  -17.5646   20.1031 C   0  0  1  0  0  0  0  0  0  0  0  0
   12.4739  -17.2973   20.1184 C   0  0  0  0  0  0  0  0  0  0  0  0
   13.4609  -18.2417   19.6112 C   0  0  0  0  0  0  0  0  0  0  0  0
   14.9023  -18.0091   19.5961 C   0  0  0  0  0  0  0  0  0  0  0  0
   15.7225  -19.0906   18.9791 C   0  0  0  0  0  0  0  0  0  0  0  0
   17.1364  -18.6120   18.9097 N   0  0  0  0  0  0  0  0  0  0  0  0
   10.4426  -16.7044   21.2127 C   0  0  0  0  0  0  0  0  0  0  0  0
   10.7057  -15.4973   21.2396 O   0  0  0  0  0  0  0  0  0  0  0  0
    7.2349  -18.2301   23.7839 C   0  0  0  0  0  0  0  0  0  0  0  0
    7.4849  -16.7864   23.4029 C   0  0  2  0  0  0  0  0  0  0  0  0
    6.6375  -16.3682   22.2175 C   0  0  0  0  0  0  0  0  0  0  0  0
    8.9354  -16.4751   23.2231 C   0  0  2  0  0  0  0  0  0  0  0  0
    9.6112  -17.2220   22.2127 N   0  0  0  0  0  0  0  0  0  0  0  0
    9.5985  -16.5791   24.5542 C   0  0  0  0  0  0  0  0  0  0  0  0
   10.4238  -17.5039   24.8138 O   0  0  0  0  0  0  0  0  0  0  0  0
    8.9321  -12.3912   28.2178 C   0  0  0  0  0  0  0  0  0  0  0  0
    9.6058  -13.3612   27.2747 C   0  0  0  0  0  0  0  0  0  0  0  0
    9.4955  -14.7408   27.8638 C   0  0  2  0  0  0  0  0  0  0  0  0
   10.3943  -14.8206   29.0748 C   0  0  0  0  0  0  0  0  0  0  0  0
   10.0219  -15.7975   26.8779 C   0  0  2  0  0  0  0  0  0  0  0  0
    9.3542  -15.6624   25.6044 N   0  0  0  0  0  0  0  0  0  0  0  0
    9.6505  -17.1053   27.4580 C   0  0  0  0  0  0  0  0  0  0  0  0
    8.5220  -17.6388   27.3059 O   0  0  0  0  0  0  0  0  0  0  0  0
   10.5863  -17.7890   28.2108 O   0  0  0  0  0  0  0  0  0  0  0  0
  2  1  1  6
  3  2  1  0
  4  3  1  0
  5  6  1  0
  5  4  1  0
  7  6  1  0
  8  2  1  0
  8  9  2  0
 11 10  1  6
 11 12  1  0
 13 14  1  6
 13 11  1  0
 14  8  1  0
 15 13  1  0
 16 15  2  0
 18 19  1  0
 18 17  1  0
 19 21  1  0
 19 20  1  1
 21 22  1  6
 22 15  1  0
 23 21  1  0
 23 25  1  0
 24 23  2  0
M  END
$$$$
