KVI.pdb
     RDKit          3D

 25 24  0  0  1  0  0  0  0  0999 V2000
    8.8602  -15.5995   20.6234 N   0  0  0  0  0  0  0  0  0  0  0  0
    8.1636  -16.1467   21.7717 C   0  0  1  0  0  0  0  0  0  0  0  0
    8.5490  -17.5509   21.9648 C   0  0  0  0  0  0  0  0  0  0  0  0
    8.1633  -18.6132   21.0450 C   0  0  0  0  0  0  0  0  0  0  0  0
    8.9978  -19.1128   19.9559 C   0  0  0  0  0  0  0  0  0  0  0  0
    8.4084  -20.2193   19.1488 C   0  0  0  0  0  0  0  0  0  0  0  0
    9.4107  -20.6178   18.1146 N   0  0  0  0  0  0  0  0  0  0  0  0
    8.6297  -15.4186   23.0241 C   0  0  0  0  0  0  0  0  0  0  0  0
    9.8417  -15.2884   23.2269 O   0  0  0  0  0  0  0  0  0  0  0  0
    6.3962  -12.3712   24.9103 C   0  0  0  0  0  0  0  0  0  0  0  0
    6.9914  -13.4261   25.8186 C   0  0  2  0  0  0  0  0  0  0  0  0
    7.3906  -12.8451   27.1607 C   0  0  0  0  0  0  0  0  0  0  0  0
    8.0903  -14.2016   25.1673 C   0  0  2  0  0  0  0  0  0  0  0  0
    7.7411  -14.8848   23.9646 N   0  0  0  0  0  0  0  0  0  0  0  0
    8.6852  -15.1078   26.1906 C   0  0  0  0  0  0  0  0  0  0  0  0
    8.0744  -16.1395   26.5984 O   0  0  0  0  0  0  0  0  0  0  0  0
   13.9607  -15.8290   25.7848 C   0  0  0  0  0  0  0  0  0  0  0  0
   12.4738  -16.0497   25.9404 C   0  0  0  0  0  0  0  0  0  0  0  0
   12.1177  -15.8406   27.3868 C   0  0  2  0  0  0  0  0  0  0  0  0
   12.6745  -16.9912   28.1910 C   0  0  0  0  0  0  0  0  0  0  0  0
   10.5930  -15.8872   27.5844 C   0  0  2  0  0  0  0  0  0  0  0  0
    9.9570  -14.8798   26.7679 N   0  0  0  0  0  0  0  0  0  0  0  0
   10.3634  -15.5442   29.0038 C   0  0  0  0  0  0  0  0  0  0  0  0
   10.4443  -16.3768   29.9427 O   0  0  0  0  0  0  0  0  0  0  0  0
   10.0413  -14.2404   29.3293 O   0  0  0  0  0  0  0  0  0  0  0  0
  2  1  1  6
  3  2  1  0
  4  3  1  0
  5  6  1  0
  5  4  1  0
  7  6  1  0
  8  2  1  0
  8  9  2  0
 11 10  1  6
 11 12  1  0
 13 14  1  6
 13 11  1  0
 14  8  1  0
 15 13  1  0
 16 15  2  0
 18 19  1  0
 18 17  1  0
 19 21  1  0
 19 20  1  1
 21 22  1  6
 22 15  1  0
 23 21  1  0
 23 25  1  0
 24 23  2  0
M  END
$$$$
