KVI.pdb
     RDKit          3D

 25 24  0  0  1  0  0  0  0  0999 V2000
   10.5456  -17.1592   18.2066 N   0  0  0  0  0  0  0  0  0  0  0  0
   10.4677  -17.7408   19.5328 C   0  0  1  0  0  0  0  0  0  0  0  0
   11.7418  -18.3911   19.8667 C   0  0  0  0  0  0  0  0  0  0  0  0
   12.2620  -19.5392   19.1358 C   0  0  0  0  0  0  0  0  0  0  0  0
   13.4954  -20.2465   19.4684 C   0  0  0  0  0  0  0  0  0  0  0  0
   13.8045  -21.4344   18.6220 C   0  0  0  0  0  0  0  0  0  0  0  0
   15.1473  -21.9501   19.0269 N   0  0  0  0  0  0  0  0  0  0  0  0
   10.2992  -16.6233   20.5521 C   0  0  0  0  0  0  0  0  0  0  0  0
   11.0680  -15.6565   20.5157 O   0  0  0  0  0  0  0  0  0  0  0  0
    6.6392  -16.2313   22.8943 C   0  0  0  0  0  0  0  0  0  0  0  0
    7.6178  -15.1320   22.5397 C   0  0  2  0  0  0  0  0  0  0  0  0
    7.1926  -14.3899   21.2880 C   0  0  0  0  0  0  0  0  0  0  0  0
    9.0330  -15.6087   22.4842 C   0  0  2  0  0  0  0  0  0  0  0  0
    9.3049  -16.6404   21.5372 N   0  0  0  0  0  0  0  0  0  0  0  0
    9.4520  -15.9738   23.8674 C   0  0  0  0  0  0  0  0  0  0  0  0
    9.7613  -17.1628   24.1748 O   0  0  0  0  0  0  0  0  0  0  0  0
   10.5163  -13.3346   29.3934 C   0  0  0  0  0  0  0  0  0  0  0  0
   10.4548  -14.5848   28.5466 C   0  0  0  0  0  0  0  0  0  0  0  0
   10.0024  -14.1943   27.1663 C   0  0  2  0  0  0  0  0  0  0  0  0
    8.5758  -13.7055   27.2475 C   0  0  0  0  0  0  0  0  0  0  0  0
    9.9760  -15.4183   26.2353 C   0  0  2  0  0  0  0  0  0  0  0  0
    9.5320  -15.0284   24.9174 N   0  0  0  0  0  0  0  0  0  0  0  0
    8.9690  -16.3355   26.8095 C   0  0  0  0  0  0  0  0  0  0  0  0
    7.7598  -16.3455   26.4642 O   0  0  0  0  0  0  0  0  0  0  0  0
    9.3659  -17.2358   27.7798 O   0  0  0  0  0  0  0  0  0  0  0  0
  2  1  1  6
  3  2  1  0
  4  3  1  0
  5  6  1  0
  5  4  1  0
  7  6  1  0
  8  2  1  0
  8  9  2  0
 11 10  1  6
 11 12  1  0
 13 14  1  6
 13 11  1  0
 14  8  1  0
 15 13  1  0
 16 15  2  0
 18 19  1  0
 18 17  1  0
 19 21  1  0
 19 20  1  1
 21 22  1  6
 22 15  1  0
 23 21  1  0
 23 25  1  0
 24 23  2  0
M  END
$$$$
