KVI.pdb
     RDKit          3D

 25 24  0  0  1  0  0  0  0  0999 V2000
    6.2190  -18.6923   19.2255 N   0  0  0  0  0  0  0  0  0  0  0  0
    7.3712  -18.5617   20.0964 C   0  0  1  0  0  0  0  0  0  0  0  0
    8.3027  -17.5692   19.5439 C   0  0  0  0  0  0  0  0  0  0  0  0
    9.3591  -17.9116   18.6005 C   0  0  0  0  0  0  0  0  0  0  0  0
   10.7421  -17.4541   18.7000 C   0  0  0  0  0  0  0  0  0  0  0  0
   11.6728  -17.9879   17.6646 C   0  0  0  0  0  0  0  0  0  0  0  0
   13.0429  -17.4760   17.9707 N   0  0  0  0  0  0  0  0  0  0  0  0
    6.9166  -17.9959   21.4340 C   0  0  0  0  0  0  0  0  0  0  0  0
    6.0037  -17.1632   21.4547 O   0  0  0  0  0  0  0  0  0  0  0  0
    6.3936  -18.5438   26.2933 C   0  0  0  0  0  0  0  0  0  0  0  0
    6.9259  -19.0464   24.9682 C   0  0  2  0  0  0  0  0  0  0  0  0
    8.1882  -19.8661   25.1496 C   0  0  0  0  0  0  0  0  0  0  0  0
    7.0749  -17.9611   23.9518 C   0  0  2  0  0  0  0  0  0  0  0  0
    7.4897  -18.3788   22.6523 N   0  0  0  0  0  0  0  0  0  0  0  0
    7.9605  -16.9086   24.5266 C   0  0  0  0  0  0  0  0  0  0  0  0
    9.1989  -16.8683   24.2653 O   0  0  0  0  0  0  0  0  0  0  0  0
    5.6500  -12.2227   26.3656 C   0  0  0  0  0  0  0  0  0  0  0  0
    6.6312  -13.0671   25.5857 C   0  0  0  0  0  0  0  0  0  0  0  0
    7.5426  -13.7528   26.5663 C   0  0  2  0  0  0  0  0  0  0  0  0
    8.5486  -12.7470   27.0733 C   0  0  0  0  0  0  0  0  0  0  0  0
    8.3611  -14.8538   25.8709 C   0  0  2  0  0  0  0  0  0  0  0  0
    7.4830  -15.8955   25.3917 N   0  0  0  0  0  0  0  0  0  0  0  0
    9.2303  -15.4281   26.9194 C   0  0  0  0  0  0  0  0  0  0  0  0
   10.3174  -14.9107   27.2826 O   0  0  0  0  0  0  0  0  0  0  0  0
    8.8376  -16.5977   27.5420 O   0  0  0  0  0  0  0  0  0  0  0  0
  2  1  1  6
  3  2  1  0
  4  3  1  0
  5  6  1  0
  5  4  1  0
  7  6  1  0
  8  2  1  0
  8  9  2  0
 11 10  1  1
 11 12  1  0
 13 14  1  6
 13 11  1  0
 14  8  1  0
 15 13  1  0
 16 15  2  0
 18 19  1  0
 18 17  1  0
 19 21  1  0
 19 20  1  6
 21 22  1  1
 22 15  1  0
 23 21  1  0
 23 25  1  0
 24 23  2  0
M  END
$$$$
