KVI.pdb
     RDKit          3D

 25 24  0  0  1  0  0  0  0  0999 V2000
    6.9285  -19.0316   22.2772 N   0  0  0  0  0  0  0  0  0  0  0  0
    8.3581  -19.1278   22.5012 C   0  0  1  0  0  0  0  0  0  0  0  0
    8.9734  -19.9430   21.4455 C   0  0  0  0  0  0  0  0  0  0  0  0
    8.2036  -20.5802   20.3851 C   0  0  0  0  0  0  0  0  0  0  0  0
    8.7751  -21.4039   19.3236 C   0  0  0  0  0  0  0  0  0  0  0  0
    7.8271  -21.8204   18.2508 C   0  0  0  0  0  0  0  0  0  0  0  0
    8.5797  -22.6664   17.2756 N   0  0  0  0  0  0  0  0  0  0  0  0
    8.9735  -17.7432   22.3600 C   0  0  0  0  0  0  0  0  0  0  0  0
   10.2023  -17.6238   22.4144 O   0  0  0  0  0  0  0  0  0  0  0  0
    6.6137  -13.8607   22.0796 C   0  0  0  0  0  0  0  0  0  0  0  0
    7.8222  -14.3087   21.2855 C   0  0  2  0  0  0  0  0  0  0  0  0
    7.4281  -14.8296   19.9174 C   0  0  0  0  0  0  0  0  0  0  0  0
    8.6967  -15.2557   22.0417 C   0  0  2  0  0  0  0  0  0  0  0  0
    8.2051  -16.5888   22.1697 N   0  0  0  0  0  0  0  0  0  0  0  0
    9.0209  -14.6343   23.3574 C   0  0  0  0  0  0  0  0  0  0  0  0
    9.6757  -13.5533   23.4371 O   0  0  0  0  0  0  0  0  0  0  0  0
    5.8909  -12.2869   26.1752 C   0  0  0  0  0  0  0  0  0  0  0  0
    7.1725  -12.8132   25.5714 C   0  0  0  0  0  0  0  0  0  0  0  0
    7.6828  -13.9233   26.4488 C   0  0  2  0  0  0  0  0  0  0  0  0
    8.1105  -13.3335   27.7716 C   0  0  0  0  0  0  0  0  0  0  0  0
    8.9454  -14.5593   25.8430 C   0  0  2  0  0  0  0  0  0  0  0  0
    8.6235  -15.2030   24.5908 N   0  0  0  0  0  0  0  0  0  0  0  0
    9.3679  -15.6011   26.8028 C   0  0  0  0  0  0  0  0  0  0  0  0
    9.8988  -15.3489   27.9145 O   0  0  0  0  0  0  0  0  0  0  0  0
    9.1740  -16.9286   26.4716 O   0  0  0  0  0  0  0  0  0  0  0  0
  2  1  1  6
  3  2  1  0
  4  3  1  0
  5  6  1  0
  5  4  1  0
  7  6  1  0
  8  2  1  0
  8  9  2  0
 11 10  1  1
 11 12  1  0
 13 14  1  1
 13 11  1  0
 14  8  1  0
 15 13  1  0
 16 15  2  0
 18 19  1  0
 18 17  1  0
 19 21  1  0
 19 20  1  1
 21 22  1  6
 22 15  1  0
 23 21  1  0
 23 25  1  0
 24 23  2  0
M  END
$$$$
