KVI.pdb
     RDKit          3D

 25 24  0  0  1  0  0  0  0  0999 V2000
    5.7520  -19.3103   21.2951 N   0  0  0  0  0  0  0  0  0  0  0  0
    5.7625  -18.4581   22.4685 C   0  0  1  0  0  0  0  0  0  0  0  0
    6.0574  -19.2601   23.6633 C   0  0  0  0  0  0  0  0  0  0  0  0
    6.2170  -20.7080   23.6273 C   0  0  0  0  0  0  0  0  0  0  0  0
    6.3125  -21.5629   24.8072 C   0  0  0  0  0  0  0  0  0  0  0  0
    6.6266  -22.9958   24.5402 C   0  0  0  0  0  0  0  0  0  0  0  0
    6.6289  -23.7171   25.8489 N   0  0  0  0  0  0  0  0  0  0  0  0
    6.9107  -17.4667   22.3475 C   0  0  0  0  0  0  0  0  0  0  0  0
    8.0326  -17.7956   22.7477 O   0  0  0  0  0  0  0  0  0  0  0  0
    8.6779  -13.1235   20.6391 C   0  0  0  0  0  0  0  0  0  0  0  0
    7.4962  -14.0597   20.7781 C   0  0  2  0  0  0  0  0  0  0  0  0
    6.2096  -13.2991   21.0318 C   0  0  0  0  0  0  0  0  0  0  0  0
    7.7338  -15.1530   21.7688 C   0  0  2  0  0  0  0  0  0  0  0  0
    6.7530  -16.1886   21.7990 N   0  0  0  0  0  0  0  0  0  0  0  0
    7.9494  -14.5271   23.1045 C   0  0  0  0  0  0  0  0  0  0  0  0
    7.6847  -13.3069   23.3157 O   0  0  0  0  0  0  0  0  0  0  0  0
    6.1941  -12.0241   26.0514 C   0  0  0  0  0  0  0  0  0  0  0  0
    7.3432  -12.6587   25.3025 C   0  0  0  0  0  0  0  0  0  0  0  0
    7.8369  -13.8301   26.1067 C   0  0  2  0  0  0  0  0  0  0  0  0
    8.4379  -13.3127   27.3920 C   0  0  0  0  0  0  0  0  0  0  0  0
    8.9764  -14.5546   25.3704 C   0  0  2  0  0  0  0  0  0  0  0  0
    8.4575  -15.2453   24.2130 N   0  0  0  0  0  0  0  0  0  0  0  0
    9.4876  -15.5648   26.3207 C   0  0  0  0  0  0  0  0  0  0  0  0
    9.1536  -16.7769   26.2942 O   0  0  0  0  0  0  0  0  0  0  0  0
   10.3820  -15.1677   27.2963 O   0  0  0  0  0  0  0  0  0  0  0  0
  2  1  1  6
  3  2  1  0
  4  3  1  0
  5  6  1  0
  5  4  1  0
  7  6  1  0
  8  2  1  0
  8  9  2  0
 11 10  1  1
 11 12  1  0
 13 14  1  1
 13 11  1  0
 14  8  1  0
 15 13  1  0
 16 15  2  0
 18 19  1  0
 18 17  1  0
 19 21  1  0
 19 20  1  1
 21 22  1  6
 22 15  1  0
 23 21  1  0
 23 25  1  0
 24 23  2  0
M  END
$$$$
