KVI.pdb
     RDKit          3D

 25 24  0  0  1  0  0  0  0  0999 V2000
    9.6228  -15.8145   19.8846 N   0  0  0  0  0  0  0  0  0  0  0  0
    8.7250  -16.2960   20.9168 C   0  0  1  0  0  0  0  0  0  0  0  0
    8.9630  -17.7256   21.1561 C   0  0  0  0  0  0  0  0  0  0  0  0
    9.0964  -18.6987   20.0797 C   0  0  0  0  0  0  0  0  0  0  0  0
    9.1206  -20.1466   20.2671 C   0  0  0  0  0  0  0  0  0  0  0  0
    9.2570  -20.9546   19.0214 C   0  0  0  0  0  0  0  0  0  0  0  0
    9.3076  -22.3961   19.4121 N   0  0  0  0  0  0  0  0  0  0  0  0
    9.0623  -15.6001   22.2275 C   0  0  0  0  0  0  0  0  0  0  0  0
   10.2458  -15.3684   22.4971 O   0  0  0  0  0  0  0  0  0  0  0  0
    7.4742  -12.9943   26.1599 C   0  0  0  0  0  0  0  0  0  0  0  0
    7.1150  -13.9776   25.0663 C   0  0  2  0  0  0  0  0  0  0  0  0
    6.1184  -15.0116   25.5520 C   0  0  0  0  0  0  0  0  0  0  0  0
    8.3141  -14.5838   24.4122 C   0  0  2  0  0  0  0  0  0  0  0  0
    8.0852  -15.2070   23.1495 N   0  0  0  0  0  0  0  0  0  0  0  0
    8.9632  -15.4981   25.3945 C   0  0  0  0  0  0  0  0  0  0  0  0
    8.7681  -16.7490   25.3659 O   0  0  0  0  0  0  0  0  0  0  0  0
   10.8200  -13.7201   30.3620 C   0  0  0  0  0  0  0  0  0  0  0  0
   10.1344  -14.3973   29.1977 C   0  0  0  0  0  0  0  0  0  0  0  0
   11.1617  -15.2074   28.4555 C   0  0  2  0  0  0  0  0  0  0  0  0
   12.1643  -14.2628   27.8364 C   0  0  0  0  0  0  0  0  0  0  0  0
   10.5152  -15.9636   27.2826 C   0  0  2  0  0  0  0  0  0  0  0  0
    9.8311  -15.0359   26.4123 N   0  0  0  0  0  0  0  0  0  0  0  0
    9.5062  -16.8566   27.8905 C   0  0  0  0  0  0  0  0  0  0  0  0
    9.7967  -17.8736   28.5707 O   0  0  0  0  0  0  0  0  0  0  0  0
    8.1670  -16.5685   27.7083 O   0  0  0  0  0  0  0  0  0  0  0  0
  2  1  1  6
  3  2  1  0
  4  3  1  0
  5  6  1  0
  5  4  1  0
  7  6  1  0
  8  2  1  0
  8  9  2  0
 11 10  1  1
 11 12  1  0
 13 14  1  6
 13 11  1  0
 14  8  1  0
 15 13  1  0
 16 15  2  0
 18 19  1  0
 18 17  1  0
 19 21  1  0
 19 20  1  6
 21 22  1  6
 22 15  1  0
 23 21  1  0
 23 25  1  0
 24 23  2  0
M  END
$$$$
