KVI.pdb
     RDKit          3D

 25 24  0  0  1  0  0  0  0  0999 V2000
   10.0760  -15.8128   19.8989 N   0  0  0  0  0  0  0  0  0  0  0  0
    9.0386  -16.2965   20.7895 C   0  0  1  0  0  0  0  0  0  0  0  0
    9.1948  -17.7423   20.9966 C   0  0  0  0  0  0  0  0  0  0  0  0
    8.2225  -18.7206   20.5266 C   0  0  0  0  0  0  0  0  0  0  0  0
    7.8113  -18.8806   19.1347 C   0  0  0  0  0  0  0  0  0  0  0  0
    6.7382  -19.8869   18.8921 C   0  0  0  0  0  0  0  0  0  0  0  0
    6.3234  -19.7802   17.4605 N   0  0  0  0  0  0  0  0  0  0  0  0
    9.2311  -15.6637   22.1601 C   0  0  0  0  0  0  0  0  0  0  0  0
   10.3765  -15.5301   22.6043 O   0  0  0  0  0  0  0  0  0  0  0  0
    7.2145  -12.9777   25.8449 C   0  0  0  0  0  0  0  0  0  0  0  0
    6.9838  -13.9866   24.7401 C   0  0  2  0  0  0  0  0  0  0  0  0
    5.9677  -15.0357   25.1467 C   0  0  0  0  0  0  0  0  0  0  0  0
    8.2533  -14.5752   24.2155 C   0  0  2  0  0  0  0  0  0  0  0  0
    8.1613  -15.2223   22.9474 N   0  0  0  0  0  0  0  0  0  0  0  0
    8.8233  -15.4597   25.2715 C   0  0  0  0  0  0  0  0  0  0  0  0
    8.8852  -16.7157   25.1225 O   0  0  0  0  0  0  0  0  0  0  0  0
   10.5508  -12.8374   29.6386 C   0  0  0  0  0  0  0  0  0  0  0  0
   10.9520  -13.7523   28.5046 C   0  0  0  0  0  0  0  0  0  0  0  0
   10.3066  -15.0918   28.7323 C   0  0  2  0  0  0  0  0  0  0  0  0
   11.2655  -15.9625   29.5088 C   0  0  0  0  0  0  0  0  0  0  0  0
   10.0678  -15.8154   27.3962 C   0  0  2  0  0  0  0  0  0  0  0  0
    9.3279  -14.9617   26.4963 N   0  0  0  0  0  0  0  0  0  0  0  0
    9.2251  -16.9856   27.7206 C   0  0  0  0  0  0  0  0  0  0  0  0
    7.9691  -16.9768   27.6601 O   0  0  0  0  0  0  0  0  0  0  0  0
    9.8396  -18.1595   28.1131 O   0  0  0  0  0  0  0  0  0  0  0  0
  2  1  1  6
  3  2  1  0
  4  3  1  0
  5  6  1  0
  5  4  1  0
  7  6  1  0
  8  2  1  0
  8  9  2  0
 11 10  1  1
 11 12  1  0
 13 14  1  6
 13 11  1  0
 14  8  1  0
 15 13  1  0
 16 15  2  0
 18 19  1  0
 18 17  1  0
 19 21  1  0
 19 20  1  1
 21 22  1  6
 22 15  1  0
 23 21  1  0
 23 25  1  0
 24 23  2  0
M  END
$$$$
