KVI.pdb
     RDKit          3D

 25 24  0  0  1  0  0  0  0  0999 V2000
    6.7550  -17.9157   19.1549 N   0  0  0  0  0  0  0  0  0  0  0  0
    7.8368  -18.0546   20.1108 C   0  0  1  0  0  0  0  0  0  0  0  0
    8.9476  -17.1690   19.7372 C   0  0  0  0  0  0  0  0  0  0  0  0
   10.1839  -17.0807   20.5034 C   0  0  0  0  0  0  0  0  0  0  0  0
   11.3093  -16.2130   20.1675 C   0  0  0  0  0  0  0  0  0  0  0  0
   12.3962  -16.1453   21.1859 C   0  0  0  0  0  0  0  0  0  0  0  0
   13.3876  -17.2183   20.8717 N   0  0  0  0  0  0  0  0  0  0  0  0
    7.3602  -17.5621   21.4696 C   0  0  0  0  0  0  0  0  0  0  0  0
    6.7031  -16.5175   21.5331 O   0  0  0  0  0  0  0  0  0  0  0  0
    6.5409  -18.5285   26.2955 C   0  0  0  0  0  0  0  0  0  0  0  0
    7.0864  -18.9838   24.9586 C   0  0  2  0  0  0  0  0  0  0  0  0
    8.3714  -19.7717   25.1202 C   0  0  0  0  0  0  0  0  0  0  0  0
    7.2041  -17.8704   23.9688 C   0  0  2  0  0  0  0  0  0  0  0  0
    7.6343  -18.2439   22.6609 N   0  0  0  0  0  0  0  0  0  0  0  0
    8.0556  -16.8052   24.5711 C   0  0  0  0  0  0  0  0  0  0  0  0
    9.3025  -16.7520   24.3560 O   0  0  0  0  0  0  0  0  0  0  0  0
    5.5535  -12.2546   26.2767 C   0  0  0  0  0  0  0  0  0  0  0  0
    6.6925  -12.9437   25.5612 C   0  0  0  0  0  0  0  0  0  0  0  0
    7.5322  -13.6513   26.5891 C   0  0  2  0  0  0  0  0  0  0  0  0
    8.5106  -12.6616   27.1757 C   0  0  0  0  0  0  0  0  0  0  0  0
    8.3860  -14.7492   25.9326 C   0  0  2  0  0  0  0  0  0  0  0  0
    7.5347  -15.7938   25.4128 N   0  0  0  0  0  0  0  0  0  0  0  0
    9.2072  -15.3210   27.0205 C   0  0  0  0  0  0  0  0  0  0  0  0
    8.8380  -16.2858   27.7376 O   0  0  0  0  0  0  0  0  0  0  0  0
   10.4507  -14.7737   27.2733 O   0  0  0  0  0  0  0  0  0  0  0  0
  2  1  1  6
  3  2  1  0
  4  3  1  0
  5  6  1  0
  5  4  1  0
  7  6  1  0
  8  2  1  0
  8  9  2  0
 11 10  1  1
 11 12  1  0
 13 14  1  6
 13 11  1  0
 14  8  1  0
 15 13  1  0
 16 15  2  0
 18 19  1  0
 18 17  1  0
 19 21  1  0
 19 20  1  6
 21 22  1  1
 22 15  1  0
 23 21  1  0
 23 25  1  0
 24 23  2  0
M  END
$$$$
