KVI.pdb
     RDKit          3D

 25 24  0  0  1  0  0  0  0  0999 V2000
    7.8198  -15.8735   20.7700 N   0  0  0  0  0  0  0  0  0  0  0  0
    7.0631  -15.9901   22.0017 C   0  0  1  0  0  0  0  0  0  0  0  0
    7.0044  -17.3974   22.4184 C   0  0  0  0  0  0  0  0  0  0  0  0
    6.8427  -18.4975   21.4767 C   0  0  0  0  0  0  0  0  0  0  0  0
    7.9172  -19.0595   20.6634 C   0  0  0  0  0  0  0  0  0  0  0  0
    7.5473  -20.2452   19.8385 C   0  0  0  0  0  0  0  0  0  0  0  0
    8.7725  -20.7018   19.1150 N   0  0  0  0  0  0  0  0  0  0  0  0
    7.8122  -15.2658   23.1109 C   0  0  0  0  0  0  0  0  0  0  0  0
    9.0335  -15.4242   23.2133 O   0  0  0  0  0  0  0  0  0  0  0  0
    7.7134  -11.9165   26.8414 C   0  0  0  0  0  0  0  0  0  0  0  0
    6.9536  -12.6968   25.7899 C   0  0  2  0  0  0  0  0  0  0  0  0
    5.6545  -13.2528   26.3389 C   0  0  0  0  0  0  0  0  0  0  0  0
    7.7931  -13.7322   25.1142 C   0  0  2  0  0  0  0  0  0  0  0  0
    7.1760  -14.4214   24.0282 N   0  0  0  0  0  0  0  0  0  0  0  0
    8.3147  -14.6580   26.1597 C   0  0  0  0  0  0  0  0  0  0  0  0
    7.6138  -15.6113   26.6111 O   0  0  0  0  0  0  0  0  0  0  0  0
   13.1667  -16.4040   25.3665 C   0  0  0  0  0  0  0  0  0  0  0  0
   11.7069  -16.3391   25.7519 C   0  0  0  0  0  0  0  0  0  0  0  0
   11.6184  -15.8542   27.1730 C   0  0  2  0  0  0  0  0  0  0  0  0
   12.0811  -16.9619   28.0894 C   0  0  0  0  0  0  0  0  0  0  0  0
   10.1576  -15.5689   27.5610 C   0  0  2  0  0  0  0  0  0  0  0  0
    9.6123  -14.5363   26.7111 N   0  0  0  0  0  0  0  0  0  0  0  0
   10.2055  -15.0510   28.9446 C   0  0  0  0  0  0  0  0  0  0  0  0
   10.1135  -13.8308   29.2345 O   0  0  0  0  0  0  0  0  0  0  0  0
   10.3597  -15.9471   29.9853 O   0  0  0  0  0  0  0  0  0  0  0  0
  2  1  1  6
  3  2  1  0
  4  3  1  0
  5  6  1  0
  5  4  1  0
  7  6  1  0
  8  2  1  0
  8  9  2  0
 11 10  1  1
 11 12  1  0
 13 14  1  6
 13 11  1  0
 14  8  1  0
 15 13  1  0
 16 15  2  0
 18 19  1  0
 18 17  1  0
 19 21  1  0
 19 20  1  1
 21 22  1  6
 22 15  1  0
 23 21  1  0
 23 25  1  0
 24 23  2  0
M  END
$$$$
