KVI.pdb
     RDKit          3D

 25 24  0  0  1  0  0  0  0  0999 V2000
   11.8313  -16.8846   18.9462 N   0  0  0  0  0  0  0  0  0  0  0  0
   11.4714  -17.3210   20.2816 C   0  0  1  0  0  0  0  0  0  0  0  0
   12.6866  -17.5609   21.0711 C   0  0  0  0  0  0  0  0  0  0  0  0
   13.3563  -18.8540   21.1234 C   0  0  0  0  0  0  0  0  0  0  0  0
   13.6249  -19.6980   19.9625 C   0  0  0  0  0  0  0  0  0  0  0  0
   14.4197  -20.9303   20.2327 C   0  0  0  0  0  0  0  0  0  0  0  0
   14.5047  -21.7101   18.9608 N   0  0  0  0  0  0  0  0  0  0  0  0
   10.7401  -16.1897   20.9897 C   0  0  0  0  0  0  0  0  0  0  0  0
   11.3744  -15.1855   21.3306 O   0  0  0  0  0  0  0  0  0  0  0  0
    6.3802  -16.3151   21.4760 C   0  0  0  0  0  0  0  0  0  0  0  0
    7.1970  -15.0509   21.3124 C   0  0  2  0  0  0  0  0  0  0  0  0
    7.1516  -14.5388   19.8862 C   0  0  0  0  0  0  0  0  0  0  0  0
    8.5883  -15.1848   21.8412 C   0  0  2  0  0  0  0  0  0  0  0  0
    9.3705  -16.2348   21.2748 N   0  0  0  0  0  0  0  0  0  0  0  0
    8.5116  -15.2638   23.3279 C   0  0  0  0  0  0  0  0  0  0  0  0
    8.9376  -16.2742   23.9614 O   0  0  0  0  0  0  0  0  0  0  0  0
    6.2699  -10.9510   26.1563 C   0  0  0  0  0  0  0  0  0  0  0  0
    7.3534  -11.9384   25.7889 C   0  0  0  0  0  0  0  0  0  0  0  0
    6.8522  -13.3219   26.1007 C   0  0  2  0  0  0  0  0  0  0  0  0
    6.8463  -13.5053   27.5997 C   0  0  0  0  0  0  0  0  0  0  0  0
    7.8154  -14.3869   25.5497 C   0  0  2  0  0  0  0  0  0  0  0  0
    7.9651  -14.2277   24.1220 N   0  0  0  0  0  0  0  0  0  0  0  0
    7.1604  -15.6875   25.8034 C   0  0  0  0  0  0  0  0  0  0  0  0
    6.1753  -16.1105   25.1460 O   0  0  0  0  0  0  0  0  0  0  0  0
    7.6482  -16.4917   26.8158 O   0  0  0  0  0  0  0  0  0  0  0  0
  2  1  1  6
  3  2  1  0
  4  3  1  0
  5  6  1  0
  5  4  1  0
  7  6  1  0
  8  2  1  0
  8  9  2  0
 11 10  1  6
 11 12  1  0
 13 14  1  6
 13 11  1  0
 14  8  1  0
 15 13  1  0
 16 15  2  0
 18 19  1  0
 18 17  1  0
 19 21  1  0
 19 20  1  1
 21 22  1  6
 22 15  1  0
 23 21  1  0
 23 25  1  0
 24 23  2  0
M  END
$$$$
