KVI.pdb
     RDKit          3D

 25 24  0  0  1  0  0  0  0  0999 V2000
    5.5595  -16.8470   20.2751 N   0  0  0  0  0  0  0  0  0  0  0  0
    6.6860  -16.2490   20.9653 C   0  0  1  0  0  0  0  0  0  0  0  0
    6.6323  -14.7871   20.8321 C   0  0  0  0  0  0  0  0  0  0  0  0
    7.0412  -14.0852   19.6224 C   0  0  0  0  0  0  0  0  0  0  0  0
    8.3206  -13.4029   19.4501 C   0  0  0  0  0  0  0  0  0  0  0  0
    8.4740  -12.6332   18.1824 C   0  0  0  0  0  0  0  0  0  0  0  0
    9.7246  -11.8218   18.2862 N   0  0  0  0  0  0  0  0  0  0  0  0
    6.5562  -16.5290   22.4556 C   0  0  0  0  0  0  0  0  0  0  0  0
    5.6450  -15.9880   23.0911 O   0  0  0  0  0  0  0  0  0  0  0  0
    6.5499  -19.9363   24.4451 C   0  0  0  0  0  0  0  0  0  0  0  0
    7.6287  -19.0219   24.9855 C   0  0  2  0  0  0  0  0  0  0  0  0
    7.7852  -19.1709   26.4861 C   0  0  0  0  0  0  0  0  0  0  0  0
    7.4572  -17.6015   24.5541 C   0  0  2  0  0  0  0  0  0  0  0  0
    7.4291  -17.3786   23.1452 N   0  0  0  0  0  0  0  0  0  0  0  0
    8.4924  -16.7808   25.2448 C   0  0  0  0  0  0  0  0  0  0  0  0
    9.6887  -16.7372   24.8316 O   0  0  0  0  0  0  0  0  0  0  0  0
    7.2235  -11.9713   26.9989 C   0  0  0  0  0  0  0  0  0  0  0  0
    8.1375  -13.0274   26.4217 C   0  0  0  0  0  0  0  0  0  0  0  0
    8.6272  -13.8917   27.5512 C   0  0  2  0  0  0  0  0  0  0  0  0
    9.7504  -13.1703   28.2573 C   0  0  0  0  0  0  0  0  0  0  0  0
    9.2372  -15.1970   27.0130 C   0  0  2  0  0  0  0  0  0  0  0  0
    8.2119  -16.0042   26.3940 N   0  0  0  0  0  0  0  0  0  0  0  0
    9.7421  -15.9208   28.1988 C   0  0  0  0  0  0  0  0  0  0  0  0
   10.9213  -15.8222   28.6242 O   0  0  0  0  0  0  0  0  0  0  0  0
    8.8805  -16.7546   28.8858 O   0  0  0  0  0  0  0  0  0  0  0  0
  2  1  1  6
  3  2  1  0
  4  3  1  0
  5  6  1  0
  5  4  1  0
  7  6  1  0
  8  2  1  0
  8  9  2  0
 11 10  1  1
 11 12  1  0
 13 14  1  6
 13 11  1  0
 14  8  1  0
 15 13  1  0
 16 15  2  0
 18 19  1  0
 18 17  1  0
 19 21  1  0
 19 20  1  6
 21 22  1  1
 22 15  1  0
 23 21  1  0
 23 25  1  0
 24 23  2  0
M  END
$$$$
