KVI.pdb
     RDKit          3D

 25 24  0  0  1  0  0  0  0  0999 V2000
    8.6941  -17.1538   19.5511 N   0  0  0  0  0  0  0  0  0  0  0  0
    9.6862  -17.4036   20.5790 C   0  0  1  0  0  0  0  0  0  0  0  0
   10.8464  -16.5262   20.3746 C   0  0  0  0  0  0  0  0  0  0  0  0
   12.1955  -17.0325   20.1582 C   0  0  0  0  0  0  0  0  0  0  0  0
   12.5297  -18.1674   19.3024 C   0  0  0  0  0  0  0  0  0  0  0  0
   13.9857  -18.4445   19.1402 C   0  0  0  0  0  0  0  0  0  0  0  0
   14.1288  -19.6771   18.3076 N   0  0  0  0  0  0  0  0  0  0  0  0
    9.1071  -17.0080   21.9296 C   0  0  0  0  0  0  0  0  0  0  0  0
    8.8433  -15.8202   22.1452 O   0  0  0  0  0  0  0  0  0  0  0  0
    6.8547  -18.3935   26.1525 C   0  0  0  0  0  0  0  0  0  0  0  0
    7.4816  -18.7723   24.8276 C   0  0  2  0  0  0  0  0  0  0  0  0
    8.2611  -20.0686   24.9303 C   0  0  0  0  0  0  0  0  0  0  0  0
    8.2740  -17.6605   24.2200 C   0  0  2  0  0  0  0  0  0  0  0  0
    8.8573  -17.9358   22.9475 N   0  0  0  0  0  0  0  0  0  0  0  0
    9.2766  -17.2053   25.2249 C   0  0  0  0  0  0  0  0  0  0  0  0
   10.4814  -17.5932   25.1826 O   0  0  0  0  0  0  0  0  0  0  0  0
    8.3921  -12.5193   27.8813 C   0  0  0  0  0  0  0  0  0  0  0  0
    9.2481  -13.5267   27.1488 C   0  0  0  0  0  0  0  0  0  0  0  0
    9.4544  -14.7116   28.0521 C   0  0  2  0  0  0  0  0  0  0  0  0
   10.5567  -14.3845   29.0312 C   0  0  0  0  0  0  0  0  0  0  0  0
    9.9495  -15.9275   27.2508 C   0  0  2  0  0  0  0  0  0  0  0  0
    8.9542  -16.3194   26.2804 N   0  0  0  0  0  0  0  0  0  0  0  0
   10.0929  -17.0222   28.2336 C   0  0  0  0  0  0  0  0  0  0  0  0
    9.1446  -17.7686   28.5872 O   0  0  0  0  0  0  0  0  0  0  0  0
   11.3321  -17.2477   28.8021 O   0  0  0  0  0  0  0  0  0  0  0  0
  2  1  1  6
  3  2  1  0
  4  3  1  0
  5  6  1  0
  5  4  1  0
  7  6  1  0
  8  2  1  0
  8  9  2  0
 11 10  1  1
 11 12  1  0
 13 14  1  6
 13 11  1  0
 14  8  1  0
 15 13  1  0
 16 15  2  0
 18 19  1  0
 18 17  1  0
 19 21  1  0
 19 20  1  1
 21 22  1  6
 22 15  1  0
 23 21  1  0
 23 25  1  0
 24 23  2  0
M  END
$$$$
