QIP.pdb
     RDKit          3D

 25 25  0  0  1  0  0  0  0  0999 V2000
   21.6341  -21.7686  -17.7736 N   0  0  0  0  0  0  0  0  0  0  0  0
   20.4253  -22.0536  -17.0664 C   0  0  0  0  0  0  0  0  0  0  0  0
   19.5795  -22.8433  -17.5264 O   0  0  0  0  0  0  0  0  0  0  0  0
   20.1819  -21.3995  -15.7731 C   0  0  0  0  0  0  0  0  0  0  0  0
   21.3529  -20.5257  -15.3966 C   0  0  0  0  0  0  0  0  0  0  0  0
   21.4459  -20.5039  -13.8907 C   0  0  2  0  0  0  0  0  0  0  0  0
   20.3823  -19.6619  -13.3939 N   0  0  0  0  0  0  0  0  0  0  0  0
   22.7877  -19.9821  -13.4789 C   0  0  0  0  0  0  0  0  0  0  0  0
   23.0397  -18.7666  -13.4451 O   0  0  0  0  0  0  0  0  0  0  0  0
   25.2712  -20.0533   -9.7049 C   0  0  0  0  0  0  0  0  0  0  0  0
   24.7115  -21.2706  -10.4552 C   0  0  0  0  0  0  0  0  0  0  0  0
   25.5192  -21.4395  -11.6715 C   0  0  2  0  0  0  0  0  0  0  0  0
   27.0127  -21.4758  -11.4076 C   0  0  0  0  0  0  0  0  0  0  0  0
   25.1822  -20.5064  -12.8367 C   0  0  2  0  0  0  0  0  0  0  0  0
   23.7707  -20.9152  -13.1260 N   0  0  0  0  0  0  0  0  0  0  0  0
   25.9263  -20.8141  -14.0671 C   0  0  0  0  0  0  0  0  0  0  0  0
   25.9193  -22.0402  -14.4843 O   0  0  0  0  0  0  0  0  0  0  0  0
   26.6627  -19.9090  -14.8704 N   0  0  0  0  0  0  0  0  0  0  0  0
   26.9165  -18.5224  -14.4191 C   0  0  0  0  0  0  0  0  0  0  0  0
   28.2172  -18.1731  -15.1103 C   0  0  0  0  0  0  0  0  0  0  0  0
   28.0029  -18.7833  -16.4554 C   0  0  0  0  0  0  0  0  0  0  0  0
   27.2992  -20.1152  -16.1370 C   0  0  1  0  0  0  0  0  0  0  0  0
   28.4092  -21.1063  -16.0568 C   0  0  0  0  0  0  0  0  0  0  0  0
   28.9703  -21.5069  -17.2767 O   0  0  0  0  0  0  0  0  0  0  0  0
   28.8717  -21.5990  -15.0240 O   0  0  0  0  0  0  0  0  0  0  0  0
  1  2  1  0
  2  4  1  0
  3  2  2  0
  4  5  1  0
  6  5  1  0
  6  7  1  1
  8  6  1  0
  8  9  2  0
 10 11  1  0
 12 11  1  0
 12 13  1  1
 14 15  1  6
 14 12  1  0
 15  8  1  0
 16 17  2  0
 16 14  1  0
 18 16  1  0
 19 20  1  0
 19 18  1  0
 21 20  1  0
 22 21  1  0
 22 18  1  0
 22 23  1  1
 24 23  1  0
 25 23  2  0
M  END
$$$$
