QIP.pdb
     RDKit          3D

 25 25  0  0  1  0  0  0  0  0999 V2000
   19.3616  -20.3693  -14.9627 N   0  0  0  0  0  0  0  0  0  0  0  0
   19.7391  -20.3046  -13.5858 C   0  0  0  0  0  0  0  0  0  0  0  0
   18.8824  -20.2465  -12.6839 O   0  0  0  0  0  0  0  0  0  0  0  0
   21.1660  -20.3069  -13.2344 C   0  0  0  0  0  0  0  0  0  0  0  0
   22.0130  -20.4604  -14.4735 C   0  0  0  0  0  0  0  0  0  0  0  0
   22.5529  -19.0982  -14.8341 C   0  0  2  0  0  0  0  0  0  0  0  0
   21.4546  -18.3062  -15.3376 N   0  0  0  0  0  0  0  0  0  0  0  0
   23.6327  -19.2429  -15.8614 C   0  0  0  0  0  0  0  0  0  0  0  0
   23.3785  -19.3837  -17.0688 O   0  0  0  0  0  0  0  0  0  0  0  0
   26.1551  -15.9650  -14.9846 C   0  0  0  0  0  0  0  0  0  0  0  0
   26.4580  -16.7380  -16.2764 C   0  0  0  0  0  0  0  0  0  0  0  0
   26.9415  -18.0688  -15.8823 C   0  0  2  0  0  0  0  0  0  0  0  0
   28.4208  -18.2791  -16.1452 C   0  0  0  0  0  0  0  0  0  0  0  0
   26.1138  -19.2577  -16.3758 C   0  0  2  0  0  0  0  0  0  0  0  0
   24.9616  -19.2150  -15.4200 N   0  0  0  0  0  0  0  0  0  0  0  0
   26.7571  -20.5582  -16.1371 C   0  0  0  0  0  0  0  0  0  0  0  0
   27.3003  -20.7576  -14.9784 O   0  0  0  0  0  0  0  0  0  0  0  0
   26.8524  -21.6443  -17.0416 N   0  0  0  0  0  0  0  0  0  0  0  0
   26.2262  -21.5775  -18.3810 C   0  0  0  0  0  0  0  0  0  0  0  0
   27.0996  -22.4947  -19.2102 C   0  0  0  0  0  0  0  0  0  0  0  0
   27.3365  -23.6136  -18.2513 C   0  0  0  0  0  0  0  0  0  0  0  0
   27.5370  -22.8951  -16.9044 C   0  0  1  0  0  0  0  0  0  0  0  0
   29.0133  -22.7223  -16.7971 C   0  0  0  0  0  0  0  0  0  0  0  0
   29.5252  -21.4918  -17.2300 O   0  0  0  0  0  0  0  0  0  0  0  0
   29.8142  -23.5566  -16.3662 O   0  0  0  0  0  0  0  0  0  0  0  0
  1  2  1  0
  2  4  1  0
  3  2  2  0
  4  5  1  0
  6  5  1  0
  6  7  1  6
  8  6  1  0
  8  9  2  0
 10 11  1  0
 12 11  1  0
 12 13  1  6
 14 15  1  1
 14 12  1  0
 15  8  1  0
 16 17  2  0
 16 14  1  0
 18 16  1  0
 19 20  1  0
 19 18  1  0
 21 20  1  0
 22 21  1  0
 22 18  1  0
 22 23  1  6
 24 23  1  0
 25 23  2  0
M  END
$$$$
