QIP.pdb
     RDKit          3D

 25 25  0  0  1  0  0  0  0  0999 V2000
   25.9755  -23.6931  -11.5624 N   0  0  0  0  0  0  0  0  0  0  0  0
   25.1053  -23.1065  -12.5324 C   0  0  0  0  0  0  0  0  0  0  0  0
   24.3103  -23.8031  -13.1911 O   0  0  0  0  0  0  0  0  0  0  0  0
   25.1541  -21.6543  -12.7521 C   0  0  0  0  0  0  0  0  0  0  0  0
   26.2102  -21.0250  -11.8776 C   0  0  0  0  0  0  0  0  0  0  0  0
   25.5414  -20.5665  -10.6051 C   0  0  2  0  0  0  0  0  0  0  0  0
   24.4583  -19.6821  -10.9685 N   0  0  0  0  0  0  0  0  0  0  0  0
   26.5420  -19.8695   -9.7360 C   0  0  0  0  0  0  0  0  0  0  0  0
   27.3503  -19.0450  -10.1929 O   0  0  0  0  0  0  0  0  0  0  0  0
   27.9644  -17.9099   -4.5825 C   0  0  0  0  0  0  0  0  0  0  0  0
   27.3762  -17.6053   -5.9678 C   0  0  0  0  0  0  0  0  0  0  0  0
   26.7659  -18.8475   -6.4627 C   0  0  2  0  0  0  0  0  0  0  0  0
   26.1970  -19.7238   -5.3627 C   0  0  0  0  0  0  0  0  0  0  0  0
   27.6073  -19.6641   -7.4461 C   0  0  2  0  0  0  0  0  0  0  0  0
   26.5446  -20.1755   -8.3692 N   0  0  0  0  0  0  0  0  0  0  0  0
   28.2022  -20.8684   -6.8478 C   0  0  0  0  0  0  0  0  0  0  0  0
   27.4038  -21.8318   -6.5132 O   0  0  0  0  0  0  0  0  0  0  0  0
   29.5748  -21.1076   -6.5918 N   0  0  0  0  0  0  0  0  0  0  0  0
   30.6087  -20.1341   -7.0089 C   0  0  0  0  0  0  0  0  0  0  0  0
   31.7139  -20.3589   -5.9992 C   0  0  0  0  0  0  0  0  0  0  0  0
   31.7031  -21.8470   -5.8851 C   0  0  0  0  0  0  0  0  0  0  0  0
   30.2040  -22.1975   -5.9075 C   0  0  1  0  0  0  0  0  0  0  0  0
   29.8201  -22.2585   -4.4689 C   0  0  0  0  0  0  0  0  0  0  0  0
   30.1096  -23.4561   -3.8015 O   0  0  0  0  0  0  0  0  0  0  0  0
   29.2767  -21.3587   -3.8220 O   0  0  0  0  0  0  0  0  0  0  0  0
  1  2  1  0
  2  4  1  0
  3  2  2  0
  4  5  1  0
  6  5  1  0
  6  7  1  6
  8  6  1  0
  8  9  2  0
 10 11  1  0
 12 11  1  0
 12 13  1  1
 14 15  1  6
 14 12  1  0
 15  8  1  0
 16 17  2  0
 16 14  1  0
 18 16  1  0
 19 20  1  0
 19 18  1  0
 21 20  1  0
 22 21  1  0
 22 18  1  0
 22 23  1  1
 24 23  1  0
 25 23  2  0
M  END
$$$$
