QIP.pdb
     RDKit          3D

 25 25  0  0  1  0  0  0  0  0999 V2000
   17.5871  -12.7627  -19.5570 N   0  0  0  0  0  0  0  0  0  0  0  0
   18.4845  -13.7193  -20.1244 C   0  0  0  0  0  0  0  0  0  0  0  0
   18.1872  -14.3503  -21.1560 O   0  0  0  0  0  0  0  0  0  0  0  0
   19.7804  -13.9582  -19.4740 C   0  0  0  0  0  0  0  0  0  0  0  0
   19.8916  -13.1451  -18.2079 C   0  0  0  0  0  0  0  0  0  0  0  0
   21.2064  -13.4902  -17.5528 C   0  0  2  0  0  0  0  0  0  0  0  0
   21.1111  -14.8432  -17.0552 N   0  0  0  0  0  0  0  0  0  0  0  0
   21.4829  -12.5229  -16.4437 C   0  0  0  0  0  0  0  0  0  0  0  0
   20.7093  -12.3845  -15.4822 O   0  0  0  0  0  0  0  0  0  0  0  0
   26.7975  -10.3553  -15.8169 C   0  0  0  0  0  0  0  0  0  0  0  0
   25.3550  -10.2924  -16.3398 C   0  0  0  0  0  0  0  0  0  0  0  0
   24.5023  -10.9519  -15.3407 C   0  0  2  0  0  0  0  0  0  0  0  0
   24.8248  -12.4211  -15.1430 C   0  0  0  0  0  0  0  0  0  0  0  0
   22.9958  -10.7277  -15.4901 C   0  0  2  0  0  0  0  0  0  0  0  0
   22.6573  -11.7633  -16.5177 N   0  0  0  0  0  0  0  0  0  0  0  0
   22.6548   -9.4431  -16.1191 C   0  0  0  0  0  0  0  0  0  0  0  0
   23.1729   -9.1834  -17.2773 O   0  0  0  0  0  0  0  0  0  0  0  0
   21.8053   -8.4353  -15.5998 N   0  0  0  0  0  0  0  0  0  0  0  0
   21.1344   -8.6039  -14.2913 C   0  0  0  0  0  0  0  0  0  0  0  0
   20.9662   -7.1786  -13.8099 C   0  0  0  0  0  0  0  0  0  0  0  0
   20.5733   -6.4905  -15.0747 C   0  0  0  0  0  0  0  0  0  0  0  0
   21.4741   -7.1488  -16.1358 C   0  0  1  0  0  0  0  0  0  0  0  0
   22.6595   -6.2495  -16.2195 C   0  0  0  0  0  0  0  0  0  0  0  0
   22.4831   -5.0585  -16.9364 O   0  0  0  0  0  0  0  0  0  0  0  0
   23.7683   -6.4588  -15.7195 O   0  0  0  0  0  0  0  0  0  0  0  0
  1  2  1  0
  2  4  1  0
  3  2  2  0
  4  5  1  0
  6  5  1  0
  6  7  1  1
  8  6  1  0
  8  9  2  0
 10 11  1  0
 12 11  1  0
 12 13  1  6
 14 15  1  6
 14 12  1  0
 15  8  1  0
 16 17  2  0
 16 14  1  0
 18 16  1  0
 19 20  1  0
 19 18  1  0
 21 20  1  0
 22 21  1  0
 22 18  1  0
 22 23  1  1
 24 23  1  0
 25 23  2  0
M  END
$$$$
