QIP.pdb
     RDKit          3D

 25 25  0  0  1  0  0  0  0  0999 V2000
   15.3328  -13.0115  -13.0487 N   0  0  0  0  0  0  0  0  0  0  0  0
   14.8504  -13.3564  -11.7483 C   0  0  0  0  0  0  0  0  0  0  0  0
   14.7292  -14.5458  -11.3996 O   0  0  0  0  0  0  0  0  0  0  0  0
   14.4926  -12.2835  -10.8101 C   0  0  0  0  0  0  0  0  0  0  0  0
   14.7713  -10.9335  -11.4233 C   0  0  0  0  0  0  0  0  0  0  0  0
   14.4542   -9.8828  -10.3878 C   0  0  2  0  0  0  0  0  0  0  0  0
   13.0358   -9.9403  -10.1192 N   0  0  0  0  0  0  0  0  0  0  0  0
   14.8542   -8.5347  -10.9027 C   0  0  0  0  0  0  0  0  0  0  0  0
   14.0854   -7.8339  -11.5807 O   0  0  0  0  0  0  0  0  0  0  0  0
   16.1556   -3.6997  -10.7648 C   0  0  0  0  0  0  0  0  0  0  0  0
   17.0287   -4.5512   -9.8316 C   0  0  0  0  0  0  0  0  0  0  0  0
   16.4455   -5.9001   -9.8030 C   0  0  2  0  0  0  0  0  0  0  0  0
   16.7996   -6.6876   -8.5556 C   0  0  0  0  0  0  0  0  0  0  0  0
   16.6376   -6.7421  -11.0664 C   0  0  2  0  0  0  0  0  0  0  0  0
   16.1408   -8.0742  -10.5955 N   0  0  0  0  0  0  0  0  0  0  0  0
   18.0493   -6.9642  -11.4126 C   0  0  0  0  0  0  0  0  0  0  0  0
   18.8829   -7.1656  -10.4421 O   0  0  0  0  0  0  0  0  0  0  0  0
   18.6182   -6.9889  -12.7097 N   0  0  0  0  0  0  0  0  0  0  0  0
   17.7683   -6.8821  -13.9167 C   0  0  0  0  0  0  0  0  0  0  0  0
   18.6973   -6.2507  -14.9315 C   0  0  0  0  0  0  0  0  0  0  0  0
   19.9723   -6.9714  -14.6442 C   0  0  0  0  0  0  0  0  0  0  0  0
   19.9922   -7.0661  -13.1075 C   0  0  1  0  0  0  0  0  0  0  0  0
   20.7731   -5.8723  -12.6766 C   0  0  0  0  0  0  0  0  0  0  0  0
   22.1673   -5.9788  -12.7681 O   0  0  0  0  0  0  0  0  0  0  0  0
   20.3060   -4.8118  -12.2517 O   0  0  0  0  0  0  0  0  0  0  0  0
  1  2  1  0
  2  4  1  0
  3  2  2  0
  4  5  1  0
  6  5  1  0
  6  7  1  6
  8  6  1  0
  8  9  2  0
 10 11  1  0
 12 11  1  0
 12 13  1  1
 14 15  1  1
 14 12  1  0
 15  8  1  0
 16 17  2  0
 16 14  1  0
 18 16  1  0
 19 20  1  0
 19 18  1  0
 21 20  1  0
 22 21  1  0
 22 18  1  0
 22 23  1  1
 24 23  1  0
 25 23  2  0
M  END
$$$$
