QIP.pdb
     RDKit          3D

 25 25  0  0  1  0  0  0  0  0999 V2000
   13.7367  -29.2864  -12.2423 N   0  0  0  0  0  0  0  0  0  0  0  0
   13.0829  -29.3651  -10.9739 C   0  0  0  0  0  0  0  0  0  0  0  0
   12.3208  -30.3107  -10.6984 O   0  0  0  0  0  0  0  0  0  0  0  0
   13.3182  -28.3076   -9.9809 C   0  0  0  0  0  0  0  0  0  0  0  0
   14.2466  -28.7996   -8.8982 C   0  0  0  0  0  0  0  0  0  0  0  0
   15.6327  -28.2944   -9.2154 C   0  0  2  0  0  0  0  0  0  0  0  0
   16.1958  -29.1551  -10.2300 N   0  0  0  0  0  0  0  0  0  0  0  0
   16.4667  -28.3049   -7.9718 C   0  0  0  0  0  0  0  0  0  0  0  0
   17.2090  -29.2581   -7.6844 O   0  0  0  0  0  0  0  0  0  0  0  0
   19.2926  -24.1366   -7.5510 C   0  0  0  0  0  0  0  0  0  0  0  0
   18.8148  -25.5904   -7.4243 C   0  0  0  0  0  0  0  0  0  0  0  0
   17.9156  -25.6519   -6.2633 C   0  0  2  0  0  0  0  0  0  0  0  0
   18.4917  -25.0099   -5.0152 C   0  0  0  0  0  0  0  0  0  0  0  0
   17.3090  -27.0227   -5.9550 C   0  0  2  0  0  0  0  0  0  0  0  0
   16.3884  -27.1928   -7.1240 N   0  0  0  0  0  0  0  0  0  0  0  0
   16.4299  -27.0220   -4.7763 C   0  0  0  0  0  0  0  0  0  0  0  0
   15.5676  -26.0617   -4.6688 O   0  0  0  0  0  0  0  0  0  0  0  0
   16.4103  -27.9694   -3.7233 N   0  0  0  0  0  0  0  0  0  0  0  0
   17.2745  -29.1704   -3.7627 C   0  0  0  0  0  0  0  0  0  0  0  0
   17.4970  -29.4768   -2.2970 C   0  0  0  0  0  0  0  0  0  0  0  0
   16.1377  -29.2181   -1.7378 C   0  0  0  0  0  0  0  0  0  0  0  0
   15.6708  -27.9624   -2.4965 C   0  0  1  0  0  0  0  0  0  0  0  0
   16.0608  -26.8311   -1.6083 C   0  0  0  0  0  0  0  0  0  0  0  0
   15.2596  -26.6282   -0.4768 O   0  0  0  0  0  0  0  0  0  0  0  0
   17.0150  -26.0672   -1.7794 O   0  0  0  0  0  0  0  0  0  0  0  0
  1  2  1  0
  2  4  1  0
  3  2  2  0
  4  5  1  0
  6  5  1  0
  6  7  1  6
  8  6  1  0
  8  9  2  0
 10 11  1  0
 12 11  1  0
 12 13  1  1
 14 15  1  6
 14 12  1  0
 15  8  1  0
 16 17  2  0
 16 14  1  0
 18 16  1  0
 19 20  1  0
 19 18  1  0
 21 20  1  0
 22 21  1  0
 22 18  1  0
 22 23  1  1
 24 23  1  0
 25 23  2  0
M  END
$$$$
