QIP.pdb
     RDKit          3D

 25 25  0  0  1  0  0  0  0  0999 V2000
   21.0564  -20.2544  -14.8210 N   0  0  0  0  0  0  0  0  0  0  0  0
   20.5470  -20.7154  -16.0742 C   0  0  0  0  0  0  0  0  0  0  0  0
   20.0068  -21.8325  -16.1795 O   0  0  0  0  0  0  0  0  0  0  0  0
   20.6658  -19.8507  -17.2565 C   0  0  0  0  0  0  0  0  0  0  0  0
   21.2581  -18.5165  -16.8753 C   0  0  0  0  0  0  0  0  0  0  0  0
   22.5130  -18.3200  -17.6899 C   0  0  2  0  0  0  0  0  0  0  0  0
   22.3280  -18.9908  -18.9561 N   0  0  0  0  0  0  0  0  0  0  0  0
   23.6861  -18.8796  -16.9463 C   0  0  0  0  0  0  0  0  0  0  0  0
   24.2111  -19.9600  -17.2611 O   0  0  0  0  0  0  0  0  0  0  0  0
   27.0137  -15.1037  -15.5700 C   0  0  0  0  0  0  0  0  0  0  0  0
   26.6107  -16.5136  -16.0259 C   0  0  0  0  0  0  0  0  0  0  0  0
   26.0712  -17.2118  -14.8504 C   0  0  2  0  0  0  0  0  0  0  0  0
   27.0471  -17.2917  -13.6915 C   0  0  0  0  0  0  0  0  0  0  0  0
   25.4121  -18.5669  -15.1176 C   0  0  2  0  0  0  0  0  0  0  0  0
   24.1868  -18.1415  -15.8664 N   0  0  0  0  0  0  0  0  0  0  0  0
   24.9060  -19.2215  -13.9021 C   0  0  0  0  0  0  0  0  0  0  0  0
   24.1006  -18.5462  -13.1453 O   0  0  0  0  0  0  0  0  0  0  0  0
   25.1974  -20.5328  -13.4523 N   0  0  0  0  0  0  0  0  0  0  0  0
   26.0125  -21.4563  -14.2728 C   0  0  0  0  0  0  0  0  0  0  0  0
   26.6562  -22.3529  -13.2368 C   0  0  0  0  0  0  0  0  0  0  0  0
   25.5212  -22.5630  -12.2907 C   0  0  0  0  0  0  0  0  0  0  0  0
   24.8512  -21.1785  -12.2213 C   0  0  1  0  0  0  0  0  0  0  0  0
   25.4845  -20.5234  -11.0421 C   0  0  0  0  0  0  0  0  0  0  0  0
   24.9735  -20.8806   -9.7873 O   0  0  0  0  0  0  0  0  0  0  0  0
   26.4075  -19.7045  -11.0732 O   0  0  0  0  0  0  0  0  0  0  0  0
  1  2  1  0
  2  4  1  0
  3  2  2  0
  4  5  1  0
  6  5  1  0
  6  7  1  6
  8  6  1  0
  8  9  2  0
 10 11  1  0
 12 11  1  0
 12 13  1  1
 14 15  1  6
 14 12  1  0
 15  8  1  0
 16 17  2  0
 16 14  1  0
 18 16  1  0
 19 20  1  0
 19 18  1  0
 21 20  1  0
 22 21  1  0
 22 18  1  0
 22 23  1  1
 24 23  1  0
 25 23  2  0
M  END
$$$$
