QIP.pdb
     RDKit          3D

 25 25  0  0  1  0  0  0  0  0999 V2000
   16.4217   -9.2306  -19.1435 N   0  0  0  0  0  0  0  0  0  0  0  0
   15.8724  -10.3760  -18.4887 C   0  0  0  0  0  0  0  0  0  0  0  0
   14.7683  -10.8438  -18.8249 O   0  0  0  0  0  0  0  0  0  0  0  0
   16.6292  -11.0089  -17.3996 C   0  0  0  0  0  0  0  0  0  0  0  0
   17.8826  -10.2230  -17.1037 C   0  0  0  0  0  0  0  0  0  0  0  0
   18.9505  -11.2013  -16.6801 C   0  0  2  0  0  0  0  0  0  0  0  0
   18.3100  -12.2597  -15.9339 N   0  0  0  0  0  0  0  0  0  0  0  0
   19.9757  -10.4950  -15.8480 C   0  0  0  0  0  0  0  0  0  0  0  0
   19.8463  -10.3566  -14.6207 O   0  0  0  0  0  0  0  0  0  0  0  0
   24.1862  -11.6642  -15.0043 C   0  0  0  0  0  0  0  0  0  0  0  0
   23.6188  -11.3594  -16.3982 C   0  0  0  0  0  0  0  0  0  0  0  0
   23.4382   -9.9032  -16.4842 C   0  0  2  0  0  0  0  0  0  0  0  0
   24.6963   -9.1164  -16.1686 C   0  0  0  0  0  0  0  0  0  0  0  0
   22.2247   -9.3320  -15.7472 C   0  0  2  0  0  0  0  0  0  0  0  0
   21.1057   -9.9844  -16.4991 N   0  0  0  0  0  0  0  0  0  0  0  0
   22.0356   -7.8896  -15.9611 C   0  0  0  0  0  0  0  0  0  0  0  0
   22.1451   -7.4408  -17.1711 O   0  0  0  0  0  0  0  0  0  0  0  0
   21.7375   -6.9114  -14.9808 N   0  0  0  0  0  0  0  0  0  0  0  0
   21.5788   -7.2831  -13.5570 C   0  0  0  0  0  0  0  0  0  0  0  0
   21.9840   -6.0193  -12.8289 C   0  0  0  0  0  0  0  0  0  0  0  0
   21.3488   -4.9754  -13.6859 C   0  0  0  0  0  0  0  0  0  0  0  0
   21.5849   -5.4935  -15.1164 C   0  0  1  0  0  0  0  0  0  0  0  0
   22.8478   -4.8277  -15.5438 C   0  0  0  0  0  0  0  0  0  0  0  0
   22.7324   -3.4982  -15.9712 O   0  0  0  0  0  0  0  0  0  0  0  0
   23.9718   -5.3376  -15.5543 O   0  0  0  0  0  0  0  0  0  0  0  0
  1  2  1  0
  2  4  1  0
  3  2  2  0
  4  5  1  0
  6  5  1  0
  6  7  1  1
  8  6  1  0
  8  9  2  0
 10 11  1  0
 12 11  1  0
 12 13  1  1
 14 15  1  6
 14 12  1  0
 15  8  1  0
 16 17  2  0
 16 14  1  0
 18 16  1  0
 19 20  1  0
 19 18  1  0
 21 20  1  0
 22 21  1  0
 22 18  1  0
 22 23  1  1
 24 23  1  0
 25 23  2  0
M  END
$$$$
