QIP.pdb
     RDKit          3D

 25 25  0  0  1  0  0  0  0  0999 V2000
   19.9570  -22.8929  -16.8156 N   0  0  0  0  0  0  0  0  0  0  0  0
   19.4186  -21.6400  -16.3876 C   0  0  0  0  0  0  0  0  0  0  0  0
   18.5242  -21.0665  -17.0372 O   0  0  0  0  0  0  0  0  0  0  0  0
   19.9341  -21.0224  -15.1579 C   0  0  0  0  0  0  0  0  0  0  0  0
   21.1052  -21.8100  -14.6243 C   0  0  0  0  0  0  0  0  0  0  0  0
   21.3394  -21.3778  -13.1977 C   0  0  2  0  0  0  0  0  0  0  0  0
   20.1489  -20.6993  -12.7399 N   0  0  0  0  0  0  0  0  0  0  0  0
   22.5341  -20.4770  -13.1366 C   0  0  0  0  0  0  0  0  0  0  0  0
   22.4249  -19.2423  -13.0612 O   0  0  0  0  0  0  0  0  0  0  0  0
   27.5501  -21.2875  -10.2987 C   0  0  0  0  0  0  0  0  0  0  0  0
   27.0037  -20.3797  -11.4102 C   0  0  0  0  0  0  0  0  0  0  0  0
   25.7536  -20.9857  -11.8899 C   0  0  2  0  0  0  0  0  0  0  0  0
   25.8645  -22.4752  -12.1559 C   0  0  0  0  0  0  0  0  0  0  0  0
   25.0574  -20.2640  -13.0460 C   0  0  2  0  0  0  0  0  0  0  0  0
   23.8019  -21.0715  -13.1671 N   0  0  0  0  0  0  0  0  0  0  0  0
   25.7418  -20.4304  -14.3368 C   0  0  0  0  0  0  0  0  0  0  0  0
   25.7954  -21.6223  -14.8406 O   0  0  0  0  0  0  0  0  0  0  0  0
   26.3594  -19.4198  -15.1140 N   0  0  0  0  0  0  0  0  0  0  0  0
   26.5255  -18.0471  -14.5860 C   0  0  0  0  0  0  0  0  0  0  0  0
   27.7551  -17.5493  -15.3152 C   0  0  0  0  0  0  0  0  0  0  0  0
   27.5185  -18.0919  -16.6853 C   0  0  0  0  0  0  0  0  0  0  0  0
   26.9415  -19.4946  -16.4208 C   0  0  1  0  0  0  0  0  0  0  0  0
   28.1298  -20.3932  -16.4593 C   0  0  0  0  0  0  0  0  0  0  0  0
   28.6690  -20.6518  -17.7265 O   0  0  0  0  0  0  0  0  0  0  0  0
   28.6736  -20.9226  -15.4860 O   0  0  0  0  0  0  0  0  0  0  0  0
  1  2  1  0
  2  4  1  0
  3  2  2  0
  4  5  1  0
  6  5  1  0
  6  7  1  6
  8  6  1  0
  8  9  2  0
 10 11  1  0
 12 11  1  0
 12 13  1  6
 14 15  1  6
 14 12  1  0
 15  8  1  0
 16 17  2  0
 16 14  1  0
 18 16  1  0
 19 20  1  0
 19 18  1  0
 21 20  1  0
 22 21  1  0
 22 18  1  0
 22 23  1  1
 24 23  1  0
 25 23  2  0
M  END
$$$$
