QIP.pdb
     RDKit          3D

 25 25  0  0  1  0  0  0  0  0999 V2000
   17.3522  -27.5617   -9.7112 N   0  0  0  0  0  0  0  0  0  0  0  0
   17.9294  -27.8628   -8.4388 C   0  0  0  0  0  0  0  0  0  0  0  0
   18.0156  -29.0362   -8.0308 O   0  0  0  0  0  0  0  0  0  0  0  0
   18.4284  -26.7631   -7.6014 C   0  0  0  0  0  0  0  0  0  0  0  0
   18.2335  -25.4398   -8.2993 C   0  0  0  0  0  0  0  0  0  0  0  0
   18.8863  -24.3731   -7.4550 C   0  0  2  0  0  0  0  0  0  0  0  0
   18.1340  -24.2590   -6.2270 N   0  0  0  0  0  0  0  0  0  0  0  0
   18.8987  -23.0775   -8.2056 C   0  0  0  0  0  0  0  0  0  0  0  0
   18.0120  -22.2210   -8.0560 O   0  0  0  0  0  0  0  0  0  0  0  0
   23.5553  -20.9144   -8.3259 C   0  0  0  0  0  0  0  0  0  0  0  0
   22.0262  -21.0504   -8.2899 C   0  0  0  0  0  0  0  0  0  0  0  0
   21.5780  -21.2747   -9.6716 C   0  0  2  0  0  0  0  0  0  0  0  0
   22.0579  -20.2142  -10.6446 C   0  0  0  0  0  0  0  0  0  0  0  0
   20.0867  -21.5650   -9.8555 C   0  0  2  0  0  0  0  0  0  0  0  0
   19.9543  -22.8500   -9.0977 N   0  0  0  0  0  0  0  0  0  0  0  0
   19.7222  -21.9014  -11.2398 C   0  0  0  0  0  0  0  0  0  0  0  0
   20.5865  -22.5564  -11.9478 O   0  0  0  0  0  0  0  0  0  0  0  0
   18.5104  -21.5912  -11.9046 N   0  0  0  0  0  0  0  0  0  0  0  0
   17.4492  -20.8107  -11.2298 C   0  0  0  0  0  0  0  0  0  0  0  0
   16.7477  -20.1241  -12.3822 C   0  0  0  0  0  0  0  0  0  0  0  0
   16.7183  -21.2187  -13.3964 C   0  0  0  0  0  0  0  0  0  0  0  0
   18.0977  -21.8856  -13.2444 C   0  0  1  0  0  0  0  0  0  0  0  0
   18.9486  -21.2038  -14.2603 C   0  0  0  0  0  0  0  0  0  0  0  0
   18.7180  -21.5554  -15.5970 O   0  0  0  0  0  0  0  0  0  0  0  0
   19.8270  -20.3677  -14.0309 O   0  0  0  0  0  0  0  0  0  0  0  0
  1  2  1  0
  2  4  1  0
  3  2  2  0
  4  5  1  0
  6  5  1  0
  6  7  1  1
  8  6  1  0
  8  9  2  0
 10 11  1  0
 12 11  1  0
 12 13  1  6
 14 15  1  1
 14 12  1  0
 15  8  1  0
 16 17  2  0
 16 14  1  0
 18 16  1  0
 19 20  1  0
 19 18  1  0
 21 20  1  0
 22 21  1  0
 22 18  1  0
 22 23  1  6
 24 23  1  0
 25 23  2  0
M  END
$$$$
