QIP.pdb
     RDKit          3D

 25 25  0  0  1  0  0  0  0  0999 V2000
   20.5719  -17.6504  -17.5992 N   0  0  0  0  0  0  0  0  0  0  0  0
   19.2812  -17.0620  -17.4248 C   0  0  0  0  0  0  0  0  0  0  0  0
   18.3164  -17.4004  -18.1357 O   0  0  0  0  0  0  0  0  0  0  0  0
   19.0956  -16.0394  -16.3858 C   0  0  0  0  0  0  0  0  0  0  0  0
   19.1032  -14.6602  -16.9975 C   0  0  0  0  0  0  0  0  0  0  0  0
   17.9328  -13.8972  -16.4277 C   0  0  2  0  0  0  0  0  0  0  0  0
   16.7225  -14.4903  -16.9479 N   0  0  0  0  0  0  0  0  0  0  0  0
   18.0389  -12.4544  -16.8143 C   0  0  0  0  0  0  0  0  0  0  0  0
   18.2828  -12.1009  -17.9795 O   0  0  0  0  0  0  0  0  0  0  0  0
   15.6807   -7.8532  -16.8637 C   0  0  0  0  0  0  0  0  0  0  0  0
   16.2365   -8.1638  -15.4664 C   0  0  0  0  0  0  0  0  0  0  0  0
   16.5427   -9.6010  -15.4309 C   0  0  2  0  0  0  0  0  0  0  0  0
   16.4160  -10.2142  -14.0491 C   0  0  0  0  0  0  0  0  0  0  0  0
   17.8451  -10.0274  -16.1121 C   0  0  2  0  0  0  0  0  0  0  0  0
   17.8531  -11.4946  -15.8114 N   0  0  0  0  0  0  0  0  0  0  0  0
   19.0496   -9.4986  -15.4551 C   0  0  0  0  0  0  0  0  0  0  0  0
   19.1528   -9.6520  -14.1733 O   0  0  0  0  0  0  0  0  0  0  0  0
   20.1364   -8.8305  -16.0710 N   0  0  0  0  0  0  0  0  0  0  0  0
   20.2126   -8.6958  -17.5430 C   0  0  0  0  0  0  0  0  0  0  0  0
   21.0080   -7.4210  -17.7265 C   0  0  0  0  0  0  0  0  0  0  0  0
   22.0438   -7.5705  -16.6625 C   0  0  0  0  0  0  0  0  0  0  0  0
   21.2590   -8.1660  -15.4792 C   0  0  1  0  0  0  0  0  0  0  0  0
   20.8532   -6.9795  -14.6740 C   0  0  0  0  0  0  0  0  0  0  0  0
   21.8245   -6.4566  -13.8099 O   0  0  0  0  0  0  0  0  0  0  0  0
   19.7513   -6.4242  -14.7010 O   0  0  0  0  0  0  0  0  0  0  0  0
  1  2  1  0
  2  4  1  0
  3  2  2  0
  4  5  1  0
  6  5  1  0
  6  7  1  6
  8  6  1  0
  8  9  2  0
 10 11  1  0
 12 11  1  0
 12 13  1  1
 14 15  1  1
 14 12  1  0
 15  8  1  0
 16 17  2  0
 16 14  1  0
 18 16  1  0
 19 20  1  0
 19 18  1  0
 21 20  1  0
 22 21  1  0
 22 18  1  0
 22 23  1  1
 24 23  1  0
 25 23  2  0
M  END
$$$$
