QIP.pdb
     RDKit          3D

 25 25  0  0  1  0  0  0  0  0999 V2000
   18.3366  -20.3755  -14.4741 N   0  0  0  0  0  0  0  0  0  0  0  0
   18.5788  -21.6498  -15.0740 C   0  0  0  0  0  0  0  0  0  0  0  0
   17.6401  -22.4141  -15.3665 O   0  0  0  0  0  0  0  0  0  0  0  0
   19.9630  -22.0600  -15.3484 C   0  0  0  0  0  0  0  0  0  0  0  0
   20.9131  -20.9193  -15.0790 C   0  0  0  0  0  0  0  0  0  0  0  0
   21.4193  -21.0655  -13.6651 C   0  0  2  0  0  0  0  0  0  0  0  0
   20.4158  -20.5242  -12.7778 N   0  0  0  0  0  0  0  0  0  0  0  0
   22.7200  -20.3378  -13.5206 C   0  0  0  0  0  0  0  0  0  0  0  0
   22.8118  -19.1117  -13.6945 O   0  0  0  0  0  0  0  0  0  0  0  0
   25.2814  -21.2456   -9.1627 C   0  0  0  0  0  0  0  0  0  0  0  0
   24.7620  -20.5267  -10.4162 C   0  0  0  0  0  0  0  0  0  0  0  0
   25.5332  -21.0361  -11.5592 C   0  0  2  0  0  0  0  0  0  0  0  0
   27.0325  -21.0361  -11.3276 C   0  0  0  0  0  0  0  0  0  0  0  0
   25.1808  -20.4431  -12.9252 C   0  0  2  0  0  0  0  0  0  0  0  0
   23.8526  -21.0873  -13.1780 N   0  0  0  0  0  0  0  0  0  0  0  0
   26.0478  -20.9215  -14.0123 C   0  0  0  0  0  0  0  0  0  0  0  0
   26.2121  -22.2005  -14.1327 O   0  0  0  0  0  0  0  0  0  0  0  0
   26.7365  -20.1335  -14.9669 N   0  0  0  0  0  0  0  0  0  0  0  0
   26.8086  -18.6615  -14.8304 C   0  0  0  0  0  0  0  0  0  0  0  0
   28.1088  -18.3192  -15.5260 C   0  0  0  0  0  0  0  0  0  0  0  0
   28.0543  -19.2311  -16.7062 C   0  0  0  0  0  0  0  0  0  0  0  0
   27.4771  -20.5351  -16.1255 C   0  0  1  0  0  0  0  0  0  0  0  0
   28.6787  -21.3441  -15.7754 C   0  0  0  0  0  0  0  0  0  0  0  0
   29.3510  -21.9485  -16.8460 O   0  0  0  0  0  0  0  0  0  0  0  0
   29.1279  -21.5261  -14.6403 O   0  0  0  0  0  0  0  0  0  0  0  0
  1  2  1  0
  2  4  1  0
  3  2  2  0
  4  5  1  0
  6  5  1  0
  6  7  1  1
  8  6  1  0
  8  9  2  0
 10 11  1  0
 12 11  1  0
 12 13  1  1
 14 15  1  6
 14 12  1  0
 15  8  1  0
 16 17  2  0
 16 14  1  0
 18 16  1  0
 19 20  1  0
 19 18  1  0
 21 20  1  0
 22 21  1  0
 22 18  1  0
 22 23  1  1
 24 23  1  0
 25 23  2  0
M  END
$$$$
