RFK.pdb
     RDKit          3D

 32 32  0  0  1  0  0  0  0  0999 V2000
    7.9755  -14.4823   16.1606 N   0  0  0  0  0  0  0  0  0  0  0  0
    7.9795  -13.5495   17.2573 C   0  0  0  0  0  0  0  0  0  0  0  0
    8.7560  -12.5277   17.2132 N   0  0  0  0  0  0  0  0  0  0  0  0
    7.1138  -13.7932   18.3644 N   0  0  0  0  0  0  0  0  0  0  0  0
    7.7306  -13.9011   19.7019 C   0  0  0  0  0  0  0  0  0  0  0  0
    8.9063  -14.8293   19.6579 C   0  0  0  0  0  0  0  0  0  0  0  0
    9.6863  -14.8746   20.9282 C   0  0  0  0  0  0  0  0  0  0  0  0
    9.3275  -15.9892   21.8364 C   0  0  2  0  0  0  0  0  0  0  0  0
    7.9990  -16.5178   21.6972 N   0  0  0  0  0  0  0  0  0  0  0  0
    9.6065  -15.6415   23.2786 C   0  0  0  0  0  0  0  0  0  0  0  0
   10.6441  -14.9950   23.5668 O   0  0  0  0  0  0  0  0  0  0  0  0
    8.9283  -11.8460   17.9607 N   0  0  0  0  0  0  0  0  0  0  0  0
    8.7260  -16.0260   24.3238 C   0  0  1  0  0  0  0  0  0  0  0  0
    9.0378  -15.7271   25.7281 C   0  0  0  0  0  0  0  0  0  0  0  0
    7.7906  -15.3501   26.4832 C   0  0  0  0  0  0  0  0  0  0  0  0
    7.4203  -13.9294   26.2762 C   0  0  0  0  0  0  0  0  0  0  0  0
    8.2410  -12.8619   26.5688 C   0  0  0  0  0  0  0  0  0  0  0  0
    7.8503  -11.5508   26.3586 C   0  0  0  0  0  0  0  0  0  0  0  0
    6.6069  -11.2510   25.8405 C   0  0  0  0  0  0  0  0  0  0  0  0
    5.7825  -12.3233   25.5465 C   0  0  0  0  0  0  0  0  0  0  0  0
    6.1734  -13.6319   25.7567 C   0  0  0  0  0  0  0  0  0  0  0  0
    9.6538  -16.9677   26.2923 O   0  0  0  0  0  0  0  0  0  0  0  0
    9.9102  -17.1069   27.5156 N   0  0  0  0  0  0  0  0  0  0  0  0
    9.9822  -18.0697   25.4413 C   0  0  1  0  0  0  0  0  0  0  0  0
   10.6585  -19.2577   25.9202 C   0  0  0  0  0  0  0  0  0  0  0  0
   10.7131  -20.3371   24.8339 C   0  0  0  0  0  0  0  0  0  0  0  0
   11.4436  -21.5152   25.4408 C   0  0  0  0  0  0  0  0  0  0  0  0
   11.5912  -22.6504   24.4516 C   0  0  0  0  0  0  0  0  0  0  0  0
   12.3967  -23.7563   25.0993 N   0  0  0  0  0  0  0  0  0  0  0  0
   12.6349  -24.7732   24.0808 C   0  0  0  0  0  0  0  0  0  0  0  0
   12.0540  -18.8464   26.3041 O   0  0  0  0  0  0  0  0  0  0  0  0
   12.7962  -18.2037   25.5112 O   0  0  0  0  0  0  0  0  0  0  0  0
  2  1  1  0
  3  2  2  0
  4  2  1  0
  5  4  1  0
  6  5  1  0
  7  8  1  0
  7  6  1  0
  8  9  1  1
 10  8  1  0
 11 10  2  0
 12 10  1  0
 13 21  1  0
 13 12  1  0
 13 14  1  1
 15 14  1  0
 16 15  2  0
 17 16  1  0
 18 19  1  0
 18 17  2  0
 19 20  2  0
 20 15  1  0
 21 23  1  0
 22 21  2  0
 23 24  1  0
 24 30  1  0
 24 25  1  6
 25 26  1  0
 26 27  1  0
 28 27  1  0
 28 29  1  0
 30 32  1  0
 31 30  2  0
M  END
$$$$
