RFK.pdb
     RDKit          3D

 32 32  0  0  1  0  0  0  0  0999 V2000
   10.5203  -15.6029   14.4175 N   0  0  0  0  0  0  0  0  0  0  0  0
    9.3764  -16.4536   14.2161 C   0  0  0  0  0  0  0  0  0  0  0  0
    8.7713  -16.4391   13.0834 N   0  0  0  0  0  0  0  0  0  0  0  0
    8.9502  -17.2907   15.2895 N   0  0  0  0  0  0  0  0  0  0  0  0
    9.4108  -16.9443   16.6491 C   0  0  0  0  0  0  0  0  0  0  0  0
    8.6696  -15.7455   17.1584 C   0  0  0  0  0  0  0  0  0  0  0  0
    9.0249  -15.3662   18.5562 C   0  0  0  0  0  0  0  0  0  0  0  0
    8.2953  -14.1892   19.0835 C   0  0  2  0  0  0  0  0  0  0  0  0
    8.4420  -12.9678   18.3418 N   0  0  0  0  0  0  0  0  0  0  0  0
    8.5986  -13.9569   20.5440 C   0  0  0  0  0  0  0  0  0  0  0  0
    9.7211  -13.5008   20.8751 O   0  0  0  0  0  0  0  0  0  0  0  0
    7.9602  -17.0031   12.8054 N   0  0  0  0  0  0  0  0  0  0  0  0
    7.6475  -14.2407   21.5590 C   0  0  2  0  0  0  0  0  0  0  0  0
    7.9606  -14.0175   22.9771 C   0  0  0  0  0  0  0  0  0  0  0  0
    6.8161  -13.3308   23.6747 C   0  0  0  0  0  0  0  0  0  0  0  0
    7.0944  -13.1035   25.1131 C   0  0  0  0  0  0  0  0  0  0  0  0
    7.9109  -12.1053   25.5985 C   0  0  0  0  0  0  0  0  0  0  0  0
    8.1414  -11.9327   26.9523 C   0  0  0  0  0  0  0  0  0  0  0  0
    7.5567  -12.7624   27.8872 C   0  0  0  0  0  0  0  0  0  0  0  0
    6.7365  -13.7651   27.3997 C   0  0  0  0  0  0  0  0  0  0  0  0
    6.5070  -13.9367   26.0480 C   0  0  0  0  0  0  0  0  0  0  0  0
    8.2168  -15.3683   23.5659 O   0  0  0  0  0  0  0  0  0  0  0  0
    7.4857  -16.3645   23.3321 N   0  0  0  0  0  0  0  0  0  0  0  0
    9.3301  -15.5833   24.4381 C   0  0  1  0  0  0  0  0  0  0  0  0
    9.6807  -16.8895   24.9569 C   0  0  0  0  0  0  0  0  0  0  0  0
   10.9643  -17.4151   24.3058 C   0  0  0  0  0  0  0  0  0  0  0  0
   11.2047  -18.7908   24.8886 C   0  0  0  0  0  0  0  0  0  0  0  0
   12.4229  -19.4500   24.2800 C   0  0  0  0  0  0  0  0  0  0  0  0
   12.5815  -20.8285   24.8851 N   0  0  0  0  0  0  0  0  0  0  0  0
   13.7558  -21.4391   24.2717 C   0  0  0  0  0  0  0  0  0  0  0  0
    9.8847  -16.7350   26.4397 O   0  0  0  0  0  0  0  0  0  0  0  0
   10.3044  -15.6556   26.9410 O   0  0  0  0  0  0  0  0  0  0  0  0
  2  1  1  0
  3  2  2  0
  4  2  1  0
  5  4  1  0
  6  5  1  0
  7  8  1  0
  7  6  1  0
  8  9  1  6
 10  8  1  0
 11 10  2  0
 12 10  1  0
 13 21  1  0
 13 12  1  0
 13 14  1  6
 15 14  1  0
 16 15  2  0
 17 16  1  0
 18 19  1  0
 18 17  2  0
 19 20  2  0
 20 15  1  0
 21 23  1  0
 22 21  2  0
 23 24  1  0
 24 30  1  0
 24 25  1  1
 25 26  1  0
 26 27  1  0
 28 27  1  0
 28 29  1  0
 30 32  1  0
 31 30  2  0
M  END
$$$$
