RFK.pdb
     RDKit          3D

 32 32  0  0  1  0  0  0  0  0999 V2000
   10.6748  -18.6436   15.8361 N   0  0  0  0  0  0  0  0  0  0  0  0
   10.1386  -19.9474   16.1283 C   0  0  0  0  0  0  0  0  0  0  0  0
   10.0296  -20.8107   15.1838 N   0  0  0  0  0  0  0  0  0  0  0  0
    9.7436  -20.2390   17.4676 N   0  0  0  0  0  0  0  0  0  0  0  0
    9.9914  -19.2051   18.4924 C   0  0  0  0  0  0  0  0  0  0  0  0
    9.4636  -19.6545   19.8211 C   0  0  0  0  0  0  0  0  0  0  0  0
    9.6819  -18.6705   20.9204 C   0  0  0  0  0  0  0  0  0  0  0  0
    9.1477  -17.3144   20.6534 C   0  0  2  0  0  0  0  0  0  0  0  0
    9.6509  -16.6542   19.4810 N   0  0  0  0  0  0  0  0  0  0  0  0
    9.2824  -16.4175   21.8602 C   0  0  0  0  0  0  0  0  0  0  0  0
   10.4216  -16.2015   22.3431 O   0  0  0  0  0  0  0  0  0  0  0  0
    9.6531  -21.7629   15.2533 N   0  0  0  0  0  0  0  0  0  0  0  0
    8.1534  -15.8085   22.4684 C   0  0  1  0  0  0  0  0  0  0  0  0
    8.2966  -14.9657   23.6634 C   0  0  0  0  0  0  0  0  0  0  0  0
    7.1459  -14.0009   23.7770 C   0  0  0  0  0  0  0  0  0  0  0  0
    7.1818  -13.2357   25.0464 C   0  0  0  0  0  0  0  0  0  0  0  0
    6.2910  -13.4083   26.0834 C   0  0  0  0  0  0  0  0  0  0  0  0
    6.3644  -12.6685   27.2509 C   0  0  0  0  0  0  0  0  0  0  0  0
    7.3446  -11.7140   27.4304 C   0  0  0  0  0  0  0  0  0  0  0  0
    8.2396  -11.5406   26.3888 C   0  0  0  0  0  0  0  0  0  0  0  0
    8.1655  -12.2796   25.2237 C   0  0  0  0  0  0  0  0  0  0  0  0
    8.3329  -15.8994   24.8312 O   0  0  0  0  0  0  0  0  0  0  0  0
    7.3548  -16.6178   25.1613 N   0  0  0  0  0  0  0  0  0  0  0  0
    9.5100  -16.0136   25.6360 C   0  0  1  0  0  0  0  0  0  0  0  0
    9.6230  -16.9518   26.7338 C   0  0  0  0  0  0  0  0  0  0  0  0
   10.8269  -17.8806   26.5439 C   0  0  0  0  0  0  0  0  0  0  0  0
   10.5004  -18.7639   25.3594 C   0  0  0  0  0  0  0  0  0  0  0  0
   11.6061  -19.7588   25.0831 C   0  0  0  0  0  0  0  0  0  0  0  0
   11.2592  -20.5339   23.8301 N   0  0  0  0  0  0  0  0  0  0  0  0
   12.4033  -21.3820   23.5137 C   0  0  0  0  0  0  0  0  0  0  0  0
    9.7941  -16.1420   27.9904 O   0  0  0  0  0  0  0  0  0  0  0  0
   10.2313  -14.9585   27.9605 O   0  0  0  0  0  0  0  0  0  0  0  0
  2  1  1  0
  3  2  2  0
  4  2  1  0
  5  4  1  0
  6  5  1  0
  7  8  1  0
  7  6  1  0
  8  9  1  6
 10  8  1  0
 11 10  2  0
 12 10  1  0
 13 21  1  0
 13 12  1  0
 13 14  1  1
 15 14  1  0
 16 15  2  0
 17 16  1  0
 18 19  1  0
 18 17  2  0
 19 20  2  0
 20 15  1  0
 21 23  1  0
 22 21  2  0
 23 24  1  0
 24 30  1  0
 24 25  1  1
 25 26  1  0
 26 27  1  0
 28 27  1  0
 28 29  1  0
 30 32  1  0
 31 30  2  0
M  END
$$$$
