RFK.pdb
     RDKit          3D

 32 32  0  0  1  0  0  0  0  0999 V2000
    9.2078  -13.0823   16.7255 N   0  0  0  0  0  0  0  0  0  0  0  0
    8.2612  -13.6565   15.8050 C   0  0  0  0  0  0  0  0  0  0  0  0
    8.2602  -13.2719   14.5798 N   0  0  0  0  0  0  0  0  0  0  0  0
    7.3495  -14.6412   16.2885 N   0  0  0  0  0  0  0  0  0  0  0  0
    7.5760  -15.1717   17.6479 C   0  0  0  0  0  0  0  0  0  0  0  0
    8.8516  -15.9569   17.6927 C   0  0  0  0  0  0  0  0  0  0  0  0
    9.5970  -15.8231   18.9775 C   0  0  0  0  0  0  0  0  0  0  0  0
    9.0097  -16.5691   20.1152 C   0  0  2  0  0  0  0  0  0  0  0  0
    7.6711  -17.0563   19.9305 N   0  0  0  0  0  0  0  0  0  0  0  0
    9.1118  -15.7877   21.4028 C   0  0  0  0  0  0  0  0  0  0  0  0
   10.2165  -15.2919   21.7366 O   0  0  0  0  0  0  0  0  0  0  0  0
    7.5891  -13.5316   13.8480 N   0  0  0  0  0  0  0  0  0  0  0  0
    7.9900  -15.5963   22.2516 C   0  0  1  0  0  0  0  0  0  0  0  0
    8.1167  -14.8793   23.5278 C   0  0  0  0  0  0  0  0  0  0  0  0
    6.9447  -13.9580   23.7410 C   0  0  0  0  0  0  0  0  0  0  0  0
    7.0235  -13.2451   25.0386 C   0  0  0  0  0  0  0  0  0  0  0  0
    7.8318  -12.1553   25.2788 C   0  0  0  0  0  0  0  0  0  0  0  0
    7.8719  -11.5225   26.5091 C   0  0  0  0  0  0  0  0  0  0  0  0
    7.0949  -11.9600   27.5623 C   0  0  0  0  0  0  0  0  0  0  0  0
    6.2829  -13.0547   27.3210 C   0  0  0  0  0  0  0  0  0  0  0  0
    6.2436  -13.6858   26.0925 C   0  0  0  0  0  0  0  0  0  0  0  0
    8.1768  -15.9283   24.5921 O   0  0  0  0  0  0  0  0  0  0  0  0
    7.3680  -16.8897   24.6493 N   0  0  0  0  0  0  0  0  0  0  0  0
    9.1808  -15.8766   25.6098 C   0  0  1  0  0  0  0  0  0  0  0  0
    9.7118  -17.0623   26.2503 C   0  0  0  0  0  0  0  0  0  0  0  0
   10.5352  -17.8993   25.2657 C   0  0  0  0  0  0  0  0  0  0  0  0
   10.9938  -19.1237   26.0275 C   0  0  0  0  0  0  0  0  0  0  0  0
   11.8375  -20.0352   25.1637 C   0  0  0  0  0  0  0  0  0  0  0  0
   12.2482  -21.2385   25.9853 N   0  0  0  0  0  0  0  0  0  0  0  0
   12.9569  -22.1508   25.0943 C   0  0  0  0  0  0  0  0  0  0  0  0
   10.5860  -16.5977   27.3835 O   0  0  0  0  0  0  0  0  0  0  0  0
   10.5719  -17.1705   28.5078 O   0  0  0  0  0  0  0  0  0  0  0  0
  2  1  1  0
  3  2  2  0
  4  2  1  0
  5  4  1  0
  6  5  1  0
  7  8  1  0
  7  6  1  0
  8  9  1  6
 10  8  1  0
 11 10  2  0
 12 10  1  0
 13 21  1  0
 13 12  1  0
 13 14  1  1
 15 14  1  0
 16 15  2  0
 17 16  1  0
 18 19  1  0
 18 17  2  0
 19 20  2  0
 20 15  1  0
 21 23  1  0
 22 21  2  0
 23 24  1  0
 24 30  1  0
 24 25  1  1
 25 26  1  0
 26 27  1  0
 28 27  1  0
 28 29  1  0
 30 32  1  0
 31 30  2  0
M  END
$$$$
