RFK.pdb
     RDKit          3D

 32 32  0  0  1  0  0  0  0  0999 V2000
    8.5684  -11.9092   18.7959 N   0  0  0  0  0  0  0  0  0  0  0  0
    8.3893  -13.1790   18.1414 C   0  0  0  0  0  0  0  0  0  0  0  0
    7.2023  -13.5850   17.8667 N   0  0  0  0  0  0  0  0  0  0  0  0
    9.5451  -13.9494   17.8172 N   0  0  0  0  0  0  0  0  0  0  0  0
    9.3313  -15.2724   17.1970 C   0  0  0  0  0  0  0  0  0  0  0  0
    8.7299  -16.2200   18.1901 C   0  0  0  0  0  0  0  0  0  0  0  0
    9.6542  -16.5993   19.2973 C   0  0  0  0  0  0  0  0  0  0  0  0
    8.9907  -17.1885   20.4841 C   0  0  2  0  0  0  0  0  0  0  0  0
    7.6193  -17.5810   20.3141 N   0  0  0  0  0  0  0  0  0  0  0  0
    9.1376  -16.3038   21.6983 C   0  0  0  0  0  0  0  0  0  0  0  0
   10.2870  -16.0148   22.1145 O   0  0  0  0  0  0  0  0  0  0  0  0
    6.9365  -14.4700   17.4204 N   0  0  0  0  0  0  0  0  0  0  0  0
    8.0091  -15.7865   22.3870 C   0  0  1  0  0  0  0  0  0  0  0  0
    8.1627  -15.0353   23.6403 C   0  0  0  0  0  0  0  0  0  0  0  0
    6.9979  -14.1042   23.8507 C   0  0  0  0  0  0  0  0  0  0  0  0
    7.0545  -13.4280   25.1689 C   0  0  0  0  0  0  0  0  0  0  0  0
    8.0738  -12.5922   25.5705 C   0  0  0  0  0  0  0  0  0  0  0  0
    8.0831  -11.9833   26.8134 C   0  0  0  0  0  0  0  0  0  0  0  0
    7.0599  -12.1885   27.7163 C   0  0  0  0  0  0  0  0  0  0  0  0
    6.0360  -13.0280   27.3130 C   0  0  0  0  0  0  0  0  0  0  0  0
    6.0276  -13.6355   26.0719 C   0  0  0  0  0  0  0  0  0  0  0  0
    8.2401  -16.0550   24.7317 O   0  0  0  0  0  0  0  0  0  0  0  0
    7.3654  -16.9429   24.8995 N   0  0  0  0  0  0  0  0  0  0  0  0
    9.3387  -16.0592   25.6479 C   0  0  1  0  0  0  0  0  0  0  0  0
    9.6987  -17.2190   26.4374 C   0  0  0  0  0  0  0  0  0  0  0  0
   10.4476  -18.2526   25.5895 C   0  0  0  0  0  0  0  0  0  0  0  0
   10.7957  -19.3944   26.5195 C   0  0  0  0  0  0  0  0  0  0  0  0
   11.4897  -20.5207   25.7855 C   0  0  0  0  0  0  0  0  0  0  0  0
   11.7460  -21.6497   26.7607 N   0  0  0  0  0  0  0  0  0  0  0  0
   12.4935  -22.6788   26.0463 C   0  0  0  0  0  0  0  0  0  0  0  0
   10.5833  -16.7352   27.5544 O   0  0  0  0  0  0  0  0  0  0  0  0
   11.4500  -15.8366   27.3701 O   0  0  0  0  0  0  0  0  0  0  0  0
  2  1  1  0
  3  2  2  0
  4  2  1  0
  5  4  1  0
  6  5  1  0
  7  8  1  0
  7  6  1  0
  8  9  1  6
 10  8  1  0
 11 10  2  0
 12 10  1  0
 13 21  1  0
 13 12  1  0
 13 14  1  1
 15 14  1  0
 16 15  2  0
 17 16  1  0
 18 19  1  0
 18 17  2  0
 19 20  2  0
 20 15  1  0
 21 23  1  0
 22 21  2  0
 23 24  1  0
 24 30  1  0
 24 25  1  1
 25 26  1  0
 26 27  1  0
 28 27  1  0
 28 29  1  0
 30 32  1  0
 31 30  2  0
M  END
$$$$
