RFK.pdb
     RDKit          3D

 32 32  0  0  1  0  0  0  0  0999 V2000
   10.3688  -17.5150   17.7194 N   0  0  0  0  0  0  0  0  0  0  0  0
    9.6716  -18.6508   18.2641 C   0  0  0  0  0  0  0  0  0  0  0  0
   10.2765  -19.7805   18.3497 N   0  0  0  0  0  0  0  0  0  0  0  0
    8.3222  -18.4821   18.6941 N   0  0  0  0  0  0  0  0  0  0  0  0
    7.7310  -17.1343   18.5728 C   0  0  0  0  0  0  0  0  0  0  0  0
    8.0121  -16.3314   19.8066 C   0  0  0  0  0  0  0  0  0  0  0  0
    6.8709  -15.4754   20.2416 C   0  0  0  0  0  0  0  0  0  0  0  0
    7.2472  -14.1013   20.6494 C   0  0  2  0  0  0  0  0  0  0  0  0
    7.8882  -13.2958   19.6474 N   0  0  0  0  0  0  0  0  0  0  0  0
    8.0598  -14.1031   21.9216 C   0  0  0  0  0  0  0  0  0  0  0  0
    9.3125  -14.0420   21.8525 O   0  0  0  0  0  0  0  0  0  0  0  0
    9.8855  -20.6709   18.6776 N   0  0  0  0  0  0  0  0  0  0  0  0
    7.4464  -14.1725   23.2000 C   0  0  2  0  0  0  0  0  0  0  0  0
    8.2524  -14.2264   24.4273 C   0  0  0  0  0  0  0  0  0  0  0  0
    7.5356  -13.5510   25.5666 C   0  0  0  0  0  0  0  0  0  0  0  0
    8.3001  -13.6328   26.8343 C   0  0  0  0  0  0  0  0  0  0  0  0
    9.5419  -13.0689   27.0307 C   0  0  0  0  0  0  0  0  0  0  0  0
   10.2182  -13.1728   28.2338 C   0  0  0  0  0  0  0  0  0  0  0  0
    9.6723  -13.8537   29.3028 C   0  0  0  0  0  0  0  0  0  0  0  0
    8.4249  -14.4202   29.1056 C   0  0  0  0  0  0  0  0  0  0  0  0
    7.7505  -14.3160   27.9041 C   0  0  0  0  0  0  0  0  0  0  0  0
    8.4762  -15.6765   24.7167 O   0  0  0  0  0  0  0  0  0  0  0  0
    7.5347  -16.4855   24.9184 N   0  0  0  0  0  0  0  0  0  0  0  0
    9.8018  -16.2111   24.7762 C   0  0  1  0  0  0  0  0  0  0  0  0
   10.0755  -17.5999   25.0839 C   0  0  0  0  0  0  0  0  0  0  0  0
   11.3576  -18.0756   24.3925 C   0  0  0  0  0  0  0  0  0  0  0  0
   11.0937  -17.9953   22.9046 C   0  0  0  0  0  0  0  0  0  0  0  0
   12.2834  -18.4712   22.1000 C   0  0  0  0  0  0  0  0  0  0  0  0
   11.9648  -18.3203   20.6279 N   0  0  0  0  0  0  0  0  0  0  0  0
   13.1263  -18.7925   19.8820 C   0  0  0  0  0  0  0  0  0  0  0  0
   10.2322  -17.6984   26.5771 O   0  0  0  0  0  0  0  0  0  0  0  0
   10.5986  -16.7098   27.2706 O   0  0  0  0  0  0  0  0  0  0  0  0
  2  1  1  0
  3  2  2  0
  4  2  1  0
  5  4  1  0
  6  5  1  0
  7  8  1  0
  7  6  1  0
  8  9  1  6
 10  8  1  0
 11 10  2  0
 12 10  1  0
 13 21  1  0
 13 12  1  0
 13 14  1  1
 15 14  1  0
 16 15  2  0
 17 16  1  0
 18 19  1  0
 18 17  2  0
 19 20  2  0
 20 15  1  0
 21 23  1  0
 22 21  2  0
 23 24  1  0
 24 30  1  0
 24 25  1  1
 25 26  1  0
 26 27  1  0
 28 27  1  0
 28 29  1  0
 30 32  1  0
 31 30  2  0
M  END
$$$$
