RFK.pdb
     RDKit          3D

 32 32  0  0  1  0  0  0  0  0999 V2000
   10.7310  -19.2537   16.2981 N   0  0  0  0  0  0  0  0  0  0  0  0
    9.4427  -19.8028   16.6323 C   0  0  0  0  0  0  0  0  0  0  0  0
    8.5412  -19.8949   15.7224 N   0  0  0  0  0  0  0  0  0  0  0  0
    9.2092  -20.2298   17.9730 N   0  0  0  0  0  0  0  0  0  0  0  0
   10.3396  -20.1530   18.9202 C   0  0  0  0  0  0  0  0  0  0  0  0
   10.5981  -18.7280   19.3051 C   0  0  0  0  0  0  0  0  0  0  0  0
   10.0910  -18.3683   20.6608 C   0  0  0  0  0  0  0  0  0  0  0  0
    9.1137  -17.2546   20.6815 C   0  0  2  0  0  0  0  0  0  0  0  0
    9.1009  -16.4009   19.5263 N   0  0  0  0  0  0  0  0  0  0  0  0
    9.2363  -16.4324   21.9415 C   0  0  0  0  0  0  0  0  0  0  0  0
   10.3129  -16.4528   22.5882 O   0  0  0  0  0  0  0  0  0  0  0  0
    7.5809  -20.2397   15.8324 N   0  0  0  0  0  0  0  0  0  0  0  0
    8.1648  -15.6330   22.4194 C   0  0  2  0  0  0  0  0  0  0  0  0
    8.2925  -14.8535   23.6583 C   0  0  0  0  0  0  0  0  0  0  0  0
    7.1173  -13.9276   23.8298 C   0  0  0  0  0  0  0  0  0  0  0  0
    7.1583  -13.2070   25.1249 C   0  0  0  0  0  0  0  0  0  0  0  0
    6.4060  -13.5476   26.2280 C   0  0  0  0  0  0  0  0  0  0  0  0
    6.4780  -12.8431   27.4171 C   0  0  0  0  0  0  0  0  0  0  0  0
    7.3163  -11.7553   27.5525 C   0  0  0  0  0  0  0  0  0  0  0  0
    8.0721  -11.4131   26.4445 C   0  0  0  0  0  0  0  0  0  0  0  0
    7.9995  -12.1171   25.2577 C   0  0  0  0  0  0  0  0  0  0  0  0
    8.3605  -15.8485   24.7728 O   0  0  0  0  0  0  0  0  0  0  0  0
    7.4694  -16.7136   24.9706 N   0  0  0  0  0  0  0  0  0  0  0  0
    9.4686  -15.8541   25.6775 C   0  0  1  0  0  0  0  0  0  0  0  0
    9.7356  -16.9505   26.5856 C   0  0  0  0  0  0  0  0  0  0  0  0
   10.7980  -17.8946   26.0130 C   0  0  0  0  0  0  0  0  0  0  0  0
   11.0238  -18.9653   27.0583 C   0  0  0  0  0  0  0  0  0  0  0  0
   12.0153  -20.0060   26.5864 C   0  0  0  0  0  0  0  0  0  0  0  0
   12.2054  -21.0286   27.6863 N   0  0  0  0  0  0  0  0  0  0  0  0
   13.2297  -21.9647   27.2361 C   0  0  0  0  0  0  0  0  0  0  0  0
   10.2273  -16.3470   27.8733 O   0  0  0  0  0  0  0  0  0  0  0  0
   10.9111  -15.2865   27.8884 O   0  0  0  0  0  0  0  0  0  0  0  0
  2  1  1  0
  3  2  2  0
  4  2  1  0
  5  4  1  0
  6  5  1  0
  7  8  1  0
  7  6  1  0
  8  9  1  6
 10  8  1  0
 11 10  2  0
 12 10  1  0
 13 21  1  0
 13 12  1  0
 13 14  1  6
 15 14  1  0
 16 15  2  0
 17 16  1  0
 18 19  1  0
 18 17  2  0
 19 20  2  0
 20 15  1  0
 21 23  1  0
 22 21  2  0
 23 24  1  0
 24 30  1  0
 24 25  1  1
 25 26  1  0
 26 27  1  0
 28 27  1  0
 28 29  1  0
 30 32  1  0
 31 30  2  0
M  END
$$$$
