RFK.pdb
     RDKit          3D

 32 32  0  0  1  0  0  0  0  0999 V2000
    9.9670  -20.1090   16.8468 N   0  0  0  0  0  0  0  0  0  0  0  0
    8.5433  -20.1897   17.0447 C   0  0  0  0  0  0  0  0  0  0  0  0
    7.7557  -19.6462   16.1881 N   0  0  0  0  0  0  0  0  0  0  0  0
    8.0512  -20.8762   18.1940 N   0  0  0  0  0  0  0  0  0  0  0  0
    8.7142  -20.6063   19.4857 C   0  0  0  0  0  0  0  0  0  0  0  0
    9.5263  -19.3499   19.3996 C   0  0  0  0  0  0  0  0  0  0  0  0
    9.4747  -18.5131   20.6330 C   0  0  0  0  0  0  0  0  0  0  0  0
    9.1480  -17.0865   20.4009 C   0  0  2  0  0  0  0  0  0  0  0  0
    9.8681  -16.4354   19.3419 N   0  0  0  0  0  0  0  0  0  0  0  0
    9.2434  -16.2811   21.6740 C   0  0  0  0  0  0  0  0  0  0  0  0
   10.3160  -16.2868   22.3276 O   0  0  0  0  0  0  0  0  0  0  0  0
    6.7302  -19.6212   16.2160 N   0  0  0  0  0  0  0  0  0  0  0  0
    8.1507  -15.5141   22.1567 C   0  0  2  0  0  0  0  0  0  0  0  0
    8.2472  -14.7631   23.4159 C   0  0  0  0  0  0  0  0  0  0  0  0
    7.0517  -13.8648   23.5946 C   0  0  0  0  0  0  0  0  0  0  0  0
    7.0413  -13.2066   24.9230 C   0  0  0  0  0  0  0  0  0  0  0  0
    6.2203  -13.5753   25.9666 C   0  0  0  0  0  0  0  0  0  0  0  0
    6.2462  -12.9291   27.1903 C   0  0  0  0  0  0  0  0  0  0  0  0
    7.1054  -11.8746   27.4225 C   0  0  0  0  0  0  0  0  0  0  0  0
    7.9301  -11.5042   26.3743 C   0  0  0  0  0  0  0  0  0  0  0  0
    7.9036  -12.1499   25.1530 C   0  0  0  0  0  0  0  0  0  0  0  0
    8.3207  -15.7839   24.5065 O   0  0  0  0  0  0  0  0  0  0  0  0
    7.5223  -16.7519   24.5902 N   0  0  0  0  0  0  0  0  0  0  0  0
    9.3265  -15.6956   25.5199 C   0  0  1  0  0  0  0  0  0  0  0  0
    9.7747  -16.8420   26.2836 C   0  0  0  0  0  0  0  0  0  0  0  0
   10.9819  -17.5106   25.6175 C   0  0  0  0  0  0  0  0  0  0  0  0
   10.5844  -18.9480   25.3608 C   0  0  0  0  0  0  0  0  0  0  0  0
   11.6828  -19.7137   24.6565 C   0  0  0  0  0  0  0  0  0  0  0  0
   11.2724  -21.1673   24.5552 N   0  0  0  0  0  0  0  0  0  0  0  0
   12.3493  -21.8756   23.8720 C   0  0  0  0  0  0  0  0  0  0  0  0
   10.1565  -16.3400   27.6498 O   0  0  0  0  0  0  0  0  0  0  0  0
   10.8525  -15.2983   27.8013 O   0  0  0  0  0  0  0  0  0  0  0  0
  2  1  1  0
  3  2  2  0
  4  2  1  0
  5  4  1  0
  6  5  1  0
  7  8  1  0
  7  6  1  0
  8  9  1  6
 10  8  1  0
 11 10  2  0
 12 10  1  0
 13 21  1  0
 13 12  1  0
 13 14  1  6
 15 14  1  0
 16 15  2  0
 17 16  1  0
 18 19  1  0
 18 17  2  0
 19 20  2  0
 20 15  1  0
 21 23  1  0
 22 21  2  0
 23 24  1  0
 24 30  1  0
 24 25  1  1
 25 26  1  0
 26 27  1  0
 28 27  1  0
 28 29  1  0
 30 32  1  0
 31 30  2  0
M  END
$$$$
