RFK.pdb
     RDKit          3D

 32 32  0  0  1  0  0  0  0  0999 V2000
   12.6041  -18.1929   16.3019 N   0  0  0  0  0  0  0  0  0  0  0  0
   12.8381  -19.3250   17.1601 C   0  0  0  0  0  0  0  0  0  0  0  0
   14.0429  -19.7119   17.3791 N   0  0  0  0  0  0  0  0  0  0  0  0
   11.7154  -19.9838   17.7431 N   0  0  0  0  0  0  0  0  0  0  0  0
   10.7510  -19.1539   18.4928 C   0  0  0  0  0  0  0  0  0  0  0  0
   11.4751  -18.1296   19.3126 C   0  0  0  0  0  0  0  0  0  0  0  0
   10.5750  -17.2645   20.1286 C   0  0  0  0  0  0  0  0  0  0  0  0
    9.9909  -17.9264   21.3187 C   0  0  2  0  0  0  0  0  0  0  0  0
    8.5711  -18.1436   21.2905 N   0  0  0  0  0  0  0  0  0  0  0  0
   10.3903  -17.2261   22.5950 C   0  0  0  0  0  0  0  0  0  0  0  0
   11.6081  -17.0426   22.8418 O   0  0  0  0  0  0  0  0  0  0  0  0
   14.3489  -20.4667   18.0035 N   0  0  0  0  0  0  0  0  0  0  0  0
    9.4248  -16.7670   23.5290 C   0  0  1  0  0  0  0  0  0  0  0  0
    9.8291  -16.2020   24.8237 C   0  0  0  0  0  0  0  0  0  0  0  0
    8.7701  -15.2718   25.3542 C   0  0  0  0  0  0  0  0  0  0  0  0
    9.0991  -14.7653   26.7082 C   0  0  0  0  0  0  0  0  0  0  0  0
    8.9633  -15.4991   27.8666 C   0  0  0  0  0  0  0  0  0  0  0  0
    9.2831  -14.9820   29.1100 C   0  0  0  0  0  0  0  0  0  0  0  0
    9.7578  -13.6934   29.2465 C   0  0  0  0  0  0  0  0  0  0  0  0
    9.8941  -12.9563   28.0829 C   0  0  0  0  0  0  0  0  0  0  0  0
    9.5746  -13.4734   26.8420 C   0  0  0  0  0  0  0  0  0  0  0  0
   10.0324  -17.3650   25.7418 O   0  0  0  0  0  0  0  0  0  0  0  0
    9.1096  -18.1630   26.0470 N   0  0  0  0  0  0  0  0  0  0  0  0
   11.3152  -17.6198   26.3212 C   0  0  1  0  0  0  0  0  0  0  0  0
   11.5811  -18.7644   27.1683 C   0  0  0  0  0  0  0  0  0  0  0  0
   12.9120  -19.4274   26.7978 C   0  0  0  0  0  0  0  0  0  0  0  0
   12.6860  -20.1251   25.4741 C   0  0  0  0  0  0  0  0  0  0  0  0
   13.9324  -20.8393   24.9995 C   0  0  0  0  0  0  0  0  0  0  0  0
   13.6977  -21.3396   23.5902 N   0  0  0  0  0  0  0  0  0  0  0  0
   14.9329  -21.9746   23.1438 C   0  0  0  0  0  0  0  0  0  0  0  0
   11.6367  -18.2612   28.5852 O   0  0  0  0  0  0  0  0  0  0  0  0
   11.9265  -17.0620   28.8506 O   0  0  0  0  0  0  0  0  0  0  0  0
  2  1  1  0
  3  2  2  0
  4  2  1  0
  5  4  1  0
  6  5  1  0
  7  8  1  0
  7  6  1  0
  8  9  1  6
 10  8  1  0
 11 10  2  0
 12 10  1  0
 13 21  1  0
 13 12  1  0
 13 14  1  1
 15 14  1  0
 16 15  2  0
 17 16  1  0
 18 19  1  0
 18 17  2  0
 19 20  2  0
 20 15  1  0
 21 23  1  0
 22 21  2  0
 23 24  1  0
 24 30  1  0
 24 25  1  1
 25 26  1  0
 26 27  1  0
 28 27  1  0
 28 29  1  0
 30 32  1  0
 31 30  2  0
M  END
$$$$
