RFK.pdb
     RDKit          3D

 32 32  0  0  1  0  0  0  0  0999 V2000
   10.0239  -23.7960   16.5975 N   0  0  0  0  0  0  0  0  0  0  0  0
    9.2835  -22.6625   17.0870 C   0  0  0  0  0  0  0  0  0  0  0  0
    8.4642  -22.0585   16.3040 N   0  0  0  0  0  0  0  0  0  0  0  0
    9.4861  -22.2451   18.4359 N   0  0  0  0  0  0  0  0  0  0  0  0
   10.6741  -21.4161   18.7224 C   0  0  0  0  0  0  0  0  0  0  0  0
   10.4033  -19.9837   18.3751 C   0  0  0  0  0  0  0  0  0  0  0  0
   10.0654  -19.1317   19.5517 C   0  0  0  0  0  0  0  0  0  0  0  0
    9.6932  -17.7363   19.2199 C   0  0  2  0  0  0  0  0  0  0  0  0
   10.0872  -17.2669   17.9207 N   0  0  0  0  0  0  0  0  0  0  0  0
   10.1489  -16.7717   20.2879 C   0  0  0  0  0  0  0  0  0  0  0  0
   10.9997  -15.8930   20.0019 O   0  0  0  0  0  0  0  0  0  0  0  0
    7.9436  -21.1953   16.4962 N   0  0  0  0  0  0  0  0  0  0  0  0
    9.6417  -16.8292   21.6126 C   0  0  1  0  0  0  0  0  0  0  0  0
    9.8609  -15.7265   22.5585 C   0  0  0  0  0  0  0  0  0  0  0  0
    8.5492  -15.1289   22.9947 C   0  0  0  0  0  0  0  0  0  0  0  0
    7.9456  -14.2775   21.9416 C   0  0  0  0  0  0  0  0  0  0  0  0
    6.9472  -14.6901   21.0862 C   0  0  0  0  0  0  0  0  0  0  0  0
    6.4148  -13.8581   20.1167 C   0  0  0  0  0  0  0  0  0  0  0  0
    6.8655  -12.5630   19.9618 C   0  0  0  0  0  0  0  0  0  0  0  0
    7.8684  -12.1485   20.8211 C   0  0  0  0  0  0  0  0  0  0  0  0
    8.3993  -12.9799   21.7887 C   0  0  0  0  0  0  0  0  0  0  0  0
   10.5977  -16.3129   23.7204 O   0  0  0  0  0  0  0  0  0  0  0  0
   10.8127  -15.6767   24.7836 N   0  0  0  0  0  0  0  0  0  0  0  0
   11.0975  -17.6521   23.6649 C   0  0  1  0  0  0  0  0  0  0  0  0
   11.8513  -18.2546   24.7451 C   0  0  0  0  0  0  0  0  0  0  0  0
   11.9173  -19.7775   24.5893 C   0  0  0  0  0  0  0  0  0  0  0  0
   10.4858  -20.2575   24.4879 C   0  0  0  0  0  0  0  0  0  0  0  0
   10.4081  -21.7652   24.3889 C   0  0  0  0  0  0  0  0  0  0  0  0
    8.9523  -22.1713   24.3053 N   0  0  0  0  0  0  0  0  0  0  0  0
    8.9051  -23.6287   24.3487 C   0  0  0  0  0  0  0  0  0  0  0  0
   13.2384  -17.6738   24.6927 O   0  0  0  0  0  0  0  0  0  0  0  0
   14.1044  -17.9486   25.5685 O   0  0  0  0  0  0  0  0  0  0  0  0
  2  1  1  0
  3  2  2  0
  4  2  1  0
  5  4  1  0
  6  5  1  0
  7  8  1  0
  7  6  1  0
  8  9  1  6
 10  8  1  0
 11 10  2  0
 12 10  1  0
 13 21  1  0
 13 12  1  0
 13 14  1  6
 15 14  1  0
 16 15  2  0
 17 16  1  0
 18 19  1  0
 18 17  2  0
 19 20  2  0
 20 15  1  0
 21 23  1  0
 22 21  2  0
 23 24  1  0
 24 30  1  0
 24 25  1  1
 25 26  1  0
 26 27  1  0
 28 27  1  0
 28 29  1  0
 30 32  1  0
 31 30  2  0
M  END
$$$$
