RFK.pdb
     RDKit          3D

 32 32  0  0  1  0  0  0  0  0999 V2000
    8.8739  -15.4775   14.2515 N   0  0  0  0  0  0  0  0  0  0  0  0
    8.8596  -14.0399   14.1750 C   0  0  0  0  0  0  0  0  0  0  0  0
    8.5301  -13.4703   13.0721 N   0  0  0  0  0  0  0  0  0  0  0  0
    9.2142  -13.2905   15.3357 N   0  0  0  0  0  0  0  0  0  0  0  0
    9.7141  -14.0404   16.5055 C   0  0  0  0  0  0  0  0  0  0  0  0
    8.6219  -14.2123   17.5171 C   0  0  0  0  0  0  0  0  0  0  0  0
    9.0413  -13.9056   18.9150 C   0  0  0  0  0  0  0  0  0  0  0  0
    9.1075  -15.0814   19.8143 C   0  0  2  0  0  0  0  0  0  0  0  0
    8.0891  -16.0778   19.6312 N   0  0  0  0  0  0  0  0  0  0  0  0
    9.1833  -14.6676   21.2641 C   0  0  0  0  0  0  0  0  0  0  0  0
   10.1486  -13.9651   21.6545 O   0  0  0  0  0  0  0  0  0  0  0  0
    8.4566  -12.4628   12.8914 N   0  0  0  0  0  0  0  0  0  0  0  0
    8.1906  -15.0513   22.2036 C   0  0  1  0  0  0  0  0  0  0  0  0
    8.2782  -14.6406   23.6116 C   0  0  0  0  0  0  0  0  0  0  0  0
    7.0517  -13.8677   24.0194 C   0  0  0  0  0  0  0  0  0  0  0  0
    7.1521  -13.3516   25.4057 C   0  0  0  0  0  0  0  0  0  0  0  0
    6.3732  -13.7874   26.4555 C   0  0  0  0  0  0  0  0  0  0  0  0
    6.5032  -13.2740   27.7343 C   0  0  0  0  0  0  0  0  0  0  0  0
    7.4296  -12.2914   28.0181 C   0  0  0  0  0  0  0  0  0  0  0  0
    8.2121  -11.8536   26.9636 C   0  0  0  0  0  0  0  0  0  0  0  0
    8.0816  -12.3667   25.6873 C   0  0  0  0  0  0  0  0  0  0  0  0
    8.4090  -15.9005   24.4068 O   0  0  0  0  0  0  0  0  0  0  0  0
    7.5912  -16.8517   24.3180 N   0  0  0  0  0  0  0  0  0  0  0  0
    9.4958  -16.0754   25.3205 C   0  0  1  0  0  0  0  0  0  0  0  0
    9.7599  -17.3292   25.9961 C   0  0  0  0  0  0  0  0  0  0  0  0
   10.8950  -18.0969   25.3104 C   0  0  0  0  0  0  0  0  0  0  0  0
   11.1200  -19.3476   26.1319 C   0  0  0  0  0  0  0  0  0  0  0  0
   12.1911  -20.2281   25.5265 C   0  0  0  0  0  0  0  0  0  0  0  0
   12.3299  -21.4749   26.3736 N   0  0  0  0  0  0  0  0  0  0  0  0
   13.4434  -22.2460   25.8316 C   0  0  0  0  0  0  0  0  0  0  0  0
   10.1493  -16.9947   27.4105 O   0  0  0  0  0  0  0  0  0  0  0  0
   10.7514  -15.9228   27.6952 O   0  0  0  0  0  0  0  0  0  0  0  0
  2  1  1  0
  3  2  2  0
  4  2  1  0
  5  4  1  0
  6  5  1  0
  7  8  1  0
  7  6  1  0
  8  9  1  1
 10  8  1  0
 11 10  2  0
 12 10  1  0
 13 21  1  0
 13 12  1  0
 13 14  1  1
 15 14  1  0
 16 15  2  0
 17 16  1  0
 18 19  1  0
 18 17  2  0
 19 20  2  0
 20 15  1  0
 21 23  1  0
 22 21  2  0
 23 24  1  0
 24 30  1  0
 24 25  1  1
 25 26  1  0
 26 27  1  0
 28 27  1  0
 28 29  1  0
 30 32  1  0
 31 30  2  0
M  END
$$$$
