RFK.pdb
     RDKit          3D

 32 32  0  0  1  0  0  0  0  0999 V2000
    7.6760  -12.5860   15.6126 N   0  0  0  0  0  0  0  0  0  0  0  0
    8.1079  -13.9107   15.2500 C   0  0  0  0  0  0  0  0  0  0  0  0
    7.9000  -14.3373   14.0567 N   0  0  0  0  0  0  0  0  0  0  0  0
    8.7576  -14.7111   16.2359 N   0  0  0  0  0  0  0  0  0  0  0  0
    7.9592  -15.7650   16.8935 C   0  0  0  0  0  0  0  0  0  0  0  0
    7.8189  -15.4729   18.3566 C   0  0  0  0  0  0  0  0  0  0  0  0
    9.1151  -15.2096   19.0457 C   0  0  0  0  0  0  0  0  0  0  0  0
    9.4216  -16.1331   20.1633 C   0  0  2  0  0  0  0  0  0  0  0  0
    8.5932  -17.3023   20.2649 N   0  0  0  0  0  0  0  0  0  0  0  0
    9.4703  -15.4068   21.4857 C   0  0  0  0  0  0  0  0  0  0  0  0
   10.4989  -14.7547   21.7929 O   0  0  0  0  0  0  0  0  0  0  0  0
    8.1000  -15.2741   13.6886 N   0  0  0  0  0  0  0  0  0  0  0  0
    8.3821  -15.4399   22.3969 C   0  0  1  0  0  0  0  0  0  0  0  0
    8.4713  -14.7877   23.7105 C   0  0  0  0  0  0  0  0  0  0  0  0
    7.2023  -14.0388   24.0218 C   0  0  0  0  0  0  0  0  0  0  0  0
    7.2464  -13.3960   25.3571 C   0  0  0  0  0  0  0  0  0  0  0  0
    8.0855  -12.3553   25.6913 C   0  0  0  0  0  0  0  0  0  0  0  0
    8.0910  -11.7874   26.9535 C   0  0  0  0  0  0  0  0  0  0  0  0
    7.2465  -12.2435   27.9450 C   0  0  0  0  0  0  0  0  0  0  0  0
    6.4036  -13.2889   27.6093 C   0  0  0  0  0  0  0  0  0  0  0  0
    6.3988  -13.8552   26.3490 C   0  0  0  0  0  0  0  0  0  0  0  0
    8.7087  -15.8801   24.7040 O   0  0  0  0  0  0  0  0  0  0  0  0
    7.9233  -16.8512   24.8512 N   0  0  0  0  0  0  0  0  0  0  0  0
    9.8661  -15.8612   25.5445 C   0  0  1  0  0  0  0  0  0  0  0  0
   10.1813  -16.9289   26.4713 C   0  0  0  0  0  0  0  0  0  0  0  0
   11.5872  -17.4829   26.2171 C   0  0  0  0  0  0  0  0  0  0  0  0
   11.5605  -18.0923   24.8322 C   0  0  0  0  0  0  0  0  0  0  0  0
   12.8985  -18.6930   24.4607 C   0  0  0  0  0  0  0  0  0  0  0  0
   12.7704  -19.3641   23.1099 N   0  0  0  0  0  0  0  0  0  0  0  0
   14.1066  -19.7910   22.7091 C   0  0  0  0  0  0  0  0  0  0  0  0
   10.1027  -16.3477   27.8570 O   0  0  0  0  0  0  0  0  0  0  0  0
   10.2393  -17.0669   28.8849 O   0  0  0  0  0  0  0  0  0  0  0  0
  2  1  1  0
  3  2  2  0
  4  2  1  0
  5  4  1  0
  6  5  1  0
  7  8  1  0
  7  6  1  0
  8  9  1  1
 10  8  1  0
 11 10  2  0
 12 10  1  0
 13 21  1  0
 13 12  1  0
 13 14  1  6
 15 14  1  0
 16 15  2  0
 17 16  1  0
 18 19  1  0
 18 17  2  0
 19 20  2  0
 20 15  1  0
 21 23  1  0
 22 21  2  0
 23 24  1  0
 24 30  1  0
 24 25  1  1
 25 26  1  0
 26 27  1  0
 28 27  1  0
 28 29  1  0
 30 32  1  0
 31 30  2  0
M  END
$$$$
