RFK.pdb
     RDKit          3D

 32 32  0  0  1  0  0  0  0  0999 V2000
    7.9631  -15.3610   16.9815 N   0  0  0  0  0  0  0  0  0  0  0  0
    8.1201  -13.9414   16.8002 C   0  0  0  0  0  0  0  0  0  0  0  0
    8.6288  -13.4976   15.7078 N   0  0  0  0  0  0  0  0  0  0  0  0
    7.7018  -13.0686   17.8480 N   0  0  0  0  0  0  0  0  0  0  0  0
    8.2955  -13.2736   19.1845 C   0  0  0  0  0  0  0  0  0  0  0  0
    7.5342  -14.3237   19.9351 C   0  0  0  0  0  0  0  0  0  0  0  0
    8.0281  -14.5491   21.3241 C   0  0  0  0  0  0  0  0  0  0  0  0
    9.1284  -15.5350   21.4383 C   0  0  2  0  0  0  0  0  0  0  0  0
    9.1251  -16.6028   20.4773 N   0  0  0  0  0  0  0  0  0  0  0  0
    9.2343  -16.0886   22.8387 C   0  0  0  0  0  0  0  0  0  0  0  0
    8.9889  -17.3037   23.0410 O   0  0  0  0  0  0  0  0  0  0  0  0
    8.9019  -12.5309   15.4977 N   0  0  0  0  0  0  0  0  0  0  0  0
    9.6047  -15.2716   23.9391 C   0  0  2  0  0  0  0  0  0  0  0  0
    8.9725  -15.4375   25.2549 C   0  0  0  0  0  0  0  0  0  0  0  0
    7.5042  -15.1096   25.1868 C   0  0  0  0  0  0  0  0  0  0  0  0
    7.2219  -13.7193   25.6173 C   0  0  0  0  0  0  0  0  0  0  0  0
    8.1445  -12.8880   26.2144 C   0  0  0  0  0  0  0  0  0  0  0  0
    7.8334  -11.5958   26.6003 C   0  0  0  0  0  0  0  0  0  0  0  0
    6.5704  -11.0762   26.4018 C   0  0  0  0  0  0  0  0  0  0  0  0
    5.6436  -11.9111   25.8020 C   0  0  0  0  0  0  0  0  0  0  0  0
    5.9551  -13.2011   25.4171 C   0  0  0  0  0  0  0  0  0  0  0  0
    9.1873  -16.8654   25.6446 O   0  0  0  0  0  0  0  0  0  0  0  0
    8.2859  -17.7384   25.5617 N   0  0  0  0  0  0  0  0  0  0  0  0
   10.4569  -17.3026   26.1379 C   0  0  1  0  0  0  0  0  0  0  0  0
   10.6797  -18.6346   26.6615 C   0  0  0  0  0  0  0  0  0  0  0  0
   12.0284  -19.1923   26.1946 C   0  0  0  0  0  0  0  0  0  0  0  0
   11.9660  -19.2478   24.6836 C   0  0  0  0  0  0  0  0  0  0  0  0
   13.2626  -19.7521   24.0893 C   0  0  0  0  0  0  0  0  0  0  0  0
   13.1032  -19.8465   22.5870 N   0  0  0  0  0  0  0  0  0  0  0  0
   14.4032  -20.2115   22.0347 C   0  0  0  0  0  0  0  0  0  0  0  0
   10.6618  -18.5275   28.1623 O   0  0  0  0  0  0  0  0  0  0  0  0
   10.5583  -17.4129   28.7449 O   0  0  0  0  0  0  0  0  0  0  0  0
  2  1  1  0
  3  2  2  0
  4  2  1  0
  5  4  1  0
  6  5  1  0
  7  8  1  0
  7  6  1  0
  8  9  1  6
 10  8  1  0
 11 10  2  0
 12 10  1  0
 13 21  1  0
 13 12  1  0
 13 14  1  1
 15 14  1  0
 16 15  2  0
 17 16  1  0
 18 19  1  0
 18 17  2  0
 19 20  2  0
 20 15  1  0
 21 23  1  0
 22 21  2  0
 23 24  1  0
 24 30  1  0
 24 25  1  1
 25 26  1  0
 26 27  1  0
 28 27  1  0
 28 29  1  0
 30 32  1  0
 31 30  2  0
M  END
$$$$
