RFK.pdb
     RDKit          3D

 32 32  0  0  1  0  0  0  0  0999 V2000
    9.9822  -19.5820   15.6148 N   0  0  0  0  0  0  0  0  0  0  0  0
   10.5809  -20.0513   16.8372 C   0  0  0  0  0  0  0  0  0  0  0  0
   11.2277  -21.1607   16.8372 N   0  0  0  0  0  0  0  0  0  0  0  0
   10.4348  -19.2620   18.0162 N   0  0  0  0  0  0  0  0  0  0  0  0
    9.1428  -18.5773   18.2231 C   0  0  0  0  0  0  0  0  0  0  0  0
    8.4293  -19.1613   19.4044 C   0  0  0  0  0  0  0  0  0  0  0  0
    8.4455  -18.2858   20.6117 C   0  0  0  0  0  0  0  0  0  0  0  0
    8.8456  -16.8824   20.3542 C   0  0  2  0  0  0  0  0  0  0  0  0
    9.9872  -16.6947   19.5025 N   0  0  0  0  0  0  0  0  0  0  0  0
    9.0159  -16.1093   21.6395 C   0  0  0  0  0  0  0  0  0  0  0  0
   10.1213  -16.1404   22.2352 O   0  0  0  0  0  0  0  0  0  0  0  0
   11.6847  -21.6130   17.6371 N   0  0  0  0  0  0  0  0  0  0  0  0
    7.9578  -15.3447   22.1974 C   0  0  1  0  0  0  0  0  0  0  0  0
    8.1252  -14.6326   23.4716 C   0  0  0  0  0  0  0  0  0  0  0  0
    6.9744  -13.6914   23.7122 C   0  0  0  0  0  0  0  0  0  0  0  0
    7.0505  -13.0451   25.0444 C   0  0  0  0  0  0  0  0  0  0  0  0
    6.2721  -13.3983   26.1251 C   0  0  0  0  0  0  0  0  0  0  0  0
    6.3788  -12.7641   27.3507 C   0  0  0  0  0  0  0  0  0  0  0  0
    7.2803  -11.7380   27.5472 C   0  0  0  0  0  0  0  0  0  0  0  0
    8.0623  -11.3832   26.4616 C   0  0  0  0  0  0  0  0  0  0  0  0
    7.9550  -12.0168   25.2384 C   0  0  0  0  0  0  0  0  0  0  0  0
    8.1904  -15.6846   24.5326 O   0  0  0  0  0  0  0  0  0  0  0  0
    7.3043  -16.5654   24.6758 N   0  0  0  0  0  0  0  0  0  0  0  0
    9.2900  -15.7299   25.4466 C   0  0  1  0  0  0  0  0  0  0  0  0
    9.6630  -16.9295   26.1677 C   0  0  0  0  0  0  0  0  0  0  0  0
   10.6163  -17.7972   25.3392 C   0  0  0  0  0  0  0  0  0  0  0  0
   10.9272  -19.0138   26.1837 C   0  0  0  0  0  0  0  0  0  0  0  0
   11.3525  -20.1902   25.3328 C   0  0  0  0  0  0  0  0  0  0  0  0
   11.6067  -21.3766   26.2379 N   0  0  0  0  0  0  0  0  0  0  0  0
   12.0164  -22.4901   25.3891 C   0  0  0  0  0  0  0  0  0  0  0  0
   10.3431  -16.4887   27.4355 O   0  0  0  0  0  0  0  0  0  0  0  0
   10.1175  -17.0569   28.5395 O   0  0  0  0  0  0  0  0  0  0  0  0
  2  1  1  0
  3  2  2  0
  4  2  1  0
  5  4  1  0
  6  5  1  0
  7  8  1  0
  7  6  1  0
  8  9  1  1
 10  8  1  0
 11 10  2  0
 12 10  1  0
 13 21  1  0
 13 12  1  0
 13 14  1  1
 15 14  1  0
 16 15  2  0
 17 16  1  0
 18 19  1  0
 18 17  2  0
 19 20  2  0
 20 15  1  0
 21 23  1  0
 22 21  2  0
 23 24  1  0
 24 30  1  0
 24 25  1  1
 25 26  1  0
 26 27  1  0
 28 27  1  0
 28 29  1  0
 30 32  1  0
 31 30  2  0
M  END
$$$$
