SWK.pdb
     RDKit          3D

 30 31  0  0  1  0  0  0  0  0999 V2000
   27.4872  -18.4484  -14.5437 O   0  0  0  0  0  0  0  0  0  0  0  0
   27.7253  -19.5870  -15.2780 C   0  0  0  0  0  0  0  0  0  0  0  0
   28.4595  -20.6608  -14.5081 C   0  0  2  0  0  0  0  0  0  0  0  0
   28.5728  -21.8348  -15.3627 N   0  0  0  0  0  0  0  0  0  0  0  0
   27.6523  -21.0126  -13.3220 C   0  0  0  0  0  0  0  0  0  0  0  0
   26.6141  -21.7005  -13.4763 O   0  0  0  0  0  0  0  0  0  0  0  0
   27.9852  -20.6180  -12.0223 N   0  0  0  0  0  0  0  0  0  0  0  0
   27.1452  -20.9060  -10.8770 C   0  0  1  0  0  0  0  0  0  0  0  0
   27.8616  -20.3476   -9.6735 C   0  0  0  0  0  0  0  0  0  0  0  0
   27.1241  -20.4904   -8.4175 C   0  0  0  0  0  0  0  0  0  0  0  0
   25.8526  -20.9913   -8.2016 C   0  0  0  0  0  0  0  0  0  0  0  0
   25.5794  -20.9359   -6.9029 N   0  0  0  0  0  0  0  0  0  0  0  0
   26.6172  -20.4125   -6.1992 C   0  0  0  0  0  0  0  0  0  0  0  0
   26.8299  -20.1507   -4.8712 C   0  0  0  0  0  0  0  0  0  0  0  0
   28.0154  -19.6037   -4.4621 C   0  0  0  0  0  0  0  0  0  0  0  0
   28.9857  -19.3220   -5.3994 C   0  0  0  0  0  0  0  0  0  0  0  0
   28.7677  -19.5864   -6.7296 C   0  0  0  0  0  0  0  0  0  0  0  0
   27.5827  -20.1351   -7.1539 C   0  0  0  0  0  0  0  0  0  0  0  0
   25.7806  -20.4112  -11.0247 C   0  0  0  0  0  0  0  0  0  0  0  0
   25.6022  -19.1813  -11.2183 O   0  0  0  0  0  0  0  0  0  0  0  0
   24.5999  -21.2231  -10.9670 N   0  0  0  0  0  0  0  0  0  0  0  0
   23.3325  -20.7612  -11.4923 C   0  0  1  0  0  0  0  0  0  0  0  0
   22.8270  -21.7009  -12.5818 C   0  0  0  0  0  0  0  0  0  0  0  0
   21.5054  -21.1917  -13.0722 C   0  0  0  0  0  0  0  0  0  0  0  0
   20.8857  -22.0214  -14.1373 C   0  0  0  0  0  0  0  0  0  0  0  0
   19.5919  -21.5296  -14.6870 C   0  0  0  0  0  0  0  0  0  0  0  0
   19.0542  -22.2702  -15.7797 N   0  0  0  0  0  0  0  0  0  0  0  0
   22.3690  -20.6985  -10.3771 C   0  0  0  0  0  0  0  0  0  0  0  0
   21.5500  -19.7545  -10.2999 O   0  0  0  0  0  0  0  0  0  0  0  0
   22.3549  -21.6772   -9.4029 O   0  0  0  0  0  0  0  0  0  0  0  0
  1  2  1  0
  2  3  1  0
  3  5  1  0
  3  4  1  6
  5  6  2  0
  7  8  1  0
  7  5  1  0
  9 10  1  0
  8  9  1  1
 10 11  2  0
 12 11  1  0
 13 12  1  0
 14 13  2  0
 15 14  1  0
 16 15  2  0
 16 17  1  0
 17 18  2  0
 18 13  1  0
 18 10  1  0
 19 20  2  0
 19  8  1  0
 21 19  1  0
 22 21  1  0
 22 28  1  0
 22 23  1  6
 24 23  1  0
 25 24  1  0
 26 25  1  0
 27 26  1  0
 28 29  2  0
 28 30  1  0
M  END
$$$$
