SWK.pdb
     RDKit          3D

 30 31  0  0  1  0  0  0  0  0999 V2000
   27.0373  -18.8327  -15.2539 O   0  0  0  0  0  0  0  0  0  0  0  0
   27.9802  -18.5847  -14.2834 C   0  0  0  0  0  0  0  0  0  0  0  0
   28.5566  -19.8379  -13.6657 C   0  0  2  0  0  0  0  0  0  0  0  0
   28.9967  -20.7138  -14.7430 N   0  0  0  0  0  0  0  0  0  0  0  0
   27.4837  -20.5163  -12.9101 C   0  0  0  0  0  0  0  0  0  0  0  0
   26.9705  -21.5577  -13.3867 O   0  0  0  0  0  0  0  0  0  0  0  0
   27.0034  -20.0577  -11.6794 N   0  0  0  0  0  0  0  0  0  0  0  0
   25.9723  -20.7510  -10.9335 C   0  0  1  0  0  0  0  0  0  0  0  0
   26.1099  -20.3022   -9.5006 C   0  0  0  0  0  0  0  0  0  0  0  0
   27.3599  -20.7144   -8.8609 C   0  0  0  0  0  0  0  0  0  0  0  0
   28.3684  -21.5243   -9.3520 C   0  0  0  0  0  0  0  0  0  0  0  0
   29.3221  -21.6342   -8.4340 N   0  0  0  0  0  0  0  0  0  0  0  0
   29.0169  -20.9280   -7.3140 C   0  0  0  0  0  0  0  0  0  0  0  0
   29.6507  -20.7229   -6.1167 C   0  0  0  0  0  0  0  0  0  0  0  0
   29.0694  -19.9367   -5.1597 C   0  0  0  0  0  0  0  0  0  0  0  0
   27.8451  -19.3581   -5.4163 C   0  0  0  0  0  0  0  0  0  0  0  0
   27.2137  -19.5668   -6.6183 C   0  0  0  0  0  0  0  0  0  0  0  0
   27.7857  -20.3535   -7.5875 C   0  0  0  0  0  0  0  0  0  0  0  0
   24.6342  -20.5533  -11.4804 C   0  0  0  0  0  0  0  0  0  0  0  0
   24.2234  -19.3783  -11.6605 O   0  0  0  0  0  0  0  0  0  0  0  0
   23.7275  -21.6052  -11.8381 N   0  0  0  0  0  0  0  0  0  0  0  0
   22.4493  -21.3296  -12.4591 C   0  0  1  0  0  0  0  0  0  0  0  0
   21.8041  -22.6184  -12.9574 C   0  0  0  0  0  0  0  0  0  0  0  0
   20.4496  -22.2891  -13.5081 C   0  0  0  0  0  0  0  0  0  0  0  0
   19.6878  -23.4635  -14.0052 C   0  0  0  0  0  0  0  0  0  0  0  0
   18.3523  -23.1792  -14.5999 C   0  0  0  0  0  0  0  0  0  0  0  0
   17.5636  -24.3168  -14.9399 N   0  0  0  0  0  0  0  0  0  0  0  0
   21.5856  -20.6730  -11.4598 C   0  0  0  0  0  0  0  0  0  0  0  0
   20.8369  -19.7264  -11.7936 O   0  0  0  0  0  0  0  0  0  0  0  0
   21.5888  -21.0905  -10.1434 O   0  0  0  0  0  0  0  0  0  0  0  0
  1  2  1  0
  2  3  1  0
  3  5  1  0
  3  4  1  6
  5  6  2  0
  7  8  1  0
  7  5  1  0
  9 10  1  0
  8  9  1  1
 10 11  2  0
 12 11  1  0
 13 12  1  0
 14 13  2  0
 15 14  1  0
 16 15  2  0
 16 17  1  0
 17 18  2  0
 18 13  1  0
 18 10  1  0
 19 20  2  0
 19  8  1  0
 21 19  1  0
 22 21  1  0
 22 28  1  0
 22 23  1  1
 24 23  1  0
 25 24  1  0
 26 25  1  0
 27 26  1  0
 28 29  2  0
 28 30  1  0
M  END
$$$$
