SWK.pdb
     RDKit          3D

 30 31  0  0  1  0  0  0  0  0999 V2000
   26.6344  -21.0698  -17.0396 O   0  0  0  0  0  0  0  0  0  0  0  0
   27.0952  -20.6467  -15.8144 C   0  0  0  0  0  0  0  0  0  0  0  0
   27.8212  -21.7208  -15.0373 C   0  0  2  0  0  0  0  0  0  0  0  0
   27.6750  -22.9787  -15.7568 N   0  0  0  0  0  0  0  0  0  0  0  0
   27.1747  -21.8515  -13.7155 C   0  0  0  0  0  0  0  0  0  0  0  0
   26.3450  -22.7755  -13.5341 O   0  0  0  0  0  0  0  0  0  0  0  0
   27.4396  -20.9940  -12.6431 N   0  0  0  0  0  0  0  0  0  0  0  0
   26.7228  -21.0677  -11.3857 C   0  0  1  0  0  0  0  0  0  0  0  0
   27.4763  -20.1938  -10.4152 C   0  0  0  0  0  0  0  0  0  0  0  0
   26.8638  -20.1044   -9.0891 C   0  0  0  0  0  0  0  0  0  0  0  0
   25.5477  -19.8462   -8.7488 C   0  0  0  0  0  0  0  0  0  0  0  0
   25.4316  -19.8582   -7.4257 N   0  0  0  0  0  0  0  0  0  0  0  0
   26.6227  -20.1163   -6.8250 C   0  0  0  0  0  0  0  0  0  0  0  0
   27.0246  -20.2326   -5.5203 C   0  0  0  0  0  0  0  0  0  0  0  0
   28.3329  -20.5058   -5.2282 C   0  0  0  0  0  0  0  0  0  0  0  0
   29.2345  -20.6613   -6.2590 C   0  0  0  0  0  0  0  0  0  0  0  0
   28.8266  -20.5438   -7.5655 C   0  0  0  0  0  0  0  0  0  0  0  0
   27.5168  -20.2698   -7.8728 C   0  0  0  0  0  0  0  0  0  0  0  0
   25.3106  -20.7216  -11.5067 C   0  0  0  0  0  0  0  0  0  0  0  0
   24.9945  -19.6968  -12.1637 O   0  0  0  0  0  0  0  0  0  0  0  0
   24.2286  -21.4647  -10.9291 N   0  0  0  0  0  0  0  0  0  0  0  0
   22.8543  -21.2386  -11.3234 C   0  0  1  0  0  0  0  0  0  0  0  0
   21.9514  -22.3438  -10.7858 C   0  0  0  0  0  0  0  0  0  0  0  0
   20.5443  -22.0584  -11.2158 C   0  0  0  0  0  0  0  0  0  0  0  0
   19.5417  -23.0368  -10.7213 C   0  0  0  0  0  0  0  0  0  0  0  0
   18.1198  -22.7518  -11.0601 C   0  0  0  0  0  0  0  0  0  0  0  0
   17.1522  -23.6274  -10.4868 N   0  0  0  0  0  0  0  0  0  0  0  0
   22.4350  -19.9269  -10.7947 C   0  0  0  0  0  0  0  0  0  0  0  0
   22.7772  -19.5685   -9.6448 O   0  0  0  0  0  0  0  0  0  0  0  0
   21.6602  -19.0753  -11.5576 O   0  0  0  0  0  0  0  0  0  0  0  0
  1  2  1  0
  2  3  1  0
  3  5  1  0
  3  4  1  6
  5  6  2  0
  7  8  1  0
  7  5  1  0
  9 10  1  0
  8  9  1  1
 10 11  2  0
 12 11  1  0
 13 12  1  0
 14 13  2  0
 15 14  1  0
 16 15  2  0
 16 17  1  0
 17 18  2  0
 18 13  1  0
 18 10  1  0
 19 20  2  0
 19  8  1  0
 21 19  1  0
 22 21  1  0
 22 28  1  0
 22 23  1  1
 24 23  1  0
 25 24  1  0
 26 25  1  0
 27 26  1  0
 28 29  2  0
 28 30  1  0
M  END
$$$$
