SWK.pdb
     RDKit          3D

 30 31  0  0  1  0  0  0  0  0999 V2000
   26.3775  -19.6533  -15.8866 O   0  0  0  0  0  0  0  0  0  0  0  0
   27.6143  -19.3531  -15.3643 C   0  0  0  0  0  0  0  0  0  0  0  0
   28.2781  -20.5210  -14.6716 C   0  0  2  0  0  0  0  0  0  0  0  0
   28.3463  -21.6288  -15.6147 N   0  0  0  0  0  0  0  0  0  0  0  0
   27.4325  -20.9215  -13.5284 C   0  0  0  0  0  0  0  0  0  0  0  0
   26.7966  -22.0016  -13.5926 O   0  0  0  0  0  0  0  0  0  0  0  0
   27.3006  -20.1559  -12.3657 N   0  0  0  0  0  0  0  0  0  0  0  0
   26.5620  -20.6138  -11.2060 C   0  0  1  0  0  0  0  0  0  0  0  0
   27.0770  -19.8188  -10.0329 C   0  0  0  0  0  0  0  0  0  0  0  0
   26.5318  -20.2359   -8.7405 C   0  0  0  0  0  0  0  0  0  0  0  0
   25.3632  -20.9235   -8.4647 C   0  0  0  0  0  0  0  0  0  0  0  0
   25.2590  -21.0922   -7.1513 N   0  0  0  0  0  0  0  0  0  0  0  0
   26.3158  -20.5457   -6.4952 C   0  0  0  0  0  0  0  0  0  0  0  0
   26.6711  -20.4530   -5.1751 C   0  0  0  0  0  0  0  0  0  0  0  0
   27.8320  -19.8217   -4.8208 C   0  0  0  0  0  0  0  0  0  0  0  0
   28.6332  -19.2840   -5.8049 C   0  0  0  0  0  0  0  0  0  0  0  0
   28.2727  -19.3796   -7.1270 C   0  0  0  0  0  0  0  0  0  0  0  0
   27.1104  -20.0104   -7.4965 C   0  0  0  0  0  0  0  0  0  0  0  0
   25.1151  -20.5319  -11.3755 C   0  0  0  0  0  0  0  0  0  0  0  0
   24.6288  -19.5108  -11.9256 O   0  0  0  0  0  0  0  0  0  0  0  0
   24.1796  -21.5364  -10.9605 N   0  0  0  0  0  0  0  0  0  0  0  0
   22.7641  -21.4201  -11.2403 C   0  0  1  0  0  0  0  0  0  0  0  0
   21.9455  -21.6316   -9.9712 C   0  0  0  0  0  0  0  0  0  0  0  0
   20.4913  -21.5677  -10.3281 C   0  0  0  0  0  0  0  0  0  0  0  0
   19.9038  -22.8680  -10.7418 C   0  0  0  0  0  0  0  0  0  0  0  0
   18.4678  -22.8468  -11.1362 C   0  0  0  0  0  0  0  0  0  0  0  0
   17.9332  -24.0767  -11.6189 N   0  0  0  0  0  0  0  0  0  0  0  0
   22.5152  -20.0770  -11.7971 C   0  0  0  0  0  0  0  0  0  0  0  0
   22.5692  -19.0659  -11.0606 O   0  0  0  0  0  0  0  0  0  0  0  0
   22.2193  -19.9137  -13.1362 O   0  0  0  0  0  0  0  0  0  0  0  0
  1  2  1  0
  2  3  1  0
  3  5  1  0
  3  4  1  6
  5  6  2  0
  7  8  1  0
  7  5  1  0
  9 10  1  0
  8  9  1  1
 10 11  2  0
 12 11  1  0
 13 12  1  0
 14 13  2  0
 15 14  1  0
 16 15  2  0
 16 17  1  0
 17 18  2  0
 18 13  1  0
 18 10  1  0
 19 20  2  0
 19  8  1  0
 21 19  1  0
 22 21  1  0
 22 28  1  0
 22 23  1  1
 24 23  1  0
 25 24  1  0
 26 25  1  0
 27 26  1  0
 28 29  2  0
 28 30  1  0
M  END
$$$$
