SWK.pdb
     RDKit          3D

 30 31  0  0  1  0  0  0  0  0999 V2000
   27.0766  -19.0077  -15.2726 O   0  0  0  0  0  0  0  0  0  0  0  0
   28.3634  -19.3178  -14.8978 C   0  0  0  0  0  0  0  0  0  0  0  0
   28.5539  -20.7728  -14.5357 C   0  0  2  0  0  0  0  0  0  0  0  0
   28.0913  -21.5831  -15.6541 N   0  0  0  0  0  0  0  0  0  0  0  0
   27.7159  -21.0689  -13.3557 C   0  0  0  0  0  0  0  0  0  0  0  0
   26.6115  -21.6409  -13.5234 O   0  0  0  0  0  0  0  0  0  0  0  0
   28.0896  -20.7444  -12.0478 N   0  0  0  0  0  0  0  0  0  0  0  0
   27.2140  -20.9448  -10.9105 C   0  0  1  0  0  0  0  0  0  0  0  0
   27.9817  -20.4849   -9.6970 C   0  0  0  0  0  0  0  0  0  0  0  0
   27.1855  -20.4275   -8.4704 C   0  0  0  0  0  0  0  0  0  0  0  0
   25.8454  -20.7164   -8.2829 C   0  0  0  0  0  0  0  0  0  0  0  0
   25.5363  -20.5301   -7.0046 N   0  0  0  0  0  0  0  0  0  0  0  0
   26.6151  -20.1197   -6.2878 C   0  0  0  0  0  0  0  0  0  0  0  0
   26.8163  -19.8003   -4.9706 C   0  0  0  0  0  0  0  0  0  0  0  0
   28.0554  -19.4095   -4.5420 C   0  0  0  0  0  0  0  0  0  0  0  0
   29.0911  -19.3423   -5.4487 C   0  0  0  0  0  0  0  0  0  0  0  0
   28.8844  -19.6636   -6.7682 C   0  0  0  0  0  0  0  0  0  0  0  0
   27.6461  -20.0573   -7.2119 C   0  0  0  0  0  0  0  0  0  0  0  0
   25.9168  -20.2943  -11.0608 C   0  0  0  0  0  0  0  0  0  0  0  0
   25.8842  -19.0566  -11.2817 O   0  0  0  0  0  0  0  0  0  0  0  0
   24.6484  -20.9582  -10.9766 N   0  0  0  0  0  0  0  0  0  0  0  0
   23.4258  -20.3222  -11.4195 C   0  0  1  0  0  0  0  0  0  0  0  0
   23.2591  -20.4684  -12.9283 C   0  0  0  0  0  0  0  0  0  0  0  0
   21.9883  -19.7852  -13.3339 C   0  0  0  0  0  0  0  0  0  0  0  0
   21.6976  -19.8450  -14.7894 C   0  0  0  0  0  0  0  0  0  0  0  0
   20.9011  -18.7181  -15.3495 C   0  0  0  0  0  0  0  0  0  0  0  0
   20.5230  -18.8386  -16.7184 N   0  0  0  0  0  0  0  0  0  0  0  0
   22.2968  -20.9551  -10.7118 C   0  0  0  0  0  0  0  0  0  0  0  0
   21.4271  -20.2514  -10.1495 O   0  0  0  0  0  0  0  0  0  0  0  0
   22.1813  -22.3302  -10.6583 O   0  0  0  0  0  0  0  0  0  0  0  0
  1  2  1  0
  2  3  1  0
  3  5  1  0
  3  4  1  6
  5  6  2  0
  7  8  1  0
  7  5  1  0
  9 10  1  0
  8  9  1  1
 10 11  2  0
 12 11  1  0
 13 12  1  0
 14 13  2  0
 15 14  1  0
 16 15  2  0
 16 17  1  0
 17 18  2  0
 18 13  1  0
 18 10  1  0
 19 20  2  0
 19  8  1  0
 21 19  1  0
 22 21  1  0
 22 28  1  0
 22 23  1  6
 24 23  1  0
 25 24  1  0
 26 25  1  0
 27 26  1  0
 28 29  2  0
 28 30  1  0
M  END
$$$$
