SWK.pdb
     RDKit          3D

 30 31  0  0  1  0  0  0  0  0999 V2000
   19.2304   -9.6441  -21.1810 O   0  0  0  0  0  0  0  0  0  0  0  0
   20.5981   -9.5739  -21.0512 C   0  0  0  0  0  0  0  0  0  0  0  0
   21.1085  -10.1034  -19.7307 C   0  0  2  0  0  0  0  0  0  0  0  0
   20.3845  -11.3291  -19.4230 N   0  0  0  0  0  0  0  0  0  0  0  0
   20.8127   -9.1018  -18.6859 C   0  0  0  0  0  0  0  0  0  0  0  0
   19.6661   -9.0763  -18.1764 O   0  0  0  0  0  0  0  0  0  0  0  0
   21.7501   -8.1709  -18.2274 N   0  0  0  0  0  0  0  0  0  0  0  0
   21.4529   -7.2078  -17.1862 C   0  0  1  0  0  0  0  0  0  0  0  0
   22.6725   -7.1482  -16.3016 C   0  0  0  0  0  0  0  0  0  0  0  0
   22.7841   -8.2620  -15.3590 C   0  0  0  0  0  0  0  0  0  0  0  0
   23.5173   -9.4304  -15.4680 C   0  0  0  0  0  0  0  0  0  0  0  0
   23.3281  -10.1644  -14.3772 N   0  0  0  0  0  0  0  0  0  0  0  0
   22.4861   -9.5503  -13.5054 C   0  0  0  0  0  0  0  0  0  0  0  0
   21.9854   -9.8811  -12.2737 C   0  0  0  0  0  0  0  0  0  0  0  0
   21.1325   -9.0274  -11.6290 C   0  0  0  0  0  0  0  0  0  0  0  0
   20.7868   -7.8378  -12.2331 C   0  0  0  0  0  0  0  0  0  0  0  0
   21.2916   -7.5107  -13.4682 C   0  0  0  0  0  0  0  0  0  0  0  0
   22.1484   -8.3581  -14.1262 C   0  0  0  0  0  0  0  0  0  0  0  0
   21.0447   -5.9065  -17.7047 C   0  0  0  0  0  0  0  0  0  0  0  0
   21.7543   -5.3588  -18.5870 O   0  0  0  0  0  0  0  0  0  0  0  0
   19.8795   -5.1825  -17.2868 N   0  0  0  0  0  0  0  0  0  0  0  0
   19.5181   -3.9135  -17.8819 C   0  0  1  0  0  0  0  0  0  0  0  0
   18.2262   -4.0428  -18.6819 C   0  0  0  0  0  0  0  0  0  0  0  0
   17.9071   -2.7094  -19.2872 C   0  0  0  0  0  0  0  0  0  0  0  0
   16.6415   -2.6758  -20.0643 C   0  0  0  0  0  0  0  0  0  0  0  0
   16.6590   -3.3682  -21.3828 C   0  0  0  0  0  0  0  0  0  0  0  0
   15.4700   -3.2617  -22.1614 N   0  0  0  0  0  0  0  0  0  0  0  0
   19.3567   -2.9271  -16.7971 C   0  0  0  0  0  0  0  0  0  0  0  0
   18.5287   -3.1250  -15.8789 O   0  0  0  0  0  0  0  0  0  0  0  0
   20.1143   -1.7726  -16.7768 O   0  0  0  0  0  0  0  0  0  0  0  0
  1  2  1  0
  2  3  1  0
  3  5  1  0
  3  4  1  1
  5  6  2  0
  7  8  1  0
  7  5  1  0
  9 10  1  0
  8  9  1  6
 10 11  2  0
 12 11  1  0
 13 12  1  0
 14 13  2  0
 15 14  1  0
 16 15  2  0
 16 17  1  0
 17 18  2  0
 18 13  1  0
 18 10  1  0
 19 20  2  0
 19  8  1  0
 21 19  1  0
 22 21  1  0
 22 28  1  0
 22 23  1  1
 24 23  1  0
 25 24  1  0
 26 25  1  0
 27 26  1  0
 28 29  2  0
 28 30  1  0
M  END
$$$$
