SWK.pdb
     RDKit          3D

 30 31  0  0  1  0  0  0  0  0999 V2000
   13.0959  -21.9143    2.4144 O   0  0  0  0  0  0  0  0  0  0  0  0
   14.3486  -21.6845    2.9344 C   0  0  0  0  0  0  0  0  0  0  0  0
   15.1206  -20.6119    2.2010 C   0  0  2  0  0  0  0  0  0  0  0  0
   15.3282  -21.0589    0.8305 N   0  0  0  0  0  0  0  0  0  0  0  0
   16.4361  -20.4600    2.8557 C   0  0  0  0  0  0  0  0  0  0  0  0
   17.4242  -21.0720    2.3823 O   0  0  0  0  0  0  0  0  0  0  0  0
   16.6439  -19.6626    3.9855 N   0  0  0  0  0  0  0  0  0  0  0  0
   17.9609  -19.4120    4.5359 C   0  0  1  0  0  0  0  0  0  0  0  0
   18.0437  -17.9264    4.7802 C   0  0  0  0  0  0  0  0  0  0  0  0
   18.2543  -17.1309    3.5701 C   0  0  0  0  0  0  0  0  0  0  0  0
   17.3312  -16.4385    2.8065 C   0  0  0  0  0  0  0  0  0  0  0  0
   17.9589  -15.8528    1.7930 N   0  0  0  0  0  0  0  0  0  0  0  0
   19.2927  -16.1108    1.8192 C   0  0  0  0  0  0  0  0  0  0  0  0
   20.3469  -15.7511    1.0214 C   0  0  0  0  0  0  0  0  0  0  0  0
   21.6102  -16.1839    1.3190 C   0  0  0  0  0  0  0  0  0  0  0  0
   21.8051  -16.9818    2.4258 C   0  0  0  0  0  0  0  0  0  0  0  0
   20.7449  -17.3397    3.2225 C   0  0  0  0  0  0  0  0  0  0  0  0
   19.4720  -16.9124    2.9355 C   0  0  0  0  0  0  0  0  0  0  0  0
   18.2529  -20.2145    5.7189 C   0  0  0  0  0  0  0  0  0  0  0  0
   17.3753  -20.3108    6.6146 O   0  0  0  0  0  0  0  0  0  0  0  0
   19.4803  -20.9182    5.9537 N   0  0  0  0  0  0  0  0  0  0  0  0
   19.6950  -21.6928    7.1575 C   0  0  1  0  0  0  0  0  0  0  0  0
   20.9600  -22.5359    7.0365 C   0  0  0  0  0  0  0  0  0  0  0  0
   21.2310  -23.1783    8.3632 C   0  0  0  0  0  0  0  0  0  0  0  0
   21.2949  -24.6619    8.3243 C   0  0  0  0  0  0  0  0  0  0  0  0
   21.5145  -25.3466    9.6285 C   0  0  0  0  0  0  0  0  0  0  0  0
   21.7168  -26.7563    9.5691 N   0  0  0  0  0  0  0  0  0  0  0  0
   19.8052  -20.7567    8.2921 C   0  0  0  0  0  0  0  0  0  0  0  0
   19.3224  -21.0546    9.4084 O   0  0  0  0  0  0  0  0  0  0  0  0
   20.4411  -19.5400    8.1418 O   0  0  0  0  0  0  0  0  0  0  0  0
  1  2  1  0
  2  3  1  0
  3  5  1  0
  3  4  1  6
  5  6  2  0
  7  8  1  0
  7  5  1  0
  9 10  1  0
  8  9  1  1
 10 11  2  0
 12 11  1  0
 13 12  1  0
 14 13  2  0
 15 14  1  0
 16 15  2  0
 16 17  1  0
 17 18  2  0
 18 13  1  0
 18 10  1  0
 19 20  2  0
 19  8  1  0
 21 19  1  0
 22 21  1  0
 22 28  1  0
 22 23  1  6
 24 23  1  0
 25 24  1  0
 26 25  1  0
 27 26  1  0
 28 29  2  0
 28 30  1  0
M  END
$$$$
