GFE.pdb
     RDKit          3D

 25 25  0  0  1  0  0  0  0  0999 V2000
    9.2885  -16.8849   18.9408 N   0  0  0  0  0  0  0  0  0  0  0  0
    8.1087  -16.6102   19.7095 C   0  0  0  0  0  0  0  0  0  0  0  0
    8.5121  -15.9557   20.9874 C   0  0  0  0  0  0  0  0  0  0  0  0
    9.6986  -16.0381   21.4264 O   0  0  0  0  0  0  0  0  0  0  0  0
    7.6072  -15.2060   21.7891 N   0  0  0  0  0  0  0  0  0  0  0  0
    7.9417  -14.6669   23.0843 C   0  0  1  0  0  0  0  0  0  0  0  0
    6.9141  -13.6087   23.4098 C   0  0  0  0  0  0  0  0  0  0  0  0
    7.0407  -13.0583   24.7594 C   0  0  0  0  0  0  0  0  0  0  0  0
    6.2056  -13.4731   25.7735 C   0  0  0  0  0  0  0  0  0  0  0  0
    6.3123  -12.9613   27.0661 C   0  0  0  0  0  0  0  0  0  0  0  0
    7.2629  -12.0155   27.3796 C   0  0  0  0  0  0  0  0  0  0  0  0
    8.1009  -11.5969   26.3685 C   0  0  0  0  0  0  0  0  0  0  0  0
    7.9916  -12.1086   25.0834 C   0  0  0  0  0  0  0  0  0  0  0  0
    8.0100  -15.7461   24.0651 C   0  0  0  0  0  0  0  0  0  0  0  0
    7.0592  -16.5346   24.3186 O   0  0  0  0  0  0  0  0  0  0  0  0
    9.2139  -15.9510   24.8045 N   0  0  0  0  0  0  0  0  0  0  0  0
    9.4412  -17.0097   25.7046 C   0  0  1  0  0  0  0  0  0  0  0  0
   10.2831  -18.1325   25.2100 C   0  0  0  0  0  0  0  0  0  0  0  0
   11.4425  -17.8235   24.3523 C   0  0  0  0  0  0  0  0  0  0  0  0
   12.1805  -18.9811   23.8259 C   0  0  0  0  0  0  0  0  0  0  0  0
   11.9256  -20.1691   24.0939 O   0  0  0  0  0  0  0  0  0  0  0  0
    9.9271  -16.5843   27.0394 C   0  0  0  0  0  0  0  0  0  0  0  0
   10.0015  -17.4576   27.9412 O   0  0  0  0  0  0  0  0  0  0  0  0
   13.2523  -18.7012   22.9552 O   0  0  0  0  0  0  0  0  0  0  0  0
   10.3038  -15.2943   27.3610 O   0  0  0  0  0  0  0  0  0  0  0  0
  1  2  1  0
  3  5  1  0
  3  2  1  0
  4  3  2  0
  6  5  1  0
  6 14  1  0
  6  7  1  1
  8  7  1  0
  9  8  2  0
 10  9  1  0
 11 12  1  0
 11 10  2  0
 12 13  2  0
 13  8  1  0
 14 16  1  0
 15 14  2  0
 16 17  1  0
 17 22  1  0
 17 18  1  6
 19 18  1  0
 20 19  1  0
 20 24  1  0
 21 20  2  0
 22 23  2  0
 22 25  1  0
M  END
$$$$
