GFE.pdb
     RDKit          3D

 25 25  0  0  1  0  0  0  0  0999 V2000
    8.9896  -17.0917   18.8754 N   0  0  0  0  0  0  0  0  0  0  0  0
    8.1190  -17.3191   19.9930 C   0  0  0  0  0  0  0  0  0  0  0  0
    8.4463  -16.3328   21.0626 C   0  0  0  0  0  0  0  0  0  0  0  0
    9.5237  -15.6650   21.0387 O   0  0  0  0  0  0  0  0  0  0  0  0
    7.5855  -16.0779   22.1661 N   0  0  0  0  0  0  0  0  0  0  0  0
    7.9551  -15.2669   23.3000 C   0  0  1  0  0  0  0  0  0  0  0  0
    6.7078  -14.5564   23.7702 C   0  0  0  0  0  0  0  0  0  0  0  0
    6.9089  -13.7415   24.9685 C   0  0  0  0  0  0  0  0  0  0  0  0
    6.5693  -14.2206   26.2147 C   0  0  0  0  0  0  0  0  0  0  0  0
    6.7551  -13.4593   27.3680 C   0  0  0  0  0  0  0  0  0  0  0  0
    7.2887  -12.1915   27.3042 C   0  0  0  0  0  0  0  0  0  0  0  0
    7.6302  -11.7073   26.0597 C   0  0  0  0  0  0  0  0  0  0  0  0
    7.4437  -12.4678   24.9143 C   0  0  0  0  0  0  0  0  0  0  0  0
    8.5801  -16.1024   24.3212 C   0  0  0  0  0  0  0  0  0  0  0  0
    8.0565  -17.1436   24.8030 O   0  0  0  0  0  0  0  0  0  0  0  0
    9.8653  -15.7482   24.8317 N   0  0  0  0  0  0  0  0  0  0  0  0
   10.6356  -16.5391   25.7058 C   0  0  1  0  0  0  0  0  0  0  0  0
   12.1133  -16.4440   25.5593 C   0  0  0  0  0  0  0  0  0  0  0  0
   12.7075  -16.6555   24.2261 C   0  0  0  0  0  0  0  0  0  0  0  0
   14.1313  -16.3130   24.0943 C   0  0  0  0  0  0  0  0  0  0  0  0
   15.0735  -17.0250   24.4860 O   0  0  0  0  0  0  0  0  0  0  0  0
   10.2752  -16.3974   27.1371 C   0  0  0  0  0  0  0  0  0  0  0  0
    9.4935  -15.4648   27.4546 O   0  0  0  0  0  0  0  0  0  0  0  0
   14.4279  -15.0824   23.4755 O   0  0  0  0  0  0  0  0  0  0  0  0
   10.7390  -17.2192   28.1465 O   0  0  0  0  0  0  0  0  0  0  0  0
  1  2  1  0
  3  5  1  0
  3  2  1  0
  4  3  2  0
  6  5  1  0
  6 14  1  0
  6  7  1  1
  8  7  1  0
  9  8  2  0
 10  9  1  0
 11 12  1  0
 11 10  2  0
 12 13  2  0
 13  8  1  0
 14 16  1  0
 15 14  2  0
 16 17  1  0
 17 22  1  0
 17 18  1  1
 19 18  1  0
 20 19  1  0
 20 24  1  0
 21 20  2  0
 22 23  2  0
 22 25  1  0
M  END
$$$$
