GFE.pdb
     RDKit          3D

 25 25  0  0  1  0  0  0  0  0999 V2000
    4.8845  -19.0015   22.6839 N   0  0  0  0  0  0  0  0  0  0  0  0
    5.0109  -17.8861   23.5774 C   0  0  0  0  0  0  0  0  0  0  0  0
    6.3659  -17.2872   23.4060 C   0  0  0  0  0  0  0  0  0  0  0  0
    7.2259  -17.8080   22.6337 O   0  0  0  0  0  0  0  0  0  0  0  0
    6.7799  -16.1088   24.0869 N   0  0  0  0  0  0  0  0  0  0  0  0
    8.1196  -15.5779   24.0275 C   0  0  1  0  0  0  0  0  0  0  0  0
    8.0079  -14.0718   24.0561 C   0  0  0  0  0  0  0  0  0  0  0  0
    7.4171  -13.5470   25.2874 C   0  0  0  0  0  0  0  0  0  0  0  0
    8.2037  -13.2510   26.3790 C   0  0  0  0  0  0  0  0  0  0  0  0
    7.6590  -12.7487   27.5601 C   0  0  0  0  0  0  0  0  0  0  0  0
    6.3050  -12.5281   27.6805 C   0  0  0  0  0  0  0  0  0  0  0  0
    5.5135  -12.8227   26.5914 C   0  0  0  0  0  0  0  0  0  0  0  0
    6.0593  -13.3225   25.4177 C   0  0  0  0  0  0  0  0  0  0  0  0
    8.9186  -16.1323   25.1164 C   0  0  0  0  0  0  0  0  0  0  0  0
    8.4455  -16.5027   26.2251 O   0  0  0  0  0  0  0  0  0  0  0  0
   10.3292  -16.2777   24.9520 N   0  0  0  0  0  0  0  0  0  0  0  0
   11.1640  -17.0592   25.7737 C   0  0  1  0  0  0  0  0  0  0  0  0
   12.4934  -17.4240   25.2138 C   0  0  0  0  0  0  0  0  0  0  0  0
   12.5817  -17.8092   23.7928 C   0  0  0  0  0  0  0  0  0  0  0  0
   13.9237  -18.1549   23.3018 C   0  0  0  0  0  0  0  0  0  0  0  0
   14.9760  -17.5888   23.6487 O   0  0  0  0  0  0  0  0  0  0  0  0
   11.3396  -16.5293   27.1474 C   0  0  0  0  0  0  0  0  0  0  0  0
   10.9713  -15.3479   27.3708 O   0  0  0  0  0  0  0  0  0  0  0  0
   14.0006  -19.2087   22.3697 O   0  0  0  0  0  0  0  0  0  0  0  0
   11.8803  -17.2440   28.1991 O   0  0  0  0  0  0  0  0  0  0  0  0
  1  2  1  0
  3  5  1  0
  3  2  1  0
  4  3  2  0
  6  5  1  0
  6 14  1  0
  6  7  1  1
  8  7  1  0
  9  8  2  0
 10  9  1  0
 11 12  1  0
 11 10  2  0
 12 13  2  0
 13  8  1  0
 14 16  1  0
 15 14  2  0
 16 17  1  0
 17 22  1  0
 17 18  1  6
 19 18  1  0
 20 19  1  0
 20 24  1  0
 21 20  2  0
 22 23  2  0
 22 25  1  0
M  END
$$$$
