GFE.pdb
     RDKit          3D

 25 25  0  0  1  0  0  0  0  0999 V2000
    8.0857  -17.2160   18.7591 N   0  0  0  0  0  0  0  0  0  0  0  0
    7.2315  -17.3305   19.9061 C   0  0  0  0  0  0  0  0  0  0  0  0
    7.7955  -16.4981   21.0075 C   0  0  0  0  0  0  0  0  0  0  0  0
    8.9814  -16.0525   20.9584 O   0  0  0  0  0  0  0  0  0  0  0  0
    7.0532  -16.1527   22.1708 N   0  0  0  0  0  0  0  0  0  0  0  0
    7.5714  -15.3320   23.2376 C   0  0  1  0  0  0  0  0  0  0  0  0
    6.3929  -14.6552   23.8970 C   0  0  0  0  0  0  0  0  0  0  0  0
    6.7537  -13.8397   25.0568 C   0  0  0  0  0  0  0  0  0  0  0  0
    7.1413  -12.5265   24.9049 C   0  0  0  0  0  0  0  0  0  0  0  0
    7.4871  -11.7334   25.9984 C   0  0  0  0  0  0  0  0  0  0  0  0
    7.4538  -12.2365   27.2798 C   0  0  0  0  0  0  0  0  0  0  0  0
    7.0668  -13.5499   27.4374 C   0  0  0  0  0  0  0  0  0  0  0  0
    6.7234  -14.3360   26.3468 C   0  0  0  0  0  0  0  0  0  0  0  0
    8.3680  -16.1505   24.1471 C   0  0  0  0  0  0  0  0  0  0  0  0
    8.0195  -17.2873   24.5671 O   0  0  0  0  0  0  0  0  0  0  0  0
    9.6269  -15.6644   24.6128 N   0  0  0  0  0  0  0  0  0  0  0  0
   10.7225  -16.4711   24.9756 C   0  0  1  0  0  0  0  0  0  0  0  0
   12.0252  -16.1499   24.3324 C   0  0  0  0  0  0  0  0  0  0  0  0
   13.2108  -16.9475   24.6977 C   0  0  0  0  0  0  0  0  0  0  0  0
   14.4162  -16.7171   23.8879 C   0  0  0  0  0  0  0  0  0  0  0  0
   14.9351  -17.5562   23.1298 O   0  0  0  0  0  0  0  0  0  0  0  0
   10.9201  -16.6127   26.4383 C   0  0  0  0  0  0  0  0  0  0  0  0
   11.0574  -17.7739   26.9009 O   0  0  0  0  0  0  0  0  0  0  0  0
   15.0116  -15.4444   23.9936 O   0  0  0  0  0  0  0  0  0  0  0  0
   10.9637  -15.5567   27.3284 O   0  0  0  0  0  0  0  0  0  0  0  0
  1  2  1  0
  3  5  1  0
  3  2  1  0
  4  3  2  0
  6  5  1  0
  6 14  1  0
  6  7  1  1
  8  7  1  0
  9  8  2  0
 10  9  1  0
 11 12  1  0
 11 10  2  0
 12 13  2  0
 13  8  1  0
 14 16  1  0
 15 14  2  0
 16 17  1  0
 17 22  1  0
 17 18  1  6
 19 18  1  0
 20 19  1  0
 20 24  1  0
 21 20  2  0
 22 23  2  0
 22 25  1  0
M  END
$$$$
