GFE.pdb
     RDKit          3D

 25 25  0  0  1  0  0  0  0  0999 V2000
    7.5519  -13.5432   19.9215 N   0  0  0  0  0  0  0  0  0  0  0  0
    6.9366  -14.4704   20.8271 C   0  0  0  0  0  0  0  0  0  0  0  0
    7.7509  -14.5319   22.0750 C   0  0  0  0  0  0  0  0  0  0  0  0
    8.9411  -14.0965   22.1097 O   0  0  0  0  0  0  0  0  0  0  0  0
    7.2559  -15.0752   23.2929 N   0  0  0  0  0  0  0  0  0  0  0  0
    8.0050  -15.0934   24.5252 C   0  0  1  0  0  0  0  0  0  0  0  0
    7.0179  -14.9117   25.6541 C   0  0  0  0  0  0  0  0  0  0  0  0
    6.8819  -13.5256   26.1019 C   0  0  0  0  0  0  0  0  0  0  0  0
    5.6439  -12.9267   26.1827 C   0  0  0  0  0  0  0  0  0  0  0  0
    5.4945  -11.6076   26.6088 C   0  0  0  0  0  0  0  0  0  0  0  0
    6.5862  -10.8487   26.9673 C   0  0  0  0  0  0  0  0  0  0  0  0
    7.8273  -11.4430   26.8882 C   0  0  0  0  0  0  0  0  0  0  0  0
    7.9720  -12.7561   26.4637 C   0  0  0  0  0  0  0  0  0  0  0  0
    8.7819  -16.3264   24.6120 C   0  0  0  0  0  0  0  0  0  0  0  0
    8.2923  -17.4824   24.4934 O   0  0  0  0  0  0  0  0  0  0  0  0
   10.1884  -16.2579   24.8466 N   0  0  0  0  0  0  0  0  0  0  0  0
   11.0531  -17.3671   24.9146 C   0  0  1  0  0  0  0  0  0  0  0  0
   12.3122  -17.2767   24.1268 C   0  0  0  0  0  0  0  0  0  0  0  0
   13.1152  -16.0427   24.2148 C   0  0  0  0  0  0  0  0  0  0  0  0
   14.2940  -15.9780   23.3385 C   0  0  0  0  0  0  0  0  0  0  0  0
   14.2550  -15.9296   22.0958 O   0  0  0  0  0  0  0  0  0  0  0  0
   11.3687  -17.8133   26.2930 C   0  0  0  0  0  0  0  0  0  0  0  0
   10.9280  -17.1229   27.2472 O   0  0  0  0  0  0  0  0  0  0  0  0
   15.5514  -15.9717   23.9744 O   0  0  0  0  0  0  0  0  0  0  0  0
   12.1139  -18.9352   26.6015 O   0  0  0  0  0  0  0  0  0  0  0  0
  1  2  1  0
  3  5  1  0
  3  2  1  0
  4  3  2  0
  6  5  1  0
  6 14  1  0
  6  7  1  1
  8  7  1  0
  9  8  2  0
 10  9  1  0
 11 12  1  0
 11 10  2  0
 12 13  2  0
 13  8  1  0
 14 16  1  0
 15 14  2  0
 16 17  1  0
 17 22  1  0
 17 18  1  1
 19 18  1  0
 20 19  1  0
 20 24  1  0
 21 20  2  0
 22 23  2  0
 22 25  1  0
M  END
$$$$
