GFE.pdb
     RDKit          3D

 25 25  0  0  1  0  0  0  0  0999 V2000
    7.5585  -16.9710   18.5266 N   0  0  0  0  0  0  0  0  0  0  0  0
    6.9715  -17.2839   19.7977 C   0  0  0  0  0  0  0  0  0  0  0  0
    7.5728  -16.3957   20.8339 C   0  0  0  0  0  0  0  0  0  0  0  0
    8.7211  -15.8815   20.6780 O   0  0  0  0  0  0  0  0  0  0  0  0
    6.9096  -16.0698   22.0494 N   0  0  0  0  0  0  0  0  0  0  0  0
    7.4951  -15.2604   23.0897 C   0  0  1  0  0  0  0  0  0  0  0  0
    6.3599  -14.6685   23.8913 C   0  0  0  0  0  0  0  0  0  0  0  0
    6.7992  -13.8611   25.0295 C   0  0  0  0  0  0  0  0  0  0  0  0
    6.8812  -14.4048   26.2926 C   0  0  0  0  0  0  0  0  0  0  0  0
    7.2993  -13.6515   27.3889 C   0  0  0  0  0  0  0  0  0  0  0  0
    7.6484  -12.3267   27.2491 C   0  0  0  0  0  0  0  0  0  0  0  0
    7.5680  -11.7778   25.9875 C   0  0  0  0  0  0  0  0  0  0  0  0
    7.1515  -12.5307   24.8989 C   0  0  0  0  0  0  0  0  0  0  0  0
    8.4197  -16.0672   23.8807 C   0  0  0  0  0  0  0  0  0  0  0  0
    8.1252  -17.1778   24.4003 O   0  0  0  0  0  0  0  0  0  0  0  0
    9.7503  -15.5998   24.1024 N   0  0  0  0  0  0  0  0  0  0  0  0
   10.8311  -16.4007   24.5185 C   0  0  1  0  0  0  0  0  0  0  0  0
   12.1663  -16.0565   23.9592 C   0  0  0  0  0  0  0  0  0  0  0  0
   13.3342  -16.8579   24.3706 C   0  0  0  0  0  0  0  0  0  0  0  0
   14.6004  -16.5460   23.6914 C   0  0  0  0  0  0  0  0  0  0  0  0
   15.1944  -17.3090   22.9085 O   0  0  0  0  0  0  0  0  0  0  0  0
   10.9425  -16.5624   25.9882 C   0  0  0  0  0  0  0  0  0  0  0  0
   10.5773  -15.6013   26.7123 O   0  0  0  0  0  0  0  0  0  0  0  0
   15.1654  -15.2839   23.9619 O   0  0  0  0  0  0  0  0  0  0  0  0
   11.4201  -17.6961   26.6172 O   0  0  0  0  0  0  0  0  0  0  0  0
  1  2  1  0
  3  5  1  0
  3  2  1  0
  4  3  2  0
  6  5  1  0
  6 14  1  0
  6  7  1  1
  8  7  1  0
  9  8  2  0
 10  9  1  0
 11 12  1  0
 11 10  2  0
 12 13  2  0
 13  8  1  0
 14 16  1  0
 15 14  2  0
 16 17  1  0
 17 22  1  0
 17 18  1  1
 19 18  1  0
 20 19  1  0
 20 24  1  0
 21 20  2  0
 22 23  2  0
 22 25  1  0
M  END
$$$$
