GFE.pdb
     RDKit          3D

 25 25  0  0  1  0  0  0  0  0999 V2000
    9.8570  -16.7216   19.1095 N   0  0  0  0  0  0  0  0  0  0  0  0
    8.7138  -16.8420   19.9680 C   0  0  0  0  0  0  0  0  0  0  0  0
    8.9631  -16.0544   21.2096 C   0  0  0  0  0  0  0  0  0  0  0  0
   10.1198  -15.6226   21.4974 O   0  0  0  0  0  0  0  0  0  0  0  0
    7.9361  -15.7387   22.1419 N   0  0  0  0  0  0  0  0  0  0  0  0
    8.1498  -14.9584   23.3358 C   0  0  1  0  0  0  0  0  0  0  0  0
    6.8264  -14.3311   23.7058 C   0  0  0  0  0  0  0  0  0  0  0  0
    6.8525  -13.6028   24.9743 C   0  0  0  0  0  0  0  0  0  0  0  0
    6.3127  -14.1522   26.1165 C   0  0  0  0  0  0  0  0  0  0  0  0
    6.3298  -13.4740   27.3346 C   0  0  0  0  0  0  0  0  0  0  0  0
    6.8908  -12.2210   27.4424 C   0  0  0  0  0  0  0  0  0  0  0  0
    7.4323  -11.6667   26.3026 C   0  0  0  0  0  0  0  0  0  0  0  0
    7.4134  -12.3447   25.0921 C   0  0  0  0  0  0  0  0  0  0  0  0
    8.7165  -15.8038   24.3826 C   0  0  0  0  0  0  0  0  0  0  0  0
    8.1823  -16.8661   24.8024 O   0  0  0  0  0  0  0  0  0  0  0  0
    9.9526  -15.4348   24.9940 N   0  0  0  0  0  0  0  0  0  0  0  0
   10.7395  -16.2773   25.8025 C   0  0  1  0  0  0  0  0  0  0  0  0
   12.2033  -16.2756   25.5358 C   0  0  0  0  0  0  0  0  0  0  0  0
   12.6699  -16.4372   24.1460 C   0  0  0  0  0  0  0  0  0  0  0  0
   14.1183  -16.3010   23.9333 C   0  0  0  0  0  0  0  0  0  0  0  0
   14.9471  -16.0424   24.8246 O   0  0  0  0  0  0  0  0  0  0  0  0
   10.5067  -16.1200   27.2584 C   0  0  0  0  0  0  0  0  0  0  0  0
   11.1113  -16.9019   28.0359 O   0  0  0  0  0  0  0  0  0  0  0  0
   14.5803  -16.4805   22.6144 O   0  0  0  0  0  0  0  0  0  0  0  0
    9.6711  -15.1737   27.8201 O   0  0  0  0  0  0  0  0  0  0  0  0
  1  2  1  0
  3  5  1  0
  3  2  1  0
  4  3  2  0
  6  5  1  0
  6 14  1  0
  6  7  1  1
  8  7  1  0
  9  8  2  0
 10  9  1  0
 11 12  1  0
 11 10  2  0
 12 13  2  0
 13  8  1  0
 14 16  1  0
 15 14  2  0
 16 17  1  0
 17 22  1  0
 17 18  1  1
 19 18  1  0
 20 19  1  0
 20 24  1  0
 21 20  2  0
 22 23  2  0
 22 25  1  0
M  END
$$$$
