GFE.pdb
     RDKit          3D

 25 25  0  0  1  0  0  0  0  0999 V2000
   10.2611  -16.9980   19.5390 N   0  0  0  0  0  0  0  0  0  0  0  0
    9.1104  -17.1701   20.3786 C   0  0  0  0  0  0  0  0  0  0  0  0
    9.2897  -16.3483   21.6101 C   0  0  0  0  0  0  0  0  0  0  0  0
   10.4398  -16.1274   22.0956 O   0  0  0  0  0  0  0  0  0  0  0  0
    8.1995  -15.7653   22.3136 N   0  0  0  0  0  0  0  0  0  0  0  0
    8.3432  -15.0249   23.5430 C   0  0  1  0  0  0  0  0  0  0  0  0
    7.1589  -14.0932   23.6477 C   0  0  0  0  0  0  0  0  0  0  0  0
    7.1098  -13.3395   24.9007 C   0  0  0  0  0  0  0  0  0  0  0  0
    6.2779  -13.7282   25.9277 C   0  0  0  0  0  0  0  0  0  0  0  0
    6.2188  -13.0235   27.1294 C   0  0  0  0  0  0  0  0  0  0  0  0
    6.9951  -11.9051   27.3361 C   0  0  0  0  0  0  0  0  0  0  0  0
    7.8292  -11.5118   26.3117 C   0  0  0  0  0  0  0  0  0  0  0  0
    7.8852  -12.2156   25.1173 C   0  0  0  0  0  0  0  0  0  0  0  0
    8.4679  -15.9510   24.6648 C   0  0  0  0  0  0  0  0  0  0  0  0
    7.6358  -16.8612   24.9282 O   0  0  0  0  0  0  0  0  0  0  0  0
    9.5898  -15.8486   25.5415 N   0  0  0  0  0  0  0  0  0  0  0  0
    9.8487  -16.7050   26.6289 C   0  0  1  0  0  0  0  0  0  0  0  0
   10.8512  -17.7810   26.4025 C   0  0  0  0  0  0  0  0  0  0  0  0
   10.8402  -18.4993   25.1144 C   0  0  0  0  0  0  0  0  0  0  0  0
   11.9172  -19.4802   24.9151 C   0  0  0  0  0  0  0  0  0  0  0  0
   12.7801  -19.7713   25.7628 O   0  0  0  0  0  0  0  0  0  0  0  0
   10.1597  -16.0049   27.8984 C   0  0  0  0  0  0  0  0  0  0  0  0
   10.2869  -14.7544   27.8616 O   0  0  0  0  0  0  0  0  0  0  0  0
   11.9560  -20.1266   23.6638 O   0  0  0  0  0  0  0  0  0  0  0  0
   10.3196  -16.6317   29.1194 O   0  0  0  0  0  0  0  0  0  0  0  0
  1  2  1  0
  3  5  1  0
  3  2  1  0
  4  3  2  0
  6  5  1  0
  6 14  1  0
  6  7  1  1
  8  7  1  0
  9  8  2  0
 10  9  1  0
 11 12  1  0
 11 10  2  0
 12 13  2  0
 13  8  1  0
 14 16  1  0
 15 14  2  0
 16 17  1  0
 17 22  1  0
 17 18  1  6
 19 18  1  0
 20 19  1  0
 20 24  1  0
 21 20  2  0
 22 23  2  0
 22 25  1  0
M  END
$$$$
