GFE.pdb
     RDKit          3D

 25 25  0  0  1  0  0  0  0  0999 V2000
    9.8846  -16.4795   19.1629 N   0  0  0  0  0  0  0  0  0  0  0  0
    8.6578  -16.4035   19.9030 C   0  0  0  0  0  0  0  0  0  0  0  0
    8.9222  -15.7119   21.1975 C   0  0  0  0  0  0  0  0  0  0  0  0
   10.0849  -15.6749   21.7017 O   0  0  0  0  0  0  0  0  0  0  0  0
    7.9038  -15.0566   21.9439 N   0  0  0  0  0  0  0  0  0  0  0  0
    8.0971  -14.5303   23.2727 C   0  0  1  0  0  0  0  0  0  0  0  0
    6.9406  -13.6025   23.5613 C   0  0  0  0  0  0  0  0  0  0  0  0
    6.9101  -13.1077   24.9378 C   0  0  0  0  0  0  0  0  0  0  0  0
    7.6996  -12.0475   25.3258 C   0  0  0  0  0  0  0  0  0  0  0  0
    7.6828  -11.5611   26.6325 C   0  0  0  0  0  0  0  0  0  0  0  0
    6.8709  -12.1261   27.5906 C   0  0  0  0  0  0  0  0  0  0  0  0
    6.0790  -13.1872   27.2076 C   0  0  0  0  0  0  0  0  0  0  0  0
    6.0985  -13.6685   25.9063 C   0  0  0  0  0  0  0  0  0  0  0  0
    8.2249  -15.6297   24.2249 C   0  0  0  0  0  0  0  0  0  0  0  0
    7.3735  -16.5494   24.3640 O   0  0  0  0  0  0  0  0  0  0  0  0
    9.3733  -15.6997   25.0701 N   0  0  0  0  0  0  0  0  0  0  0  0
    9.6980  -16.7848   25.9067 C   0  0  1  0  0  0  0  0  0  0  0  0
   10.8158  -17.6581   25.4576 C   0  0  0  0  0  0  0  0  0  0  0  0
   12.0848  -17.0287   25.0465 C   0  0  0  0  0  0  0  0  0  0  0  0
   13.0734  -17.9208   24.4230 C   0  0  0  0  0  0  0  0  0  0  0  0
   12.8777  -19.1184   24.1486 O   0  0  0  0  0  0  0  0  0  0  0  0
    9.9022  -16.4205   27.3295 C   0  0  0  0  0  0  0  0  0  0  0  0
    9.8988  -15.1987   27.6274 O   0  0  0  0  0  0  0  0  0  0  0  0
   14.3290  -17.3565   24.1227 O   0  0  0  0  0  0  0  0  0  0  0  0
   10.0961  -17.3307   28.3508 O   0  0  0  0  0  0  0  0  0  0  0  0
  1  2  1  0
  3  5  1  0
  3  2  1  0
  4  3  2  0
  6  5  1  0
  6 14  1  0
  6  7  1  1
  8  7  1  0
  9  8  2  0
 10  9  1  0
 11 12  1  0
 11 10  2  0
 12 13  2  0
 13  8  1  0
 14 16  1  0
 15 14  2  0
 16 17  1  0
 17 22  1  0
 17 18  1  6
 19 18  1  0
 20 19  1  0
 20 24  1  0
 21 20  2  0
 22 23  2  0
 22 25  1  0
M  END
$$$$
