GFE.pdb
     RDKit          3D

 25 25  0  0  1  0  0  0  0  0999 V2000
    9.4098  -16.4811   18.9003 N   0  0  0  0  0  0  0  0  0  0  0  0
    8.3190  -16.5879   19.8262 C   0  0  0  0  0  0  0  0  0  0  0  0
    8.6639  -15.8264   21.0613 C   0  0  0  0  0  0  0  0  0  0  0  0
    9.8693  -15.6120   21.3906 O   0  0  0  0  0  0  0  0  0  0  0  0
    7.6794  -15.2970   21.9410 N   0  0  0  0  0  0  0  0  0  0  0  0
    7.9870  -14.6621   23.1989 C   0  0  1  0  0  0  0  0  0  0  0  0
    6.7513  -13.9127   23.6383 C   0  0  0  0  0  0  0  0  0  0  0  0
    6.8745  -13.2935   24.9581 C   0  0  0  0  0  0  0  0  0  0  0  0
    6.3177  -13.8841   26.0712 C   0  0  0  0  0  0  0  0  0  0  0  0
    6.4263  -13.3098   27.3371 C   0  0  0  0  0  0  0  0  0  0  0  0
    7.0988  -12.1226   27.5234 C   0  0  0  0  0  0  0  0  0  0  0  0
    7.6577  -11.5275   26.4130 C   0  0  0  0  0  0  0  0  0  0  0  0
    7.5475  -12.1020   25.1548 C   0  0  0  0  0  0  0  0  0  0  0  0
    8.4435  -15.6635   24.1582 C   0  0  0  0  0  0  0  0  0  0  0  0
    7.8340  -16.7400   24.4031 O   0  0  0  0  0  0  0  0  0  0  0  0
    9.6523  -15.4434   24.8851 N   0  0  0  0  0  0  0  0  0  0  0  0
   10.3235  -16.4140   25.6533 C   0  0  1  0  0  0  0  0  0  0  0  0
   11.7815  -16.5692   25.4002 C   0  0  0  0  0  0  0  0  0  0  0  0
   12.2352  -16.8531   24.0258 C   0  0  0  0  0  0  0  0  0  0  0  0
   13.6780  -16.7100   23.7818 C   0  0  0  0  0  0  0  0  0  0  0  0
   14.5107  -16.3461   24.6316 O   0  0  0  0  0  0  0  0  0  0  0  0
   10.0883  -16.3085   27.1135 C   0  0  0  0  0  0  0  0  0  0  0  0
    9.4567  -15.3056   27.5339 O   0  0  0  0  0  0  0  0  0  0  0  0
   14.1294  -17.0126   22.4818 O   0  0  0  0  0  0  0  0  0  0  0  0
   10.5154  -17.2359   28.0444 O   0  0  0  0  0  0  0  0  0  0  0  0
  1  2  1  0
  3  5  1  0
  3  2  1  0
  4  3  2  0
  6  5  1  0
  6 14  1  0
  6  7  1  1
  8  7  1  0
  9  8  2  0
 10  9  1  0
 11 12  1  0
 11 10  2  0
 12 13  2  0
 13  8  1  0
 14 16  1  0
 15 14  2  0
 16 17  1  0
 17 22  1  0
 17 18  1  1
 19 18  1  0
 20 19  1  0
 20 24  1  0
 21 20  2  0
 22 23  2  0
 22 25  1  0
M  END
$$$$
