GFE.pdb
     RDKit          3D

 25 25  0  0  1  0  0  0  0  0999 V2000
    8.4734  -16.4840   18.5202 N   0  0  0  0  0  0  0  0  0  0  0  0
    7.5096  -16.5344   19.5818 C   0  0  0  0  0  0  0  0  0  0  0  0
    8.0414  -15.7709   20.7472 C   0  0  0  0  0  0  0  0  0  0  0  0
    9.2878  -15.6392   20.9380 O   0  0  0  0  0  0  0  0  0  0  0  0
    7.1997  -15.1477   21.7099 N   0  0  0  0  0  0  0  0  0  0  0  0
    7.6843  -14.5430   22.9263 C   0  0  1  0  0  0  0  0  0  0  0  0
    6.5749  -13.6733   23.4689 C   0  0  0  0  0  0  0  0  0  0  0  0
    6.8360  -13.1524   24.8109 C   0  0  0  0  0  0  0  0  0  0  0  0
    7.6827  -12.0825   25.0019 C   0  0  0  0  0  0  0  0  0  0  0  0
    7.9423  -11.5713   26.2729 C   0  0  0  0  0  0  0  0  0  0  0  0
    7.3581  -12.1204   27.3925 C   0  0  0  0  0  0  0  0  0  0  0  0
    6.5102  -13.1910   27.2070 C   0  0  0  0  0  0  0  0  0  0  0  0
    6.2543  -13.6970   25.9406 C   0  0  0  0  0  0  0  0  0  0  0  0
    8.1269  -15.5823   23.8513 C   0  0  0  0  0  0  0  0  0  0  0  0
    7.4284  -16.5772   24.1865 O   0  0  0  0  0  0  0  0  0  0  0  0
    9.4273  -15.4991   24.4344 N   0  0  0  0  0  0  0  0  0  0  0  0
   10.0935  -16.5570   25.0824 C   0  0  1  0  0  0  0  0  0  0  0  0
   11.4933  -16.8222   24.6531 C   0  0  0  0  0  0  0  0  0  0  0  0
   12.2538  -17.8855   25.3360 C   0  0  0  0  0  0  0  0  0  0  0  0
   13.6163  -18.1240   24.8374 C   0  0  0  0  0  0  0  0  0  0  0  0
   14.2129  -19.2145   24.8915 O   0  0  0  0  0  0  0  0  0  0  0  0
   10.0378  -16.4995   26.5630 C   0  0  0  0  0  0  0  0  0  0  0  0
   10.0572  -15.3654   27.1061 O   0  0  0  0  0  0  0  0  0  0  0  0
   14.2768  -17.0218   24.2594 O   0  0  0  0  0  0  0  0  0  0  0  0
    9.9661  -17.6060   27.3874 O   0  0  0  0  0  0  0  0  0  0  0  0
  1  2  1  0
  3  5  1  0
  3  2  1  0
  4  3  2  0
  6  5  1  0
  6 14  1  0
  6  7  1  1
  8  7  1  0
  9  8  2  0
 10  9  1  0
 11 12  1  0
 11 10  2  0
 12 13  2  0
 13  8  1  0
 14 16  1  0
 15 14  2  0
 16 17  1  0
 17 22  1  0
 17 18  1  1
 19 18  1  0
 20 19  1  0
 20 24  1  0
 21 20  2  0
 22 23  2  0
 22 25  1  0
M  END
$$$$
