GFE.pdb
     RDKit          3D

 25 25  0  0  1  0  0  0  0  0999 V2000
   10.6427  -17.6399   18.3240 N   0  0  0  0  0  0  0  0  0  0  0  0
    9.7024  -17.7830   19.3982 C   0  0  0  0  0  0  0  0  0  0  0  0
   10.0494  -16.8066   20.4707 C   0  0  0  0  0  0  0  0  0  0  0  0
   11.0902  -16.0863   20.3974 O   0  0  0  0  0  0  0  0  0  0  0  0
    9.2490  -16.6194   21.6317 N   0  0  0  0  0  0  0  0  0  0  0  0
    9.5669  -15.6834   22.6819 C   0  0  1  0  0  0  0  0  0  0  0  0
    8.3111  -14.8987   22.9800 C   0  0  0  0  0  0  0  0  0  0  0  0
    7.8019  -14.1426   21.8356 C   0  0  0  0  0  0  0  0  0  0  0  0
    8.2699  -12.8766   21.5598 C   0  0  0  0  0  0  0  0  0  0  0  0
    7.7979  -12.1417   20.4729 C   0  0  0  0  0  0  0  0  0  0  0  0
    6.8398  -12.6572   19.6288 C   0  0  0  0  0  0  0  0  0  0  0  0
    6.3681  -13.9235   19.9004 C   0  0  0  0  0  0  0  0  0  0  0  0
    6.8402  -14.6518   20.9830 C   0  0  0  0  0  0  0  0  0  0  0  0
   10.1041  -16.3998   23.8350 C   0  0  0  0  0  0  0  0  0  0  0  0
   10.3995  -15.8549   24.9332 O   0  0  0  0  0  0  0  0  0  0  0  0
   10.3234  -17.8079   23.7500 N   0  0  0  0  0  0  0  0  0  0  0  0
   10.8471  -18.6096   24.7824 C   0  0  1  0  0  0  0  0  0  0  0  0
   10.7536  -20.0823   24.5916 C   0  0  0  0  0  0  0  0  0  0  0  0
   11.3741  -20.6820   23.3955 C   0  0  0  0  0  0  0  0  0  0  0  0
   11.3078  -22.1479   23.3024 C   0  0  0  0  0  0  0  0  0  0  0  0
   11.7482  -22.8212   22.3533 O   0  0  0  0  0  0  0  0  0  0  0  0
   12.2276  -18.2554   25.1916 C   0  0  0  0  0  0  0  0  0  0  0  0
   12.8679  -17.4563   24.4616 O   0  0  0  0  0  0  0  0  0  0  0  0
   10.6957  -22.8198   24.3791 O   0  0  0  0  0  0  0  0  0  0  0  0
   12.8592  -18.7426   26.3199 O   0  0  0  0  0  0  0  0  0  0  0  0
  1  2  1  0
  3  5  1  0
  3  2  1  0
  4  3  2  0
  6  5  1  0
  6 14  1  0
  6  7  1  1
  8  7  1  0
  9  8  2  0
 10  9  1  0
 11 12  1  0
 11 10  2  0
 12 13  2  0
 13  8  1  0
 14 16  1  0
 15 14  2  0
 16 17  1  0
 17 22  1  0
 17 18  1  6
 19 18  1  0
 20 19  1  0
 20 24  1  0
 21 20  2  0
 22 23  2  0
 22 25  1  0
M  END
$$$$
