GFE.pdb
     RDKit          3D

 25 25  0  0  1  0  0  0  0  0999 V2000
    9.8264  -17.3410   19.6353 N   0  0  0  0  0  0  0  0  0  0  0  0
    8.5836  -16.8179   20.1256 C   0  0  0  0  0  0  0  0  0  0  0  0
    8.8307  -16.1445   21.4331 C   0  0  0  0  0  0  0  0  0  0  0  0
    9.9142  -16.3137   22.0694 O   0  0  0  0  0  0  0  0  0  0  0  0
    7.8823  -15.2798   22.0467 N   0  0  0  0  0  0  0  0  0  0  0  0
    8.0338  -14.7375   23.3745 C   0  0  1  0  0  0  0  0  0  0  0  0
    7.0469  -13.6023   23.5117 C   0  0  0  0  0  0  0  0  0  0  0  0
    7.0069  -13.0135   24.8504 C   0  0  0  0  0  0  0  0  0  0  0  0
    7.9913  -12.1466   25.2714 C   0  0  0  0  0  0  0  0  0  0  0  0
    7.9692  -11.5745   26.5428 C   0  0  0  0  0  0  0  0  0  0  0  0
    6.9555  -11.8564   27.4312 C   0  0  0  0  0  0  0  0  0  0  0  0
    5.9681  -12.7233   27.0151 C   0  0  0  0  0  0  0  0  0  0  0  0
    5.9936  -13.2907   25.7491 C   0  0  0  0  0  0  0  0  0  0  0  0
    7.8572  -15.7972   24.3631 C   0  0  0  0  0  0  0  0  0  0  0  0
    6.8852  -16.6004   24.3752 O   0  0  0  0  0  0  0  0  0  0  0  0
    8.8264  -15.9638   25.3980 N   0  0  0  0  0  0  0  0  0  0  0  0
    8.9736  -17.1178   26.1915 C   0  0  1  0  0  0  0  0  0  0  0  0
    9.2103  -18.3958   25.4671 C   0  0  0  0  0  0  0  0  0  0  0  0
    9.4010  -19.6297   26.2522 C   0  0  0  0  0  0  0  0  0  0  0  0
    9.6119  -20.8604   25.4759 C   0  0  0  0  0  0  0  0  0  0  0  0
    9.0689  -21.1160   24.3860 O   0  0  0  0  0  0  0  0  0  0  0  0
    9.9642  -16.9848   27.2867 C   0  0  0  0  0  0  0  0  0  0  0  0
   10.8062  -16.0543   27.2049 O   0  0  0  0  0  0  0  0  0  0  0  0
   10.4989  -21.8071   26.0259 O   0  0  0  0  0  0  0  0  0  0  0  0
   10.0261  -17.8127   28.3913 O   0  0  0  0  0  0  0  0  0  0  0  0
  1  2  1  0
  3  5  1  0
  3  2  1  0
  4  3  2  0
  6  5  1  0
  6 14  1  0
  6  7  1  1
  8  7  1  0
  9  8  2  0
 10  9  1  0
 11 12  1  0
 11 10  2  0
 12 13  2  0
 13  8  1  0
 14 16  1  0
 15 14  2  0
 16 17  1  0
 17 22  1  0
 17 18  1  6
 19 18  1  0
 20 19  1  0
 20 24  1  0
 21 20  2  0
 22 23  2  0
 22 25  1  0
M  END
$$$$
