GFE.pdb
     RDKit          3D

 25 25  0  0  1  0  0  0  0  0999 V2000
    8.7840  -16.5551   18.4567 N   0  0  0  0  0  0  0  0  0  0  0  0
    7.8760  -16.7574   19.5489 C   0  0  0  0  0  0  0  0  0  0  0  0
    8.3220  -15.9238   20.7023 C   0  0  0  0  0  0  0  0  0  0  0  0
    9.5361  -15.5874   20.8443 O   0  0  0  0  0  0  0  0  0  0  0  0
    7.4298  -15.4565   21.7068 N   0  0  0  0  0  0  0  0  0  0  0  0
    7.8568  -14.7739   22.9034 C   0  0  1  0  0  0  0  0  0  0  0  0
    6.6397  -14.1060   23.4986 C   0  0  0  0  0  0  0  0  0  0  0  0
    6.8861  -13.4798   24.7977 C   0  0  0  0  0  0  0  0  0  0  0  0
    6.5623  -14.1294   25.9686 C   0  0  0  0  0  0  0  0  0  0  0  0
    6.7912  -13.5493   27.2157 C   0  0  0  0  0  0  0  0  0  0  0  0
    7.3534  -12.2970   27.3244 C   0  0  0  0  0  0  0  0  0  0  0  0
    7.6792  -11.6427   26.1560 C   0  0  0  0  0  0  0  0  0  0  0  0
    7.4498  -12.2231   24.9167 C   0  0  0  0  0  0  0  0  0  0  0  0
    8.5119  -15.7189   23.8031 C   0  0  0  0  0  0  0  0  0  0  0  0
    8.0699  -16.8704   24.0656 O   0  0  0  0  0  0  0  0  0  0  0  0
    9.7319  -15.3496   24.4458 N   0  0  0  0  0  0  0  0  0  0  0  0
   10.6586  -16.2513   25.0037 C   0  0  1  0  0  0  0  0  0  0  0  0
   12.0857  -16.0504   24.6336 C   0  0  0  0  0  0  0  0  0  0  0  0
   13.1012  -16.9472   25.2165 C   0  0  0  0  0  0  0  0  0  0  0  0
   14.4966  -16.6637   24.8503 C   0  0  0  0  0  0  0  0  0  0  0  0
   14.9052  -15.5839   24.3864 O   0  0  0  0  0  0  0  0  0  0  0  0
   10.5511  -16.4072   26.4743 C   0  0  0  0  0  0  0  0  0  0  0  0
   10.0578  -15.4540   27.1297 O   0  0  0  0  0  0  0  0  0  0  0  0
   15.4233  -17.7066   25.0475 O   0  0  0  0  0  0  0  0  0  0  0  0
   10.9558  -17.5275   27.1746 O   0  0  0  0  0  0  0  0  0  0  0  0
  1  2  1  0
  3  5  1  0
  3  2  1  0
  4  3  2  0
  6  5  1  0
  6 14  1  0
  6  7  1  1
  8  7  1  0
  9  8  2  0
 10  9  1  0
 11 12  1  0
 11 10  2  0
 12 13  2  0
 13  8  1  0
 14 16  1  0
 15 14  2  0
 16 17  1  0
 17 22  1  0
 17 18  1  1
 19 18  1  0
 20 19  1  0
 20 24  1  0
 21 20  2  0
 22 23  2  0
 22 25  1  0
M  END
$$$$
