AMH.pdb
     RDKit          3D

 24 24  0  0  1  0  0  0  0  0999 V2000
    7.9218  -13.2009   19.3897 C   0  0  0  0  0  0  0  0  0  0  0  0
    7.9407  -14.5621   20.0249 C   0  0  2  0  0  0  0  0  0  0  0  0
    6.6112  -15.1244   19.9113 N   0  0  0  0  0  0  0  0  0  0  0  0
    8.3512  -14.4499   21.4672 C   0  0  0  0  0  0  0  0  0  0  0  0
    9.5514  -14.1707   21.6936 O   0  0  0  0  0  0  0  0  0  0  0  0
    8.2508  -11.4156   27.6504 C   0  0  0  0  0  0  0  0  0  0  0  0
    7.9541  -12.0518   25.9805 S   0  0  0  0  0  0  0  0  0  0  0  0
    6.9618  -13.5618   26.0077 C   0  0  0  0  0  0  0  0  0  0  0  0
    6.5007  -13.9493   24.6062 C   0  0  0  0  0  0  0  0  0  0  0  0
    7.7314  -14.4696   23.8921 C   0  0  2  0  0  0  0  0  0  0  0  0
    7.4272  -14.6497   22.5071 N   0  0  0  0  0  0  0  0  0  0  0  0
    8.2852  -15.6968   24.4605 C   0  0  0  0  0  0  0  0  0  0  0  0
    7.5197  -16.5948   24.8678 O   0  0  0  0  0  0  0  0  0  0  0  0
    9.7119  -15.9323   24.5787 N   0  0  0  0  0  0  0  0  0  0  0  0
   10.2117  -17.1899   25.0623 C   0  0  1  0  0  0  0  0  0  0  0  0
   11.5720  -17.4544   24.4851 C   0  0  0  0  0  0  0  0  0  0  0  0
   11.4476  -17.6620   23.0221 C   0  0  0  0  0  0  0  0  0  0  0  0
   10.3983  -18.2910   22.3505 C   0  0  0  0  0  0  0  0  0  0  0  0
   10.6773  -18.2685   21.0379 N   0  0  0  0  0  0  0  0  0  0  0  0
   11.8572  -17.6508   20.8736 C   0  0  0  0  0  0  0  0  0  0  0  0
   12.3274  -17.2808   22.0828 N   0  0  0  0  0  0  0  0  0  0  0  0
   10.3628  -17.1715   26.5608 C   0  0  0  0  0  0  0  0  0  0  0  0
   10.0940  -16.0181   27.2764 O   0  0  0  0  0  0  0  0  0  0  0  0
   10.7311  -18.1815   27.2064 O   0  0  0  0  0  0  0  0  0  0  0  0
  2  1  1  1
  3  2  1  0
  4  2  1  0
  5  4  2  0
  6  7  1  0
  8  7  1  0
  9  8  1  0
 10 11  1  0
 10  9  1  1
 11  4  1  0
 12 10  1  0
 13 12  2  0
 14 12  1  0
 15 16  1  6
 15 14  1  0
 16 17  1  0
 17 21  1  0
 18 17  2  0
 18 19  1  0
 19 20  1  0
 21 20  2  0
 22 23  1  0
 22 15  1  0
 24 22  2  0
M  END
$$$$
