AMH.pdb
     RDKit          3D

 24 24  0  0  1  0  0  0  0  0999 V2000
    8.2689  -16.5925   19.4164 C   0  0  0  0  0  0  0  0  0  0  0  0
    8.6425  -17.1418   20.7637 C   0  0  2  0  0  0  0  0  0  0  0  0
    7.5102  -17.8901   21.2684 N   0  0  0  0  0  0  0  0  0  0  0  0
    8.9972  -16.0169   21.6964 C   0  0  0  0  0  0  0  0  0  0  0  0
   10.1409  -15.5201   21.5744 O   0  0  0  0  0  0  0  0  0  0  0  0
    6.5103  -11.0785   27.2277 C   0  0  0  0  0  0  0  0  0  0  0  0
    6.1468  -12.4812   26.1407 S   0  0  0  0  0  0  0  0  0  0  0  0
    7.3583  -12.6247   24.8077 C   0  0  0  0  0  0  0  0  0  0  0  0
    7.0148  -13.7742   23.8656 C   0  0  0  0  0  0  0  0  0  0  0  0
    8.3323  -14.4383   23.5215 C   0  0  2  0  0  0  0  0  0  0  0  0
    8.0842  -15.5495   22.6572 N   0  0  0  0  0  0  0  0  0  0  0  0
    9.1192  -14.8543   24.6805 C   0  0  0  0  0  0  0  0  0  0  0  0
    8.7594  -14.5223   25.8288 O   0  0  0  0  0  0  0  0  0  0  0  0
   10.3252  -15.6526   24.5643 N   0  0  0  0  0  0  0  0  0  0  0  0
   10.7587  -16.4913   25.6476 C   0  0  1  0  0  0  0  0  0  0  0  0
    9.7687  -17.5990   25.8631 C   0  0  0  0  0  0  0  0  0  0  0  0
   10.2004  -18.4187   27.0211 C   0  0  0  0  0  0  0  0  0  0  0  0
   11.3014  -18.1890   27.8473 C   0  0  0  0  0  0  0  0  0  0  0  0
   11.3345  -19.1633   28.7696 N   0  0  0  0  0  0  0  0  0  0  0  0
   10.2976  -19.9849   28.5447 C   0  0  0  0  0  0  0  0  0  0  0  0
    9.6058  -19.5316   27.4788 N   0  0  0  0  0  0  0  0  0  0  0  0
   12.0835  -17.1365   25.3352 C   0  0  0  0  0  0  0  0  0  0  0  0
   12.8946  -17.5975   26.3571 O   0  0  0  0  0  0  0  0  0  0  0  0
   12.4954  -17.2784   24.1594 O   0  0  0  0  0  0  0  0  0  0  0  0
  2  1  1  6
  3  2  1  0
  4  2  1  0
  5  4  2  0
  6  7  1  0
  8  7  1  0
  9  8  1  0
 10 11  1  0
 10  9  1  1
 11  4  1  0
 12 10  1  0
 13 12  2  0
 14 12  1  0
 15 16  1  6
 15 14  1  0
 16 17  1  0
 17 21  1  0
 18 17  2  0
 18 19  1  0
 19 20  1  0
 21 20  2  0
 22 23  1  0
 22 15  1  0
 24 22  2  0
M  END
$$$$
