AMH.pdb
     RDKit          3D

 24 24  0  0  1  0  0  0  0  0999 V2000
    7.2160  -17.7343   19.8763 C   0  0  0  0  0  0  0  0  0  0  0  0
    7.8686  -18.0102   21.2009 C   0  0  2  0  0  0  0  0  0  0  0  0
    6.8518  -18.5107   22.1020 N   0  0  0  0  0  0  0  0  0  0  0  0
    8.4869  -16.7503   21.7408 C   0  0  0  0  0  0  0  0  0  0  0  0
    9.4828  -16.3010   21.1275 O   0  0  0  0  0  0  0  0  0  0  0  0
    5.7689  -11.6305   26.3823 C   0  0  0  0  0  0  0  0  0  0  0  0
    7.3820  -12.4386   26.2216 S   0  0  0  0  0  0  0  0  0  0  0  0
    7.7860  -12.7856   24.4948 C   0  0  0  0  0  0  0  0  0  0  0  0
    7.2569  -14.1499   24.0635 C   0  0  0  0  0  0  0  0  0  0  0  0
    8.4044  -14.8346   23.3495 C   0  0  2  0  0  0  0  0  0  0  0  0
    7.9673  -16.1120   22.8799 N   0  0  0  0  0  0  0  0  0  0  0  0
    9.6191  -14.9696   24.1508 C   0  0  0  0  0  0  0  0  0  0  0  0
   10.1916  -13.9509   24.5898 O   0  0  0  0  0  0  0  0  0  0  0  0
   10.2084  -16.2561   24.4712 N   0  0  0  0  0  0  0  0  0  0  0  0
   11.3610  -16.3445   25.3249 C   0  0  1  0  0  0  0  0  0  0  0  0
   11.0271  -17.1415   26.5523 C   0  0  0  0  0  0  0  0  0  0  0  0
   10.3819  -16.2527   27.5488 C   0  0  0  0  0  0  0  0  0  0  0  0
    9.9670  -14.9347   27.3527 C   0  0  0  0  0  0  0  0  0  0  0  0
    9.4359  -14.4946   28.5040 N   0  0  0  0  0  0  0  0  0  0  0  0
    9.5071  -15.4891   29.4023 C   0  0  0  0  0  0  0  0  0  0  0  0
   10.0837  -16.5611   28.8206 N   0  0  0  0  0  0  0  0  0  0  0  0
   12.4944  -17.0539   24.6314 C   0  0  0  0  0  0  0  0  0  0  0  0
   12.3019  -17.6307   23.3885 O   0  0  0  0  0  0  0  0  0  0  0  0
   13.6352  -17.1479   25.1435 O   0  0  0  0  0  0  0  0  0  0  0  0
  2  1  1  6
  3  2  1  0
  4  2  1  0
  5  4  2  0
  6  7  1  0
  8  7  1  0
  9  8  1  0
 10 11  1  0
 10  9  1  1
 11  4  1  0
 12 10  1  0
 13 12  2  0
 14 12  1  0
 15 16  1  1
 15 14  1  0
 16 17  1  0
 17 21  1  0
 18 17  2  0
 18 19  1  0
 19 20  1  0
 21 20  2  0
 22 23  1  0
 22 15  1  0
 24 22  2  0
M  END
$$$$
