AMH.pdb
     RDKit          3D

 24 24  0  0  1  0  0  0  0  0999 V2000
    8.0799  -14.7873   19.2183 C   0  0  0  0  0  0  0  0  0  0  0  0
    8.1886  -15.9048   20.2163 C   0  0  2  0  0  0  0  0  0  0  0  0
    6.8742  -16.4921   20.3711 N   0  0  0  0  0  0  0  0  0  0  0  0
    8.6936  -15.3733   21.5292 C   0  0  0  0  0  0  0  0  0  0  0  0
    9.8738  -14.9534   21.5532 O   0  0  0  0  0  0  0  0  0  0  0  0
    7.1333  -11.6984   28.2007 C   0  0  0  0  0  0  0  0  0  0  0  0
    6.4732  -12.4322   26.6818 S   0  0  0  0  0  0  0  0  0  0  0  0
    7.6948  -13.4808   25.8612 C   0  0  0  0  0  0  0  0  0  0  0  0
    7.1649  -14.0189   24.5358 C   0  0  0  0  0  0  0  0  0  0  0  0
    8.2891  -14.8425   23.9415 C   0  0  2  0  0  0  0  0  0  0  0  0
    7.8752  -15.3513   22.6714 N   0  0  0  0  0  0  0  0  0  0  0  0
    8.7619  -15.9265   24.8001 C   0  0  0  0  0  0  0  0  0  0  0  0
    7.9511  -16.7604   25.2532 O   0  0  0  0  0  0  0  0  0  0  0  0
   10.1576  -16.0888   25.1618 N   0  0  0  0  0  0  0  0  0  0  0  0
   10.5688  -17.1390   26.0521 C   0  0  1  0  0  0  0  0  0  0  0  0
   11.9489  -17.6048   25.6889 C   0  0  0  0  0  0  0  0  0  0  0  0
   11.9079  -18.2550   24.3567 C   0  0  0  0  0  0  0  0  0  0  0  0
   10.7701  -18.5795   23.6165 C   0  0  0  0  0  0  0  0  0  0  0  0
   11.1731  -19.1537   22.4724 N   0  0  0  0  0  0  0  0  0  0  0  0
   12.5143  -19.1962   22.4778 C   0  0  0  0  0  0  0  0  0  0  0  0
   12.9629  -18.6485   23.6263 N   0  0  0  0  0  0  0  0  0  0  0  0
   10.6274  -16.6495   27.4754 C   0  0  0  0  0  0  0  0  0  0  0  0
   10.9113  -17.5284   28.5058 O   0  0  0  0  0  0  0  0  0  0  0  0
   10.4249  -15.4492   27.7767 O   0  0  0  0  0  0  0  0  0  0  0  0
  2  1  1  6
  3  2  1  0
  4  2  1  0
  5  4  2  0
  6  7  1  0
  8  7  1  0
  9  8  1  0
 10 11  1  0
 10  9  1  1
 11  4  1  0
 12 10  1  0
 13 12  2  0
 14 12  1  0
 15 16  1  6
 15 14  1  0
 16 17  1  0
 17 21  1  0
 18 17  2  0
 18 19  1  0
 19 20  1  0
 21 20  2  0
 22 23  1  0
 22 15  1  0
 24 22  2  0
M  END
$$$$
