AMH.pdb
     RDKit          3D

 24 24  0  0  1  0  0  0  0  0999 V2000
    7.4929  -14.6806   19.7420 C   0  0  0  0  0  0  0  0  0  0  0  0
    7.9360  -15.7488   20.7008 C   0  0  2  0  0  0  0  0  0  0  0  0
    6.8253  -16.6561   20.9001 N   0  0  0  0  0  0  0  0  0  0  0  0
    8.3572  -15.1267   22.0035 C   0  0  0  0  0  0  0  0  0  0  0  0
    9.4214  -14.4655   21.9966 O   0  0  0  0  0  0  0  0  0  0  0  0
    7.2185  -11.4961   28.2340 C   0  0  0  0  0  0  0  0  0  0  0  0
    6.7001  -12.2498   26.6705 S   0  0  0  0  0  0  0  0  0  0  0  0
    7.1028  -14.0104   26.6121 C   0  0  0  0  0  0  0  0  0  0  0  0
    6.6708  -14.6359   25.2895 C   0  0  0  0  0  0  0  0  0  0  0  0
    7.9160  -14.6897   24.4282 C   0  0  2  0  0  0  0  0  0  0  0  0
    7.5887  -15.2833   23.1696 N   0  0  0  0  0  0  0  0  0  0  0  0
    9.0464  -15.3815   25.0442 C   0  0  0  0  0  0  0  0  0  0  0  0
    9.6066  -14.8894   26.0453 O   0  0  0  0  0  0  0  0  0  0  0  0
    9.5638  -16.6405   24.5420 N   0  0  0  0  0  0  0  0  0  0  0  0
   10.6891  -17.2757   25.1705 C   0  0  1  0  0  0  0  0  0  0  0  0
   11.8868  -16.3730   25.1051 C   0  0  0  0  0  0  0  0  0  0  0  0
   12.3080  -16.2254   23.6909 C   0  0  0  0  0  0  0  0  0  0  0  0
   11.6662  -16.7455   22.5660 C   0  0  0  0  0  0  0  0  0  0  0  0
   12.3731  -16.3829   21.4843 N   0  0  0  0  0  0  0  0  0  0  0  0
   13.4254  -15.6600   21.8977 C   0  0  0  0  0  0  0  0  0  0  0  0
   13.3864  -15.5636   23.2428 N   0  0  0  0  0  0  0  0  0  0  0  0
   10.4153  -17.5428   26.6273 C   0  0  0  0  0  0  0  0  0  0  0  0
   11.3855  -18.1219   27.4262 O   0  0  0  0  0  0  0  0  0  0  0  0
    9.3184  -17.2564   27.1632 O   0  0  0  0  0  0  0  0  0  0  0  0
  2  1  1  6
  3  2  1  0
  4  2  1  0
  5  4  2  0
  6  7  1  0
  8  7  1  0
  9  8  1  0
 10 11  1  0
 10  9  1  1
 11  4  1  0
 12 10  1  0
 13 12  2  0
 14 12  1  0
 15 16  1  1
 15 14  1  0
 16 17  1  0
 17 21  1  0
 18 17  2  0
 18 19  1  0
 19 20  1  0
 21 20  2  0
 22 23  1  0
 22 15  1  0
 24 22  2  0
M  END
$$$$
