AMH.pdb
     RDKit          3D

 24 24  0  0  1  0  0  0  0  0999 V2000
    6.9586  -18.4144   21.3318 C   0  0  0  0  0  0  0  0  0  0  0  0
    7.4044  -16.9941   21.1305 C   0  0  2  0  0  0  0  0  0  0  0  0
    8.4111  -16.9873   20.0898 N   0  0  0  0  0  0  0  0  0  0  0  0
    7.9605  -16.4437   22.4146 C   0  0  0  0  0  0  0  0  0  0  0  0
    9.1562  -16.7130   22.6747 O   0  0  0  0  0  0  0  0  0  0  0  0
    5.8592  -10.8506   26.6648 C   0  0  0  0  0  0  0  0  0  0  0  0
    7.1995  -12.0565   26.8399 S   0  0  0  0  0  0  0  0  0  0  0  0
    7.6270  -12.8144   25.2562 C   0  0  0  0  0  0  0  0  0  0  0  0
    6.7176  -13.9986   24.9432 C   0  0  0  0  0  0  0  0  0  0  0  0
    7.6350  -15.1269   24.5181 C   0  0  2  0  0  0  0  0  0  0  0  0
    7.1710  -15.6646   23.2776 N   0  0  0  0  0  0  0  0  0  0  0  0
    7.7885  -16.1868   25.5124 C   0  0  0  0  0  0  0  0  0  0  0  0
    6.9013  -17.0559   25.6377 O   0  0  0  0  0  0  0  0  0  0  0  0
    8.9457  -16.2850   26.3820 N   0  0  0  0  0  0  0  0  0  0  0  0
    9.2977  -17.5342   26.9989 C   0  0  1  0  0  0  0  0  0  0  0  0
    9.6773  -18.5344   25.9458 C   0  0  0  0  0  0  0  0  0  0  0  0
   10.0371  -19.8160   26.5994 C   0  0  0  0  0  0  0  0  0  0  0  0
   10.0017  -20.0998   27.9654 C   0  0  0  0  0  0  0  0  0  0  0  0
   10.4045  -21.3690   28.1328 N   0  0  0  0  0  0  0  0  0  0  0  0
   10.6870  -21.8790   26.9241 C   0  0  0  0  0  0  0  0  0  0  0  0
   10.4633  -20.9328   25.9888 N   0  0  0  0  0  0  0  0  0  0  0  0
   10.4895  -17.3726   27.9058 C   0  0  0  0  0  0  0  0  0  0  0  0
   11.6248  -16.7202   27.4586 O   0  0  0  0  0  0  0  0  0  0  0  0
   10.4994  -17.8147   29.0792 O   0  0  0  0  0  0  0  0  0  0  0  0
  2  1  1  1
  3  2  1  0
  4  2  1  0
  5  4  2  0
  6  7  1  0
  8  7  1  0
  9  8  1  0
 10 11  1  0
 10  9  1  1
 11  4  1  0
 12 10  1  0
 13 12  2  0
 14 12  1  0
 15 16  1  6
 15 14  1  0
 16 17  1  0
 17 21  1  0
 18 17  2  0
 18 19  1  0
 19 20  1  0
 21 20  2  0
 22 23  1  0
 22 15  1  0
 24 22  2  0
M  END
$$$$
