AMH.pdb
     RDKit          3D

 24 24  0  0  1  0  0  0  0  0999 V2000
    7.8326  -15.0012   18.8377 C   0  0  0  0  0  0  0  0  0  0  0  0
    7.5778  -13.7562   19.6388 C   0  0  2  0  0  0  0  0  0  0  0  0
    7.9670  -12.6198   18.8303 N   0  0  0  0  0  0  0  0  0  0  0  0
    8.3686  -13.7976   20.9171 C   0  0  0  0  0  0  0  0  0  0  0  0
    9.6170  -13.8045   20.8101 O   0  0  0  0  0  0  0  0  0  0  0  0
    5.1992  -12.0494   26.8330 C   0  0  0  0  0  0  0  0  0  0  0  0
    6.7969  -11.7653   26.0281 S   0  0  0  0  0  0  0  0  0  0  0  0
    6.8865  -12.5777   24.4165 C   0  0  0  0  0  0  0  0  0  0  0  0
    7.4162  -14.0028   24.5411 C   0  0  0  0  0  0  0  0  0  0  0  0
    8.3822  -14.1900   23.3891 C   0  0  2  0  0  0  0  0  0  0  0  0
    7.7314  -13.8268   22.1693 N   0  0  0  0  0  0  0  0  0  0  0  0
    8.9489  -15.5334   23.2890 C   0  0  0  0  0  0  0  0  0  0  0  0
    9.6392  -15.8454   22.2969 O   0  0  0  0  0  0  0  0  0  0  0  0
    8.7471  -16.5476   24.3066 N   0  0  0  0  0  0  0  0  0  0  0  0
    9.5384  -16.5531   25.5061 C   0  0  1  0  0  0  0  0  0  0  0  0
    9.3394  -15.2671   26.2546 C   0  0  0  0  0  0  0  0  0  0  0  0
   10.1850  -15.2775   27.4728 C   0  0  0  0  0  0  0  0  0  0  0  0
   11.5173  -15.6826   27.5655 C   0  0  0  0  0  0  0  0  0  0  0  0
   11.9044  -15.5356   28.8421 N   0  0  0  0  0  0  0  0  0  0  0  0
   10.8635  -15.0561   29.5402 C   0  0  0  0  0  0  0  0  0  0  0  0
    9.8150  -14.8985   28.7061 N   0  0  0  0  0  0  0  0  0  0  0  0
    9.1189  -17.6698   26.4257 C   0  0  0  0  0  0  0  0  0  0  0  0
   10.0694  -18.4025   27.1144 O   0  0  0  0  0  0  0  0  0  0  0  0
    7.9148  -17.9736   26.5998 O   0  0  0  0  0  0  0  0  0  0  0  0
  2  1  1  6
  3  2  1  0
  4  2  1  0
  5  4  2  0
  6  7  1  0
  8  7  1  0
  9  8  1  0
 10 11  1  0
 10  9  1  1
 11  4  1  0
 12 10  1  0
 13 12  2  0
 14 12  1  0
 15 16  1  1
 15 14  1  0
 16 17  1  0
 17 21  1  0
 18 17  2  0
 18 19  1  0
 19 20  1  0
 21 20  2  0
 22 23  1  0
 22 15  1  0
 24 22  2  0
M  END
$$$$
