AMH.pdb
     RDKit          3D

 24 24  0  0  1  0  0  0  0  0999 V2000
    7.1527  -17.3025   20.1337 C   0  0  0  0  0  0  0  0  0  0  0  0
    7.5037  -15.8419   20.1238 C   0  0  2  0  0  0  0  0  0  0  0  0
    8.4319  -15.6149   19.0359 N   0  0  0  0  0  0  0  0  0  0  0  0
    8.1185  -15.4527   21.4398 C   0  0  0  0  0  0  0  0  0  0  0  0
    9.3526  -15.6307   21.5622 O   0  0  0  0  0  0  0  0  0  0  0  0
    7.2059  -11.5652   28.2439 C   0  0  0  0  0  0  0  0  0  0  0  0
    6.4044  -12.1573   26.7312 S   0  0  0  0  0  0  0  0  0  0  0  0
    7.5130  -13.1931   25.7497 C   0  0  0  0  0  0  0  0  0  0  0  0
    6.8394  -13.6672   24.4657 C   0  0  0  0  0  0  0  0  0  0  0  0
    7.8639  -14.5235   23.7498 C   0  0  2  0  0  0  0  0  0  0  0  0
    7.3398  -14.9153   22.4789 N   0  0  0  0  0  0  0  0  0  0  0  0
    8.3070  -15.6930   24.5058 C   0  0  0  0  0  0  0  0  0  0  0  0
    7.4905  -16.5907   24.7987 O   0  0  0  0  0  0  0  0  0  0  0  0
    9.6787  -15.8704   24.9439 N   0  0  0  0  0  0  0  0  0  0  0  0
   10.0668  -17.0342   25.6921 C   0  0  1  0  0  0  0  0  0  0  0  0
   11.4892  -17.3942   25.3747 C   0  0  0  0  0  0  0  0  0  0  0  0
   11.5546  -17.9546   24.0033 C   0  0  0  0  0  0  0  0  0  0  0  0
   10.5009  -18.5016   23.2696 C   0  0  0  0  0  0  0  0  0  0  0  0
   10.9859  -18.8916   22.0806 N   0  0  0  0  0  0  0  0  0  0  0  0
   12.2970  -18.6069   22.0521 C   0  0  0  0  0  0  0  0  0  0  0  0
   12.6444  -18.0357   23.2239 N   0  0  0  0  0  0  0  0  0  0  0  0
    9.9966  -16.7728   27.1738 C   0  0  0  0  0  0  0  0  0  0  0  0
   10.3196  -17.7711   28.0759 O   0  0  0  0  0  0  0  0  0  0  0  0
    9.6492  -15.6614   27.6392 O   0  0  0  0  0  0  0  0  0  0  0  0
  2  1  1  1
  3  2  1  0
  4  2  1  0
  5  4  2  0
  6  7  1  0
  8  7  1  0
  9  8  1  0
 10 11  1  0
 10  9  1  1
 11  4  1  0
 12 10  1  0
 13 12  2  0
 14 12  1  0
 15 16  1  6
 15 14  1  0
 16 17  1  0
 17 21  1  0
 18 17  2  0
 18 19  1  0
 19 20  1  0
 21 20  2  0
 22 23  1  0
 22 15  1  0
 24 22  2  0
M  END
$$$$
