AMH.pdb
     RDKit          3D

 24 24  0  0  1  0  0  0  0  0999 V2000
    6.3510  -17.7572   20.8412 C   0  0  0  0  0  0  0  0  0  0  0  0
    7.2636  -16.5711   20.7110 C   0  0  2  0  0  0  0  0  0  0  0  0
    8.3897  -16.9643   19.8902 N   0  0  0  0  0  0  0  0  0  0  0  0
    7.7244  -16.1263   22.0715 C   0  0  0  0  0  0  0  0  0  0  0  0
    8.6956  -16.7421   22.5691 O   0  0  0  0  0  0  0  0  0  0  0  0
    7.0454  -10.8132   27.8736 C   0  0  0  0  0  0  0  0  0  0  0  0
    6.3925  -11.3892   26.2851 S   0  0  0  0  0  0  0  0  0  0  0  0
    7.1270  -12.9652   25.7932 C   0  0  0  0  0  0  0  0  0  0  0  0
    6.6699  -13.3802   24.3982 C   0  0  0  0  0  0  0  0  0  0  0  0
    7.4355  -14.6453   24.0685 C   0  0  2  0  0  0  0  0  0  0  0  0
    7.0915  -15.0691   22.7473 N   0  0  0  0  0  0  0  0  0  0  0  0
    7.2421  -15.7340   25.0241 C   0  0  0  0  0  0  0  0  0  0  0  0
    6.1140  -16.2511   25.1586 O   0  0  0  0  0  0  0  0  0  0  0  0
    8.3181  -16.2583   25.8440 N   0  0  0  0  0  0  0  0  0  0  0  0
    8.1259  -17.4372   26.6431 C   0  0  1  0  0  0  0  0  0  0  0  0
    7.8457  -18.6151   25.7556 C   0  0  0  0  0  0  0  0  0  0  0  0
    7.6977  -19.8303   26.5926 C   0  0  0  0  0  0  0  0  0  0  0  0
    7.8356  -19.9159   27.9787 C   0  0  0  0  0  0  0  0  0  0  0  0
    7.6231  -21.1921   28.3356 N   0  0  0  0  0  0  0  0  0  0  0  0
    7.3597  -21.8968   27.2244 C   0  0  0  0  0  0  0  0  0  0  0  0
    7.4051  -21.0672   26.1614 N   0  0  0  0  0  0  0  0  0  0  0  0
    9.3663  -17.7633   27.4328 C   0  0  0  0  0  0  0  0  0  0  0  0
   10.5156  -17.0097   27.2720 O   0  0  0  0  0  0  0  0  0  0  0  0
    9.4054  -18.7125   28.2513 O   0  0  0  0  0  0  0  0  0  0  0  0
  2  1  1  1
  3  2  1  0
  4  2  1  0
  5  4  2  0
  6  7  1  0
  8  7  1  0
  9  8  1  0
 10 11  1  0
 10  9  1  1
 11  4  1  0
 12 10  1  0
 13 12  2  0
 14 12  1  0
 15 16  1  6
 15 14  1  0
 16 17  1  0
 17 21  1  0
 18 17  2  0
 18 19  1  0
 19 20  1  0
 21 20  2  0
 22 23  1  0
 22 15  1  0
 24 22  2  0
M  END
$$$$
