AMH.pdb
     RDKit          3D

 24 24  0  0  1  0  0  0  0  0999 V2000
    7.5180  -14.4086   19.4590 C   0  0  0  0  0  0  0  0  0  0  0  0
    7.8502  -15.5224   20.4107 C   0  0  2  0  0  0  0  0  0  0  0  0
    6.6644  -16.3374   20.5728 N   0  0  0  0  0  0  0  0  0  0  0  0
    8.2921  -14.9546   21.7311 C   0  0  0  0  0  0  0  0  0  0  0  0
    9.4537  -14.4882   21.7860 O   0  0  0  0  0  0  0  0  0  0  0  0
    6.1250  -10.7223   27.3512 C   0  0  0  0  0  0  0  0  0  0  0  0
    5.7174  -12.4550   27.0151 S   0  0  0  0  0  0  0  0  0  0  0  0
    7.0535  -13.2971   26.1370 C   0  0  0  0  0  0  0  0  0  0  0  0
    6.5792  -13.8409   24.7930 C   0  0  0  0  0  0  0  0  0  0  0  0
    7.8030  -14.4409   24.1315 C   0  0  2  0  0  0  0  0  0  0  0  0
    7.4376  -14.9505   22.8468 N   0  0  0  0  0  0  0  0  0  0  0  0
    8.4719  -15.4720   24.9221 C   0  0  0  0  0  0  0  0  0  0  0  0
    7.8630  -16.0325   25.8566 O   0  0  0  0  0  0  0  0  0  0  0  0
    9.8388  -15.8889   24.6719 N   0  0  0  0  0  0  0  0  0  0  0  0
   10.3744  -17.0665   25.2977 C   0  0  1  0  0  0  0  0  0  0  0  0
    9.5871  -18.2724   24.8741 C   0  0  0  0  0  0  0  0  0  0  0  0
    8.8204  -18.7852   26.0352 C   0  0  0  0  0  0  0  0  0  0  0  0
    8.7967  -18.2537   27.3254 C   0  0  0  0  0  0  0  0  0  0  0  0
    7.9806  -19.0160   28.0698 N   0  0  0  0  0  0  0  0  0  0  0  0
    7.5003  -19.9965   27.2897 C   0  0  0  0  0  0  0  0  0  0  0  0
    8.0118  -19.8565   26.0492 N   0  0  0  0  0  0  0  0  0  0  0  0
   11.8019  -17.3002   24.8780 C   0  0  0  0  0  0  0  0  0  0  0  0
   12.3795  -16.5143   23.8963 O   0  0  0  0  0  0  0  0  0  0  0  0
   12.5095  -18.1989   25.3917 O   0  0  0  0  0  0  0  0  0  0  0  0
  2  1  1  6
  3  2  1  0
  4  2  1  0
  5  4  2  0
  6  7  1  0
  8  7  1  0
  9  8  1  0
 10 11  1  0
 10  9  1  1
 11  4  1  0
 12 10  1  0
 13 12  2  0
 14 12  1  0
 15 16  1  6
 15 14  1  0
 16 17  1  0
 17 21  1  0
 18 17  2  0
 18 19  1  0
 19 20  1  0
 21 20  2  0
 22 23  1  0
 22 15  1  0
 24 22  2  0
M  END
$$$$
