AMH.pdb
     RDKit          3D

 24 24  0  0  1  0  0  0  0  0999 V2000
    8.4895  -17.8960   20.4815 C   0  0  0  0  0  0  0  0  0  0  0  0
    8.5712  -16.3965   20.4444 C   0  0  2  0  0  0  0  0  0  0  0  0
    9.5323  -16.0286   19.4258 N   0  0  0  0  0  0  0  0  0  0  0  0
    8.9919  -15.8719   21.7894 C   0  0  0  0  0  0  0  0  0  0  0  0
   10.2233  -15.7676   21.9960 O   0  0  0  0  0  0  0  0  0  0  0  0
    6.8984  -11.8208   28.1933 C   0  0  0  0  0  0  0  0  0  0  0  0
    6.3397  -12.6005   26.6566 S   0  0  0  0  0  0  0  0  0  0  0  0
    7.6317  -13.6275   25.9208 C   0  0  0  0  0  0  0  0  0  0  0  0
    7.1878  -14.2031   24.5797 C   0  0  0  0  0  0  0  0  0  0  0  0
    8.3772  -14.9730   24.0430 C   0  0  2  0  0  0  0  0  0  0  0  0
    8.0436  -15.5170   22.7639 N   0  0  0  0  0  0  0  0  0  0  0  0
    8.8699  -16.0209   24.9346 C   0  0  0  0  0  0  0  0  0  0  0  0
    8.1359  -16.9885   25.2231 O   0  0  0  0  0  0  0  0  0  0  0  0
   10.1991  -15.9956   25.5156 N   0  0  0  0  0  0  0  0  0  0  0  0
   10.5922  -16.9717   26.4942 C   0  0  1  0  0  0  0  0  0  0  0  0
   12.0193  -17.3776   26.2655 C   0  0  0  0  0  0  0  0  0  0  0  0
   12.0750  -18.3500   25.1472 C   0  0  0  0  0  0  0  0  0  0  0  0
   10.9919  -18.9273   24.4830 C   0  0  0  0  0  0  0  0  0  0  0  0
   11.4778  -19.7491   23.5397 N   0  0  0  0  0  0  0  0  0  0  0  0
   12.8177  -19.7015   23.5962 C   0  0  0  0  0  0  0  0  0  0  0  0
   13.1825  -18.8487   24.5760 N   0  0  0  0  0  0  0  0  0  0  0  0
   10.5115  -16.4038   27.8870 C   0  0  0  0  0  0  0  0  0  0  0  0
   10.1334  -15.0875   28.0844 O   0  0  0  0  0  0  0  0  0  0  0  0
   10.7789  -17.0885   28.9030 O   0  0  0  0  0  0  0  0  0  0  0  0
  2  1  1  1
  3  2  1  0
  4  2  1  0
  5  4  2  0
  6  7  1  0
  8  7  1  0
  9  8  1  0
 10 11  1  0
 10  9  1  1
 11  4  1  0
 12 10  1  0
 13 12  2  0
 14 12  1  0
 15 16  1  6
 15 14  1  0
 16 17  1  0
 17 21  1  0
 18 17  2  0
 18 19  1  0
 19 20  1  0
 21 20  2  0
 22 23  1  0
 22 15  1  0
 24 22  2  0
M  END
$$$$
