AMH.pdb
     RDKit          3D

 24 24  0  0  1  0  0  0  0  0999 V2000
    8.5305  -14.3573   19.1689 C   0  0  0  0  0  0  0  0  0  0  0  0
    8.4274  -15.5167   20.1185 C   0  0  2  0  0  0  0  0  0  0  0  0
    7.0544  -15.9764   20.1116 N   0  0  0  0  0  0  0  0  0  0  0  0
    8.8395  -15.0874   21.4995 C   0  0  0  0  0  0  0  0  0  0  0  0
   10.0433  -14.7795   21.6605 O   0  0  0  0  0  0  0  0  0  0  0  0
    6.8055  -11.2815   26.9421 C   0  0  0  0  0  0  0  0  0  0  0  0
    5.9911  -12.8923   26.7881 S   0  0  0  0  0  0  0  0  0  0  0  0
    7.0328  -14.0869   25.9202 C   0  0  0  0  0  0  0  0  0  0  0  0
    7.1248  -13.7663   24.4317 C   0  0  0  0  0  0  0  0  0  0  0  0
    8.2409  -14.6341   23.8871 C   0  0  2  0  0  0  0  0  0  0  0  0
    7.9132  -15.0360   22.5550 N   0  0  0  0  0  0  0  0  0  0  0  0
    8.5572  -15.7983   24.7120 C   0  0  0  0  0  0  0  0  0  0  0  0
    7.6361  -16.4654   25.2265 O   0  0  0  0  0  0  0  0  0  0  0  0
    9.9180  -16.2302   24.9702 N   0  0  0  0  0  0  0  0  0  0  0  0
   10.1853  -17.3212   25.8665 C   0  0  1  0  0  0  0  0  0  0  0  0
   11.2652  -18.1956   25.2983 C   0  0  0  0  0  0  0  0  0  0  0  0
   10.7340  -18.9201   24.1184 C   0  0  0  0  0  0  0  0  0  0  0  0
    9.4373  -18.8528   23.6069 C   0  0  0  0  0  0  0  0  0  0  0  0
    9.3743  -19.6609   22.5371 N   0  0  0  0  0  0  0  0  0  0  0  0
   10.5809  -20.2237   22.3689 C   0  0  0  0  0  0  0  0  0  0  0  0
   11.4103  -19.7725   23.3326 N   0  0  0  0  0  0  0  0  0  0  0  0
   10.6778  -16.8187   27.1983 C   0  0  0  0  0  0  0  0  0  0  0  0
   10.9283  -15.4711   27.3878 O   0  0  0  0  0  0  0  0  0  0  0  0
   10.8764  -17.5872   28.1691 O   0  0  0  0  0  0  0  0  0  0  0  0
  2  1  1  6
  3  2  1  0
  4  2  1  0
  5  4  2  0
  6  7  1  0
  8  7  1  0
  9  8  1  0
 10 11  1  0
 10  9  1  1
 11  4  1  0
 12 10  1  0
 13 12  2  0
 14 12  1  0
 15 16  1  6
 15 14  1  0
 16 17  1  0
 17 21  1  0
 18 17  2  0
 18 19  1  0
 19 20  1  0
 21 20  2  0
 22 23  1  0
 22 15  1  0
 24 22  2  0
M  END
$$$$
