NLC.pdb
     RDKit          3D

 23 22  0  0  1  0  0  0  0  0999 V2000
   22.7840  -14.0083  -23.3147 N   0  0  0  0  0  0  0  0  0  0  0  0
   21.9515  -12.9198  -22.9227 C   0  0  0  0  0  0  0  0  0  0  0  0
   21.2103  -12.3620  -23.7558 O   0  0  0  0  0  0  0  0  0  0  0  0
   21.9553  -12.4330  -21.5160 C   0  0  0  0  0  0  0  0  0  0  0  0
   22.8949  -13.1967  -20.6749 C   0  0  2  0  0  0  0  0  0  0  0  0
   22.2848  -14.4768  -20.2643 N   0  0  0  0  0  0  0  0  0  0  0  0
   23.2373  -12.5523  -19.3606 C   0  0  0  0  0  0  0  0  0  0  0  0
   22.3792  -12.8533  -18.4490 O   0  0  0  0  0  0  0  0  0  0  0  0
   26.1731  -10.7434  -15.0525 C   0  0  0  0  0  0  0  0  0  0  0  0
   26.6076  -10.4420  -16.4345 C   0  0  1  0  0  0  0  0  0  0  0  0
   28.1321  -10.5428  -16.4553 C   0  0  0  0  0  0  0  0  0  0  0  0
   25.9713  -11.1395  -17.5544 C   0  0  0  0  0  0  0  0  0  0  0  0
   24.5403  -11.0621  -17.8429 C   0  0  2  0  0  0  0  0  0  0  0  0
   24.3493  -11.7293  -19.1691 N   0  0  0  0  0  0  0  0  0  0  0  0
   23.8600   -9.7763  -17.9857 C   0  0  0  0  0  0  0  0  0  0  0  0
   23.9677   -9.0580  -19.0462 O   0  0  0  0  0  0  0  0  0  0  0  0
   23.0004   -9.1738  -16.9953 N   0  0  0  0  0  0  0  0  0  0  0  0
   22.3647   -7.9166  -17.2279 C   0  0  1  0  0  0  0  0  0  0  0  0
   21.0381   -8.0895  -17.9791 C   0  0  0  0  0  0  0  0  0  0  0  0
   20.0071   -6.6220  -17.7235 S   0  0  0  0  0  0  0  0  0  0  0  0
   22.1355   -7.1206  -16.0055 C   0  0  0  0  0  0  0  0  0  0  0  0
   21.8349   -5.7627  -16.1309 O   0  0  0  0  0  0  0  0  0  0  0  0
   22.1879   -7.5666  -14.8400 O   0  0  0  0  0  0  0  0  0  0  0  0
  2  1  1  0
  2  3  2  0
  4  2  1  0
  5  4  1  0
  5  6  1  1
  7  5  1  0
  7  8  2  0
 10  9  1  1
 10 12  1  0
 11 10  1  0
 13 12  1  6
 13 15  1  0
 13 14  1  0
 14  7  1  0
 15 17  1  0
 16 15  2  0
 17 18  1  0
 18 21  1  0
 19 20  1  0
 18 19  1  1
 21 23  2  0
 21 22  1  0
M  END
$$$$
