NLC.pdb
     RDKit          3D

 23 22  0  0  1  0  0  0  0  0999 V2000
   28.6927  -18.5682  -15.2787 N   0  0  0  0  0  0  0  0  0  0  0  0
   27.2804  -18.6412  -15.4568 C   0  0  0  0  0  0  0  0  0  0  0  0
   26.7336  -18.0449  -16.4055 O   0  0  0  0  0  0  0  0  0  0  0  0
   26.4388  -19.4279  -14.5141 C   0  0  0  0  0  0  0  0  0  0  0  0
   27.2281  -19.9586  -13.3877 C   0  0  2  0  0  0  0  0  0  0  0  0
   28.0408  -21.1079  -13.8331 N   0  0  0  0  0  0  0  0  0  0  0  0
   26.4171  -20.5382  -12.2624 C   0  0  0  0  0  0  0  0  0  0  0  0
   26.0771  -21.7565  -12.5036 O   0  0  0  0  0  0  0  0  0  0  0  0
   27.0598  -19.3685   -6.8232 C   0  0  0  0  0  0  0  0  0  0  0  0
   26.7839  -20.1147   -8.0709 C   0  0  1  0  0  0  0  0  0  0  0  0
   26.9905  -21.5963   -7.7601 C   0  0  0  0  0  0  0  0  0  0  0  0
   25.5444  -19.8501   -8.8053 C   0  0  0  0  0  0  0  0  0  0  0  0
   25.2118  -20.4854  -10.0792 C   0  0  2  0  0  0  0  0  0  0  0  0
   26.0797  -19.8295  -11.1072 N   0  0  0  0  0  0  0  0  0  0  0  0
   23.8651  -20.4063  -10.6417 C   0  0  0  0  0  0  0  0  0  0  0  0
   23.2253  -19.2953  -10.7345 O   0  0  0  0  0  0  0  0  0  0  0  0
   23.1110  -21.5229  -11.1586 N   0  0  0  0  0  0  0  0  0  0  0  0
   21.8095  -21.3460  -11.7188 C   0  0  1  0  0  0  0  0  0  0  0  0
   21.5970  -22.2504  -12.9398 C   0  0  0  0  0  0  0  0  0  0  0  0
   22.4413  -21.5331  -14.3732 S   0  0  0  0  0  0  0  0  0  0  0  0
   20.7061  -21.5510  -10.7592 C   0  0  0  0  0  0  0  0  0  0  0  0
   21.0096  -21.9615   -9.4594 O   0  0  0  0  0  0  0  0  0  0  0  0
   19.4948  -21.3850  -11.0144 O   0  0  0  0  0  0  0  0  0  0  0  0
  2  1  1  0
  2  3  2  0
  4  2  1  0
  5  4  1  0
  5  6  1  6
  7  5  1  0
  7  8  2  0
 10  9  1  1
 10 12  1  0
 11 10  1  0
 13 12  1  1
 13 15  1  0
 13 14  1  0
 14  7  1  0
 15 17  1  0
 16 15  2  0
 17 18  1  0
 18 21  1  0
 19 20  1  0
 18 19  1  6
 21 23  2  0
 21 22  1  0
M  END
$$$$
