NLC.pdb
     RDKit          3D

 23 22  0  0  1  0  0  0  0  0999 V2000
   29.4555  -21.3861  -18.3401 N   0  0  0  0  0  0  0  0  0  0  0  0
   28.3469  -20.4905  -18.3189 C   0  0  0  0  0  0  0  0  0  0  0  0
   28.1661  -19.6898  -19.2574 O   0  0  0  0  0  0  0  0  0  0  0  0
   27.3910  -20.4970  -17.1779 C   0  0  0  0  0  0  0  0  0  0  0  0
   27.8171  -21.4220  -16.1118 C   0  0  2  0  0  0  0  0  0  0  0  0
   28.0911  -22.7579  -16.6773 N   0  0  0  0  0  0  0  0  0  0  0  0
   26.7753  -21.7082  -15.0666 C   0  0  0  0  0  0  0  0  0  0  0  0
   26.0880  -22.7570  -15.3592 O   0  0  0  0  0  0  0  0  0  0  0  0
   25.9579  -20.4814   -9.1119 C   0  0  0  0  0  0  0  0  0  0  0  0
   25.4356  -21.1207  -10.3400 C   0  0  1  0  0  0  0  0  0  0  0  0
   23.9169  -20.9541  -10.3188 C   0  0  0  0  0  0  0  0  0  0  0  0
   26.0319  -20.7814  -11.6342 C   0  0  0  0  0  0  0  0  0  0  0  0
   25.5867  -21.3576  -12.9018 C   0  0  2  0  0  0  0  0  0  0  0  0
   26.5865  -20.9227  -13.9273 N   0  0  0  0  0  0  0  0  0  0  0  0
   24.2945  -21.0052  -13.4871 C   0  0  0  0  0  0  0  0  0  0  0  0
   23.9827  -19.7933  -13.7809 O   0  0  0  0  0  0  0  0  0  0  0  0
   23.2436  -21.9398  -13.8106 N   0  0  0  0  0  0  0  0  0  0  0  0
   21.9695  -21.4946  -14.2769 C   0  0  1  0  0  0  0  0  0  0  0  0
   21.1093  -22.6679  -14.7641 C   0  0  0  0  0  0  0  0  0  0  0  0
   19.4901  -22.0483  -15.2897 S   0  0  0  0  0  0  0  0  0  0  0  0
   21.2072  -20.7050  -13.2890 C   0  0  0  0  0  0  0  0  0  0  0  0
   21.1408  -21.1577  -11.9697 O   0  0  0  0  0  0  0  0  0  0  0  0
   20.6015  -19.6410  -13.5362 O   0  0  0  0  0  0  0  0  0  0  0  0
  2  1  1  0
  2  3  2  0
  4  2  1  0
  5  4  1  0
  5  6  1  6
  7  5  1  0
  7  8  2  0
 10  9  1  1
 10 12  1  0
 11 10  1  0
 13 12  1  1
 13 15  1  0
 13 14  1  0
 14  7  1  0
 15 17  1  0
 16 15  2  0
 17 18  1  0
 18 21  1  0
 19 20  1  0
 18 19  1  1
 21 23  2  0
 21 22  1  0
M  END
$$$$
