NLC.pdb
     RDKit          3D

 23 22  0  0  1  0  0  0  0  0999 V2000
   15.6400  -10.5370  -20.1811 N   0  0  0  0  0  0  0  0  0  0  0  0
   15.9982  -11.5774  -19.2751 C   0  0  0  0  0  0  0  0  0  0  0  0
   15.9686  -12.7690  -19.6411 O   0  0  0  0  0  0  0  0  0  0  0  0
   16.4110  -11.2577  -17.8811 C   0  0  0  0  0  0  0  0  0  0  0  0
   17.8503  -11.4955  -17.6681 C   0  0  2  0  0  0  0  0  0  0  0  0
   18.0725  -12.8745  -17.1899 N   0  0  0  0  0  0  0  0  0  0  0  0
   18.4778  -10.6611  -16.5866 C   0  0  0  0  0  0  0  0  0  0  0  0
   17.8961  -10.8425  -15.4523 O   0  0  0  0  0  0  0  0  0  0  0  0
   21.7423   -8.9426  -12.8693 C   0  0  0  0  0  0  0  0  0  0  0  0
   22.2535   -9.1331  -14.2448 C   0  0  1  0  0  0  0  0  0  0  0  0
   23.5570   -9.9222  -14.1314 C   0  0  0  0  0  0  0  0  0  0  0  0
   21.3553   -9.6544  -15.2777 C   0  0  0  0  0  0  0  0  0  0  0  0
   20.0970   -9.0106  -15.6505 C   0  0  2  0  0  0  0  0  0  0  0  0
   19.5548   -9.7984  -16.8020 N   0  0  0  0  0  0  0  0  0  0  0  0
   20.0577   -7.6245  -16.1127 C   0  0  0  0  0  0  0  0  0  0  0  0
   20.6642   -7.2400  -17.1788 O   0  0  0  0  0  0  0  0  0  0  0  0
   19.3485   -6.5490  -15.4623 N   0  0  0  0  0  0  0  0  0  0  0  0
   19.3564   -5.2239  -15.9941 C   0  0  1  0  0  0  0  0  0  0  0  0
   18.0385   -4.4946  -15.7022 C   0  0  0  0  0  0  0  0  0  0  0  0
   16.6584   -5.4537  -16.3782 S   0  0  0  0  0  0  0  0  0  0  0  0
   20.4879   -4.3948  -15.5328 C   0  0  0  0  0  0  0  0  0  0  0  0
   21.3910   -4.9358  -14.6154 O   0  0  0  0  0  0  0  0  0  0  0  0
   20.7138   -3.2227  -15.9006 O   0  0  0  0  0  0  0  0  0  0  0  0
  2  1  1  0
  2  3  2  0
  4  2  1  0
  5  4  1  0
  5  6  1  1
  7  5  1  0
  7  8  2  0
 10  9  1  1
 10 12  1  0
 11 10  1  0
 13 12  1  6
 13 15  1  0
 13 14  1  0
 14  7  1  0
 15 17  1  0
 16 15  2  0
 17 18  1  0
 18 21  1  0
 19 20  1  0
 18 19  1  1
 21 23  2  0
 21 22  1  0
M  END
$$$$
