NLC.pdb
     RDKit          3D

 23 22  0  0  1  0  0  0  0  0999 V2000
   12.8264  -10.9974  -15.1001 N   0  0  0  0  0  0  0  0  0  0  0  0
   13.9534  -10.2432  -15.5388 C   0  0  0  0  0  0  0  0  0  0  0  0
   14.0163   -9.8304  -16.7136 O   0  0  0  0  0  0  0  0  0  0  0  0
   15.0703   -9.9385  -14.6031 C   0  0  0  0  0  0  0  0  0  0  0  0
   16.3461  -10.5127  -15.0680 C   0  0  2  0  0  0  0  0  0  0  0  0
   16.3386  -11.9784  -14.8909 N   0  0  0  0  0  0  0  0  0  0  0  0
   17.5562  -10.0871  -14.2842 C   0  0  0  0  0  0  0  0  0  0  0  0
   18.0132  -11.0494  -13.5608 O   0  0  0  0  0  0  0  0  0  0  0  0
   22.4620   -9.4854  -13.0057 C   0  0  0  0  0  0  0  0  0  0  0  0
   21.8729   -8.9681  -14.2607 C   0  0  1  0  0  0  0  0  0  0  0  0
   22.7355   -9.4919  -15.4080 C   0  0  0  0  0  0  0  0  0  0  0  0
   20.4374   -9.1335  -14.5005 C   0  0  0  0  0  0  0  0  0  0  0  0
   19.4055   -8.5359  -13.6548 C   0  0  2  0  0  0  0  0  0  0  0  0
   18.1026   -8.8030  -14.3414 N   0  0  0  0  0  0  0  0  0  0  0  0
   19.3808   -7.1002  -13.3820 C   0  0  0  0  0  0  0  0  0  0  0  0
   19.0836   -6.2358  -14.2859 O   0  0  0  0  0  0  0  0  0  0  0  0
   19.6646   -6.4894  -12.1057 N   0  0  0  0  0  0  0  0  0  0  0  0
   19.6704   -5.0707  -11.9447 C   0  0  1  0  0  0  0  0  0  0  0  0
   19.3153   -4.6679  -10.5075 C   0  0  0  0  0  0  0  0  0  0  0  0
   17.7111   -5.3822  -10.0621 S   0  0  0  0  0  0  0  0  0  0  0  0
   20.9388   -4.4237  -12.3357 C   0  0  0  0  0  0  0  0  0  0  0  0
   22.0313   -5.2269  -12.6694 O   0  0  0  0  0  0  0  0  0  0  0  0
   21.1249   -3.1901  -12.3959 O   0  0  0  0  0  0  0  0  0  0  0  0
  2  1  1  0
  2  3  2  0
  4  2  1  0
  5  4  1  0
  5  6  1  1
  7  5  1  0
  7  8  2  0
 10  9  1  1
 10 12  1  0
 11 10  1  0
 13 12  1  6
 13 15  1  0
 13 14  1  0
 14  7  1  0
 15 17  1  0
 16 15  2  0
 17 18  1  0
 18 21  1  0
 19 20  1  0
 18 19  1  1
 21 23  2  0
 21 22  1  0
M  END
$$$$
