NLC.pdb
     RDKit          3D

 23 22  0  0  1  0  0  0  0  0999 V2000
   16.4184  -13.6024  -12.5850 N   0  0  0  0  0  0  0  0  0  0  0  0
   15.9798  -12.7110  -13.6071 C   0  0  0  0  0  0  0  0  0  0  0  0
   15.9265  -13.0906  -14.7936 O   0  0  0  0  0  0  0  0  0  0  0  0
   15.5806  -11.3162  -13.2741 C   0  0  0  0  0  0  0  0  0  0  0  0
   15.0568  -11.2098  -11.9001 C   0  0  2  0  0  0  0  0  0  0  0  0
   13.7265  -11.8440  -11.8125 N   0  0  0  0  0  0  0  0  0  0  0  0
   14.7904   -9.8071  -11.4297 C   0  0  0  0  0  0  0  0  0  0  0  0
   13.8294   -9.2615  -12.0906 O   0  0  0  0  0  0  0  0  0  0  0  0
   15.7743   -5.5183   -7.4793 C   0  0  0  0  0  0  0  0  0  0  0  0
   14.7967   -6.5952   -7.7515 C   0  0  1  0  0  0  0  0  0  0  0  0
   13.5296   -5.9248   -8.2802 C   0  0  0  0  0  0  0  0  0  0  0  0
   15.2087   -7.7528   -8.5491 C   0  0  0  0  0  0  0  0  0  0  0  0
   15.1469   -7.7879  -10.0092 C   0  0  2  0  0  0  0  0  0  0  0  0
   15.5073   -9.1858  -10.4047 N   0  0  0  0  0  0  0  0  0  0  0  0
   16.0163   -6.9465  -10.8293 C   0  0  0  0  0  0  0  0  0  0  0  0
   17.2976   -7.0407  -10.7892 O   0  0  0  0  0  0  0  0  0  0  0  0
   15.5651   -5.9453  -11.7656 N   0  0  0  0  0  0  0  0  0  0  0  0
   16.4895   -5.1232  -12.4786 C   0  0  1  0  0  0  0  0  0  0  0  0
   16.2176   -5.1529  -13.9883 C   0  0  0  0  0  0  0  0  0  0  0  0
   16.1152   -6.8733  -14.5467 S   0  0  0  0  0  0  0  0  0  0  0  0
   16.5326   -3.7216  -12.0160 C   0  0  0  0  0  0  0  0  0  0  0  0
   17.5859   -2.9052  -12.4332 O   0  0  0  0  0  0  0  0  0  0  0  0
   15.6881   -3.1886  -11.2657 O   0  0  0  0  0  0  0  0  0  0  0  0
  2  1  1  0
  2  3  2  0
  4  2  1  0
  5  4  1  0
  5  6  1  6
  7  5  1  0
  7  8  2  0
 10  9  1  6
 10 12  1  0
 11 10  1  0
 13 12  1  1
 13 15  1  0
 13 14  1  0
 14  7  1  0
 15 17  1  0
 16 15  2  0
 17 18  1  0
 18 21  1  0
 19 20  1  0
 18 19  1  6
 21 23  2  0
 21 22  1  0
M  END
$$$$
