NLC.pdb
     RDKit          3D

 23 22  0  0  1  0  0  0  0  0999 V2000
   28.4829  -21.5437  -19.5604 N   0  0  0  0  0  0  0  0  0  0  0  0
   29.0614  -20.5666  -18.6988 C   0  0  0  0  0  0  0  0  0  0  0  0
   30.2955  -20.3894  -18.6866 O   0  0  0  0  0  0  0  0  0  0  0  0
   28.2027  -19.7456  -17.8020 C   0  0  0  0  0  0  0  0  0  0  0  0
   26.7807  -20.1189  -17.9130 C   0  0  2  0  0  0  0  0  0  0  0  0
   26.2007  -19.5512  -19.1462 N   0  0  0  0  0  0  0  0  0  0  0  0
   25.8923  -19.5596  -16.8370 C   0  0  0  0  0  0  0  0  0  0  0  0
   25.9271  -18.2726  -16.8170 O   0  0  0  0  0  0  0  0  0  0  0  0
   21.5482  -17.5843  -15.0797 C   0  0  0  0  0  0  0  0  0  0  0  0
   21.6701  -18.8572  -15.8243 C   0  0  1  0  0  0  0  0  0  0  0  0
   20.7215  -18.7684  -17.0188 C   0  0  0  0  0  0  0  0  0  0  0  0
   23.0008  -19.3527  -16.1842 C   0  0  0  0  0  0  0  0  0  0  0  0
   24.0173  -19.7188  -15.1995 C   0  0  2  0  0  0  0  0  0  0  0  0
   25.1327  -20.3507  -15.9723 N   0  0  0  0  0  0  0  0  0  0  0  0
   23.7337  -20.6745  -14.1306 C   0  0  0  0  0  0  0  0  0  0  0  0
   23.4225  -21.8984  -14.3701 O   0  0  0  0  0  0  0  0  0  0  0  0
   23.7766  -20.3817  -12.7181 N   0  0  0  0  0  0  0  0  0  0  0  0
   23.3795  -21.3488  -11.7455 C   0  0  1  0  0  0  0  0  0  0  0  0
   24.0474  -21.0871  -10.3892 C   0  0  0  0  0  0  0  0  0  0  0  0
   25.5727  -20.1431  -10.6427 S   0  0  0  0  0  0  0  0  0  0  0  0
   21.9183  -21.4538  -11.5600 C   0  0  0  0  0  0  0  0  0  0  0  0
   21.4073  -22.5192  -10.8158 O   0  0  0  0  0  0  0  0  0  0  0  0
   21.0783  -20.6530  -12.0217 O   0  0  0  0  0  0  0  0  0  0  0  0
  2  1  1  0
  2  3  2  0
  4  2  1  0
  5  4  1  0
  5  6  1  6
  7  5  1  0
  7  8  2  0
 10  9  1  6
 10 12  1  0
 11 10  1  0
 13 12  1  6
 13 15  1  0
 13 14  1  0
 14  7  1  0
 15 17  1  0
 16 15  2  0
 17 18  1  0
 18 21  1  0
 19 20  1  0
 18 19  1  1
 21 23  2  0
 21 22  1  0
M  END
$$$$
