NLC.pdb
     RDKit          3D

 23 22  0  0  1  0  0  0  0  0999 V2000
   11.8612  -18.5388    5.2190 N   0  0  0  0  0  0  0  0  0  0  0  0
   12.6955  -17.3918    5.3604 C   0  0  0  0  0  0  0  0  0  0  0  0
   12.1986  -16.2483    5.3640 O   0  0  0  0  0  0  0  0  0  0  0  0
   14.1694  -17.5417    5.5047 C   0  0  0  0  0  0  0  0  0  0  0  0
   14.8966  -16.8936    4.3980 C   0  0  2  0  0  0  0  0  0  0  0  0
   15.1471  -17.8660    3.3157 N   0  0  0  0  0  0  0  0  0  0  0  0
   16.2787  -16.4131    4.7427 C   0  0  0  0  0  0  0  0  0  0  0  0
   17.1835  -17.1956    4.2663 O   0  0  0  0  0  0  0  0  0  0  0  0
   19.6561  -12.3046    7.1935 C   0  0  0  0  0  0  0  0  0  0  0  0
   19.0936  -12.5051    5.8396 C   0  0  1  0  0  0  0  0  0  0  0  0
   20.2510  -12.9188    4.9320 C   0  0  0  0  0  0  0  0  0  0  0  0
   17.9058  -13.3462    5.6740 C   0  0  0  0  0  0  0  0  0  0  0  0
   17.9482  -14.8074    5.6680 C   0  0  2  0  0  0  0  0  0  0  0  0
   16.5330  -15.2612    5.4904 N   0  0  0  0  0  0  0  0  0  0  0  0
   18.4251  -15.5608    6.8262 C   0  0  0  0  0  0  0  0  0  0  0  0
   17.6793  -15.7934    7.8469 O   0  0  0  0  0  0  0  0  0  0  0  0
   19.7435  -16.1313    6.9639 N   0  0  0  0  0  0  0  0  0  0  0  0
   20.1402  -16.8084    8.1567 C   0  0  1  0  0  0  0  0  0  0  0  0
   21.1611  -17.9148    7.8604 C   0  0  0  0  0  0  0  0  0  0  0  0
   20.5749  -19.4776    8.5645 S   0  0  0  0  0  0  0  0  0  0  0  0
   20.6733  -15.9184    9.2075 C   0  0  0  0  0  0  0  0  0  0  0  0
   20.8585  -16.4286   10.4941 O   0  0  0  0  0  0  0  0  0  0  0  0
   20.9810  -14.7192    9.0422 O   0  0  0  0  0  0  0  0  0  0  0  0
  2  1  1  0
  2  3  2  0
  4  2  1  0
  5  4  1  0
  5  6  1  6
  7  5  1  0
  7  8  2  0
 10  9  1  1
 10 12  1  0
 11 10  1  0
 13 12  1  1
 13 15  1  0
 13 14  1  0
 14  7  1  0
 15 17  1  0
 16 15  2  0
 17 18  1  0
 18 21  1  0
 19 20  1  0
 18 19  1  6
 21 23  2  0
 21 22  1  0
M  END
$$$$
