NLC.pdb
     RDKit          3D

 23 22  0  0  1  0  0  0  0  0999 V2000
   30.5740  -11.4278  -21.0567 N   0  0  0  0  0  0  0  0  0  0  0  0
   30.6424  -10.0193  -20.8491 C   0  0  0  0  0  0  0  0  0  0  0  0
   30.3292   -9.2321  -21.7638 O   0  0  0  0  0  0  0  0  0  0  0  0
   31.0888   -9.4685  -19.5403 C   0  0  0  0  0  0  0  0  0  0  0  0
   31.4599  -10.5368  -18.5944 C   0  0  2  0  0  0  0  0  0  0  0  0
   30.2482  -11.2131  -18.0904 N   0  0  0  0  0  0  0  0  0  0  0  0
   32.1281  -10.0638  -17.3337 C   0  0  0  0  0  0  0  0  0  0  0  0
   31.2720   -9.8549  -16.3948 O   0  0  0  0  0  0  0  0  0  0  0  0
   35.5693  -10.0429  -13.0959 C   0  0  0  0  0  0  0  0  0  0  0  0
   36.0992  -10.0738  -14.4772 C   0  0  1  0  0  0  0  0  0  0  0  0
   37.2835  -11.0393  -14.4797 C   0  0  0  0  0  0  0  0  0  0  0  0
   35.1773  -10.2939  -15.5940 C   0  0  0  0  0  0  0  0  0  0  0  0
   34.0639   -9.4000  -15.9074 C   0  0  2  0  0  0  0  0  0  0  0  0
   33.5067   -9.8757  -17.2127 N   0  0  0  0  0  0  0  0  0  0  0  0
   34.2698   -7.9665  -16.1051 C   0  0  0  0  0  0  0  0  0  0  0  0
   34.9077   -7.4990  -17.1184 O   0  0  0  0  0  0  0  0  0  0  0  0
   33.7904   -6.9268  -15.2265 N   0  0  0  0  0  0  0  0  0  0  0  0
   34.0389   -5.5478  -15.5009 C   0  0  1  0  0  0  0  0  0  0  0  0
   32.7335   -4.7436  -15.5593 C   0  0  0  0  0  0  0  0  0  0  0  0
   31.6472   -5.4523  -16.8240 S   0  0  0  0  0  0  0  0  0  0  0  0
   34.9703   -4.9020  -14.5544 C   0  0  0  0  0  0  0  0  0  0  0  0
   35.7437   -3.8266  -14.9963 O   0  0  0  0  0  0  0  0  0  0  0  0
   35.1309   -5.2418  -13.3632 O   0  0  0  0  0  0  0  0  0  0  0  0
  2  1  1  0
  2  3  2  0
  4  2  1  0
  5  4  1  0
  5  6  1  1
  7  5  1  0
  7  8  2  0
 10  9  1  1
 10 12  1  0
 11 10  1  0
 13 12  1  6
 13 15  1  0
 13 14  1  0
 14  7  1  0
 15 17  1  0
 16 15  2  0
 17 18  1  0
 18 21  1  0
 19 20  1  0
 18 19  1  1
 21 23  2  0
 21 22  1  0
M  END
$$$$
